
*** ChampSim Multicore Out-of-Order Simulator ***

Warmup Instructions: 50000000
Simulation Instructions: 200000000
Number of CPUs: 1
LLC sets: 2048
LLC ways: 16
Off-chip DRAM Size: 4096 MB Channels: 1 Width: 64-bit Data Rate: 6400 MT/s
CPU 0 runs traces/spec2k17/server_009.champsimtrace.xz
.xz
BTB has LRU replacement policy
ITLB has LRU replacement policy
DTLB has LRU replacement policy
STLB has LRU replacement policy
L1I has LRU replacement policy
L1D has LRU replacement policy
Initialize SRRIP state for L2C
Initialize DRRIP state for LLC
Heartbeat CPU 0 instructions: 10000003 cycles: 2778374 heartbeat IPC: 3.59923 cumulative IPC: 3.59923 (Simulation time: 0 hr 0 min 21 sec) 
Heartbeat CPU 0 instructions: 20000001 cycles: 5551469 heartbeat IPC: 3.60608 cumulative IPC: 3.60265 (Simulation time: 0 hr 0 min 53 sec) 
Heartbeat CPU 0 instructions: 30000002 cycles: 8325266 heartbeat IPC: 3.60517 cumulative IPC: 3.60349 (Simulation time: 0 hr 1 min 26 sec) 
Heartbeat CPU 0 instructions: 40000003 cycles: 11102813 heartbeat IPC: 3.6003 cumulative IPC: 3.60269 (Simulation time: 0 hr 2 min 0 sec) 
Heartbeat CPU 0 instructions: 50000003 cycles: 13882573 heartbeat IPC: 3.59743 cumulative IPC: 3.60164 (Simulation time: 0 hr 2 min 34 sec) 

Warmup complete CPU 0 instructions: 50000003 cycles: 13882573 (Simulation time: 0 hr 2 min 34 sec) 

Heartbeat CPU 0 instructions: 60000000 cycles: 42377976 heartbeat IPC: 0.350934 cumulative IPC: 0.350934 (Simulation time: 0 hr 3 min 36 sec) 
Heartbeat CPU 0 instructions: 70000001 cycles: 79414622 heartbeat IPC: 0.270003 cumulative IPC: 0.305194 (Simulation time: 0 hr 4 min 52 sec) 
Heartbeat CPU 0 instructions: 80000001 cycles: 103356034 heartbeat IPC: 0.417686 cumulative IPC: 0.335295 (Simulation time: 0 hr 5 min 26 sec) 
Heartbeat CPU 0 instructions: 90000002 cycles: 126745864 heartbeat IPC: 0.427536 cumulative IPC: 0.354411 (Simulation time: 0 hr 6 min 0 sec) 
Heartbeat CPU 0 instructions: 100000003 cycles: 150372489 heartbeat IPC: 0.423251 cumulative IPC: 0.366327 (Simulation time: 0 hr 6 min 34 sec) 
*** Reached end of trace for Core: 0 Repeating trace: traces/spec2k17/server_009.champsimtrace.xz
Heartbeat CPU 0 instructions: 110000000 cycles: 173499501 heartbeat IPC: 0.432395 cumulative IPC: 0.3759 (Simulation time: 0 hr 7 min 9 sec) 
Heartbeat CPU 0 instructions: 120000000 cycles: 196321768 heartbeat IPC: 0.438169 cumulative IPC: 0.383689 (Simulation time: 0 hr 7 min 43 sec) 
Heartbeat CPU 0 instructions: 130000001 cycles: 220251215 heartbeat IPC: 0.417895 cumulative IPC: 0.387656 (Simulation time: 0 hr 8 min 17 sec) 
Heartbeat CPU 0 instructions: 140000001 cycles: 244143870 heartbeat IPC: 0.418539 cumulative IPC: 0.39086 (Simulation time: 0 hr 8 min 51 sec) 
Heartbeat CPU 0 instructions: 150000001 cycles: 267566149 heartbeat IPC: 0.426944 cumulative IPC: 0.394192 (Simulation time: 0 hr 9 min 26 sec) 
Heartbeat CPU 0 instructions: 160000002 cycles: 291655397 heartbeat IPC: 0.415123 cumulative IPC: 0.396007 (Simulation time: 0 hr 10 min 0 sec) 
Heartbeat CPU 0 instructions: 170000001 cycles: 330431287 heartbeat IPC: 0.257892 cumulative IPC: 0.379089 (Simulation time: 0 hr 10 min 47 sec) 
Heartbeat CPU 0 instructions: 180000001 cycles: 357296041 heartbeat IPC: 0.372235 cumulative IPC: 0.378552 (Simulation time: 0 hr 11 min 25 sec) 
Heartbeat CPU 0 instructions: 190000000 cycles: 380580638 heartbeat IPC: 0.429468 cumulative IPC: 0.381785 (Simulation time: 0 hr 11 min 59 sec) 
Heartbeat CPU 0 instructions: 200000000 cycles: 404415092 heartbeat IPC: 0.419561 cumulative IPC: 0.384091 (Simulation time: 0 hr 12 min 34 sec) 
*** Reached end of trace for Core: 0 Repeating trace: traces/spec2k17/server_009.champsimtrace.xz
Heartbeat CPU 0 instructions: 210000003 cycles: 427375156 heartbeat IPC: 0.435539 cumulative IPC: 0.386948 (Simulation time: 0 hr 13 min 8 sec) 
Heartbeat CPU 0 instructions: 220000000 cycles: 450439104 heartbeat IPC: 0.433577 cumulative IPC: 0.389411 (Simulation time: 0 hr 13 min 42 sec) 
Heartbeat CPU 0 instructions: 230000000 cycles: 474245231 heartbeat IPC: 0.42006 cumulative IPC: 0.390996 (Simulation time: 0 hr 14 min 17 sec) 
Heartbeat CPU 0 instructions: 240000001 cycles: 497912004 heartbeat IPC: 0.422533 cumulative IPC: 0.392538 (Simulation time: 0 hr 14 min 52 sec) 
Heartbeat CPU 0 instructions: 250000000 cycles: 521348675 heartbeat IPC: 0.426682 cumulative IPC: 0.394115 (Simulation time: 0 hr 15 min 27 sec) 
Finished CPU 0 instructions: 200000001 cycles: 507466104 cumulative IPC: 0.394115 (Simulation time: 0 hr 15 min 27 sec) 

ChampSim completed all CPUs

Region of Interest Statistics

CPU 0 cumulative IPC: 0.394115 instructions: 200000001 cycles: 507466104
ITLB TOTAL     ACCESS:   33736170  HIT:   33023848  MISS:     712322  HIT %:    97.8886  MISS %:    2.11145   MPKI: 3.56161
ITLB LOAD TRANSLATION ACCESS:   33736170  HIT:   33023848  MISS:     712322  HIT %:    97.8886  MISS %:    2.11145   MPKI: 3.56161
ITLB PREFETCH  REQUESTED:          0  ISSUED:          0  USEFUL:          0  USELESS:          0
ITLB USEFUL LOAD PREFETCHES:          0 PREFETCH ISSUED TO LOWER LEVEL:          0  ACCURACY: -nan
ITLB TIMELY PREFETCHES:          0 LATE PREFETCHES: 0 DROPPED PREFETCHES: 0
ITLB PREFETCHES SAME FILL-ORIGIN LEVEL: 0 DIFFERENT FILL-ORIGIN LEVEL: 0
ITLB AVERAGE MISS LATENCY: 15.4445 cycles
ITLB RQ	ACCESS:   40245211	FORWARD:          0	MERGED:    6338798	TO_CACHE:   33906413

DTLB TOTAL     ACCESS:   39674726  HIT:   34965367  MISS:    4709359  HIT %:    88.1301  MISS %:    11.8699   MPKI: 23.5468
DTLB LOAD TRANSLATION ACCESS:   39674726  HIT:   34965367  MISS:    4709359  HIT %:    88.1301  MISS %:    11.8699   MPKI: 23.5468
DTLB PREFETCH  REQUESTED:          0  ISSUED:          0  USEFUL:          0  USELESS:          0
DTLB USEFUL LOAD PREFETCHES:          0 PREFETCH ISSUED TO LOWER LEVEL:          0  ACCURACY: -nan
DTLB TIMELY PREFETCHES:          0 LATE PREFETCHES: 0 DROPPED PREFETCHES: 0
DTLB PREFETCHES SAME FILL-ORIGIN LEVEL: 0 DIFFERENT FILL-ORIGIN LEVEL: 0
DTLB AVERAGE MISS LATENCY: 11.4332 cycles
DTLB RQ	ACCESS:   51686409	FORWARD:          0	MERGED:   11843215	TO_CACHE:   39843194

STLB TOTAL     ACCESS:    5421681  HIT:    5011404  MISS:     410277  HIT %:    92.4327  MISS %:    7.56734   MPKI: 2.05138
STLB LOAD TRANSLATION ACCESS:    5421681  HIT:    5011404  MISS:     410277  HIT %:    92.4327  MISS %:    7.56734   MPKI: 2.05138
STLB PREFETCH  REQUESTED:          0  ISSUED:          0  USEFUL:          0  USELESS:          0
STLB USEFUL LOAD PREFETCHES:          0 PREFETCH ISSUED TO LOWER LEVEL:          0  ACCURACY: -nan
STLB TIMELY PREFETCHES:          0 LATE PREFETCHES: 0 DROPPED PREFETCHES: 0
STLB PREFETCHES SAME FILL-ORIGIN LEVEL: 0 DIFFERENT FILL-ORIGIN LEVEL: 0
STLB AVERAGE MISS LATENCY: 38.9278 cycles
STLB RQ	ACCESS:    5421681	FORWARD:          0	MERGED:          0	TO_CACHE:    5421681

STLB Hit, L1D data hit: 0
STLB Hit, L2C data hit: 0
STLB Hit, LLC data hit: 0
STLB Hit, LLC data miss: 0
STLB STLB hints to L2: 0
L1D TOTAL     ACCESS:   51165927  HIT:   45369349  MISS:    5796578  HIT %:     88.671  MISS %:     11.329   MPKI: 28.9829
L1D LOAD      ACCESS:   32313103  HIT:   26877669  MISS:    5435434  HIT %:    83.1789  MISS %:    16.8211   MPKI: 27.1772
L1D RFO       ACCESS:   18852824  HIT:   18491680  MISS:     361144  HIT %:    98.0844  MISS %:     1.9156   MPKI: 1.80572
L1D PREFETCH  REQUESTED:          0  ISSUED:          0  USEFUL:          0  USELESS:          0
L1D USEFUL LOAD PREFETCHES:          0 PREFETCH ISSUED TO LOWER LEVEL:          0  ACCURACY: -nan
L1D TIMELY PREFETCHES:          0 LATE PREFETCHES: 0 DROPPED PREFETCHES: 0
L1D PREFETCHES SAME FILL-ORIGIN LEVEL: 0 DIFFERENT FILL-ORIGIN LEVEL: 0
L1D AVERAGE MISS LATENCY: 27.4266 cycles
L1D RQ	ACCESS:   46189033	FORWARD:          0	MERGED:   13544709	TO_CACHE:   32444922
L1D WQ	ACCESS:   19535803	FORWARD:     199402	MERGED:     294316	TO_CACHE:   19241487

L1D UNIQUE REGIONS ACCESSED: 0
L1D REGIONS CONFLICTS: 0
L1D Cross Page Prefetch Requests: 0
L1D Same Page Prefetch Requests: 0
L1D ROI Sum of L1D PQ occupancy: 0
L1D PREFETCHES PUSHED FROM L2C: 0
L1I TOTAL     ACCESS:   38793832  HIT:   34306616  MISS:    4487216  HIT %:    88.4332  MISS %:    11.5668   MPKI: 22.4361
L1I LOAD      ACCESS:   38793832  HIT:   34306616  MISS:    4487216  HIT %:    88.4332  MISS %:    11.5668   MPKI: 22.4361
L1I PREFETCH  REQUESTED:          0  ISSUED:          0  USEFUL:          0  USELESS:          0
L1I USEFUL LOAD PREFETCHES:          0 PREFETCH ISSUED TO LOWER LEVEL:          0  ACCURACY: -nan
L1I TIMELY PREFETCHES:          0 LATE PREFETCHES: 0 DROPPED PREFETCHES: 0
L1I PREFETCHES SAME FILL-ORIGIN LEVEL: 0 DIFFERENT FILL-ORIGIN LEVEL: 0
L1I AVERAGE MISS LATENCY: 27.6685 cycles
L1I RQ	ACCESS:   60141255	FORWARD:          0	MERGED:   19896044	TO_CACHE:   40245211

BTB TOTAL     ACCESS:   26457735  HIT:   21644987  MISS:    4812748  HIT %:    81.8097  MISS %:    18.1903   MPKI: 24.0637
BTB BRANCH_DIRECT_JUMP	ACCESS:    1781803  HIT:    1519806  MISS:     261997
BTB BRANCH_INDIRECT	ACCESS:   13089428  HIT:   10736402  MISS:    2353026
BTB BRANCH_CONDITIONAL	ACCESS:    4687165  HIT:    4274227  MISS:     412938
BTB BRANCH_DIRECT_CALL	ACCESS:    2727145  HIT:    2216757  MISS:     510388
BTB BRANCH_INDIRECT_CALL	ACCESS:     716294  HIT:     661956  MISS:      54338
BTB BRANCH_RETURN	ACCESS:    3455900  HIT:    2235839  MISS:    1220061
BTB BRANCH_OTHER ACCESS:          0  HIT:          0  MISS:          0

L2C TOTAL     ACCESS:   11731809  HIT:    8370853  MISS:    3360956  HIT %:    71.3518  MISS %:    28.6482   MPKI: 16.8048
L2C LOAD      ACCESS:    9922523  HIT:    6952611  MISS:    2969912  HIT %:     70.069  MISS %:     29.931   MPKI: 14.8496
L2C DATA LOAD MPKI: 4.99586
L2C INSTRUCTION LOAD MPKI: 9.8537
L2C RFO       ACCESS:     361144  HIT:     203547  MISS:     157597  HIT %:    56.3617  MISS %:    43.6383   MPKI: 0.787985
L2C WRITEBACK ACCESS:     928657  HIT:     880012  MISS:      48645  HIT %:    94.7618  MISS %:    5.23821   MPKI: 0.243225
L2C LOAD TRANSLATION ACCESS:     519485  HIT:     334683  MISS:     184802  HIT %:    64.4259  MISS %:    35.5741   MPKI: 0.92401
L2C PREFETCH  REQUESTED:          0  ISSUED:          0  USEFUL:          0  USELESS:          0
L2C USEFUL LOAD PREFETCHES:          0 PREFETCH ISSUED TO LOWER LEVEL:          0  ACCURACY: -nan
L2C TIMELY PREFETCHES:          0 LATE PREFETCHES: 0 DROPPED PREFETCHES: 0
L2C PREFETCHES SAME FILL-ORIGIN LEVEL: 0 DIFFERENT FILL-ORIGIN LEVEL: 0
L2C AVERAGE MISS LATENCY: 41.0749 cycles
L2C RQ	ACCESS:   10803279	FORWARD:          0	MERGED:          0	TO_CACHE:   10803152
L2C WQ	ACCESS:     928657	FORWARD:        127	MERGED:          0	TO_CACHE:     928657

L2C Instructions Evicting Data 705757
L2C Translations Evicting Data 66903
L2C Data Evicting Data 415060
L2C Instructions Evicting Instructions 1156117
L2C Translations Evicting Instructions 109768
L2C Data Evicting Instructions 676441
L2C Instructions Evicting Translations 108866
L2C Translations Evicting Translations 8131
L2C Data Evicting Translations 65268
L2C Dense regions hint from L2: 0
PSCL5 TOTAL     ACCESS:     410277  HIT:     410277  MISS:          0  HIT %:        100  MISS %:          0   MPKI: 0
PSCL5 LOAD TRANSLATION ACCESS:     410277  HIT:     410277  MISS:          0  HIT %:        100  MISS %:          0   MPKI: 0
PSCL5 PREFETCH  REQUESTED:          0  ISSUED:          0  USEFUL:          0  USELESS:          0
PSCL5 USEFUL LOAD PREFETCHES:          0 PREFETCH ISSUED TO LOWER LEVEL:          0  ACCURACY: -nan
PSCL5 TIMELY PREFETCHES:          0 LATE PREFETCHES: 0 DROPPED PREFETCHES: 0
PSCL5 PREFETCHES SAME FILL-ORIGIN LEVEL: 0 DIFFERENT FILL-ORIGIN LEVEL: 0

PSCL4 TOTAL     ACCESS:     381981  HIT:     380757  MISS:       1224  HIT %:    99.6796  MISS %:   0.320435   MPKI: 0.00612
PSCL4 LOAD TRANSLATION ACCESS:     381981  HIT:     380757  MISS:       1224  HIT %:    99.6796  MISS %:   0.320435   MPKI: 0.00612
PSCL4 PREFETCH  REQUESTED:          0  ISSUED:          0  USEFUL:          0  USELESS:          0
PSCL4 USEFUL LOAD PREFETCHES:          0 PREFETCH ISSUED TO LOWER LEVEL:          0  ACCURACY: -nan
PSCL4 TIMELY PREFETCHES:          0 LATE PREFETCHES: 0 DROPPED PREFETCHES: 0
PSCL4 PREFETCHES SAME FILL-ORIGIN LEVEL: 0 DIFFERENT FILL-ORIGIN LEVEL: 0

PSCL3 TOTAL     ACCESS:     406997  HIT:     403666  MISS:       3331  HIT %:    99.1816  MISS %:   0.818434   MPKI: 0.016655
PSCL3 LOAD TRANSLATION ACCESS:     406997  HIT:     403666  MISS:       3331  HIT %:    99.1816  MISS %:   0.818434   MPKI: 0.016655
PSCL3 PREFETCH  REQUESTED:          0  ISSUED:          0  USEFUL:          0  USELESS:          0
PSCL3 USEFUL LOAD PREFETCHES:          0 PREFETCH ISSUED TO LOWER LEVEL:          0  ACCURACY: -nan
PSCL3 TIMELY PREFETCHES:          0 LATE PREFETCHES: 0 DROPPED PREFETCHES: 0
PSCL3 PREFETCHES SAME FILL-ORIGIN LEVEL: 0 DIFFERENT FILL-ORIGIN LEVEL: 0

PSCL2 TOTAL     ACCESS:     410277  HIT:     305548  MISS:     104729  HIT %:    74.4736  MISS %:    25.5264   MPKI: 0.523645
PSCL2 LOAD TRANSLATION ACCESS:     410277  HIT:     305548  MISS:     104729  HIT %:    74.4736  MISS %:    25.5264   MPKI: 0.523645
PSCL2 PREFETCH  REQUESTED:          0  ISSUED:          0  USEFUL:          0  USELESS:          0
PSCL2 USEFUL LOAD PREFETCHES:          0 PREFETCH ISSUED TO LOWER LEVEL:          0  ACCURACY: -nan
PSCL2 TIMELY PREFETCHES:          0 LATE PREFETCHES: 0 DROPPED PREFETCHES: 0
PSCL2 PREFETCHES SAME FILL-ORIGIN LEVEL: 0 DIFFERENT FILL-ORIGIN LEVEL: 0

LLC TOTAL     ACCESS:    3733565  HIT:    3489398  MISS:     244167  HIT %:    93.4602  MISS %:    6.53978   MPKI: 1.22083
LLC LOAD      ACCESS:    2969911  HIT:    2772697  MISS:     197214  HIT %:    93.3596  MISS %:     6.6404   MPKI: 0.98607
LLC RFO       ACCESS:     157597  HIT:     116547  MISS:      41050  HIT %:    73.9525  MISS %:    26.0475   MPKI: 0.20525
LLC WRITEBACK ACCESS:     421255  HIT:     419399  MISS:       1856  HIT %:    99.5594  MISS %:   0.440588   MPKI: 0.00928
LLC LOAD TRANSLATION ACCESS:     184802  HIT:     180755  MISS:       4047  HIT %:    97.8101  MISS %:    2.18991   MPKI: 0.020235
LLC PREFETCH  REQUESTED:          0  ISSUED:          0  USEFUL:          0  USELESS:          0
LLC USEFUL LOAD PREFETCHES:          0 PREFETCH ISSUED TO LOWER LEVEL:          0  ACCURACY: -nan
LLC TIMELY PREFETCHES:          0 LATE PREFETCHES: 0 DROPPED PREFETCHES: 0
LLC PREFETCHES SAME FILL-ORIGIN LEVEL: 0 DIFFERENT FILL-ORIGIN LEVEL: 0
LLC AVERAGE MISS LATENCY: 158.304 cycles
LLC RQ	ACCESS:    3312311	FORWARD:          0	MERGED:          0	TO_CACHE:    3312310
LLC WQ	ACCESS:     421255	FORWARD:          1	MERGED:          0	TO_CACHE:     421255

LLC Dense regions hint to LLC: 0

RAW hits: 2578107
Loads Generated: 48767141
Loads sent to L1D: 46189033
Stores Generated: 19535794
Stores sent to L1D: 19535803
Major fault: 0 Minor fault: 6724
Allocated PAGES: 6724

DRAM Statistics
 CHANNEL 0
 RQ ROW_BUFFER_HIT:      40036  ROW_BUFFER_MISS:     202274
 DBUS_CONGESTED:         78
 WQ ROW_BUFFER_HIT:      19912  ROW_BUFFER_MISS:     166645  FULL:          0

 AVG_CONGESTED_CYCLE: 4
 All warmup complete: 2
Channel 0 Bank busy for read cycles: 0
Channel 0 Bank busy for write cycles: 0
Channel 0
Rank 0
0banks busy for read cycles: 459497932
0banks busy for write cycles: 113188
1banks busy for read cycles: 22985946
1banks busy for write cycles: 15674005
2banks busy for read cycles: 2884618
2banks busy for write cycles: 3389295
3banks busy for read cycles: 382129
3banks busy for write cycles: 870114
4banks busy for read cycles: 192195
4banks busy for write cycles: 386652
5banks busy for read cycles: 74679
5banks busy for write cycles: 225447
6banks busy for read cycles: 50429
6banks busy for write cycles: 165677
7banks busy for read cycles: 42749
7banks busy for write cycles: 154595
8banks busy for read cycles: 90274
8banks busy for write cycles: 286181

CPU 0 Branch Prediction Accuracy: 99.7405% MPKI: 0.500965 Average ROB Occupancy at Mispredict: 27.5673
Branch types
NOT_BRANCH: 161395749 80.6979%
BRANCH_DIRECT_JUMP: 1781803 0.890901%
BRANCH_INDIRECT: 13089428 6.54471%
BRANCH_CONDITIONAL: 16833331 8.41667%
BRANCH_DIRECT_CALL: 2727145 1.36357%
BRANCH_INDIRECT_CALL: 716294 0.358147%
BRANCH_RETURN: 3455900 1.72795%
BRANCH_OTHER: 0 0%

DRAM PAGES: 1048576
Allocated PAGES: 6724
