
*** ChampSim Multicore Out-of-Order Simulator ***

Warmup Instructions: 50000000
Simulation Instructions: 200000000
Number of CPUs: 1
LLC sets: 2048
LLC ways: 16
Off-chip DRAM Size: 4096 MB Channels: 1 Width: 64-bit Data Rate: 6400 MT/s
CPU 0 runs traces/spec2k17/server_033.champsimtrace.xz
.xz
BTB has LRU replacement policy
ITLB has LRU replacement policy
DTLB has LRU replacement policy
STLB has LRU replacement policy
L1I has LRU replacement policy
L1D has LRU replacement policy
Initialize SRRIP state for L2C
Initialize DRRIP state for LLC
Heartbeat CPU 0 instructions: 10000003 cycles: 2815915 heartbeat IPC: 3.55124 cumulative IPC: 3.55124 (Simulation time: 0 hr 0 min 26 sec) 
Heartbeat CPU 0 instructions: 20000002 cycles: 5628440 heartbeat IPC: 3.55552 cumulative IPC: 3.55338 (Simulation time: 0 hr 0 min 51 sec) 
Heartbeat CPU 0 instructions: 30000003 cycles: 8437070 heartbeat IPC: 3.56046 cumulative IPC: 3.55574 (Simulation time: 0 hr 1 min 17 sec) 
Heartbeat CPU 0 instructions: 40000002 cycles: 11249135 heartbeat IPC: 3.55611 cumulative IPC: 3.55583 (Simulation time: 0 hr 1 min 42 sec) 
Heartbeat CPU 0 instructions: 50000002 cycles: 14060964 heartbeat IPC: 3.5564 cumulative IPC: 3.55594 (Simulation time: 0 hr 2 min 8 sec) 

Warmup complete CPU 0 instructions: 50000002 cycles: 14060964 (Simulation time: 0 hr 2 min 8 sec) 

Heartbeat CPU 0 instructions: 60000000 cycles: 40682887 heartbeat IPC: 0.37563 cumulative IPC: 0.37563 (Simulation time: 0 hr 3 min 4 sec) 
Heartbeat CPU 0 instructions: 70000000 cycles: 67078207 heartbeat IPC: 0.378855 cumulative IPC: 0.377236 (Simulation time: 0 hr 4 min 0 sec) 
Heartbeat CPU 0 instructions: 80000003 cycles: 93426841 heartbeat IPC: 0.379526 cumulative IPC: 0.377996 (Simulation time: 0 hr 4 min 57 sec) 
Heartbeat CPU 0 instructions: 90000001 cycles: 120322665 heartbeat IPC: 0.371805 cumulative IPC: 0.376429 (Simulation time: 0 hr 5 min 53 sec) 
Heartbeat CPU 0 instructions: 100000002 cycles: 146634697 heartbeat IPC: 0.380054 cumulative IPC: 0.377149 (Simulation time: 0 hr 6 min 48 sec) 
*** Reached end of trace for Core: 0 Repeating trace: traces/spec2k17/server_033.champsimtrace.xz
Heartbeat CPU 0 instructions: 110000000 cycles: 173072956 heartbeat IPC: 0.37824 cumulative IPC: 0.37733 (Simulation time: 0 hr 7 min 22 sec) 
Heartbeat CPU 0 instructions: 120000003 cycles: 199397060 heartbeat IPC: 0.37988 cumulative IPC: 0.377692 (Simulation time: 0 hr 7 min 56 sec) 
Heartbeat CPU 0 instructions: 130000000 cycles: 225684749 heartbeat IPC: 0.380406 cumulative IPC: 0.378029 (Simulation time: 0 hr 8 min 31 sec) 
Heartbeat CPU 0 instructions: 140000003 cycles: 252520065 heartbeat IPC: 0.372643 cumulative IPC: 0.377423 (Simulation time: 0 hr 9 min 6 sec) 
Heartbeat CPU 0 instructions: 150000000 cycles: 278886972 heartbeat IPC: 0.379263 cumulative IPC: 0.377606 (Simulation time: 0 hr 9 min 40 sec) 
Heartbeat CPU 0 instructions: 160000000 cycles: 305362973 heartbeat IPC: 0.377701 cumulative IPC: 0.377615 (Simulation time: 0 hr 10 min 15 sec) 
Heartbeat CPU 0 instructions: 170000001 cycles: 331745827 heartbeat IPC: 0.379034 cumulative IPC: 0.377733 (Simulation time: 0 hr 10 min 49 sec) 
Heartbeat CPU 0 instructions: 180000001 cycles: 358126718 heartbeat IPC: 0.379062 cumulative IPC: 0.377835 (Simulation time: 0 hr 11 min 23 sec) 
Heartbeat CPU 0 instructions: 190000002 cycles: 384820155 heartbeat IPC: 0.374624 cumulative IPC: 0.377604 (Simulation time: 0 hr 11 min 57 sec) 
Heartbeat CPU 0 instructions: 200000003 cycles: 411202288 heartbeat IPC: 0.379044 cumulative IPC: 0.377699 (Simulation time: 0 hr 12 min 32 sec) 
*** Reached end of trace for Core: 0 Repeating trace: traces/spec2k17/server_033.champsimtrace.xz
Heartbeat CPU 0 instructions: 210000000 cycles: 437512126 heartbeat IPC: 0.380086 cumulative IPC: 0.377848 (Simulation time: 0 hr 13 min 7 sec) 
Heartbeat CPU 0 instructions: 220000000 cycles: 463902077 heartbeat IPC: 0.378932 cumulative IPC: 0.377911 (Simulation time: 0 hr 14 min 3 sec) 
Heartbeat CPU 0 instructions: 230000001 cycles: 490185812 heartbeat IPC: 0.380463 cumulative IPC: 0.378052 (Simulation time: 0 hr 14 min 58 sec) 
Heartbeat CPU 0 instructions: 240000001 cycles: 516807079 heartbeat IPC: 0.37564 cumulative IPC: 0.377924 (Simulation time: 0 hr 15 min 41 sec) 
Heartbeat CPU 0 instructions: 250000002 cycles: 543223362 heartbeat IPC: 0.378554 cumulative IPC: 0.377956 (Simulation time: 0 hr 16 min 16 sec) 
Finished CPU 0 instructions: 200000000 cycles: 529162398 cumulative IPC: 0.377956 (Simulation time: 0 hr 16 min 16 sec) 

ChampSim completed all CPUs

Region of Interest Statistics

CPU 0 cumulative IPC: 0.377956 instructions: 200000000 cycles: 529162398
ITLB TOTAL     ACCESS:   35642659  HIT:   33616525  MISS:    2026134  HIT %:    94.3154  MISS %:    5.68458   MPKI: 10.1307
ITLB LOAD TRANSLATION ACCESS:   35642659  HIT:   33616525  MISS:    2026134  HIT %:    94.3154  MISS %:    5.68458   MPKI: 10.1307
ITLB PREFETCH  REQUESTED:          0  ISSUED:          0  USEFUL:          0  USELESS:          0
ITLB USEFUL LOAD PREFETCHES:          0 PREFETCH ISSUED TO LOWER LEVEL:          0  ACCURACY: -nan
ITLB TIMELY PREFETCHES:          0 LATE PREFETCHES: 0 DROPPED PREFETCHES: 0
ITLB PREFETCHES SAME FILL-ORIGIN LEVEL: 0 DIFFERENT FILL-ORIGIN LEVEL: 0
ITLB AVERAGE MISS LATENCY: 9.03493 cycles
ITLB RQ	ACCESS:   41306019	FORWARD:          0	MERGED:    5210091	TO_CACHE:   36095928

DTLB TOTAL     ACCESS:   39379315  HIT:   37678193  MISS:    1701122  HIT %:    95.6802  MISS %:    4.31984   MPKI: 8.50561
DTLB LOAD TRANSLATION ACCESS:   39379315  HIT:   37678193  MISS:    1701122  HIT %:    95.6802  MISS %:    4.31984   MPKI: 8.50561
DTLB PREFETCH  REQUESTED:          0  ISSUED:          0  USEFUL:          0  USELESS:          0
DTLB USEFUL LOAD PREFETCHES:          0 PREFETCH ISSUED TO LOWER LEVEL:          0  ACCURACY: -nan
DTLB TIMELY PREFETCHES:          0 LATE PREFETCHES: 0 DROPPED PREFETCHES: 0
DTLB PREFETCHES SAME FILL-ORIGIN LEVEL: 0 DIFFERENT FILL-ORIGIN LEVEL: 0
DTLB AVERAGE MISS LATENCY: 9.40698 cycles
DTLB RQ	ACCESS:   55016683	FORWARD:          0	MERGED:   15546935	TO_CACHE:   39469748

STLB TOTAL     ACCESS:    3727256  HIT:    3710779  MISS:      16477  HIT %:    99.5579  MISS %:   0.442068   MPKI: 0.082385
STLB LOAD TRANSLATION ACCESS:    3727256  HIT:    3710779  MISS:      16477  HIT %:    99.5579  MISS %:   0.442068   MPKI: 0.082385
STLB PREFETCH  REQUESTED:          0  ISSUED:          0  USEFUL:          0  USELESS:          0
STLB USEFUL LOAD PREFETCHES:          0 PREFETCH ISSUED TO LOWER LEVEL:          0  ACCURACY: -nan
STLB TIMELY PREFETCHES:          0 LATE PREFETCHES: 0 DROPPED PREFETCHES: 0
STLB PREFETCHES SAME FILL-ORIGIN LEVEL: 0 DIFFERENT FILL-ORIGIN LEVEL: 0
STLB AVERAGE MISS LATENCY: 43.7726 cycles
STLB RQ	ACCESS:    3727256	FORWARD:          0	MERGED:          0	TO_CACHE:    3727256

STLB Hit, L1D data hit: 0
STLB Hit, L2C data hit: 0
STLB Hit, LLC data hit: 0
STLB Hit, LLC data miss: 0
STLB STLB hints to L2: 0
L1D TOTAL     ACCESS:   54579935  HIT:   52129714  MISS:    2450221  HIT %:    95.5108  MISS %:    4.48923   MPKI: 12.2511
L1D LOAD      ACCESS:   30253111  HIT:   28182878  MISS:    2070233  HIT %:     93.157  MISS %:    6.84304   MPKI: 10.3512
L1D RFO       ACCESS:   24326824  HIT:   23946836  MISS:     379988  HIT %:     98.438  MISS %:    1.56201   MPKI: 1.89994
L1D PREFETCH  REQUESTED:          0  ISSUED:          0  USEFUL:          0  USELESS:          0
L1D USEFUL LOAD PREFETCHES:          0 PREFETCH ISSUED TO LOWER LEVEL:          0  ACCURACY: -nan
L1D TIMELY PREFETCHES:          0 LATE PREFETCHES: 0 DROPPED PREFETCHES: 0
L1D PREFETCHES SAME FILL-ORIGIN LEVEL: 0 DIFFERENT FILL-ORIGIN LEVEL: 0
L1D AVERAGE MISS LATENCY: 27.2545 cycles
L1D RQ	ACCESS:   43361732	FORWARD:          0	MERGED:   12702277	TO_CACHE:   30317253
L1D WQ	ACCESS:   24964815	FORWARD:     342202	MERGED:     265385	TO_CACHE:   24699430

L1D UNIQUE REGIONS ACCESSED: 0
L1D REGIONS CONFLICTS: 0
L1D Cross Page Prefetch Requests: 0
L1D Same Page Prefetch Requests: 0
L1D ROI Sum of L1D PQ occupancy: 0
L1D PREFETCHES PUSHED FROM L2C: 0
L1I TOTAL     ACCESS:   38697970  HIT:   26116716  MISS:   12581254  HIT %:    67.4886  MISS %:    32.5114   MPKI: 62.9063
L1I LOAD      ACCESS:   38697970  HIT:   26116716  MISS:   12581254  HIT %:    67.4886  MISS %:    32.5114   MPKI: 62.9063
L1I PREFETCH  REQUESTED:          0  ISSUED:          0  USEFUL:          0  USELESS:          0
L1I USEFUL LOAD PREFETCHES:          0 PREFETCH ISSUED TO LOWER LEVEL:          0  ACCURACY: -nan
L1I TIMELY PREFETCHES:          0 LATE PREFETCHES: 0 DROPPED PREFETCHES: 0
L1I PREFETCHES SAME FILL-ORIGIN LEVEL: 0 DIFFERENT FILL-ORIGIN LEVEL: 0
L1I AVERAGE MISS LATENCY: 14.5041 cycles
L1I RQ	ACCESS:   61068718	FORWARD:          0	MERGED:   19762699	TO_CACHE:   41306019

BTB TOTAL     ACCESS:   31223673  HIT:   22864778  MISS:    8358895  HIT %:     73.229  MISS %:     26.771   MPKI: 41.7945
BTB BRANCH_DIRECT_JUMP	ACCESS:    2956567  HIT:    2328967  MISS:     627600
BTB BRANCH_INDIRECT	ACCESS:   13061005  HIT:    9489306  MISS:    3571699
BTB BRANCH_CONDITIONAL	ACCESS:    5589874  HIT:    4924920  MISS:     664954
BTB BRANCH_DIRECT_CALL	ACCESS:    4001540  HIT:    3045075  MISS:     956465
BTB BRANCH_INDIRECT_CALL	ACCESS:     806569  HIT:     470352  MISS:     336217
BTB BRANCH_RETURN	ACCESS:    4808118  HIT:    2606158  MISS:    2201960
BTB BRANCH_OTHER ACCESS:          0  HIT:          0  MISS:          0

L2C TOTAL     ACCESS:   15974419  HIT:   15123638  MISS:     850781  HIT %:    94.6741  MISS %:     5.3259   MPKI: 4.2539
L2C LOAD      ACCESS:   14651476  HIT:   13925676  MISS:     725800  HIT %:    95.0462  MISS %:    4.95377   MPKI: 3.629
L2C DATA LOAD MPKI: 2.75848
L2C INSTRUCTION LOAD MPKI: 0.87052
L2C RFO       ACCESS:     379983  HIT:     284514  MISS:      95469  HIT %:    74.8755  MISS %:    25.1245   MPKI: 0.477345
L2C WRITEBACK ACCESS:     924526  HIT:     904616  MISS:      19910  HIT %:    97.8465  MISS %:    2.15354   MPKI: 0.09955
L2C LOAD TRANSLATION ACCESS:      18434  HIT:       8832  MISS:       9602  HIT %:    47.9115  MISS %:    52.0885   MPKI: 0.04801
L2C PREFETCH  REQUESTED:          0  ISSUED:          0  USEFUL:          0  USELESS:          0
L2C USEFUL LOAD PREFETCHES:          0 PREFETCH ISSUED TO LOWER LEVEL:          0  ACCURACY: -nan
L2C TIMELY PREFETCHES:          0 LATE PREFETCHES: 0 DROPPED PREFETCHES: 0
L2C PREFETCHES SAME FILL-ORIGIN LEVEL: 0 DIFFERENT FILL-ORIGIN LEVEL: 0
L2C AVERAGE MISS LATENCY: 42.0041 cycles
L2C RQ	ACCESS:   15049909	FORWARD:          0	MERGED:          0	TO_CACHE:   15049893
L2C WQ	ACCESS:     924526	FORWARD:         16	MERGED:          0	TO_CACHE:     924526

L2C Instructions Evicting Data 54998
L2C Translations Evicting Data 8697
L2C Data Evicting Data 588858
L2C Instructions Evicting Instructions 118334
L2C Translations Evicting Instructions 794
L2C Data Evicting Instructions 49773
L2C Instructions Evicting Translations 772
L2C Translations Evicting Translations 111
L2C Data Evicting Translations 8534
L2C Dense regions hint from L2: 0
PSCL5 TOTAL     ACCESS:      16477  HIT:      16477  MISS:          0  HIT %:        100  MISS %:          0   MPKI: 0
PSCL5 LOAD TRANSLATION ACCESS:      16477  HIT:      16477  MISS:          0  HIT %:        100  MISS %:          0   MPKI: 0
PSCL5 PREFETCH  REQUESTED:          0  ISSUED:          0  USEFUL:          0  USELESS:          0
PSCL5 USEFUL LOAD PREFETCHES:          0 PREFETCH ISSUED TO LOWER LEVEL:          0  ACCURACY: -nan
PSCL5 TIMELY PREFETCHES:          0 LATE PREFETCHES: 0 DROPPED PREFETCHES: 0
PSCL5 PREFETCHES SAME FILL-ORIGIN LEVEL: 0 DIFFERENT FILL-ORIGIN LEVEL: 0

PSCL4 TOTAL     ACCESS:      16301  HIT:      16271  MISS:         30  HIT %:     99.816  MISS %:   0.184038   MPKI: 0.00015
PSCL4 LOAD TRANSLATION ACCESS:      16301  HIT:      16271  MISS:         30  HIT %:     99.816  MISS %:   0.184038   MPKI: 0.00015
PSCL4 PREFETCH  REQUESTED:          0  ISSUED:          0  USEFUL:          0  USELESS:          0
PSCL4 USEFUL LOAD PREFETCHES:          0 PREFETCH ISSUED TO LOWER LEVEL:          0  ACCURACY: -nan
PSCL4 TIMELY PREFETCHES:          0 LATE PREFETCHES: 0 DROPPED PREFETCHES: 0
PSCL4 PREFETCHES SAME FILL-ORIGIN LEVEL: 0 DIFFERENT FILL-ORIGIN LEVEL: 0

PSCL3 TOTAL     ACCESS:      16411  HIT:      16381  MISS:         30  HIT %:    99.8172  MISS %:   0.182804   MPKI: 0.00015
PSCL3 LOAD TRANSLATION ACCESS:      16411  HIT:      16381  MISS:         30  HIT %:    99.8172  MISS %:   0.182804   MPKI: 0.00015
PSCL3 PREFETCH  REQUESTED:          0  ISSUED:          0  USEFUL:          0  USELESS:          0
PSCL3 USEFUL LOAD PREFETCHES:          0 PREFETCH ISSUED TO LOWER LEVEL:          0  ACCURACY: -nan
PSCL3 TIMELY PREFETCHES:          0 LATE PREFETCHES: 0 DROPPED PREFETCHES: 0
PSCL3 PREFETCHES SAME FILL-ORIGIN LEVEL: 0 DIFFERENT FILL-ORIGIN LEVEL: 0

PSCL2 TOTAL     ACCESS:      16477  HIT:      14580  MISS:       1897  HIT %:     88.487  MISS %:     11.513   MPKI: 0.009485
PSCL2 LOAD TRANSLATION ACCESS:      16477  HIT:      14580  MISS:       1897  HIT %:     88.487  MISS %:     11.513   MPKI: 0.009485
PSCL2 PREFETCH  REQUESTED:          0  ISSUED:          0  USEFUL:          0  USELESS:          0
PSCL2 USEFUL LOAD PREFETCHES:          0 PREFETCH ISSUED TO LOWER LEVEL:          0  ACCURACY: -nan
PSCL2 TIMELY PREFETCHES:          0 LATE PREFETCHES: 0 DROPPED PREFETCHES: 0
PSCL2 PREFETCHES SAME FILL-ORIGIN LEVEL: 0 DIFFERENT FILL-ORIGIN LEVEL: 0

LLC TOTAL     ACCESS:    1177275  HIT:    1109913  MISS:      67362  HIT %:    94.2781  MISS %:    5.72186   MPKI: 0.33681
LLC LOAD      ACCESS:     725800  HIT:     677468  MISS:      48332  HIT %:    93.3409  MISS %:    6.65913   MPKI: 0.24166
LLC RFO       ACCESS:      95469  HIT:      77762  MISS:      17707  HIT %:    81.4526  MISS %:    18.5474   MPKI: 0.088535
LLC WRITEBACK ACCESS:     346404  HIT:     345521  MISS:        883  HIT %:    99.7451  MISS %:   0.254905   MPKI: 0.004415
LLC LOAD TRANSLATION ACCESS:       9602  HIT:       9162  MISS:        440  HIT %:    95.4176  MISS %:    4.58238   MPKI: 0.0022
LLC PREFETCH  REQUESTED:          0  ISSUED:          0  USEFUL:          0  USELESS:          0
LLC USEFUL LOAD PREFETCHES:          0 PREFETCH ISSUED TO LOWER LEVEL:          0  ACCURACY: -nan
LLC TIMELY PREFETCHES:          0 LATE PREFETCHES: 0 DROPPED PREFETCHES: 0
LLC PREFETCHES SAME FILL-ORIGIN LEVEL: 0 DIFFERENT FILL-ORIGIN LEVEL: 0
LLC AVERAGE MISS LATENCY: 160.446 cycles
LLC RQ	ACCESS:     830871	FORWARD:          0	MERGED:          0	TO_CACHE:     830871
LLC WQ	ACCESS:     346404	FORWARD:          0	MERGED:          0	TO_CACHE:     346404

LLC Dense regions hint to LLC: 0

RAW hits: 2729206
Loads Generated: 46090938
Loads sent to L1D: 43361732
Stores Generated: 24964796
Stores sent to L1D: 24964815
Major fault: 0 Minor fault: 2572
Allocated PAGES: 2572

DRAM Statistics
 CHANNEL 0
 RQ ROW_BUFFER_HIT:       5579  ROW_BUFFER_MISS:      60900
 DBUS_CONGESTED:          2
 WQ ROW_BUFFER_HIT:       5645  ROW_BUFFER_MISS:      41613  FULL:          0

 AVG_CONGESTED_CYCLE: 4
 All warmup complete: 2
Channel 0 Bank busy for read cycles: 0
Channel 0 Bank busy for write cycles: 0
Channel 0
Rank 0
0banks busy for read cycles: 515210205
0banks busy for write cycles: 31617
1banks busy for read cycles: 6776682
1banks busy for write cycles: 4539556
2banks busy for read cycles: 935615
2banks busy for write cycles: 963341
3banks busy for read cycles: 212496
3banks busy for write cycles: 306515
4banks busy for read cycles: 11051
4banks busy for write cycles: 95636
5banks busy for read cycles: 6209
5banks busy for write cycles: 25887
6banks busy for read cycles: 4633
6banks busy for write cycles: 18255
7banks busy for read cycles: 3663
7banks busy for write cycles: 14330
8banks busy for read cycles: 0
8banks busy for write cycles: 6708

CPU 0 Branch Prediction Accuracy: 99.9377% MPKI: 0.11637 Average ROB Occupancy at Mispredict: 19.5285
Branch types
NOT_BRANCH: 162664071 81.332%
BRANCH_DIRECT_JUMP: 2956567 1.47828%
BRANCH_INDIRECT: 13061005 6.5305%
BRANCH_CONDITIONAL: 11702075 5.85104%
BRANCH_DIRECT_CALL: 4001540 2.00077%
BRANCH_INDIRECT_CALL: 806569 0.403284%
BRANCH_RETURN: 4808118 2.40406%
BRANCH_OTHER: 0 0%

DRAM PAGES: 1048576
Allocated PAGES: 2572
