
*** ChampSim Multicore Out-of-Order Simulator ***

Warmup Instructions: 50000000
Simulation Instructions: 200000000
Number of CPUs: 1
LLC sets: 2048
LLC ways: 16
Off-chip DRAM Size: 4096 MB Channels: 1 Width: 64-bit Data Rate: 6400 MT/s
CPU 0 runs traces/spec2k17/srv_1.champsimtrace.xz
.xz
BTB has LRU replacement policy
ITLB has LRU replacement policy
DTLB has LRU replacement policy
STLB has LRU replacement policy
L1I has LRU replacement policy
L1D has LRU replacement policy
Initialize SRRIP state for L2C
Initialize DRRIP state for LLC
Heartbeat CPU 0 instructions: 10000000 cycles: 4031965 heartbeat IPC: 2.48018 cumulative IPC: 2.48018 (Simulation time: 0 hr 0 min 31 sec) 
Heartbeat CPU 0 instructions: 20000003 cycles: 7363771 heartbeat IPC: 3.00138 cumulative IPC: 2.716 (Simulation time: 0 hr 0 min 57 sec) 
Heartbeat CPU 0 instructions: 30000003 cycles: 10143098 heartbeat IPC: 3.59799 cumulative IPC: 2.95768 (Simulation time: 0 hr 1 min 19 sec) 
*** Reached end of trace for Core: 0 Repeating trace: traces/spec2k17/srv_1.champsimtrace.xz
Heartbeat CPU 0 instructions: 40000001 cycles: 14043039 heartbeat IPC: 2.56414 cumulative IPC: 2.84839 (Simulation time: 0 hr 1 min 49 sec) 
Heartbeat CPU 0 instructions: 50000001 cycles: 17499692 heartbeat IPC: 2.89297 cumulative IPC: 2.85719 (Simulation time: 0 hr 2 min 16 sec) 

Warmup complete CPU 0 instructions: 50000001 cycles: 17499692 (Simulation time: 0 hr 2 min 16 sec) 

Heartbeat CPU 0 instructions: 60000000 cycles: 41764128 heartbeat IPC: 0.412126 cumulative IPC: 0.412126 (Simulation time: 0 hr 2 min 51 sec) 
*** Reached end of trace for Core: 0 Repeating trace: traces/spec2k17/srv_1.champsimtrace.xz
Heartbeat CPU 0 instructions: 70000003 cycles: 75344192 heartbeat IPC: 0.297796 cumulative IPC: 0.345755 (Simulation time: 0 hr 3 min 33 sec) 
Heartbeat CPU 0 instructions: 80000001 cycles: 106520922 heartbeat IPC: 0.320752 cumulative IPC: 0.336998 (Simulation time: 0 hr 4 min 14 sec) 
Heartbeat CPU 0 instructions: 90000000 cycles: 130874225 heartbeat IPC: 0.410622 cumulative IPC: 0.352813 (Simulation time: 0 hr 4 min 49 sec) 
*** Reached end of trace for Core: 0 Repeating trace: traces/spec2k17/srv_1.champsimtrace.xz
Heartbeat CPU 0 instructions: 100000000 cycles: 163336958 heartbeat IPC: 0.308046 cumulative IPC: 0.342848 (Simulation time: 0 hr 5 min 31 sec) 
Heartbeat CPU 0 instructions: 110000000 cycles: 195589147 heartbeat IPC: 0.310056 cumulative IPC: 0.336909 (Simulation time: 0 hr 6 min 13 sec) 
Heartbeat CPU 0 instructions: 120000001 cycles: 219865006 heartbeat IPC: 0.411932 cumulative IPC: 0.345909 (Simulation time: 0 hr 6 min 48 sec) 
*** Reached end of trace for Core: 0 Repeating trace: traces/spec2k17/srv_1.champsimtrace.xz
Heartbeat CPU 0 instructions: 130000000 cycles: 251223676 heartbeat IPC: 0.318891 cumulative IPC: 0.342284 (Simulation time: 0 hr 7 min 29 sec) 
Heartbeat CPU 0 instructions: 140000002 cycles: 284563593 heartbeat IPC: 0.299941 cumulative IPC: 0.336998 (Simulation time: 0 hr 8 min 11 sec) 
Heartbeat CPU 0 instructions: 150000002 cycles: 308772037 heartbeat IPC: 0.413079 cumulative IPC: 0.343321 (Simulation time: 0 hr 8 min 46 sec) 
*** Reached end of trace for Core: 0 Repeating trace: traces/spec2k17/srv_1.champsimtrace.xz
Heartbeat CPU 0 instructions: 160000000 cycles: 339045186 heartbeat IPC: 0.330326 cumulative IPC: 0.342098 (Simulation time: 0 hr 9 min 26 sec) 
Heartbeat CPU 0 instructions: 170000000 cycles: 373353775 heartbeat IPC: 0.291472 cumulative IPC: 0.337217 (Simulation time: 0 hr 10 min 9 sec) 
Heartbeat CPU 0 instructions: 180000000 cycles: 397636691 heartbeat IPC: 0.411812 cumulative IPC: 0.341982 (Simulation time: 0 hr 10 min 45 sec) 
*** Reached end of trace for Core: 0 Repeating trace: traces/spec2k17/srv_1.champsimtrace.xz
Heartbeat CPU 0 instructions: 190000001 cycles: 426837609 heartbeat IPC: 0.342455 cumulative IPC: 0.342016 (Simulation time: 0 hr 11 min 24 sec) 
Heartbeat CPU 0 instructions: 200000002 cycles: 462229909 heartbeat IPC: 0.282547 cumulative IPC: 0.337283 (Simulation time: 0 hr 12 min 10 sec) 
Heartbeat CPU 0 instructions: 210000002 cycles: 486486094 heartbeat IPC: 0.412266 cumulative IPC: 0.341161 (Simulation time: 0 hr 12 min 44 sec) 
*** Reached end of trace for Core: 0 Repeating trace: traces/spec2k17/srv_1.champsimtrace.xz
Heartbeat CPU 0 instructions: 220000000 cycles: 514601554 heartbeat IPC: 0.355676 cumulative IPC: 0.341982 (Simulation time: 0 hr 13 min 22 sec) 
Heartbeat CPU 0 instructions: 230000000 cycles: 551406615 heartbeat IPC: 0.271702 cumulative IPC: 0.337137 (Simulation time: 0 hr 14 min 8 sec) 
Heartbeat CPU 0 instructions: 240000000 cycles: 575301456 heartbeat IPC: 0.4185 cumulative IPC: 0.340623 (Simulation time: 0 hr 14 min 43 sec) 
*** Reached end of trace for Core: 0 Repeating trace: traces/spec2k17/srv_1.champsimtrace.xz
Heartbeat CPU 0 instructions: 250000001 cycles: 601709595 heartbeat IPC: 0.378671 cumulative IPC: 0.342343 (Simulation time: 0 hr 15 min 19 sec) 
Finished CPU 0 instructions: 200000000 cycles: 584209903 cumulative IPC: 0.342343 (Simulation time: 0 hr 15 min 19 sec) 

ChampSim completed all CPUs

Region of Interest Statistics

CPU 0 cumulative IPC: 0.342343 instructions: 200000000 cycles: 584209903
ITLB TOTAL     ACCESS:   38213972  HIT:   37663645  MISS:     550327  HIT %:    98.5599  MISS %:    1.44012   MPKI: 2.75163
ITLB LOAD TRANSLATION ACCESS:   38213972  HIT:   37663645  MISS:     550327  HIT %:    98.5599  MISS %:    1.44012   MPKI: 2.75163
ITLB PREFETCH  REQUESTED:          0  ISSUED:          0  USEFUL:          0  USELESS:          0
ITLB USEFUL LOAD PREFETCHES:          0 PREFETCH ISSUED TO LOWER LEVEL:          0  ACCURACY: -nan
ITLB TIMELY PREFETCHES:          0 LATE PREFETCHES: 0 DROPPED PREFETCHES: 0
ITLB PREFETCHES SAME FILL-ORIGIN LEVEL: 0 DIFFERENT FILL-ORIGIN LEVEL: 0
ITLB AVERAGE MISS LATENCY: 16.1007 cycles
ITLB RQ	ACCESS:   43868861	FORWARD:          0	MERGED:    5521900	TO_CACHE:   38346961

DTLB TOTAL     ACCESS:   43911203  HIT:   35219969  MISS:    8691234  HIT %:    80.2073  MISS %:    19.7927   MPKI: 43.4562
DTLB LOAD TRANSLATION ACCESS:   43911203  HIT:   35219969  MISS:    8691234  HIT %:    80.2073  MISS %:    19.7927   MPKI: 43.4562
DTLB PREFETCH  REQUESTED:          0  ISSUED:          0  USEFUL:          0  USELESS:          0
DTLB USEFUL LOAD PREFETCHES:          0 PREFETCH ISSUED TO LOWER LEVEL:          0  ACCURACY: -nan
DTLB TIMELY PREFETCHES:          0 LATE PREFETCHES: 0 DROPPED PREFETCHES: 0
DTLB PREFETCHES SAME FILL-ORIGIN LEVEL: 0 DIFFERENT FILL-ORIGIN LEVEL: 0
DTLB AVERAGE MISS LATENCY: 10.0661 cycles
DTLB RQ	ACCESS:   59095140	FORWARD:          0	MERGED:   15012580	TO_CACHE:   44082560

STLB TOTAL     ACCESS:    9241561  HIT:    8915628  MISS:     325933  HIT %:    96.4732  MISS %:    3.52682   MPKI: 1.62966
STLB LOAD TRANSLATION ACCESS:    9241561  HIT:    8915628  MISS:     325933  HIT %:    96.4732  MISS %:    3.52682   MPKI: 1.62966
STLB PREFETCH  REQUESTED:          0  ISSUED:          0  USEFUL:          0  USELESS:          0
STLB USEFUL LOAD PREFETCHES:          0 PREFETCH ISSUED TO LOWER LEVEL:          0  ACCURACY: -nan
STLB TIMELY PREFETCHES:          0 LATE PREFETCHES: 0 DROPPED PREFETCHES: 0
STLB PREFETCHES SAME FILL-ORIGIN LEVEL: 0 DIFFERENT FILL-ORIGIN LEVEL: 0
STLB AVERAGE MISS LATENCY: 40.2073 cycles
STLB RQ	ACCESS:    9241561	FORWARD:          0	MERGED:          0	TO_CACHE:    9241561

STLB Hit, L1D data hit: 0
STLB Hit, L2C data hit: 0
STLB Hit, LLC data hit: 0
STLB Hit, LLC data miss: 0
STLB STLB hints to L2: 0
L1D TOTAL     ACCESS:   58701228  HIT:   46567951  MISS:   12133277  HIT %:    79.3305  MISS %:    20.6695   MPKI: 60.6664
L1D LOAD      ACCESS:   41051829  HIT:   29292037  MISS:   11759792  HIT %:    71.3538  MISS %:    28.6462   MPKI: 58.799
L1D RFO       ACCESS:   17649399  HIT:   17275914  MISS:     373485  HIT %:    97.8839  MISS %:    2.11613   MPKI: 1.86742
L1D PREFETCH  REQUESTED:          0  ISSUED:          0  USEFUL:          0  USELESS:          0
L1D USEFUL LOAD PREFETCHES:          0 PREFETCH ISSUED TO LOWER LEVEL:          0  ACCURACY: -nan
L1D TIMELY PREFETCHES:          0 LATE PREFETCHES: 0 DROPPED PREFETCHES: 0
L1D PREFETCHES SAME FILL-ORIGIN LEVEL: 0 DIFFERENT FILL-ORIGIN LEVEL: 0
L1D AVERAGE MISS LATENCY: 20.0229 cycles
L1D RQ	ACCESS:   54059019	FORWARD:          0	MERGED:   12741353	TO_CACHE:   41155545
L1D WQ	ACCESS:   18253453	FORWARD:     162121	MERGED:     313858	TO_CACHE:   17939595

L1D UNIQUE REGIONS ACCESSED: 0
L1D REGIONS CONFLICTS: 0
L1D Cross Page Prefetch Requests: 0
L1D Same Page Prefetch Requests: 0
L1D ROI Sum of L1D PQ occupancy: 0
L1D PREFETCHES PUSHED FROM L2C: 0
L1I TOTAL     ACCESS:   42789943  HIT:   39343558  MISS:    3446385  HIT %:    91.9458  MISS %:    8.05419   MPKI: 17.2319
L1I LOAD      ACCESS:   42789943  HIT:   39343558  MISS:    3446385  HIT %:    91.9458  MISS %:    8.05419   MPKI: 17.2319
L1I PREFETCH  REQUESTED:          0  ISSUED:          0  USEFUL:          0  USELESS:          0
L1I USEFUL LOAD PREFETCHES:          0 PREFETCH ISSUED TO LOWER LEVEL:          0  ACCURACY: -nan
L1I TIMELY PREFETCHES:          0 LATE PREFETCHES: 0 DROPPED PREFETCHES: 0
L1I PREFETCHES SAME FILL-ORIGIN LEVEL: 0 DIFFERENT FILL-ORIGIN LEVEL: 0
L1I AVERAGE MISS LATENCY: 28.3667 cycles
L1I RQ	ACCESS:   66225271	FORWARD:          0	MERGED:   22356410	TO_CACHE:   43868861

BTB TOTAL     ACCESS:   33996129  HIT:   29348304  MISS:    4647825  HIT %:    86.3284  MISS %:    13.6716   MPKI: 23.2391
BTB BRANCH_DIRECT_JUMP	ACCESS:    1820121  HIT:    1607789  MISS:     212332
BTB BRANCH_INDIRECT	ACCESS:   19847784  HIT:   17441635  MISS:    2406149
BTB BRANCH_CONDITIONAL	ACCESS:    4748982  HIT:    4420071  MISS:     328911
BTB BRANCH_DIRECT_CALL	ACCESS:    3062626  HIT:    2647973  MISS:     414653
BTB BRANCH_INDIRECT_CALL	ACCESS:     723674  HIT:     676539  MISS:      47135
BTB BRANCH_RETURN	ACCESS:    3792942  HIT:    2554297  MISS:    1238645
BTB BRANCH_OTHER ACCESS:          0  HIT:          0  MISS:          0

L2C TOTAL     ACCESS:   16789070  HIT:   14091605  MISS:    2697465  HIT %:    83.9332  MISS %:    16.0668   MPKI: 13.4873
L2C LOAD      ACCESS:   15206159  HIT:   12829156  MISS:    2377003  HIT %:    84.3682  MISS %:    15.6318   MPKI: 11.885
L2C DATA LOAD MPKI: 4.00985
L2C INSTRUCTION LOAD MPKI: 7.87517
L2C RFO       ACCESS:     373485  HIT:     244879  MISS:     128606  HIT %:     65.566  MISS %:     34.434   MPKI: 0.64303
L2C WRITEBACK ACCESS:     795527  HIT:     757083  MISS:      38444  HIT %:    95.1675  MISS %:    4.83252   MPKI: 0.19222
L2C LOAD TRANSLATION ACCESS:     413899  HIT:     260487  MISS:     153412  HIT %:    62.9349  MISS %:    37.0651   MPKI: 0.76706
L2C PREFETCH  REQUESTED:          0  ISSUED:          0  USEFUL:          0  USELESS:          0
L2C USEFUL LOAD PREFETCHES:          0 PREFETCH ISSUED TO LOWER LEVEL:          0  ACCURACY: -nan
L2C TIMELY PREFETCHES:          0 LATE PREFETCHES: 0 DROPPED PREFETCHES: 0
L2C PREFETCHES SAME FILL-ORIGIN LEVEL: 0 DIFFERENT FILL-ORIGIN LEVEL: 0
L2C AVERAGE MISS LATENCY: 41.6506 cycles
L2C RQ	ACCESS:   15993562	FORWARD:          0	MERGED:          0	TO_CACHE:   15993543
L2C WQ	ACCESS:     795527	FORWARD:         19	MERGED:          0	TO_CACHE:     795527

L2C Instructions Evicting Data 563490
L2C Translations Evicting Data 54946
L2C Data Evicting Data 335903
L2C Instructions Evicting Instructions 922325
L2C Translations Evicting Instructions 88784
L2C Data Evicting Instructions 542255
L2C Instructions Evicting Translations 89219
L2C Translations Evicting Translations 9682
L2C Data Evicting Translations 52417
L2C Dense regions hint from L2: 0
PSCL5 TOTAL     ACCESS:     325933  HIT:     325933  MISS:          0  HIT %:        100  MISS %:          0   MPKI: 0
PSCL5 LOAD TRANSLATION ACCESS:     325933  HIT:     325933  MISS:          0  HIT %:        100  MISS %:          0   MPKI: 0
PSCL5 PREFETCH  REQUESTED:          0  ISSUED:          0  USEFUL:          0  USELESS:          0
PSCL5 USEFUL LOAD PREFETCHES:          0 PREFETCH ISSUED TO LOWER LEVEL:          0  ACCURACY: -nan
PSCL5 TIMELY PREFETCHES:          0 LATE PREFETCHES: 0 DROPPED PREFETCHES: 0
PSCL5 PREFETCHES SAME FILL-ORIGIN LEVEL: 0 DIFFERENT FILL-ORIGIN LEVEL: 0

PSCL4 TOTAL     ACCESS:     315471  HIT:     314663  MISS:        808  HIT %:    99.7439  MISS %:   0.256125   MPKI: 0.00404
PSCL4 LOAD TRANSLATION ACCESS:     315471  HIT:     314663  MISS:        808  HIT %:    99.7439  MISS %:   0.256125   MPKI: 0.00404
PSCL4 PREFETCH  REQUESTED:          0  ISSUED:          0  USEFUL:          0  USELESS:          0
PSCL4 USEFUL LOAD PREFETCHES:          0 PREFETCH ISSUED TO LOWER LEVEL:          0  ACCURACY: -nan
PSCL4 TIMELY PREFETCHES:          0 LATE PREFETCHES: 0 DROPPED PREFETCHES: 0
PSCL4 PREFETCHES SAME FILL-ORIGIN LEVEL: 0 DIFFERENT FILL-ORIGIN LEVEL: 0

PSCL3 TOTAL     ACCESS:     322836  HIT:     320207  MISS:       2629  HIT %:    99.1857  MISS %:   0.814345   MPKI: 0.013145
PSCL3 LOAD TRANSLATION ACCESS:     322836  HIT:     320207  MISS:       2629  HIT %:    99.1857  MISS %:   0.814345   MPKI: 0.013145
PSCL3 PREFETCH  REQUESTED:          0  ISSUED:          0  USEFUL:          0  USELESS:          0
PSCL3 USEFUL LOAD PREFETCHES:          0 PREFETCH ISSUED TO LOWER LEVEL:          0  ACCURACY: -nan
PSCL3 TIMELY PREFETCHES:          0 LATE PREFETCHES: 0 DROPPED PREFETCHES: 0
PSCL3 PREFETCHES SAME FILL-ORIGIN LEVEL: 0 DIFFERENT FILL-ORIGIN LEVEL: 0

PSCL2 TOTAL     ACCESS:     325933  HIT:     241404  MISS:      84529  HIT %:    74.0655  MISS %:    25.9345   MPKI: 0.422645
PSCL2 LOAD TRANSLATION ACCESS:     325933  HIT:     241404  MISS:      84529  HIT %:    74.0655  MISS %:    25.9345   MPKI: 0.422645
PSCL2 PREFETCH  REQUESTED:          0  ISSUED:          0  USEFUL:          0  USELESS:          0
PSCL2 USEFUL LOAD PREFETCHES:          0 PREFETCH ISSUED TO LOWER LEVEL:          0  ACCURACY: -nan
PSCL2 TIMELY PREFETCHES:          0 LATE PREFETCHES: 0 DROPPED PREFETCHES: 0
PSCL2 PREFETCHES SAME FILL-ORIGIN LEVEL: 0 DIFFERENT FILL-ORIGIN LEVEL: 0

LLC TOTAL     ACCESS:    2988678  HIT:    2788264  MISS:     200414  HIT %:    93.2942  MISS %:    6.70577   MPKI: 1.00207
LLC LOAD      ACCESS:    2377003  HIT:    2212647  MISS:     164356  HIT %:    93.0856  MISS %:    6.91442   MPKI: 0.82178
LLC RFO       ACCESS:     128606  HIT:      98308  MISS:      30298  HIT %:    76.4412  MISS %:    23.5588   MPKI: 0.15149
LLC WRITEBACK ACCESS:     329657  HIT:     327938  MISS:       1719  HIT %:    99.4785  MISS %:   0.521451   MPKI: 0.008595
LLC LOAD TRANSLATION ACCESS:     153412  HIT:     149371  MISS:       4041  HIT %:    97.3659  MISS %:    2.63408   MPKI: 0.020205
LLC PREFETCH  REQUESTED:          0  ISSUED:          0  USEFUL:          0  USELESS:          0
LLC USEFUL LOAD PREFETCHES:          0 PREFETCH ISSUED TO LOWER LEVEL:          0  ACCURACY: -nan
LLC TIMELY PREFETCHES:          0 LATE PREFETCHES: 0 DROPPED PREFETCHES: 0
LLC PREFETCHES SAME FILL-ORIGIN LEVEL: 0 DIFFERENT FILL-ORIGIN LEVEL: 0
LLC AVERAGE MISS LATENCY: 162.56 cycles
LLC RQ	ACCESS:    2659021	FORWARD:          0	MERGED:          0	TO_CACHE:    2659021
LLC WQ	ACCESS:     329657	FORWARD:          0	MERGED:          0	TO_CACHE:     329657

LLC Dense regions hint to LLC: 0

RAW hits: 2322741
Loads Generated: 56381756
Loads sent to L1D: 54059019
Stores Generated: 18253447
Stores sent to L1D: 18253453
Major fault: 0 Minor fault: 4447
Allocated PAGES: 4447

DRAM Statistics
 CHANNEL 0
 RQ ROW_BUFFER_HIT:      43638  ROW_BUFFER_MISS:     155055
 DBUS_CONGESTED:        135
 WQ ROW_BUFFER_HIT:      19062  ROW_BUFFER_MISS:     110261  FULL:          0

 AVG_CONGESTED_CYCLE: 4
 All warmup complete: 2
Channel 0 Bank busy for read cycles: 0
Channel 0 Bank busy for write cycles: 0
Channel 0
Rank 0
0banks busy for read cycles: 549105400
0banks busy for write cycles: 74657
1banks busy for read cycles: 17541493
1banks busy for write cycles: 10718686
2banks busy for read cycles: 2130648
2banks busy for write cycles: 2136453
3banks busy for read cycles: 324467
3banks busy for write cycles: 659200
4banks busy for read cycles: 152236
4banks busy for write cycles: 320211
5banks busy for read cycles: 68867
5banks busy for write cycles: 191830
6banks busy for read cycles: 47147
6banks busy for write cycles: 117213
7banks busy for read cycles: 53457
7banks busy for write cycles: 114675
8banks busy for read cycles: 138534
8banks busy for write cycles: 314730

CPU 0 Branch Prediction Accuracy: 99.8043% MPKI: 0.43045 Average ROB Occupancy at Mispredict: 29.5883
Branch types
NOT_BRANCH: 156016058 78.008%
BRANCH_DIRECT_JUMP: 1820121 0.910061%
BRANCH_INDIRECT: 19847784 9.92389%
BRANCH_CONDITIONAL: 14736604 7.3683%
BRANCH_DIRECT_CALL: 3062626 1.53131%
BRANCH_INDIRECT_CALL: 723674 0.361837%
BRANCH_RETURN: 3792942 1.89647%
BRANCH_OTHER: 0 0%

DRAM PAGES: 1048576
Allocated PAGES: 4447
