Initialize SIGNATURE TABLE
ST_SET: 1
ST_WAY: 256
ST_TAG_BIT: 16
ST_TAG_MASK: ffff

Initialize PATTERN TABLE
PT_SET: 512
PT_WAY: 4
SIG_DELTA_BIT: 7
C_SIG_BIT: 4
C_DELTA_BIT: 4

Initialize PREFETCH FILTER
FILTER_SET: 1024

*** ChampSim Multicore Out-of-Order Simulator ***

Warmup Instructions: 50000000
Simulation Instructions: 200000000
Number of CPUs: 1
LLC sets: 2048
LLC ways: 16
Off-chip DRAM Size: 4096 MB Channels: 1 Width: 64-bit Data Rate: 6400 MT/s
CPU 0 runs traces/spec2k17/server_028.champsimtrace.xz
.xz
BTB has LRU replacement policy
ITLB has LRU replacement policy
DTLB has LRU replacement policy
STLB has LRU replacement policy
L1I has LRU replacement policy
L1D has LRU replacement policy
ST_WAYS: 256
PT_SETS: 512
Initialize SRRIP state for L2C
Initialize DRRIP state for LLC
Heartbeat CPU 0 instructions: 10000001 cycles: 2845620 heartbeat IPC: 3.51417 cumulative IPC: 3.51417 (Simulation time: 0 hr 0 min 35 sec) 
Heartbeat CPU 0 instructions: 20000002 cycles: 5680854 heartbeat IPC: 3.52705 cumulative IPC: 3.5206 (Simulation time: 0 hr 1 min 7 sec) 
Heartbeat CPU 0 instructions: 30000002 cycles: 8516621 heartbeat IPC: 3.52638 cumulative IPC: 3.52252 (Simulation time: 0 hr 1 min 38 sec) 
Heartbeat CPU 0 instructions: 40000001 cycles: 11354097 heartbeat IPC: 3.52426 cumulative IPC: 3.52296 (Simulation time: 0 hr 2 min 9 sec) 
Heartbeat CPU 0 instructions: 50000003 cycles: 14192787 heartbeat IPC: 3.52275 cumulative IPC: 3.52292 (Simulation time: 0 hr 2 min 41 sec) 

Warmup complete CPU 0 instructions: 50000003 cycles: 14192787 (Simulation time: 0 hr 2 min 41 sec) 

Heartbeat CPU 0 instructions: 60000000 cycles: 46573125 heartbeat IPC: 0.308829 cumulative IPC: 0.308829 (Simulation time: 0 hr 3 min 41 sec) 
Heartbeat CPU 0 instructions: 70000000 cycles: 79003552 heartbeat IPC: 0.308352 cumulative IPC: 0.308591 (Simulation time: 0 hr 4 min 38 sec) 
Heartbeat CPU 0 instructions: 80000000 cycles: 111527560 heartbeat IPC: 0.307465 cumulative IPC: 0.308215 (Simulation time: 0 hr 5 min 36 sec) 
*** Reached end of trace for Core: 0 Repeating trace: traces/spec2k17/server_028.champsimtrace.xz
Heartbeat CPU 0 instructions: 90000001 cycles: 143713447 heartbeat IPC: 0.310695 cumulative IPC: 0.308831 (Simulation time: 0 hr 6 min 35 sec) 
Heartbeat CPU 0 instructions: 100000001 cycles: 175832676 heartbeat IPC: 0.31134 cumulative IPC: 0.30933 (Simulation time: 0 hr 7 min 33 sec) 
Heartbeat CPU 0 instructions: 110000000 cycles: 208324676 heartbeat IPC: 0.307768 cumulative IPC: 0.309068 (Simulation time: 0 hr 8 min 28 sec) 
Heartbeat CPU 0 instructions: 120000003 cycles: 240570832 heartbeat IPC: 0.310115 cumulative IPC: 0.309217 (Simulation time: 0 hr 9 min 25 sec) 
Heartbeat CPU 0 instructions: 130000001 cycles: 273028435 heartbeat IPC: 0.308094 cumulative IPC: 0.309076 (Simulation time: 0 hr 10 min 22 sec) 
Heartbeat CPU 0 instructions: 140000001 cycles: 305431470 heartbeat IPC: 0.308613 cumulative IPC: 0.309025 (Simulation time: 0 hr 11 min 20 sec) 
Heartbeat CPU 0 instructions: 150000002 cycles: 337684738 heartbeat IPC: 0.310046 cumulative IPC: 0.309127 (Simulation time: 0 hr 12 min 19 sec) 
Heartbeat CPU 0 instructions: 160000000 cycles: 370062814 heartbeat IPC: 0.308851 cumulative IPC: 0.309102 (Simulation time: 0 hr 13 min 14 sec) 
Heartbeat CPU 0 instructions: 170000001 cycles: 402097141 heartbeat IPC: 0.312165 cumulative IPC: 0.309355 (Simulation time: 0 hr 14 min 9 sec) 
*** Reached end of trace for Core: 0 Repeating trace: traces/spec2k17/server_028.champsimtrace.xz
Heartbeat CPU 0 instructions: 180000002 cycles: 434391298 heartbeat IPC: 0.309654 cumulative IPC: 0.309378 (Simulation time: 0 hr 15 min 5 sec) 
Heartbeat CPU 0 instructions: 190000000 cycles: 466623648 heartbeat IPC: 0.310247 cumulative IPC: 0.30944 (Simulation time: 0 hr 15 min 58 sec) 
Heartbeat CPU 0 instructions: 200000001 cycles: 498883499 heartbeat IPC: 0.309983 cumulative IPC: 0.309476 (Simulation time: 0 hr 16 min 55 sec) 
Heartbeat CPU 0 instructions: 210000002 cycles: 531263709 heartbeat IPC: 0.308831 cumulative IPC: 0.309435 (Simulation time: 0 hr 17 min 53 sec) 
Heartbeat CPU 0 instructions: 220000000 cycles: 563695427 heartbeat IPC: 0.30834 cumulative IPC: 0.309371 (Simulation time: 0 hr 18 min 51 sec) 
Heartbeat CPU 0 instructions: 230000000 cycles: 595910085 heartbeat IPC: 0.310418 cumulative IPC: 0.309429 (Simulation time: 0 hr 19 min 51 sec) 
Heartbeat CPU 0 instructions: 240000000 cycles: 628168626 heartbeat IPC: 0.309995 cumulative IPC: 0.309458 (Simulation time: 0 hr 20 min 50 sec) 
Heartbeat CPU 0 instructions: 250000000 cycles: 660553030 heartbeat IPC: 0.308791 cumulative IPC: 0.309425 (Simulation time: 0 hr 21 min 50 sec) 
Finished CPU 0 instructions: 200000003 cycles: 646360254 cumulative IPC: 0.309425 (Simulation time: 0 hr 21 min 50 sec) 

ChampSim completed all CPUs

Region of Interest Statistics

CPU 0 cumulative IPC: 0.309425 instructions: 200000003 cycles: 646360254
ITLB TOTAL     ACCESS:   35605105  HIT:   33415898  MISS:    2189207  HIT %:    93.8514  MISS %:    6.14858   MPKI: 10.946
ITLB LOAD TRANSLATION ACCESS:   35605105  HIT:   33415898  MISS:    2189207  HIT %:    93.8514  MISS %:    6.14858   MPKI: 10.946
ITLB PREFETCH  REQUESTED:          0  ISSUED:          0  USEFUL:          0  USELESS:          0
ITLB USEFUL LOAD PREFETCHES:          0 PREFETCH ISSUED TO LOWER LEVEL:          0  ACCURACY: -nan
ITLB TIMELY PREFETCHES:          0 LATE PREFETCHES: 0 DROPPED PREFETCHES: 0
ITLB PREFETCHES SAME FILL-ORIGIN LEVEL: 0 DIFFERENT FILL-ORIGIN LEVEL: 0
ITLB AVERAGE MISS LATENCY: 9.2714 cycles
ITLB RQ	ACCESS:   41779118	FORWARD:          0	MERGED:    5649585	TO_CACHE:   36129533

DTLB TOTAL     ACCESS:   45070990  HIT:   42988816  MISS:    2082174  HIT %:    95.3802  MISS %:    4.61977   MPKI: 10.4109
DTLB LOAD TRANSLATION ACCESS:   45070990  HIT:   42988816  MISS:    2082174  HIT %:    95.3802  MISS %:    4.61977   MPKI: 10.4109
DTLB PREFETCH  REQUESTED:          0  ISSUED:          0  USEFUL:          0  USELESS:          0
DTLB USEFUL LOAD PREFETCHES:          0 PREFETCH ISSUED TO LOWER LEVEL:          0  ACCURACY: -nan
DTLB TIMELY PREFETCHES:          0 LATE PREFETCHES: 0 DROPPED PREFETCHES: 0
DTLB PREFETCHES SAME FILL-ORIGIN LEVEL: 0 DIFFERENT FILL-ORIGIN LEVEL: 0
DTLB AVERAGE MISS LATENCY: 10.7887 cycles
DTLB RQ	ACCESS:   59690775	FORWARD:          0	MERGED:   14563960	TO_CACHE:   45126815

STLB TOTAL     ACCESS:    4271381  HIT:    4194964  MISS:      76417  HIT %:     98.211  MISS %:    1.78905   MPKI: 0.382085
STLB LOAD TRANSLATION ACCESS:    4271381  HIT:    4194964  MISS:      76417  HIT %:     98.211  MISS %:    1.78905   MPKI: 0.382085
STLB PREFETCH  REQUESTED:          0  ISSUED:          0  USEFUL:          0  USELESS:          0
STLB USEFUL LOAD PREFETCHES:          0 PREFETCH ISSUED TO LOWER LEVEL:          0  ACCURACY: -nan
STLB TIMELY PREFETCHES:          0 LATE PREFETCHES: 0 DROPPED PREFETCHES: 0
STLB PREFETCHES SAME FILL-ORIGIN LEVEL: 0 DIFFERENT FILL-ORIGIN LEVEL: 0
STLB AVERAGE MISS LATENCY: 56.1392 cycles
STLB RQ	ACCESS:    4271381	FORWARD:          0	MERGED:          0	TO_CACHE:    4271381

STLB Hit, L1D data hit: 0
STLB Hit, L2C data hit: 0
STLB Hit, LLC data hit: 0
STLB Hit, LLC data miss: 0
STLB STLB hints to L2: 0
L1D TOTAL     ACCESS:   57777339  HIT:   52210429  MISS:    5566910  HIT %:    90.3649  MISS %:    9.63511   MPKI: 27.8345
L1D LOAD      ACCESS:   33473888  HIT:   29106184  MISS:    4367704  HIT %:    86.9519  MISS %:    13.0481   MPKI: 21.8385
L1D RFO       ACCESS:   24303451  HIT:   23104245  MISS:    1199206  HIT %:    95.0657  MISS %:     4.9343   MPKI: 5.99603
L1D PREFETCH  REQUESTED:          0  ISSUED:          0  USEFUL:          0  USELESS:          0
L1D USEFUL LOAD PREFETCHES:          0 PREFETCH ISSUED TO LOWER LEVEL:          0  ACCURACY: -nan
L1D TIMELY PREFETCHES:          0 LATE PREFETCHES: 0 DROPPED PREFETCHES: 0
L1D PREFETCHES SAME FILL-ORIGIN LEVEL: 0 DIFFERENT FILL-ORIGIN LEVEL: 0
L1D AVERAGE MISS LATENCY: 19.4119 cycles
L1D RQ	ACCESS:   46055667	FORWARD:          0	MERGED:   12128980	TO_CACHE:   33613782
L1D WQ	ACCESS:   26217180	FORWARD:     312905	MERGED:     140187	TO_CACHE:   26076993

L1D UNIQUE REGIONS ACCESSED: 0
L1D REGIONS CONFLICTS: 0
L1D Cross Page Prefetch Requests: 0
L1D Same Page Prefetch Requests: 0
L1D ROI Sum of L1D PQ occupancy: 0
L1D PREFETCHES PUSHED FROM L2C: 0
L1I TOTAL     ACCESS:   40144779  HIT:   29061079  MISS:   11083700  HIT %:    72.3907  MISS %:    27.6093   MPKI: 55.4185
L1I LOAD      ACCESS:   40144779  HIT:   29061079  MISS:   11083700  HIT %:    72.3907  MISS %:    27.6093   MPKI: 55.4185
L1I PREFETCH  REQUESTED:          0  ISSUED:          0  USEFUL:          0  USELESS:          0
L1I USEFUL LOAD PREFETCHES:          0 PREFETCH ISSUED TO LOWER LEVEL:          0  ACCURACY: -nan
L1I TIMELY PREFETCHES:          0 LATE PREFETCHES: 0 DROPPED PREFETCHES: 0
L1I PREFETCHES SAME FILL-ORIGIN LEVEL: 0 DIFFERENT FILL-ORIGIN LEVEL: 0
L1I AVERAGE MISS LATENCY: 15.6043 cycles
L1I RQ	ACCESS:   58374722	FORWARD:          0	MERGED:   16595604	TO_CACHE:   41779118

BTB TOTAL     ACCESS:   30542458  HIT:   18336623  MISS:   12205835  HIT %:    60.0365  MISS %:    39.9635   MPKI: 61.0292
BTB BRANCH_DIRECT_JUMP	ACCESS:    2010403  HIT:    1225655  MISS:     784748
BTB BRANCH_INDIRECT	ACCESS:   11931802  HIT:    7220486  MISS:    4711316
BTB BRANCH_CONDITIONAL	ACCESS:    7548039  HIT:    6326083  MISS:    1221956
BTB BRANCH_DIRECT_CALL	ACCESS:    3806012  HIT:    1828717  MISS:    1977295
BTB BRANCH_INDIRECT_CALL	ACCESS:     720088  HIT:     358904  MISS:     361184
BTB BRANCH_RETURN	ACCESS:    4526114  HIT:    1376778  MISS:    3149336
BTB BRANCH_OTHER ACCESS:          0  HIT:          0  MISS:          0

L2C TOTAL     ACCESS:   22795192  HIT:   21785982  MISS:    1009210  HIT %:    95.5727  MISS %:    4.42729   MPKI: 5.04605
L2C LOAD      ACCESS:   15451403  HIT:   14582432  MISS:     868971  HIT %:    94.3761  MISS %:     5.6239   MPKI: 4.34485
L2C DATA LOAD MPKI: 1.62019
L2C INSTRUCTION LOAD MPKI: 2.72466
L2C RFO       ACCESS:    1199206  HIT:    1129384  MISS:      69822  HIT %:    94.1776  MISS %:    5.82235   MPKI: 0.34911
L2C PREFETCH  ACCESS:    3763361  HIT:    3755804  MISS:       7557  HIT %:    99.7992  MISS %:   0.200805   MPKI: 0.037785
AGUS PREFETCH L1 MISS: 0
L2C DATA PREFETCH MPKI: 0.037785
L2C INSTRUCTION PREFETCH MPKI: 0
L2C WRITEBACK ACCESS:    2271098  HIT:    2248211  MISS:      22887  HIT %:    98.9922  MISS %:    1.00775   MPKI: 0.114435
L2C LOAD TRANSLATION ACCESS:     110124  HIT:      70151  MISS:      39973  HIT %:    63.7018  MISS %:    36.2982   MPKI: 0.199865
L2C PREFETCH  REQUESTED:    6473218  ISSUED:    6473217  USEFUL:       1685  USELESS:       5846
L2C USEFUL LOAD PREFETCHES:       1685 PREFETCH ISSUED TO LOWER LEVEL:    1966441  ACCURACY: 0.0856878
L2C TIMELY PREFETCHES:       1685 LATE PREFETCHES: 10767 DROPPED PREFETCHES: 0
L2C PREFETCHES SAME FILL-ORIGIN LEVEL: 18324 DIFFERENT FILL-ORIGIN LEVEL: 1948117
L2C AVERAGE MISS LATENCY: 43.7066 cycles
L2C RQ	ACCESS:   16760733	FORWARD:          0	MERGED:          0	TO_CACHE:   16760733
L2C WQ	ACCESS:    2271098	FORWARD:          3	MERGED:          0	TO_CACHE:    2271098
L2C PQ	ACCESS:    6473217	FORWARD:          0	MERGED:     709754	TO_CACHE:    5763460

L2C Instructions Evicting Data 172901
L2C Translations Evicting Data 25965
L2C Data Evicting Data 218006
L2C Instructions Evicting Instructions 361844
L2C Translations Evicting Instructions 10088
L2C Data Evicting Instructions 157716
L2C Instructions Evicting Translations 10187
L2C Translations Evicting Translations 3920
L2C Data Evicting Translations 25696
L2C Dense regions hint from L2: 0
PSCL5 TOTAL     ACCESS:      76417  HIT:      76417  MISS:          0  HIT %:        100  MISS %:          0   MPKI: 0
PSCL5 LOAD TRANSLATION ACCESS:      76417  HIT:      76417  MISS:          0  HIT %:        100  MISS %:          0   MPKI: 0
PSCL5 PREFETCH  REQUESTED:          0  ISSUED:          0  USEFUL:          0  USELESS:          0
PSCL5 USEFUL LOAD PREFETCHES:          0 PREFETCH ISSUED TO LOWER LEVEL:          0  ACCURACY: -nan
PSCL5 TIMELY PREFETCHES:          0 LATE PREFETCHES: 0 DROPPED PREFETCHES: 0
PSCL5 PREFETCHES SAME FILL-ORIGIN LEVEL: 0 DIFFERENT FILL-ORIGIN LEVEL: 0

PSCL4 TOTAL     ACCESS:      74657  HIT:      73928  MISS:        729  HIT %:    99.0235  MISS %:   0.976466   MPKI: 0.003645
PSCL4 LOAD TRANSLATION ACCESS:      74657  HIT:      73928  MISS:        729  HIT %:    99.0235  MISS %:   0.976466   MPKI: 0.003645
PSCL4 PREFETCH  REQUESTED:          0  ISSUED:          0  USEFUL:          0  USELESS:          0
PSCL4 USEFUL LOAD PREFETCHES:          0 PREFETCH ISSUED TO LOWER LEVEL:          0  ACCURACY: -nan
PSCL4 TIMELY PREFETCHES:          0 LATE PREFETCHES: 0 DROPPED PREFETCHES: 0
PSCL4 PREFETCHES SAME FILL-ORIGIN LEVEL: 0 DIFFERENT FILL-ORIGIN LEVEL: 0

PSCL3 TOTAL     ACCESS:      76142  HIT:      75413  MISS:        729  HIT %:    99.0426  MISS %:   0.957422   MPKI: 0.003645
PSCL3 LOAD TRANSLATION ACCESS:      76142  HIT:      75413  MISS:        729  HIT %:    99.0426  MISS %:   0.957422   MPKI: 0.003645
PSCL3 PREFETCH  REQUESTED:          0  ISSUED:          0  USEFUL:          0  USELESS:          0
PSCL3 USEFUL LOAD PREFETCHES:          0 PREFETCH ISSUED TO LOWER LEVEL:          0  ACCURACY: -nan
PSCL3 TIMELY PREFETCHES:          0 LATE PREFETCHES: 0 DROPPED PREFETCHES: 0
PSCL3 PREFETCHES SAME FILL-ORIGIN LEVEL: 0 DIFFERENT FILL-ORIGIN LEVEL: 0

PSCL2 TOTAL     ACCESS:      76417  HIT:      44168  MISS:      32249  HIT %:    57.7987  MISS %:    42.2013   MPKI: 0.161245
PSCL2 LOAD TRANSLATION ACCESS:      76417  HIT:      44168  MISS:      32249  HIT %:    57.7987  MISS %:    42.2013   MPKI: 0.161245
PSCL2 PREFETCH  REQUESTED:          0  ISSUED:          0  USEFUL:          0  USELESS:          0
PSCL2 USEFUL LOAD PREFETCHES:          0 PREFETCH ISSUED TO LOWER LEVEL:          0  ACCURACY: -nan
PSCL2 TIMELY PREFETCHES:          0 LATE PREFETCHES: 0 DROPPED PREFETCHES: 0
PSCL2 PREFETCHES SAME FILL-ORIGIN LEVEL: 0 DIFFERENT FILL-ORIGIN LEVEL: 0

LLC TOTAL     ACCESS:    2896049  HIT:    2696913  MISS:     199136  HIT %:    93.1239  MISS %:    6.87613   MPKI: 0.99568
LLC LOAD      ACCESS:     858206  HIT:     769244  MISS:      88962  HIT %:     89.634  MISS %:     10.366   MPKI: 0.44481
LLC RFO       ACCESS:      69816  HIT:      60632  MISS:       9184  HIT %:    86.8454  MISS %:    13.1546   MPKI: 0.04592
LLC PREFETCH  ACCESS:    1838400  HIT:    1745333  MISS:      93067  HIT %:    94.9376  MISS %:    5.06239   MPKI: 0.465335
AGUS PREFETCH L1 MISS: 0
LLC WRITEBACK ACCESS:      89654  HIT:      88422  MISS:       1232  HIT %:    98.6258  MISS %:    1.37417   MPKI: 0.00616
LLC LOAD TRANSLATION ACCESS:      39973  HIT:      33282  MISS:       6691  HIT %:    83.2612  MISS %:    16.7388   MPKI: 0.033455
LLC PREFETCH  REQUESTED:          0  ISSUED:          0  USEFUL:      17788  USELESS:      74322
LLC USEFUL LOAD PREFETCHES:      17788 PREFETCH ISSUED TO LOWER LEVEL:     113497  ACCURACY: 15.6727
LLC TIMELY PREFETCHES:      17788 LATE PREFETCHES: 20430 DROPPED PREFETCHES: 0
LLC PREFETCHES SAME FILL-ORIGIN LEVEL: 112371 DIFFERENT FILL-ORIGIN LEVEL: 0
LLC AVERAGE MISS LATENCY: 139.871 cycles
LLC RQ	ACCESS:     967999	FORWARD:          0	MERGED:          0	TO_CACHE:     967995
LLC WQ	ACCESS:      89654	FORWARD:          4	MERGED:          0	TO_CACHE:      89654
LLC PQ	ACCESS:    1966441	FORWARD:          0	MERGED:      77468	TO_CACHE:    1888973

LLC Dense regions hint to LLC: 0

RAW hits: 1428597
Loads Generated: 47484266
Loads sent to L1D: 46055667
Stores Generated: 26217178
Stores sent to L1D: 26217180
Major fault: 0 Minor fault: 6256
Allocated PAGES: 6256
 All Calls: 5475626
 Critical Calls: 5475626
------------------
Depth Distribution
------------------
depth 0: 0
depth 1: 4830272
depth 2: 1261266
depth 3: 675184
depth 4: 555520
depth 5: 457380
depth 6: 316993
depth 7: 155392
depth 8: 69991
depth 9: 30435
depth 10: 4917
depth 11: 825
depth 12: 2
depth 13: 0
depth 14: 0
depth 15: 0
depth 16: 0
depth 17: 0
depth 18: 0
depth 19: 0
depth 20: 0
depth 21: 0
depth 22: 0
depth 23: 0
depth 24: 0
depth 25: 0
depth 26: 0
depth 27: 0
depth 28: 0
depth 29: 0
Total: 8358177
-----------------------------
-----------------------------
	Captured at Filter
-----------------------------
depth 0: 0
depth 1: 730509
depth 2: 576815
depth 3: 510889
depth 4: 476359
depth 5: 434535
depth 6: 333143
depth 7: 164416
depth 8: 70974
depth 9: 32170
depth 10: 5144
depth 11: 849
depth 12: 3
depth 13: 0
depth 14: 0
depth 15: 0
depth 16: 0
depth 17: 0
depth 18: 0
depth 19: 0
depth 20: 0
depth 21: 0
depth 22: 0
depth 23: 0
depth 24: 0
depth 25: 0
depth 26: 0
depth 27: 0
depth 28: 0
depth 29: 0
-----------------------------
-----------------------------
		Lost at Page
-----------------------------
depth 0: 0
depth 1: 377278
depth 2: 102185
depth 3: 52146
depth 4: 62288
depth 5: 73623
depth 6: 72984
depth 7: 45701
depth 8: 20841
depth 9: 10260
depth 10: 1879
depth 11: 356
depth 12: 0
depth 13: 0
depth 14: 0
depth 15: 0
depth 16: 0
depth 17: 0
depth 18: 0
depth 19: 0
depth 20: 0
depth 21: 0
depth 22: 0
depth 23: 0
depth 24: 0
depth 25: 0
depth 26: 0
depth 27: 0
depth 28: 0
depth 29: 0
-----------------------------
-----------------------------
	Lost due to PQ Size
-----------------------------
10940
-----------------------------
ST read accesses: 3591613
ST write accesses: 776091
PT read accesses: 68741552
PT write accesses: 4659757
FILTER read accesses: 14211253
FILTER write accesses: 1458307
GHR read accesses: 10226533
GHR write accesses: 583706
GHR counter read accesses: 60527812
GHR counter write accesses: 4815374
ST tag read accesses: 2067033706
ST tag write accesses: 300229257

DRAM Statistics
 CHANNEL 0
 RQ ROW_BUFFER_HIT:      65890  ROW_BUFFER_MISS:     132014
 DBUS_CONGESTED:         72
 WQ ROW_BUFFER_HIT:       2005  ROW_BUFFER_MISS:      10534  FULL:          0

 AVG_CONGESTED_CYCLE: 4
 All warmup complete: 2
Channel 0 Bank busy for read cycles: 0
Channel 0 Bank busy for write cycles: 0
Channel 0
Rank 0
0banks busy for read cycles: 631800503
0banks busy for write cycles: 8891
1banks busy for read cycles: 6769187
1banks busy for write cycles: 1455060
2banks busy for read cycles: 3964099
2banks busy for write cycles: 271800
3banks busy for read cycles: 1006182
3banks busy for write cycles: 72287
4banks busy for read cycles: 311845
4banks busy for write cycles: 33328
5banks busy for read cycles: 188867
5banks busy for write cycles: 11128
6banks busy for read cycles: 182607
6banks busy for write cycles: 3010
7banks busy for read cycles: 135735
7banks busy for write cycles: 1414
8banks busy for read cycles: 143063
8banks busy for write cycles: 1249

CPU 0 Branch Prediction Accuracy: 99.7758% MPKI: 0.40526 Average ROB Occupancy at Mispredict: 44.6217
Branch types
NOT_BRANCH: 163841120 81.9206%
BRANCH_DIRECT_JUMP: 2010403 1.0052%
BRANCH_INDIRECT: 11931802 5.9659%
BRANCH_CONDITIONAL: 13164452 6.58223%
BRANCH_DIRECT_CALL: 3806012 1.90301%
BRANCH_INDIRECT_CALL: 720088 0.360044%
BRANCH_RETURN: 4526114 2.26306%
BRANCH_OTHER: 0 0%

DRAM PAGES: 1048576
Allocated PAGES: 6256
