Initialize SIGNATURE TABLE
ST_SET: 1
ST_WAY: 256
ST_TAG_BIT: 16
ST_TAG_MASK: ffff

Initialize PATTERN TABLE
PT_SET: 512
PT_WAY: 4
SIG_DELTA_BIT: 7
C_SIG_BIT: 4
C_DELTA_BIT: 4

Initialize PREFETCH FILTER
FILTER_SET: 1024

*** ChampSim Multicore Out-of-Order Simulator ***

Warmup Instructions: 50000000
Simulation Instructions: 200000000
Number of CPUs: 1
LLC sets: 2048
LLC ways: 16
Off-chip DRAM Size: 4096 MB Channels: 1 Width: 64-bit Data Rate: 6400 MT/s
CPU 0 runs traces/spec2k17/server_019.champsimtrace.xz
.xz
BTB has LRU replacement policy
ITLB has LRU replacement policy
DTLB has LRU replacement policy
STLB has LRU replacement policy
L1I has LRU replacement policy
L1D has LRU replacement policy
ST_WAYS: 256
PT_SETS: 512
Initialize SRRIP state for L2C
Initialize DRRIP state for LLC
Heartbeat CPU 0 instructions: 10000001 cycles: 2943231 heartbeat IPC: 3.39763 cumulative IPC: 3.39763 (Simulation time: 0 hr 0 min 39 sec) 
Heartbeat CPU 0 instructions: 20000002 cycles: 5884587 heartbeat IPC: 3.39979 cumulative IPC: 3.39871 (Simulation time: 0 hr 1 min 22 sec) 
Heartbeat CPU 0 instructions: 30000000 cycles: 8822854 heartbeat IPC: 3.40337 cumulative IPC: 3.40026 (Simulation time: 0 hr 2 min 3 sec) 
Heartbeat CPU 0 instructions: 40000003 cycles: 11766630 heartbeat IPC: 3.397 cumulative IPC: 3.39944 (Simulation time: 0 hr 2 min 42 sec) 
Heartbeat CPU 0 instructions: 50000000 cycles: 14701491 heartbeat IPC: 3.40732 cumulative IPC: 3.40102 (Simulation time: 0 hr 3 min 21 sec) 

Warmup complete CPU 0 instructions: 50000004 cycles: 14701492 (Simulation time: 0 hr 3 min 21 sec) 

Heartbeat CPU 0 instructions: 60000000 cycles: 37848785 heartbeat IPC: 0.432016 cumulative IPC: 0.432016 (Simulation time: 0 hr 4 min 42 sec) 
Heartbeat CPU 0 instructions: 70000000 cycles: 59228058 heartbeat IPC: 0.467743 cumulative IPC: 0.44917 (Simulation time: 0 hr 5 min 51 sec) 
Heartbeat CPU 0 instructions: 80000000 cycles: 88829687 heartbeat IPC: 0.337819 cumulative IPC: 0.404704 (Simulation time: 0 hr 6 min 58 sec) 
Heartbeat CPU 0 instructions: 90000000 cycles: 110175237 heartbeat IPC: 0.468482 cumulative IPC: 0.418963 (Simulation time: 0 hr 8 min 9 sec) 
Heartbeat CPU 0 instructions: 100000000 cycles: 131462188 heartbeat IPC: 0.469771 cumulative IPC: 0.428226 (Simulation time: 0 hr 9 min 15 sec) 
*** Reached end of trace for Core: 0 Repeating trace: traces/spec2k17/server_019.champsimtrace.xz
Heartbeat CPU 0 instructions: 110000000 cycles: 152160786 heartbeat IPC: 0.483124 cumulative IPC: 0.436493 (Simulation time: 0 hr 10 min 21 sec) 
Heartbeat CPU 0 instructions: 120000003 cycles: 172328537 heartbeat IPC: 0.495841 cumulative IPC: 0.444086 (Simulation time: 0 hr 11 min 33 sec) 
Heartbeat CPU 0 instructions: 130000000 cycles: 192333704 heartbeat IPC: 0.499871 cumulative IPC: 0.450369 (Simulation time: 0 hr 12 min 41 sec) 
Heartbeat CPU 0 instructions: 140000001 cycles: 212162892 heartbeat IPC: 0.504307 cumulative IPC: 0.455785 (Simulation time: 0 hr 13 min 50 sec) 
Heartbeat CPU 0 instructions: 150000003 cycles: 232141479 heartbeat IPC: 0.500536 cumulative IPC: 0.459897 (Simulation time: 0 hr 15 min 0 sec) 
Heartbeat CPU 0 instructions: 160000000 cycles: 251596311 heartbeat IPC: 0.514011 cumulative IPC: 0.464341 (Simulation time: 0 hr 16 min 8 sec) 
Heartbeat CPU 0 instructions: 170000000 cycles: 274343384 heartbeat IPC: 0.439617 cumulative IPC: 0.462175 (Simulation time: 0 hr 17 min 28 sec) 
Heartbeat CPU 0 instructions: 180000000 cycles: 297411488 heartbeat IPC: 0.433499 cumulative IPC: 0.459835 (Simulation time: 0 hr 18 min 38 sec) 
Heartbeat CPU 0 instructions: 190000001 cycles: 325930191 heartbeat IPC: 0.350647 cumulative IPC: 0.44983 (Simulation time: 0 hr 19 min 53 sec) 
Heartbeat CPU 0 instructions: 200000002 cycles: 348703964 heartbeat IPC: 0.439102 cumulative IPC: 0.449098 (Simulation time: 0 hr 20 min 59 sec) 
Heartbeat CPU 0 instructions: 210000000 cycles: 369928369 heartbeat IPC: 0.471156 cumulative IPC: 0.450416 (Simulation time: 0 hr 22 min 9 sec) 
*** Reached end of trace for Core: 0 Repeating trace: traces/spec2k17/server_019.champsimtrace.xz
Heartbeat CPU 0 instructions: 220000000 cycles: 390301716 heartbeat IPC: 0.490837 cumulative IPC: 0.452609 (Simulation time: 0 hr 23 min 18 sec) 
Heartbeat CPU 0 instructions: 230000000 cycles: 410383516 heartbeat IPC: 0.497963 cumulative IPC: 0.454911 (Simulation time: 0 hr 24 min 25 sec) 
Heartbeat CPU 0 instructions: 240000003 cycles: 429601212 heartbeat IPC: 0.520354 cumulative IPC: 0.457942 (Simulation time: 0 hr 25 min 32 sec) 
Heartbeat CPU 0 instructions: 250000000 cycles: 448890245 heartbeat IPC: 0.518429 cumulative IPC: 0.460629 (Simulation time: 0 hr 26 min 38 sec) 
Finished CPU 0 instructions: 200000000 cycles: 434188755 cumulative IPC: 0.460629 (Simulation time: 0 hr 26 min 38 sec) 

ChampSim completed all CPUs

Region of Interest Statistics

CPU 0 cumulative IPC: 0.460629 instructions: 200000000 cycles: 434188755
ITLB TOTAL     ACCESS:   33563782  HIT:   32134218  MISS:    1429564  HIT %:    95.7408  MISS %:    4.25925   MPKI: 7.14782
ITLB LOAD TRANSLATION ACCESS:   33563782  HIT:   32134218  MISS:    1429564  HIT %:    95.7408  MISS %:    4.25925   MPKI: 7.14782
ITLB PREFETCH  REQUESTED:          0  ISSUED:          0  USEFUL:          0  USELESS:          0
ITLB USEFUL LOAD PREFETCHES:          0 PREFETCH ISSUED TO LOWER LEVEL:          0  ACCURACY: -nan
ITLB TIMELY PREFETCHES:          0 LATE PREFETCHES: 0 DROPPED PREFETCHES: 0
ITLB PREFETCHES SAME FILL-ORIGIN LEVEL: 0 DIFFERENT FILL-ORIGIN LEVEL: 0
ITLB AVERAGE MISS LATENCY: 9.44227 cycles
ITLB RQ	ACCESS:   40221099	FORWARD:          0	MERGED:    6197133	TO_CACHE:   34023966

DTLB TOTAL     ACCESS:   38771805  HIT:   37174371  MISS:    1597434  HIT %:    95.8799  MISS %:    4.12009   MPKI: 7.98717
DTLB LOAD TRANSLATION ACCESS:   38771805  HIT:   37174371  MISS:    1597434  HIT %:    95.8799  MISS %:    4.12009   MPKI: 7.98717
DTLB PREFETCH  REQUESTED:          0  ISSUED:          0  USEFUL:          0  USELESS:          0
DTLB USEFUL LOAD PREFETCHES:          0 PREFETCH ISSUED TO LOWER LEVEL:          0  ACCURACY: -nan
DTLB TIMELY PREFETCHES:          0 LATE PREFETCHES: 0 DROPPED PREFETCHES: 0
DTLB PREFETCHES SAME FILL-ORIGIN LEVEL: 0 DIFFERENT FILL-ORIGIN LEVEL: 0
DTLB AVERAGE MISS LATENCY: 20.623 cycles
DTLB RQ	ACCESS:   58821392	FORWARD:          0	MERGED:   19652207	TO_CACHE:   39169185

STLB TOTAL     ACCESS:    3026998  HIT:    2857874  MISS:     169124  HIT %:    94.4128  MISS %:    5.58719   MPKI: 0.84562
STLB LOAD TRANSLATION ACCESS:    3026998  HIT:    2857874  MISS:     169124  HIT %:    94.4128  MISS %:    5.58719   MPKI: 0.84562
STLB PREFETCH  REQUESTED:          0  ISSUED:          0  USEFUL:          0  USELESS:          0
STLB USEFUL LOAD PREFETCHES:          0 PREFETCH ISSUED TO LOWER LEVEL:          0  ACCURACY: -nan
STLB TIMELY PREFETCHES:          0 LATE PREFETCHES: 0 DROPPED PREFETCHES: 0
STLB PREFETCHES SAME FILL-ORIGIN LEVEL: 0 DIFFERENT FILL-ORIGIN LEVEL: 0
STLB AVERAGE MISS LATENCY: 113.318 cycles
STLB RQ	ACCESS:    3026999	FORWARD:          0	MERGED:          0	TO_CACHE:    3026999

STLB Hit, L1D data hit: 0
STLB Hit, L2C data hit: 0
STLB Hit, LLC data hit: 0
STLB Hit, LLC data miss: 0
STLB STLB hints to L2: 0
L1D TOTAL     ACCESS:   47127831  HIT:   40388490  MISS:    6739341  HIT %:    85.6999  MISS %:    14.3001   MPKI: 33.6967
L1D LOAD      ACCESS:   25942480  HIT:   22759242  MISS:    3183238  HIT %:    87.7296  MISS %:    12.2704   MPKI: 15.9162
L1D RFO       ACCESS:   21185351  HIT:   17629248  MISS:    3556103  HIT %:    83.2143  MISS %:    16.7857   MPKI: 17.7805
L1D PREFETCH  REQUESTED:          0  ISSUED:          0  USEFUL:          0  USELESS:          0
L1D USEFUL LOAD PREFETCHES:          0 PREFETCH ISSUED TO LOWER LEVEL:          0  ACCURACY: -nan
L1D TIMELY PREFETCHES:          0 LATE PREFETCHES: 0 DROPPED PREFETCHES: 0
L1D PREFETCHES SAME FILL-ORIGIN LEVEL: 0 DIFFERENT FILL-ORIGIN LEVEL: 0
L1D AVERAGE MISS LATENCY: 192.34 cycles
L1D RQ	ACCESS:   44260256	FORWARD:          0	MERGED:   17587156	TO_CACHE:   26402884
L1D WQ	ACCESS:   32636784	FORWARD:     270216	MERGED:     218276	TO_CACHE:   32418508

L1D UNIQUE REGIONS ACCESSED: 0
L1D REGIONS CONFLICTS: 0
L1D Cross Page Prefetch Requests: 0
L1D Same Page Prefetch Requests: 0
L1D ROI Sum of L1D PQ occupancy: 0
L1D PREFETCHES PUSHED FROM L2C: 0
L1I TOTAL     ACCESS:   37733957  HIT:   29232530  MISS:    8501427  HIT %:    77.4701  MISS %:    22.5299   MPKI: 42.5071
L1I LOAD      ACCESS:   37733957  HIT:   29232530  MISS:    8501427  HIT %:    77.4701  MISS %:    22.5299   MPKI: 42.5071
L1I PREFETCH  REQUESTED:          0  ISSUED:          0  USEFUL:          0  USELESS:          0
L1I USEFUL LOAD PREFETCHES:          0 PREFETCH ISSUED TO LOWER LEVEL:          0  ACCURACY: -nan
L1I TIMELY PREFETCHES:          0 LATE PREFETCHES: 0 DROPPED PREFETCHES: 0
L1I PREFETCHES SAME FILL-ORIGIN LEVEL: 0 DIFFERENT FILL-ORIGIN LEVEL: 0
L1I AVERAGE MISS LATENCY: 17.3882 cycles
L1I RQ	ACCESS:   58443786	FORWARD:          0	MERGED:   18222687	TO_CACHE:   40221099

BTB TOTAL     ACCESS:   25868833  HIT:   24240387  MISS:    1628446  HIT %:     93.705  MISS %:    6.29501   MPKI: 8.14223
BTB BRANCH_DIRECT_JUMP	ACCESS:    1694760  HIT:    1684405  MISS:      10355
BTB BRANCH_INDIRECT	ACCESS:    9830410  HIT:    9194063  MISS:     636347
BTB BRANCH_CONDITIONAL	ACCESS:    7683208  HIT:    7668728  MISS:      14480
BTB BRANCH_DIRECT_CALL	ACCESS:    2643025  HIT:    2609037  MISS:      33988
BTB BRANCH_INDIRECT_CALL	ACCESS:     687193  HIT:     583910  MISS:     103283
BTB BRANCH_RETURN	ACCESS:    3330237  HIT:    2500244  MISS:     829993
BTB BRANCH_OTHER ACCESS:          0  HIT:          0  MISS:          0

L2C TOTAL     ACCESS:   21146083  HIT:   14504842  MISS:    6641241  HIT %:    68.5935  MISS %:    31.4065   MPKI: 33.2062
L2C LOAD      ACCESS:   11684485  HIT:    8832628  MISS:    2851857  HIT %:    75.5928  MISS %:    24.4072   MPKI: 14.2593
L2C DATA LOAD MPKI: 11.533
L2C INSTRUCTION LOAD MPKI: 2.72623
L2C RFO       ACCESS:    3556097  HIT:     151053  MISS:    3405044  HIT %:    4.24772  MISS %:    95.7523   MPKI: 17.0252
L2C PREFETCH  ACCESS:    1328392  HIT:    1183881  MISS:     144511  HIT %:    89.1214  MISS %:    10.8786   MPKI: 0.722555
AGUS PREFETCH L1 MISS: 0
L2C DATA PREFETCH MPKI: 0.722555
L2C INSTRUCTION PREFETCH MPKI: 0
L2C WRITEBACK ACCESS:    4348482  HIT:    4191664  MISS:     156818  HIT %:    96.3937  MISS %:    3.60627   MPKI: 0.78409
L2C LOAD TRANSLATION ACCESS:     228627  HIT:     145616  MISS:      83011  HIT %:    63.6915  MISS %:    36.3085   MPKI: 0.415055
L2C PREFETCH  REQUESTED:   10528619  ISSUED:   10528375  USEFUL:     127214  USELESS:      17286
L2C USEFUL LOAD PREFETCHES:     127214 PREFETCH ISSUED TO LOWER LEVEL:    5284729  ACCURACY: 2.4072
L2C TIMELY PREFETCHES:     127214 LATE PREFETCHES: 268848 DROPPED PREFETCHES: 0
L2C PREFETCHES SAME FILL-ORIGIN LEVEL: 413359 DIFFERENT FILL-ORIGIN LEVEL: 4871370
L2C AVERAGE MISS LATENCY: 188.348 cycles
L2C RQ	ACCESS:   15469395	FORWARD:          0	MERGED:          0	TO_CACHE:   15469209
L2C WQ	ACCESS:    4348482	FORWARD:        187	MERGED:          0	TO_CACHE:    4348482
L2C PQ	ACCESS:   10528375	FORWARD:          0	MERGED:    3457522	TO_CACHE:    7070852

L2C Instructions Evicting Data 496647
L2C Translations Evicting Data 75727
L2C Data Evicting Data 5297302
L2C Instructions Evicting Instructions 42751
L2C Translations Evicting Instructions 6093
L2C Data Evicting Instructions 484407
L2C Instructions Evicting Translations 5849
L2C Translations Evicting Translations 1191
L2C Data Evicting Translations 74456
L2C Dense regions hint from L2: 0
PSCL5 TOTAL     ACCESS:     169124  HIT:     169124  MISS:          0  HIT %:        100  MISS %:          0   MPKI: 0
PSCL5 LOAD TRANSLATION ACCESS:     169124  HIT:     169124  MISS:          0  HIT %:        100  MISS %:          0   MPKI: 0
PSCL5 PREFETCH  REQUESTED:          0  ISSUED:          0  USEFUL:          0  USELESS:          0
PSCL5 USEFUL LOAD PREFETCHES:          0 PREFETCH ISSUED TO LOWER LEVEL:          0  ACCURACY: -nan
PSCL5 TIMELY PREFETCHES:          0 LATE PREFETCHES: 0 DROPPED PREFETCHES: 0
PSCL5 PREFETCHES SAME FILL-ORIGIN LEVEL: 0 DIFFERENT FILL-ORIGIN LEVEL: 0

PSCL4 TOTAL     ACCESS:     166003  HIT:     165695  MISS:        308  HIT %:    99.8145  MISS %:   0.185539   MPKI: 0.00154
PSCL4 LOAD TRANSLATION ACCESS:     166003  HIT:     165695  MISS:        308  HIT %:    99.8145  MISS %:   0.185539   MPKI: 0.00154
PSCL4 PREFETCH  REQUESTED:          0  ISSUED:          0  USEFUL:          0  USELESS:          0
PSCL4 USEFUL LOAD PREFETCHES:          0 PREFETCH ISSUED TO LOWER LEVEL:          0  ACCURACY: -nan
PSCL4 TIMELY PREFETCHES:          0 LATE PREFETCHES: 0 DROPPED PREFETCHES: 0
PSCL4 PREFETCHES SAME FILL-ORIGIN LEVEL: 0 DIFFERENT FILL-ORIGIN LEVEL: 0

PSCL3 TOTAL     ACCESS:     165814  HIT:     164261  MISS:       1553  HIT %:    99.0634  MISS %:   0.936592   MPKI: 0.007765
PSCL3 LOAD TRANSLATION ACCESS:     165814  HIT:     164261  MISS:       1553  HIT %:    99.0634  MISS %:   0.936592   MPKI: 0.007765
PSCL3 PREFETCH  REQUESTED:          0  ISSUED:          0  USEFUL:          0  USELESS:          0
PSCL3 USEFUL LOAD PREFETCHES:          0 PREFETCH ISSUED TO LOWER LEVEL:          0  ACCURACY: -nan
PSCL3 TIMELY PREFETCHES:          0 LATE PREFETCHES: 0 DROPPED PREFETCHES: 0
PSCL3 PREFETCHES SAME FILL-ORIGIN LEVEL: 0 DIFFERENT FILL-ORIGIN LEVEL: 0

PSCL2 TOTAL     ACCESS:     169124  HIT:     111445  MISS:      57679  HIT %:    65.8954  MISS %:    34.1046   MPKI: 0.288395
PSCL2 LOAD TRANSLATION ACCESS:     169124  HIT:     111445  MISS:      57679  HIT %:    65.8954  MISS %:    34.1046   MPKI: 0.288395
PSCL2 PREFETCH  REQUESTED:          0  ISSUED:          0  USEFUL:          0  USELESS:          0
PSCL2 USEFUL LOAD PREFETCHES:          0 PREFETCH ISSUED TO LOWER LEVEL:          0  ACCURACY: -nan
PSCL2 TIMELY PREFETCHES:          0 LATE PREFETCHES: 0 DROPPED PREFETCHES: 0
PSCL2 PREFETCHES SAME FILL-ORIGIN LEVEL: 0 DIFFERENT FILL-ORIGIN LEVEL: 0

LLC TOTAL     ACCESS:   13412781  HIT:    7398892  MISS:    6013889  HIT %:     55.163  MISS %:     44.837   MPKI: 30.0694
LLC LOAD      ACCESS:    2583022  HIT:    1807886  MISS:     775136  HIT %:    69.9911  MISS %:    30.0089   MPKI: 3.87568
LLC RFO       ACCESS:    3404999  HIT:     521581  MISS:    2883418  HIT %:    15.3181  MISS %:    84.6819   MPKI: 14.4171
LLC PREFETCH  ACCESS:    3301735  HIT:    2132156  MISS:    1169579  HIT %:    64.5768  MISS %:    35.4232   MPKI: 5.8479
AGUS PREFETCH L1 MISS: 0
LLC WRITEBACK ACCESS:    4040014  HIT:    2907507  MISS:    1132507  HIT %:    71.9677  MISS %:    28.0323   MPKI: 5.66254
LLC LOAD TRANSLATION ACCESS:      83011  HIT:      29762  MISS:      53249  HIT %:    35.8531  MISS %:    64.1469   MPKI: 0.266245
LLC PREFETCH  REQUESTED:          0  ISSUED:          0  USEFUL:     454746  USELESS:     717166
LLC USEFUL LOAD PREFETCHES:     454746 PREFETCH ISSUED TO LOWER LEVEL:    1400913  ACCURACY: 32.4607
LLC TIMELY PREFETCHES:     454746 LATE PREFETCHES: 231334 DROPPED PREFETCHES: 0
LLC PREFETCHES SAME FILL-ORIGIN LEVEL: 1382596 DIFFERENT FILL-ORIGIN LEVEL: 0
LLC AVERAGE MISS LATENCY: 216.774 cycles
LLC RQ	ACCESS:    6071064	FORWARD:          0	MERGED:          0	TO_CACHE:    6071032
LLC WQ	ACCESS:    4040014	FORWARD:         33	MERGED:          0	TO_CACHE:    4040014
LLC PQ	ACCESS:    5284729	FORWARD:          0	MERGED:     781021	TO_CACHE:    4503707

LLC Dense regions hint to LLC: 0

RAW hits: 2538175
Loads Generated: 46798431
Loads sent to L1D: 44260256
Stores Generated: 32636771
Stores sent to L1D: 32636784
Major fault: 0 Minor fault: 25901
Allocated PAGES: 25901
 All Calls: 3954974
 Critical Calls: 3954974
------------------
Depth Distribution
------------------
depth 0: 0
depth 1: 3410319
depth 2: 1945119
depth 3: 1604424
depth 4: 1425468
depth 5: 1323844
depth 6: 1246467
depth 7: 1106557
depth 8: 792683
depth 9: 485968
depth 10: 106445
depth 11: 14401
depth 12: 224
depth 13: 0
depth 14: 0
depth 15: 0
depth 16: 0
depth 17: 0
depth 18: 0
depth 19: 0
depth 20: 0
depth 21: 0
depth 22: 0
depth 23: 0
depth 24: 0
depth 25: 0
depth 26: 0
depth 27: 0
depth 28: 0
depth 29: 0
Total: 13461919
-----------------------------
-----------------------------
	Captured at Filter
-----------------------------
depth 0: 0
depth 1: 10609
depth 2: 5514
depth 3: 3832
depth 4: 2901
depth 5: 3185
depth 6: 3637
depth 7: 3915
depth 8: 3366
depth 9: 2355
depth 10: 523
depth 11: 51
depth 12: 3
depth 13: 0
depth 14: 0
depth 15: 0
depth 16: 0
depth 17: 0
depth 18: 0
depth 19: 0
depth 20: 0
depth 21: 0
depth 22: 0
depth 23: 0
depth 24: 0
depth 25: 0
depth 26: 0
depth 27: 0
depth 28: 0
depth 29: 0
-----------------------------
-----------------------------
		Lost at Page
-----------------------------
depth 0: 0
depth 1: 148676
depth 2: 68994
depth 3: 65619
depth 4: 77609
depth 5: 95316
depth 6: 118949
depth 7: 135208
depth 8: 118077
depth 9: 85938
depth 10: 22033
depth 11: 3338
depth 12: 61
depth 13: 0
depth 14: 0
depth 15: 0
depth 16: 0
depth 17: 0
depth 18: 0
depth 19: 0
depth 20: 0
depth 21: 0
depth 22: 0
depth 23: 0
depth 24: 0
depth 25: 0
depth 26: 0
depth 27: 0
depth 28: 0
depth 29: 0
-----------------------------
-----------------------------
	Lost due to PQ Size
-----------------------------
2418
-----------------------------
ST read accesses: 2888867
ST write accesses: 294191
PT read accesses: 76617157
PT write accesses: 3880838
FILTER read accesses: 20383944
FILTER write accesses: 8215855
GHR read accesses: 6837202
GHR write accesses: 728300
GHR counter read accesses: 63504260
GHR counter write accesses: 4751718
ST tag read accesses: 1375151193
ST tag write accesses: 119821624

DRAM Statistics
 CHANNEL 0
 RQ ROW_BUFFER_HIT:    1954670  ROW_BUFFER_MISS:    2926212
 DBUS_CONGESTED:       1316
 WQ ROW_BUFFER_HIT:     709611  ROW_BUFFER_MISS:    2563979  FULL:      22695

 AVG_CONGESTED_CYCLE: 3
 All warmup complete: 2
Channel 0 Bank busy for read cycles: 0
Channel 0 Bank busy for write cycles: 0
Channel 0
Rank 0
0banks busy for read cycles: 148596544
0banks busy for write cycles: 204417
1banks busy for read cycles: 56703197
1banks busy for write cycles: 27563167
2banks busy for read cycles: 29017366
2banks busy for write cycles: 14936725
3banks busy for read cycles: 21946073
3banks busy for write cycles: 9733000
4banks busy for read cycles: 7942129
4banks busy for write cycles: 7304939
5banks busy for read cycles: 5144066
5banks busy for write cycles: 5910079
6banks busy for read cycles: 5340201
6banks busy for write cycles: 5234311
7banks busy for read cycles: 7843987
7banks busy for write cycles: 7612977
8banks busy for read cycles: 28501396
8banks busy for write cycles: 44654182

CPU 0 Branch Prediction Accuracy: 99.9365% MPKI: 0.098915 Average ROB Occupancy at Mispredict: 102.987
Branch types
NOT_BRANCH: 168850935 84.4255%
BRANCH_DIRECT_JUMP: 1694760 0.84738%
BRANCH_INDIRECT: 9830410 4.91521%
BRANCH_CONDITIONAL: 12963086 6.48154%
BRANCH_DIRECT_CALL: 2643025 1.32151%
BRANCH_INDIRECT_CALL: 687193 0.343597%
BRANCH_RETURN: 3330237 1.66512%
BRANCH_OTHER: 0 0%

DRAM PAGES: 1048576
Allocated PAGES: 25901
