Initialize SIGNATURE TABLE
ST_SET: 1
ST_WAY: 256
ST_TAG_BIT: 16
ST_TAG_MASK: ffff

Initialize PATTERN TABLE
PT_SET: 512
PT_WAY: 4
SIG_DELTA_BIT: 7
C_SIG_BIT: 4
C_DELTA_BIT: 4

Initialize PREFETCH FILTER
FILTER_SET: 1024

*** ChampSim Multicore Out-of-Order Simulator ***

Warmup Instructions: 50000000
Simulation Instructions: 200000000
Number of CPUs: 1
LLC sets: 2048
LLC ways: 16
Off-chip DRAM Size: 4096 MB Channels: 1 Width: 64-bit Data Rate: 6400 MT/s
CPU 0 runs traces/spec2k17/server_014.champsimtrace.xz
.xz
BTB has LRU replacement policy
ITLB has LRU replacement policy
DTLB has LRU replacement policy
STLB has LRU replacement policy
L1I has LRU replacement policy
L1D has LRU replacement policy
ST_WAYS: 256
PT_SETS: 512
Initialize SRRIP state for L2C
Initialize DRRIP state for LLC
Heartbeat CPU 0 instructions: 10000001 cycles: 2682121 heartbeat IPC: 3.72839 cumulative IPC: 3.72839 (Simulation time: 0 hr 0 min 23 sec) 
Heartbeat CPU 0 instructions: 20000000 cycles: 5401633 heartbeat IPC: 3.67713 cumulative IPC: 3.70258 (Simulation time: 0 hr 0 min 48 sec) 
Heartbeat CPU 0 instructions: 30000001 cycles: 8090235 heartbeat IPC: 3.71941 cumulative IPC: 3.70817 (Simulation time: 0 hr 1 min 13 sec) 
Heartbeat CPU 0 instructions: 40000001 cycles: 10779317 heartbeat IPC: 3.71874 cumulative IPC: 3.71081 (Simulation time: 0 hr 1 min 38 sec) 
Heartbeat CPU 0 instructions: 50000000 cycles: 13467450 heartbeat IPC: 3.72005 cumulative IPC: 3.71266 (Simulation time: 0 hr 2 min 3 sec) 

Warmup complete CPU 0 instructions: 50000004 cycles: 13467451 (Simulation time: 0 hr 2 min 3 sec) 

Heartbeat CPU 0 instructions: 60000003 cycles: 28884955 heartbeat IPC: 0.648614 cumulative IPC: 0.648613 (Simulation time: 0 hr 2 min 52 sec) 
Heartbeat CPU 0 instructions: 70000002 cycles: 44230348 heartbeat IPC: 0.651661 cumulative IPC: 0.650134 (Simulation time: 0 hr 3 min 42 sec) 
*** Reached end of trace for Core: 0 Repeating trace: traces/spec2k17/server_014.champsimtrace.xz
Heartbeat CPU 0 instructions: 80000001 cycles: 60135820 heartbeat IPC: 0.628714 cumulative IPC: 0.642834 (Simulation time: 0 hr 4 min 30 sec) 
Heartbeat CPU 0 instructions: 90000003 cycles: 77438051 heartbeat IPC: 0.57796 cumulative IPC: 0.625287 (Simulation time: 0 hr 5 min 20 sec) 
Heartbeat CPU 0 instructions: 100000000 cycles: 92853090 heartbeat IPC: 0.648717 cumulative IPC: 0.629837 (Simulation time: 0 hr 6 min 8 sec) 
Heartbeat CPU 0 instructions: 110000000 cycles: 108470355 heartbeat IPC: 0.640317 cumulative IPC: 0.63156 (Simulation time: 0 hr 6 min 59 sec) 
Heartbeat CPU 0 instructions: 120000000 cycles: 123839694 heartbeat IPC: 0.650646 cumulative IPC: 0.634217 (Simulation time: 0 hr 7 min 49 sec) 
Heartbeat CPU 0 instructions: 130000002 cycles: 139210197 heartbeat IPC: 0.650597 cumulative IPC: 0.63622 (Simulation time: 0 hr 8 min 37 sec) 
Heartbeat CPU 0 instructions: 140000001 cycles: 154581806 heartbeat IPC: 0.65055 cumulative IPC: 0.637781 (Simulation time: 0 hr 9 min 25 sec) 
Heartbeat CPU 0 instructions: 150000000 cycles: 169935714 heartbeat IPC: 0.6513 cumulative IPC: 0.639107 (Simulation time: 0 hr 10 min 9 sec) 
*** Reached end of trace for Core: 0 Repeating trace: traces/spec2k17/server_014.champsimtrace.xz
Heartbeat CPU 0 instructions: 160000000 cycles: 185883558 heartbeat IPC: 0.627044 cumulative IPC: 0.637991 (Simulation time: 0 hr 10 min 58 sec) 
Heartbeat CPU 0 instructions: 170000002 cycles: 203059050 heartbeat IPC: 0.582225 cumulative IPC: 0.632939 (Simulation time: 0 hr 11 min 48 sec) 
Heartbeat CPU 0 instructions: 180000000 cycles: 218459275 heartbeat IPC: 0.649341 cumulative IPC: 0.634172 (Simulation time: 0 hr 12 min 37 sec) 
Heartbeat CPU 0 instructions: 190000001 cycles: 234068295 heartbeat IPC: 0.640655 cumulative IPC: 0.63463 (Simulation time: 0 hr 13 min 26 sec) 
Heartbeat CPU 0 instructions: 200000000 cycles: 249429939 heartbeat IPC: 0.650972 cumulative IPC: 0.635694 (Simulation time: 0 hr 14 min 12 sec) 
Heartbeat CPU 0 instructions: 210000000 cycles: 264795498 heartbeat IPC: 0.650806 cumulative IPC: 0.636618 (Simulation time: 0 hr 15 min 0 sec) 
Heartbeat CPU 0 instructions: 220000000 cycles: 280164401 heartbeat IPC: 0.650665 cumulative IPC: 0.637428 (Simulation time: 0 hr 15 min 45 sec) 
Heartbeat CPU 0 instructions: 230000003 cycles: 295515029 heartbeat IPC: 0.651439 cumulative IPC: 0.63819 (Simulation time: 0 hr 16 min 34 sec) 
*** Reached end of trace for Core: 0 Repeating trace: traces/spec2k17/server_014.champsimtrace.xz
Heartbeat CPU 0 instructions: 240000000 cycles: 311545543 heartbeat IPC: 0.62381 cumulative IPC: 0.637417 (Simulation time: 0 hr 17 min 21 sec) 
Heartbeat CPU 0 instructions: 250000001 cycles: 328615461 heartbeat IPC: 0.585826 cumulative IPC: 0.634622 (Simulation time: 0 hr 18 min 11 sec) 
Finished CPU 0 instructions: 200000000 cycles: 315148011 cumulative IPC: 0.634622 (Simulation time: 0 hr 18 min 11 sec) 

ChampSim completed all CPUs

Region of Interest Statistics

CPU 0 cumulative IPC: 0.634622 instructions: 200000000 cycles: 315148011
ITLB TOTAL     ACCESS:   33934790  HIT:   32344491  MISS:    1590299  HIT %:    95.3137  MISS %:    4.68634   MPKI: 7.9515
ITLB LOAD TRANSLATION ACCESS:   33934790  HIT:   32344491  MISS:    1590299  HIT %:    95.3137  MISS %:    4.68634   MPKI: 7.9515
ITLB PREFETCH  REQUESTED:          0  ISSUED:          0  USEFUL:          0  USELESS:          0
ITLB USEFUL LOAD PREFETCHES:          0 PREFETCH ISSUED TO LOWER LEVEL:          0  ACCURACY: -nan
ITLB TIMELY PREFETCHES:          0 LATE PREFETCHES: 0 DROPPED PREFETCHES: 0
ITLB PREFETCHES SAME FILL-ORIGIN LEVEL: 0 DIFFERENT FILL-ORIGIN LEVEL: 0
ITLB AVERAGE MISS LATENCY: 9.04632 cycles
ITLB RQ	ACCESS:   39384351	FORWARD:          0	MERGED:    4929391	TO_CACHE:   34454960

DTLB TOTAL     ACCESS:   39444422  HIT:   38766459  MISS:     677963  HIT %:    98.2812  MISS %:    1.71878   MPKI: 3.38982
DTLB LOAD TRANSLATION ACCESS:   39444422  HIT:   38766459  MISS:     677963  HIT %:    98.2812  MISS %:    1.71878   MPKI: 3.38982
DTLB PREFETCH  REQUESTED:          0  ISSUED:          0  USEFUL:          0  USELESS:          0
DTLB USEFUL LOAD PREFETCHES:          0 PREFETCH ISSUED TO LOWER LEVEL:          0  ACCURACY: -nan
DTLB TIMELY PREFETCHES:          0 LATE PREFETCHES: 0 DROPPED PREFETCHES: 0
DTLB PREFETCHES SAME FILL-ORIGIN LEVEL: 0 DIFFERENT FILL-ORIGIN LEVEL: 0
DTLB AVERAGE MISS LATENCY: 9.51307 cycles
DTLB RQ	ACCESS:   59049846	FORWARD:          0	MERGED:   19563497	TO_CACHE:   39486349

STLB TOTAL     ACCESS:    2268262  HIT:    2264748  MISS:       3514  HIT %:    99.8451  MISS %:    0.15492   MPKI: 0.01757
STLB LOAD TRANSLATION ACCESS:    2268262  HIT:    2264748  MISS:       3514  HIT %:    99.8451  MISS %:    0.15492   MPKI: 0.01757
STLB PREFETCH  REQUESTED:          0  ISSUED:          0  USEFUL:          0  USELESS:          0
STLB USEFUL LOAD PREFETCHES:          0 PREFETCH ISSUED TO LOWER LEVEL:          0  ACCURACY: -nan
STLB TIMELY PREFETCHES:          0 LATE PREFETCHES: 0 DROPPED PREFETCHES: 0
STLB PREFETCHES SAME FILL-ORIGIN LEVEL: 0 DIFFERENT FILL-ORIGIN LEVEL: 0
STLB AVERAGE MISS LATENCY: 119.462 cycles
STLB RQ	ACCESS:    2268262	FORWARD:          0	MERGED:          0	TO_CACHE:    2268262

STLB Hit, L1D data hit: 0
STLB Hit, L2C data hit: 0
STLB Hit, LLC data hit: 0
STLB Hit, LLC data miss: 0
STLB STLB hints to L2: 0
L1D TOTAL     ACCESS:   58882028  HIT:   58700418  MISS:     181610  HIT %:    99.6916  MISS %:    0.30843   MPKI: 0.90805
L1D LOAD      ACCESS:   26942759  HIT:   26857820  MISS:      84939  HIT %:    99.6847  MISS %:   0.315257   MPKI: 0.424695
L1D RFO       ACCESS:   31939269  HIT:   31842598  MISS:      96671  HIT %:    99.6973  MISS %:   0.302671   MPKI: 0.483355
L1D PREFETCH  REQUESTED:          0  ISSUED:          0  USEFUL:          0  USELESS:          0
L1D USEFUL LOAD PREFETCHES:          0 PREFETCH ISSUED TO LOWER LEVEL:          0  ACCURACY: -nan
L1D TIMELY PREFETCHES:          0 LATE PREFETCHES: 0 DROPPED PREFETCHES: 0
L1D PREFETCHES SAME FILL-ORIGIN LEVEL: 0 DIFFERENT FILL-ORIGIN LEVEL: 0
L1D AVERAGE MISS LATENCY: 220.77 cycles
L1D RQ	ACCESS:   44730747	FORWARD:          0	MERGED:   17403833	TO_CACHE:   26948913
L1D WQ	ACCESS:   32528945	FORWARD:     378001	MERGED:     428012	TO_CACHE:   32100933

L1D UNIQUE REGIONS ACCESSED: 0
L1D REGIONS CONFLICTS: 0
L1D Cross Page Prefetch Requests: 0
L1D Same Page Prefetch Requests: 0
L1D ROI Sum of L1D PQ occupancy: 0
L1D PREFETCHES PUSHED FROM L2C: 0
L1I TOTAL     ACCESS:   38023574  HIT:   32321259  MISS:    5702315  HIT %:    85.0032  MISS %:    14.9968   MPKI: 28.5116
L1I LOAD      ACCESS:   38023574  HIT:   32321259  MISS:    5702315  HIT %:    85.0032  MISS %:    14.9968   MPKI: 28.5116
L1I PREFETCH  REQUESTED:          0  ISSUED:          0  USEFUL:          0  USELESS:          0
L1I USEFUL LOAD PREFETCHES:          0 PREFETCH ISSUED TO LOWER LEVEL:          0  ACCURACY: -nan
L1I TIMELY PREFETCHES:          0 LATE PREFETCHES: 0 DROPPED PREFETCHES: 0
L1I PREFETCHES SAME FILL-ORIGIN LEVEL: 0 DIFFERENT FILL-ORIGIN LEVEL: 0
L1I AVERAGE MISS LATENCY: 14.634 cycles
L1I RQ	ACCESS:   60213323	FORWARD:          0	MERGED:   20828972	TO_CACHE:   39384351

BTB TOTAL     ACCESS:   28030751  HIT:   25492705  MISS:    2538046  HIT %:    90.9455  MISS %:    9.05451   MPKI: 12.6902
BTB BRANCH_DIRECT_JUMP	ACCESS:    1660185  HIT:    1656204  MISS:       3981
BTB BRANCH_INDIRECT	ACCESS:   12451124  HIT:   11582007  MISS:     869117
BTB BRANCH_CONDITIONAL	ACCESS:    4291215  HIT:    4285628  MISS:       5587
BTB BRANCH_DIRECT_CALL	ACCESS:    4358215  HIT:    4347520  MISS:      10695
BTB BRANCH_INDIRECT_CALL	ACCESS:     455923  HIT:     405462  MISS:      50461
BTB BRANCH_RETURN	ACCESS:    4814089  HIT:    3215884  MISS:    1598205
BTB BRANCH_OTHER ACCESS:          0  HIT:          0  MISS:          0

L2C TOTAL     ACCESS:    6016784  HIT:    5817358  MISS:     199426  HIT %:    96.6855  MISS %:    3.31449   MPKI: 0.99713
L2C LOAD      ACCESS:    5787253  HIT:    5690477  MISS:      96776  HIT %:    98.3278  MISS %:    1.67223   MPKI: 0.48388
L2C DATA LOAD MPKI: 0.3183
L2C INSTRUCTION LOAD MPKI: 0.16558
L2C RFO       ACCESS:      96671  HIT:       3284  MISS:      93387  HIT %:    3.39709  MISS %:    96.6029   MPKI: 0.466935
L2C PREFETCH  ACCESS:      16564  HIT:      12240  MISS:       4324  HIT %:    73.8952  MISS %:    26.1048   MPKI: 0.02162
AGUS PREFETCH L1 MISS: 0
L2C DATA PREFETCH MPKI: 0.02162
L2C INSTRUCTION PREFETCH MPKI: 0
L2C WRITEBACK ACCESS:     112336  HIT:     109306  MISS:       3030  HIT %:    97.3027  MISS %:    2.69727   MPKI: 0.01515
L2C LOAD TRANSLATION ACCESS:       3960  HIT:       2051  MISS:       1909  HIT %:    51.7929  MISS %:    48.2071   MPKI: 0.009545
L2C PREFETCH  REQUESTED:     414217  ISSUED:     406681  USEFUL:       4281  USELESS:         43
L2C USEFUL LOAD PREFETCHES:       4281 PREFETCH ISSUED TO LOWER LEVEL:     133295  ACCURACY: 3.21167
L2C TIMELY PREFETCHES:       4281 LATE PREFETCHES: 6986 DROPPED PREFETCHES: 0
L2C PREFETCHES SAME FILL-ORIGIN LEVEL: 11310 DIFFERENT FILL-ORIGIN LEVEL: 121985
L2C AVERAGE MISS LATENCY: 208.1 cycles
L2C RQ	ACCESS:    5887884	FORWARD:          0	MERGED:          0	TO_CACHE:    5887884
L2C WQ	ACCESS:     112336	FORWARD:          0	MERGED:          0	TO_CACHE:     112336
L2C PQ	ACCESS:     406681	FORWARD:          0	MERGED:     234134	TO_CACHE:     172547

L2C Instructions Evicting Data 27739
L2C Translations Evicting Data 1578
L2C Data Evicting Data 132761
L2C Instructions Evicting Instructions 5024
L2C Translations Evicting Instructions 296
L2C Data Evicting Instructions 26999
L2C Instructions Evicting Translations 353
L2C Translations Evicting Translations 35
L2C Data Evicting Translations 1611
L2C Dense regions hint from L2: 0
PSCL5 TOTAL     ACCESS:       3514  HIT:       3514  MISS:          0  HIT %:        100  MISS %:          0   MPKI: 0
PSCL5 LOAD TRANSLATION ACCESS:       3514  HIT:       3514  MISS:          0  HIT %:        100  MISS %:          0   MPKI: 0
PSCL5 PREFETCH  REQUESTED:          0  ISSUED:          0  USEFUL:          0  USELESS:          0
PSCL5 USEFUL LOAD PREFETCHES:          0 PREFETCH ISSUED TO LOWER LEVEL:          0  ACCURACY: -nan
PSCL5 TIMELY PREFETCHES:          0 LATE PREFETCHES: 0 DROPPED PREFETCHES: 0
PSCL5 PREFETCHES SAME FILL-ORIGIN LEVEL: 0 DIFFERENT FILL-ORIGIN LEVEL: 0

PSCL4 TOTAL     ACCESS:       2064  HIT:       2049  MISS:         15  HIT %:    99.2733  MISS %:   0.726744   MPKI: 7.5e-05
PSCL4 LOAD TRANSLATION ACCESS:       2064  HIT:       2049  MISS:         15  HIT %:    99.2733  MISS %:   0.726744   MPKI: 7.5e-05
PSCL4 PREFETCH  REQUESTED:          0  ISSUED:          0  USEFUL:          0  USELESS:          0
PSCL4 USEFUL LOAD PREFETCHES:          0 PREFETCH ISSUED TO LOWER LEVEL:          0  ACCURACY: -nan
PSCL4 TIMELY PREFETCHES:          0 LATE PREFETCHES: 0 DROPPED PREFETCHES: 0
PSCL4 PREFETCHES SAME FILL-ORIGIN LEVEL: 0 DIFFERENT FILL-ORIGIN LEVEL: 0

PSCL3 TOTAL     ACCESS:       3172  HIT:       3157  MISS:         15  HIT %:    99.5271  MISS %:   0.472888   MPKI: 7.5e-05
PSCL3 LOAD TRANSLATION ACCESS:       3172  HIT:       3157  MISS:         15  HIT %:    99.5271  MISS %:   0.472888   MPKI: 7.5e-05
PSCL3 PREFETCH  REQUESTED:          0  ISSUED:          0  USEFUL:          0  USELESS:          0
PSCL3 USEFUL LOAD PREFETCHES:          0 PREFETCH ISSUED TO LOWER LEVEL:          0  ACCURACY: -nan
PSCL3 TIMELY PREFETCHES:          0 LATE PREFETCHES: 0 DROPPED PREFETCHES: 0
PSCL3 PREFETCHES SAME FILL-ORIGIN LEVEL: 0 DIFFERENT FILL-ORIGIN LEVEL: 0

PSCL2 TOTAL     ACCESS:       3514  HIT:       3098  MISS:        416  HIT %:    88.1616  MISS %:    11.8384   MPKI: 0.00208
PSCL2 LOAD TRANSLATION ACCESS:       3514  HIT:       3098  MISS:        416  HIT %:    88.1616  MISS %:    11.8384   MPKI: 0.00208
PSCL2 PREFETCH  REQUESTED:          0  ISSUED:          0  USEFUL:          0  USELESS:          0
PSCL2 USEFUL LOAD PREFETCHES:          0 PREFETCH ISSUED TO LOWER LEVEL:          0  ACCURACY: -nan
PSCL2 TIMELY PREFETCHES:          0 LATE PREFETCHES: 0 DROPPED PREFETCHES: 0
PSCL2 PREFETCHES SAME FILL-ORIGIN LEVEL: 0 DIFFERENT FILL-ORIGIN LEVEL: 0

LLC TOTAL     ACCESS:     365761  HIT:     229479  MISS:     136282  HIT %:    62.7401  MISS %:    37.2599   MPKI: 0.68141
LLC LOAD      ACCESS:      89790  HIT:      47758  MISS:      42032  HIT %:    53.1886  MISS %:    46.8114   MPKI: 0.21016
LLC RFO       ACCESS:      93387  HIT:      23952  MISS:      69435  HIT %:    25.6481  MISS %:    74.3519   MPKI: 0.347175
LLC PREFETCH  ACCESS:      79143  HIT:      58650  MISS:      20493  HIT %:    74.1064  MISS %:    25.8936   MPKI: 0.102465
AGUS PREFETCH L1 MISS: 0
LLC WRITEBACK ACCESS:     101532  HIT:      98430  MISS:       3102  HIT %:    96.9448  MISS %:    3.05519   MPKI: 0.01551
LLC LOAD TRANSLATION ACCESS:       1909  HIT:        689  MISS:       1220  HIT %:    36.0922  MISS %:    63.9078   MPKI: 0.0061
LLC PREFETCH  REQUESTED:          0  ISSUED:          0  USEFUL:      11552  USELESS:       8551
LLC USEFUL LOAD PREFETCHES:      11552 PREFETCH ISSUED TO LOWER LEVEL:      31781  ACCURACY: 36.3488
LLC TIMELY PREFETCHES:      11552 LATE PREFETCHES: 11288 DROPPED PREFETCHES: 0
LLC PREFETCHES SAME FILL-ORIGIN LEVEL: 31213 DIFFERENT FILL-ORIGIN LEVEL: 0
LLC AVERAGE MISS LATENCY: 307.138 cycles
LLC RQ	ACCESS:     185086	FORWARD:          0	MERGED:          0	TO_CACHE:     185086
LLC WQ	ACCESS:     101532	FORWARD:          0	MERGED:          0	TO_CACHE:     101532
LLC PQ	ACCESS:     133295	FORWARD:          0	MERGED:      12127	TO_CACHE:     121168

LLC Dense regions hint to LLC: 0

RAW hits: 3284648
Loads Generated: 48015396
Loads sent to L1D: 44730747
Stores Generated: 32528949
Stores sent to L1D: 32528945
Major fault: 0 Minor fault: 2022
Allocated PAGES: 2022
 All Calls: 113510
 Critical Calls: 113510
------------------
Depth Distribution
------------------
depth 0: 0
depth 1: 73381
depth 2: 58971
depth 3: 56240
depth 4: 53848
depth 5: 51236
depth 6: 46781
depth 7: 39301
depth 8: 32422
depth 9: 27372
depth 10: 21574
depth 11: 12835
depth 12: 7450
depth 13: 1216
depth 14: 1
depth 15: 0
depth 16: 0
depth 17: 0
depth 18: 0
depth 19: 0
depth 20: 0
depth 21: 0
depth 22: 0
depth 23: 0
depth 24: 0
depth 25: 0
depth 26: 0
depth 27: 0
depth 28: 0
depth 29: 0
Total: 482628
-----------------------------
-----------------------------
	Captured at Filter
-----------------------------
depth 0: 0
depth 1: 360
depth 2: 235
depth 3: 211
depth 4: 200
depth 5: 199
depth 6: 181
depth 7: 156
depth 8: 121
depth 9: 106
depth 10: 85
depth 11: 52
depth 12: 21
depth 13: 6
depth 14: 0
depth 15: 0
depth 16: 0
depth 17: 0
depth 18: 0
depth 19: 0
depth 20: 0
depth 21: 0
depth 22: 0
depth 23: 0
depth 24: 0
depth 25: 0
depth 26: 0
depth 27: 0
depth 28: 0
depth 29: 0
-----------------------------
-----------------------------
		Lost at Page
-----------------------------
depth 0: 0
depth 1: 1989
depth 2: 2162
depth 3: 3043
depth 4: 3944
depth 5: 4887
depth 6: 5535
depth 7: 5412
depth 8: 5188
depth 9: 5062
depth 10: 4559
depth 11: 3179
depth 12: 2185
depth 13: 426
depth 14: 0
depth 15: 0
depth 16: 0
depth 17: 0
depth 18: 0
depth 19: 0
depth 20: 0
depth 21: 0
depth 22: 0
depth 23: 0
depth 24: 0
depth 25: 0
depth 26: 0
depth 27: 0
depth 28: 0
depth 29: 0
-----------------------------
-----------------------------
	Lost due to PQ Size
-----------------------------
21548
-----------------------------
ST read accesses: 81002
ST write accesses: 3937
PT read accesses: 2855023
PT write accesses: 113837
FILTER read accesses: 700178
FILTER write accesses: 261689
GHR read accesses: 264826
GHR write accesses: 42096
GHR counter read accesses: 2339774
GHR counter write accesses: 147224
ST tag read accesses: 34762200
ST tag write accesses: 1968198

DRAM Statistics
 CHANNEL 0
 RQ ROW_BUFFER_HIT:      56331  ROW_BUFFER_MISS:      76846
 DBUS_CONGESTED:         22
 WQ ROW_BUFFER_HIT:      19392  ROW_BUFFER_MISS:      61210  FULL:          0

 AVG_CONGESTED_CYCLE: 5
 All warmup complete: 2
Channel 0 Bank busy for read cycles: 0
Channel 0 Bank busy for write cycles: 0
Channel 0
Rank 0
0banks busy for read cycles: 305766031
0banks busy for write cycles: 8190
1banks busy for read cycles: 2966296
1banks busy for write cycles: 1264299
2banks busy for read cycles: 835937
2banks busy for write cycles: 720893
3banks busy for read cycles: 273470
3banks busy for write cycles: 386662
4banks busy for read cycles: 122369
4banks busy for write cycles: 202192
5banks busy for read cycles: 111355
5banks busy for write cycles: 107792
6banks busy for read cycles: 137736
6banks busy for write cycles: 75113
7banks busy for read cycles: 232791
7banks busy for write cycles: 169884
8banks busy for read cycles: 739580
8banks busy for write cycles: 1027422

CPU 0 Branch Prediction Accuracy: 99.8714% MPKI: 0.20299 Average ROB Occupancy at Mispredict: 16.1673
Branch types
NOT_BRANCH: 168420567 84.2103%
BRANCH_DIRECT_JUMP: 1660185 0.830093%
BRANCH_INDIRECT: 12451124 6.22556%
BRANCH_CONDITIONAL: 7839905 3.91995%
BRANCH_DIRECT_CALL: 4358215 2.17911%
BRANCH_INDIRECT_CALL: 455923 0.227962%
BRANCH_RETURN: 4814089 2.40704%
BRANCH_OTHER: 0 0%

DRAM PAGES: 1048576
Allocated PAGES: 2022
