Initialize SIGNATURE TABLE
ST_SET: 1
ST_WAY: 256
ST_TAG_BIT: 16
ST_TAG_MASK: ffff

Initialize PATTERN TABLE
PT_SET: 512
PT_WAY: 4
SIG_DELTA_BIT: 7
C_SIG_BIT: 4
C_DELTA_BIT: 4

Initialize PREFETCH FILTER
FILTER_SET: 1024

*** ChampSim Multicore Out-of-Order Simulator ***

Warmup Instructions: 50000000
Simulation Instructions: 200000000
Number of CPUs: 1
LLC sets: 2048
LLC ways: 16
Off-chip DRAM Size: 4096 MB Channels: 1 Width: 64-bit Data Rate: 6400 MT/s
CPU 0 runs traces/spec2k17/srv_5.champsimtrace.xz
.xz
BTB has LRU replacement policy
ITLB has LRU replacement policy
DTLB has LRU replacement policy
STLB has LRU replacement policy
L1I has LRU replacement policy
L1D has LRU replacement policy
ST_WAYS: 256
PT_SETS: 512
Initialize SRRIP state for L2C
Initialize DRRIP state for LLC
Heartbeat CPU 0 instructions: 10000002 cycles: 2764402 heartbeat IPC: 3.61742 cumulative IPC: 3.61742 (Simulation time: 0 hr 0 min 33 sec) 
Heartbeat CPU 0 instructions: 20000003 cycles: 5518024 heartbeat IPC: 3.63158 cumulative IPC: 3.62449 (Simulation time: 0 hr 1 min 6 sec) 
Heartbeat CPU 0 instructions: 30000002 cycles: 8274872 heartbeat IPC: 3.62733 cumulative IPC: 3.62543 (Simulation time: 0 hr 1 min 39 sec) 
*** Reached end of trace for Core: 0 Repeating trace: traces/spec2k17/srv_5.champsimtrace.xz
Heartbeat CPU 0 instructions: 40000002 cycles: 11032669 heartbeat IPC: 3.62608 cumulative IPC: 3.6256 (Simulation time: 0 hr 2 min 13 sec) 
Heartbeat CPU 0 instructions: 50000002 cycles: 13785883 heartbeat IPC: 3.63212 cumulative IPC: 3.6269 (Simulation time: 0 hr 2 min 46 sec) 

Warmup complete CPU 0 instructions: 50000002 cycles: 13785883 (Simulation time: 0 hr 2 min 46 sec) 

Heartbeat CPU 0 instructions: 60000001 cycles: 35651236 heartbeat IPC: 0.457345 cumulative IPC: 0.457345 (Simulation time: 0 hr 3 min 39 sec) 
*** Reached end of trace for Core: 0 Repeating trace: traces/spec2k17/srv_5.champsimtrace.xz
Heartbeat CPU 0 instructions: 70000003 cycles: 57540965 heartbeat IPC: 0.456835 cumulative IPC: 0.45709 (Simulation time: 0 hr 4 min 33 sec) 
Heartbeat CPU 0 instructions: 80000001 cycles: 78714310 heartbeat IPC: 0.472292 cumulative IPC: 0.462047 (Simulation time: 0 hr 5 min 26 sec) 
Heartbeat CPU 0 instructions: 90000002 cycles: 100687875 heartbeat IPC: 0.455092 cumulative IPC: 0.460289 (Simulation time: 0 hr 6 min 17 sec) 
*** Reached end of trace for Core: 0 Repeating trace: traces/spec2k17/srv_5.champsimtrace.xz
Heartbeat CPU 0 instructions: 100000001 cycles: 122210922 heartbeat IPC: 0.464618 cumulative IPC: 0.461148 (Simulation time: 0 hr 7 min 7 sec) 
Heartbeat CPU 0 instructions: 110000000 cycles: 143639335 heartbeat IPC: 0.46667 cumulative IPC: 0.462059 (Simulation time: 0 hr 7 min 58 sec) 
Heartbeat CPU 0 instructions: 120000001 cycles: 165463876 heartbeat IPC: 0.4582 cumulative IPC: 0.461504 (Simulation time: 0 hr 8 min 49 sec) 
*** Reached end of trace for Core: 0 Repeating trace: traces/spec2k17/srv_5.champsimtrace.xz
Heartbeat CPU 0 instructions: 130000001 cycles: 186893042 heartbeat IPC: 0.466654 cumulative IPC: 0.462141 (Simulation time: 0 hr 9 min 41 sec) 
Heartbeat CPU 0 instructions: 140000003 cycles: 208317640 heartbeat IPC: 0.466753 cumulative IPC: 0.462649 (Simulation time: 0 hr 10 min 36 sec) 
Heartbeat CPU 0 instructions: 150000000 cycles: 229942643 heartbeat IPC: 0.462428 cumulative IPC: 0.462627 (Simulation time: 0 hr 11 min 29 sec) 
*** Reached end of trace for Core: 0 Repeating trace: traces/spec2k17/srv_5.champsimtrace.xz
Heartbeat CPU 0 instructions: 160000000 cycles: 251320170 heartbeat IPC: 0.467781 cumulative IPC: 0.463091 (Simulation time: 0 hr 12 min 21 sec) 
Heartbeat CPU 0 instructions: 170000002 cycles: 273042122 heartbeat IPC: 0.460364 cumulative IPC: 0.462863 (Simulation time: 0 hr 13 min 15 sec) 
Heartbeat CPU 0 instructions: 180000000 cycles: 294546462 heartbeat IPC: 0.465022 cumulative IPC: 0.463028 (Simulation time: 0 hr 14 min 8 sec) 
*** Reached end of trace for Core: 0 Repeating trace: traces/spec2k17/srv_5.champsimtrace.xz
Heartbeat CPU 0 instructions: 190000000 cycles: 315919440 heartbeat IPC: 0.467881 cumulative IPC: 0.463371 (Simulation time: 0 hr 14 min 59 sec) 
Heartbeat CPU 0 instructions: 200000003 cycles: 337795363 heartbeat IPC: 0.457124 cumulative IPC: 0.462949 (Simulation time: 0 hr 15 min 40 sec) 
Heartbeat CPU 0 instructions: 210000000 cycles: 359145531 heartbeat IPC: 0.46838 cumulative IPC: 0.463285 (Simulation time: 0 hr 16 min 30 sec) 
*** Reached end of trace for Core: 0 Repeating trace: traces/spec2k17/srv_5.champsimtrace.xz
Heartbeat CPU 0 instructions: 220000000 cycles: 380589260 heartbeat IPC: 0.466337 cumulative IPC: 0.463464 (Simulation time: 0 hr 17 min 15 sec) 
Heartbeat CPU 0 instructions: 230000003 cycles: 402513378 heartbeat IPC: 0.456119 cumulative IPC: 0.463049 (Simulation time: 0 hr 17 min 52 sec) 
Heartbeat CPU 0 instructions: 240000002 cycles: 423897715 heartbeat IPC: 0.467632 cumulative IPC: 0.463288 (Simulation time: 0 hr 18 min 45 sec) 
*** Reached end of trace for Core: 0 Repeating trace: traces/spec2k17/srv_5.champsimtrace.xz
Heartbeat CPU 0 instructions: 250000001 cycles: 445328169 heartbeat IPC: 0.466626 cumulative IPC: 0.463454 (Simulation time: 0 hr 19 min 38 sec) 
Finished CPU 0 instructions: 200000000 cycles: 431542287 cumulative IPC: 0.463454 (Simulation time: 0 hr 19 min 38 sec) 

ChampSim completed all CPUs

Region of Interest Statistics

CPU 0 cumulative IPC: 0.463454 instructions: 200000000 cycles: 431542287
ITLB TOTAL     ACCESS:   31214939  HIT:   30407168  MISS:     807771  HIT %:    97.4122  MISS %:    2.58777   MPKI: 4.03885
ITLB LOAD TRANSLATION ACCESS:   31214939  HIT:   30407168  MISS:     807771  HIT %:    97.4122  MISS %:    2.58777   MPKI: 4.03885
ITLB PREFETCH  REQUESTED:          0  ISSUED:          0  USEFUL:          0  USELESS:          0
ITLB USEFUL LOAD PREFETCHES:          0 PREFETCH ISSUED TO LOWER LEVEL:          0  ACCURACY: -nan
ITLB TIMELY PREFETCHES:          0 LATE PREFETCHES: 0 DROPPED PREFETCHES: 0
ITLB PREFETCHES SAME FILL-ORIGIN LEVEL: 0 DIFFERENT FILL-ORIGIN LEVEL: 0
ITLB AVERAGE MISS LATENCY: 13.4735 cycles
ITLB RQ	ACCESS:   38117905	FORWARD:          0	MERGED:    6699053	TO_CACHE:   31418852

DTLB TOTAL     ACCESS:   37225410  HIT:   34611762  MISS:    2613648  HIT %:    92.9789  MISS %:    7.02114   MPKI: 13.0682
DTLB LOAD TRANSLATION ACCESS:   37225410  HIT:   34611762  MISS:    2613648  HIT %:    92.9789  MISS %:    7.02114   MPKI: 13.0682
DTLB PREFETCH  REQUESTED:          0  ISSUED:          0  USEFUL:          0  USELESS:          0
DTLB USEFUL LOAD PREFETCHES:          0 PREFETCH ISSUED TO LOWER LEVEL:          0  ACCURACY: -nan
DTLB TIMELY PREFETCHES:          0 LATE PREFETCHES: 0 DROPPED PREFETCHES: 0
DTLB PREFETCHES SAME FILL-ORIGIN LEVEL: 0 DIFFERENT FILL-ORIGIN LEVEL: 0
DTLB AVERAGE MISS LATENCY: 13.5892 cycles
DTLB RQ	ACCESS:   47603606	FORWARD:          0	MERGED:   10231114	TO_CACHE:   37372492

STLB TOTAL     ACCESS:    3421419  HIT:    3102164  MISS:     319255  HIT %:    90.6689  MISS %:    9.33107   MPKI: 1.59628
STLB LOAD TRANSLATION ACCESS:    3421419  HIT:    3102164  MISS:     319255  HIT %:    90.6689  MISS %:    9.33107   MPKI: 1.59628
STLB PREFETCH  REQUESTED:          0  ISSUED:          0  USEFUL:          0  USELESS:          0
STLB USEFUL LOAD PREFETCHES:          0 PREFETCH ISSUED TO LOWER LEVEL:          0  ACCURACY: -nan
STLB TIMELY PREFETCHES:          0 LATE PREFETCHES: 0 DROPPED PREFETCHES: 0
STLB PREFETCHES SAME FILL-ORIGIN LEVEL: 0 DIFFERENT FILL-ORIGIN LEVEL: 0
STLB AVERAGE MISS LATENCY: 48.6069 cycles
STLB RQ	ACCESS:    3421419	FORWARD:          0	MERGED:          0	TO_CACHE:    3421419

STLB Hit, L1D data hit: 0
STLB Hit, L2C data hit: 0
STLB Hit, LLC data hit: 0
STLB Hit, LLC data miss: 0
STLB STLB hints to L2: 0
L1D TOTAL     ACCESS:   47113442  HIT:   44655286  MISS:    2458156  HIT %:    94.7825  MISS %:    5.21753   MPKI: 12.2908
L1D LOAD      ACCESS:   27597776  HIT:   25472211  MISS:    2125565  HIT %:    92.2981  MISS %:    7.70194   MPKI: 10.6278
L1D RFO       ACCESS:   19515666  HIT:   19183075  MISS:     332591  HIT %:    98.2958  MISS %:    1.70423   MPKI: 1.66295
L1D PREFETCH  REQUESTED:          0  ISSUED:          0  USEFUL:          0  USELESS:          0
L1D USEFUL LOAD PREFETCHES:          0 PREFETCH ISSUED TO LOWER LEVEL:          0  ACCURACY: -nan
L1D TIMELY PREFETCHES:          0 LATE PREFETCHES: 0 DROPPED PREFETCHES: 0
L1D PREFETCHES SAME FILL-ORIGIN LEVEL: 0 DIFFERENT FILL-ORIGIN LEVEL: 0
L1D AVERAGE MISS LATENCY: 35.2365 cycles
L1D RQ	ACCESS:   42108424	FORWARD:          0	MERGED:   14188330	TO_CACHE:   27697130
L1D WQ	ACCESS:   20207881	FORWARD:     222964	MERGED:     301405	TO_CACHE:   19906476

L1D UNIQUE REGIONS ACCESSED: 0
L1D REGIONS CONFLICTS: 0
L1D Cross Page Prefetch Requests: 0
L1D Same Page Prefetch Requests: 0
L1D ROI Sum of L1D PQ occupancy: 0
L1D PREFETCHES PUSHED FROM L2C: 0
L1I TOTAL     ACCESS:   36283326  HIT:   31131870  MISS:    5151456  HIT %:    85.8021  MISS %:    14.1979   MPKI: 25.7573
L1I LOAD      ACCESS:   36283326  HIT:   31131870  MISS:    5151456  HIT %:    85.8021  MISS %:    14.1979   MPKI: 25.7573
L1I PREFETCH  REQUESTED:          0  ISSUED:          0  USEFUL:          0  USELESS:          0
L1I USEFUL LOAD PREFETCHES:          0 PREFETCH ISSUED TO LOWER LEVEL:          0  ACCURACY: -nan
L1I TIMELY PREFETCHES:          0 LATE PREFETCHES: 0 DROPPED PREFETCHES: 0
L1I PREFETCHES SAME FILL-ORIGIN LEVEL: 0 DIFFERENT FILL-ORIGIN LEVEL: 0
L1I AVERAGE MISS LATENCY: 24.8166 cycles
L1I RQ	ACCESS:   57136520	FORWARD:          0	MERGED:   19018615	TO_CACHE:   38117905

BTB TOTAL     ACCESS:   22212153  HIT:   17957529  MISS:    4254624  HIT %:    80.8455  MISS %:    19.1545   MPKI: 21.2731
BTB BRANCH_DIRECT_JUMP	ACCESS:    1780172  HIT:    1545024  MISS:     235148
BTB BRANCH_INDIRECT	ACCESS:    9535407  HIT:    7469894  MISS:    2065513
BTB BRANCH_CONDITIONAL	ACCESS:    4548641  HIT:    4163963  MISS:     384678
BTB BRANCH_DIRECT_CALL	ACCESS:    2494547  HIT:    2037677  MISS:     456870
BTB BRANCH_INDIRECT_CALL	ACCESS:     678804  HIT:     637539  MISS:      41265
BTB BRANCH_RETURN	ACCESS:    3174582  HIT:    2103432  MISS:    1071150
BTB BRANCH_OTHER ACCESS:          0  HIT:          0  MISS:          0

L2C TOTAL     ACCESS:    9592679  HIT:    6549054  MISS:    3043625  HIT %:    68.2714  MISS %:    31.7286   MPKI: 15.2181
L2C LOAD      ACCESS:    7276932  HIT:    4623896  MISS:    2653036  HIT %:    63.5418  MISS %:    36.4582   MPKI: 13.2652
L2C DATA LOAD MPKI: 4.39452
L2C INSTRUCTION LOAD MPKI: 8.87065
L2C RFO       ACCESS:     332585  HIT:     192663  MISS:     139922  HIT %:     57.929  MISS %:     42.071   MPKI: 0.69961
L2C PREFETCH  ACCESS:     546846  HIT:     514421  MISS:      32425  HIT %:    94.0705  MISS %:    5.92946   MPKI: 0.162125
AGUS PREFETCH L1 MISS: 0
L2C DATA PREFETCH MPKI: 0.162125
L2C INSTRUCTION PREFETCH MPKI: 0
L2C WRITEBACK ACCESS:    1014533  HIT:     965732  MISS:      48801  HIT %:    95.1898  MISS %:    4.81019   MPKI: 0.244005
L2C LOAD TRANSLATION ACCESS:     421783  HIT:     252342  MISS:     169441  HIT %:    59.8274  MISS %:    40.1726   MPKI: 0.847205
L2C PREFETCH  REQUESTED:    2073752  ISSUED:    2073752  USEFUL:      30142  USELESS:       2282
L2C USEFUL LOAD PREFETCHES:      30142 PREFETCH ISSUED TO LOWER LEVEL:    1511538  ACCURACY: 1.99413
L2C TIMELY PREFETCHES:      30142 LATE PREFETCHES: 1492 DROPPED PREFETCHES: 0
L2C PREFETCHES SAME FILL-ORIGIN LEVEL: 33917 DIFFERENT FILL-ORIGIN LEVEL: 1477621
L2C AVERAGE MISS LATENCY: 37.332 cycles
L2C RQ	ACCESS:    8031396	FORWARD:          0	MERGED:          0	TO_CACHE:    8031300
L2C WQ	ACCESS:    1014533	FORWARD:        120	MERGED:          0	TO_CACHE:    1014533
L2C PQ	ACCESS:    2073752	FORWARD:          0	MERGED:      22251	TO_CACHE:    2051477

L2C Instructions Evicting Data 630236
L2C Translations Evicting Data 65805
L2C Data Evicting Data 386298
L2C Instructions Evicting Instructions 1049655
L2C Translations Evicting Instructions 94231
L2C Data Evicting Instructions 601954
L2C Instructions Evicting Translations 94240
L2C Translations Evicting Translations 9405
L2C Data Evicting Translations 63000
L2C Dense regions hint from L2: 0
PSCL5 TOTAL     ACCESS:     319255  HIT:     319255  MISS:          0  HIT %:        100  MISS %:          0   MPKI: 0
PSCL5 LOAD TRANSLATION ACCESS:     319255  HIT:     319255  MISS:          0  HIT %:        100  MISS %:          0   MPKI: 0
PSCL5 PREFETCH  REQUESTED:          0  ISSUED:          0  USEFUL:          0  USELESS:          0
PSCL5 USEFUL LOAD PREFETCHES:          0 PREFETCH ISSUED TO LOWER LEVEL:          0  ACCURACY: -nan
PSCL5 TIMELY PREFETCHES:          0 LATE PREFETCHES: 0 DROPPED PREFETCHES: 0
PSCL5 PREFETCHES SAME FILL-ORIGIN LEVEL: 0 DIFFERENT FILL-ORIGIN LEVEL: 0

PSCL4 TOTAL     ACCESS:     284035  HIT:     283494  MISS:        541  HIT %:    99.8095  MISS %:   0.190469   MPKI: 0.002705
PSCL4 LOAD TRANSLATION ACCESS:     284035  HIT:     283494  MISS:        541  HIT %:    99.8095  MISS %:   0.190469   MPKI: 0.002705
PSCL4 PREFETCH  REQUESTED:          0  ISSUED:          0  USEFUL:          0  USELESS:          0
PSCL4 USEFUL LOAD PREFETCHES:          0 PREFETCH ISSUED TO LOWER LEVEL:          0  ACCURACY: -nan
PSCL4 TIMELY PREFETCHES:          0 LATE PREFETCHES: 0 DROPPED PREFETCHES: 0
PSCL4 PREFETCHES SAME FILL-ORIGIN LEVEL: 0 DIFFERENT FILL-ORIGIN LEVEL: 0

PSCL3 TOTAL     ACCESS:     316658  HIT:     315034  MISS:       1624  HIT %:    99.4871  MISS %:   0.512856   MPKI: 0.00812
PSCL3 LOAD TRANSLATION ACCESS:     316658  HIT:     315034  MISS:       1624  HIT %:    99.4871  MISS %:   0.512856   MPKI: 0.00812
PSCL3 PREFETCH  REQUESTED:          0  ISSUED:          0  USEFUL:          0  USELESS:          0
PSCL3 USEFUL LOAD PREFETCHES:          0 PREFETCH ISSUED TO LOWER LEVEL:          0  ACCURACY: -nan
PSCL3 TIMELY PREFETCHES:          0 LATE PREFETCHES: 0 DROPPED PREFETCHES: 0
PSCL3 PREFETCHES SAME FILL-ORIGIN LEVEL: 0 DIFFERENT FILL-ORIGIN LEVEL: 0

PSCL2 TOTAL     ACCESS:     319255  HIT:     218892  MISS:     100363  HIT %:    68.5634  MISS %:    31.4366   MPKI: 0.501815
PSCL2 LOAD TRANSLATION ACCESS:     319255  HIT:     218892  MISS:     100363  HIT %:    68.5634  MISS %:    31.4366   MPKI: 0.501815
PSCL2 PREFETCH  REQUESTED:          0  ISSUED:          0  USEFUL:          0  USELESS:          0
PSCL2 USEFUL LOAD PREFETCHES:          0 PREFETCH ISSUED TO LOWER LEVEL:          0  ACCURACY: -nan
PSCL2 TIMELY PREFETCHES:          0 LATE PREFETCHES: 0 DROPPED PREFETCHES: 0
PSCL2 PREFETCHES SAME FILL-ORIGIN LEVEL: 0 DIFFERENT FILL-ORIGIN LEVEL: 0

LLC TOTAL     ACCESS:    4872855  HIT:    4485615  MISS:     387240  HIT %:    92.0531  MISS %:    7.94688   MPKI: 1.9362
LLC LOAD      ACCESS:    2651544  HIT:    2546350  MISS:     105194  HIT %:    96.0327  MISS %:    3.96727   MPKI: 0.52597
LLC RFO       ACCESS:     139919  HIT:     100365  MISS:      39554  HIT %:    71.7308  MISS %:    28.2692   MPKI: 0.19777
LLC PREFETCH  ACCESS:    1490808  HIT:    1264224  MISS:     226584  HIT %:    84.8013  MISS %:    15.1987   MPKI: 1.13292
AGUS PREFETCH L1 MISS: 0
LLC WRITEBACK ACCESS:     421143  HIT:     419639  MISS:       1504  HIT %:    99.6429  MISS %:   0.357123   MPKI: 0.00752
LLC LOAD TRANSLATION ACCESS:     169441  HIT:     155037  MISS:      14404  HIT %:    91.4991  MISS %:    8.50089   MPKI: 0.07202
LLC PREFETCH  REQUESTED:          0  ISSUED:          0  USEFUL:     127163  USELESS:      99838
LLC USEFUL LOAD PREFETCHES:     127163 PREFETCH ISSUED TO LOWER LEVEL:     230617  ACCURACY: 55.1403
LLC TIMELY PREFETCHES:     127163 LATE PREFETCHES: 4033 DROPPED PREFETCHES: 0
LLC PREFETCHES SAME FILL-ORIGIN LEVEL: 229957 DIFFERENT FILL-ORIGIN LEVEL: 0
LLC AVERAGE MISS LATENCY: 147.44 cycles
LLC RQ	ACCESS:    2960907	FORWARD:          0	MERGED:          0	TO_CACHE:    2960904
LLC WQ	ACCESS:     421143	FORWARD:          3	MERGED:          0	TO_CACHE:     421143
LLC PQ	ACCESS:    1511538	FORWARD:          0	MERGED:       3731	TO_CACHE:    1507807

LLC Dense regions hint to LLC: 0

RAW hits: 2695504
Loads Generated: 44803929
Loads sent to L1D: 42108424
Stores Generated: 20207846
Stores sent to L1D: 20207881
Major fault: 0 Minor fault: 5869
Allocated PAGES: 5869
 All Calls: 2658223
 Critical Calls: 2658223
------------------
Depth Distribution
------------------
depth 0: 0
depth 1: 2158783
depth 2: 266764
depth 3: 133219
depth 4: 59490
depth 5: 2846
depth 6: 207
depth 7: 115
depth 8: 82
depth 9: 56
depth 10: 42
depth 11: 21
depth 12: 14
depth 13: 2
depth 14: 0
depth 15: 0
depth 16: 0
depth 17: 0
depth 18: 0
depth 19: 0
depth 20: 0
depth 21: 0
depth 22: 0
depth 23: 0
depth 24: 0
depth 25: 0
depth 26: 0
depth 27: 0
depth 28: 0
depth 29: 0
Total: 2621641
-----------------------------
-----------------------------
	Captured at Filter
-----------------------------
depth 0: 0
depth 1: 7181
depth 2: 1212
depth 3: 115
depth 4: 43
depth 5: 2
depth 6: 0
depth 7: 0
depth 8: 0
depth 9: 0
depth 10: 0
depth 11: 0
depth 12: 0
depth 13: 0
depth 14: 0
depth 15: 0
depth 16: 0
depth 17: 0
depth 18: 0
depth 19: 0
depth 20: 0
depth 21: 0
depth 22: 0
depth 23: 0
depth 24: 0
depth 25: 0
depth 26: 0
depth 27: 0
depth 28: 0
depth 29: 0
-----------------------------
-----------------------------
		Lost at Page
-----------------------------
depth 0: 0
depth 1: 133090
depth 2: 11023
depth 3: 5957
depth 4: 3787
depth 5: 239
depth 6: 20
depth 7: 11
depth 8: 9
depth 9: 8
depth 10: 7
depth 11: 4
depth 12: 3
depth 13: 0
depth 14: 0
depth 15: 0
depth 16: 0
depth 17: 0
depth 18: 0
depth 19: 0
depth 20: 0
depth 21: 0
depth 22: 0
depth 23: 0
depth 24: 0
depth 25: 0
depth 26: 0
depth 27: 0
depth 28: 0
depth 29: 0
-----------------------------
-----------------------------
	Lost due to PQ Size
-----------------------------
357
-----------------------------
ST read accesses: 1429197
ST write accesses: 696278
PT read accesses: 23293146
PT write accesses: 1661699
FILTER read accesses: 7249398
FILTER write accesses: 3142606
GHR read accesses: 6438061
GHR write accesses: 122708
GHR counter read accesses: 21098414
GHR counter write accesses: 2203387
ST tag read accesses: 1173637657
ST tag write accesses: 217062363

DRAM Statistics
 CHANNEL 0
 RQ ROW_BUFFER_HIT:      91424  ROW_BUFFER_MISS:     294312
 DBUS_CONGESTED:        249
 WQ ROW_BUFFER_HIT:      32515  ROW_BUFFER_MISS:     188284  FULL:          0

 AVG_CONGESTED_CYCLE: 4
 All warmup complete: 2
Channel 0 Bank busy for read cycles: 0
Channel 0 Bank busy for write cycles: 0
Channel 0
Rank 0
0banks busy for read cycles: 375464958
0banks busy for write cycles: 105492
1banks busy for read cycles: 22943769
1banks busy for write cycles: 13540076
2banks busy for read cycles: 7815353
2banks busy for write cycles: 4050241
3banks busy for read cycles: 1806605
3banks busy for write cycles: 1694834
4banks busy for read cycles: 641238
4banks busy for write cycles: 1068773
5banks busy for read cycles: 208362
5banks busy for write cycles: 779154
6banks busy for read cycles: 84528
6banks busy for write cycles: 564130
7banks busy for read cycles: 43748
7banks busy for write cycles: 418595
8banks busy for read cycles: 38109
8banks busy for write cycles: 274323

CPU 0 Branch Prediction Accuracy: 99.8674% MPKI: 0.23804 Average ROB Occupancy at Mispredict: 53.5547
Branch types
NOT_BRANCH: 164099013 82.0495%
BRANCH_DIRECT_JUMP: 1780172 0.890086%
BRANCH_INDIRECT: 9535407 4.7677%
BRANCH_CONDITIONAL: 18237136 9.11857%
BRANCH_DIRECT_CALL: 2494547 1.24727%
BRANCH_INDIRECT_CALL: 678804 0.339402%
BRANCH_RETURN: 3174582 1.58729%
BRANCH_OTHER: 0 0%

DRAM PAGES: 1048576
Allocated PAGES: 5869
