Initialize SIGNATURE TABLE
ST_SET: 1
ST_WAY: 256
ST_TAG_BIT: 16
ST_TAG_MASK: ffff

Initialize PATTERN TABLE
PT_SET: 512
PT_WAY: 4
SIG_DELTA_BIT: 7
C_SIG_BIT: 4
C_DELTA_BIT: 4

Initialize PREFETCH FILTER
FILTER_SET: 1024

*** ChampSim Multicore Out-of-Order Simulator ***

Warmup Instructions: 50000000
Simulation Instructions: 200000000
Number of CPUs: 1
LLC sets: 2048
LLC ways: 16
Off-chip DRAM Size: 4096 MB Channels: 1 Width: 64-bit Data Rate: 6400 MT/s
CPU 0 runs traces/spec2k17/srv_4.champsimtrace.xz
.xz
BTB has LRU replacement policy
ITLB has LRU replacement policy
DTLB has LRU replacement policy
STLB has LRU replacement policy
L1I has LRU replacement policy
L1D has LRU replacement policy
ST_WAYS: 256
PT_SETS: 512
Initialize SRRIP state for L2C
Initialize DRRIP state for LLC
Heartbeat CPU 0 instructions: 10000001 cycles: 2766840 heartbeat IPC: 3.61423 cumulative IPC: 3.61423 (Simulation time: 0 hr 0 min 33 sec) 
Heartbeat CPU 0 instructions: 20000002 cycles: 5523846 heartbeat IPC: 3.62712 cumulative IPC: 3.62067 (Simulation time: 0 hr 1 min 6 sec) 
Heartbeat CPU 0 instructions: 30000000 cycles: 8278693 heartbeat IPC: 3.62996 cumulative IPC: 3.62376 (Simulation time: 0 hr 1 min 38 sec) 
*** Reached end of trace for Core: 0 Repeating trace: traces/spec2k17/srv_4.champsimtrace.xz
Heartbeat CPU 0 instructions: 40000002 cycles: 11039594 heartbeat IPC: 3.62201 cumulative IPC: 3.62332 (Simulation time: 0 hr 2 min 11 sec) 
Heartbeat CPU 0 instructions: 50000002 cycles: 13797667 heartbeat IPC: 3.62572 cumulative IPC: 3.6238 (Simulation time: 0 hr 2 min 43 sec) 

Warmup complete CPU 0 instructions: 50000002 cycles: 13797667 (Simulation time: 0 hr 2 min 43 sec) 

Heartbeat CPU 0 instructions: 60000001 cycles: 34889772 heartbeat IPC: 0.474111 cumulative IPC: 0.474111 (Simulation time: 0 hr 3 min 37 sec) 
*** Reached end of trace for Core: 0 Repeating trace: traces/spec2k17/srv_4.champsimtrace.xz
Heartbeat CPU 0 instructions: 70000000 cycles: 56987132 heartbeat IPC: 0.452543 cumulative IPC: 0.463076 (Simulation time: 0 hr 4 min 30 sec) 
Heartbeat CPU 0 instructions: 80000001 cycles: 78221197 heartbeat IPC: 0.470941 cumulative IPC: 0.465668 (Simulation time: 0 hr 5 min 20 sec) 
Heartbeat CPU 0 instructions: 90000002 cycles: 99515163 heartbeat IPC: 0.469617 cumulative IPC: 0.466649 (Simulation time: 0 hr 6 min 10 sec) 
*** Reached end of trace for Core: 0 Repeating trace: traces/spec2k17/srv_4.champsimtrace.xz
Heartbeat CPU 0 instructions: 100000000 cycles: 121422774 heartbeat IPC: 0.456462 cumulative IPC: 0.464576 (Simulation time: 0 hr 6 min 59 sec) 
Heartbeat CPU 0 instructions: 110000000 cycles: 142937033 heartbeat IPC: 0.464808 cumulative IPC: 0.464614 (Simulation time: 0 hr 7 min 53 sec) 
Heartbeat CPU 0 instructions: 120000001 cycles: 164259608 heartbeat IPC: 0.468987 cumulative IPC: 0.465234 (Simulation time: 0 hr 8 min 42 sec) 
*** Reached end of trace for Core: 0 Repeating trace: traces/spec2k17/srv_4.champsimtrace.xz
Heartbeat CPU 0 instructions: 130000000 cycles: 185626190 heartbeat IPC: 0.468021 cumulative IPC: 0.46558 (Simulation time: 0 hr 9 min 32 sec) 
Heartbeat CPU 0 instructions: 140000002 cycles: 207318315 heartbeat IPC: 0.460997 cumulative IPC: 0.465067 (Simulation time: 0 hr 10 min 19 sec) 
Heartbeat CPU 0 instructions: 150000000 cycles: 228672510 heartbeat IPC: 0.468292 cumulative IPC: 0.465387 (Simulation time: 0 hr 11 min 9 sec) 
*** Reached end of trace for Core: 0 Repeating trace: traces/spec2k17/srv_4.champsimtrace.xz
Heartbeat CPU 0 instructions: 160000001 cycles: 250173846 heartbeat IPC: 0.465087 cumulative IPC: 0.46536 (Simulation time: 0 hr 12 min 1 sec) 
Heartbeat CPU 0 instructions: 170000000 cycles: 271762638 heartbeat IPC: 0.463203 cumulative IPC: 0.465179 (Simulation time: 0 hr 12 min 55 sec) 
Heartbeat CPU 0 instructions: 180000003 cycles: 293205699 heartbeat IPC: 0.466351 cumulative IPC: 0.465269 (Simulation time: 0 hr 13 min 47 sec) 
*** Reached end of trace for Core: 0 Repeating trace: traces/spec2k17/srv_4.champsimtrace.xz
Heartbeat CPU 0 instructions: 190000001 cycles: 314674618 heartbeat IPC: 0.46579 cumulative IPC: 0.465306 (Simulation time: 0 hr 14 min 41 sec) 
Heartbeat CPU 0 instructions: 200000000 cycles: 336295652 heartbeat IPC: 0.462513 cumulative IPC: 0.465119 (Simulation time: 0 hr 15 min 32 sec) 
Heartbeat CPU 0 instructions: 210000002 cycles: 357600510 heartbeat IPC: 0.469377 cumulative IPC: 0.465383 (Simulation time: 0 hr 16 min 26 sec) 
*** Reached end of trace for Core: 0 Repeating trace: traces/spec2k17/srv_4.champsimtrace.xz
Heartbeat CPU 0 instructions: 220000000 cycles: 379114645 heartbeat IPC: 0.464811 cumulative IPC: 0.465349 (Simulation time: 0 hr 17 min 19 sec) 
Heartbeat CPU 0 instructions: 230000000 cycles: 400808556 heartbeat IPC: 0.460959 cumulative IPC: 0.465103 (Simulation time: 0 hr 18 min 13 sec) 
Heartbeat CPU 0 instructions: 240000002 cycles: 422027904 heartbeat IPC: 0.471268 cumulative IPC: 0.465424 (Simulation time: 0 hr 19 min 6 sec) 
*** Reached end of trace for Core: 0 Repeating trace: traces/spec2k17/srv_4.champsimtrace.xz
Heartbeat CPU 0 instructions: 250000002 cycles: 443406614 heartbeat IPC: 0.467755 cumulative IPC: 0.46554 (Simulation time: 0 hr 19 min 59 sec) 
Finished CPU 0 instructions: 200000000 cycles: 429608947 cumulative IPC: 0.46554 (Simulation time: 0 hr 19 min 59 sec) 

ChampSim completed all CPUs

Region of Interest Statistics

CPU 0 cumulative IPC: 0.46554 instructions: 200000000 cycles: 429608947
ITLB TOTAL     ACCESS:   31166062  HIT:   30370787  MISS:     795275  HIT %:    97.4483  MISS %:    2.55173   MPKI: 3.97637
ITLB LOAD TRANSLATION ACCESS:   31166062  HIT:   30370787  MISS:     795275  HIT %:    97.4483  MISS %:    2.55173   MPKI: 3.97637
ITLB PREFETCH  REQUESTED:          0  ISSUED:          0  USEFUL:          0  USELESS:          0
ITLB USEFUL LOAD PREFETCHES:          0 PREFETCH ISSUED TO LOWER LEVEL:          0  ACCURACY: -nan
ITLB TIMELY PREFETCHES:          0 LATE PREFETCHES: 0 DROPPED PREFETCHES: 0
ITLB PREFETCHES SAME FILL-ORIGIN LEVEL: 0 DIFFERENT FILL-ORIGIN LEVEL: 0
ITLB AVERAGE MISS LATENCY: 13.4465 cycles
ITLB RQ	ACCESS:   38105388	FORWARD:          0	MERGED:    6738145	TO_CACHE:   31367243

DTLB TOTAL     ACCESS:   37225138  HIT:   34635568  MISS:    2589570  HIT %:    93.0435  MISS %:    6.95651   MPKI: 12.9479
DTLB LOAD TRANSLATION ACCESS:   37225138  HIT:   34635568  MISS:    2589570  HIT %:    93.0435  MISS %:    6.95651   MPKI: 12.9479
DTLB PREFETCH  REQUESTED:          0  ISSUED:          0  USEFUL:          0  USELESS:          0
DTLB USEFUL LOAD PREFETCHES:          0 PREFETCH ISSUED TO LOWER LEVEL:          0  ACCURACY: -nan
DTLB TIMELY PREFETCHES:          0 LATE PREFETCHES: 0 DROPPED PREFETCHES: 0
DTLB PREFETCHES SAME FILL-ORIGIN LEVEL: 0 DIFFERENT FILL-ORIGIN LEVEL: 0
DTLB AVERAGE MISS LATENCY: 13.8213 cycles
DTLB RQ	ACCESS:   47555053	FORWARD:          0	MERGED:   10183893	TO_CACHE:   37371160

STLB TOTAL     ACCESS:    3384845  HIT:    3067264  MISS:     317581  HIT %:    90.6176  MISS %:    9.38244   MPKI: 1.5879
STLB LOAD TRANSLATION ACCESS:    3384845  HIT:    3067264  MISS:     317581  HIT %:    90.6176  MISS %:    9.38244   MPKI: 1.5879
STLB PREFETCH  REQUESTED:          0  ISSUED:          0  USEFUL:          0  USELESS:          0
STLB USEFUL LOAD PREFETCHES:          0 PREFETCH ISSUED TO LOWER LEVEL:          0  ACCURACY: -nan
STLB TIMELY PREFETCHES:          0 LATE PREFETCHES: 0 DROPPED PREFETCHES: 0
STLB PREFETCHES SAME FILL-ORIGIN LEVEL: 0 DIFFERENT FILL-ORIGIN LEVEL: 0
STLB AVERAGE MISS LATENCY: 50.1578 cycles
STLB RQ	ACCESS:    3384845	FORWARD:          0	MERGED:          0	TO_CACHE:    3384845

STLB Hit, L1D data hit: 0
STLB Hit, L2C data hit: 0
STLB Hit, LLC data hit: 0
STLB Hit, LLC data miss: 0
STLB STLB hints to L2: 0
L1D TOTAL     ACCESS:   47058607  HIT:   44593109  MISS:    2465498  HIT %:    94.7608  MISS %:    5.23921   MPKI: 12.3275
L1D LOAD      ACCESS:   27619332  HIT:   25486388  MISS:    2132944  HIT %:    92.2774  MISS %:    7.72265   MPKI: 10.6647
L1D RFO       ACCESS:   19439275  HIT:   19106721  MISS:     332554  HIT %:    98.2893  MISS %:    1.71073   MPKI: 1.66277
L1D PREFETCH  REQUESTED:          0  ISSUED:          0  USEFUL:          0  USELESS:          0
L1D USEFUL LOAD PREFETCHES:          0 PREFETCH ISSUED TO LOWER LEVEL:          0  ACCURACY: -nan
L1D TIMELY PREFETCHES:          0 LATE PREFETCHES: 0 DROPPED PREFETCHES: 0
L1D PREFETCHES SAME FILL-ORIGIN LEVEL: 0 DIFFERENT FILL-ORIGIN LEVEL: 0
L1D AVERAGE MISS LATENCY: 35.8515 cycles
L1D RQ	ACCESS:   42228466	FORWARD:          0	MERGED:   14284484	TO_CACHE:   27722047
L1D WQ	ACCESS:   20103875	FORWARD:     221935	MERGED:     270869	TO_CACHE:   19833006

L1D UNIQUE REGIONS ACCESSED: 0
L1D REGIONS CONFLICTS: 0
L1D Cross Page Prefetch Requests: 0
L1D Same Page Prefetch Requests: 0
L1D ROI Sum of L1D PQ occupancy: 0
L1D PREFETCHES PUSHED FROM L2C: 0
L1I TOTAL     ACCESS:   36271266  HIT:   31173971  MISS:    5097295  HIT %:    85.9467  MISS %:    14.0533   MPKI: 25.4865
L1I LOAD      ACCESS:   36271266  HIT:   31173971  MISS:    5097295  HIT %:    85.9467  MISS %:    14.0533   MPKI: 25.4865
L1I PREFETCH  REQUESTED:          0  ISSUED:          0  USEFUL:          0  USELESS:          0
L1I USEFUL LOAD PREFETCHES:          0 PREFETCH ISSUED TO LOWER LEVEL:          0  ACCURACY: -nan
L1I TIMELY PREFETCHES:          0 LATE PREFETCHES: 0 DROPPED PREFETCHES: 0
L1I PREFETCHES SAME FILL-ORIGIN LEVEL: 0 DIFFERENT FILL-ORIGIN LEVEL: 0
L1I AVERAGE MISS LATENCY: 24.9531 cycles
L1I RQ	ACCESS:   57082933	FORWARD:          0	MERGED:   18977545	TO_CACHE:   38105388

BTB TOTAL     ACCESS:   22109487  HIT:   17938627  MISS:    4170860  HIT %:    81.1354  MISS %:    18.8646   MPKI: 20.8543
BTB BRANCH_DIRECT_JUMP	ACCESS:    1732441  HIT:    1504285  MISS:     228156
BTB BRANCH_INDIRECT	ACCESS:    9572697  HIT:    7533263  MISS:    2039434
BTB BRANCH_CONDITIONAL	ACCESS:    4510201  HIT:    4135936  MISS:     374265
BTB BRANCH_DIRECT_CALL	ACCESS:    2461390  HIT:    2014294  MISS:     447096
BTB BRANCH_INDIRECT_CALL	ACCESS:     683684  HIT:     645488  MISS:      38196
BTB BRANCH_RETURN	ACCESS:    3149074  HIT:    2105361  MISS:    1043713
BTB BRANCH_OTHER ACCESS:          0  HIT:          0  MISS:          0

L2C TOTAL     ACCESS:    9555335  HIT:    6526675  MISS:    3028660  HIT %:     68.304  MISS %:     31.696   MPKI: 15.1433
L2C LOAD      ACCESS:    7230148  HIT:    4598576  MISS:    2631572  HIT %:    63.6028  MISS %:    36.3972   MPKI: 13.1579
L2C DATA LOAD MPKI: 4.3338
L2C INSTRUCTION LOAD MPKI: 8.82405
L2C RFO       ACCESS:     332548  HIT:     185957  MISS:     146591  HIT %:    55.9188  MISS %:    44.0812   MPKI: 0.732955
L2C PREFETCH  ACCESS:     555300  HIT:     520908  MISS:      34392  HIT %:    93.8066  MISS %:    6.19341   MPKI: 0.17196
AGUS PREFETCH L1 MISS: 0
L2C DATA PREFETCH MPKI: 0.17196
L2C INSTRUCTION PREFETCH MPKI: 0
L2C WRITEBACK ACCESS:    1016709  HIT:     969682  MISS:      47027  HIT %:    95.3746  MISS %:    4.62541   MPKI: 0.235135
L2C LOAD TRANSLATION ACCESS:     420630  HIT:     251552  MISS:     169078  HIT %:    59.8036  MISS %:    40.1964   MPKI: 0.84539
L2C PREFETCH  REQUESTED:    2100728  ISSUED:    2100728  USEFUL:      31960  USELESS:       2422
L2C USEFUL LOAD PREFETCHES:      31960 PREFETCH ISSUED TO LOWER LEVEL:    1531963  ACCURACY: 2.08621
L2C TIMELY PREFETCHES:      31960 LATE PREFETCHES: 1455 DROPPED PREFETCHES: 0
L2C PREFETCHES SAME FILL-ORIGIN LEVEL: 35847 DIFFERENT FILL-ORIGIN LEVEL: 1496116
L2C AVERAGE MISS LATENCY: 38.2373 cycles
L2C RQ	ACCESS:    7983423	FORWARD:          0	MERGED:          0	TO_CACHE:    7983327
L2C WQ	ACCESS:    1016709	FORWARD:         97	MERGED:          0	TO_CACHE:    1016709
L2C PQ	ACCESS:    2100728	FORWARD:          0	MERGED:      22619	TO_CACHE:    2078108

L2C Instructions Evicting Data 621005
L2C Translations Evicting Data 64053
L2C Data Evicting Data 392769
L2C Instructions Evicting Instructions 1048324
L2C Translations Evicting Instructions 96595
L2C Data Evicting Instructions 591946
L2C Instructions Evicting Translations 95482
L2C Translations Evicting Translations 8430
L2C Data Evicting Translations 63029
L2C Dense regions hint from L2: 0
PSCL5 TOTAL     ACCESS:     317581  HIT:     317581  MISS:          0  HIT %:        100  MISS %:          0   MPKI: 0
PSCL5 LOAD TRANSLATION ACCESS:     317581  HIT:     317581  MISS:          0  HIT %:        100  MISS %:          0   MPKI: 0
PSCL5 PREFETCH  REQUESTED:          0  ISSUED:          0  USEFUL:          0  USELESS:          0
PSCL5 USEFUL LOAD PREFETCHES:          0 PREFETCH ISSUED TO LOWER LEVEL:          0  ACCURACY: -nan
PSCL5 TIMELY PREFETCHES:          0 LATE PREFETCHES: 0 DROPPED PREFETCHES: 0
PSCL5 PREFETCHES SAME FILL-ORIGIN LEVEL: 0 DIFFERENT FILL-ORIGIN LEVEL: 0

PSCL4 TOTAL     ACCESS:     297208  HIT:     296447  MISS:        761  HIT %:     99.744  MISS %:    0.25605   MPKI: 0.003805
PSCL4 LOAD TRANSLATION ACCESS:     297208  HIT:     296447  MISS:        761  HIT %:     99.744  MISS %:    0.25605   MPKI: 0.003805
PSCL4 PREFETCH  REQUESTED:          0  ISSUED:          0  USEFUL:          0  USELESS:          0
PSCL4 USEFUL LOAD PREFETCHES:          0 PREFETCH ISSUED TO LOWER LEVEL:          0  ACCURACY: -nan
PSCL4 TIMELY PREFETCHES:          0 LATE PREFETCHES: 0 DROPPED PREFETCHES: 0
PSCL4 PREFETCHES SAME FILL-ORIGIN LEVEL: 0 DIFFERENT FILL-ORIGIN LEVEL: 0

PSCL3 TOTAL     ACCESS:     316593  HIT:     315070  MISS:       1523  HIT %:    99.5189  MISS %:   0.481059   MPKI: 0.007615
PSCL3 LOAD TRANSLATION ACCESS:     316593  HIT:     315070  MISS:       1523  HIT %:    99.5189  MISS %:   0.481059   MPKI: 0.007615
PSCL3 PREFETCH  REQUESTED:          0  ISSUED:          0  USEFUL:          0  USELESS:          0
PSCL3 USEFUL LOAD PREFETCHES:          0 PREFETCH ISSUED TO LOWER LEVEL:          0  ACCURACY: -nan
PSCL3 TIMELY PREFETCHES:          0 LATE PREFETCHES: 0 DROPPED PREFETCHES: 0
PSCL3 PREFETCHES SAME FILL-ORIGIN LEVEL: 0 DIFFERENT FILL-ORIGIN LEVEL: 0

PSCL2 TOTAL     ACCESS:     317581  HIT:     216816  MISS:     100765  HIT %:    68.2711  MISS %:    31.7289   MPKI: 0.503825
PSCL2 LOAD TRANSLATION ACCESS:     317581  HIT:     216816  MISS:     100765  HIT %:    68.2711  MISS %:    31.7289   MPKI: 0.503825
PSCL2 PREFETCH  REQUESTED:          0  ISSUED:          0  USEFUL:          0  USELESS:          0
PSCL2 USEFUL LOAD PREFETCHES:          0 PREFETCH ISSUED TO LOWER LEVEL:          0  ACCURACY: -nan
PSCL2 TIMELY PREFETCHES:          0 LATE PREFETCHES: 0 DROPPED PREFETCHES: 0
PSCL2 PREFETCHES SAME FILL-ORIGIN LEVEL: 0 DIFFERENT FILL-ORIGIN LEVEL: 0

LLC TOTAL     ACCESS:    4886895  HIT:    4478265  MISS:     408630  HIT %:    91.6382  MISS %:    8.36175   MPKI: 2.04315
LLC LOAD      ACCESS:    2630117  HIT:    2515533  MISS:     114584  HIT %:    95.6434  MISS %:    4.35661   MPKI: 0.57292
LLC RFO       ACCESS:     146591  HIT:     104537  MISS:      42054  HIT %:     71.312  MISS %:     28.688   MPKI: 0.21027
LLC PREFETCH  ACCESS:    1511363  HIT:    1277687  MISS:     233676  HIT %:    84.5387  MISS %:    15.4613   MPKI: 1.16838
AGUS PREFETCH L1 MISS: 0
LLC WRITEBACK ACCESS:     429746  HIT:     427878  MISS:       1868  HIT %:    99.5653  MISS %:   0.434675   MPKI: 0.00934
LLC LOAD TRANSLATION ACCESS:     169078  HIT:     152630  MISS:      16448  HIT %:    90.2719  MISS %:    9.72805   MPKI: 0.08224
LLC PREFETCH  REQUESTED:          0  ISSUED:          0  USEFUL:     126524  USELESS:     107126
LLC USEFUL LOAD PREFETCHES:     126524 PREFETCH ISSUED TO LOWER LEVEL:     238147  ACCURACY: 53.1285
LLC TIMELY PREFETCHES:     126524 LATE PREFETCHES: 4471 DROPPED PREFETCHES: 0
LLC PREFETCHES SAME FILL-ORIGIN LEVEL: 237429 DIFFERENT FILL-ORIGIN LEVEL: 0
LLC AVERAGE MISS LATENCY: 149.174 cycles
LLC RQ	ACCESS:    2945786	FORWARD:          0	MERGED:          0	TO_CACHE:    2945786
LLC WQ	ACCESS:     429746	FORWARD:          0	MERGED:          0	TO_CACHE:     429746
LLC PQ	ACCESS:    1531963	FORWARD:          0	MERGED:       3523	TO_CACHE:    1528440

LLC Dense regions hint to LLC: 0

RAW hits: 2684422
Loads Generated: 44912888
Loads sent to L1D: 42228466
Stores Generated: 20103854
Stores sent to L1D: 20103875
Major fault: 0 Minor fault: 6257
Allocated PAGES: 6257
 All Calls: 2670522
 Critical Calls: 2670522
------------------
Depth Distribution
------------------
depth 0: 0
depth 1: 2175742
depth 2: 271770
depth 3: 137277
depth 4: 66712
depth 5: 4168
depth 6: 64
depth 7: 29
depth 8: 17
depth 9: 5
depth 10: 2
depth 11: 1
depth 12: 1
depth 13: 0
depth 14: 0
depth 15: 0
depth 16: 0
depth 17: 0
depth 18: 0
depth 19: 0
depth 20: 0
depth 21: 0
depth 22: 0
depth 23: 0
depth 24: 0
depth 25: 0
depth 26: 0
depth 27: 0
depth 28: 0
depth 29: 0
Total: 2655788
-----------------------------
-----------------------------
	Captured at Filter
-----------------------------
depth 0: 0
depth 1: 6464
depth 2: 1049
depth 3: 85
depth 4: 24
depth 5: 4
depth 6: 1
depth 7: 0
depth 8: 0
depth 9: 0
depth 10: 0
depth 11: 0
depth 12: 0
depth 13: 0
depth 14: 0
depth 15: 0
depth 16: 0
depth 17: 0
depth 18: 0
depth 19: 0
depth 20: 0
depth 21: 0
depth 22: 0
depth 23: 0
depth 24: 0
depth 25: 0
depth 26: 0
depth 27: 0
depth 28: 0
depth 29: 0
-----------------------------
-----------------------------
		Lost at Page
-----------------------------
depth 0: 0
depth 1: 135971
depth 2: 10509
depth 3: 5902
depth 4: 4018
depth 5: 349
depth 6: 6
depth 7: 7
depth 8: 5
depth 9: 3
depth 10: 0
depth 11: 0
depth 12: 0
depth 13: 0
depth 14: 0
depth 15: 0
depth 16: 0
depth 17: 0
depth 18: 0
depth 19: 0
depth 20: 0
depth 21: 0
depth 22: 0
depth 23: 0
depth 24: 0
depth 25: 0
depth 26: 0
depth 27: 0
depth 28: 0
depth 29: 0
-----------------------------
-----------------------------
	Lost due to PQ Size
-----------------------------
504
-----------------------------
ST read accesses: 1435650
ST write accesses: 697203
PT read accesses: 23480924
PT write accesses: 1666140
FILTER read accesses: 7268239
FILTER write accesses: 3142028
GHR read accesses: 6451879
GHR write accesses: 124756
GHR counter read accesses: 21249998
GHR counter write accesses: 2214526
ST tag read accesses: 1176639299
ST tag write accesses: 217861898

DRAM Statistics
 CHANNEL 0
 RQ ROW_BUFFER_HIT:      96804  ROW_BUFFER_MISS:     309957
 DBUS_CONGESTED:        243
 WQ ROW_BUFFER_HIT:      37018  ROW_BUFFER_MISS:     187272  FULL:          0

 AVG_CONGESTED_CYCLE: 4
 All warmup complete: 2
Channel 0 Bank busy for read cycles: 0
Channel 0 Bank busy for write cycles: 0
Channel 0
Rank 0
0banks busy for read cycles: 371469141
0banks busy for write cycles: 105462
1banks busy for read cycles: 23973371
1banks busy for write cycles: 13759088
2banks busy for read cycles: 8094564
2banks busy for write cycles: 4053078
3banks busy for read cycles: 1973186
3banks busy for write cycles: 1740797
4banks busy for read cycles: 675195
4banks busy for write cycles: 1094709
5banks busy for read cycles: 227529
5banks busy for write cycles: 809796
6banks busy for read cycles: 96757
6banks busy for write cycles: 599698
7banks busy for read cycles: 55245
7banks busy for write cycles: 443807
8banks busy for read cycles: 57238
8banks busy for write cycles: 380287

CPU 0 Branch Prediction Accuracy: 99.8614% MPKI: 0.24815 Average ROB Occupancy at Mispredict: 50.4612
Branch types
NOT_BRANCH: 164179750 82.0899%
BRANCH_DIRECT_JUMP: 1732441 0.86622%
BRANCH_INDIRECT: 9572697 4.78635%
BRANCH_CONDITIONAL: 18220803 9.1104%
BRANCH_DIRECT_CALL: 2461390 1.2307%
BRANCH_INDIRECT_CALL: 683684 0.341842%
BRANCH_RETURN: 3149074 1.57454%
BRANCH_OTHER: 0 0%

DRAM PAGES: 1048576
Allocated PAGES: 6257
