Initialize SIGNATURE TABLE
ST_SET: 1
ST_WAY: 256
ST_TAG_BIT: 16
ST_TAG_MASK: ffff

Initialize PATTERN TABLE
PT_SET: 512
PT_WAY: 4
SIG_DELTA_BIT: 7
C_SIG_BIT: 4
C_DELTA_BIT: 4

Initialize PREFETCH FILTER
FILTER_SET: 1024

*** ChampSim Multicore Out-of-Order Simulator ***

Warmup Instructions: 50000000
Simulation Instructions: 200000000
Number of CPUs: 1
LLC sets: 2048
LLC ways: 16
Off-chip DRAM Size: 4096 MB Channels: 1 Width: 64-bit Data Rate: 6400 MT/s
CPU 0 runs traces/spec2k17/srv_14.champsimtrace.xz
.xz
BTB has LRU replacement policy
ITLB has LRU replacement policy
DTLB has LRU replacement policy
STLB has LRU replacement policy
L1I has LRU replacement policy
L1D has LRU replacement policy
ST_WAYS: 256
PT_SETS: 512
Initialize SRRIP state for L2C
Initialize DRRIP state for LLC
Heartbeat CPU 0 instructions: 10000003 cycles: 2845949 heartbeat IPC: 3.51377 cumulative IPC: 3.51377 (Simulation time: 0 hr 0 min 30 sec) 
Heartbeat CPU 0 instructions: 20000002 cycles: 5685381 heartbeat IPC: 3.52183 cumulative IPC: 3.51779 (Simulation time: 0 hr 1 min 2 sec) 
Heartbeat CPU 0 instructions: 30000001 cycles: 8523269 heartbeat IPC: 3.52375 cumulative IPC: 3.51978 (Simulation time: 0 hr 1 min 35 sec) 
*** Reached end of trace for Core: 0 Repeating trace: traces/spec2k17/srv_14.champsimtrace.xz
Heartbeat CPU 0 instructions: 40000000 cycles: 11362004 heartbeat IPC: 3.5227 cumulative IPC: 3.52051 (Simulation time: 0 hr 2 min 9 sec) 
Heartbeat CPU 0 instructions: 50000001 cycles: 14200884 heartbeat IPC: 3.52252 cumulative IPC: 3.52091 (Simulation time: 0 hr 2 min 39 sec) 

Warmup complete CPU 0 instructions: 50000001 cycles: 14200884 (Simulation time: 0 hr 2 min 39 sec) 

Heartbeat CPU 0 instructions: 60000001 cycles: 46832466 heartbeat IPC: 0.306452 cumulative IPC: 0.306452 (Simulation time: 0 hr 3 min 37 sec) 
*** Reached end of trace for Core: 0 Repeating trace: traces/spec2k17/srv_14.champsimtrace.xz
Heartbeat CPU 0 instructions: 70000003 cycles: 79408638 heartbeat IPC: 0.306973 cumulative IPC: 0.306712 (Simulation time: 0 hr 4 min 32 sec) 
Heartbeat CPU 0 instructions: 80000002 cycles: 111934434 heartbeat IPC: 0.307448 cumulative IPC: 0.306957 (Simulation time: 0 hr 5 min 28 sec) 
Heartbeat CPU 0 instructions: 90000002 cycles: 144451691 heartbeat IPC: 0.307529 cumulative IPC: 0.3071 (Simulation time: 0 hr 6 min 22 sec) 
*** Reached end of trace for Core: 0 Repeating trace: traces/spec2k17/srv_14.champsimtrace.xz
Heartbeat CPU 0 instructions: 100000003 cycles: 176993862 heartbeat IPC: 0.307294 cumulative IPC: 0.307139 (Simulation time: 0 hr 7 min 19 sec) 
Heartbeat CPU 0 instructions: 110000000 cycles: 209474002 heartbeat IPC: 0.30788 cumulative IPC: 0.307262 (Simulation time: 0 hr 8 min 18 sec) 
Heartbeat CPU 0 instructions: 120000000 cycles: 242044760 heartbeat IPC: 0.307024 cumulative IPC: 0.307228 (Simulation time: 0 hr 9 min 15 sec) 
*** Reached end of trace for Core: 0 Repeating trace: traces/spec2k17/srv_14.champsimtrace.xz
Heartbeat CPU 0 instructions: 130000000 cycles: 274510572 heartbeat IPC: 0.308016 cumulative IPC: 0.307326 (Simulation time: 0 hr 10 min 13 sec) 
Heartbeat CPU 0 instructions: 140000001 cycles: 307088691 heartbeat IPC: 0.306955 cumulative IPC: 0.307285 (Simulation time: 0 hr 11 min 10 sec) 
Heartbeat CPU 0 instructions: 150000002 cycles: 339543876 heartbeat IPC: 0.308117 cumulative IPC: 0.307368 (Simulation time: 0 hr 12 min 8 sec) 
*** Reached end of trace for Core: 0 Repeating trace: traces/spec2k17/srv_14.champsimtrace.xz
Heartbeat CPU 0 instructions: 160000000 cycles: 372045791 heartbeat IPC: 0.307674 cumulative IPC: 0.307396 (Simulation time: 0 hr 13 min 4 sec) 
Heartbeat CPU 0 instructions: 170000001 cycles: 404541128 heartbeat IPC: 0.307736 cumulative IPC: 0.307424 (Simulation time: 0 hr 14 min 3 sec) 
Heartbeat CPU 0 instructions: 180000001 cycles: 437016376 heartbeat IPC: 0.307927 cumulative IPC: 0.307463 (Simulation time: 0 hr 15 min 1 sec) 
*** Reached end of trace for Core: 0 Repeating trace: traces/spec2k17/srv_14.champsimtrace.xz
Heartbeat CPU 0 instructions: 190000000 cycles: 469496052 heartbeat IPC: 0.307885 cumulative IPC: 0.307493 (Simulation time: 0 hr 15 min 59 sec) 
Heartbeat CPU 0 instructions: 200000000 cycles: 502045260 heartbeat IPC: 0.307227 cumulative IPC: 0.307475 (Simulation time: 0 hr 16 min 57 sec) 
Heartbeat CPU 0 instructions: 210000003 cycles: 534515551 heartbeat IPC: 0.307974 cumulative IPC: 0.307506 (Simulation time: 0 hr 17 min 54 sec) 
*** Reached end of trace for Core: 0 Repeating trace: traces/spec2k17/srv_14.champsimtrace.xz
Heartbeat CPU 0 instructions: 220000000 cycles: 566992758 heartbeat IPC: 0.307908 cumulative IPC: 0.30753 (Simulation time: 0 hr 18 min 53 sec) 
Heartbeat CPU 0 instructions: 230000000 cycles: 599523909 heartbeat IPC: 0.307398 cumulative IPC: 0.307523 (Simulation time: 0 hr 19 min 48 sec) 
Heartbeat CPU 0 instructions: 240000001 cycles: 631988523 heartbeat IPC: 0.308028 cumulative IPC: 0.307549 (Simulation time: 0 hr 20 min 44 sec) 
Heartbeat CPU 0 instructions: 250000001 cycles: 664432029 heartbeat IPC: 0.308228 cumulative IPC: 0.307583 (Simulation time: 0 hr 21 min 43 sec) 
Finished CPU 0 instructions: 200000000 cycles: 650231145 cumulative IPC: 0.307583 (Simulation time: 0 hr 21 min 43 sec) 

ChampSim completed all CPUs

Region of Interest Statistics

CPU 0 cumulative IPC: 0.307583 instructions: 200000000 cycles: 650231145
ITLB TOTAL     ACCESS:   35622071  HIT:   33398629  MISS:    2223442  HIT %:    93.7582  MISS %:    6.24175   MPKI: 11.1172
ITLB LOAD TRANSLATION ACCESS:   35622071  HIT:   33398629  MISS:    2223442  HIT %:    93.7582  MISS %:    6.24175   MPKI: 11.1172
ITLB PREFETCH  REQUESTED:          0  ISSUED:          0  USEFUL:          0  USELESS:          0
ITLB USEFUL LOAD PREFETCHES:          0 PREFETCH ISSUED TO LOWER LEVEL:          0  ACCURACY: -nan
ITLB TIMELY PREFETCHES:          0 LATE PREFETCHES: 0 DROPPED PREFETCHES: 0
ITLB PREFETCHES SAME FILL-ORIGIN LEVEL: 0 DIFFERENT FILL-ORIGIN LEVEL: 0
ITLB AVERAGE MISS LATENCY: 9.17165 cycles
ITLB RQ	ACCESS:   41872142	FORWARD:          0	MERGED:    5725930	TO_CACHE:   36146212

DTLB TOTAL     ACCESS:   45812051  HIT:   43808726  MISS:    2003325  HIT %:    95.6271  MISS %:    4.37292   MPKI: 10.0166
DTLB LOAD TRANSLATION ACCESS:   45812051  HIT:   43808726  MISS:    2003325  HIT %:    95.6271  MISS %:    4.37292   MPKI: 10.0166
DTLB PREFETCH  REQUESTED:          0  ISSUED:          0  USEFUL:          0  USELESS:          0
DTLB USEFUL LOAD PREFETCHES:          0 PREFETCH ISSUED TO LOWER LEVEL:          0  ACCURACY: -nan
DTLB TIMELY PREFETCHES:          0 LATE PREFETCHES: 0 DROPPED PREFETCHES: 0
DTLB PREFETCHES SAME FILL-ORIGIN LEVEL: 0 DIFFERENT FILL-ORIGIN LEVEL: 0
DTLB AVERAGE MISS LATENCY: 9.23398 cycles
DTLB RQ	ACCESS:   60543585	FORWARD:          0	MERGED:   14673483	TO_CACHE:   45870102

STLB TOTAL     ACCESS:    4226767  HIT:    4199333  MISS:      27434  HIT %:    99.3509  MISS %:   0.649054   MPKI: 0.13717
STLB LOAD TRANSLATION ACCESS:    4226767  HIT:    4199333  MISS:      27434  HIT %:    99.3509  MISS %:   0.649054   MPKI: 0.13717
STLB PREFETCH  REQUESTED:          0  ISSUED:          0  USEFUL:          0  USELESS:          0
STLB USEFUL LOAD PREFETCHES:          0 PREFETCH ISSUED TO LOWER LEVEL:          0  ACCURACY: -nan
STLB TIMELY PREFETCHES:          0 LATE PREFETCHES: 0 DROPPED PREFETCHES: 0
STLB PREFETCHES SAME FILL-ORIGIN LEVEL: 0 DIFFERENT FILL-ORIGIN LEVEL: 0
STLB AVERAGE MISS LATENCY: 30.0828 cycles
STLB RQ	ACCESS:    4226767	FORWARD:          0	MERGED:          0	TO_CACHE:    4226767

STLB Hit, L1D data hit: 0
STLB Hit, L2C data hit: 0
STLB Hit, LLC data hit: 0
STLB Hit, LLC data miss: 0
STLB STLB hints to L2: 0
L1D TOTAL     ACCESS:   58604748  HIT:   53177567  MISS:    5427181  HIT %:    90.7393  MISS %:    9.26065   MPKI: 27.1359
L1D LOAD      ACCESS:   33969393  HIT:   29737570  MISS:    4231823  HIT %:    87.5422  MISS %:    12.4578   MPKI: 21.1591
L1D RFO       ACCESS:   24635355  HIT:   23439997  MISS:    1195358  HIT %:    95.1478  MISS %:    4.85221   MPKI: 5.97679
L1D PREFETCH  REQUESTED:          0  ISSUED:          0  USEFUL:          0  USELESS:          0
L1D USEFUL LOAD PREFETCHES:          0 PREFETCH ISSUED TO LOWER LEVEL:          0  ACCURACY: -nan
L1D TIMELY PREFETCHES:          0 LATE PREFETCHES: 0 DROPPED PREFETCHES: 0
L1D PREFETCHES SAME FILL-ORIGIN LEVEL: 0 DIFFERENT FILL-ORIGIN LEVEL: 0
L1D AVERAGE MISS LATENCY: 17.4715 cycles
L1D RQ	ACCESS:   46497887	FORWARD:          0	MERGED:   12060373	TO_CACHE:   34119957
L1D WQ	ACCESS:   26571628	FORWARD:     317557	MERGED:     148000	TO_CACHE:   26423628

L1D UNIQUE REGIONS ACCESSED: 0
L1D REGIONS CONFLICTS: 0
L1D Cross Page Prefetch Requests: 0
L1D Same Page Prefetch Requests: 0
L1D ROI Sum of L1D PQ occupancy: 0
L1D PREFETCHES PUSHED FROM L2C: 0
L1I TOTAL     ACCESS:   40229852  HIT:   28935574  MISS:   11294278  HIT %:    71.9256  MISS %:    28.0744   MPKI: 56.4714
L1I LOAD      ACCESS:   40229852  HIT:   28935574  MISS:   11294278  HIT %:    71.9256  MISS %:    28.0744   MPKI: 56.4714
L1I PREFETCH  REQUESTED:          0  ISSUED:          0  USEFUL:          0  USELESS:          0
L1I USEFUL LOAD PREFETCHES:          0 PREFETCH ISSUED TO LOWER LEVEL:          0  ACCURACY: -nan
L1I TIMELY PREFETCHES:          0 LATE PREFETCHES: 0 DROPPED PREFETCHES: 0
L1I PREFETCHES SAME FILL-ORIGIN LEVEL: 0 DIFFERENT FILL-ORIGIN LEVEL: 0
L1I AVERAGE MISS LATENCY: 15.7568 cycles
L1I RQ	ACCESS:   58195913	FORWARD:          0	MERGED:   16323771	TO_CACHE:   41872142

BTB TOTAL     ACCESS:   30318300  HIT:   17551379  MISS:   12766921  HIT %:    57.8904  MISS %:    42.1096   MPKI: 63.8346
BTB BRANCH_DIRECT_JUMP	ACCESS:    1886938  HIT:    1046620  MISS:     840318
BTB BRANCH_INDIRECT	ACCESS:   11997161  HIT:    7128169  MISS:    4868992
BTB BRANCH_CONDITIONAL	ACCESS:    7233042  HIT:    5926174  MISS:    1306868
BTB BRANCH_DIRECT_CALL	ACCESS:    3870839  HIT:    1774369  MISS:    2096470
BTB BRANCH_INDIRECT_CALL	ACCESS:     729710  HIT:     345433  MISS:     384277
BTB BRANCH_RETURN	ACCESS:    4600610  HIT:    1330614  MISS:    3269996
BTB BRANCH_OTHER ACCESS:          0  HIT:          0  MISS:          0

L2C TOTAL     ACCESS:   22418695  HIT:   21319705  MISS:    1098990  HIT %:    95.0979  MISS %:    4.90211   MPKI: 5.49495
L2C LOAD      ACCESS:   15526063  HIT:   14577544  MISS:     948519  HIT %:    93.8908  MISS %:     6.1092   MPKI: 4.74259
L2C DATA LOAD MPKI: 1.58371
L2C INSTRUCTION LOAD MPKI: 3.15888
L2C RFO       ACCESS:    1195358  HIT:    1094306  MISS:     101052  HIT %:    91.5463  MISS %:     8.4537   MPKI: 0.50526
L2C PREFETCH  ACCESS:    3392358  HIT:    3385520  MISS:       6838  HIT %:    99.7984  MISS %:   0.201571   MPKI: 0.03419
AGUS PREFETCH L1 MISS: 0
L2C DATA PREFETCH MPKI: 0.03419
L2C INSTRUCTION PREFETCH MPKI: 0
L2C WRITEBACK ACCESS:    2276302  HIT:    2242963  MISS:      33339  HIT %:    98.5354  MISS %:    1.46461   MPKI: 0.166695
L2C LOAD TRANSLATION ACCESS:      28614  HIT:      19372  MISS:       9242  HIT %:    67.7011  MISS %:    32.2989   MPKI: 0.04621
L2C PREFETCH  REQUESTED:    6204163  ISSUED:    6204161  USEFUL:       1663  USELESS:       5114
L2C USEFUL LOAD PREFETCHES:       1663 PREFETCH ISSUED TO LOWER LEVEL:    2065240  ACCURACY: 0.0805233
L2C TIMELY PREFETCHES:       1663 LATE PREFETCHES: 25419 DROPPED PREFETCHES: 0
L2C PREFETCHES SAME FILL-ORIGIN LEVEL: 32257 DIFFERENT FILL-ORIGIN LEVEL: 2032983
L2C AVERAGE MISS LATENCY: 30.0067 cycles
L2C RQ	ACCESS:   16750073	FORWARD:          0	MERGED:          0	TO_CACHE:   16750035
L2C WQ	ACCESS:    2276302	FORWARD:         38	MERGED:          0	TO_CACHE:    2276302
L2C PQ	ACCESS:    6204161	FORWARD:          0	MERGED:     712249	TO_CACHE:    5491912

L2C Instructions Evicting Data 240087
L2C Translations Evicting Data 5193
L2C Data Evicting Data 198351
L2C Instructions Evicting Instructions 387924
L2C Translations Evicting Instructions 3572
L2C Data Evicting Instructions 221417
L2C Instructions Evicting Translations 3765
L2C Translations Evicting Translations 477
L2C Data Evicting Translations 4865
L2C Dense regions hint from L2: 0
PSCL5 TOTAL     ACCESS:      27434  HIT:      27434  MISS:          0  HIT %:        100  MISS %:          0   MPKI: 0
PSCL5 LOAD TRANSLATION ACCESS:      27434  HIT:      27434  MISS:          0  HIT %:        100  MISS %:          0   MPKI: 0
PSCL5 PREFETCH  REQUESTED:          0  ISSUED:          0  USEFUL:          0  USELESS:          0
PSCL5 USEFUL LOAD PREFETCHES:          0 PREFETCH ISSUED TO LOWER LEVEL:          0  ACCURACY: -nan
PSCL5 TIMELY PREFETCHES:          0 LATE PREFETCHES: 0 DROPPED PREFETCHES: 0
PSCL5 PREFETCHES SAME FILL-ORIGIN LEVEL: 0 DIFFERENT FILL-ORIGIN LEVEL: 0

PSCL4 TOTAL     ACCESS:      25767  HIT:      25737  MISS:         30  HIT %:    99.8836  MISS %:   0.116428   MPKI: 0.00015
PSCL4 LOAD TRANSLATION ACCESS:      25767  HIT:      25737  MISS:         30  HIT %:    99.8836  MISS %:   0.116428   MPKI: 0.00015
PSCL4 PREFETCH  REQUESTED:          0  ISSUED:          0  USEFUL:          0  USELESS:          0
PSCL4 USEFUL LOAD PREFETCHES:          0 PREFETCH ISSUED TO LOWER LEVEL:          0  ACCURACY: -nan
PSCL4 TIMELY PREFETCHES:          0 LATE PREFETCHES: 0 DROPPED PREFETCHES: 0
PSCL4 PREFETCHES SAME FILL-ORIGIN LEVEL: 0 DIFFERENT FILL-ORIGIN LEVEL: 0

PSCL3 TOTAL     ACCESS:      27015  HIT:      26985  MISS:         30  HIT %:     99.889  MISS %:   0.111049   MPKI: 0.00015
PSCL3 LOAD TRANSLATION ACCESS:      27015  HIT:      26985  MISS:         30  HIT %:     99.889  MISS %:   0.111049   MPKI: 0.00015
PSCL3 PREFETCH  REQUESTED:          0  ISSUED:          0  USEFUL:          0  USELESS:          0
PSCL3 USEFUL LOAD PREFETCHES:          0 PREFETCH ISSUED TO LOWER LEVEL:          0  ACCURACY: -nan
PSCL3 TIMELY PREFETCHES:          0 LATE PREFETCHES: 0 DROPPED PREFETCHES: 0
PSCL3 PREFETCHES SAME FILL-ORIGIN LEVEL: 0 DIFFERENT FILL-ORIGIN LEVEL: 0

PSCL2 TOTAL     ACCESS:      27434  HIT:      26314  MISS:       1120  HIT %:    95.9175  MISS %:    4.08253   MPKI: 0.0056
PSCL2 LOAD TRANSLATION ACCESS:      27434  HIT:      26314  MISS:       1120  HIT %:    95.9175  MISS %:    4.08253   MPKI: 0.0056
PSCL2 PREFETCH  REQUESTED:          0  ISSUED:          0  USEFUL:          0  USELESS:          0
PSCL2 USEFUL LOAD PREFETCHES:          0 PREFETCH ISSUED TO LOWER LEVEL:          0  ACCURACY: -nan
PSCL2 TIMELY PREFETCHES:          0 LATE PREFETCHES: 0 DROPPED PREFETCHES: 0
PSCL2 PREFETCHES SAME FILL-ORIGIN LEVEL: 0 DIFFERENT FILL-ORIGIN LEVEL: 0

LLC TOTAL     ACCESS:    3078524  HIT:    3059480  MISS:      19044  HIT %:    99.3814  MISS %:   0.618608   MPKI: 0.09522
LLC LOAD      ACCESS:     923100  HIT:     917740  MISS:       5360  HIT %:    99.4193  MISS %:   0.580652   MPKI: 0.0268
LLC RFO       ACCESS:     101052  HIT:      99087  MISS:       1965  HIT %:    98.0555  MISS %:    1.94454   MPKI: 0.009825
LLC PREFETCH  ACCESS:    1911375  HIT:    1899903  MISS:      11472  HIT %:    99.3998  MISS %:   0.600196   MPKI: 0.05736
AGUS PREFETCH L1 MISS: 0
LLC WRITEBACK ACCESS:     133755  HIT:     133570  MISS:        185  HIT %:    99.8617  MISS %:   0.138313   MPKI: 0.000925
LLC LOAD TRANSLATION ACCESS:       9242  HIT:       9180  MISS:         62  HIT %:    99.3291  MISS %:    0.67085   MPKI: 0.00031
LLC PREFETCH  REQUESTED:          0  ISSUED:          0  USEFUL:        791  USELESS:       7713
LLC USEFUL LOAD PREFETCHES:        791 PREFETCH ISSUED TO LOWER LEVEL:      13098  ACCURACY: 6.03909
LLC TIMELY PREFETCHES:        791 LATE PREFETCHES: 1626 DROPPED PREFETCHES: 0
LLC PREFETCHES SAME FILL-ORIGIN LEVEL: 12998 DIFFERENT FILL-ORIGIN LEVEL: 0
LLC AVERAGE MISS LATENCY: 149.345 cycles
LLC RQ	ACCESS:    1033394	FORWARD:          0	MERGED:          0	TO_CACHE:    1033394
LLC WQ	ACCESS:     133755	FORWARD:          0	MERGED:          0	TO_CACHE:     133755
LLC PQ	ACCESS:    2065240	FORWARD:          0	MERGED:     147803	TO_CACHE:    1917437

LLC Dense regions hint to LLC: 0

RAW hits: 1458575
Loads Generated: 47956463
Loads sent to L1D: 46497887
Stores Generated: 26571616
Stores sent to L1D: 26571628
Major fault: 0 Minor fault: 1781
Allocated PAGES: 1781
 All Calls: 5294833
 Critical Calls: 5294833
------------------
Depth Distribution
------------------
depth 0: 0
depth 1: 4470176
depth 2: 1167818
depth 3: 651374
depth 4: 534923
depth 5: 445065
depth 6: 333693
depth 7: 176296
depth 8: 75289
depth 9: 31101
depth 10: 5826
depth 11: 1146
depth 12: 105
depth 13: 0
depth 14: 0
depth 15: 0
depth 16: 0
depth 17: 0
depth 18: 0
depth 19: 0
depth 20: 0
depth 21: 0
depth 22: 0
depth 23: 0
depth 24: 0
depth 25: 0
depth 26: 0
depth 27: 0
depth 28: 0
depth 29: 0
Total: 7892812
-----------------------------
-----------------------------
	Captured at Filter
-----------------------------
depth 0: 0
depth 1: 617929
depth 2: 486201
depth 3: 448103
depth 4: 426309
depth 5: 397605
depth 6: 331685
depth 7: 188470
depth 8: 79982
depth 9: 39220
depth 10: 7594
depth 11: 1436
depth 12: 116
depth 13: 0
depth 14: 0
depth 15: 0
depth 16: 0
depth 17: 0
depth 18: 0
depth 19: 0
depth 20: 0
depth 21: 0
depth 22: 0
depth 23: 0
depth 24: 0
depth 25: 0
depth 26: 0
depth 27: 0
depth 28: 0
depth 29: 0
-----------------------------
-----------------------------
		Lost at Page
-----------------------------
depth 0: 0
depth 1: 516735
depth 2: 104334
depth 3: 51507
depth 4: 59923
depth 5: 68960
depth 6: 72161
depth 7: 51402
depth 8: 23955
depth 9: 12569
depth 10: 2724
depth 11: 604
depth 12: 56
depth 13: 0
depth 14: 0
depth 15: 0
depth 16: 0
depth 17: 0
depth 18: 0
depth 19: 0
depth 20: 0
depth 21: 0
depth 22: 0
depth 23: 0
depth 24: 0
depth 25: 0
depth 26: 0
depth 27: 0
depth 28: 0
depth 29: 0
-----------------------------
-----------------------------
	Lost due to PQ Size
-----------------------------
21180
-----------------------------
ST read accesses: 3596193
ST write accesses: 635592
PT read accesses: 67809126
PT write accesses: 4778485
FILTER read accesses: 13660115
FILTER write accesses: 1539345
GHR read accesses: 10390102
GHR write accesses: 749344
GHR counter read accesses: 58569566
GHR counter write accesses: 4673515
ST tag read accesses: 1930925106
ST tag write accesses: 267093197

DRAM Statistics
 CHANNEL 0
 RQ ROW_BUFFER_HIT:       4033  ROW_BUFFER_MISS:      14826
 DBUS_CONGESTED:          4
 WQ ROW_BUFFER_HIT:         89  ROW_BUFFER_MISS:       2692  FULL:          0

 AVG_CONGESTED_CYCLE: 5
 All warmup complete: 2
Channel 0 Bank busy for read cycles: 0
Channel 0 Bank busy for write cycles: 0
Channel 0
Rank 0
0banks busy for read cycles: 648084077
0banks busy for write cycles: 2144
1banks busy for read cycles: 1443467
1banks busy for write cycles: 288418
2banks busy for read cycles: 214059
2banks busy for write cycles: 35817
3banks busy for read cycles: 75883
3banks busy for write cycles: 10196
4banks busy for read cycles: 36075
4banks busy for write cycles: 5267
5banks busy for read cycles: 19028
5banks busy for write cycles: 1882
6banks busy for read cycles: 8721
6banks busy for write cycles: 968
7banks busy for read cycles: 3678
7banks busy for write cycles: 359
8banks busy for read cycles: 1107
8banks busy for write cycles: 0

CPU 0 Branch Prediction Accuracy: 99.8925% MPKI: 0.1929 Average ROB Occupancy at Mispredict: 32.2626
Branch types
NOT_BRANCH: 164102646 82.0513%
BRANCH_DIRECT_JUMP: 1886938 0.943469%
BRANCH_INDIRECT: 11997161 5.99858%
BRANCH_CONDITIONAL: 12811847 6.40592%
BRANCH_DIRECT_CALL: 3870839 1.93542%
BRANCH_INDIRECT_CALL: 729710 0.364855%
BRANCH_RETURN: 4600610 2.3003%
BRANCH_OTHER: 0 0%

DRAM PAGES: 1048576
Allocated PAGES: 1781
