
*** ChampSim Multicore Out-of-Order Simulator ***

Warmup Instructions: 50000000
Simulation Instructions: 200000000
Number of CPUs: 1
LLC sets: 2048
LLC ways: 16
Off-chip DRAM Size: 4096 MB Channels: 1 Width: 64-bit Data Rate: 6400 MT/s
CPU 0 runs traces/spec2k17/client_006.champsimtrace.xz
.xz
BTB has LRU replacement policy
ITLB has LRU replacement policy
DTLB has LRU replacement policy
STLB has LRU replacement policy
L1I has LRU replacement policy
L1D has LRU replacement policy
Initialize SRRIP state for L2C
Initialize DRRIP state for LLC
Heartbeat CPU 0 instructions: 10000000 cycles: 3270757 heartbeat IPC: 3.0574 cumulative IPC: 3.0574 (Simulation time: 0 hr 0 min 48 sec) 
Heartbeat CPU 0 instructions: 20000002 cycles: 6465689 heartbeat IPC: 3.12996 cumulative IPC: 3.09325 (Simulation time: 0 hr 1 min 41 sec) 
Heartbeat CPU 0 instructions: 30000000 cycles: 9248738 heartbeat IPC: 3.59318 cumulative IPC: 3.24369 (Simulation time: 0 hr 2 min 17 sec) 
Heartbeat CPU 0 instructions: 40000001 cycles: 12129850 heartbeat IPC: 3.47088 cumulative IPC: 3.29765 (Simulation time: 0 hr 2 min 56 sec) 
Heartbeat CPU 0 instructions: 50000001 cycles: 15294634 heartbeat IPC: 3.15977 cumulative IPC: 3.26912 (Simulation time: 0 hr 3 min 43 sec) 

Warmup complete CPU 0 instructions: 50000001 cycles: 15294634 (Simulation time: 0 hr 3 min 43 sec) 

Heartbeat CPU 0 instructions: 60000000 cycles: 34314457 heartbeat IPC: 0.525767 cumulative IPC: 0.525767 (Simulation time: 0 hr 4 min 39 sec) 
Heartbeat CPU 0 instructions: 70000000 cycles: 59144576 heartbeat IPC: 0.402737 cumulative IPC: 0.456101 (Simulation time: 0 hr 5 min 43 sec) 
Heartbeat CPU 0 instructions: 80000000 cycles: 77580065 heartbeat IPC: 0.542432 cumulative IPC: 0.481654 (Simulation time: 0 hr 6 min 46 sec) 
Heartbeat CPU 0 instructions: 90000000 cycles: 99079449 heartbeat IPC: 0.46513 cumulative IPC: 0.477413 (Simulation time: 0 hr 7 min 45 sec) 
Heartbeat CPU 0 instructions: 100000002 cycles: 117698479 heartbeat IPC: 0.537085 cumulative IPC: 0.488263 (Simulation time: 0 hr 8 min 43 sec) 
*** Reached end of trace for Core: 0 Repeating trace: traces/spec2k17/client_006.champsimtrace.xz
Heartbeat CPU 0 instructions: 110000000 cycles: 134972943 heartbeat IPC: 0.578889 cumulative IPC: 0.501344 (Simulation time: 0 hr 9 min 53 sec) 
Heartbeat CPU 0 instructions: 120000003 cycles: 152330838 heartbeat IPC: 0.576107 cumulative IPC: 0.510814 (Simulation time: 0 hr 11 min 2 sec) 
Heartbeat CPU 0 instructions: 130000002 cycles: 169874487 heartbeat IPC: 0.570007 cumulative IPC: 0.517532 (Simulation time: 0 hr 11 min 56 sec) 
Heartbeat CPU 0 instructions: 140000002 cycles: 186745550 heartbeat IPC: 0.592731 cumulative IPC: 0.524932 (Simulation time: 0 hr 12 min 51 sec) 
Heartbeat CPU 0 instructions: 150000001 cycles: 208026349 heartbeat IPC: 0.469907 cumulative IPC: 0.518856 (Simulation time: 0 hr 13 min 59 sec) 
Heartbeat CPU 0 instructions: 160000000 cycles: 225734775 heartbeat IPC: 0.564703 cumulative IPC: 0.522714 (Simulation time: 0 hr 14 min 55 sec) 
Heartbeat CPU 0 instructions: 170000000 cycles: 251120620 heartbeat IPC: 0.39392 cumulative IPC: 0.50885 (Simulation time: 0 hr 16 min 5 sec) 
Heartbeat CPU 0 instructions: 180000003 cycles: 269913950 heartbeat IPC: 0.532104 cumulative IPC: 0.510566 (Simulation time: 0 hr 17 min 7 sec) 
Heartbeat CPU 0 instructions: 190000000 cycles: 290990383 heartbeat IPC: 0.474463 cumulative IPC: 0.507806 (Simulation time: 0 hr 18 min 7 sec) 
Heartbeat CPU 0 instructions: 200000000 cycles: 309514444 heartbeat IPC: 0.539838 cumulative IPC: 0.509823 (Simulation time: 0 hr 19 min 9 sec) 
*** Reached end of trace for Core: 0 Repeating trace: traces/spec2k17/client_006.champsimtrace.xz
Heartbeat CPU 0 instructions: 210000003 cycles: 326884120 heartbeat IPC: 0.575716 cumulative IPC: 0.513496 (Simulation time: 0 hr 20 min 44 sec) 
Heartbeat CPU 0 instructions: 220000000 cycles: 344254690 heartbeat IPC: 0.575686 cumulative IPC: 0.51678 (Simulation time: 0 hr 22 min 23 sec) 
Heartbeat CPU 0 instructions: 230000000 cycles: 360893718 heartbeat IPC: 0.600997 cumulative IPC: 0.520835 (Simulation time: 0 hr 23 min 36 sec) 
Heartbeat CPU 0 instructions: 240000002 cycles: 378361812 heartbeat IPC: 0.572472 cumulative IPC: 0.523319 (Simulation time: 0 hr 24 min 39 sec) 
Heartbeat CPU 0 instructions: 250000000 cycles: 398851000 heartbeat IPC: 0.488062 cumulative IPC: 0.521436 (Simulation time: 0 hr 26 min 5 sec) 
Finished CPU 0 instructions: 200000003 cycles: 383556374 cumulative IPC: 0.521436 (Simulation time: 0 hr 26 min 5 sec) 

ChampSim completed all CPUs

Region of Interest Statistics

CPU 0 cumulative IPC: 0.521436 instructions: 200000003 cycles: 383556374
ITLB TOTAL     ACCESS:   31691778  HIT:   31196732  MISS:     495046  HIT %:    98.4379  MISS %:    1.56206   MPKI: 2.47523
ITLB LOAD TRANSLATION ACCESS:   31691778  HIT:   31196732  MISS:     495046  HIT %:    98.4379  MISS %:    1.56206   MPKI: 2.47523
ITLB PREFETCH  REQUESTED:          0  ISSUED:          0  USEFUL:          0  USELESS:          0
ITLB USEFUL LOAD PREFETCHES:          0 PREFETCH ISSUED TO LOWER LEVEL:          0  ACCURACY: -nan
ITLB TIMELY PREFETCHES:          0 LATE PREFETCHES: 0 DROPPED PREFETCHES: 0
ITLB PREFETCHES SAME FILL-ORIGIN LEVEL: 0 DIFFERENT FILL-ORIGIN LEVEL: 0
ITLB AVERAGE MISS LATENCY: 11.0997 cycles
ITLB RQ	ACCESS:   37644265	FORWARD:          0	MERGED:    5897637	TO_CACHE:   31746628

DTLB TOTAL     ACCESS:   40911726  HIT:   39665228  MISS:    1246498  HIT %:    96.9532  MISS %:     3.0468   MPKI: 6.23249
DTLB LOAD TRANSLATION ACCESS:   40911726  HIT:   39665228  MISS:    1246498  HIT %:    96.9532  MISS %:     3.0468   MPKI: 6.23249
DTLB PREFETCH  REQUESTED:          0  ISSUED:          0  USEFUL:          0  USELESS:          0
DTLB USEFUL LOAD PREFETCHES:          0 PREFETCH ISSUED TO LOWER LEVEL:          0  ACCURACY: -nan
DTLB TIMELY PREFETCHES:          0 LATE PREFETCHES: 0 DROPPED PREFETCHES: 0
DTLB PREFETCHES SAME FILL-ORIGIN LEVEL: 0 DIFFERENT FILL-ORIGIN LEVEL: 0
DTLB AVERAGE MISS LATENCY: 14.6966 cycles
DTLB RQ	ACCESS:   50592428	FORWARD:          0	MERGED:    9618932	TO_CACHE:   40973496

STLB TOTAL     ACCESS:    4000139  HIT:    3908678  MISS:      91461  HIT %:    97.7136  MISS %:    2.28645   MPKI: 0.457305
STLB LOAD TRANSLATION ACCESS:    1741544  HIT:    1651425  MISS:      90119  HIT %:    94.8253  MISS %:    5.17466   MPKI: 0.450595
STLB TRANSLATION FROM L1D PREFETCHER ACCESS:    2258595  HIT:    2257253  MISS:       1342  HIT %:    99.9406  MISS %:  0.0594175   MPKI: 0.00671
STLB PREFETCH  REQUESTED:          0  ISSUED:          0  USEFUL:       1231  USELESS:        108
STLB USEFUL LOAD PREFETCHES:       1231 PREFETCH ISSUED TO LOWER LEVEL:          0  ACCURACY: inf
STLB TIMELY PREFETCHES:       1231 LATE PREFETCHES: 1018 DROPPED PREFETCHES: 21632
STLB PREFETCHES SAME FILL-ORIGIN LEVEL: 0 DIFFERENT FILL-ORIGIN LEVEL: 0
STLB AVERAGE MISS LATENCY: 12278.2 cycles
STLB RQ	ACCESS:    5011298	FORWARD:          0	MERGED:     988364	TO_CACHE:    4022934

STLB Hit, L1D data hit: 0
STLB Hit, L2C data hit: 0
STLB Hit, LLC data hit: 0
STLB Hit, LLC data miss: 0
STLB STLB hints to L2: 0
L1D TOTAL     ACCESS:   52457997  HIT:   49744895  MISS:    2713102  HIT %:     94.828  MISS %:    5.17195   MPKI: 13.5655
L1D LOAD      ACCESS:   33577201  HIT:   31204462  MISS:    2372739  HIT %:    92.9335  MISS %:    7.06652   MPKI: 11.8637
L1D RFO       ACCESS:   16213458  HIT:   15948813  MISS:     264645  HIT %:    98.3677  MISS %:    1.63226   MPKI: 1.32322
L1D PREFETCH  ACCESS:    2667338  HIT:    2591620  MISS:      75718  HIT %:    97.1613  MISS %:    2.83871   MPKI: 0.37859
AGUS PREFETCH L1 MISS: 0
L1D PREFETCH  REQUESTED:    7185633  ISSUED:    7185078  USEFUL:      58360  USELESS:      17346
L1D USEFUL LOAD PREFETCHES:      58360 PREFETCH ISSUED TO LOWER LEVEL:     442261  ACCURACY: 13.1958
L1D TIMELY PREFETCHES:      58360 LATE PREFETCHES: 366524 DROPPED PREFETCHES: 22357
L1D PREFETCHES SAME FILL-ORIGIN LEVEL: 442261 DIFFERENT FILL-ORIGIN LEVEL: 0
L1D AVERAGE MISS LATENCY: 3.16984e+07 cycles
L1D RQ	ACCESS:   49367427	FORWARD:          0	MERGED:   15325544	TO_CACHE:   33831604
L1D WQ	ACCESS:   17096511	FORWARD:     217179	MERGED:     335687	TO_CACHE:   16760824
L1D PQ	ACCESS:    3915324	FORWARD:          0	MERGED:     638670	TO_CACHE:    3269754

L1D UNIQUE REGIONS ACCESSED: 0
L1D REGIONS CONFLICTS: 0
L1D Cross Page Prefetch Requests: 1990783
L1D Same Page Prefetch Requests: 2448032
L1D ROI Sum of L1D PQ occupancy: 47486731
L1D PREFETCHES PUSHED FROM L2C: 0
L1I TOTAL     ACCESS:   36774896  HIT:   34327076  MISS:    2447820  HIT %:    93.3438  MISS %:    6.65623   MPKI: 12.2391
L1I LOAD      ACCESS:   36774896  HIT:   34327076  MISS:    2447820  HIT %:    93.3438  MISS %:    6.65623   MPKI: 12.2391
L1I PREFETCH  REQUESTED:          0  ISSUED:          0  USEFUL:          0  USELESS:          0
L1I USEFUL LOAD PREFETCHES:          0 PREFETCH ISSUED TO LOWER LEVEL:          0  ACCURACY: -nan
L1I TIMELY PREFETCHES:          0 LATE PREFETCHES: 0 DROPPED PREFETCHES: 0
L1I PREFETCHES SAME FILL-ORIGIN LEVEL: 0 DIFFERENT FILL-ORIGIN LEVEL: 0
L1I AVERAGE MISS LATENCY: 19.8391 cycles
L1I RQ	ACCESS:   57396706	FORWARD:          0	MERGED:   19752441	TO_CACHE:   37644265

BTB TOTAL     ACCESS:   25851423  HIT:   24123555  MISS:    1727868  HIT %:    93.3162  MISS %:    6.68384   MPKI: 8.63934
BTB BRANCH_DIRECT_JUMP	ACCESS:    1806110  HIT:    1783873  MISS:      22237
BTB BRANCH_INDIRECT	ACCESS:    7197239  HIT:    6432275  MISS:     764964
BTB BRANCH_CONDITIONAL	ACCESS:   11207262  HIT:   11165232  MISS:      42030
BTB BRANCH_DIRECT_CALL	ACCESS:    1904338  HIT:    1877545  MISS:      26793
BTB BRANCH_INDIRECT_CALL	ACCESS:     912580  HIT:     722486  MISS:     190094
BTB BRANCH_RETURN	ACCESS:    2823894  HIT:    2142144  MISS:     681750
BTB BRANCH_OTHER ACCESS:          0  HIT:          0  MISS:          0

L2C TOTAL     ACCESS:    6101270  HIT:    4362731  MISS:    1738539  HIT %:    71.5053  MISS %:    28.4947   MPKI: 8.69269
L2C LOAD      ACCESS:    4453941  HIT:    3336394  MISS:    1117547  HIT %:    74.9088  MISS %:    25.0912   MPKI: 5.58773
L2C DATA LOAD MPKI: 4.94987
L2C INSTRUCTION LOAD MPKI: 0.63786
L2C RFO       ACCESS:     264620  HIT:      80328  MISS:     184292  HIT %:     30.356  MISS %:     69.644   MPKI: 0.92146
L2C PREFETCH  ACCESS:     442260  HIT:      70687  MISS:     371573  HIT %:    15.9831  MISS %:    84.0169   MPKI: 1.85786
AGUS PREFETCH L1 MISS: 0
L2C DATA PREFETCH MPKI: 1.85786
L2C INSTRUCTION PREFETCH MPKI: 0
L2C WRITEBACK ACCESS:     811286  HIT:     796340  MISS:      14946  HIT %:    98.1577  MISS %:    1.84226   MPKI: 0.07473
L2C LOAD TRANSLATION ACCESS:      99460  HIT:      52791  MISS:      46669  HIT %:    53.0776  MISS %:    46.9224   MPKI: 0.233345
L2C TRANSLATION FROM L1D PREFETCHER ACCESS:      29703  HIT:      26191  MISS:       3512  HIT %:    88.1763  MISS %:    11.8237   MPKI: 0.01756
L2C PREFETCH  REQUESTED:          0  ISSUED:          0  USEFUL:       3661  USELESS:     371164
L2C USEFUL LOAD PREFETCHES:       3661 PREFETCH ISSUED TO LOWER LEVEL:     371574  ACCURACY: 0.985268
L2C TIMELY PREFETCHES:       3661 LATE PREFETCHES: 0 DROPPED PREFETCHES: 0
L2C PREFETCHES SAME FILL-ORIGIN LEVEL: 0 DIFFERENT FILL-ORIGIN LEVEL: 0
L2C AVERAGE MISS LATENCY: 119.009 cycles
L2C RQ	ACCESS:    4847824	FORWARD:          0	MERGED:          0	TO_CACHE:    4847724
L2C WQ	ACCESS:     811286	FORWARD:        100	MERGED:          0	TO_CACHE:     811286
L2C PQ	ACCESS:     442261	FORWARD:          0	MERGED:          0	TO_CACHE:     442261

L2C Instructions Evicting Data 107243
L2C Translations Evicting Data 43761
L2C Data Evicting Data 1395346
L2C Instructions Evicting Instructions 15722
L2C Translations Evicting Instructions 4836
L2C Data Evicting Instructions 106682
L2C Instructions Evicting Translations 4607
L2C Translations Evicting Translations 1584
L2C Data Evicting Translations 43812
L2C Dense regions hint from L2: 0
PSCL5 TOTAL     ACCESS:     109393  HIT:     109393  MISS:          0  HIT %:        100  MISS %:          0   MPKI: 0
PSCL5 LOAD TRANSLATION ACCESS:      89108  HIT:      89108  MISS:          0  HIT %:        100  MISS %:          0   MPKI: 0
PSCL5 TRANSLATION FROM L1D PREFETCHER ACCESS:      20285  HIT:      20285  MISS:          0  HIT %:        100  MISS %:          0   MPKI: 0
PSCL5 PREFETCH  REQUESTED:          0  ISSUED:          0  USEFUL:          0  USELESS:          0
PSCL5 USEFUL LOAD PREFETCHES:          0 PREFETCH ISSUED TO LOWER LEVEL:          0  ACCURACY: -nan
PSCL5 TIMELY PREFETCHES:          0 LATE PREFETCHES: 0 DROPPED PREFETCHES: 0
PSCL5 PREFETCHES SAME FILL-ORIGIN LEVEL: 0 DIFFERENT FILL-ORIGIN LEVEL: 0

PSCL4 TOTAL     ACCESS:      99954  HIT:      99844  MISS:        110  HIT %:    99.8899  MISS %:   0.110051   MPKI: 0.00055
PSCL4 LOAD TRANSLATION ACCESS:      82127  HIT:      82017  MISS:        110  HIT %:    99.8661  MISS %:   0.133939   MPKI: 0.00055
PSCL4 TRANSLATION FROM L1D PREFETCHER ACCESS:      17827  HIT:      17827  MISS:          0  HIT %:        100  MISS %:          0   MPKI: 0
PSCL4 PREFETCH  REQUESTED:          0  ISSUED:          0  USEFUL:          0  USELESS:          0
PSCL4 USEFUL LOAD PREFETCHES:          0 PREFETCH ISSUED TO LOWER LEVEL:          0  ACCURACY: -nan
PSCL4 TIMELY PREFETCHES:          0 LATE PREFETCHES: 0 DROPPED PREFETCHES: 0
PSCL4 PREFETCHES SAME FILL-ORIGIN LEVEL: 0 DIFFERENT FILL-ORIGIN LEVEL: 0

PSCL3 TOTAL     ACCESS:     105529  HIT:     105240  MISS:        289  HIT %:    99.7261  MISS %:   0.273858   MPKI: 0.001445
PSCL3 LOAD TRANSLATION ACCESS:      88923  HIT:      88634  MISS:        289  HIT %:     99.675  MISS %:      0.325   MPKI: 0.001445
PSCL3 TRANSLATION FROM L1D PREFETCHER ACCESS:      16606  HIT:      16606  MISS:          0  HIT %:        100  MISS %:          0   MPKI: 0
PSCL3 PREFETCH  REQUESTED:          0  ISSUED:          0  USEFUL:          0  USELESS:          0
PSCL3 USEFUL LOAD PREFETCHES:          0 PREFETCH ISSUED TO LOWER LEVEL:          0  ACCURACY: -nan
PSCL3 TIMELY PREFETCHES:          0 LATE PREFETCHES: 0 DROPPED PREFETCHES: 0
PSCL3 PREFETCHES SAME FILL-ORIGIN LEVEL: 0 DIFFERENT FILL-ORIGIN LEVEL: 0

PSCL2 TOTAL     ACCESS:      92599  HIT:      82505  MISS:      10094  HIT %:    89.0992  MISS %:    10.9008   MPKI: 0.05047
PSCL2 LOAD TRANSLATION ACCESS:      89226  HIT:      79132  MISS:      10094  HIT %:    88.6872  MISS %:    11.3128   MPKI: 0.05047
PSCL2 TRANSLATION FROM L1D PREFETCHER ACCESS:       3373  HIT:       3373  MISS:          0  HIT %:        100  MISS %:          0   MPKI: 0
PSCL2 PREFETCH  REQUESTED:          0  ISSUED:          0  USEFUL:          0  USELESS:          0
PSCL2 USEFUL LOAD PREFETCHES:          0 PREFETCH ISSUED TO LOWER LEVEL:          0  ACCURACY: -nan
PSCL2 TIMELY PREFETCHES:          0 LATE PREFETCHES: 0 DROPPED PREFETCHES: 0
PSCL2 PREFETCHES SAME FILL-ORIGIN LEVEL: 0 DIFFERENT FILL-ORIGIN LEVEL: 0

LLC TOTAL     ACCESS:    2215112  HIT:    1258630  MISS:     956482  HIT %:    56.8202  MISS %:    43.1798   MPKI: 4.78241
LLC LOAD      ACCESS:    1117547  HIT:     404612  MISS:     712935  HIT %:    36.2054  MISS %:    63.7946   MPKI: 3.56467
LLC RFO       ACCESS:     184292  HIT:      22747  MISS:     161545  HIT %:    12.3429  MISS %:    87.6571   MPKI: 0.807725
LLC PREFETCH  ACCESS:     371573  HIT:     344573  MISS:      27000  HIT %:    92.7336  MISS %:    7.26641   MPKI: 0.135
AGUS PREFETCH L1 MISS: 0
LLC WRITEBACK ACCESS:     491519  HIT:     462559  MISS:      28960  HIT %:    94.1081  MISS %:    5.89194   MPKI: 0.1448
LLC LOAD TRANSLATION ACCESS:      46669  HIT:      22359  MISS:      24310  HIT %:    47.9097  MISS %:    52.0903   MPKI: 0.12155
LLC TRANSLATION FROM L1D PREFETCHER ACCESS:       3512  HIT:       1780  MISS:       1732  HIT %:    50.6834  MISS %:    49.3166   MPKI: 0.00866
LLC PREFETCH  REQUESTED:          0  ISSUED:          0  USEFUL:       7309  USELESS:      21496
LLC USEFUL LOAD PREFETCHES:       7309 PREFETCH ISSUED TO LOWER LEVEL:      27001  ACCURACY: 27.0694
LLC TIMELY PREFETCHES:       7309 LATE PREFETCHES: 0 DROPPED PREFETCHES: 0
LLC PREFETCHES SAME FILL-ORIGIN LEVEL: 0 DIFFERENT FILL-ORIGIN LEVEL: 0
LLC AVERAGE MISS LATENCY: 162.211 cycles
LLC RQ	ACCESS:    1352020	FORWARD:          0	MERGED:          0	TO_CACHE:    1352020
LLC WQ	ACCESS:     491519	FORWARD:          0	MERGED:          0	TO_CACHE:     491519
LLC PQ	ACCESS:     371574	FORWARD:          0	MERGED:          0	TO_CACHE:     371574

LLC Dense regions hint to LLC: 0

RAW hits: 2665052
Loads Generated: 52032481
Loads sent to L1D: 49367427
Stores Generated: 17096501
Stores sent to L1D: 17096511
Major fault: 0 Minor fault: 10830
Allocated PAGES: 10830
Completed 

DRAM Statistics
 CHANNEL 0
 RQ ROW_BUFFER_HIT:     196754  ROW_BUFFER_MISS:     730759
 DBUS_CONGESTED:        346
 WQ ROW_BUFFER_HIT:     115437  ROW_BUFFER_MISS:     322879  FULL:          0

 AVG_CONGESTED_CYCLE: 4
 All warmup complete: 2
Channel 0 Bank busy for read cycles: 0
Channel 0 Bank busy for write cycles: 0
Channel 0
Rank 0
0banks busy for read cycles: 253649621
0banks busy for write cycles: 179127
1banks busy for read cycles: 62345624
1banks busy for write cycles: 27139583
2banks busy for read cycles: 13024559
2banks busy for write cycles: 9207107
3banks busy for read cycles: 4261555
3banks busy for write cycles: 4066794
4banks busy for read cycles: 1295023
4banks busy for write cycles: 2034727
5banks busy for read cycles: 474811
5banks busy for write cycles: 1035941
6banks busy for read cycles: 334780
6banks busy for write cycles: 549032
7banks busy for read cycles: 270291
7banks busy for write cycles: 515986
8banks busy for read cycles: 873488
8banks busy for write cycles: 2298326

CPU 0 Branch Prediction Accuracy: 99.0203% MPKI: 1.6776 Average ROB Occupancy at Mispredict: 39.6565
Branch types
NOT_BRANCH: 165753023 82.8765%
BRANCH_DIRECT_JUMP: 1806110 0.903055%
BRANCH_INDIRECT: 7197239 3.59862%
BRANCH_CONDITIONAL: 19602510 9.80125%
BRANCH_DIRECT_CALL: 1904338 0.952169%
BRANCH_INDIRECT_CALL: 912580 0.45629%
BRANCH_RETURN: 2823894 1.41195%
BRANCH_OTHER: 0 0%

DRAM PAGES: 1048576
Allocated PAGES: 10830
