
*** ChampSim Multicore Out-of-Order Simulator ***

Warmup Instructions: 50000000
Simulation Instructions: 200000000
Number of CPUs: 1
LLC sets: 2048
LLC ways: 16
Off-chip DRAM Size: 4096 MB Channels: 1 Width: 64-bit Data Rate: 6400 MT/s
CPU 0 runs traces/spec2k17/server_013.champsimtrace.xz
.xz
BTB has LRU replacement policy
ITLB has LRU replacement policy
DTLB has LRU replacement policy
STLB has LRU replacement policy
L1I has LRU replacement policy
L1D has LRU replacement policy
Initialize SRRIP state for L2C
Initialize DRRIP state for LLC
Heartbeat CPU 0 instructions: 10000002 cycles: 2779232 heartbeat IPC: 3.59812 cumulative IPC: 3.59812 (Simulation time: 0 hr 0 min 42 sec) 
Heartbeat CPU 0 instructions: 20000002 cycles: 5554547 heartbeat IPC: 3.60319 cumulative IPC: 3.60065 (Simulation time: 0 hr 1 min 23 sec) 
Heartbeat CPU 0 instructions: 30000000 cycles: 8332535 heartbeat IPC: 3.59973 cumulative IPC: 3.60034 (Simulation time: 0 hr 2 min 0 sec) 
Heartbeat CPU 0 instructions: 40000002 cycles: 11110064 heartbeat IPC: 3.60032 cumulative IPC: 3.60034 (Simulation time: 0 hr 2 min 37 sec) 
Heartbeat CPU 0 instructions: 50000002 cycles: 13886766 heartbeat IPC: 3.60139 cumulative IPC: 3.60055 (Simulation time: 0 hr 3 min 12 sec) 

Warmup complete CPU 0 instructions: 50000002 cycles: 13886766 (Simulation time: 0 hr 3 min 12 sec) 

Heartbeat CPU 0 instructions: 60000003 cycles: 38681295 heartbeat IPC: 0.403315 cumulative IPC: 0.403315 (Simulation time: 0 hr 4 min 11 sec) 
Heartbeat CPU 0 instructions: 70000000 cycles: 62993938 heartbeat IPC: 0.411308 cumulative IPC: 0.407272 (Simulation time: 0 hr 5 min 8 sec) 
Heartbeat CPU 0 instructions: 80000001 cycles: 87046591 heartbeat IPC: 0.415755 cumulative IPC: 0.410061 (Simulation time: 0 hr 6 min 3 sec) 
Heartbeat CPU 0 instructions: 90000001 cycles: 110727348 heartbeat IPC: 0.422284 cumulative IPC: 0.41305 (Simulation time: 0 hr 6 min 56 sec) 
Heartbeat CPU 0 instructions: 100000001 cycles: 134800207 heartbeat IPC: 0.415406 cumulative IPC: 0.413519 (Simulation time: 0 hr 7 min 52 sec) 
*** Reached end of trace for Core: 0 Repeating trace: traces/spec2k17/server_013.champsimtrace.xz
Heartbeat CPU 0 instructions: 110000000 cycles: 158600875 heartbeat IPC: 0.420156 cumulative IPC: 0.414611 (Simulation time: 0 hr 8 min 54 sec) 
Heartbeat CPU 0 instructions: 120000000 cycles: 182405668 heartbeat IPC: 0.420083 cumulative IPC: 0.415384 (Simulation time: 0 hr 9 min 52 sec) 
Heartbeat CPU 0 instructions: 130000003 cycles: 206351740 heartbeat IPC: 0.417605 cumulative IPC: 0.41566 (Simulation time: 0 hr 10 min 51 sec) 
Heartbeat CPU 0 instructions: 140000001 cycles: 230583466 heartbeat IPC: 0.412682 cumulative IPC: 0.415327 (Simulation time: 0 hr 11 min 47 sec) 
Heartbeat CPU 0 instructions: 150000002 cycles: 254533811 heartbeat IPC: 0.417531 cumulative IPC: 0.415546 (Simulation time: 0 hr 12 min 44 sec) 
Heartbeat CPU 0 instructions: 160000000 cycles: 279432748 heartbeat IPC: 0.401623 cumulative IPC: 0.414241 (Simulation time: 0 hr 13 min 42 sec) 
Heartbeat CPU 0 instructions: 170000000 cycles: 303027218 heartbeat IPC: 0.423828 cumulative IPC: 0.415023 (Simulation time: 0 hr 14 min 41 sec) 
Heartbeat CPU 0 instructions: 180000002 cycles: 327340295 heartbeat IPC: 0.411301 cumulative IPC: 0.414735 (Simulation time: 0 hr 15 min 43 sec) 
Heartbeat CPU 0 instructions: 190000002 cycles: 351115681 heartbeat IPC: 0.420603 cumulative IPC: 0.415148 (Simulation time: 0 hr 16 min 45 sec) 
Heartbeat CPU 0 instructions: 200000000 cycles: 374909665 heartbeat IPC: 0.420274 cumulative IPC: 0.415486 (Simulation time: 0 hr 17 min 48 sec) 
*** Reached end of trace for Core: 0 Repeating trace: traces/spec2k17/server_013.champsimtrace.xz
Heartbeat CPU 0 instructions: 210000003 cycles: 399248279 heartbeat IPC: 0.41087 cumulative IPC: 0.415195 (Simulation time: 0 hr 18 min 52 sec) 
Heartbeat CPU 0 instructions: 220000000 cycles: 422597089 heartbeat IPC: 0.428287 cumulative IPC: 0.415943 (Simulation time: 0 hr 19 min 55 sec) 
Heartbeat CPU 0 instructions: 230000000 cycles: 446429425 heartbeat IPC: 0.419598 cumulative IPC: 0.416144 (Simulation time: 0 hr 21 min 2 sec) 
Heartbeat CPU 0 instructions: 240000001 cycles: 470185928 heartbeat IPC: 0.420937 cumulative IPC: 0.416393 (Simulation time: 0 hr 22 min 16 sec) 
Heartbeat CPU 0 instructions: 250000002 cycles: 494218761 heartbeat IPC: 0.416097 cumulative IPC: 0.416379 (Simulation time: 0 hr 23 min 15 sec) 
Finished CPU 0 instructions: 200000000 cycles: 480331995 cumulative IPC: 0.416379 (Simulation time: 0 hr 23 min 15 sec) 

ChampSim completed all CPUs

Region of Interest Statistics

CPU 0 cumulative IPC: 0.416379 instructions: 200000000 cycles: 480331995
ITLB TOTAL     ACCESS:   31560995  HIT:   30738300  MISS:     822695  HIT %:    97.3933  MISS %:    2.60668   MPKI: 4.11348
ITLB LOAD TRANSLATION ACCESS:   31560995  HIT:   30738300  MISS:     822695  HIT %:    97.3933  MISS %:    2.60668   MPKI: 4.11348
ITLB PREFETCH  REQUESTED:          0  ISSUED:          0  USEFUL:          0  USELESS:          0
ITLB USEFUL LOAD PREFETCHES:          0 PREFETCH ISSUED TO LOWER LEVEL:          0  ACCURACY: -nan
ITLB TIMELY PREFETCHES:          0 LATE PREFETCHES: 0 DROPPED PREFETCHES: 0
ITLB PREFETCHES SAME FILL-ORIGIN LEVEL: 0 DIFFERENT FILL-ORIGIN LEVEL: 0
ITLB AVERAGE MISS LATENCY: 15.7939 cycles
ITLB RQ	ACCESS:   38403870	FORWARD:          0	MERGED:    6645190	TO_CACHE:   31758680

DTLB TOTAL     ACCESS:   37571677  HIT:   35020192  MISS:    2551485  HIT %:     93.209  MISS %:    6.79098   MPKI: 12.7574
DTLB LOAD TRANSLATION ACCESS:   37571677  HIT:   35020192  MISS:    2551485  HIT %:     93.209  MISS %:    6.79098   MPKI: 12.7574
DTLB PREFETCH  REQUESTED:          0  ISSUED:          0  USEFUL:          0  USELESS:          0
DTLB USEFUL LOAD PREFETCHES:          0 PREFETCH ISSUED TO LOWER LEVEL:          0  ACCURACY: -nan
DTLB TIMELY PREFETCHES:          0 LATE PREFETCHES: 0 DROPPED PREFETCHES: 0
DTLB PREFETCHES SAME FILL-ORIGIN LEVEL: 0 DIFFERENT FILL-ORIGIN LEVEL: 0
DTLB AVERAGE MISS LATENCY: 13.6791 cycles
DTLB RQ	ACCESS:   47994109	FORWARD:          0	MERGED:   10272402	TO_CACHE:   37721707

STLB TOTAL     ACCESS:    8628030  HIT:    8161164  MISS:     466866  HIT %:     94.589  MISS %:    5.41104   MPKI: 2.33433
STLB LOAD TRANSLATION ACCESS:    3374180  HIT:    2911962  MISS:     462218  HIT %:    86.3013  MISS %:    13.6987   MPKI: 2.31109
STLB TRANSLATION FROM L1D PREFETCHER ACCESS:    5253850  HIT:    5249202  MISS:       4648  HIT %:    99.9115  MISS %:  0.0884685   MPKI: 0.02324
STLB PREFETCH  REQUESTED:          0  ISSUED:          0  USEFUL:       3822  USELESS:        826
STLB USEFUL LOAD PREFETCHES:       3822 PREFETCH ISSUED TO LOWER LEVEL:          0  ACCURACY: inf
STLB TIMELY PREFETCHES:       3822 LATE PREFETCHES: 1009 DROPPED PREFETCHES: 98075
STLB PREFETCHES SAME FILL-ORIGIN LEVEL: 0 DIFFERENT FILL-ORIGIN LEVEL: 0
STLB AVERAGE MISS LATENCY: 39.4455 cycles
STLB RQ	ACCESS:   10207134	FORWARD:          0	MERGED:    1479609	TO_CACHE:    8727525

STLB Hit, L1D data hit: 0
STLB Hit, L2C data hit: 0
STLB Hit, LLC data hit: 0
STLB Hit, LLC data miss: 0
STLB STLB hints to L2: 0
L1D TOTAL     ACCESS:   54085747  HIT:   51520958  MISS:    2564789  HIT %:    95.2579  MISS %:    4.74208   MPKI: 12.8239
L1D LOAD      ACCESS:   27931797  HIT:   25800302  MISS:    2131495  HIT %:    92.3689  MISS %:    7.63107   MPKI: 10.6575
L1D RFO       ACCESS:   19510479  HIT:   19158202  MISS:     352277  HIT %:    98.1944  MISS %:    1.80558   MPKI: 1.76138
L1D PREFETCH  ACCESS:    6643471  HIT:    6562454  MISS:      81017  HIT %:    98.7805  MISS %:     1.2195   MPKI: 0.405085
AGUS PREFETCH L1 MISS: 0
L1D PREFETCH  REQUESTED:   14532870  ISSUED:   14532451  USEFUL:      51251  USELESS:      29755
L1D USEFUL LOAD PREFETCHES:      51251 PREFETCH ISSUED TO LOWER LEVEL:     104181  ACCURACY: 49.1942
L1D TIMELY PREFETCHES:      51251 LATE PREFETCHES: 22986 DROPPED PREFETCHES: 129018
L1D PREFETCHES SAME FILL-ORIGIN LEVEL: 104181 DIFFERENT FILL-ORIGIN LEVEL: 0
L1D AVERAGE MISS LATENCY: 2.86943e+06 cycles
L1D RQ	ACCESS:   42091882	FORWARD:          0	MERGED:   13826950	TO_CACHE:   28073898
L1D WQ	ACCESS:   20246575	FORWARD:     238579	MERGED:     326364	TO_CACHE:   19920211
L1D PQ	ACCESS:    7699498	FORWARD:          0	MERGED:     819000	TO_CACHE:    6832953

L1D UNIQUE REGIONS ACCESSED: 0
L1D REGIONS CONFLICTS: 0
L1D Cross Page Prefetch Requests: 6119651
L1D Same Page Prefetch Requests: 2551673
L1D ROI Sum of L1D PQ occupancy: 101713292
L1D PREFETCHES PUSHED FROM L2C: 0
L1I TOTAL     ACCESS:   36706706  HIT:   31452228  MISS:    5254478  HIT %:    85.6852  MISS %:    14.3148   MPKI: 26.2724
L1I LOAD      ACCESS:   36706706  HIT:   31452228  MISS:    5254478  HIT %:    85.6852  MISS %:    14.3148   MPKI: 26.2724
L1I PREFETCH  REQUESTED:          0  ISSUED:          0  USEFUL:          0  USELESS:          0
L1I USEFUL LOAD PREFETCHES:          0 PREFETCH ISSUED TO LOWER LEVEL:          0  ACCURACY: -nan
L1I TIMELY PREFETCHES:          0 LATE PREFETCHES: 0 DROPPED PREFETCHES: 0
L1I PREFETCHES SAME FILL-ORIGIN LEVEL: 0 DIFFERENT FILL-ORIGIN LEVEL: 0
L1I AVERAGE MISS LATENCY: 27.7757 cycles
L1I RQ	ACCESS:   57194848	FORWARD:          0	MERGED:   18790978	TO_CACHE:   38403870

BTB TOTAL     ACCESS:   22787434  HIT:   17577150  MISS:    5210284  HIT %:    77.1353  MISS %:    22.8647   MPKI: 26.0514
BTB BRANCH_DIRECT_JUMP	ACCESS:    1802124  HIT:    1488715  MISS:     313409
BTB BRANCH_INDIRECT	ACCESS:    9657284  HIT:    7208240  MISS:    2449044
BTB BRANCH_CONDITIONAL	ACCESS:    4724018  HIT:    4227730  MISS:     496288
BTB BRANCH_DIRECT_CALL	ACCESS:    2593017  HIT:    1983731  MISS:     609286
BTB BRANCH_INDIRECT_CALL	ACCESS:     705122  HIT:     643336  MISS:      61786
BTB BRANCH_RETURN	ACCESS:    3305869  HIT:    2025398  MISS:    1280471
BTB BRANCH_OTHER ACCESS:          0  HIT:          0  MISS:          0

L2C TOTAL     ACCESS:    9541045  HIT:    5592525  MISS:    3948520  HIT %:    58.6154  MISS %:    41.3846   MPKI: 19.7426
L2C LOAD      ACCESS:    7362939  HIT:    3892305  MISS:    3470634  HIT %:    52.8635  MISS %:    47.1365   MPKI: 17.3532
L2C DATA LOAD MPKI: 5.67155
L2C INSTRUCTION LOAD MPKI: 11.6816
L2C RFO       ACCESS:     352098  HIT:     185208  MISS:     166890  HIT %:    52.6013  MISS %:    47.3987   MPKI: 0.83445
L2C PREFETCH  ACCESS:     104171  HIT:      75747  MISS:      28424  HIT %:    72.7141  MISS %:    27.2859   MPKI: 0.14212
AGUS PREFETCH L1 MISS: 0
L2C DATA PREFETCH MPKI: 0.14212
L2C INSTRUCTION PREFETCH MPKI: 0
L2C WRITEBACK ACCESS:    1004934  HIT:     949954  MISS:      54980  HIT %:     94.529  MISS %:    5.47101   MPKI: 0.2749
L2C LOAD TRANSLATION ACCESS:     583847  HIT:     372024  MISS:     211823  HIT %:    63.7194  MISS %:    36.2806   MPKI: 1.05912
L2C TRANSLATION FROM L1D PREFETCHER ACCESS:     133056  HIT:     117287  MISS:      15769  HIT %:    88.1486  MISS %:    11.8514   MPKI: 0.078845
L2C PREFETCH  REQUESTED:          0  ISSUED:          0  USEFUL:      13320  USELESS:      30865
L2C USEFUL LOAD PREFETCHES:      13320 PREFETCH ISSUED TO LOWER LEVEL:      28424  ACCURACY: 46.8618
L2C TIMELY PREFETCHES:      13320 LATE PREFETCHES: 0 DROPPED PREFETCHES: 0
L2C PREFETCHES SAME FILL-ORIGIN LEVEL: 0 DIFFERENT FILL-ORIGIN LEVEL: 0
L2C AVERAGE MISS LATENCY: 40.8376 cycles
L2C RQ	ACCESS:    8431989	FORWARD:          0	MERGED:          0	TO_CACHE:    8431940
L2C WQ	ACCESS:    1004934	FORWARD:         59	MERGED:          0	TO_CACHE:    1004934
L2C PQ	ACCESS:     104181	FORWARD:          0	MERGED:          0	TO_CACHE:     104171

L2C Instructions Evicting Data 814505
L2C Translations Evicting Data 81532
L2C Data Evicting Data 469135
L2C Instructions Evicting Instructions 1389266
L2C Translations Evicting Instructions 133408
L2C Data Evicting Instructions 781235
L2C Instructions Evicting Translations 132553
L2C Translations Evicting Translations 12652
L2C Data Evicting Translations 79254
L2C Dense regions hint from L2: 0
PSCL5 TOTAL     ACCESS:     559990  HIT:     559990  MISS:          0  HIT %:        100  MISS %:          0   MPKI: 0
PSCL5 LOAD TRANSLATION ACCESS:     461209  HIT:     461209  MISS:          0  HIT %:        100  MISS %:          0   MPKI: 0
PSCL5 TRANSLATION FROM L1D PREFETCHER ACCESS:      98781  HIT:      98781  MISS:          0  HIT %:        100  MISS %:          0   MPKI: 0
PSCL5 PREFETCH  REQUESTED:          0  ISSUED:          0  USEFUL:          0  USELESS:          0
PSCL5 USEFUL LOAD PREFETCHES:          0 PREFETCH ISSUED TO LOWER LEVEL:          0  ACCURACY: -nan
PSCL5 TIMELY PREFETCHES:          0 LATE PREFETCHES: 0 DROPPED PREFETCHES: 0
PSCL5 PREFETCHES SAME FILL-ORIGIN LEVEL: 0 DIFFERENT FILL-ORIGIN LEVEL: 0

PSCL4 TOTAL     ACCESS:     524089  HIT:     522764  MISS:       1325  HIT %:    99.7472  MISS %:    0.25282   MPKI: 0.006625
PSCL4 LOAD TRANSLATION ACCESS:     438458  HIT:     437133  MISS:       1325  HIT %:    99.6978  MISS %:   0.302195   MPKI: 0.006625
PSCL4 TRANSLATION FROM L1D PREFETCHER ACCESS:      85631  HIT:      85631  MISS:          0  HIT %:        100  MISS %:          0   MPKI: 0
PSCL4 PREFETCH  REQUESTED:          0  ISSUED:          0  USEFUL:          0  USELESS:          0
PSCL4 USEFUL LOAD PREFETCHES:          0 PREFETCH ISSUED TO LOWER LEVEL:          0  ACCURACY: -nan
PSCL4 TIMELY PREFETCHES:          0 LATE PREFETCHES: 0 DROPPED PREFETCHES: 0
PSCL4 PREFETCHES SAME FILL-ORIGIN LEVEL: 0 DIFFERENT FILL-ORIGIN LEVEL: 0

PSCL3 TOTAL     ACCESS:     539769  HIT:     535862  MISS:       3907  HIT %:    99.2762  MISS %:   0.723828   MPKI: 0.019535
PSCL3 LOAD TRANSLATION ACCESS:     457992  HIT:     454085  MISS:       3907  HIT %:    99.1469  MISS %:   0.853072   MPKI: 0.019535
PSCL3 TRANSLATION FROM L1D PREFETCHER ACCESS:      81777  HIT:      81777  MISS:          0  HIT %:        100  MISS %:          0   MPKI: 0
PSCL3 PREFETCH  REQUESTED:          0  ISSUED:          0  USEFUL:          0  USELESS:          0
PSCL3 USEFUL LOAD PREFETCHES:          0 PREFETCH ISSUED TO LOWER LEVEL:          0  ACCURACY: -nan
PSCL3 TIMELY PREFETCHES:          0 LATE PREFETCHES: 0 DROPPED PREFETCHES: 0
PSCL3 PREFETCHES SAME FILL-ORIGIN LEVEL: 0 DIFFERENT FILL-ORIGIN LEVEL: 0

PSCL2 TOTAL     ACCESS:     474811  HIT:     354490  MISS:     120321  HIT %:    74.6592  MISS %:    25.3408   MPKI: 0.601605
PSCL2 LOAD TRANSLATION ACCESS:     464010  HIT:     343689  MISS:     120321  HIT %:    74.0693  MISS %:    25.9307   MPKI: 0.601605
PSCL2 TRANSLATION FROM L1D PREFETCHER ACCESS:      10801  HIT:      10801  MISS:          0  HIT %:        100  MISS %:          0   MPKI: 0
PSCL2 PREFETCH  REQUESTED:          0  ISSUED:          0  USEFUL:          0  USELESS:          0
PSCL2 USEFUL LOAD PREFETCHES:          0 PREFETCH ISSUED TO LOWER LEVEL:          0  ACCURACY: -nan
PSCL2 TIMELY PREFETCHES:          0 LATE PREFETCHES: 0 DROPPED PREFETCHES: 0
PSCL2 PREFETCHES SAME FILL-ORIGIN LEVEL: 0 DIFFERENT FILL-ORIGIN LEVEL: 0

LLC TOTAL     ACCESS:    4361970  HIT:    4081622  MISS:     280348  HIT %:    93.5729  MISS %:     6.4271   MPKI: 1.40174
LLC LOAD      ACCESS:    3470633  HIT:    3247351  MISS:     223282  HIT %:    93.5665  MISS %:    6.43347   MPKI: 1.11641
LLC RFO       ACCESS:     166890  HIT:     120729  MISS:      46161  HIT %:    72.3405  MISS %:    27.6595   MPKI: 0.230805
LLC PREFETCH  ACCESS:      28424  HIT:      25108  MISS:       3316  HIT %:    88.3338  MISS %:    11.6662   MPKI: 0.01658
AGUS PREFETCH L1 MISS: 0
LLC WRITEBACK ACCESS:     468431  HIT:     466236  MISS:       2195  HIT %:    99.5314  MISS %:   0.468586   MPKI: 0.010975
LLC LOAD TRANSLATION ACCESS:     211823  HIT:     207459  MISS:       4364  HIT %:    97.9398  MISS %:    2.06021   MPKI: 0.02182
LLC TRANSLATION FROM L1D PREFETCHER ACCESS:      15769  HIT:      14739  MISS:       1030  HIT %:    93.4682  MISS %:     6.5318   MPKI: 0.00515
LLC PREFETCH  REQUESTED:          0  ISSUED:          0  USEFUL:       1098  USELESS:       3236
LLC USEFUL LOAD PREFETCHES:       1098 PREFETCH ISSUED TO LOWER LEVEL:       3316  ACCURACY: 33.1122
LLC TIMELY PREFETCHES:       1098 LATE PREFETCHES: 0 DROPPED PREFETCHES: 0
LLC PREFETCHES SAME FILL-ORIGIN LEVEL: 0 DIFFERENT FILL-ORIGIN LEVEL: 0
LLC AVERAGE MISS LATENCY: 158.397 cycles
LLC RQ	ACCESS:    3865116	FORWARD:          0	MERGED:          0	TO_CACHE:    3865115
LLC WQ	ACCESS:     468431	FORWARD:          1	MERGED:          0	TO_CACHE:     468431
LLC PQ	ACCESS:      28424	FORWARD:          0	MERGED:          0	TO_CACHE:      28424

LLC Dense regions hint to LLC: 0

RAW hits: 2725865
Loads Generated: 44817751
Loads sent to L1D: 42091882
Stores Generated: 20246566
Stores sent to L1D: 20246575
Major fault: 0 Minor fault: 6553
Allocated PAGES: 6553
Completed 

DRAM Statistics
 CHANNEL 0
 RQ ROW_BUFFER_HIT:      39800  ROW_BUFFER_MISS:     238353
 DBUS_CONGESTED:         89
 WQ ROW_BUFFER_HIT:      22876  ROW_BUFFER_MISS:     195170  FULL:          0

 AVG_CONGESTED_CYCLE: 4
 All warmup complete: 2
Channel 0 Bank busy for read cycles: 0
Channel 0 Bank busy for write cycles: 0
Channel 0
Rank 0
0banks busy for read cycles: 423289857
0banks busy for write cycles: 135472
1banks busy for read cycles: 27382098
1banks busy for write cycles: 18879331
2banks busy for read cycles: 3363836
2banks busy for write cycles: 3982754
3banks busy for read cycles: 465343
3banks busy for write cycles: 1122146
4banks busy for read cycles: 206422
4banks busy for write cycles: 468187
5banks busy for read cycles: 80506
5banks busy for write cycles: 237409
6banks busy for read cycles: 42738
6banks busy for write cycles: 161734
7banks busy for read cycles: 31452
7banks busy for write cycles: 162637
8banks busy for read cycles: 67329
8banks busy for write cycles: 252745

CPU 0 Branch Prediction Accuracy: 99.7599% MPKI: 0.43378 Average ROB Occupancy at Mispredict: 30.481
Branch types
NOT_BRANCH: 163865477 81.9327%
BRANCH_DIRECT_JUMP: 1802124 0.901062%
BRANCH_INDIRECT: 9657284 4.82864%
BRANCH_CONDITIONAL: 18071065 9.03553%
BRANCH_DIRECT_CALL: 2593017 1.29651%
BRANCH_INDIRECT_CALL: 705122 0.352561%
BRANCH_RETURN: 3305869 1.65293%
BRANCH_OTHER: 0 0%

DRAM PAGES: 1048576
Allocated PAGES: 6553
