
*** ChampSim Multicore Out-of-Order Simulator ***

Warmup Instructions: 50000000
Simulation Instructions: 200000000
Number of CPUs: 1
LLC sets: 2048
LLC ways: 16
Off-chip DRAM Size: 4096 MB Channels: 1 Width: 64-bit Data Rate: 6400 MT/s
CPU 0 runs traces/spec2k17/server_034.champsimtrace.xz
.xz
BTB has LRU replacement policy
ITLB has LRU replacement policy
DTLB has LRU replacement policy
STLB has LRU replacement policy
L1I has LRU replacement policy
L1D has LRU replacement policy
Initialize SRRIP state for L2C
Initialize DRRIP state for LLC
Heartbeat CPU 0 instructions: 10000001 cycles: 2812977 heartbeat IPC: 3.55495 cumulative IPC: 3.55495 (Simulation time: 0 hr 0 min 33 sec) 
Heartbeat CPU 0 instructions: 20000003 cycles: 5620639 heartbeat IPC: 3.56168 cumulative IPC: 3.55831 (Simulation time: 0 hr 1 min 6 sec) 
Heartbeat CPU 0 instructions: 30000001 cycles: 8435111 heartbeat IPC: 3.55306 cumulative IPC: 3.55656 (Simulation time: 0 hr 1 min 38 sec) 
Heartbeat CPU 0 instructions: 40000002 cycles: 11256476 heartbeat IPC: 3.54438 cumulative IPC: 3.55351 (Simulation time: 0 hr 2 min 8 sec) 
Heartbeat CPU 0 instructions: 50000001 cycles: 14077663 heartbeat IPC: 3.54461 cumulative IPC: 3.55173 (Simulation time: 0 hr 2 min 39 sec) 

Warmup complete CPU 0 instructions: 50000001 cycles: 14077663 (Simulation time: 0 hr 2 min 39 sec) 

Heartbeat CPU 0 instructions: 60000003 cycles: 40029390 heartbeat IPC: 0.385331 cumulative IPC: 0.385331 (Simulation time: 0 hr 3 min 28 sec) 
Heartbeat CPU 0 instructions: 70000000 cycles: 65439789 heartbeat IPC: 0.39354 cumulative IPC: 0.389392 (Simulation time: 0 hr 4 min 23 sec) 
Heartbeat CPU 0 instructions: 80000002 cycles: 91480354 heartbeat IPC: 0.384016 cumulative IPC: 0.387583 (Simulation time: 0 hr 5 min 21 sec) 
Heartbeat CPU 0 instructions: 90000003 cycles: 117419695 heartbeat IPC: 0.385515 cumulative IPC: 0.387064 (Simulation time: 0 hr 6 min 20 sec) 
Heartbeat CPU 0 instructions: 100000000 cycles: 143332254 heartbeat IPC: 0.385913 cumulative IPC: 0.386833 (Simulation time: 0 hr 7 min 19 sec) 
*** Reached end of trace for Core: 0 Repeating trace: traces/spec2k17/server_034.champsimtrace.xz
Heartbeat CPU 0 instructions: 110000000 cycles: 169282260 heartbeat IPC: 0.385356 cumulative IPC: 0.386586 (Simulation time: 0 hr 8 min 17 sec) 
Heartbeat CPU 0 instructions: 120000001 cycles: 194676850 heartbeat IPC: 0.393785 cumulative IPC: 0.387599 (Simulation time: 0 hr 9 min 16 sec) 
Heartbeat CPU 0 instructions: 130000000 cycles: 220820884 heartbeat IPC: 0.382496 cumulative IPC: 0.386953 (Simulation time: 0 hr 10 min 14 sec) 
Heartbeat CPU 0 instructions: 140000001 cycles: 247119766 heartbeat IPC: 0.380244 cumulative IPC: 0.386196 (Simulation time: 0 hr 11 min 12 sec) 
Heartbeat CPU 0 instructions: 150000003 cycles: 273194015 heartbeat IPC: 0.38352 cumulative IPC: 0.385927 (Simulation time: 0 hr 12 min 10 sec) 
Heartbeat CPU 0 instructions: 160000000 cycles: 299032318 heartbeat IPC: 0.387022 cumulative IPC: 0.386026 (Simulation time: 0 hr 13 min 8 sec) 
Heartbeat CPU 0 instructions: 170000001 cycles: 324863686 heartbeat IPC: 0.387126 cumulative IPC: 0.386118 (Simulation time: 0 hr 14 min 6 sec) 
Heartbeat CPU 0 instructions: 180000002 cycles: 350148627 heartbeat IPC: 0.395492 cumulative IPC: 0.386823 (Simulation time: 0 hr 15 min 6 sec) 
Heartbeat CPU 0 instructions: 190000002 cycles: 376062324 heartbeat IPC: 0.385896 cumulative IPC: 0.386757 (Simulation time: 0 hr 16 min 5 sec) 
Heartbeat CPU 0 instructions: 200000000 cycles: 401963556 heartbeat IPC: 0.386082 cumulative IPC: 0.386712 (Simulation time: 0 hr 17 min 1 sec) 
*** Reached end of trace for Core: 0 Repeating trace: traces/spec2k17/server_034.champsimtrace.xz
Heartbeat CPU 0 instructions: 210000000 cycles: 427898753 heartbeat IPC: 0.385576 cumulative IPC: 0.386641 (Simulation time: 0 hr 17 min 58 sec) 
Heartbeat CPU 0 instructions: 220000000 cycles: 453726343 heartbeat IPC: 0.387183 cumulative IPC: 0.386672 (Simulation time: 0 hr 18 min 56 sec) 
Heartbeat CPU 0 instructions: 230000000 cycles: 479220803 heartbeat IPC: 0.392242 cumulative IPC: 0.386978 (Simulation time: 0 hr 19 min 55 sec) 
Heartbeat CPU 0 instructions: 240000000 cycles: 505507151 heartbeat IPC: 0.380426 cumulative IPC: 0.386627 (Simulation time: 0 hr 20 min 55 sec) 
Heartbeat CPU 0 instructions: 250000001 cycles: 531669440 heartbeat IPC: 0.38223 cumulative IPC: 0.386405 (Simulation time: 0 hr 21 min 55 sec) 
Finished CPU 0 instructions: 200000000 cycles: 517591777 cumulative IPC: 0.386405 (Simulation time: 0 hr 21 min 55 sec) 

ChampSim completed all CPUs

Region of Interest Statistics

CPU 0 cumulative IPC: 0.386405 instructions: 200000000 cycles: 517591777
ITLB TOTAL     ACCESS:   35659721  HIT:   33627370  MISS:    2032351  HIT %:    94.3007  MISS %:    5.69929   MPKI: 10.1618
ITLB LOAD TRANSLATION ACCESS:   35659721  HIT:   33627370  MISS:    2032351  HIT %:    94.3007  MISS %:    5.69929   MPKI: 10.1618
ITLB PREFETCH  REQUESTED:          0  ISSUED:          0  USEFUL:          0  USELESS:          0
ITLB USEFUL LOAD PREFETCHES:          0 PREFETCH ISSUED TO LOWER LEVEL:          0  ACCURACY: -nan
ITLB TIMELY PREFETCHES:          0 LATE PREFETCHES: 0 DROPPED PREFETCHES: 0
ITLB PREFETCHES SAME FILL-ORIGIN LEVEL: 0 DIFFERENT FILL-ORIGIN LEVEL: 0
ITLB AVERAGE MISS LATENCY: 9.03471 cycles
ITLB RQ	ACCESS:   41323593	FORWARD:          0	MERGED:    5213047	TO_CACHE:   36110546

DTLB TOTAL     ACCESS:   39391659  HIT:   37804194  MISS:    1587465  HIT %:      95.97  MISS %:    4.02995   MPKI: 7.93733
DTLB LOAD TRANSLATION ACCESS:   39391659  HIT:   37804194  MISS:    1587465  HIT %:      95.97  MISS %:    4.02995   MPKI: 7.93733
DTLB PREFETCH  REQUESTED:          0  ISSUED:          0  USEFUL:          0  USELESS:          0
DTLB USEFUL LOAD PREFETCHES:          0 PREFETCH ISSUED TO LOWER LEVEL:          0  ACCURACY: -nan
DTLB TIMELY PREFETCHES:          0 LATE PREFETCHES: 0 DROPPED PREFETCHES: 0
DTLB PREFETCHES SAME FILL-ORIGIN LEVEL: 0 DIFFERENT FILL-ORIGIN LEVEL: 0
DTLB AVERAGE MISS LATENCY: 8.72847 cycles
DTLB RQ	ACCESS:   54987080	FORWARD:          0	MERGED:   15509062	TO_CACHE:   39478018

STLB TOTAL     ACCESS:   12280735  HIT:   12278007  MISS:       2728  HIT %:    99.9778  MISS %:  0.0222137   MPKI: 0.01364
STLB LOAD TRANSLATION ACCESS:    3619816  HIT:    3617250  MISS:       2566  HIT %:    99.9291  MISS %:  0.0708876   MPKI: 0.01283
STLB TRANSLATION FROM L1D PREFETCHER ACCESS:    8660919  HIT:    8660757  MISS:        162  HIT %:    99.9981  MISS %: 0.00187047   MPKI: 0.00081
STLB PREFETCH  REQUESTED:          0  ISSUED:          0  USEFUL:        160  USELESS:          2
STLB USEFUL LOAD PREFETCHES:        160 PREFETCH ISSUED TO LOWER LEVEL:          0  ACCURACY: inf
STLB TIMELY PREFETCHES:        160 LATE PREFETCHES: 0 DROPPED PREFETCHES: 273622
STLB PREFETCHES SAME FILL-ORIGIN LEVEL: 0 DIFFERENT FILL-ORIGIN LEVEL: 0
STLB AVERAGE MISS LATENCY: 32.3233 cycles
STLB RQ	ACCESS:   15485327	FORWARD:          0	MERGED:    2929690	TO_CACHE:   12555637

STLB Hit, L1D data hit: 0
STLB Hit, L2C data hit: 0
STLB Hit, LLC data hit: 0
STLB Hit, LLC data miss: 0
STLB STLB hints to L2: 0
L1D TOTAL     ACCESS:   65798224  HIT:   63009147  MISS:    2789077  HIT %:    95.7612  MISS %:    4.23883   MPKI: 13.9454
L1D LOAD      ACCESS:   30241697  HIT:   28380285  MISS:    1861412  HIT %:    93.8449  MISS %:    6.15512   MPKI: 9.30706
L1D RFO       ACCESS:   24350180  HIT:   23965553  MISS:     384627  HIT %:    98.4204  MISS %:    1.57957   MPKI: 1.92314
L1D PREFETCH  ACCESS:   11206347  HIT:   10663309  MISS:     543038  HIT %:    95.1542  MISS %:    4.84581   MPKI: 2.71519
AGUS PREFETCH L1 MISS: 0
L1D PREFETCH  REQUESTED:   25225711  ISSUED:   25225700  USEFUL:     342751  USELESS:     200266
L1D USEFUL LOAD PREFETCHES:     342751 PREFETCH ISSUED TO LOWER LEVEL:     716787  ACCURACY: 47.8177
L1D TIMELY PREFETCHES:     342751 LATE PREFETCHES: 173374 DROPPED PREFETCHES: 312235
L1D PREFETCHES SAME FILL-ORIGIN LEVEL: 716787 DIFFERENT FILL-ORIGIN LEVEL: 0
L1D AVERAGE MISS LATENCY: 1.90246e+07 cycles
L1D RQ	ACCESS:   43331362	FORWARD:          0	MERGED:   12711582	TO_CACHE:   30272038
L1D WQ	ACCESS:   24968545	FORWARD:     397148	MERGED:     253503	TO_CACHE:   24715042
L1D PQ	ACCESS:   13360189	FORWARD:          0	MERGED:    1445272	TO_CACHE:   11865511

L1D UNIQUE REGIONS ACCESSED: 0
L1D REGIONS CONFLICTS: 0
L1D Cross Page Prefetch Requests: 8984611
L1D Same Page Prefetch Requests: 5725371
L1D ROI Sum of L1D PQ occupancy: 176578037
L1D PREFETCHES PUSHED FROM L2C: 0
L1I TOTAL     ACCESS:   38737172  HIT:   26142081  MISS:   12595091  HIT %:    67.4858  MISS %:    32.5142   MPKI: 62.9755
L1I LOAD      ACCESS:   38737172  HIT:   26142081  MISS:   12595091  HIT %:    67.4858  MISS %:    32.5142   MPKI: 62.9755
L1I PREFETCH  REQUESTED:          0  ISSUED:          0  USEFUL:          0  USELESS:          0
L1I USEFUL LOAD PREFETCHES:          0 PREFETCH ISSUED TO LOWER LEVEL:          0  ACCURACY: -nan
L1I TIMELY PREFETCHES:          0 LATE PREFETCHES: 0 DROPPED PREFETCHES: 0
L1I PREFETCHES SAME FILL-ORIGIN LEVEL: 0 DIFFERENT FILL-ORIGIN LEVEL: 0
L1I AVERAGE MISS LATENCY: 14.2537 cycles
L1I RQ	ACCESS:   61102817	FORWARD:          0	MERGED:   19779224	TO_CACHE:   41323593

BTB TOTAL     ACCESS:   31187081  HIT:   22748972  MISS:    8438109  HIT %:    72.9436  MISS %:    27.0564   MPKI: 42.1905
BTB BRANCH_DIRECT_JUMP	ACCESS:    2936764  HIT:    2316190  MISS:     620574
BTB BRANCH_INDIRECT	ACCESS:   13065636  HIT:    9451143  MISS:    3614493
BTB BRANCH_CONDITIONAL	ACCESS:    5550027  HIT:    4880620  MISS:     669407
BTB BRANCH_DIRECT_CALL	ACCESS:    4007660  HIT:    3039316  MISS:     968344
BTB BRANCH_INDIRECT_CALL	ACCESS:     809679  HIT:     470392  MISS:     339287
BTB BRANCH_RETURN	ACCESS:    4817315  HIT:    2591311  MISS:    2226004
BTB BRANCH_OTHER ACCESS:          0  HIT:          0  MISS:          0

L2C TOTAL     ACCESS:   16782891  HIT:   16481329  MISS:     301562  HIT %:    98.2032  MISS %:    1.79684   MPKI: 1.50781
L2C LOAD      ACCESS:   14283125  HIT:   14052419  MISS:     230706  HIT %:    98.3848  MISS %:    1.61523   MPKI: 1.15353
L2C DATA LOAD MPKI: 0.75442
L2C INSTRUCTION LOAD MPKI: 0.39911
L2C RFO       ACCESS:     384251  HIT:     347681  MISS:      36570  HIT %:    90.4828  MISS %:    9.51722   MPKI: 0.18285
L2C PREFETCH  ACCESS:     716763  HIT:     698120  MISS:      18643  HIT %:     97.399  MISS %:      2.601   MPKI: 0.093215
AGUS PREFETCH L1 MISS: 0
L2C DATA PREFETCH MPKI: 0.093215
L2C INSTRUCTION PREFETCH MPKI: 0
L2C WRITEBACK ACCESS:     967220  HIT:     955270  MISS:      11950  HIT %:    98.7645  MISS %:     1.2355   MPKI: 0.05975
L2C LOAD TRANSLATION ACCESS:       2593  HIT:       1658  MISS:        935  HIT %:    63.9414  MISS %:    36.0586   MPKI: 0.004675
L2C TRANSLATION FROM L1D PREFETCHER ACCESS:     428939  HIT:     426181  MISS:       2758  HIT %:     99.357  MISS %:   0.642982   MPKI: 0.01379
L2C PREFETCH  REQUESTED:          0  ISSUED:          0  USEFUL:       5271  USELESS:      16098
L2C USEFUL LOAD PREFETCHES:       5271 PREFETCH ISSUED TO LOWER LEVEL:      18643  ACCURACY: 28.2733
L2C TIMELY PREFETCHES:       5271 LATE PREFETCHES: 0 DROPPED PREFETCHES: 0
L2C PREFETCHES SAME FILL-ORIGIN LEVEL: 0 DIFFERENT FILL-ORIGIN LEVEL: 0
L2C AVERAGE MISS LATENCY: 31.1573 cycles
L2C RQ	ACCESS:   15098913	FORWARD:          0	MERGED:          0	TO_CACHE:   15098908
L2C WQ	ACCESS:     967220	FORWARD:         29	MERGED:          0	TO_CACHE:     967220
L2C PQ	ACCESS:     716787	FORWARD:          0	MERGED:          0	TO_CACHE:     716763

L2C Instructions Evicting Data 27679
L2C Translations Evicting Data 2967
L2C Data Evicting Data 178917
L2C Instructions Evicting Instructions 51456
L2C Translations Evicting Instructions 702
L2C Data Evicting Instructions 24536
L2C Instructions Evicting Translations 687
L2C Translations Evicting Translations 24
L2C Data Evicting Translations 2644
L2C Dense regions hint from L2: 0
PSCL5 TOTAL     ACCESS:     249064  HIT:     249064  MISS:          0  HIT %:        100  MISS %:          0   MPKI: 0
PSCL5 LOAD TRANSLATION ACCESS:       2566  HIT:       2566  MISS:          0  HIT %:        100  MISS %:          0   MPKI: 0
PSCL5 TRANSLATION FROM L1D PREFETCHER ACCESS:     246498  HIT:     246498  MISS:          0  HIT %:        100  MISS %:          0   MPKI: 0
PSCL5 PREFETCH  REQUESTED:          0  ISSUED:          0  USEFUL:          0  USELESS:          0
PSCL5 USEFUL LOAD PREFETCHES:          0 PREFETCH ISSUED TO LOWER LEVEL:          0  ACCURACY: -nan
PSCL5 TIMELY PREFETCHES:          0 LATE PREFETCHES: 0 DROPPED PREFETCHES: 0
PSCL5 PREFETCHES SAME FILL-ORIGIN LEVEL: 0 DIFFERENT FILL-ORIGIN LEVEL: 0

PSCL4 TOTAL     ACCESS:      76680  HIT:      76679  MISS:          1  HIT %:    99.9987  MISS %: 0.00130412   MPKI: 5e-06
PSCL4 LOAD TRANSLATION ACCESS:       1498  HIT:       1497  MISS:          1  HIT %:    99.9332  MISS %:  0.0667557   MPKI: 5e-06
PSCL4 TRANSLATION FROM L1D PREFETCHER ACCESS:      75182  HIT:      75182  MISS:          0  HIT %:        100  MISS %:          0   MPKI: 0
PSCL4 PREFETCH  REQUESTED:          0  ISSUED:          0  USEFUL:          0  USELESS:          0
PSCL4 USEFUL LOAD PREFETCHES:          0 PREFETCH ISSUED TO LOWER LEVEL:          0  ACCURACY: -nan
PSCL4 TIMELY PREFETCHES:          0 LATE PREFETCHES: 0 DROPPED PREFETCHES: 0
PSCL4 PREFETCHES SAME FILL-ORIGIN LEVEL: 0 DIFFERENT FILL-ORIGIN LEVEL: 0

PSCL3 TOTAL     ACCESS:     148918  HIT:     148917  MISS:          1  HIT %:    99.9993  MISS %: 0.00067151   MPKI: 5e-06
PSCL3 LOAD TRANSLATION ACCESS:       2355  HIT:       2354  MISS:          1  HIT %:    99.9575  MISS %:  0.0424628   MPKI: 5e-06
PSCL3 TRANSLATION FROM L1D PREFETCHER ACCESS:     146563  HIT:     146563  MISS:          0  HIT %:        100  MISS %:          0   MPKI: 0
PSCL3 PREFETCH  REQUESTED:          0  ISSUED:          0  USEFUL:          0  USELESS:          0
PSCL3 USEFUL LOAD PREFETCHES:          0 PREFETCH ISSUED TO LOWER LEVEL:          0  ACCURACY: -nan
PSCL3 TIMELY PREFETCHES:          0 LATE PREFETCHES: 0 DROPPED PREFETCHES: 0
PSCL3 PREFETCHES SAME FILL-ORIGIN LEVEL: 0 DIFFERENT FILL-ORIGIN LEVEL: 0

PSCL2 TOTAL     ACCESS:      53973  HIT:      53948  MISS:         25  HIT %:    99.9537  MISS %:  0.0463195   MPKI: 0.000125
PSCL2 LOAD TRANSLATION ACCESS:       2566  HIT:       2541  MISS:         25  HIT %:    99.0257  MISS %:   0.974279   MPKI: 0.000125
PSCL2 TRANSLATION FROM L1D PREFETCHER ACCESS:      51407  HIT:      51407  MISS:          0  HIT %:        100  MISS %:          0   MPKI: 0
PSCL2 PREFETCH  REQUESTED:          0  ISSUED:          0  USEFUL:          0  USELESS:          0
PSCL2 USEFUL LOAD PREFETCHES:          0 PREFETCH ISSUED TO LOWER LEVEL:          0  ACCURACY: -nan
PSCL2 TIMELY PREFETCHES:          0 LATE PREFETCHES: 0 DROPPED PREFETCHES: 0
PSCL2 PREFETCHES SAME FILL-ORIGIN LEVEL: 0 DIFFERENT FILL-ORIGIN LEVEL: 0

LLC TOTAL     ACCESS:     401621  HIT:     395278  MISS:       6343  HIT %:    98.4207  MISS %:    1.57935   MPKI: 0.031715
LLC LOAD      ACCESS:     230706  HIT:     227392  MISS:       3314  HIT %:    98.5635  MISS %:    1.43646   MPKI: 0.01657
LLC RFO       ACCESS:      36570  HIT:      34609  MISS:       1961  HIT %:    94.6377  MISS %:    5.36232   MPKI: 0.009805
LLC PREFETCH  ACCESS:      18643  HIT:      17842  MISS:        801  HIT %:    95.7035  MISS %:    4.29652   MPKI: 0.004005
AGUS PREFETCH L1 MISS: 0
LLC WRITEBACK ACCESS:     112009  HIT:     111925  MISS:         84  HIT %:     99.925  MISS %:   0.074994   MPKI: 0.00042
LLC LOAD TRANSLATION ACCESS:        935  HIT:        924  MISS:         11  HIT %:    98.8235  MISS %:    1.17647   MPKI: 5.5e-05
LLC TRANSLATION FROM L1D PREFETCHER ACCESS:       2758  HIT:       2586  MISS:        172  HIT %:    93.7636  MISS %:     6.2364   MPKI: 0.00086
LLC PREFETCH  REQUESTED:          0  ISSUED:          0  USEFUL:        356  USELESS:         62
LLC USEFUL LOAD PREFETCHES:        356 PREFETCH ISSUED TO LOWER LEVEL:        801  ACCURACY: 44.4444
LLC TIMELY PREFETCHES:        356 LATE PREFETCHES: 0 DROPPED PREFETCHES: 0
LLC PREFETCHES SAME FILL-ORIGIN LEVEL: 0 DIFFERENT FILL-ORIGIN LEVEL: 0
LLC AVERAGE MISS LATENCY: 111.468 cycles
LLC RQ	ACCESS:     270969	FORWARD:          0	MERGED:          0	TO_CACHE:     270969
LLC WQ	ACCESS:     112009	FORWARD:          0	MERGED:          0	TO_CACHE:     112009
LLC PQ	ACCESS:      18643	FORWARD:          0	MERGED:          0	TO_CACHE:      18643

LLC Dense regions hint to LLC: 0

RAW hits: 2696243
Loads Generated: 46027606
Loads sent to L1D: 43331362
Stores Generated: 24968544
Stores sent to L1D: 24968545
Major fault: 0 Minor fault: 1244
Allocated PAGES: 1244
Completed 

DRAM Statistics
 CHANNEL 0
 RQ ROW_BUFFER_HIT:       3601  ROW_BUFFER_MISS:       2658
 DBUS_CONGESTED:          0
 WQ ROW_BUFFER_HIT:        112  ROW_BUFFER_MISS:        548  FULL:          0

 AVG_CONGESTED_CYCLE: -
 All warmup complete: 2
Channel 0 Bank busy for read cycles: 0
Channel 0 Bank busy for write cycles: 0
Channel 0
Rank 0
0banks busy for read cycles: 517050729
0banks busy for write cycles: 519
1banks busy for read cycles: 308618
1banks busy for write cycles: 83896
2banks busy for read cycles: 129673
2banks busy for write cycles: 12075
3banks busy for read cycles: 3082
3banks busy for write cycles: 2219
4banks busy for read cycles: 385
4banks busy for write cycles: 582
5banks busy for read cycles: 0
5banks busy for write cycles: 0
6banks busy for read cycles: 0
6banks busy for write cycles: 0
7banks busy for read cycles: 0
7banks busy for write cycles: 0
8banks busy for read cycles: 0
8banks busy for write cycles: 0

CPU 0 Branch Prediction Accuracy: 99.958% MPKI: 0.07838 Average ROB Occupancy at Mispredict: 17.2069
Branch types
NOT_BRANCH: 162686426 81.3432%
BRANCH_DIRECT_JUMP: 2936764 1.46838%
BRANCH_INDIRECT: 13065636 6.53282%
BRANCH_CONDITIONAL: 11676504 5.83825%
BRANCH_DIRECT_CALL: 4007660 2.00383%
BRANCH_INDIRECT_CALL: 809679 0.40484%
BRANCH_RETURN: 4817315 2.40866%
BRANCH_OTHER: 0 0%

DRAM PAGES: 1048576
Allocated PAGES: 1244
