
*** ChampSim Multicore Out-of-Order Simulator ***

Warmup Instructions: 50000000
Simulation Instructions: 200000000
Number of CPUs: 1
LLC sets: 2048
LLC ways: 16
Off-chip DRAM Size: 4096 MB Channels: 1 Width: 64-bit Data Rate: 6400 MT/s
CPU 0 runs traces/spec2k17/server_026.champsimtrace.xz
.xz
BTB has LRU replacement policy
ITLB has LRU replacement policy
DTLB has LRU replacement policy
STLB has LRU replacement policy
L1I has LRU replacement policy
L1D has LRU replacement policy
Initialize SRRIP state for L2C
Initialize DRRIP state for LLC
Heartbeat CPU 0 instructions: 10000003 cycles: 2823449 heartbeat IPC: 3.54177 cumulative IPC: 3.54177 (Simulation time: 0 hr 0 min 42 sec) 
Heartbeat CPU 0 instructions: 20000001 cycles: 5642020 heartbeat IPC: 3.5479 cumulative IPC: 3.54483 (Simulation time: 0 hr 1 min 17 sec) 
Heartbeat CPU 0 instructions: 30000002 cycles: 8459354 heartbeat IPC: 3.54946 cumulative IPC: 3.54637 (Simulation time: 0 hr 1 min 53 sec) 
Heartbeat CPU 0 instructions: 40000001 cycles: 11278500 heartbeat IPC: 3.54717 cumulative IPC: 3.54657 (Simulation time: 0 hr 2 min 30 sec) 
Heartbeat CPU 0 instructions: 50000000 cycles: 14096266 heartbeat IPC: 3.54891 cumulative IPC: 3.54704 (Simulation time: 0 hr 3 min 6 sec) 

Warmup complete CPU 0 instructions: 50000004 cycles: 14096267 (Simulation time: 0 hr 3 min 6 sec) 

Heartbeat CPU 0 instructions: 60000001 cycles: 46212615 heartbeat IPC: 0.311368 cumulative IPC: 0.311368 (Simulation time: 0 hr 4 min 4 sec) 
*** Reached end of trace for Core: 0 Repeating trace: traces/spec2k17/server_026.champsimtrace.xz
Heartbeat CPU 0 instructions: 70000000 cycles: 78185487 heartbeat IPC: 0.312765 cumulative IPC: 0.312065 (Simulation time: 0 hr 5 min 2 sec) 
Heartbeat CPU 0 instructions: 80000000 cycles: 110062031 heartbeat IPC: 0.31371 cumulative IPC: 0.312611 (Simulation time: 0 hr 6 min 4 sec) 
Heartbeat CPU 0 instructions: 90000003 cycles: 141987121 heartbeat IPC: 0.313233 cumulative IPC: 0.312767 (Simulation time: 0 hr 7 min 0 sec) 
Heartbeat CPU 0 instructions: 100000000 cycles: 173951489 heartbeat IPC: 0.312848 cumulative IPC: 0.312783 (Simulation time: 0 hr 8 min 8 sec) 
Heartbeat CPU 0 instructions: 110000000 cycles: 205792907 heartbeat IPC: 0.314056 cumulative IPC: 0.312995 (Simulation time: 0 hr 9 min 12 sec) 
Heartbeat CPU 0 instructions: 120000000 cycles: 237754008 heartbeat IPC: 0.31288 cumulative IPC: 0.312978 (Simulation time: 0 hr 10 min 14 sec) 
*** Reached end of trace for Core: 0 Repeating trace: traces/spec2k17/server_026.champsimtrace.xz
Heartbeat CPU 0 instructions: 130000002 cycles: 269490168 heartbeat IPC: 0.315098 cumulative IPC: 0.313242 (Simulation time: 0 hr 11 min 15 sec) 
Heartbeat CPU 0 instructions: 140000002 cycles: 301205699 heartbeat IPC: 0.315303 cumulative IPC: 0.313469 (Simulation time: 0 hr 12 min 18 sec) 
Heartbeat CPU 0 instructions: 150000000 cycles: 332925938 heartbeat IPC: 0.315256 cumulative IPC: 0.313647 (Simulation time: 0 hr 13 min 20 sec) 
Heartbeat CPU 0 instructions: 160000001 cycles: 364639256 heartbeat IPC: 0.315325 cumulative IPC: 0.313799 (Simulation time: 0 hr 14 min 23 sec) 
Heartbeat CPU 0 instructions: 170000000 cycles: 396390212 heartbeat IPC: 0.314951 cumulative IPC: 0.313895 (Simulation time: 0 hr 15 min 25 sec) 
Heartbeat CPU 0 instructions: 180000003 cycles: 428069795 heartbeat IPC: 0.315661 cumulative IPC: 0.31403 (Simulation time: 0 hr 16 min 26 sec) 
*** Reached end of trace for Core: 0 Repeating trace: traces/spec2k17/server_026.champsimtrace.xz
Heartbeat CPU 0 instructions: 190000000 cycles: 459680057 heartbeat IPC: 0.316353 cumulative IPC: 0.314195 (Simulation time: 0 hr 17 min 26 sec) 
Heartbeat CPU 0 instructions: 200000003 cycles: 491220979 heartbeat IPC: 0.317049 cumulative IPC: 0.314383 (Simulation time: 0 hr 18 min 30 sec) 
Heartbeat CPU 0 instructions: 210000000 cycles: 522777795 heartbeat IPC: 0.316889 cumulative IPC: 0.314539 (Simulation time: 0 hr 19 min 31 sec) 
Heartbeat CPU 0 instructions: 220000000 cycles: 554334335 heartbeat IPC: 0.316892 cumulative IPC: 0.314676 (Simulation time: 0 hr 20 min 33 sec) 
Heartbeat CPU 0 instructions: 230000000 cycles: 585942315 heartbeat IPC: 0.316376 cumulative IPC: 0.31477 (Simulation time: 0 hr 21 min 37 sec) 
Heartbeat CPU 0 instructions: 240000000 cycles: 617469198 heartbeat IPC: 0.31719 cumulative IPC: 0.314896 (Simulation time: 0 hr 22 min 39 sec) 
*** Reached end of trace for Core: 0 Repeating trace: traces/spec2k17/server_026.champsimtrace.xz
Heartbeat CPU 0 instructions: 250000003 cycles: 649041461 heartbeat IPC: 0.316734 cumulative IPC: 0.314988 (Simulation time: 0 hr 23 min 40 sec) 
Finished CPU 0 instructions: 200000003 cycles: 634945195 cumulative IPC: 0.314988 (Simulation time: 0 hr 23 min 40 sec) 

ChampSim completed all CPUs

Region of Interest Statistics

CPU 0 cumulative IPC: 0.314988 instructions: 200000003 cycles: 634945195
ITLB TOTAL     ACCESS:   34749184  HIT:   32737972  MISS:    2011212  HIT %:    94.2122  MISS %:     5.7878   MPKI: 10.0561
ITLB LOAD TRANSLATION ACCESS:   34749184  HIT:   32737972  MISS:    2011212  HIT %:    94.2122  MISS %:     5.7878   MPKI: 10.0561
ITLB PREFETCH  REQUESTED:          0  ISSUED:          0  USEFUL:          0  USELESS:          0
ITLB USEFUL LOAD PREFETCHES:          0 PREFETCH ISSUED TO LOWER LEVEL:          0  ACCURACY: -nan
ITLB TIMELY PREFETCHES:          0 LATE PREFETCHES: 0 DROPPED PREFETCHES: 0
ITLB PREFETCHES SAME FILL-ORIGIN LEVEL: 0 DIFFERENT FILL-ORIGIN LEVEL: 0
ITLB AVERAGE MISS LATENCY: 9.05028 cycles
ITLB RQ	ACCESS:   40931546	FORWARD:          0	MERGED:    5700638	TO_CACHE:   35230908

DTLB TOTAL     ACCESS:   46284215  HIT:   44447905  MISS:    1836310  HIT %:    96.0325  MISS %:    3.96746   MPKI: 9.18155
DTLB LOAD TRANSLATION ACCESS:   46284215  HIT:   44447905  MISS:    1836310  HIT %:    96.0325  MISS %:    3.96746   MPKI: 9.18155
DTLB PREFETCH  REQUESTED:          0  ISSUED:          0  USEFUL:          0  USELESS:          0
DTLB USEFUL LOAD PREFETCHES:          0 PREFETCH ISSUED TO LOWER LEVEL:          0  ACCURACY: -nan
DTLB TIMELY PREFETCHES:          0 LATE PREFETCHES: 0 DROPPED PREFETCHES: 0
DTLB PREFETCHES SAME FILL-ORIGIN LEVEL: 0 DIFFERENT FILL-ORIGIN LEVEL: 0
DTLB AVERAGE MISS LATENCY: 8.70196 cycles
DTLB RQ	ACCESS:   60887941	FORWARD:          0	MERGED:   14537952	TO_CACHE:   46349989

STLB TOTAL     ACCESS:   13968094  HIT:   13958665  MISS:       9429  HIT %:    99.9325  MISS %:  0.0675038   MPKI: 0.047145
STLB LOAD TRANSLATION ACCESS:    3847521  HIT:    3839029  MISS:       8492  HIT %:    99.7793  MISS %:   0.220714   MPKI: 0.04246
STLB TRANSLATION FROM L1D PREFETCHER ACCESS:   10120573  HIT:   10119636  MISS:        937  HIT %:    99.9907  MISS %: 0.00925837   MPKI: 0.004685
STLB PREFETCH  REQUESTED:          0  ISSUED:          0  USEFUL:        568  USELESS:        356
STLB USEFUL LOAD PREFETCHES:        568 PREFETCH ISSUED TO LOWER LEVEL:          0  ACCURACY: inf
STLB TIMELY PREFETCHES:        568 LATE PREFETCHES: 161 DROPPED PREFETCHES: 194309
STLB PREFETCHES SAME FILL-ORIGIN LEVEL: 0 DIFFERENT FILL-ORIGIN LEVEL: 0
STLB AVERAGE MISS LATENCY: 47.45 cycles
STLB RQ	ACCESS:   17025788	FORWARD:          0	MERGED:    2863047	TO_CACHE:   14162741

STLB Hit, L1D data hit: 0
STLB Hit, L2C data hit: 0
STLB Hit, LLC data hit: 0
STLB Hit, LLC data miss: 0
STLB STLB hints to L2: 0
L1D TOTAL     ACCESS:   71369038  HIT:   67006832  MISS:    4362206  HIT %:    93.8878  MISS %:    6.11218   MPKI: 21.811
L1D LOAD      ACCESS:   34192015  HIT:   31881807  MISS:    2310208  HIT %:    93.2434  MISS %:    6.75657   MPKI: 11.551
L1D RFO       ACCESS:   24909002  HIT:   23822952  MISS:    1086050  HIT %:    95.6399  MISS %:    4.36007   MPKI: 5.43025
L1D PREFETCH  ACCESS:   12268021  HIT:   11302073  MISS:     965948  HIT %:    92.1263  MISS %:    7.87371   MPKI: 4.82974
AGUS PREFETCH L1 MISS: 0
L1D PREFETCH  REQUESTED:   27558314  ISSUED:   27558015  USEFUL:     757039  USELESS:     208885
L1D USEFUL LOAD PREFETCHES:     757039 PREFETCH ISSUED TO LOWER LEVEL:    1368558  ACCURACY: 55.3165
L1D TIMELY PREFETCHES:     757039 LATE PREFETCHES: 399053 DROPPED PREFETCHES: 213588
L1D PREFETCHES SAME FILL-ORIGIN LEVEL: 1368558 DIFFERENT FILL-ORIGIN LEVEL: 0
L1D AVERAGE MISS LATENCY: 3.69064e+07 cycles
L1D RQ	ACCESS:   47427636	FORWARD:          0	MERGED:   12840866	TO_CACHE:   34289785
L1D WQ	ACCESS:   26764780	FORWARD:     319497	MERGED:     166624	TO_CACHE:   26598156
L1D PQ	ACCESS:   14379748	FORWARD:          0	MERGED:    1178969	TO_CACHE:   13178267

L1D UNIQUE REGIONS ACCESSED: 0
L1D REGIONS CONFLICTS: 0
L1D Cross Page Prefetch Requests: 10084982
L1D Same Page Prefetch Requests: 4700005
L1D ROI Sum of L1D PQ occupancy: 193223246
L1D PREFETCHES PUSHED FROM L2C: 0
L1I TOTAL     ACCESS:   39433453  HIT:   28905713  MISS:   10527740  HIT %:    73.3025  MISS %:    26.6975   MPKI: 52.6387
L1I LOAD      ACCESS:   39433453  HIT:   28905713  MISS:   10527740  HIT %:    73.3025  MISS %:    26.6975   MPKI: 52.6387
L1I PREFETCH  REQUESTED:          0  ISSUED:          0  USEFUL:          0  USELESS:          0
L1I USEFUL LOAD PREFETCHES:          0 PREFETCH ISSUED TO LOWER LEVEL:          0  ACCURACY: -nan
L1I TIMELY PREFETCHES:          0 LATE PREFETCHES: 0 DROPPED PREFETCHES: 0
L1I PREFETCHES SAME FILL-ORIGIN LEVEL: 0 DIFFERENT FILL-ORIGIN LEVEL: 0
L1I AVERAGE MISS LATENCY: 16.6684 cycles
L1I RQ	ACCESS:   57884506	FORWARD:          0	MERGED:   16952960	TO_CACHE:   40931546

BTB TOTAL     ACCESS:   29988874  HIT:   17348498  MISS:   12640376  HIT %:    57.8498  MISS %:    42.1502   MPKI: 63.2019
BTB BRANCH_DIRECT_JUMP	ACCESS:    2009045  HIT:    1127352  MISS:     881693
BTB BRANCH_INDIRECT	ACCESS:   11800645  HIT:    6994352  MISS:    4806293
BTB BRANCH_CONDITIONAL	ACCESS:    7683211  HIT:    6358422  MISS:    1324789
BTB BRANCH_DIRECT_CALL	ACCESS:    3580652  HIT:    1498236  MISS:    2082416
BTB BRANCH_INDIRECT_CALL	ACCESS:     667350  HIT:     263513  MISS:     403837
BTB BRANCH_RETURN	ACCESS:    4247971  HIT:    1106623  MISS:    3141348
BTB BRANCH_OTHER ACCESS:          0  HIT:          0  MISS:          0

L2C TOTAL     ACCESS:   17171800  HIT:   15552654  MISS:    1619146  HIT %:    90.5709  MISS %:     9.4291   MPKI: 8.09573
L2C LOAD      ACCESS:   12438851  HIT:   11282361  MISS:    1156490  HIT %:    90.7026  MISS %:     9.2974   MPKI: 5.78245
L2C DATA LOAD MPKI: 1.2824
L2C INSTRUCTION LOAD MPKI: 4.50004
L2C RFO       ACCESS:    1082485  HIT:     882678  MISS:     199807  HIT %:    81.5418  MISS %:    18.4582   MPKI: 0.999035
L2C PREFETCH  ACCESS:    1368421  HIT:    1194297  MISS:     174124  HIT %:    87.2756  MISS %:    12.7244   MPKI: 0.87062
AGUS PREFETCH L1 MISS: 0
L2C DATA PREFETCH MPKI: 0.87062
L2C INSTRUCTION PREFETCH MPKI: 0
L2C WRITEBACK ACCESS:    2000129  HIT:    1945371  MISS:      54758  HIT %:    97.2623  MISS %:    2.73772   MPKI: 0.27379
L2C LOAD TRANSLATION ACCESS:       8771  HIT:       3032  MISS:       5739  HIT %:    34.5685  MISS %:    65.4315   MPKI: 0.028695
L2C TRANSLATION FROM L1D PREFETCHER ACCESS:     273143  HIT:     244915  MISS:      28228  HIT %:    89.6655  MISS %:    10.3345   MPKI: 0.14114
L2C PREFETCH  REQUESTED:          0  ISSUED:          0  USEFUL:      28985  USELESS:     173166
L2C USEFUL LOAD PREFETCHES:      28985 PREFETCH ISSUED TO LOWER LEVEL:     174124  ACCURACY: 16.6462
L2C TIMELY PREFETCHES:      28985 LATE PREFETCHES: 0 DROPPED PREFETCHES: 0
L2C PREFETCHES SAME FILL-ORIGIN LEVEL: 0 DIFFERENT FILL-ORIGIN LEVEL: 0
L2C AVERAGE MISS LATENCY: 36.1552 cycles
L2C RQ	ACCESS:   13803302	FORWARD:          0	MERGED:          0	TO_CACHE:   13803250
L2C WQ	ACCESS:    2000129	FORWARD:        189	MERGED:          0	TO_CACHE:    2000129
L2C PQ	ACCESS:    1368558	FORWARD:          0	MERGED:          0	TO_CACHE:    1368421

L2C Instructions Evicting Data 333960
L2C Translations Evicting Data 18105
L2C Data Evicting Data 310677
L2C Instructions Evicting Instructions 551567
L2C Translations Evicting Instructions 14553
L2C Data Evicting Instructions 302755
L2C Instructions Evicting Translations 14482
L2C Translations Evicting Translations 1309
L2C Data Evicting Translations 16980
L2C Dense regions hint from L2: 0
PSCL5 TOTAL     ACCESS:     195642  HIT:     195642  MISS:          0  HIT %:        100  MISS %:          0   MPKI: 0
PSCL5 LOAD TRANSLATION ACCESS:       8331  HIT:       8331  MISS:          0  HIT %:        100  MISS %:          0   MPKI: 0
PSCL5 TRANSLATION FROM L1D PREFETCHER ACCESS:     187311  HIT:     187311  MISS:          0  HIT %:        100  MISS %:          0   MPKI: 0
PSCL5 PREFETCH  REQUESTED:          0  ISSUED:          0  USEFUL:          0  USELESS:          0
PSCL5 USEFUL LOAD PREFETCHES:          0 PREFETCH ISSUED TO LOWER LEVEL:          0  ACCURACY: -nan
PSCL5 TIMELY PREFETCHES:          0 LATE PREFETCHES: 0 DROPPED PREFETCHES: 0
PSCL5 PREFETCHES SAME FILL-ORIGIN LEVEL: 0 DIFFERENT FILL-ORIGIN LEVEL: 0

PSCL4 TOTAL     ACCESS:     147543  HIT:     147516  MISS:         27  HIT %:    99.9817  MISS %:  0.0182997   MPKI: 0.000135
PSCL4 LOAD TRANSLATION ACCESS:       8003  HIT:       7976  MISS:         27  HIT %:    99.6626  MISS %:   0.337373   MPKI: 0.000135
PSCL4 TRANSLATION FROM L1D PREFETCHER ACCESS:     139540  HIT:     139540  MISS:          0  HIT %:        100  MISS %:          0   MPKI: 0
PSCL4 PREFETCH  REQUESTED:          0  ISSUED:          0  USEFUL:          0  USELESS:          0
PSCL4 USEFUL LOAD PREFETCHES:          0 PREFETCH ISSUED TO LOWER LEVEL:          0  ACCURACY: -nan
PSCL4 TIMELY PREFETCHES:          0 LATE PREFETCHES: 0 DROPPED PREFETCHES: 0
PSCL4 PREFETCHES SAME FILL-ORIGIN LEVEL: 0 DIFFERENT FILL-ORIGIN LEVEL: 0

PSCL3 TOTAL     ACCESS:     157731  HIT:     157704  MISS:         27  HIT %:    99.9829  MISS %:  0.0171178   MPKI: 0.000135
PSCL3 LOAD TRANSLATION ACCESS:       8138  HIT:       8111  MISS:         27  HIT %:    99.6682  MISS %:   0.331777   MPKI: 0.000135
PSCL3 TRANSLATION FROM L1D PREFETCHER ACCESS:     149593  HIT:     149593  MISS:          0  HIT %:        100  MISS %:          0   MPKI: 0
PSCL3 PREFETCH  REQUESTED:          0  ISSUED:          0  USEFUL:          0  USELESS:          0
PSCL3 USEFUL LOAD PREFETCHES:          0 PREFETCH ISSUED TO LOWER LEVEL:          0  ACCURACY: -nan
PSCL3 TIMELY PREFETCHES:          0 LATE PREFETCHES: 0 DROPPED PREFETCHES: 0
PSCL3 PREFETCHES SAME FILL-ORIGIN LEVEL: 0 DIFFERENT FILL-ORIGIN LEVEL: 0

PSCL2 TOTAL     ACCESS:      55762  HIT:      55349  MISS:        413  HIT %:    99.2594  MISS %:   0.740648   MPKI: 0.002065
PSCL2 LOAD TRANSLATION ACCESS:       8357  HIT:       7944  MISS:        413  HIT %:     95.058  MISS %:    4.94196   MPKI: 0.002065
PSCL2 TRANSLATION FROM L1D PREFETCHER ACCESS:      47405  HIT:      47405  MISS:          0  HIT %:        100  MISS %:          0   MPKI: 0
PSCL2 PREFETCH  REQUESTED:          0  ISSUED:          0  USEFUL:          0  USELESS:          0
PSCL2 USEFUL LOAD PREFETCHES:          0 PREFETCH ISSUED TO LOWER LEVEL:          0  ACCURACY: -nan
PSCL2 TIMELY PREFETCHES:          0 LATE PREFETCHES: 0 DROPPED PREFETCHES: 0
PSCL2 PREFETCHES SAME FILL-ORIGIN LEVEL: 0 DIFFERENT FILL-ORIGIN LEVEL: 0

LLC TOTAL     ACCESS:    1834166  HIT:    1763896  MISS:      70270  HIT %:    96.1688  MISS %:    3.83117   MPKI: 0.35135
LLC LOAD      ACCESS:    1156487  HIT:    1137246  MISS:      19241  HIT %:    98.3363  MISS %:    1.66375   MPKI: 0.096205
LLC RFO       ACCESS:     199807  HIT:     166058  MISS:      33749  HIT %:    83.1092  MISS %:    16.8908   MPKI: 0.168745
LLC PREFETCH  ACCESS:     174124  HIT:     158934  MISS:      15190  HIT %:    91.2763  MISS %:    8.72367   MPKI: 0.07595
AGUS PREFETCH L1 MISS: 0
LLC WRITEBACK ACCESS:     269781  HIT:     269106  MISS:        675  HIT %:    99.7498  MISS %:   0.250203   MPKI: 0.003375
LLC LOAD TRANSLATION ACCESS:       5739  HIT:       5497  MISS:        242  HIT %:    95.7832  MISS %:    4.21676   MPKI: 0.00121
LLC TRANSLATION FROM L1D PREFETCHER ACCESS:      28228  HIT:      27055  MISS:       1173  HIT %:    95.8446  MISS %:    4.15545   MPKI: 0.005865
LLC PREFETCH  REQUESTED:          0  ISSUED:          0  USEFUL:       2712  USELESS:      13547
LLC USEFUL LOAD PREFETCHES:       2712 PREFETCH ISSUED TO LOWER LEVEL:      15190  ACCURACY: 17.8539
LLC TIMELY PREFETCHES:       2712 LATE PREFETCHES: 0 DROPPED PREFETCHES: 0
LLC PREFETCHES SAME FILL-ORIGIN LEVEL: 0 DIFFERENT FILL-ORIGIN LEVEL: 0
LLC AVERAGE MISS LATENCY: 165.048 cycles
LLC RQ	ACCESS:    1390264	FORWARD:          0	MERGED:          0	TO_CACHE:    1390261
LLC WQ	ACCESS:     269781	FORWARD:          3	MERGED:          0	TO_CACHE:     269781
LLC PQ	ACCESS:     174124	FORWARD:          0	MERGED:          0	TO_CACHE:     174124

LLC Dense regions hint to LLC: 0

RAW hits: 1402985
Loads Generated: 48830621
Loads sent to L1D: 47427636
Stores Generated: 26764752
Stores sent to L1D: 26764780
Major fault: 0 Minor fault: 2264
Allocated PAGES: 2264
Completed 

DRAM Statistics
 CHANNEL 0
 RQ ROW_BUFFER_HIT:      24057  ROW_BUFFER_MISS:      45525
 DBUS_CONGESTED:         51
 WQ ROW_BUFFER_HIT:       3454  ROW_BUFFER_MISS:      32898  FULL:          0

 AVG_CONGESTED_CYCLE: 4
 All warmup complete: 2
Channel 0 Bank busy for read cycles: 0
Channel 0 Bank busy for write cycles: 0
Channel 0
Rank 0
0banks busy for read cycles: 628985973
0banks busy for write cycles: 10204
1banks busy for read cycles: 2310410
1banks busy for write cycles: 1278099
2banks busy for read cycles: 451765
2banks busy for write cycles: 258859
3banks busy for read cycles: 229801
3banks busy for write cycles: 127343
4banks busy for read cycles: 171712
4banks busy for write cycles: 94680
5banks busy for read cycles: 131402
5banks busy for write cycles: 79635
6banks busy for read cycles: 123592
6banks busy for write cycles: 75729
7banks busy for read cycles: 112699
7banks busy for write cycles: 83967
8banks busy for read cycles: 162645
8banks busy for write cycles: 256681

CPU 0 Branch Prediction Accuracy: 99.8683% MPKI: 0.231785 Average ROB Occupancy at Mispredict: 31.8659
Branch types
NOT_BRANCH: 164806485 82.4032%
BRANCH_DIRECT_JUMP: 2009045 1.00452%
BRANCH_INDIRECT: 11800645 5.90032%
BRANCH_CONDITIONAL: 12887718 6.44386%
BRANCH_DIRECT_CALL: 3580652 1.79033%
BRANCH_INDIRECT_CALL: 667350 0.333675%
BRANCH_RETURN: 4247971 2.12399%
BRANCH_OTHER: 0 0%

DRAM PAGES: 1048576
Allocated PAGES: 2264
