
*** ChampSim Multicore Out-of-Order Simulator ***

Warmup Instructions: 50000000
Simulation Instructions: 200000000
Number of CPUs: 1
LLC sets: 2048
LLC ways: 16
Off-chip DRAM Size: 4096 MB Channels: 1 Width: 64-bit Data Rate: 6400 MT/s
CPU 0 runs traces/spec2k17/server_018.champsimtrace.xz
.xz
BTB has LRU replacement policy
ITLB has LRU replacement policy
DTLB has LRU replacement policy
STLB has LRU replacement policy
L1I has LRU replacement policy
L1D has LRU replacement policy
Initialize SRRIP state for L2C
Initialize DRRIP state for LLC
Heartbeat CPU 0 instructions: 10000001 cycles: 2938380 heartbeat IPC: 3.40324 cumulative IPC: 3.40324 (Simulation time: 0 hr 0 min 42 sec) 
Heartbeat CPU 0 instructions: 20000000 cycles: 5876386 heartbeat IPC: 3.40367 cumulative IPC: 3.40345 (Simulation time: 0 hr 1 min 26 sec) 
Heartbeat CPU 0 instructions: 30000000 cycles: 8796288 heartbeat IPC: 3.42477 cumulative IPC: 3.41053 (Simulation time: 0 hr 2 min 6 sec) 
Heartbeat CPU 0 instructions: 40000001 cycles: 11659861 heartbeat IPC: 3.49214 cumulative IPC: 3.43057 (Simulation time: 0 hr 2 min 48 sec) 
Heartbeat CPU 0 instructions: 50000001 cycles: 14596859 heartbeat IPC: 3.40484 cumulative IPC: 3.42539 (Simulation time: 0 hr 3 min 32 sec) 

Warmup complete CPU 0 instructions: 50000001 cycles: 14596859 (Simulation time: 0 hr 3 min 32 sec) 

Heartbeat CPU 0 instructions: 60000001 cycles: 36307606 heartbeat IPC: 0.460601 cumulative IPC: 0.460601 (Simulation time: 0 hr 4 min 43 sec) 
Heartbeat CPU 0 instructions: 70000003 cycles: 57707017 heartbeat IPC: 0.467303 cumulative IPC: 0.463928 (Simulation time: 0 hr 5 min 59 sec) 
Heartbeat CPU 0 instructions: 80000002 cycles: 79191911 heartbeat IPC: 0.465443 cumulative IPC: 0.464432 (Simulation time: 0 hr 7 min 8 sec) 
Heartbeat CPU 0 instructions: 90000000 cycles: 100773358 heartbeat IPC: 0.463361 cumulative IPC: 0.464164 (Simulation time: 0 hr 8 min 21 sec) 
Heartbeat CPU 0 instructions: 100000001 cycles: 121897496 heartbeat IPC: 0.473392 cumulative IPC: 0.46598 (Simulation time: 0 hr 9 min 33 sec) 
*** Reached end of trace for Core: 0 Repeating trace: traces/spec2k17/server_018.champsimtrace.xz
Heartbeat CPU 0 instructions: 110000000 cycles: 142236290 heartbeat IPC: 0.491671 cumulative IPC: 0.470074 (Simulation time: 0 hr 10 min 43 sec) 
Heartbeat CPU 0 instructions: 120000000 cycles: 162588705 heartbeat IPC: 0.491342 cumulative IPC: 0.472999 (Simulation time: 0 hr 11 min 56 sec) 
Heartbeat CPU 0 instructions: 130000000 cycles: 182865757 heartbeat IPC: 0.493168 cumulative IPC: 0.47543 (Simulation time: 0 hr 13 min 7 sec) 
Heartbeat CPU 0 instructions: 140000003 cycles: 210891955 heartbeat IPC: 0.356809 cumulative IPC: 0.458493 (Simulation time: 0 hr 14 min 23 sec) 
Heartbeat CPU 0 instructions: 150000001 cycles: 236717069 heartbeat IPC: 0.38722 cumulative IPC: 0.450207 (Simulation time: 0 hr 15 min 40 sec) 
Heartbeat CPU 0 instructions: 160000001 cycles: 258882971 heartbeat IPC: 0.451143 cumulative IPC: 0.450292 (Simulation time: 0 hr 16 min 51 sec) 
Heartbeat CPU 0 instructions: 170000000 cycles: 280540032 heartbeat IPC: 0.461743 cumulative IPC: 0.451224 (Simulation time: 0 hr 18 min 7 sec) 
Heartbeat CPU 0 instructions: 180000000 cycles: 301447693 heartbeat IPC: 0.478294 cumulative IPC: 0.453197 (Simulation time: 0 hr 19 min 21 sec) 
Heartbeat CPU 0 instructions: 190000001 cycles: 321919730 heartbeat IPC: 0.488471 cumulative IPC: 0.455547 (Simulation time: 0 hr 20 min 35 sec) 
Heartbeat CPU 0 instructions: 200000001 cycles: 342336150 heartbeat IPC: 0.489802 cumulative IPC: 0.457681 (Simulation time: 0 hr 21 min 54 sec) 
Heartbeat CPU 0 instructions: 210000001 cycles: 362677806 heartbeat IPC: 0.491602 cumulative IPC: 0.459663 (Simulation time: 0 hr 23 min 9 sec) 
*** Reached end of trace for Core: 0 Repeating trace: traces/spec2k17/server_018.champsimtrace.xz
Heartbeat CPU 0 instructions: 220000000 cycles: 382983488 heartbeat IPC: 0.492473 cumulative IPC: 0.461472 (Simulation time: 0 hr 24 min 26 sec) 
Heartbeat CPU 0 instructions: 230000003 cycles: 403319219 heartbeat IPC: 0.491745 cumulative IPC: 0.463055 (Simulation time: 0 hr 25 min 38 sec) 
Heartbeat CPU 0 instructions: 240000000 cycles: 423641436 heartbeat IPC: 0.492072 cumulative IPC: 0.464497 (Simulation time: 0 hr 26 min 53 sec) 
Heartbeat CPU 0 instructions: 250000002 cycles: 455030524 heartbeat IPC: 0.318582 cumulative IPC: 0.454098 (Simulation time: 0 hr 28 min 5 sec) 
Finished CPU 0 instructions: 200000001 cycles: 440433665 cumulative IPC: 0.454098 (Simulation time: 0 hr 28 min 5 sec) 

ChampSim completed all CPUs

Region of Interest Statistics

CPU 0 cumulative IPC: 0.454098 instructions: 200000001 cycles: 440433665
ITLB TOTAL     ACCESS:   33573544  HIT:   32157513  MISS:    1416031  HIT %:    95.7823  MISS %:     4.2177   MPKI: 7.08015
ITLB LOAD TRANSLATION ACCESS:   33573544  HIT:   32157513  MISS:    1416031  HIT %:    95.7823  MISS %:     4.2177   MPKI: 7.08015
ITLB PREFETCH  REQUESTED:          0  ISSUED:          0  USEFUL:          0  USELESS:          0
ITLB USEFUL LOAD PREFETCHES:          0 PREFETCH ISSUED TO LOWER LEVEL:          0  ACCURACY: -nan
ITLB TIMELY PREFETCHES:          0 LATE PREFETCHES: 0 DROPPED PREFETCHES: 0
ITLB PREFETCHES SAME FILL-ORIGIN LEVEL: 0 DIFFERENT FILL-ORIGIN LEVEL: 0
ITLB AVERAGE MISS LATENCY: 9.39551 cycles
ITLB RQ	ACCESS:   40216937	FORWARD:          0	MERGED:    6187028	TO_CACHE:   34029909

DTLB TOTAL     ACCESS:   38733789  HIT:   37127089  MISS:    1606700  HIT %:    95.8519  MISS %:    4.14806   MPKI: 8.0335
DTLB LOAD TRANSLATION ACCESS:   38733789  HIT:   37127089  MISS:    1606700  HIT %:    95.8519  MISS %:    4.14806   MPKI: 8.0335
DTLB PREFETCH  REQUESTED:          0  ISSUED:          0  USEFUL:          0  USELESS:          0
DTLB USEFUL LOAD PREFETCHES:          0 PREFETCH ISSUED TO LOWER LEVEL:          0  ACCURACY: -nan
DTLB TIMELY PREFETCHES:          0 LATE PREFETCHES: 0 DROPPED PREFETCHES: 0
DTLB PREFETCHES SAME FILL-ORIGIN LEVEL: 0 DIFFERENT FILL-ORIGIN LEVEL: 0
DTLB AVERAGE MISS LATENCY: 17.1104 cycles
DTLB RQ	ACCESS:   58636721	FORWARD:          0	MERGED:   19543883	TO_CACHE:   39092838

STLB TOTAL     ACCESS:    6661413  HIT:    6512968  MISS:     148445  HIT %:    97.7716  MISS %:    2.22843   MPKI: 0.742225
STLB LOAD TRANSLATION ACCESS:    3022731  HIT:    2878303  MISS:     144428  HIT %:    95.2219  MISS %:    4.77806   MPKI: 0.72214
STLB TRANSLATION FROM L1D PREFETCHER ACCESS:    3638682  HIT:    3634665  MISS:       4017  HIT %:    99.8896  MISS %:   0.110397   MPKI: 0.020085
STLB PREFETCH  REQUESTED:          0  ISSUED:          0  USEFUL:       3489  USELESS:        528
STLB USEFUL LOAD PREFETCHES:       3489 PREFETCH ISSUED TO LOWER LEVEL:          0  ACCURACY: inf
STLB TIMELY PREFETCHES:       3489 LATE PREFETCHES: 1107 DROPPED PREFETCHES: 22427
STLB PREFETCHES SAME FILL-ORIGIN LEVEL: 0 DIFFERENT FILL-ORIGIN LEVEL: 0
STLB AVERAGE MISS LATENCY: 92080.2 cycles
STLB RQ	ACCESS:    9209631	FORWARD:          0	MERGED:    2524293	TO_CACHE:    6685338

STLB Hit, L1D data hit: 0
STLB Hit, L2C data hit: 0
STLB Hit, LLC data hit: 0
STLB Hit, LLC data miss: 0
STLB STLB hints to L2: 0
L1D TOTAL     ACCESS:   52422823  HIT:   45753573  MISS:    6669250  HIT %:     87.278  MISS %:     12.722   MPKI: 33.3462
L1D LOAD      ACCESS:   26014400  HIT:   23027422  MISS:    2986978  HIT %:     88.518  MISS %:     11.482   MPKI: 14.9349
L1D RFO       ACCESS:   21387730  HIT:   17980486  MISS:    3407244  HIT %:    84.0692  MISS %:    15.9308   MPKI: 17.0362
L1D PREFETCH  ACCESS:    5020693  HIT:    4745665  MISS:     275028  HIT %:    94.5221  MISS %:    5.47789   MPKI: 1.37514
AGUS PREFETCH L1 MISS: 0
L1D PREFETCH  REQUESTED:   13473441  ISSUED:   13471353  USEFUL:     214586  USELESS:      60429
L1D USEFUL LOAD PREFETCHES:     214586 PREFETCH ISSUED TO LOWER LEVEL:     710783  ACCURACY: 30.1901
L1D TIMELY PREFETCHES:     214586 LATE PREFETCHES: 435721 DROPPED PREFETCHES: 29953
L1D PREFETCHES SAME FILL-ORIGIN LEVEL: 710783 DIFFERENT FILL-ORIGIN LEVEL: 0
L1D AVERAGE MISS LATENCY: 1.52569e+07 cycles
L1D RQ	ACCESS:   44266405	FORWARD:          0	MERGED:   17615596	TO_CACHE:   26385590
L1D WQ	ACCESS:   32470506	FORWARD:     288438	MERGED:     219375	TO_CACHE:   32251131
L1D PQ	ACCESS:    7284453	FORWARD:          0	MERGED:    1074334	TO_CACHE:    6186900

L1D UNIQUE REGIONS ACCESSED: 0
L1D REGIONS CONFLICTS: 0
L1D Cross Page Prefetch Requests: 2638600
L1D Same Page Prefetch Requests: 5594759
L1D ROI Sum of L1D PQ occupancy: 95628835
L1D PREFETCHES PUSHED FROM L2C: 0
L1I TOTAL     ACCESS:   37742770  HIT:   29284821  MISS:    8457949  HIT %:    77.5905  MISS %:    22.4095   MPKI: 42.2897
L1I LOAD      ACCESS:   37742770  HIT:   29284821  MISS:    8457949  HIT %:    77.5905  MISS %:    22.4095   MPKI: 42.2897
L1I PREFETCH  REQUESTED:          0  ISSUED:          0  USEFUL:          0  USELESS:          0
L1I USEFUL LOAD PREFETCHES:          0 PREFETCH ISSUED TO LOWER LEVEL:          0  ACCURACY: -nan
L1I TIMELY PREFETCHES:          0 LATE PREFETCHES: 0 DROPPED PREFETCHES: 0
L1I PREFETCHES SAME FILL-ORIGIN LEVEL: 0 DIFFERENT FILL-ORIGIN LEVEL: 0
L1I AVERAGE MISS LATENCY: 16.9862 cycles
L1I RQ	ACCESS:   58395414	FORWARD:          0	MERGED:   18178477	TO_CACHE:   40216937

BTB TOTAL     ACCESS:   25716641  HIT:   24056117  MISS:    1660524  HIT %:     93.543  MISS %:      6.457   MPKI: 8.30262
BTB BRANCH_DIRECT_JUMP	ACCESS:    1725252  HIT:    1715409  MISS:       9843
BTB BRANCH_INDIRECT	ACCESS:    9825522  HIT:    9169772  MISS:     655750
BTB BRANCH_CONDITIONAL	ACCESS:    7516536  HIT:    7503101  MISS:      13435
BTB BRANCH_DIRECT_CALL	ACCESS:    2628848  HIT:    2596392  MISS:      32456
BTB BRANCH_INDIRECT_CALL	ACCESS:     695837  HIT:     593013  MISS:     102824
BTB BRANCH_RETURN	ACCESS:    3324646  HIT:    2478430  MISS:     846216
BTB BRANCH_OTHER ACCESS:          0  HIT:          0  MISS:          0

L2C TOTAL     ACCESS:   19553371  HIT:   12990678  MISS:    6562693  HIT %:     66.437  MISS %:     33.563   MPKI: 32.8135
L2C LOAD      ACCESS:   11009104  HIT:    8530801  MISS:    2478303  HIT %:    77.4886  MISS %:    22.5114   MPKI: 12.3915
L2C DATA LOAD MPKI: 9.74448
L2C INSTRUCTION LOAD MPKI: 2.64703
L2C RFO       ACCESS:    3407191  HIT:     147126  MISS:    3260065  HIT %:     4.3181  MISS %:    95.6819   MPKI: 16.3003
L2C PREFETCH  ACCESS:     710764  HIT:     136893  MISS:     573871  HIT %:      19.26  MISS %:      80.74   MPKI: 2.86935
AGUS PREFETCH L1 MISS: 0
L2C DATA PREFETCH MPKI: 2.86935
L2C INSTRUCTION PREFETCH MPKI: 0
L2C WRITEBACK ACCESS:    4215545  HIT:    4066862  MISS:     148683  HIT %:     96.473  MISS %:    3.52702   MPKI: 0.743415
L2C LOAD TRANSLATION ACCESS:     171115  HIT:      77610  MISS:      93505  HIT %:    45.3555  MISS %:    54.6445   MPKI: 0.467525
L2C TRANSLATION FROM L1D PREFETCHER ACCESS:      39652  HIT:      31386  MISS:       8266  HIT %:    79.1536  MISS %:    20.8464   MPKI: 0.04133
L2C PREFETCH  REQUESTED:          0  ISSUED:          0  USEFUL:      12407  USELESS:     569924
L2C USEFUL LOAD PREFETCHES:      12407 PREFETCH ISSUED TO LOWER LEVEL:     573871  ACCURACY: 2.16198
L2C TIMELY PREFETCHES:      12407 LATE PREFETCHES: 0 DROPPED PREFETCHES: 0
L2C PREFETCHES SAME FILL-ORIGIN LEVEL: 0 DIFFERENT FILL-ORIGIN LEVEL: 0
L2C AVERAGE MISS LATENCY: 178.572 cycles
L2C RQ	ACCESS:   14627184	FORWARD:          0	MERGED:          0	TO_CACHE:   14627063
L2C WQ	ACCESS:    4215545	FORWARD:        140	MERGED:          0	TO_CACHE:    4215545
L2C PQ	ACCESS:     710783	FORWARD:          0	MERGED:          0	TO_CACHE:     710764

L2C Instructions Evicting Data 480239
L2C Translations Evicting Data 91997
L2C Data Evicting Data 5224052
L2C Instructions Evicting Instructions 41203
L2C Translations Evicting Instructions 8048
L2C Data Evicting Instructions 468182
L2C Instructions Evicting Translations 7964
L2C Translations Evicting Translations 1726
L2C Data Evicting Translations 90599
L2C Dense regions hint from L2: 0
PSCL5 TOTAL     ACCESS:     169700  HIT:     169700  MISS:          0  HIT %:        100  MISS %:          0   MPKI: 0
PSCL5 LOAD TRANSLATION ACCESS:     143321  HIT:     143321  MISS:          0  HIT %:        100  MISS %:          0   MPKI: 0
PSCL5 TRANSLATION FROM L1D PREFETCHER ACCESS:      26379  HIT:      26379  MISS:          0  HIT %:        100  MISS %:          0   MPKI: 0
PSCL5 PREFETCH  REQUESTED:          0  ISSUED:          0  USEFUL:          0  USELESS:          0
PSCL5 USEFUL LOAD PREFETCHES:          0 PREFETCH ISSUED TO LOWER LEVEL:          0  ACCURACY: -nan
PSCL5 TIMELY PREFETCHES:          0 LATE PREFETCHES: 0 DROPPED PREFETCHES: 0
PSCL5 PREFETCHES SAME FILL-ORIGIN LEVEL: 0 DIFFERENT FILL-ORIGIN LEVEL: 0

PSCL4 TOTAL     ACCESS:     158996  HIT:     158615  MISS:        381  HIT %:    99.7604  MISS %:   0.239629   MPKI: 0.001905
PSCL4 LOAD TRANSLATION ACCESS:     137685  HIT:     137304  MISS:        381  HIT %:    99.7233  MISS %:   0.276719   MPKI: 0.001905
PSCL4 TRANSLATION FROM L1D PREFETCHER ACCESS:      21311  HIT:      21311  MISS:          0  HIT %:        100  MISS %:          0   MPKI: 0
PSCL4 PREFETCH  REQUESTED:          0  ISSUED:          0  USEFUL:          0  USELESS:          0
PSCL4 USEFUL LOAD PREFETCHES:          0 PREFETCH ISSUED TO LOWER LEVEL:          0  ACCURACY: -nan
PSCL4 TIMELY PREFETCHES:          0 LATE PREFETCHES: 0 DROPPED PREFETCHES: 0
PSCL4 PREFETCHES SAME FILL-ORIGIN LEVEL: 0 DIFFERENT FILL-ORIGIN LEVEL: 0

PSCL3 TOTAL     ACCESS:     165986  HIT:     165597  MISS:        389  HIT %:    99.7656  MISS %:   0.234357   MPKI: 0.001945
PSCL3 LOAD TRANSLATION ACCESS:     143240  HIT:     142851  MISS:        389  HIT %:    99.7284  MISS %:   0.271572   MPKI: 0.001945
PSCL3 TRANSLATION FROM L1D PREFETCHER ACCESS:      22746  HIT:      22746  MISS:          0  HIT %:        100  MISS %:          0   MPKI: 0
PSCL3 PREFETCH  REQUESTED:          0  ISSUED:          0  USEFUL:          0  USELESS:          0
PSCL3 USEFUL LOAD PREFETCHES:          0 PREFETCH ISSUED TO LOWER LEVEL:          0  ACCURACY: -nan
PSCL3 TIMELY PREFETCHES:          0 LATE PREFETCHES: 0 DROPPED PREFETCHES: 0
PSCL3 PREFETCHES SAME FILL-ORIGIN LEVEL: 0 DIFFERENT FILL-ORIGIN LEVEL: 0

PSCL2 TOTAL     ACCESS:     155268  HIT:     127715  MISS:      27553  HIT %:    82.2546  MISS %:    17.7454   MPKI: 0.137765
PSCL2 LOAD TRANSLATION ACCESS:     143822  HIT:     116269  MISS:      27553  HIT %:    80.8423  MISS %:    19.1577   MPKI: 0.137765
PSCL2 TRANSLATION FROM L1D PREFETCHER ACCESS:      11446  HIT:      11446  MISS:          0  HIT %:        100  MISS %:          0   MPKI: 0
PSCL2 PREFETCH  REQUESTED:          0  ISSUED:          0  USEFUL:          0  USELESS:          0
PSCL2 USEFUL LOAD PREFETCHES:          0 PREFETCH ISSUED TO LOWER LEVEL:          0  ACCURACY: -nan
PSCL2 TIMELY PREFETCHES:          0 LATE PREFETCHES: 0 DROPPED PREFETCHES: 0
PSCL2 PREFETCHES SAME FILL-ORIGIN LEVEL: 0 DIFFERENT FILL-ORIGIN LEVEL: 0

LLC TOTAL     ACCESS:   10333534  HIT:    4474911  MISS:    5858623  HIT %:    43.3047  MISS %:    56.6953   MPKI: 29.2931
LLC LOAD      ACCESS:    2478303  HIT:    1422802  MISS:    1055501  HIT %:    57.4103  MISS %:    42.5897   MPKI: 5.2775
LLC RFO       ACCESS:    3260049  HIT:     771714  MISS:    2488335  HIT %:    23.6719  MISS %:    76.3281   MPKI: 12.4417
LLC PREFETCH  ACCESS:     573871  HIT:      35540  MISS:     538331  HIT %:    6.19303  MISS %:     93.807   MPKI: 2.69165
AGUS PREFETCH L1 MISS: 0
LLC WRITEBACK ACCESS:    3919540  HIT:    2178576  MISS:    1740964  HIT %:    55.5824  MISS %:    44.4176   MPKI: 8.70482
LLC LOAD TRANSLATION ACCESS:      93505  HIT:      62122  MISS:      31383  HIT %:    66.4371  MISS %:    33.5629   MPKI: 0.156915
LLC TRANSLATION FROM L1D PREFETCHER ACCESS:       8266  HIT:       4157  MISS:       4109  HIT %:    50.2903  MISS %:    49.7097   MPKI: 0.020545
LLC PREFETCH  REQUESTED:          0  ISSUED:          0  USEFUL:       5245  USELESS:     541992
LLC USEFUL LOAD PREFETCHES:       5245 PREFETCH ISSUED TO LOWER LEVEL:     538331  ACCURACY: 0.974308
LLC TIMELY PREFETCHES:       5245 LATE PREFETCHES: 0 DROPPED PREFETCHES: 0
LLC PREFETCHES SAME FILL-ORIGIN LEVEL: 0 DIFFERENT FILL-ORIGIN LEVEL: 0
LLC AVERAGE MISS LATENCY: 166.779 cycles
LLC RQ	ACCESS:    5840139	FORWARD:          0	MERGED:          0	TO_CACHE:    5840123
LLC WQ	ACCESS:    3919541	FORWARD:         16	MERGED:          0	TO_CACHE:    3919541
LLC PQ	ACCESS:     573871	FORWARD:          0	MERGED:          0	TO_CACHE:     573871

LLC Dense regions hint to LLC: 0

RAW hits: 2583995
Loads Generated: 46850400
Loads sent to L1D: 44266405
Stores Generated: 32470481
Stores sent to L1D: 32470506
Major fault: 0 Minor fault: 22612
Allocated PAGES: 22612
Completed 

DRAM Statistics
 CHANNEL 0
 RQ ROW_BUFFER_HIT:    1636959  ROW_BUFFER_MISS:    2480258
 DBUS_CONGESTED:       1463
 WQ ROW_BUFFER_HIT:     598541  ROW_BUFFER_MISS:    2173461  FULL:      37999

 AVG_CONGESTED_CYCLE: 3
 All warmup complete: 2
Channel 0 Bank busy for read cycles: 0
Channel 0 Bank busy for write cycles: 0
Channel 0
Rank 0
0banks busy for read cycles: 172342692
0banks busy for write cycles: 255573
1banks busy for read cycles: 65611003
1banks busy for write cycles: 38771360
2banks busy for read cycles: 20706041
2banks busy for write cycles: 17967658
3banks busy for read cycles: 14693756
3banks busy for write cycles: 9140838
4banks busy for read cycles: 5365972
4banks busy for write cycles: 5323914
5banks busy for read cycles: 4800759
5banks busy for write cycles: 3648690
6banks busy for read cycles: 5755069
6banks busy for write cycles: 3143999
7banks busy for read cycles: 7456521
7banks busy for write cycles: 5522147
8banks busy for read cycles: 22455916
8banks busy for write cycles: 37471758

CPU 0 Branch Prediction Accuracy: 99.9405% MPKI: 0.09271 Average ROB Occupancy at Mispredict: 111.472
Branch types
NOT_BRANCH: 168823581 84.4118%
BRANCH_DIRECT_JUMP: 1725252 0.862626%
BRANCH_INDIRECT: 9825522 4.91276%
BRANCH_CONDITIONAL: 12976223 6.48811%
BRANCH_DIRECT_CALL: 2628848 1.31442%
BRANCH_INDIRECT_CALL: 695837 0.347918%
BRANCH_RETURN: 3324646 1.66232%
BRANCH_OTHER: 0 0%

DRAM PAGES: 1048576
Allocated PAGES: 22612
