
*** ChampSim Multicore Out-of-Order Simulator ***

Warmup Instructions: 50000000
Simulation Instructions: 200000000
Number of CPUs: 1
LLC sets: 2048
LLC ways: 16
Off-chip DRAM Size: 4096 MB Channels: 1 Width: 64-bit Data Rate: 6400 MT/s
CPU 0 runs traces/spec2k17/server_030.champsimtrace.xz
.xz
BTB has LRU replacement policy
ITLB has LRU replacement policy
DTLB has LRU replacement policy
STLB has LRU replacement policy
L1I has LRU replacement policy
L1D has LRU replacement policy
Initialize SRRIP state for L2C
Initialize DRRIP state for LLC
Heartbeat CPU 0 instructions: 10000003 cycles: 2856262 heartbeat IPC: 3.50108 cumulative IPC: 3.50108 (Simulation time: 0 hr 0 min 38 sec) 
Heartbeat CPU 0 instructions: 20000001 cycles: 5703145 heartbeat IPC: 3.51261 cumulative IPC: 3.50684 (Simulation time: 0 hr 1 min 19 sec) 
Heartbeat CPU 0 instructions: 30000002 cycles: 8552405 heartbeat IPC: 3.50968 cumulative IPC: 3.50779 (Simulation time: 0 hr 1 min 58 sec) 
Heartbeat CPU 0 instructions: 40000002 cycles: 11403314 heartbeat IPC: 3.50765 cumulative IPC: 3.50775 (Simulation time: 0 hr 2 min 41 sec) 
Heartbeat CPU 0 instructions: 50000000 cycles: 14258207 heartbeat IPC: 3.50276 cumulative IPC: 3.50675 (Simulation time: 0 hr 3 min 22 sec) 

Warmup complete CPU 0 instructions: 50000004 cycles: 14258208 (Simulation time: 0 hr 3 min 22 sec) 

Heartbeat CPU 0 instructions: 60000001 cycles: 47074460 heartbeat IPC: 0.304727 cumulative IPC: 0.304727 (Simulation time: 0 hr 4 min 20 sec) 
Heartbeat CPU 0 instructions: 70000000 cycles: 79735844 heartbeat IPC: 0.306172 cumulative IPC: 0.305448 (Simulation time: 0 hr 5 min 17 sec) 
Heartbeat CPU 0 instructions: 80000000 cycles: 112404596 heartbeat IPC: 0.306103 cumulative IPC: 0.305666 (Simulation time: 0 hr 6 min 4 sec) 
*** Reached end of trace for Core: 0 Repeating trace: traces/spec2k17/server_030.champsimtrace.xz
Heartbeat CPU 0 instructions: 90000000 cycles: 144919653 heartbeat IPC: 0.30755 cumulative IPC: 0.306135 (Simulation time: 0 hr 6 min 58 sec) 
Heartbeat CPU 0 instructions: 100000003 cycles: 177399749 heartbeat IPC: 0.307881 cumulative IPC: 0.306482 (Simulation time: 0 hr 8 min 0 sec) 
Heartbeat CPU 0 instructions: 110000000 cycles: 209606693 heartbeat IPC: 0.310492 cumulative IPC: 0.307143 (Simulation time: 0 hr 9 min 3 sec) 
Heartbeat CPU 0 instructions: 120000002 cycles: 241875360 heartbeat IPC: 0.309898 cumulative IPC: 0.307534 (Simulation time: 0 hr 10 min 6 sec) 
Heartbeat CPU 0 instructions: 130000003 cycles: 274082879 heartbeat IPC: 0.310487 cumulative IPC: 0.3079 (Simulation time: 0 hr 11 min 9 sec) 
Heartbeat CPU 0 instructions: 140000002 cycles: 306327459 heartbeat IPC: 0.31013 cumulative IPC: 0.308146 (Simulation time: 0 hr 12 min 13 sec) 
Heartbeat CPU 0 instructions: 150000002 cycles: 338526510 heartbeat IPC: 0.310568 cumulative IPC: 0.308387 (Simulation time: 0 hr 13 min 12 sec) 
Heartbeat CPU 0 instructions: 160000000 cycles: 370619532 heartbeat IPC: 0.311594 cumulative IPC: 0.308675 (Simulation time: 0 hr 14 min 12 sec) 
Heartbeat CPU 0 instructions: 170000000 cycles: 402748715 heartbeat IPC: 0.311244 cumulative IPC: 0.308888 (Simulation time: 0 hr 15 min 12 sec) 
*** Reached end of trace for Core: 0 Repeating trace: traces/spec2k17/server_030.champsimtrace.xz
Heartbeat CPU 0 instructions: 180000000 cycles: 434840925 heartbeat IPC: 0.311602 cumulative IPC: 0.309095 (Simulation time: 0 hr 16 min 18 sec) 
Heartbeat CPU 0 instructions: 190000002 cycles: 467073593 heartbeat IPC: 0.310244 cumulative IPC: 0.309177 (Simulation time: 0 hr 17 min 22 sec) 
Heartbeat CPU 0 instructions: 200000000 cycles: 499149010 heartbeat IPC: 0.311765 cumulative IPC: 0.309348 (Simulation time: 0 hr 18 min 24 sec) 
Heartbeat CPU 0 instructions: 210000000 cycles: 531332599 heartbeat IPC: 0.310717 cumulative IPC: 0.309433 (Simulation time: 0 hr 19 min 28 sec) 
Heartbeat CPU 0 instructions: 220000000 cycles: 563487110 heartbeat IPC: 0.310998 cumulative IPC: 0.309525 (Simulation time: 0 hr 20 min 29 sec) 
Heartbeat CPU 0 instructions: 230000000 cycles: 595686380 heartbeat IPC: 0.310566 cumulative IPC: 0.309583 (Simulation time: 0 hr 21 min 29 sec) 
Heartbeat CPU 0 instructions: 240000002 cycles: 627814983 heartbeat IPC: 0.311249 cumulative IPC: 0.30967 (Simulation time: 0 hr 22 min 30 sec) 
Heartbeat CPU 0 instructions: 250000000 cycles: 659882500 heartbeat IPC: 0.311842 cumulative IPC: 0.309778 (Simulation time: 0 hr 23 min 33 sec) 
Finished CPU 0 instructions: 200000000 cycles: 645624293 cumulative IPC: 0.309778 (Simulation time: 0 hr 23 min 33 sec) 

ChampSim completed all CPUs

Region of Interest Statistics

CPU 0 cumulative IPC: 0.309778 instructions: 200000000 cycles: 645624293
ITLB TOTAL     ACCESS:   35743341  HIT:   33515615  MISS:    2227726  HIT %:    93.7674  MISS %:    6.23256   MPKI: 11.1386
ITLB LOAD TRANSLATION ACCESS:   35743341  HIT:   33515615  MISS:    2227726  HIT %:    93.7674  MISS %:    6.23256   MPKI: 11.1386
ITLB PREFETCH  REQUESTED:          0  ISSUED:          0  USEFUL:          0  USELESS:          0
ITLB USEFUL LOAD PREFETCHES:          0 PREFETCH ISSUED TO LOWER LEVEL:          0  ACCURACY: -nan
ITLB TIMELY PREFETCHES:          0 LATE PREFETCHES: 0 DROPPED PREFETCHES: 0
ITLB PREFETCHES SAME FILL-ORIGIN LEVEL: 0 DIFFERENT FILL-ORIGIN LEVEL: 0
ITLB AVERAGE MISS LATENCY: 9.17046 cycles
ITLB RQ	ACCESS:   41987581	FORWARD:          0	MERGED:    5716833	TO_CACHE:   36270748

DTLB TOTAL     ACCESS:   45721979  HIT:   43694798  MISS:    2027181  HIT %:    95.5663  MISS %:    4.43371   MPKI: 10.1359
DTLB LOAD TRANSLATION ACCESS:   45721979  HIT:   43694798  MISS:    2027181  HIT %:    95.5663  MISS %:    4.43371   MPKI: 10.1359
DTLB PREFETCH  REQUESTED:          0  ISSUED:          0  USEFUL:          0  USELESS:          0
DTLB USEFUL LOAD PREFETCHES:          0 PREFETCH ISSUED TO LOWER LEVEL:          0  ACCURACY: -nan
DTLB TIMELY PREFETCHES:          0 LATE PREFETCHES: 0 DROPPED PREFETCHES: 0
DTLB PREFETCHES SAME FILL-ORIGIN LEVEL: 0 DIFFERENT FILL-ORIGIN LEVEL: 0
DTLB AVERAGE MISS LATENCY: 8.42251 cycles
DTLB RQ	ACCESS:   60416052	FORWARD:          0	MERGED:   14635490	TO_CACHE:   45780562

STLB TOTAL     ACCESS:   19227156  HIT:   19198521  MISS:      28635  HIT %:    99.8511  MISS %:    0.14893   MPKI: 0.143175
STLB LOAD TRANSLATION ACCESS:    4254907  HIT:    4228686  MISS:      26221  HIT %:    99.3837  MISS %:   0.616253   MPKI: 0.131105
STLB TRANSLATION FROM L1D PREFETCHER ACCESS:   14972249  HIT:   14969835  MISS:       2414  HIT %:    99.9839  MISS %:  0.0161232   MPKI: 0.01207
STLB PREFETCH  REQUESTED:          0  ISSUED:          0  USEFUL:       2168  USELESS:        240
STLB USEFUL LOAD PREFETCHES:       2168 PREFETCH ISSUED TO LOWER LEVEL:          0  ACCURACY: inf
STLB TIMELY PREFETCHES:       2168 LATE PREFETCHES: 732 DROPPED PREFETCHES: 268862
STLB PREFETCHES SAME FILL-ORIGIN LEVEL: 0 DIFFERENT FILL-ORIGIN LEVEL: 0
STLB AVERAGE MISS LATENCY: 28.5945 cycles
STLB RQ	ACCESS:   24121113	FORWARD:          0	MERGED:    4623554	TO_CACHE:   19497559

STLB Hit, L1D data hit: 0
STLB Hit, L2C data hit: 0
STLB Hit, LLC data hit: 0
STLB Hit, LLC data miss: 0
STLB STLB hints to L2: 0
L1D TOTAL     ACCESS:   76689651  HIT:   70761964  MISS:    5927687  HIT %:    92.2706  MISS %:    7.72945   MPKI: 29.6384
L1D LOAD      ACCESS:   34005712  HIT:   31092862  MISS:    2912850  HIT %:    91.4342  MISS %:    8.56577   MPKI: 14.5642
L1D RFO       ACCESS:   24691027  HIT:   23575975  MISS:    1115052  HIT %:     95.484  MISS %:    4.51602   MPKI: 5.57526
L1D PREFETCH  ACCESS:   17992912  HIT:   16093127  MISS:    1899785  HIT %:    89.4415  MISS %:    10.5585   MPKI: 9.49892
AGUS PREFETCH L1 MISS: 0
L1D PREFETCH  REQUESTED:   41354732  ISSUED:   41354222  USEFUL:    1638846  USELESS:     260914
L1D USEFUL LOAD PREFETCHES:    1638846 PREFETCH ISSUED TO LOWER LEVEL:    2880221  ACCURACY: 56.9
L1D TIMELY PREFETCHES:    1638846 LATE PREFETCHES: 974671 DROPPED PREFETCHES: 302330
L1D PREFETCHES SAME FILL-ORIGIN LEVEL: 2880221 DIFFERENT FILL-ORIGIN LEVEL: 0
L1D AVERAGE MISS LATENCY: 6.11259e+07 cycles
L1D RQ	ACCESS:   46425654	FORWARD:          0	MERGED:   12001906	TO_CACHE:   34105601
L1D WQ	ACCESS:   26448215	FORWARD:     348579	MERGED:     137764	TO_CACHE:   26310451
L1D PQ	ACCESS:   21488016	FORWARD:          0	MERGED:    1591378	TO_CACHE:   19866206

L1D UNIQUE REGIONS ACCESSED: 0
L1D REGIONS CONFLICTS: 0
L1D Cross Page Prefetch Requests: 15023323
L1D Same Page Prefetch Requests: 7329224
L1D ROI Sum of L1D PQ occupancy: 287975193
L1D PREFETCHES PUSHED FROM L2C: 0
L1I TOTAL     ACCESS:   40329150  HIT:   29008535  MISS:   11320615  HIT %:    71.9294  MISS %:    28.0706   MPKI: 56.6031
L1I LOAD      ACCESS:   40329150  HIT:   29008535  MISS:   11320615  HIT %:    71.9294  MISS %:    28.0706   MPKI: 56.6031
L1I PREFETCH  REQUESTED:          0  ISSUED:          0  USEFUL:          0  USELESS:          0
L1I USEFUL LOAD PREFETCHES:          0 PREFETCH ISSUED TO LOWER LEVEL:          0  ACCURACY: -nan
L1I TIMELY PREFETCHES:          0 LATE PREFETCHES: 0 DROPPED PREFETCHES: 0
L1I PREFETCHES SAME FILL-ORIGIN LEVEL: 0 DIFFERENT FILL-ORIGIN LEVEL: 0
L1I AVERAGE MISS LATENCY: 16.1913 cycles
L1I RQ	ACCESS:   58180018	FORWARD:          0	MERGED:   16192437	TO_CACHE:   41987581

BTB TOTAL     ACCESS:   30343389  HIT:   17609552  MISS:   12733837  HIT %:    58.0342  MISS %:    41.9658   MPKI: 63.6692
BTB BRANCH_DIRECT_JUMP	ACCESS:    1883728  HIT:    1042713  MISS:     841015
BTB BRANCH_INDIRECT	ACCESS:   11966225  HIT:    7097112  MISS:    4869113
BTB BRANCH_CONDITIONAL	ACCESS:    7323946  HIT:    6018929  MISS:    1305017
BTB BRANCH_DIRECT_CALL	ACCESS:    3854734  HIT:    1768910  MISS:    2085824
BTB BRANCH_INDIRECT_CALL	ACCESS:     730020  HIT:     347975  MISS:     382045
BTB BRANCH_RETURN	ACCESS:    4584736  HIT:    1333913  MISS:    3250823
BTB BRANCH_OTHER ACCESS:          0  HIT:          0  MISS:          0

L2C TOTAL     ACCESS:   19949184  HIT:   18626255  MISS:    1322929  HIT %:    93.3685  MISS %:    6.63149   MPKI: 6.61465
L2C LOAD      ACCESS:   13258766  HIT:   12281119  MISS:     977647  HIT %:    92.6264  MISS %:    7.37359   MPKI: 4.88823
L2C DATA LOAD MPKI: 0.91923
L2C INSTRUCTION LOAD MPKI: 3.96901
L2C RFO       ACCESS:    1109287  HIT:    1025425  MISS:      83862  HIT %:      92.44  MISS %:    7.55999   MPKI: 0.41931
L2C PREFETCH  ACCESS:    2878945  HIT:    2683449  MISS:     195496  HIT %:    93.2095  MISS %:    6.79054   MPKI: 0.97748
AGUS PREFETCH L1 MISS: 0
L2C DATA PREFETCH MPKI: 0.97748
L2C INSTRUCTION PREFETCH MPKI: 0
L2C WRITEBACK ACCESS:    2309223  HIT:    2279000  MISS:      30223  HIT %:    98.6912  MISS %:     1.3088   MPKI: 0.151115
L2C LOAD TRANSLATION ACCESS:      26497  HIT:      19619  MISS:       6878  HIT %:    74.0423  MISS %:    25.9577   MPKI: 0.03439
L2C TRANSLATION FROM L1D PREFETCHER ACCESS:     366466  HIT:     337643  MISS:      28823  HIT %:    92.1349  MISS %:    7.86512   MPKI: 0.144115
L2C PREFETCH  REQUESTED:          0  ISSUED:          0  USEFUL:      25762  USELESS:     198475
L2C USEFUL LOAD PREFETCHES:      25762 PREFETCH ISSUED TO LOWER LEVEL:     195496  ACCURACY: 13.1778
L2C TIMELY PREFETCHES:      25762 LATE PREFETCHES: 0 DROPPED PREFETCHES: 0
L2C PREFETCHES SAME FILL-ORIGIN LEVEL: 0 DIFFERENT FILL-ORIGIN LEVEL: 0
L2C AVERAGE MISS LATENCY: 32.4005 cycles
L2C RQ	ACCESS:   14761044	FORWARD:          0	MERGED:          0	TO_CACHE:   14761016
L2C WQ	ACCESS:    2309223	FORWARD:       1304	MERGED:          0	TO_CACHE:    2309223
L2C PQ	ACCESS:    2880221	FORWARD:          0	MERGED:          0	TO_CACHE:    2878945

L2C Instructions Evicting Data 263988
L2C Translations Evicting Data 19031
L2C Data Evicting Data 200495
L2C Instructions Evicting Instructions 512477
L2C Translations Evicting Instructions 15845
L2C Data Evicting Instructions 246185
L2C Instructions Evicting Translations 17336
L2C Translations Evicting Translations 825
L2C Data Evicting Translations 16524
L2C Dense regions hint from L2: 0
PSCL5 TOTAL     ACCESS:     289597  HIT:     289597  MISS:          0  HIT %:        100  MISS %:          0   MPKI: 0
PSCL5 LOAD TRANSLATION ACCESS:      25493  HIT:      25493  MISS:          0  HIT %:        100  MISS %:          0   MPKI: 0
PSCL5 TRANSLATION FROM L1D PREFETCHER ACCESS:     264104  HIT:     264104  MISS:          0  HIT %:        100  MISS %:          0   MPKI: 0
PSCL5 PREFETCH  REQUESTED:          0  ISSUED:          0  USEFUL:          0  USELESS:          0
PSCL5 USEFUL LOAD PREFETCHES:          0 PREFETCH ISSUED TO LOWER LEVEL:          0  ACCURACY: -nan
PSCL5 TIMELY PREFETCHES:          0 LATE PREFETCHES: 0 DROPPED PREFETCHES: 0
PSCL5 PREFETCHES SAME FILL-ORIGIN LEVEL: 0 DIFFERENT FILL-ORIGIN LEVEL: 0

PSCL4 TOTAL     ACCESS:     170311  HIT:     170252  MISS:         59  HIT %:    99.9654  MISS %:  0.0346425   MPKI: 0.000295
PSCL4 LOAD TRANSLATION ACCESS:      19359  HIT:      19300  MISS:         59  HIT %:    99.6952  MISS %:   0.304768   MPKI: 0.000295
PSCL4 TRANSLATION FROM L1D PREFETCHER ACCESS:     150952  HIT:     150952  MISS:          0  HIT %:        100  MISS %:          0   MPKI: 0
PSCL4 PREFETCH  REQUESTED:          0  ISSUED:          0  USEFUL:          0  USELESS:          0
PSCL4 USEFUL LOAD PREFETCHES:          0 PREFETCH ISSUED TO LOWER LEVEL:          0  ACCURACY: -nan
PSCL4 TIMELY PREFETCHES:          0 LATE PREFETCHES: 0 DROPPED PREFETCHES: 0
PSCL4 PREFETCHES SAME FILL-ORIGIN LEVEL: 0 DIFFERENT FILL-ORIGIN LEVEL: 0

PSCL3 TOTAL     ACCESS:     223055  HIT:     222989  MISS:         66  HIT %:    99.9704  MISS %:  0.0295891   MPKI: 0.00033
PSCL3 LOAD TRANSLATION ACCESS:      24519  HIT:      24453  MISS:         66  HIT %:    99.7308  MISS %:   0.269179   MPKI: 0.00033
PSCL3 TRANSLATION FROM L1D PREFETCHER ACCESS:     198536  HIT:     198536  MISS:          0  HIT %:        100  MISS %:          0   MPKI: 0
PSCL3 PREFETCH  REQUESTED:          0  ISSUED:          0  USEFUL:          0  USELESS:          0
PSCL3 USEFUL LOAD PREFETCHES:          0 PREFETCH ISSUED TO LOWER LEVEL:          0  ACCURACY: -nan
PSCL3 TIMELY PREFETCHES:          0 LATE PREFETCHES: 0 DROPPED PREFETCHES: 0
PSCL3 PREFETCHES SAME FILL-ORIGIN LEVEL: 0 DIFFERENT FILL-ORIGIN LEVEL: 0

PSCL2 TOTAL     ACCESS:     127732  HIT:     126669  MISS:       1063  HIT %:    99.1678  MISS %:   0.832211   MPKI: 0.005315
PSCL2 LOAD TRANSLATION ACCESS:      25655  HIT:      24592  MISS:       1063  HIT %:    95.8566  MISS %:    4.14344   MPKI: 0.005315
PSCL2 TRANSLATION FROM L1D PREFETCHER ACCESS:     102077  HIT:     102077  MISS:          0  HIT %:        100  MISS %:          0   MPKI: 0
PSCL2 PREFETCH  REQUESTED:          0  ISSUED:          0  USEFUL:          0  USELESS:          0
PSCL2 USEFUL LOAD PREFETCHES:          0 PREFETCH ISSUED TO LOWER LEVEL:          0  ACCURACY: -nan
PSCL2 TIMELY PREFETCHES:          0 LATE PREFETCHES: 0 DROPPED PREFETCHES: 0
PSCL2 PREFETCHES SAME FILL-ORIGIN LEVEL: 0 DIFFERENT FILL-ORIGIN LEVEL: 0

LLC TOTAL     ACCESS:    1417172  HIT:    1389113  MISS:      28059  HIT %:    98.0201  MISS %:    1.97993   MPKI: 0.140295
LLC LOAD      ACCESS:     977647  HIT:     966055  MISS:      11592  HIT %:    98.8143  MISS %:     1.1857   MPKI: 0.05796
LLC RFO       ACCESS:      83861  HIT:      78916  MISS:       4945  HIT %:    94.1033  MISS %:    5.89666   MPKI: 0.024725
LLC PREFETCH  ACCESS:     195496  HIT:     185014  MISS:      10482  HIT %:    94.6383  MISS %:    5.36175   MPKI: 0.05241
AGUS PREFETCH L1 MISS: 0
LLC WRITEBACK ACCESS:     124467  HIT:     124261  MISS:        206  HIT %:    99.8345  MISS %:   0.165506   MPKI: 0.00103
LLC LOAD TRANSLATION ACCESS:       6878  HIT:       6812  MISS:         66  HIT %:    99.0404  MISS %:   0.959581   MPKI: 0.00033
LLC TRANSLATION FROM L1D PREFETCHER ACCESS:      28823  HIT:      28055  MISS:        768  HIT %:    97.3355  MISS %:    2.66454   MPKI: 0.00384
LLC PREFETCH  REQUESTED:          0  ISSUED:          0  USEFUL:       3150  USELESS:       6669
LLC USEFUL LOAD PREFETCHES:       3150 PREFETCH ISSUED TO LOWER LEVEL:      10482  ACCURACY: 30.0515
LLC TIMELY PREFETCHES:       3150 LATE PREFETCHES: 0 DROPPED PREFETCHES: 0
LLC PREFETCHES SAME FILL-ORIGIN LEVEL: 0 DIFFERENT FILL-ORIGIN LEVEL: 0
LLC AVERAGE MISS LATENCY: 145.398 cycles
LLC RQ	ACCESS:    1097210	FORWARD:          0	MERGED:          0	TO_CACHE:    1097209
LLC WQ	ACCESS:     124467	FORWARD:          1	MERGED:          0	TO_CACHE:     124467
LLC PQ	ACCESS:     195496	FORWARD:          0	MERGED:          0	TO_CACHE:     195496

LLC Dense regions hint to LLC: 0

RAW hits: 1420602
Loads Generated: 47846258
Loads sent to L1D: 46425654
Stores Generated: 26448220
Stores sent to L1D: 26448215
Major fault: 0 Minor fault: 2136
Allocated PAGES: 2136
Completed 

DRAM Statistics
 CHANNEL 0
 RQ ROW_BUFFER_HIT:       9110  ROW_BUFFER_MISS:      18738
 DBUS_CONGESTED:         19
 WQ ROW_BUFFER_HIT:        382  ROW_BUFFER_MISS:       4701  FULL:          0

 AVG_CONGESTED_CYCLE: 4
 All warmup complete: 2
Channel 0 Bank busy for read cycles: 0
Channel 0 Bank busy for write cycles: 0
Channel 0
Rank 0
0banks busy for read cycles: 643215120
0banks busy for write cycles: 2782
1banks busy for read cycles: 1375208
1banks busy for write cycles: 359949
2banks busy for read cycles: 229132
2banks busy for write cycles: 64152
3banks busy for read cycles: 94325
3banks busy for write cycles: 29861
4banks busy for read cycles: 60590
4banks busy for write cycles: 23636
5banks busy for read cycles: 42621
5banks busy for write cycles: 13170
6banks busy for read cycles: 37354
6banks busy for write cycles: 6578
7banks busy for read cycles: 31363
7banks busy for write cycles: 3080
8banks busy for read cycles: 31579
8banks busy for write cycles: 3794

CPU 0 Branch Prediction Accuracy: 99.878% MPKI: 0.219635 Average ROB Occupancy at Mispredict: 29.9686
Branch types
NOT_BRANCH: 164000674 82.0003%
BRANCH_DIRECT_JUMP: 1883728 0.941864%
BRANCH_INDIRECT: 11966225 5.98311%
BRANCH_CONDITIONAL: 12979997 6.49%
BRANCH_DIRECT_CALL: 3854734 1.92737%
BRANCH_INDIRECT_CALL: 730020 0.36501%
BRANCH_RETURN: 4584736 2.29237%
BRANCH_OTHER: 0 0%

DRAM PAGES: 1048576
Allocated PAGES: 2136
