
*** ChampSim Multicore Out-of-Order Simulator ***

Warmup Instructions: 50000000
Simulation Instructions: 200000000
Number of CPUs: 1
LLC sets: 2048
LLC ways: 16
Off-chip DRAM Size: 4096 MB Channels: 1 Width: 64-bit Data Rate: 6400 MT/s
CPU 0 runs traces/spec2k17/server_022.champsimtrace.xz
.xz
BTB has LRU replacement policy
ITLB has LRU replacement policy
DTLB has LRU replacement policy
STLB has LRU replacement policy
L1I has LRU replacement policy
L1D has LRU replacement policy
Initialize SRRIP state for L2C
Initialize DRRIP state for LLC
Heartbeat CPU 0 instructions: 10000001 cycles: 2939285 heartbeat IPC: 3.40219 cumulative IPC: 3.40219 (Simulation time: 0 hr 0 min 47 sec) 
Heartbeat CPU 0 instructions: 20000003 cycles: 5882391 heartbeat IPC: 3.39777 cumulative IPC: 3.39998 (Simulation time: 0 hr 1 min 30 sec) 
Heartbeat CPU 0 instructions: 30000000 cycles: 8820670 heartbeat IPC: 3.40335 cumulative IPC: 3.4011 (Simulation time: 0 hr 2 min 13 sec) 
Heartbeat CPU 0 instructions: 40000002 cycles: 11763476 heartbeat IPC: 3.39812 cumulative IPC: 3.40036 (Simulation time: 0 hr 2 min 57 sec) 
Heartbeat CPU 0 instructions: 50000002 cycles: 14706004 heartbeat IPC: 3.39844 cumulative IPC: 3.39997 (Simulation time: 0 hr 3 min 38 sec) 

Warmup complete CPU 0 instructions: 50000002 cycles: 14706004 (Simulation time: 0 hr 3 min 38 sec) 

Heartbeat CPU 0 instructions: 60000002 cycles: 35132684 heartbeat IPC: 0.489556 cumulative IPC: 0.489556 (Simulation time: 0 hr 4 min 50 sec) 
Heartbeat CPU 0 instructions: 70000000 cycles: 54794669 heartbeat IPC: 0.508596 cumulative IPC: 0.498894 (Simulation time: 0 hr 6 min 6 sec) 
Heartbeat CPU 0 instructions: 80000003 cycles: 74041012 heartbeat IPC: 0.519579 cumulative IPC: 0.505604 (Simulation time: 0 hr 7 min 15 sec) 
Heartbeat CPU 0 instructions: 90000002 cycles: 93382354 heartbeat IPC: 0.517027 cumulative IPC: 0.508412 (Simulation time: 0 hr 8 min 25 sec) 
Heartbeat CPU 0 instructions: 100000000 cycles: 112932176 heartbeat IPC: 0.511514 cumulative IPC: 0.509029 (Simulation time: 0 hr 9 min 34 sec) 
*** Reached end of trace for Core: 0 Repeating trace: traces/spec2k17/server_022.champsimtrace.xz
Heartbeat CPU 0 instructions: 110000000 cycles: 132230058 heartbeat IPC: 0.518192 cumulative IPC: 0.510534 (Simulation time: 0 hr 10 min 47 sec) 
Heartbeat CPU 0 instructions: 120000001 cycles: 151558500 heartbeat IPC: 0.517372 cumulative IPC: 0.5115 (Simulation time: 0 hr 11 min 58 sec) 
Heartbeat CPU 0 instructions: 130000000 cycles: 170832604 heartbeat IPC: 0.518831 cumulative IPC: 0.512405 (Simulation time: 0 hr 13 min 11 sec) 
Heartbeat CPU 0 instructions: 140000000 cycles: 190057511 heartbeat IPC: 0.520159 cumulative IPC: 0.513255 (Simulation time: 0 hr 14 min 23 sec) 
Heartbeat CPU 0 instructions: 150000000 cycles: 209340286 heartbeat IPC: 0.518598 cumulative IPC: 0.513784 (Simulation time: 0 hr 15 min 32 sec) 
Heartbeat CPU 0 instructions: 160000001 cycles: 228836485 heartbeat IPC: 0.512921 cumulative IPC: 0.513705 (Simulation time: 0 hr 16 min 43 sec) 
Heartbeat CPU 0 instructions: 170000001 cycles: 248113363 heartbeat IPC: 0.518756 cumulative IPC: 0.514123 (Simulation time: 0 hr 17 min 53 sec) 
Heartbeat CPU 0 instructions: 180000003 cycles: 267391145 heartbeat IPC: 0.518732 cumulative IPC: 0.514474 (Simulation time: 0 hr 19 min 4 sec) 
Heartbeat CPU 0 instructions: 190000003 cycles: 286521445 heartbeat IPC: 0.522731 cumulative IPC: 0.515055 (Simulation time: 0 hr 20 min 16 sec) 
Heartbeat CPU 0 instructions: 200000002 cycles: 305696939 heartbeat IPC: 0.521499 cumulative IPC: 0.51548 (Simulation time: 0 hr 21 min 31 sec) 
Heartbeat CPU 0 instructions: 210000002 cycles: 325007995 heartbeat IPC: 0.517838 cumulative IPC: 0.515627 (Simulation time: 0 hr 22 min 44 sec) 
*** Reached end of trace for Core: 0 Repeating trace: traces/spec2k17/server_022.champsimtrace.xz
Heartbeat CPU 0 instructions: 220000000 cycles: 344267416 heartbeat IPC: 0.519226 cumulative IPC: 0.515837 (Simulation time: 0 hr 23 min 56 sec) 
Heartbeat CPU 0 instructions: 230000003 cycles: 363580651 heartbeat IPC: 0.51778 cumulative IPC: 0.515945 (Simulation time: 0 hr 25 min 3 sec) 
Heartbeat CPU 0 instructions: 240000000 cycles: 382792039 heartbeat IPC: 0.520524 cumulative IPC: 0.516184 (Simulation time: 0 hr 26 min 8 sec) 
Heartbeat CPU 0 instructions: 250000002 cycles: 402012801 heartbeat IPC: 0.520271 cumulative IPC: 0.516387 (Simulation time: 0 hr 27 min 7 sec) 
Finished CPU 0 instructions: 200000000 cycles: 387306797 cumulative IPC: 0.516387 (Simulation time: 0 hr 27 min 7 sec) 

ChampSim completed all CPUs

Region of Interest Statistics

CPU 0 cumulative IPC: 0.516387 instructions: 200000000 cycles: 387306797
ITLB TOTAL     ACCESS:   33762676  HIT:   32219957  MISS:    1542719  HIT %:    95.4307  MISS %:     4.5693   MPKI: 7.71359
ITLB LOAD TRANSLATION ACCESS:   33762676  HIT:   32219957  MISS:    1542719  HIT %:    95.4307  MISS %:     4.5693   MPKI: 7.71359
ITLB PREFETCH  REQUESTED:          0  ISSUED:          0  USEFUL:          0  USELESS:          0
ITLB USEFUL LOAD PREFETCHES:          0 PREFETCH ISSUED TO LOWER LEVEL:          0  ACCURACY: -nan
ITLB TIMELY PREFETCHES:          0 LATE PREFETCHES: 0 DROPPED PREFETCHES: 0
ITLB PREFETCHES SAME FILL-ORIGIN LEVEL: 0 DIFFERENT FILL-ORIGIN LEVEL: 0
ITLB AVERAGE MISS LATENCY: 9.22976 cycles
ITLB RQ	ACCESS:   40672964	FORWARD:          0	MERGED:    6414093	TO_CACHE:   34258871

DTLB TOTAL     ACCESS:   39981971  HIT:   38458184  MISS:    1523787  HIT %:    96.1888  MISS %:    3.81119   MPKI: 7.61893
DTLB LOAD TRANSLATION ACCESS:   39981971  HIT:   38458184  MISS:    1523787  HIT %:    96.1888  MISS %:    3.81119   MPKI: 7.61893
DTLB PREFETCH  REQUESTED:          0  ISSUED:          0  USEFUL:          0  USELESS:          0
DTLB USEFUL LOAD PREFETCHES:          0 PREFETCH ISSUED TO LOWER LEVEL:          0  ACCURACY: -nan
DTLB TIMELY PREFETCHES:          0 LATE PREFETCHES: 0 DROPPED PREFETCHES: 0
DTLB PREFETCHES SAME FILL-ORIGIN LEVEL: 0 DIFFERENT FILL-ORIGIN LEVEL: 0
DTLB AVERAGE MISS LATENCY: 14.8972 cycles
DTLB RQ	ACCESS:   61173835	FORWARD:          0	MERGED:   20808286	TO_CACHE:   40365549

STLB TOTAL     ACCESS:    7168338  HIT:    7093958  MISS:      74380  HIT %:    98.9624  MISS %:    1.03762   MPKI: 0.3719
STLB LOAD TRANSLATION ACCESS:    3066506  HIT:    2994891  MISS:      71615  HIT %:    97.6646  MISS %:    2.33539   MPKI: 0.358075
STLB TRANSLATION FROM L1D PREFETCHER ACCESS:    4101832  HIT:    4099067  MISS:       2765  HIT %:    99.9326  MISS %:  0.0674089   MPKI: 0.013825
STLB PREFETCH  REQUESTED:          0  ISSUED:          0  USEFUL:       2325  USELESS:        438
STLB USEFUL LOAD PREFETCHES:       2325 PREFETCH ISSUED TO LOWER LEVEL:          0  ACCURACY: inf
STLB TIMELY PREFETCHES:       2325 LATE PREFETCHES: 884 DROPPED PREFETCHES: 25770
STLB PREFETCHES SAME FILL-ORIGIN LEVEL: 0 DIFFERENT FILL-ORIGIN LEVEL: 0
STLB AVERAGE MISS LATENCY: 146012 cycles
STLB RQ	ACCESS:    9975419	FORWARD:          0	MERGED:    2780011	TO_CACHE:    7195408

STLB Hit, L1D data hit: 0
STLB Hit, L2C data hit: 0
STLB Hit, LLC data hit: 0
STLB Hit, LLC data miss: 0
STLB STLB hints to L2: 0
L1D TOTAL     ACCESS:   54696609  HIT:   47864201  MISS:    6832408  HIT %:    87.5085  MISS %:    12.4915   MPKI: 34.162
L1D LOAD      ACCESS:   26754200  HIT:   23914497  MISS:    2839703  HIT %:     89.386  MISS %:     10.614   MPKI: 14.1985
L1D RFO       ACCESS:   22309463  HIT:   18610408  MISS:    3699055  HIT %:    83.4193  MISS %:    16.5807   MPKI: 18.4953
L1D PREFETCH  ACCESS:    5632946  HIT:    5339296  MISS:     293650  HIT %:    94.7869  MISS %:    5.21308   MPKI: 1.46825
AGUS PREFETCH L1 MISS: 0
L1D PREFETCH  REQUESTED:   15014397  ISSUED:   15010652  USEFUL:     229538  USELESS:      64137
L1D USEFUL LOAD PREFETCHES:     229538 PREFETCH ISSUED TO LOWER LEVEL:     773510  ACCURACY: 29.6749
L1D TIMELY PREFETCHES:     229538 LATE PREFETCHES: 479817 DROPPED PREFETCHES: 33909
L1D PREFETCHES SAME FILL-ORIGIN LEVEL: 773510 DIFFERENT FILL-ORIGIN LEVEL: 0
L1D AVERAGE MISS LATENCY: 1.4983e+07 cycles
L1D RQ	ACCESS:   45271638	FORWARD:          0	MERGED:   17846774	TO_CACHE:   27139215
L1D WQ	ACCESS:   34236669	FORWARD:     310725	MERGED:     202049	TO_CACHE:   34034620
L1D PQ	ACCESS:    8101739	FORWARD:          0	MERGED:    1167750	TO_CACHE:    6908913

L1D UNIQUE REGIONS ACCESSED: 0
L1D REGIONS CONFLICTS: 0
L1D Cross Page Prefetch Requests: 3049143
L1D Same Page Prefetch Requests: 6109955
L1D ROI Sum of L1D PQ occupancy: 108336602
L1D PREFETCHES PUSHED FROM L2C: 0
L1I TOTAL     ACCESS:   38006606  HIT:   28877402  MISS:    9129204  HIT %:      75.98  MISS %:      24.02   MPKI: 45.646
L1I LOAD      ACCESS:   38006606  HIT:   28877402  MISS:    9129204  HIT %:      75.98  MISS %:      24.02   MPKI: 45.646
L1I PREFETCH  REQUESTED:          0  ISSUED:          0  USEFUL:          0  USELESS:          0
L1I USEFUL LOAD PREFETCHES:          0 PREFETCH ISSUED TO LOWER LEVEL:          0  ACCURACY: -nan
L1I TIMELY PREFETCHES:          0 LATE PREFETCHES: 0 DROPPED PREFETCHES: 0
L1I PREFETCHES SAME FILL-ORIGIN LEVEL: 0 DIFFERENT FILL-ORIGIN LEVEL: 0
L1I AVERAGE MISS LATENCY: 16.7136 cycles
L1I RQ	ACCESS:   58930120	FORWARD:          0	MERGED:   18257156	TO_CACHE:   40672964

BTB TOTAL     ACCESS:   25686189  HIT:   24135279  MISS:    1550910  HIT %:    93.9621  MISS %:    6.03791   MPKI: 7.75455
BTB BRANCH_DIRECT_JUMP	ACCESS:    1661001  HIT:    1650247  MISS:      10754
BTB BRANCH_INDIRECT	ACCESS:    9967569  HIT:    9455075  MISS:     512494
BTB BRANCH_CONDITIONAL	ACCESS:    7219465  HIT:    7204509  MISS:      14956
BTB BRANCH_DIRECT_CALL	ACCESS:    2825890  HIT:    2790312  MISS:      35578
BTB BRANCH_INDIRECT_CALL	ACCESS:     593170  HIT:     481443  MISS:     111727
BTB BRANCH_RETURN	ACCESS:    3419094  HIT:    2553693  MISS:     865401
BTB BRANCH_OTHER ACCESS:          0  HIT:          0  MISS:          0

L2C TOTAL     ACCESS:   20434800  HIT:   13776151  MISS:    6658649  HIT %:    67.4151  MISS %:    32.5849   MPKI: 33.2932
L2C LOAD      ACCESS:   11489019  HIT:    9181191  MISS:    2307828  HIT %:    79.9127  MISS %:    20.0873   MPKI: 11.5391
L2C DATA LOAD MPKI: 8.66836
L2C INSTRUCTION LOAD MPKI: 2.87078
L2C RFO       ACCESS:    3699000  HIT:     162290  MISS:    3536710  HIT %:     4.3874  MISS %:    95.6126   MPKI: 17.6836
L2C PREFETCH  ACCESS:     773495  HIT:     151470  MISS:     622025  HIT %:    19.5825  MISS %:    80.4175   MPKI: 3.11013
AGUS PREFETCH L1 MISS: 0
L2C DATA PREFETCH MPKI: 3.11013
L2C INSTRUCTION PREFETCH MPKI: 0
L2C WRITEBACK ACCESS:    4351412  HIT:    4204642  MISS:     146770  HIT %:    96.6271  MISS %:    3.37293   MPKI: 0.73385
L2C LOAD TRANSLATION ACCESS:      78918  HIT:      43110  MISS:      35808  HIT %:    54.6263  MISS %:    45.3737   MPKI: 0.17904
L2C TRANSLATION FROM L1D PREFETCHER ACCESS:      42956  HIT:      33448  MISS:       9508  HIT %:    77.8657  MISS %:    22.1343   MPKI: 0.04754
L2C PREFETCH  REQUESTED:          0  ISSUED:          0  USEFUL:      13030  USELESS:     618605
L2C USEFUL LOAD PREFETCHES:      13030 PREFETCH ISSUED TO LOWER LEVEL:     622025  ACCURACY: 2.09477
L2C TIMELY PREFETCHES:      13030 LATE PREFETCHES: 0 DROPPED PREFETCHES: 0
L2C PREFETCHES SAME FILL-ORIGIN LEVEL: 0 DIFFERENT FILL-ORIGIN LEVEL: 0
L2C AVERAGE MISS LATENCY: 161.607 cycles
L2C RQ	ACCESS:   15309978	FORWARD:          0	MERGED:          0	TO_CACHE:   15309895
L2C WQ	ACCESS:    4351412	FORWARD:         98	MERGED:          0	TO_CACHE:    4351412
L2C PQ	ACCESS:     773510	FORWARD:          0	MERGED:          0	TO_CACHE:     773495

L2C Instructions Evicting Data 530105
L2C Translations Evicting Data 41435
L2C Data Evicting Data 5335535
L2C Instructions Evicting Instructions 40577
L2C Translations Evicting Instructions 3615
L2C Data Evicting Instructions 516045
L2C Instructions Evicting Translations 3474
L2C Translations Evicting Translations 266
L2C Data Evicting Translations 40827
L2C Dense regions hint from L2: 0
PSCL5 TOTAL     ACCESS:      97600  HIT:      97600  MISS:          0  HIT %:        100  MISS %:          0   MPKI: 0
PSCL5 LOAD TRANSLATION ACCESS:      70731  HIT:      70731  MISS:          0  HIT %:        100  MISS %:          0   MPKI: 0
PSCL5 TRANSLATION FROM L1D PREFETCHER ACCESS:      26869  HIT:      26869  MISS:          0  HIT %:        100  MISS %:          0   MPKI: 0
PSCL5 PREFETCH  REQUESTED:          0  ISSUED:          0  USEFUL:          0  USELESS:          0
PSCL5 USEFUL LOAD PREFETCHES:          0 PREFETCH ISSUED TO LOWER LEVEL:          0  ACCURACY: -nan
PSCL5 TIMELY PREFETCHES:          0 LATE PREFETCHES: 0 DROPPED PREFETCHES: 0
PSCL5 PREFETCHES SAME FILL-ORIGIN LEVEL: 0 DIFFERENT FILL-ORIGIN LEVEL: 0

PSCL4 TOTAL     ACCESS:      84507  HIT:      84426  MISS:         81  HIT %:    99.9041  MISS %:    0.09585   MPKI: 0.000405
PSCL4 LOAD TRANSLATION ACCESS:      63073  HIT:      62992  MISS:         81  HIT %:    99.8716  MISS %:   0.128423   MPKI: 0.000405
PSCL4 TRANSLATION FROM L1D PREFETCHER ACCESS:      21434  HIT:      21434  MISS:          0  HIT %:        100  MISS %:          0   MPKI: 0
PSCL4 PREFETCH  REQUESTED:          0  ISSUED:          0  USEFUL:          0  USELESS:          0
PSCL4 USEFUL LOAD PREFETCHES:          0 PREFETCH ISSUED TO LOWER LEVEL:          0  ACCURACY: -nan
PSCL4 TIMELY PREFETCHES:          0 LATE PREFETCHES: 0 DROPPED PREFETCHES: 0
PSCL4 PREFETCHES SAME FILL-ORIGIN LEVEL: 0 DIFFERENT FILL-ORIGIN LEVEL: 0

PSCL3 TOTAL     ACCESS:      95126  HIT:      94961  MISS:        165  HIT %:    99.8265  MISS %:   0.173454   MPKI: 0.000825
PSCL3 LOAD TRANSLATION ACCESS:      70697  HIT:      70532  MISS:        165  HIT %:    99.7666  MISS %:    0.23339   MPKI: 0.000825
PSCL3 TRANSLATION FROM L1D PREFETCHER ACCESS:      24429  HIT:      24429  MISS:          0  HIT %:        100  MISS %:          0   MPKI: 0
PSCL3 PREFETCH  REQUESTED:          0  ISSUED:          0  USEFUL:          0  USELESS:          0
PSCL3 USEFUL LOAD PREFETCHES:          0 PREFETCH ISSUED TO LOWER LEVEL:          0  ACCURACY: -nan
PSCL3 TIMELY PREFETCHES:          0 LATE PREFETCHES: 0 DROPPED PREFETCHES: 0
PSCL3 PREFETCHES SAME FILL-ORIGIN LEVEL: 0 DIFFERENT FILL-ORIGIN LEVEL: 0

PSCL2 TOTAL     ACCESS:      82204  HIT:      73966  MISS:       8238  HIT %:    89.9786  MISS %:    10.0214   MPKI: 0.04119
PSCL2 LOAD TRANSLATION ACCESS:      70998  HIT:      62760  MISS:       8238  HIT %:    88.3969  MISS %:    11.6031   MPKI: 0.04119
PSCL2 TRANSLATION FROM L1D PREFETCHER ACCESS:      11206  HIT:      11206  MISS:          0  HIT %:        100  MISS %:          0   MPKI: 0
PSCL2 PREFETCH  REQUESTED:          0  ISSUED:          0  USEFUL:          0  USELESS:          0
PSCL2 USEFUL LOAD PREFETCHES:          0 PREFETCH ISSUED TO LOWER LEVEL:          0  ACCURACY: -nan
PSCL2 TIMELY PREFETCHES:          0 LATE PREFETCHES: 0 DROPPED PREFETCHES: 0
PSCL2 PREFETCHES SAME FILL-ORIGIN LEVEL: 0 DIFFERENT FILL-ORIGIN LEVEL: 0

LLC TOTAL     ACCESS:   10546766  HIT:    4398154  MISS:    6148612  HIT %:    41.7014  MISS %:    58.2986   MPKI: 30.7431
LLC LOAD      ACCESS:    2307825  HIT:    1612356  MISS:     695469  HIT %:    69.8647  MISS %:    30.1353   MPKI: 3.47735
LLC RFO       ACCESS:    3536691  HIT:     991210  MISS:    2545481  HIT %:    28.0265  MISS %:    71.9735   MPKI: 12.7274
LLC PREFETCH  ACCESS:     622025  HIT:      37549  MISS:     584476  HIT %:    6.03657  MISS %:    93.9634   MPKI: 2.92238
AGUS PREFETCH L1 MISS: 0
LLC WRITEBACK ACCESS:    4034909  HIT:    1744172  MISS:    2290737  HIT %:     43.227  MISS %:     56.773   MPKI: 11.4537
LLC LOAD TRANSLATION ACCESS:      35808  HIT:       9309  MISS:      26499  HIT %:     25.997  MISS %:     74.003   MPKI: 0.132495
LLC TRANSLATION FROM L1D PREFETCHER ACCESS:       9508  HIT:       3558  MISS:       5950  HIT %:    37.4211  MISS %:    62.5789   MPKI: 0.02975
LLC PREFETCH  REQUESTED:          0  ISSUED:          0  USEFUL:       2600  USELESS:     592366
LLC USEFUL LOAD PREFETCHES:       2600 PREFETCH ISSUED TO LOWER LEVEL:     584476  ACCURACY: 0.444843
LLC TIMELY PREFETCHES:       2600 LATE PREFETCHES: 0 DROPPED PREFETCHES: 0
LLC PREFETCHES SAME FILL-ORIGIN LEVEL: 0 DIFFERENT FILL-ORIGIN LEVEL: 0
LLC AVERAGE MISS LATENCY: 142.806 cycles
LLC RQ	ACCESS:    5889854	FORWARD:          0	MERGED:          0	TO_CACHE:    5889832
LLC WQ	ACCESS:    4034909	FORWARD:         22	MERGED:          0	TO_CACHE:    4034909
LLC PQ	ACCESS:     622025	FORWARD:          0	MERGED:          0	TO_CACHE:     622025

LLC Dense regions hint to LLC: 0

RAW hits: 2455448
Loads Generated: 47727087
Loads sent to L1D: 45271638
Stores Generated: 34236662
Stores sent to L1D: 34236669
Major fault: 0 Minor fault: 23678
Allocated PAGES: 23678
Completed 

DRAM Statistics
 CHANNEL 0
 RQ ROW_BUFFER_HIT:    1815921  ROW_BUFFER_MISS:    2041556
 DBUS_CONGESTED:       2087
 WQ ROW_BUFFER_HIT:     547693  ROW_BUFFER_MISS:    2059492  FULL:      55666

 AVG_CONGESTED_CYCLE: 3
 All warmup complete: 2
Channel 0 Bank busy for read cycles: 0
Channel 0 Bank busy for write cycles: 0
Channel 0
Rank 0
0banks busy for read cycles: 182044047
0banks busy for write cycles: 251308
1banks busy for read cycles: 29255357
1banks busy for write cycles: 35115077
2banks busy for read cycles: 11544761
2banks busy for write cycles: 12193585
3banks busy for read cycles: 14874209
3banks busy for write cycles: 5457185
4banks busy for read cycles: 5448756
4banks busy for write cycles: 3581504
5banks busy for read cycles: 4742247
5banks busy for write cycles: 3066977
6banks busy for read cycles: 5742078
6banks busy for write cycles: 3158933
7banks busy for read cycles: 7410404
7banks busy for write cycles: 5697740
8banks busy for read cycles: 21942080
8banks busy for write cycles: 35780550

CPU 0 Branch Prediction Accuracy: 99.9426% MPKI: 0.08767 Average ROB Occupancy at Mispredict: 116.753
Branch types
NOT_BRANCH: 169469640 84.7348%
BRANCH_DIRECT_JUMP: 1661001 0.8305%
BRANCH_INDIRECT: 9967569 4.98378%
BRANCH_CONDITIONAL: 12063601 6.0318%
BRANCH_DIRECT_CALL: 2825890 1.41294%
BRANCH_INDIRECT_CALL: 593170 0.296585%
BRANCH_RETURN: 3419094 1.70955%
BRANCH_OTHER: 0 0%

DRAM PAGES: 1048576
Allocated PAGES: 23678
