
*** ChampSim Multicore Out-of-Order Simulator ***

Warmup Instructions: 50000000
Simulation Instructions: 200000000
Number of CPUs: 1
LLC sets: 2048
LLC ways: 16
Off-chip DRAM Size: 4096 MB Channels: 1 Width: 64-bit Data Rate: 6400 MT/s
CPU 0 runs traces/spec2k17/server_019.champsimtrace.xz
.xz
BTB has LRU replacement policy
ITLB has LRU replacement policy
DTLB has LRU replacement policy
STLB has LRU replacement policy
L1I has LRU replacement policy
L1D has LRU replacement policy
Initialize SRRIP state for L2C
Initialize DRRIP state for LLC
Heartbeat CPU 0 instructions: 10000001 cycles: 2942707 heartbeat IPC: 3.39823 cumulative IPC: 3.39823 (Simulation time: 0 hr 0 min 42 sec) 
Heartbeat CPU 0 instructions: 20000002 cycles: 5884291 heartbeat IPC: 3.39953 cumulative IPC: 3.39888 (Simulation time: 0 hr 1 min 27 sec) 
Heartbeat CPU 0 instructions: 30000000 cycles: 8823414 heartbeat IPC: 3.40237 cumulative IPC: 3.40004 (Simulation time: 0 hr 2 min 10 sec) 
Heartbeat CPU 0 instructions: 40000003 cycles: 11769204 heartbeat IPC: 3.39468 cumulative IPC: 3.3987 (Simulation time: 0 hr 2 min 54 sec) 
Heartbeat CPU 0 instructions: 50000000 cycles: 14706719 heartbeat IPC: 3.40424 cumulative IPC: 3.39981 (Simulation time: 0 hr 3 min 33 sec) 

Warmup complete CPU 0 instructions: 50000004 cycles: 14706720 (Simulation time: 0 hr 3 min 33 sec) 

Heartbeat CPU 0 instructions: 60000000 cycles: 37665856 heartbeat IPC: 0.435556 cumulative IPC: 0.435556 (Simulation time: 0 hr 4 min 56 sec) 
Heartbeat CPU 0 instructions: 70000000 cycles: 59031436 heartbeat IPC: 0.468043 cumulative IPC: 0.451215 (Simulation time: 0 hr 6 min 9 sec) 
Heartbeat CPU 0 instructions: 80000000 cycles: 92643753 heartbeat IPC: 0.29751 cumulative IPC: 0.384926 (Simulation time: 0 hr 7 min 36 sec) 
Heartbeat CPU 0 instructions: 90000000 cycles: 116169307 heartbeat IPC: 0.42507 cumulative IPC: 0.394234 (Simulation time: 0 hr 8 min 52 sec) 
Heartbeat CPU 0 instructions: 100000000 cycles: 138492876 heartbeat IPC: 0.447957 cumulative IPC: 0.403922 (Simulation time: 0 hr 10 min 7 sec) 
*** Reached end of trace for Core: 0 Repeating trace: traces/spec2k17/server_019.champsimtrace.xz
Heartbeat CPU 0 instructions: 110000000 cycles: 159745566 heartbeat IPC: 0.470529 cumulative IPC: 0.413682 (Simulation time: 0 hr 11 min 15 sec) 
Heartbeat CPU 0 instructions: 120000003 cycles: 180002285 heartbeat IPC: 0.493664 cumulative IPC: 0.423484 (Simulation time: 0 hr 12 min 28 sec) 
Heartbeat CPU 0 instructions: 130000000 cycles: 199857451 heartbeat IPC: 0.503647 cumulative IPC: 0.43208 (Simulation time: 0 hr 13 min 45 sec) 
Heartbeat CPU 0 instructions: 140000001 cycles: 219520479 heartbeat IPC: 0.508569 cumulative IPC: 0.439424 (Simulation time: 0 hr 15 min 1 sec) 
Heartbeat CPU 0 instructions: 150000003 cycles: 239170843 heartbeat IPC: 0.508897 cumulative IPC: 0.445505 (Simulation time: 0 hr 16 min 13 sec) 
Heartbeat CPU 0 instructions: 160000000 cycles: 258608099 heartbeat IPC: 0.514476 cumulative IPC: 0.451002 (Simulation time: 0 hr 17 min 24 sec) 
Heartbeat CPU 0 instructions: 170000000 cycles: 281759016 heartbeat IPC: 0.431948 cumulative IPC: 0.44935 (Simulation time: 0 hr 18 min 51 sec) 
Heartbeat CPU 0 instructions: 180000000 cycles: 305752738 heartbeat IPC: 0.416776 cumulative IPC: 0.446665 (Simulation time: 0 hr 20 min 9 sec) 
Heartbeat CPU 0 instructions: 190000001 cycles: 337104498 heartbeat IPC: 0.318961 cumulative IPC: 0.434246 (Simulation time: 0 hr 21 min 34 sec) 
Heartbeat CPU 0 instructions: 200000002 cycles: 359860451 heartbeat IPC: 0.439445 cumulative IPC: 0.434589 (Simulation time: 0 hr 22 min 47 sec) 
Heartbeat CPU 0 instructions: 210000000 cycles: 381712215 heartbeat IPC: 0.457629 cumulative IPC: 0.435961 (Simulation time: 0 hr 24 min 0 sec) 
*** Reached end of trace for Core: 0 Repeating trace: traces/spec2k17/server_019.champsimtrace.xz
Heartbeat CPU 0 instructions: 220000000 cycles: 402383774 heartbeat IPC: 0.483756 cumulative IPC: 0.438509 (Simulation time: 0 hr 25 min 10 sec) 
Heartbeat CPU 0 instructions: 230000000 cycles: 422560543 heartbeat IPC: 0.49562 cumulative IPC: 0.441335 (Simulation time: 0 hr 26 min 17 sec) 
Heartbeat CPU 0 instructions: 240000003 cycles: 442314883 heartbeat IPC: 0.506218 cumulative IPC: 0.444332 (Simulation time: 0 hr 27 min 25 sec) 
Heartbeat CPU 0 instructions: 250000000 cycles: 461990914 heartbeat IPC: 0.508232 cumulative IPC: 0.447143 (Simulation time: 0 hr 28 min 15 sec) 
Finished CPU 0 instructions: 200000000 cycles: 447284196 cumulative IPC: 0.447143 (Simulation time: 0 hr 28 min 15 sec) 

ChampSim completed all CPUs

Region of Interest Statistics

CPU 0 cumulative IPC: 0.447143 instructions: 200000000 cycles: 447284196
ITLB TOTAL     ACCESS:   33595277  HIT:   32165713  MISS:    1429564  HIT %:    95.7447  MISS %:    4.25525   MPKI: 7.14782
ITLB LOAD TRANSLATION ACCESS:   33595277  HIT:   32165713  MISS:    1429564  HIT %:    95.7447  MISS %:    4.25525   MPKI: 7.14782
ITLB PREFETCH  REQUESTED:          0  ISSUED:          0  USEFUL:          0  USELESS:          0
ITLB USEFUL LOAD PREFETCHES:          0 PREFETCH ISSUED TO LOWER LEVEL:          0  ACCURACY: -nan
ITLB TIMELY PREFETCHES:          0 LATE PREFETCHES: 0 DROPPED PREFETCHES: 0
ITLB PREFETCHES SAME FILL-ORIGIN LEVEL: 0 DIFFERENT FILL-ORIGIN LEVEL: 0
ITLB AVERAGE MISS LATENCY: 9.44483 cycles
ITLB RQ	ACCESS:   40240404	FORWARD:          0	MERGED:    6184920	TO_CACHE:   34055484

DTLB TOTAL     ACCESS:   38797321  HIT:   37199703  MISS:    1597618  HIT %:    95.8821  MISS %:    4.11786   MPKI: 7.98809
DTLB LOAD TRANSLATION ACCESS:   38797321  HIT:   37199703  MISS:    1597618  HIT %:    95.8821  MISS %:    4.11786   MPKI: 7.98809
DTLB PREFETCH  REQUESTED:          0  ISSUED:          0  USEFUL:          0  USELESS:          0
DTLB USEFUL LOAD PREFETCHES:          0 PREFETCH ISSUED TO LOWER LEVEL:          0  ACCURACY: -nan
DTLB TIMELY PREFETCHES:          0 LATE PREFETCHES: 0 DROPPED PREFETCHES: 0
DTLB PREFETCHES SAME FILL-ORIGIN LEVEL: 0 DIFFERENT FILL-ORIGIN LEVEL: 0
DTLB AVERAGE MISS LATENCY: 20.2679 cycles
DTLB RQ	ACCESS:   58790883	FORWARD:          0	MERGED:   19617108	TO_CACHE:   39173775

STLB TOTAL     ACCESS:    6719278  HIT:    6548889  MISS:     170389  HIT %:    97.4642  MISS %:    2.53582   MPKI: 0.851945
STLB LOAD TRANSLATION ACCESS:    3027182  HIT:    2860180  MISS:     167002  HIT %:    94.4833  MISS %:    5.51675   MPKI: 0.83501
STLB TRANSLATION FROM L1D PREFETCHER ACCESS:    3692096  HIT:    3688709  MISS:       3387  HIT %:    99.9083  MISS %:  0.0917365   MPKI: 0.016935
STLB PREFETCH  REQUESTED:          0  ISSUED:          0  USEFUL:       3043  USELESS:        342
STLB USEFUL LOAD PREFETCHES:       3043 PREFETCH ISSUED TO LOWER LEVEL:          0  ACCURACY: inf
STLB TIMELY PREFETCHES:       3043 LATE PREFETCHES: 1012 DROPPED PREFETCHES: 25520
STLB PREFETCHES SAME FILL-ORIGIN LEVEL: 0 DIFFERENT FILL-ORIGIN LEVEL: 0
STLB AVERAGE MISS LATENCY: 64626.1 cycles
STLB RQ	ACCESS:    9312156	FORWARD:          0	MERGED:    2565869	TO_CACHE:    6746287

STLB Hit, L1D data hit: 0
STLB Hit, L2C data hit: 0
STLB Hit, LLC data hit: 0
STLB Hit, LLC data miss: 0
STLB STLB hints to L2: 0
L1D TOTAL     ACCESS:   52675735  HIT:   45865613  MISS:    6810122  HIT %:    87.0716  MISS %:    12.9284   MPKI: 34.0506
L1D LOAD      ACCESS:   26003372  HIT:   23025957  MISS:    2977415  HIT %:    88.5499  MISS %:    11.4501   MPKI: 14.8871
L1D RFO       ACCESS:   21565734  HIT:   18013473  MISS:    3552261  HIT %:    83.5282  MISS %:    16.4718   MPKI: 17.7613
L1D PREFETCH  ACCESS:    5106629  HIT:    4826183  MISS:     280446  HIT %:    94.5082  MISS %:     5.4918   MPKI: 1.40223
AGUS PREFETCH L1 MISS: 0
L1D PREFETCH  REQUESTED:   13663188  ISSUED:   13661154  USEFUL:     218786  USELESS:      61653
L1D USEFUL LOAD PREFETCHES:     218786 PREFETCH ISSUED TO LOWER LEVEL:     720385  ACCURACY: 30.3707
L1D TIMELY PREFETCHES:     218786 LATE PREFETCHES: 439830 DROPPED PREFETCHES: 35224
L1D PREFETCHES SAME FILL-ORIGIN LEVEL: 720385 DIFFERENT FILL-ORIGIN LEVEL: 0
L1D AVERAGE MISS LATENCY: 1.62575e+07 cycles
L1D RQ	ACCESS:   44209650	FORWARD:          0	MERGED:   17586431	TO_CACHE:   26369356
L1D WQ	ACCESS:   32636784	FORWARD:     275888	MERGED:     215257	TO_CACHE:   32421527
L1D PQ	ACCESS:    7376181	FORWARD:          0	MERGED:    1069183	TO_CACHE:    6284973

L1D UNIQUE REGIONS ACCESSED: 0
L1D REGIONS CONFLICTS: 0
L1D Cross Page Prefetch Requests: 2734360
L1D Same Page Prefetch Requests: 5696357
L1D ROI Sum of L1D PQ occupancy: 97908328
L1D PREFETCHES PUSHED FROM L2C: 0
L1I TOTAL     ACCESS:   37750722  HIT:   29249295  MISS:    8501427  HIT %:    77.4801  MISS %:    22.5199   MPKI: 42.5071
L1I LOAD      ACCESS:   37750722  HIT:   29249295  MISS:    8501427  HIT %:    77.4801  MISS %:    22.5199   MPKI: 42.5071
L1I PREFETCH  REQUESTED:          0  ISSUED:          0  USEFUL:          0  USELESS:          0
L1I USEFUL LOAD PREFETCHES:          0 PREFETCH ISSUED TO LOWER LEVEL:          0  ACCURACY: -nan
L1I TIMELY PREFETCHES:          0 LATE PREFETCHES: 0 DROPPED PREFETCHES: 0
L1I PREFETCHES SAME FILL-ORIGIN LEVEL: 0 DIFFERENT FILL-ORIGIN LEVEL: 0
L1I AVERAGE MISS LATENCY: 17.928 cycles
L1I RQ	ACCESS:   58522915	FORWARD:          0	MERGED:   18282511	TO_CACHE:   40240404

BTB TOTAL     ACCESS:   25868833  HIT:   24240387  MISS:    1628446  HIT %:     93.705  MISS %:    6.29501   MPKI: 8.14223
BTB BRANCH_DIRECT_JUMP	ACCESS:    1694760  HIT:    1684405  MISS:      10355
BTB BRANCH_INDIRECT	ACCESS:    9830410  HIT:    9194063  MISS:     636347
BTB BRANCH_CONDITIONAL	ACCESS:    7683208  HIT:    7668728  MISS:      14480
BTB BRANCH_DIRECT_CALL	ACCESS:    2643025  HIT:    2609037  MISS:      33988
BTB BRANCH_INDIRECT_CALL	ACCESS:     687193  HIT:     583910  MISS:     103283
BTB BRANCH_RETURN	ACCESS:    3330237  HIT:    2500244  MISS:     829993
BTB BRANCH_OTHER ACCESS:          0  HIT:          0  MISS:          0

L2C TOTAL     ACCESS:   19932091  HIT:   13279939  MISS:    6652152  HIT %:    66.6259  MISS %:    33.3741   MPKI: 33.2608
L2C LOAD      ACCESS:   11038930  HIT:    8595212  MISS:    2443718  HIT %:    77.8627  MISS %:    22.1373   MPKI: 12.2186
L2C DATA LOAD MPKI: 9.52563
L2C INSTRUCTION LOAD MPKI: 2.69295
L2C RFO       ACCESS:    3552145  HIT:     155588  MISS:    3396557  HIT %:    4.38011  MISS %:    95.6199   MPKI: 16.9828
L2C PREFETCH  ACCESS:     720370  HIT:     147389  MISS:     572981  HIT %:    20.4602  MISS %:    79.5398   MPKI: 2.8649
AGUS PREFETCH L1 MISS: 0
L2C DATA PREFETCH MPKI: 2.8649
L2C INSTRUCTION PREFETCH MPKI: 0
L2C WRITEBACK ACCESS:    4350610  HIT:    4202252  MISS:     148358  HIT %:    96.5899  MISS %:    3.41005   MPKI: 0.74179
L2C LOAD TRANSLATION ACCESS:     225589  HIT:     143719  MISS:      81870  HIT %:    63.7083  MISS %:    36.2917   MPKI: 0.40935
L2C TRANSLATION FROM L1D PREFETCHER ACCESS:      44447  HIT:      35779  MISS:       8668  HIT %:    80.4981  MISS %:    19.5019   MPKI: 0.04334
L2C PREFETCH  REQUESTED:          0  ISSUED:          0  USEFUL:      12760  USELESS:     568894
L2C USEFUL LOAD PREFETCHES:      12760 PREFETCH ISSUED TO LOWER LEVEL:     572981  ACCURACY: 2.22695
L2C TIMELY PREFETCHES:      12760 LATE PREFETCHES: 0 DROPPED PREFETCHES: 0
L2C PREFETCHES SAME FILL-ORIGIN LEVEL: 0 DIFFERENT FILL-ORIGIN LEVEL: 0
L2C AVERAGE MISS LATENCY: 172.733 cycles
L2C RQ	ACCESS:   14861200	FORWARD:          0	MERGED:          0	TO_CACHE:   14861111
L2C WQ	ACCESS:    4350610	FORWARD:        104	MERGED:          0	TO_CACHE:    4350610
L2C PQ	ACCESS:     720385	FORWARD:          0	MERGED:          0	TO_CACHE:     720370

L2C Instructions Evicting Data 491213
L2C Translations Evicting Data 82686
L2C Data Evicting Data 5313638
L2C Instructions Evicting Instructions 41115
L2C Translations Evicting Instructions 6478
L2C Data Evicting Instructions 479771
L2C Instructions Evicting Translations 6263
L2C Translations Evicting Translations 1374
L2C Data Evicting Translations 81256
L2C Dense regions hint from L2: 0
PSCL5 TOTAL     ACCESS:     192473  HIT:     192473  MISS:          0  HIT %:        100  MISS %:          0   MPKI: 0
PSCL5 LOAD TRANSLATION ACCESS:     165990  HIT:     165990  MISS:          0  HIT %:        100  MISS %:          0   MPKI: 0
PSCL5 TRANSLATION FROM L1D PREFETCHER ACCESS:      26483  HIT:      26483  MISS:          0  HIT %:        100  MISS %:          0   MPKI: 0
PSCL5 PREFETCH  REQUESTED:          0  ISSUED:          0  USEFUL:          0  USELESS:          0
PSCL5 USEFUL LOAD PREFETCHES:          0 PREFETCH ISSUED TO LOWER LEVEL:          0  ACCURACY: -nan
PSCL5 TIMELY PREFETCHES:          0 LATE PREFETCHES: 0 DROPPED PREFETCHES: 0
PSCL5 PREFETCHES SAME FILL-ORIGIN LEVEL: 0 DIFFERENT FILL-ORIGIN LEVEL: 0

PSCL4 TOTAL     ACCESS:     187217  HIT:     186899  MISS:        318  HIT %:    99.8301  MISS %:   0.169856   MPKI: 0.00159
PSCL4 LOAD TRANSLATION ACCESS:     162663  HIT:     162345  MISS:        318  HIT %:    99.8045  MISS %:   0.195496   MPKI: 0.00159
PSCL4 TRANSLATION FROM L1D PREFETCHER ACCESS:      24554  HIT:      24554  MISS:          0  HIT %:        100  MISS %:          0   MPKI: 0
PSCL4 PREFETCH  REQUESTED:          0  ISSUED:          0  USEFUL:          0  USELESS:          0
PSCL4 USEFUL LOAD PREFETCHES:          0 PREFETCH ISSUED TO LOWER LEVEL:          0  ACCURACY: -nan
PSCL4 TIMELY PREFETCHES:          0 LATE PREFETCHES: 0 DROPPED PREFETCHES: 0
PSCL4 PREFETCHES SAME FILL-ORIGIN LEVEL: 0 DIFFERENT FILL-ORIGIN LEVEL: 0

PSCL3 TOTAL     ACCESS:     185983  HIT:     184367  MISS:       1616  HIT %:    99.1311  MISS %:   0.868897   MPKI: 0.00808
PSCL3 LOAD TRANSLATION ACCESS:     162752  HIT:     161136  MISS:       1616  HIT %:    99.0071  MISS %:   0.992922   MPKI: 0.00808
PSCL3 TRANSLATION FROM L1D PREFETCHER ACCESS:      23231  HIT:      23231  MISS:          0  HIT %:        100  MISS %:          0   MPKI: 0
PSCL3 PREFETCH  REQUESTED:          0  ISSUED:          0  USEFUL:          0  USELESS:          0
PSCL3 USEFUL LOAD PREFETCHES:          0 PREFETCH ISSUED TO LOWER LEVEL:          0  ACCURACY: -nan
PSCL3 TIMELY PREFETCHES:          0 LATE PREFETCHES: 0 DROPPED PREFETCHES: 0
PSCL3 PREFETCHES SAME FILL-ORIGIN LEVEL: 0 DIFFERENT FILL-ORIGIN LEVEL: 0

PSCL2 TOTAL     ACCESS:     176663  HIT:     118377  MISS:      58286  HIT %:    67.0072  MISS %:    32.9928   MPKI: 0.29143
PSCL2 LOAD TRANSLATION ACCESS:     166526  HIT:     108240  MISS:      58286  HIT %:    64.9989  MISS %:    35.0011   MPKI: 0.29143
PSCL2 TRANSLATION FROM L1D PREFETCHER ACCESS:      10137  HIT:      10137  MISS:          0  HIT %:        100  MISS %:          0   MPKI: 0
PSCL2 PREFETCH  REQUESTED:          0  ISSUED:          0  USEFUL:          0  USELESS:          0
PSCL2 USEFUL LOAD PREFETCHES:          0 PREFETCH ISSUED TO LOWER LEVEL:          0  ACCURACY: -nan
PSCL2 TIMELY PREFETCHES:          0 LATE PREFETCHES: 0 DROPPED PREFETCHES: 0
PSCL2 PREFETCHES SAME FILL-ORIGIN LEVEL: 0 DIFFERENT FILL-ORIGIN LEVEL: 0

LLC TOTAL     ACCESS:   10539416  HIT:    3736746  MISS:    6802670  HIT %:     35.455  MISS %:     64.545   MPKI: 34.0134
LLC LOAD      ACCESS:    2443718  HIT:    1330885  MISS:    1112833  HIT %:    54.4615  MISS %:    45.5385   MPKI: 5.56417
LLC RFO       ACCESS:    3396527  HIT:     884443  MISS:    2512084  HIT %:    26.0396  MISS %:    73.9604   MPKI: 12.5604
LLC PREFETCH  ACCESS:     572981  HIT:      29435  MISS:     543546  HIT %:    5.13717  MISS %:    94.8628   MPKI: 2.71773
AGUS PREFETCH L1 MISS: 0
LLC WRITEBACK ACCESS:    4035652  HIT:    1463875  MISS:    2571777  HIT %:    36.2736  MISS %:    63.7264   MPKI: 12.8589
LLC LOAD TRANSLATION ACCESS:      81870  HIT:      24715  MISS:      57155  HIT %:    30.1881  MISS %:    69.8119   MPKI: 0.285775
LLC TRANSLATION FROM L1D PREFETCHER ACCESS:       8668  HIT:       3393  MISS:       5275  HIT %:     39.144  MISS %:     60.856   MPKI: 0.026375
LLC PREFETCH  REQUESTED:          0  ISSUED:          0  USEFUL:       2094  USELESS:     551187
LLC USEFUL LOAD PREFETCHES:       2094 PREFETCH ISSUED TO LOWER LEVEL:     543546  ACCURACY: 0.385248
LLC TIMELY PREFETCHES:       2094 LATE PREFETCHES: 0 DROPPED PREFETCHES: 0
LLC PREFETCHES SAME FILL-ORIGIN LEVEL: 0 DIFFERENT FILL-ORIGIN LEVEL: 0
LLC AVERAGE MISS LATENCY: 139.835 cycles
LLC RQ	ACCESS:    5930813	FORWARD:          0	MERGED:          0	TO_CACHE:    5930783
LLC WQ	ACCESS:    4035652	FORWARD:         30	MERGED:          0	TO_CACHE:    4035652
LLC PQ	ACCESS:     572981	FORWARD:          0	MERGED:          0	TO_CACHE:     572981

LLC Dense regions hint to LLC: 0

RAW hits: 2588781
Loads Generated: 46798431
Loads sent to L1D: 44209650
Stores Generated: 32636771
Stores sent to L1D: 32636784
Major fault: 0 Minor fault: 25901
Allocated PAGES: 25901
Completed 

DRAM Statistics
 CHANNEL 0
 RQ ROW_BUFFER_HIT:    1782321  ROW_BUFFER_MISS:    2448213
 DBUS_CONGESTED:       1998
 WQ ROW_BUFFER_HIT:     606204  ROW_BUFFER_MISS:    2143830  FULL:      48707

 AVG_CONGESTED_CYCLE: 3
 All warmup complete: 2
Channel 0 Bank busy for read cycles: 0
Channel 0 Bank busy for write cycles: 0
Channel 0
Rank 0
0banks busy for read cycles: 162320318
0banks busy for write cycles: 278769
1banks busy for read cycles: 74316619
1banks busy for write cycles: 42893202
2banks busy for read cycles: 21773621
2banks busy for write cycles: 20707994
3banks busy for read cycles: 15651400
3banks busy for write cycles: 10733519
4banks busy for read cycles: 5115526
4banks busy for write cycles: 6163100
5banks busy for read cycles: 4472832
5banks busy for write cycles: 4156870
6banks busy for read cycles: 5474884
6banks busy for write cycles: 3587824
7banks busy for read cycles: 7134642
7banks busy for write cycles: 5855690
8banks busy for read cycles: 21685831
8banks busy for write cycles: 34961556

CPU 0 Branch Prediction Accuracy: 99.9365% MPKI: 0.098915 Average ROB Occupancy at Mispredict: 107.237
Branch types
NOT_BRANCH: 168850935 84.4255%
BRANCH_DIRECT_JUMP: 1694760 0.84738%
BRANCH_INDIRECT: 9830410 4.91521%
BRANCH_CONDITIONAL: 12963086 6.48154%
BRANCH_DIRECT_CALL: 2643025 1.32151%
BRANCH_INDIRECT_CALL: 687193 0.343597%
BRANCH_RETURN: 3330237 1.66512%
BRANCH_OTHER: 0 0%

DRAM PAGES: 1048576
Allocated PAGES: 25901
