
*** ChampSim Multicore Out-of-Order Simulator ***

Warmup Instructions: 50000000
Simulation Instructions: 200000000
Number of CPUs: 1
LLC sets: 2048
LLC ways: 16
Off-chip DRAM Size: 4096 MB Channels: 1 Width: 64-bit Data Rate: 6400 MT/s
CPU 0 runs traces/spec2k17/server_024.champsimtrace.xz
.xz
BTB has LRU replacement policy
ITLB has LRU replacement policy
DTLB has LRU replacement policy
STLB has LRU replacement policy
L1I has LRU replacement policy
L1D has LRU replacement policy
Initialize SRRIP state for L2C
Initialize DRRIP state for LLC
Heartbeat CPU 0 instructions: 10000001 cycles: 2811154 heartbeat IPC: 3.55726 cumulative IPC: 3.55726 (Simulation time: 0 hr 0 min 41 sec) 
Heartbeat CPU 0 instructions: 20000002 cycles: 5615638 heartbeat IPC: 3.56572 cumulative IPC: 3.56148 (Simulation time: 0 hr 1 min 22 sec) 
Heartbeat CPU 0 instructions: 30000002 cycles: 8430145 heartbeat IPC: 3.55302 cumulative IPC: 3.55866 (Simulation time: 0 hr 2 min 4 sec) 
Heartbeat CPU 0 instructions: 40000001 cycles: 11238173 heartbeat IPC: 3.56122 cumulative IPC: 3.5593 (Simulation time: 0 hr 2 min 45 sec) 
Heartbeat CPU 0 instructions: 50000003 cycles: 14041951 heartbeat IPC: 3.56662 cumulative IPC: 3.56076 (Simulation time: 0 hr 3 min 25 sec) 

Warmup complete CPU 0 instructions: 50000003 cycles: 14041951 (Simulation time: 0 hr 3 min 25 sec) 

Heartbeat CPU 0 instructions: 60000000 cycles: 43581729 heartbeat IPC: 0.338526 cumulative IPC: 0.338526 (Simulation time: 0 hr 4 min 24 sec) 
Heartbeat CPU 0 instructions: 70000000 cycles: 73746341 heartbeat IPC: 0.331514 cumulative IPC: 0.334984 (Simulation time: 0 hr 5 min 16 sec) 
*** Reached end of trace for Core: 0 Repeating trace: traces/spec2k17/server_024.champsimtrace.xz
Heartbeat CPU 0 instructions: 80000001 cycles: 103569949 heartbeat IPC: 0.335305 cumulative IPC: 0.335091 (Simulation time: 0 hr 6 min 4 sec) 
Heartbeat CPU 0 instructions: 90000003 cycles: 133461954 heartbeat IPC: 0.334538 cumulative IPC: 0.334952 (Simulation time: 0 hr 6 min 58 sec) 
Heartbeat CPU 0 instructions: 100000000 cycles: 163178856 heartbeat IPC: 0.336509 cumulative IPC: 0.335262 (Simulation time: 0 hr 7 min 59 sec) 
Heartbeat CPU 0 instructions: 110000000 cycles: 193742735 heartbeat IPC: 0.327184 cumulative IPC: 0.333888 (Simulation time: 0 hr 8 min 55 sec) 
Heartbeat CPU 0 instructions: 120000000 cycles: 223850855 heartbeat IPC: 0.332136 cumulative IPC: 0.333637 (Simulation time: 0 hr 9 min 57 sec) 
Heartbeat CPU 0 instructions: 130000000 cycles: 253026219 heartbeat IPC: 0.342755 cumulative IPC: 0.33475 (Simulation time: 0 hr 10 min 55 sec) 
Heartbeat CPU 0 instructions: 140000002 cycles: 282710833 heartbeat IPC: 0.336875 cumulative IPC: 0.334985 (Simulation time: 0 hr 11 min 51 sec) 
Heartbeat CPU 0 instructions: 150000001 cycles: 312537879 heartbeat IPC: 0.335266 cumulative IPC: 0.335013 (Simulation time: 0 hr 12 min 49 sec) 
*** Reached end of trace for Core: 0 Repeating trace: traces/spec2k17/server_024.champsimtrace.xz
Heartbeat CPU 0 instructions: 160000000 cycles: 342091540 heartbeat IPC: 0.338368 cumulative IPC: 0.335315 (Simulation time: 0 hr 13 min 45 sec) 
Heartbeat CPU 0 instructions: 170000000 cycles: 371837690 heartbeat IPC: 0.336178 cumulative IPC: 0.335387 (Simulation time: 0 hr 14 min 48 sec) 
Heartbeat CPU 0 instructions: 180000000 cycles: 401741932 heartbeat IPC: 0.334401 cumulative IPC: 0.335311 (Simulation time: 0 hr 15 min 47 sec) 
Heartbeat CPU 0 instructions: 190000001 cycles: 432002292 heartbeat IPC: 0.330465 cumulative IPC: 0.33496 (Simulation time: 0 hr 16 min 49 sec) 
Heartbeat CPU 0 instructions: 200000000 cycles: 461666007 heartbeat IPC: 0.337112 cumulative IPC: 0.335103 (Simulation time: 0 hr 17 min 52 sec) 
Heartbeat CPU 0 instructions: 210000000 cycles: 490711672 heartbeat IPC: 0.344285 cumulative IPC: 0.335662 (Simulation time: 0 hr 18 min 53 sec) 
Heartbeat CPU 0 instructions: 220000000 cycles: 520505253 heartbeat IPC: 0.335643 cumulative IPC: 0.335661 (Simulation time: 0 hr 19 min 55 sec) 
Heartbeat CPU 0 instructions: 230000000 cycles: 549846502 heartbeat IPC: 0.340817 cumulative IPC: 0.335943 (Simulation time: 0 hr 20 min 58 sec) 
*** Reached end of trace for Core: 0 Repeating trace: traces/spec2k17/server_024.champsimtrace.xz
Heartbeat CPU 0 instructions: 240000002 cycles: 579339752 heartbeat IPC: 0.339061 cumulative IPC: 0.336106 (Simulation time: 0 hr 22 min 4 sec) 
Heartbeat CPU 0 instructions: 250000003 cycles: 609166115 heartbeat IPC: 0.335274 cumulative IPC: 0.336064 (Simulation time: 0 hr 23 min 8 sec) 
Finished CPU 0 instructions: 200000000 cycles: 595124164 cumulative IPC: 0.336064 (Simulation time: 0 hr 23 min 8 sec) 

ChampSim completed all CPUs

Region of Interest Statistics

CPU 0 cumulative IPC: 0.336064 instructions: 200000000 cycles: 595124164
ITLB TOTAL     ACCESS:   34434112  HIT:   32606160  MISS:    1827952  HIT %:    94.6915  MISS %:    5.30855   MPKI: 9.13976
ITLB LOAD TRANSLATION ACCESS:   34434112  HIT:   32606160  MISS:    1827952  HIT %:    94.6915  MISS %:    5.30855   MPKI: 9.13976
ITLB PREFETCH  REQUESTED:          0  ISSUED:          0  USEFUL:          0  USELESS:          0
ITLB USEFUL LOAD PREFETCHES:          0 PREFETCH ISSUED TO LOWER LEVEL:          0  ACCURACY: -nan
ITLB TIMELY PREFETCHES:          0 LATE PREFETCHES: 0 DROPPED PREFETCHES: 0
ITLB PREFETCHES SAME FILL-ORIGIN LEVEL: 0 DIFFERENT FILL-ORIGIN LEVEL: 0
ITLB AVERAGE MISS LATENCY: 9.08369 cycles
ITLB RQ	ACCESS:   40224133	FORWARD:          0	MERGED:    5351385	TO_CACHE:   34872748

DTLB TOTAL     ACCESS:   45314644  HIT:   43524876  MISS:    1789768  HIT %:    96.0504  MISS %:    3.94965   MPKI: 8.94884
DTLB LOAD TRANSLATION ACCESS:   45314644  HIT:   43524876  MISS:    1789768  HIT %:    96.0504  MISS %:    3.94965   MPKI: 8.94884
DTLB PREFETCH  REQUESTED:          0  ISSUED:          0  USEFUL:          0  USELESS:          0
DTLB USEFUL LOAD PREFETCHES:          0 PREFETCH ISSUED TO LOWER LEVEL:          0  ACCURACY: -nan
DTLB TIMELY PREFETCHES:          0 LATE PREFETCHES: 0 DROPPED PREFETCHES: 0
DTLB PREFETCHES SAME FILL-ORIGIN LEVEL: 0 DIFFERENT FILL-ORIGIN LEVEL: 0
DTLB AVERAGE MISS LATENCY: 8.85198 cycles
DTLB RQ	ACCESS:   59823594	FORWARD:          0	MERGED:   14440814	TO_CACHE:   45382780

STLB TOTAL     ACCESS:   12125460  HIT:   12112740  MISS:      12720  HIT %:    99.8951  MISS %:   0.104903   MPKI: 0.0636
STLB LOAD TRANSLATION ACCESS:    3617720  HIT:    3606258  MISS:      11462  HIT %:    99.6832  MISS %:   0.316829   MPKI: 0.05731
STLB TRANSLATION FROM L1D PREFETCHER ACCESS:    8507740  HIT:    8506482  MISS:       1258  HIT %:    99.9852  MISS %:  0.0147865   MPKI: 0.00629
STLB PREFETCH  REQUESTED:          0  ISSUED:          0  USEFUL:        906  USELESS:        341
STLB USEFUL LOAD PREFETCHES:        906 PREFETCH ISSUED TO LOWER LEVEL:          0  ACCURACY: inf
STLB TIMELY PREFETCHES:        906 LATE PREFETCHES: 153 DROPPED PREFETCHES: 164757
STLB PREFETCHES SAME FILL-ORIGIN LEVEL: 0 DIFFERENT FILL-ORIGIN LEVEL: 0
STLB AVERAGE MISS LATENCY: 52.043 cycles
STLB RQ	ACCESS:   14757072	FORWARD:          0	MERGED:    2466627	TO_CACHE:   12290445

STLB Hit, L1D data hit: 0
STLB Hit, L2C data hit: 0
STLB Hit, LLC data hit: 0
STLB Hit, LLC data miss: 0
STLB STLB hints to L2: 0
L1D TOTAL     ACCESS:   68451173  HIT:   64394053  MISS:    4057120  HIT %:     94.073  MISS %:    5.92703   MPKI: 20.2856
L1D LOAD      ACCESS:   33578706  HIT:   31317534  MISS:    2261172  HIT %:    93.2661  MISS %:    6.73395   MPKI: 11.3059
L1D RFO       ACCESS:   24511571  HIT:   23467342  MISS:    1044229  HIT %:    95.7399  MISS %:    4.26015   MPKI: 5.22114
L1D PREFETCH  ACCESS:   10360896  HIT:    9609177  MISS:     751719  HIT %:    92.7447  MISS %:    7.25535   MPKI: 3.7586
AGUS PREFETCH L1 MISS: 0
L1D PREFETCH  REQUESTED:   23303917  ISSUED:   23303364  USEFUL:     557244  USELESS:     194442
L1D USEFUL LOAD PREFETCHES:     557244 PREFETCH ISSUED TO LOWER LEVEL:    1114928  ACCURACY: 49.9803
L1D TIMELY PREFETCHES:     557244 LATE PREFETCHES: 361133 DROPPED PREFETCHES: 182772
L1D PREFETCHES SAME FILL-ORIGIN LEVEL: 1114928 DIFFERENT FILL-ORIGIN LEVEL: 0
L1D AVERAGE MISS LATENCY: 3.30371e+07 cycles
L1D RQ	ACCESS:   46985473	FORWARD:          0	MERGED:   13014869	TO_CACHE:   33677594
L1D WQ	ACCESS:   26317198	FORWARD:     311859	MERGED:     171198	TO_CACHE:   26146000
L1D PQ	ACCESS:   12164012	FORWARD:          0	MERGED:    1005811	TO_CACHE:   11139352

L1D UNIQUE REGIONS ACCESSED: 0
L1D REGIONS CONFLICTS: 0
L1D Cross Page Prefetch Requests: 8420758
L1D Same Page Prefetch Requests: 4158409
L1D ROI Sum of L1D PQ occupancy: 164209184
L1D PREFETCHES PUSHED FROM L2C: 0
L1I TOTAL     ACCESS:   38816563  HIT:   29200895  MISS:    9615668  HIT %:    75.2279  MISS %:    24.7721   MPKI: 48.0783
L1I LOAD      ACCESS:   38816563  HIT:   29200895  MISS:    9615668  HIT %:    75.2279  MISS %:    24.7721   MPKI: 48.0783
L1I PREFETCH  REQUESTED:          0  ISSUED:          0  USEFUL:          0  USELESS:          0
L1I USEFUL LOAD PREFETCHES:          0 PREFETCH ISSUED TO LOWER LEVEL:          0  ACCURACY: -nan
L1I TIMELY PREFETCHES:          0 LATE PREFETCHES: 0 DROPPED PREFETCHES: 0
L1I PREFETCHES SAME FILL-ORIGIN LEVEL: 0 DIFFERENT FILL-ORIGIN LEVEL: 0
L1I AVERAGE MISS LATENCY: 16.8567 cycles
L1I RQ	ACCESS:   57799076	FORWARD:          0	MERGED:   17574943	TO_CACHE:   40224133

BTB TOTAL     ACCESS:   30276049  HIT:   18932725  MISS:   11343324  HIT %:    62.5337  MISS %:    37.4663   MPKI: 56.7166
BTB BRANCH_DIRECT_JUMP	ACCESS:    2183763  HIT:    1387870  MISS:     795893
BTB BRANCH_INDIRECT	ACCESS:   11358219  HIT:    7100300  MISS:    4257919
BTB BRANCH_CONDITIONAL	ACCESS:    8733205  HIT:    7588000  MISS:    1145205
BTB BRANCH_DIRECT_CALL	ACCESS:    3381427  HIT:    1525545  MISS:    1855882
BTB BRANCH_INDIRECT_CALL	ACCESS:     619012  HIT:     244340  MISS:     374672
BTB BRANCH_RETURN	ACCESS:    4000423  HIT:    1086670  MISS:    2913753
BTB BRANCH_OTHER ACCESS:          0  HIT:          0  MISS:          0

L2C TOTAL     ACCESS:   15734904  HIT:   14018898  MISS:    1716006  HIT %:    89.0943  MISS %:    10.9057   MPKI: 8.58003
L2C LOAD      ACCESS:   11515695  HIT:   10332682  MISS:    1183013  HIT %:     89.727  MISS %:     10.273   MPKI: 5.91507
L2C DATA LOAD MPKI: 1.5804
L2C INSTRUCTION LOAD MPKI: 4.33467
L2C RFO       ACCESS:    1042146  HIT:     794841  MISS:     247305  HIT %:    76.2696  MISS %:    23.7304   MPKI: 1.23653
L2C PREFETCH  ACCESS:    1114494  HIT:     927089  MISS:     187405  HIT %:    83.1847  MISS %:    16.8153   MPKI: 0.937025
AGUS PREFETCH L1 MISS: 0
L2C DATA PREFETCH MPKI: 0.937025
L2C INSTRUCTION PREFETCH MPKI: 0
L2C WRITEBACK ACCESS:    1824319  HIT:    1757234  MISS:      67085  HIT %:    96.3227  MISS %:    3.67726   MPKI: 0.335425
L2C LOAD TRANSLATION ACCESS:      12481  HIT:       4974  MISS:       7507  HIT %:    39.8526  MISS %:    60.1474   MPKI: 0.037535
L2C TRANSLATION FROM L1D PREFETCHER ACCESS:     225769  HIT:     202078  MISS:      23691  HIT %:    89.5065  MISS %:    10.4935   MPKI: 0.118455
L2C PREFETCH  REQUESTED:          0  ISSUED:          0  USEFUL:      30266  USELESS:     180546
L2C USEFUL LOAD PREFETCHES:      30266 PREFETCH ISSUED TO LOWER LEVEL:     187405  ACCURACY: 16.15
L2C TIMELY PREFETCHES:      30266 LATE PREFETCHES: 0 DROPPED PREFETCHES: 0
L2C PREFETCHES SAME FILL-ORIGIN LEVEL: 0 DIFFERENT FILL-ORIGIN LEVEL: 0
L2C AVERAGE MISS LATENCY: 43.1 cycles
L2C RQ	ACCESS:   12796110	FORWARD:          0	MERGED:          0	TO_CACHE:   12796091
L2C WQ	ACCESS:    1824319	FORWARD:        453	MERGED:          0	TO_CACHE:    1824319
L2C PQ	ACCESS:    1114928	FORWARD:          0	MERGED:          0	TO_CACHE:    1114494

L2C Instructions Evicting Data 375534
L2C Translations Evicting Data 17742
L2C Data Evicting Data 395907
L2C Instructions Evicting Instructions 478592
L2C Translations Evicting Instructions 12670
L2C Data Evicting Instructions 338094
L2C Instructions Evicting Translations 12807
L2C Translations Evicting Translations 786
L2C Data Evicting Translations 16789
L2C Dense regions hint from L2: 0
PSCL5 TOTAL     ACCESS:     172335  HIT:     172335  MISS:          0  HIT %:        100  MISS %:          0   MPKI: 0
PSCL5 LOAD TRANSLATION ACCESS:      11314  HIT:      11314  MISS:          0  HIT %:        100  MISS %:          0   MPKI: 0
PSCL5 TRANSLATION FROM L1D PREFETCHER ACCESS:     161021  HIT:     161021  MISS:          0  HIT %:        100  MISS %:          0   MPKI: 0
PSCL5 PREFETCH  REQUESTED:          0  ISSUED:          0  USEFUL:          0  USELESS:          0
PSCL5 USEFUL LOAD PREFETCHES:          0 PREFETCH ISSUED TO LOWER LEVEL:          0  ACCURACY: -nan
PSCL5 TIMELY PREFETCHES:          0 LATE PREFETCHES: 0 DROPPED PREFETCHES: 0
PSCL5 PREFETCHES SAME FILL-ORIGIN LEVEL: 0 DIFFERENT FILL-ORIGIN LEVEL: 0

PSCL4 TOTAL     ACCESS:     130803  HIT:     130767  MISS:         36  HIT %:    99.9725  MISS %:  0.0275223   MPKI: 0.00018
PSCL4 LOAD TRANSLATION ACCESS:      10820  HIT:      10784  MISS:         36  HIT %:    99.6673  MISS %:   0.332717   MPKI: 0.00018
PSCL4 TRANSLATION FROM L1D PREFETCHER ACCESS:     119983  HIT:     119983  MISS:          0  HIT %:        100  MISS %:          0   MPKI: 0
PSCL4 PREFETCH  REQUESTED:          0  ISSUED:          0  USEFUL:          0  USELESS:          0
PSCL4 USEFUL LOAD PREFETCHES:          0 PREFETCH ISSUED TO LOWER LEVEL:          0  ACCURACY: -nan
PSCL4 TIMELY PREFETCHES:          0 LATE PREFETCHES: 0 DROPPED PREFETCHES: 0
PSCL4 PREFETCHES SAME FILL-ORIGIN LEVEL: 0 DIFFERENT FILL-ORIGIN LEVEL: 0

PSCL3 TOTAL     ACCESS:     137451  HIT:     137415  MISS:         36  HIT %:    99.9738  MISS %:  0.0261912   MPKI: 0.00018
PSCL3 LOAD TRANSLATION ACCESS:      11224  HIT:      11188  MISS:         36  HIT %:    99.6793  MISS %:   0.320741   MPKI: 0.00018
PSCL3 TRANSLATION FROM L1D PREFETCHER ACCESS:     126227  HIT:     126227  MISS:          0  HIT %:        100  MISS %:          0   MPKI: 0
PSCL3 PREFETCH  REQUESTED:          0  ISSUED:          0  USEFUL:          0  USELESS:          0
PSCL3 USEFUL LOAD PREFETCHES:          0 PREFETCH ISSUED TO LOWER LEVEL:          0  ACCURACY: -nan
PSCL3 TIMELY PREFETCHES:          0 LATE PREFETCHES: 0 DROPPED PREFETCHES: 0
PSCL3 PREFETCHES SAME FILL-ORIGIN LEVEL: 0 DIFFERENT FILL-ORIGIN LEVEL: 0

PSCL2 TOTAL     ACCESS:      50788  HIT:      49598  MISS:       1190  HIT %:    97.6569  MISS %:    2.34307   MPKI: 0.00595
PSCL2 LOAD TRANSLATION ACCESS:      11400  HIT:      10210  MISS:       1190  HIT %:    89.5614  MISS %:    10.4386   MPKI: 0.00595
PSCL2 TRANSLATION FROM L1D PREFETCHER ACCESS:      39388  HIT:      39388  MISS:          0  HIT %:        100  MISS %:          0   MPKI: 0
PSCL2 PREFETCH  REQUESTED:          0  ISSUED:          0  USEFUL:          0  USELESS:          0
PSCL2 USEFUL LOAD PREFETCHES:          0 PREFETCH ISSUED TO LOWER LEVEL:          0  ACCURACY: -nan
PSCL2 TIMELY PREFETCHES:          0 LATE PREFETCHES: 0 DROPPED PREFETCHES: 0
PSCL2 PREFETCHES SAME FILL-ORIGIN LEVEL: 0 DIFFERENT FILL-ORIGIN LEVEL: 0

LLC TOTAL     ACCESS:    1991373  HIT:    1848368  MISS:     143005  HIT %:    92.8188  MISS %:    7.18123   MPKI: 0.715025
LLC LOAD      ACCESS:    1183005  HIT:    1147805  MISS:      35200  HIT %:    97.0245  MISS %:    2.97547   MPKI: 0.176
LLC RFO       ACCESS:     247302  HIT:     171645  MISS:      75657  HIT %:     69.407  MISS %:     30.593   MPKI: 0.378285
LLC PREFETCH  ACCESS:     187404  HIT:     158774  MISS:      28630  HIT %:    84.7228  MISS %:    15.2772   MPKI: 0.14315
AGUS PREFETCH L1 MISS: 0
LLC WRITEBACK ACCESS:     342464  HIT:     341240  MISS:       1224  HIT %:    99.6426  MISS %:    0.35741   MPKI: 0.00612
LLC LOAD TRANSLATION ACCESS:       7507  HIT:       6909  MISS:        598  HIT %:    92.0341  MISS %:     7.9659   MPKI: 0.00299
LLC TRANSLATION FROM L1D PREFETCHER ACCESS:      23691  HIT:      21995  MISS:       1696  HIT %:    92.8412  MISS %:    7.15884   MPKI: 0.00848
LLC PREFETCH  REQUESTED:          0  ISSUED:          0  USEFUL:       2357  USELESS:      27402
LLC USEFUL LOAD PREFETCHES:       2357 PREFETCH ISSUED TO LOWER LEVEL:      28630  ACCURACY: 8.23262
LLC TIMELY PREFETCHES:       2357 LATE PREFETCHES: 0 DROPPED PREFETCHES: 0
LLC PREFETCHES SAME FILL-ORIGIN LEVEL: 0 DIFFERENT FILL-ORIGIN LEVEL: 0
LLC AVERAGE MISS LATENCY: 171.041 cycles
LLC RQ	ACCESS:    1461516	FORWARD:          0	MERGED:          0	TO_CACHE:    1461505
LLC WQ	ACCESS:     342464	FORWARD:         12	MERGED:          0	TO_CACHE:     342464
LLC PQ	ACCESS:     187405	FORWARD:          0	MERGED:          0	TO_CACHE:     187404

LLC Dense regions hint to LLC: 0

RAW hits: 1378499
Loads Generated: 48363972
Loads sent to L1D: 46985473
Stores Generated: 26317189
Stores sent to L1D: 26317198
Major fault: 0 Minor fault: 2466
Allocated PAGES: 2466
Completed 

DRAM Statistics
 CHANNEL 0
 RQ ROW_BUFFER_HIT:      54977  ROW_BUFFER_MISS:      86782
 DBUS_CONGESTED:        140
 WQ ROW_BUFFER_HIT:       7698  ROW_BUFFER_MISS:      76062  FULL:          0

 AVG_CONGESTED_CYCLE: 4
 All warmup complete: 2
Channel 0 Bank busy for read cycles: 0
Channel 0 Bank busy for write cycles: 0
Channel 0
Rank 0
0banks busy for read cycles: 584082354
0banks busy for write cycles: 18566
1banks busy for read cycles: 3970495
1banks busy for write cycles: 2378309
2banks busy for read cycles: 612417
2banks busy for write cycles: 507691
3banks busy for read cycles: 343026
3banks busy for write cycles: 249593
4banks busy for read cycles: 276912
4banks busy for write cycles: 194508
5banks busy for read cycles: 217225
5banks busy for write cycles: 187140
6banks busy for read cycles: 216275
6banks busy for write cycles: 199781
7banks busy for read cycles: 233261
7banks busy for write cycles: 242395
8banks busy for read cycles: 558688
8banks busy for write cycles: 635529

CPU 0 Branch Prediction Accuracy: 99.8129% MPKI: 0.329815 Average ROB Occupancy at Mispredict: 48.6909
Branch types
NOT_BRANCH: 164744969 82.3725%
BRANCH_DIRECT_JUMP: 2183763 1.09188%
BRANCH_INDIRECT: 11358219 5.67911%
BRANCH_CONDITIONAL: 13711964 6.85598%
BRANCH_DIRECT_CALL: 3381427 1.69071%
BRANCH_INDIRECT_CALL: 619012 0.309506%
BRANCH_RETURN: 4000423 2.00021%
BRANCH_OTHER: 0 0%

DRAM PAGES: 1048576
Allocated PAGES: 2466
