
*** ChampSim Multicore Out-of-Order Simulator ***

Warmup Instructions: 50000000
Simulation Instructions: 200000000
Number of CPUs: 1
LLC sets: 2048
LLC ways: 16
Off-chip DRAM Size: 4096 MB Channels: 1 Width: 64-bit Data Rate: 6400 MT/s
CPU 0 runs traces/spec2k17/server_009.champsimtrace.xz
.xz
BTB has LRU replacement policy
ITLB has LRU replacement policy
DTLB has LRU replacement policy
STLB has LRU replacement policy
L1I has LRU replacement policy
L1D has LRU replacement policy
Initialize SRRIP state for L2C
Initialize DRRIP state for LLC
Heartbeat CPU 0 instructions: 10000003 cycles: 2778906 heartbeat IPC: 3.59854 cumulative IPC: 3.59854 (Simulation time: 0 hr 0 min 37 sec) 
Heartbeat CPU 0 instructions: 20000001 cycles: 5552941 heartbeat IPC: 3.60486 cumulative IPC: 3.6017 (Simulation time: 0 hr 1 min 12 sec) 
Heartbeat CPU 0 instructions: 30000002 cycles: 8327995 heartbeat IPC: 3.60353 cumulative IPC: 3.60231 (Simulation time: 0 hr 1 min 49 sec) 
Heartbeat CPU 0 instructions: 40000003 cycles: 11107642 heartbeat IPC: 3.59758 cumulative IPC: 3.60112 (Simulation time: 0 hr 2 min 23 sec) 
Heartbeat CPU 0 instructions: 50000003 cycles: 13889341 heartbeat IPC: 3.59493 cumulative IPC: 3.59988 (Simulation time: 0 hr 2 min 59 sec) 

Warmup complete CPU 0 instructions: 50000003 cycles: 13889341 (Simulation time: 0 hr 2 min 59 sec) 

Heartbeat CPU 0 instructions: 60000000 cycles: 41357045 heartbeat IPC: 0.364064 cumulative IPC: 0.364064 (Simulation time: 0 hr 3 min 59 sec) 
Heartbeat CPU 0 instructions: 70000001 cycles: 73859181 heartbeat IPC: 0.307672 cumulative IPC: 0.333501 (Simulation time: 0 hr 5 min 20 sec) 
Heartbeat CPU 0 instructions: 80000001 cycles: 97816561 heartbeat IPC: 0.417408 cumulative IPC: 0.357453 (Simulation time: 0 hr 6 min 20 sec) 
Heartbeat CPU 0 instructions: 90000002 cycles: 121227951 heartbeat IPC: 0.427143 cumulative IPC: 0.372652 (Simulation time: 0 hr 7 min 13 sec) 
Heartbeat CPU 0 instructions: 100000003 cycles: 144867944 heartbeat IPC: 0.423012 cumulative IPC: 0.381742 (Simulation time: 0 hr 8 min 14 sec) 
*** Reached end of trace for Core: 0 Repeating trace: traces/spec2k17/server_009.champsimtrace.xz
Heartbeat CPU 0 instructions: 110000000 cycles: 168000492 heartbeat IPC: 0.432291 cumulative IPC: 0.389329 (Simulation time: 0 hr 9 min 13 sec) 
Heartbeat CPU 0 instructions: 120000000 cycles: 190824361 heartbeat IPC: 0.438138 cumulative IPC: 0.395625 (Simulation time: 0 hr 10 min 11 sec) 
Heartbeat CPU 0 instructions: 130000001 cycles: 214766813 heartbeat IPC: 0.417668 cumulative IPC: 0.398253 (Simulation time: 0 hr 11 min 9 sec) 
Heartbeat CPU 0 instructions: 140000001 cycles: 238668482 heartbeat IPC: 0.418381 cumulative IPC: 0.400393 (Simulation time: 0 hr 12 min 8 sec) 
Heartbeat CPU 0 instructions: 150000001 cycles: 262099056 heartbeat IPC: 0.426793 cumulative IPC: 0.402885 (Simulation time: 0 hr 13 min 5 sec) 
Heartbeat CPU 0 instructions: 160000002 cycles: 286188029 heartbeat IPC: 0.415128 cumulative IPC: 0.403968 (Simulation time: 0 hr 14 min 6 sec) 
Heartbeat CPU 0 instructions: 170000001 cycles: 319942049 heartbeat IPC: 0.296261 cumulative IPC: 0.392089 (Simulation time: 0 hr 15 min 28 sec) 
Heartbeat CPU 0 instructions: 180000001 cycles: 345784174 heartbeat IPC: 0.386965 cumulative IPC: 0.39169 (Simulation time: 0 hr 16 min 36 sec) 
Heartbeat CPU 0 instructions: 190000000 cycles: 369066542 heartbeat IPC: 0.42951 cumulative IPC: 0.394169 (Simulation time: 0 hr 17 min 36 sec) 
Heartbeat CPU 0 instructions: 200000000 cycles: 392893089 heartbeat IPC: 0.4197 cumulative IPC: 0.395774 (Simulation time: 0 hr 18 min 38 sec) 
*** Reached end of trace for Core: 0 Repeating trace: traces/spec2k17/server_009.champsimtrace.xz
Heartbeat CPU 0 instructions: 210000003 cycles: 415836118 heartbeat IPC: 0.435862 cumulative IPC: 0.398063 (Simulation time: 0 hr 19 min 38 sec) 
Heartbeat CPU 0 instructions: 220000000 cycles: 438885081 heartbeat IPC: 0.433859 cumulative IPC: 0.400004 (Simulation time: 0 hr 20 min 42 sec) 
Heartbeat CPU 0 instructions: 230000000 cycles: 462679507 heartbeat IPC: 0.420267 cumulative IPC: 0.401078 (Simulation time: 0 hr 21 min 48 sec) 
Heartbeat CPU 0 instructions: 240000001 cycles: 486337881 heartbeat IPC: 0.422683 cumulative IPC: 0.40216 (Simulation time: 0 hr 22 min 48 sec) 
Heartbeat CPU 0 instructions: 250000000 cycles: 509763362 heartbeat IPC: 0.426886 cumulative IPC: 0.403328 (Simulation time: 0 hr 23 min 48 sec) 
Finished CPU 0 instructions: 200000001 cycles: 495874023 cumulative IPC: 0.403328 (Simulation time: 0 hr 23 min 48 sec) 

ChampSim completed all CPUs

Region of Interest Statistics

CPU 0 cumulative IPC: 0.403328 instructions: 200000001 cycles: 495874023
ITLB TOTAL     ACCESS:   33736427  HIT:   33024105  MISS:     712322  HIT %:    97.8886  MISS %:    2.11143   MPKI: 3.56161
ITLB LOAD TRANSLATION ACCESS:   33736427  HIT:   33024105  MISS:     712322  HIT %:    97.8886  MISS %:    2.11143   MPKI: 3.56161
ITLB PREFETCH  REQUESTED:          0  ISSUED:          0  USEFUL:          0  USELESS:          0
ITLB USEFUL LOAD PREFETCHES:          0 PREFETCH ISSUED TO LOWER LEVEL:          0  ACCURACY: -nan
ITLB TIMELY PREFETCHES:          0 LATE PREFETCHES: 0 DROPPED PREFETCHES: 0
ITLB PREFETCHES SAME FILL-ORIGIN LEVEL: 0 DIFFERENT FILL-ORIGIN LEVEL: 0
ITLB AVERAGE MISS LATENCY: 15.4919 cycles
ITLB RQ	ACCESS:   40245501	FORWARD:          0	MERGED:    6338776	TO_CACHE:   33906725

DTLB TOTAL     ACCESS:   39682929  HIT:   34973740  MISS:    4709189  HIT %:     88.133  MISS %:     11.867   MPKI: 23.5459
DTLB LOAD TRANSLATION ACCESS:   39682929  HIT:   34973740  MISS:    4709189  HIT %:     88.133  MISS %:     11.867   MPKI: 23.5459
DTLB PREFETCH  REQUESTED:          0  ISSUED:          0  USEFUL:          0  USELESS:          0
DTLB USEFUL LOAD PREFETCHES:          0 PREFETCH ISSUED TO LOWER LEVEL:          0  ACCURACY: -nan
DTLB TIMELY PREFETCHES:          0 LATE PREFETCHES: 0 DROPPED PREFETCHES: 0
DTLB PREFETCHES SAME FILL-ORIGIN LEVEL: 0 DIFFERENT FILL-ORIGIN LEVEL: 0
DTLB AVERAGE MISS LATENCY: 10.3715 cycles
DTLB RQ	ACCESS:   51684699	FORWARD:          0	MERGED:   11842368	TO_CACHE:   39842331

STLB TOTAL     ACCESS:   14308014  HIT:   13895265  MISS:     412749  HIT %:    97.1153  MISS %:    2.88474   MPKI: 2.06374
STLB LOAD TRANSLATION ACCESS:    5421511  HIT:    5012273  MISS:     409238  HIT %:    92.4516  MISS %:    7.54841   MPKI: 2.04619
STLB TRANSLATION FROM L1D PREFETCHER ACCESS:    8886503  HIT:    8882992  MISS:       3511  HIT %:    99.9605  MISS %:  0.0395094   MPKI: 0.017555
STLB PREFETCH  REQUESTED:          0  ISSUED:          0  USEFUL:       2890  USELESS:        620
STLB USEFUL LOAD PREFETCHES:       2890 PREFETCH ISSUED TO LOWER LEVEL:          0  ACCURACY: inf
STLB TIMELY PREFETCHES:       2890 LATE PREFETCHES: 786 DROPPED PREFETCHES: 123837
STLB PREFETCHES SAME FILL-ORIGIN LEVEL: 0 DIFFERENT FILL-ORIGIN LEVEL: 0
STLB AVERAGE MISS LATENCY: 39.3246 cycles
STLB RQ	ACCESS:   18111784	FORWARD:          0	MERGED:    3678746	TO_CACHE:   14433038

STLB Hit, L1D data hit: 0
STLB Hit, L2C data hit: 0
STLB Hit, LLC data hit: 0
STLB Hit, LLC data miss: 0
STLB STLB hints to L2: 0
L1D TOTAL     ACCESS:   61272137  HIT:   55429488  MISS:    5842649  HIT %:    90.4644  MISS %:    9.53557   MPKI: 29.2132
L1D LOAD      ACCESS:   32313635  HIT:   27780686  MISS:    4532949  HIT %:     85.972  MISS %:     14.028   MPKI: 22.6647
L1D RFO       ACCESS:   18854364  HIT:   18495309  MISS:     359055  HIT %:    98.0956  MISS %:    1.90436   MPKI: 1.79527
L1D PREFETCH  ACCESS:   10104138  HIT:    9153493  MISS:     950645  HIT %:    90.5915  MISS %:    9.40847   MPKI: 4.75322
AGUS PREFETCH L1 MISS: 0
L1D PREFETCH  REQUESTED:   26236737  ISSUED:   26236411  USEFUL:     910181  USELESS:      40457
L1D USEFUL LOAD PREFETCHES:     910181 PREFETCH ISSUED TO LOWER LEVEL:    2133618  ACCURACY: 42.659
L1D TIMELY PREFETCHES:     910181 LATE PREFETCHES: 1182718 DROPPED PREFETCHES: 153646
L1D PREFETCHES SAME FILL-ORIGIN LEVEL: 2133618 DIFFERENT FILL-ORIGIN LEVEL: 0
L1D AVERAGE MISS LATENCY: 3.90717e+07 cycles
L1D RQ	ACCESS:   46192224	FORWARD:          0	MERGED:   13552027	TO_CACHE:   32442908
L1D WQ	ACCESS:   19535803	FORWARD:     265372	MERGED:     294012	TO_CACHE:   19241791
L1D PQ	ACCESS:   13546138	FORWARD:          0	MERGED:     787782	TO_CACHE:   12690273

L1D UNIQUE REGIONS ACCESSED: 0
L1D REGIONS CONFLICTS: 0
L1D Cross Page Prefetch Requests: 10722833
L1D Same Page Prefetch Requests: 3808286
L1D ROI Sum of L1D PQ occupancy: 184029936
L1D PREFETCHES PUSHED FROM L2C: 0
L1I TOTAL     ACCESS:   38793710  HIT:   34306494  MISS:    4487216  HIT %:    88.4331  MISS %:    11.5669   MPKI: 22.4361
L1I LOAD      ACCESS:   38793710  HIT:   34306494  MISS:    4487216  HIT %:    88.4331  MISS %:    11.5669   MPKI: 22.4361
L1I PREFETCH  REQUESTED:          0  ISSUED:          0  USEFUL:          0  USELESS:          0
L1I USEFUL LOAD PREFETCHES:          0 PREFETCH ISSUED TO LOWER LEVEL:          0  ACCURACY: -nan
L1I TIMELY PREFETCHES:          0 LATE PREFETCHES: 0 DROPPED PREFETCHES: 0
L1I PREFETCHES SAME FILL-ORIGIN LEVEL: 0 DIFFERENT FILL-ORIGIN LEVEL: 0
L1I AVERAGE MISS LATENCY: 27.7706 cycles
L1I RQ	ACCESS:   60141308	FORWARD:          0	MERGED:   19895807	TO_CACHE:   40245501

BTB TOTAL     ACCESS:   26457735  HIT:   21644987  MISS:    4812748  HIT %:    81.8097  MISS %:    18.1903   MPKI: 24.0637
BTB BRANCH_DIRECT_JUMP	ACCESS:    1781803  HIT:    1519806  MISS:     261997
BTB BRANCH_INDIRECT	ACCESS:   13089428  HIT:   10736402  MISS:    2353026
BTB BRANCH_CONDITIONAL	ACCESS:    4687165  HIT:    4274227  MISS:     412938
BTB BRANCH_DIRECT_CALL	ACCESS:    2727145  HIT:    2216757  MISS:     510388
BTB BRANCH_INDIRECT_CALL	ACCESS:     716294  HIT:     661956  MISS:      54338
BTB BRANCH_RETURN	ACCESS:    3455900  HIT:    2235839  MISS:    1220061
BTB BRANCH_OTHER ACCESS:          0  HIT:          0  MISS:          0

L2C TOTAL     ACCESS:   11946080  HIT:    8547449  MISS:    3398631  HIT %:    71.5502  MISS %:    28.4498   MPKI: 16.9932
L2C LOAD      ACCESS:    7837352  HIT:    4861222  MISS:    2976130  HIT %:    62.0263  MISS %:    37.9737   MPKI: 14.8806
L2C DATA LOAD MPKI: 4.9591
L2C INSTRUCTION LOAD MPKI: 9.92154
L2C RFO       ACCESS:     358800  HIT:     202221  MISS:     156579  HIT %:    56.3604  MISS %:    43.6396   MPKI: 0.782895
L2C PREFETCH  ACCESS:    2133617  HIT:    2112649  MISS:      20968  HIT %:    99.0173  MISS %:   0.982744   MPKI: 0.10484
AGUS PREFETCH L1 MISS: 0
L2C DATA PREFETCH MPKI: 0.10484
L2C INSTRUCTION PREFETCH MPKI: 0
L2C WRITEBACK ACCESS:     930059  HIT:     881340  MISS:      48719  HIT %:    94.7617  MISS %:    5.23827   MPKI: 0.243595
L2C LOAD TRANSLATION ACCESS:     516726  HIT:     334941  MISS:     181785  HIT %:    64.8198  MISS %:    35.1802   MPKI: 0.908925
L2C TRANSLATION FROM L1D PREFETCHER ACCESS:     169526  HIT:     155076  MISS:      14450  HIT %:    91.4762  MISS %:    8.52377   MPKI: 0.07225
L2C PREFETCH  REQUESTED:          0  ISSUED:          0  USEFUL:      11393  USELESS:      23982
L2C USEFUL LOAD PREFETCHES:      11393 PREFETCH ISSUED TO LOWER LEVEL:      20968  ACCURACY: 54.3352
L2C TIMELY PREFETCHES:      11393 LATE PREFETCHES: 0 DROPPED PREFETCHES: 0
L2C PREFETCHES SAME FILL-ORIGIN LEVEL: 0 DIFFERENT FILL-ORIGIN LEVEL: 0
L2C AVERAGE MISS LATENCY: 41.1026 cycles
L2C RQ	ACCESS:    8882499	FORWARD:          0	MERGED:          0	TO_CACHE:    8882404
L2C WQ	ACCESS:     930059	FORWARD:         96	MERGED:          0	TO_CACHE:     930059
L2C PQ	ACCESS:    2133618	FORWARD:          0	MERGED:          0	TO_CACHE:    2133617

L2C Instructions Evicting Data 709304
L2C Translations Evicting Data 71253
L2C Data Evicting Data 419919
L2C Instructions Evicting Instructions 1159466
L2C Translations Evicting Instructions 115863
L2C Data Evicting Instructions 680656
L2C Instructions Evicting Translations 115539
L2C Translations Evicting Translations 9119
L2C Data Evicting Translations 68793
L2C Dense regions hint from L2: 0
PSCL5 TOTAL     ACCESS:     528737  HIT:     528737  MISS:          0  HIT %:        100  MISS %:          0   MPKI: 0
PSCL5 LOAD TRANSLATION ACCESS:     408453  HIT:     408453  MISS:          0  HIT %:        100  MISS %:          0   MPKI: 0
PSCL5 TRANSLATION FROM L1D PREFETCHER ACCESS:     120284  HIT:     120284  MISS:          0  HIT %:        100  MISS %:          0   MPKI: 0
PSCL5 PREFETCH  REQUESTED:          0  ISSUED:          0  USEFUL:          0  USELESS:          0
PSCL5 USEFUL LOAD PREFETCHES:          0 PREFETCH ISSUED TO LOWER LEVEL:          0  ACCURACY: -nan
PSCL5 TIMELY PREFETCHES:          0 LATE PREFETCHES: 0 DROPPED PREFETCHES: 0
PSCL5 PREFETCHES SAME FILL-ORIGIN LEVEL: 0 DIFFERENT FILL-ORIGIN LEVEL: 0

PSCL4 TOTAL     ACCESS:     473997  HIT:     472755  MISS:       1242  HIT %:     99.738  MISS %:   0.262027   MPKI: 0.00621
PSCL4 LOAD TRANSLATION ACCESS:     373857  HIT:     372615  MISS:       1242  HIT %:    99.6678  MISS %:   0.332213   MPKI: 0.00621
PSCL4 TRANSLATION FROM L1D PREFETCHER ACCESS:     100140  HIT:     100140  MISS:          0  HIT %:        100  MISS %:          0   MPKI: 0
PSCL4 PREFETCH  REQUESTED:          0  ISSUED:          0  USEFUL:          0  USELESS:          0
PSCL4 USEFUL LOAD PREFETCHES:          0 PREFETCH ISSUED TO LOWER LEVEL:          0  ACCURACY: -nan
PSCL4 TIMELY PREFETCHES:          0 LATE PREFETCHES: 0 DROPPED PREFETCHES: 0
PSCL4 PREFETCHES SAME FILL-ORIGIN LEVEL: 0 DIFFERENT FILL-ORIGIN LEVEL: 0

PSCL3 TOTAL     ACCESS:     509040  HIT:     505660  MISS:       3380  HIT %:     99.336  MISS %:   0.663995   MPKI: 0.0169
PSCL3 LOAD TRANSLATION ACCESS:     405351  HIT:     401971  MISS:       3380  HIT %:    99.1662  MISS %:   0.833845   MPKI: 0.0169
PSCL3 TRANSLATION FROM L1D PREFETCHER ACCESS:     103689  HIT:     103689  MISS:          0  HIT %:        100  MISS %:          0   MPKI: 0
PSCL3 PREFETCH  REQUESTED:          0  ISSUED:          0  USEFUL:          0  USELESS:          0
PSCL3 USEFUL LOAD PREFETCHES:          0 PREFETCH ISSUED TO LOWER LEVEL:          0  ACCURACY: -nan
PSCL3 TIMELY PREFETCHES:          0 LATE PREFETCHES: 0 DROPPED PREFETCHES: 0
PSCL3 PREFETCHES SAME FILL-ORIGIN LEVEL: 0 DIFFERENT FILL-ORIGIN LEVEL: 0

PSCL2 TOTAL     ACCESS:     423365  HIT:     317404  MISS:     105961  HIT %:    74.9717  MISS %:    25.0283   MPKI: 0.529805
PSCL2 LOAD TRANSLATION ACCESS:     410666  HIT:     304705  MISS:     105961  HIT %:    74.1978  MISS %:    25.8022   MPKI: 0.529805
PSCL2 TRANSLATION FROM L1D PREFETCHER ACCESS:      12699  HIT:      12699  MISS:          0  HIT %:        100  MISS %:          0   MPKI: 0
PSCL2 PREFETCH  REQUESTED:          0  ISSUED:          0  USEFUL:          0  USELESS:          0
PSCL2 USEFUL LOAD PREFETCHES:          0 PREFETCH ISSUED TO LOWER LEVEL:          0  ACCURACY: -nan
PSCL2 TIMELY PREFETCHES:          0 LATE PREFETCHES: 0 DROPPED PREFETCHES: 0
PSCL2 PREFETCHES SAME FILL-ORIGIN LEVEL: 0 DIFFERENT FILL-ORIGIN LEVEL: 0

LLC TOTAL     ACCESS:    3771510  HIT:    3524054  MISS:     247456  HIT %:    93.4388  MISS %:    6.56119   MPKI: 1.23728
LLC LOAD      ACCESS:    2976130  HIT:    2779390  MISS:     196740  HIT %:    93.3894  MISS %:     6.6106   MPKI: 0.9837
LLC RFO       ACCESS:     156579  HIT:     115602  MISS:      40977  HIT %:    73.8298  MISS %:    26.1702   MPKI: 0.204885
LLC PREFETCH  ACCESS:      20968  HIT:      18144  MISS:       2824  HIT %:    86.5319  MISS %:    13.4681   MPKI: 0.01412
AGUS PREFETCH L1 MISS: 0
LLC WRITEBACK ACCESS:     421598  HIT:     419703  MISS:       1895  HIT %:    99.5505  MISS %:    0.44948   MPKI: 0.009475
LLC LOAD TRANSLATION ACCESS:     181785  HIT:     177828  MISS:       3957  HIT %:    97.8233  MISS %:    2.17675   MPKI: 0.019785
LLC TRANSLATION FROM L1D PREFETCHER ACCESS:      14450  HIT:      13387  MISS:       1063  HIT %:    92.6436  MISS %:     7.3564   MPKI: 0.005315
LLC PREFETCH  REQUESTED:          0  ISSUED:          0  USEFUL:        997  USELESS:       2815
LLC USEFUL LOAD PREFETCHES:        997 PREFETCH ISSUED TO LOWER LEVEL:       2824  ACCURACY: 35.3045
LLC TIMELY PREFETCHES:        997 LATE PREFETCHES: 0 DROPPED PREFETCHES: 0
LLC PREFETCHES SAME FILL-ORIGIN LEVEL: 0 DIFFERENT FILL-ORIGIN LEVEL: 0
LLC AVERAGE MISS LATENCY: 158.281 cycles
LLC RQ	ACCESS:    3328944	FORWARD:          0	MERGED:          0	TO_CACHE:    3328944
LLC WQ	ACCESS:     421598	FORWARD:          0	MERGED:          0	TO_CACHE:     421598
LLC PQ	ACCESS:      20968	FORWARD:          0	MERGED:          0	TO_CACHE:      20968

LLC Dense regions hint to LLC: 0

RAW hits: 2574916
Loads Generated: 48767141
Loads sent to L1D: 46192224
Stores Generated: 19535794
Stores sent to L1D: 19535803
Major fault: 0 Minor fault: 6724
Allocated PAGES: 6724
Completed 

DRAM Statistics
 CHANNEL 0
 RQ ROW_BUFFER_HIT:      40511  ROW_BUFFER_MISS:     205049
 DBUS_CONGESTED:         95
 WQ ROW_BUFFER_HIT:      20047  ROW_BUFFER_MISS:     167041  FULL:          0

 AVG_CONGESTED_CYCLE: 4
 All warmup complete: 2
Channel 0 Bank busy for read cycles: 0
Channel 0 Bank busy for write cycles: 0
Channel 0
Rank 0
0banks busy for read cycles: 447422348
0banks busy for write cycles: 114032
1banks busy for read cycles: 23274062
1banks busy for write cycles: 15812788
2banks busy for read cycles: 2920894
2banks busy for write cycles: 3384442
3banks busy for read cycles: 411490
3banks busy for write cycles: 869967
4banks busy for read cycles: 195966
4banks busy for write cycles: 393793
5banks busy for read cycles: 76262
5banks busy for write cycles: 226377
6banks busy for read cycles: 50045
6banks busy for write cycles: 158358
7banks busy for read cycles: 41412
7banks busy for write cycles: 153698
8banks busy for read cycles: 88169
8banks busy for write cycles: 279921

CPU 0 Branch Prediction Accuracy: 99.7405% MPKI: 0.500965 Average ROB Occupancy at Mispredict: 27.4823
Branch types
NOT_BRANCH: 161395749 80.6979%
BRANCH_DIRECT_JUMP: 1781803 0.890901%
BRANCH_INDIRECT: 13089428 6.54471%
BRANCH_CONDITIONAL: 16833331 8.41667%
BRANCH_DIRECT_CALL: 2727145 1.36357%
BRANCH_INDIRECT_CALL: 716294 0.358147%
BRANCH_RETURN: 3455900 1.72795%
BRANCH_OTHER: 0 0%

DRAM PAGES: 1048576
Allocated PAGES: 6724
