
*** ChampSim Multicore Out-of-Order Simulator ***

Warmup Instructions: 50000000
Simulation Instructions: 200000000
Number of CPUs: 1
LLC sets: 2048
LLC ways: 16
Off-chip DRAM Size: 4096 MB Channels: 1 Width: 64-bit Data Rate: 6400 MT/s
CPU 0 runs traces/spec2k17/server_036.champsimtrace.xz
.xz
BTB has LRU replacement policy
ITLB has LRU replacement policy
DTLB has LRU replacement policy
STLB has LRU replacement policy
L1I has LRU replacement policy
L1D has LRU replacement policy
Initialize SRRIP state for L2C
Initialize DRRIP state for LLC
Heartbeat CPU 0 instructions: 10000000 cycles: 2732023 heartbeat IPC: 3.66029 cumulative IPC: 3.66029 (Simulation time: 0 hr 0 min 31 sec) 
Heartbeat CPU 0 instructions: 20000002 cycles: 5474542 heartbeat IPC: 3.64628 cumulative IPC: 3.65327 (Simulation time: 0 hr 1 min 1 sec) 
Heartbeat CPU 0 instructions: 30000002 cycles: 8228054 heartbeat IPC: 3.63173 cumulative IPC: 3.64606 (Simulation time: 0 hr 1 min 32 sec) 
Heartbeat CPU 0 instructions: 40000000 cycles: 11003691 heartbeat IPC: 3.60278 cumulative IPC: 3.63514 (Simulation time: 0 hr 2 min 2 sec) 
Heartbeat CPU 0 instructions: 50000001 cycles: 13760533 heartbeat IPC: 3.62734 cumulative IPC: 3.63358 (Simulation time: 0 hr 2 min 31 sec) 

Warmup complete CPU 0 instructions: 50000001 cycles: 13760533 (Simulation time: 0 hr 2 min 31 sec) 

Heartbeat CPU 0 instructions: 60000003 cycles: 31415906 heartbeat IPC: 0.5664 cumulative IPC: 0.5664 (Simulation time: 0 hr 3 min 21 sec) 
Heartbeat CPU 0 instructions: 70000000 cycles: 48924031 heartbeat IPC: 0.571163 cumulative IPC: 0.568772 (Simulation time: 0 hr 4 min 13 sec) 
Heartbeat CPU 0 instructions: 80000002 cycles: 66432300 heartbeat IPC: 0.571159 cumulative IPC: 0.569565 (Simulation time: 0 hr 5 min 12 sec) 
Heartbeat CPU 0 instructions: 90000000 cycles: 83975814 heartbeat IPC: 0.570011 cumulative IPC: 0.569677 (Simulation time: 0 hr 6 min 13 sec) 
Heartbeat CPU 0 instructions: 100000002 cycles: 101491602 heartbeat IPC: 0.570914 cumulative IPC: 0.569924 (Simulation time: 0 hr 7 min 13 sec) 
Heartbeat CPU 0 instructions: 110000000 cycles: 119004312 heartbeat IPC: 0.571014 cumulative IPC: 0.570105 (Simulation time: 0 hr 8 min 10 sec) 
Heartbeat CPU 0 instructions: 120000000 cycles: 136526678 heartbeat IPC: 0.570699 cumulative IPC: 0.57019 (Simulation time: 0 hr 9 min 8 sec) 
*** Reached end of trace for Core: 0 Repeating trace: traces/spec2k17/server_036.champsimtrace.xz
Heartbeat CPU 0 instructions: 130000003 cycles: 154303115 heartbeat IPC: 0.562543 cumulative IPC: 0.569223 (Simulation time: 0 hr 10 min 4 sec) 
Heartbeat CPU 0 instructions: 140000000 cycles: 171760809 heartbeat IPC: 0.572813 cumulative IPC: 0.569619 (Simulation time: 0 hr 10 min 54 sec) 
Heartbeat CPU 0 instructions: 150000000 cycles: 189226697 heartbeat IPC: 0.572545 cumulative IPC: 0.56991 (Simulation time: 0 hr 11 min 49 sec) 
Heartbeat CPU 0 instructions: 160000001 cycles: 208469347 heartbeat IPC: 0.519679 cumulative IPC: 0.564946 (Simulation time: 0 hr 12 min 46 sec) 
Heartbeat CPU 0 instructions: 170000000 cycles: 225976078 heartbeat IPC: 0.571209 cumulative IPC: 0.565463 (Simulation time: 0 hr 13 min 40 sec) 
Heartbeat CPU 0 instructions: 180000000 cycles: 243578187 heartbeat IPC: 0.568114 cumulative IPC: 0.565666 (Simulation time: 0 hr 14 min 33 sec) 
Heartbeat CPU 0 instructions: 190000003 cycles: 261082875 heartbeat IPC: 0.571276 cumulative IPC: 0.566063 (Simulation time: 0 hr 15 min 26 sec) 
Heartbeat CPU 0 instructions: 200000001 cycles: 278590952 heartbeat IPC: 0.571165 cumulative IPC: 0.5664 (Simulation time: 0 hr 16 min 20 sec) 
Heartbeat CPU 0 instructions: 210000003 cycles: 296126934 heartbeat IPC: 0.570256 cumulative IPC: 0.56664 (Simulation time: 0 hr 17 min 12 sec) 
Heartbeat CPU 0 instructions: 220000000 cycles: 313643088 heartbeat IPC: 0.570901 cumulative IPC: 0.566889 (Simulation time: 0 hr 18 min 5 sec) 
Heartbeat CPU 0 instructions: 230000001 cycles: 331157451 heartbeat IPC: 0.57096 cumulative IPC: 0.567113 (Simulation time: 0 hr 18 min 56 sec) 
Heartbeat CPU 0 instructions: 240000001 cycles: 348679066 heartbeat IPC: 0.570724 cumulative IPC: 0.567302 (Simulation time: 0 hr 19 min 47 sec) 
*** Reached end of trace for Core: 0 Repeating trace: traces/spec2k17/server_036.champsimtrace.xz
Heartbeat CPU 0 instructions: 250000000 cycles: 366428673 heartbeat IPC: 0.563393 cumulative IPC: 0.567105 (Simulation time: 0 hr 20 min 40 sec) 
Finished CPU 0 instructions: 200000000 cycles: 352668143 cumulative IPC: 0.567105 (Simulation time: 0 hr 20 min 40 sec) 

ChampSim completed all CPUs

Region of Interest Statistics

CPU 0 cumulative IPC: 0.567105 instructions: 200000000 cycles: 352668143
ITLB TOTAL     ACCESS:   35597704  HIT:   33750101  MISS:    1847603  HIT %:    94.8098  MISS %:    5.19023   MPKI: 9.23802
ITLB LOAD TRANSLATION ACCESS:   35597704  HIT:   33750101  MISS:    1847603  HIT %:    94.8098  MISS %:    5.19023   MPKI: 9.23802
ITLB PREFETCH  REQUESTED:          0  ISSUED:          0  USEFUL:          0  USELESS:          0
ITLB USEFUL LOAD PREFETCHES:          0 PREFETCH ISSUED TO LOWER LEVEL:          0  ACCURACY: -nan
ITLB TIMELY PREFETCHES:          0 LATE PREFETCHES: 0 DROPPED PREFETCHES: 0
ITLB PREFETCHES SAME FILL-ORIGIN LEVEL: 0 DIFFERENT FILL-ORIGIN LEVEL: 0
ITLB AVERAGE MISS LATENCY: 9.06171 cycles
ITLB RQ	ACCESS:   40695333	FORWARD:          0	MERGED:    4730550	TO_CACHE:   35964783

DTLB TOTAL     ACCESS:   40405638  HIT:   39490647  MISS:     914991  HIT %:    97.7355  MISS %:    2.26451   MPKI: 4.57496
DTLB LOAD TRANSLATION ACCESS:   40405638  HIT:   39490647  MISS:     914991  HIT %:    97.7355  MISS %:    2.26451   MPKI: 4.57496
DTLB PREFETCH  REQUESTED:          0  ISSUED:          0  USEFUL:          0  USELESS:          0
DTLB USEFUL LOAD PREFETCHES:          0 PREFETCH ISSUED TO LOWER LEVEL:          0  ACCURACY: -nan
DTLB TIMELY PREFETCHES:          0 LATE PREFETCHES: 0 DROPPED PREFETCHES: 0
DTLB PREFETCHES SAME FILL-ORIGIN LEVEL: 0 DIFFERENT FILL-ORIGIN LEVEL: 0
DTLB AVERAGE MISS LATENCY: 7.75232 cycles
DTLB RQ	ACCESS:   58679610	FORWARD:          0	MERGED:   18217870	TO_CACHE:   40461740

STLB TOTAL     ACCESS:   20255132  HIT:   20253668  MISS:       1464  HIT %:    99.9928  MISS %:  0.0072278   MPKI: 0.00732
STLB LOAD TRANSLATION ACCESS:    2762594  HIT:    2761167  MISS:       1427  HIT %:    99.9483  MISS %:  0.0516544   MPKI: 0.007135
STLB TRANSLATION FROM L1D PREFETCHER ACCESS:   17492538  HIT:   17492501  MISS:         37  HIT %:    99.9998  MISS %: 0.000211519   MPKI: 0.000185
STLB PREFETCH  REQUESTED:          0  ISSUED:          0  USEFUL:         36  USELESS:          0
STLB USEFUL LOAD PREFETCHES:         36 PREFETCH ISSUED TO LOWER LEVEL:          0  ACCURACY: inf
STLB TIMELY PREFETCHES:         36 LATE PREFETCHES: 15 DROPPED PREFETCHES: 108685
STLB PREFETCHES SAME FILL-ORIGIN LEVEL: 0 DIFFERENT FILL-ORIGIN LEVEL: 0
STLB AVERAGE MISS LATENCY: 109.55 cycles
STLB RQ	ACCESS:   27387432	FORWARD:          0	MERGED:    7022684	TO_CACHE:   20364748

STLB Hit, L1D data hit: 0
STLB Hit, L2C data hit: 0
STLB Hit, LLC data hit: 0
STLB Hit, LLC data miss: 0
STLB STLB hints to L2: 0
L1D TOTAL     ACCESS:   83111318  HIT:   83033631  MISS:      77687  HIT %:    99.9065  MISS %:  0.0934734   MPKI: 0.388435
L1D LOAD      ACCESS:   30325159  HIT:   30295324  MISS:      29835  HIT %:    99.9016  MISS %:  0.0983837   MPKI: 0.149175
L1D RFO       ACCESS:   28293513  HIT:   28252167  MISS:      41346  HIT %:    99.8539  MISS %:   0.146132   MPKI: 0.20673
L1D PREFETCH  ACCESS:   24492646  HIT:   24486140  MISS:       6506  HIT %:    99.9734  MISS %:  0.0265631   MPKI: 0.03253
AGUS PREFETCH L1 MISS: 0
L1D PREFETCH  REQUESTED:   51803359  ISSUED:   51802937  USEFUL:       2162  USELESS:       4387
L1D USEFUL LOAD PREFETCHES:       2162 PREFETCH ISSUED TO LOWER LEVEL:       8422  ACCURACY: 25.6709
L1D TIMELY PREFETCHES:       2162 LATE PREFETCHES: 1913 DROPPED PREFETCHES: 121105
L1D PREFETCHES SAME FILL-ORIGIN LEVEL: 8422 DIFFERENT FILL-ORIGIN LEVEL: 0
L1D AVERAGE MISS LATENCY: 4.93316e+06 cycles
L1D RQ	ACCESS:   47363448	FORWARD:          0	MERGED:   16687331	TO_CACHE:   30327557
L1D WQ	ACCESS:   28475378	FORWARD:     473576	MERGED:     123325	TO_CACHE:   28352053
L1D PQ	ACCESS:   27178099	FORWARD:          0	MERGED:    2428245	TO_CACHE:   24624838

L1D UNIQUE REGIONS ACCESSED: 0
L1D REGIONS CONFLICTS: 0
L1D Cross Page Prefetch Requests: 18616079
L1D Same Page Prefetch Requests: 11989418
L1D ROI Sum of L1D PQ occupancy: 342440455
L1D PREFETCHES PUSHED FROM L2C: 0
L1I TOTAL     ACCESS:   36329777  HIT:   21994348  MISS:   14335429  HIT %:    60.5408  MISS %:    39.4592   MPKI: 71.6771
L1I LOAD      ACCESS:   36329777  HIT:   21994348  MISS:   14335429  HIT %:    60.5408  MISS %:    39.4592   MPKI: 71.6771
L1I PREFETCH  REQUESTED:          0  ISSUED:          0  USEFUL:          0  USELESS:          0
L1I USEFUL LOAD PREFETCHES:          0 PREFETCH ISSUED TO LOWER LEVEL:          0  ACCURACY: -nan
L1I TIMELY PREFETCHES:          0 LATE PREFETCHES: 0 DROPPED PREFETCHES: 0
L1I PREFETCHES SAME FILL-ORIGIN LEVEL: 0 DIFFERENT FILL-ORIGIN LEVEL: 0
L1I AVERAGE MISS LATENCY: 14.1324 cycles
L1I RQ	ACCESS:   60652059	FORWARD:          0	MERGED:   19956726	TO_CACHE:   40695333

BTB TOTAL     ACCESS:   25908286  HIT:   23514245  MISS:    2394041  HIT %:    90.7596  MISS %:    9.24045   MPKI: 11.9702
BTB BRANCH_DIRECT_JUMP	ACCESS:    1774351  HIT:    1739635  MISS:      34716
BTB BRANCH_INDIRECT	ACCESS:   11507662  HIT:   10680986  MISS:     826676
BTB BRANCH_CONDITIONAL	ACCESS:    4376080  HIT:    4361316  MISS:      14764
BTB BRANCH_DIRECT_CALL	ACCESS:    3347214  HIT:    3281604  MISS:      65610
BTB BRANCH_INDIRECT_CALL	ACCESS:     777882  HIT:     612337  MISS:     165545
BTB BRANCH_RETURN	ACCESS:    4125097  HIT:    2838367  MISS:    1286730
BTB BRANCH_OTHER ACCESS:          0  HIT:          0  MISS:          0

L2C TOTAL     ACCESS:   14586157  HIT:   14512332  MISS:      73825  HIT %:    99.4939  MISS %:   0.506131   MPKI: 0.369125
L2C LOAD      ACCESS:   14363351  HIT:   14329477  MISS:      33874  HIT %:    99.7642  MISS %:   0.235836   MPKI: 0.16937
L2C DATA LOAD MPKI: 0.105695
L2C INSTRUCTION LOAD MPKI: 0.063675
L2C RFO       ACCESS:      41343  HIT:       8324  MISS:      33019  HIT %:     20.134  MISS %:     79.866   MPKI: 0.165095
L2C PREFETCH  ACCESS:       8422  HIT:       4252  MISS:       4170  HIT %:    50.4868  MISS %:    49.5132   MPKI: 0.02085
AGUS PREFETCH L1 MISS: 0
L2C DATA PREFETCH MPKI: 0.02085
L2C INSTRUCTION PREFETCH MPKI: 0
L2C WRITEBACK ACCESS:      49291  HIT:      47666  MISS:       1625  HIT %:    96.7033  MISS %:    3.29675   MPKI: 0.008125
L2C LOAD TRANSLATION ACCESS:       1605  HIT:        853  MISS:        752  HIT %:    53.1464  MISS %:    46.8536   MPKI: 0.00376
L2C TRANSLATION FROM L1D PREFETCHER ACCESS:     122145  HIT:     121760  MISS:        385  HIT %:    99.6848  MISS %:   0.315199   MPKI: 0.001925
L2C PREFETCH  REQUESTED:          0  ISSUED:          0  USEFUL:        698  USELESS:       4257
L2C USEFUL LOAD PREFETCHES:        698 PREFETCH ISSUED TO LOWER LEVEL:       4170  ACCURACY: 16.7386
L2C TIMELY PREFETCHES:        698 LATE PREFETCHES: 0 DROPPED PREFETCHES: 0
L2C PREFETCHES SAME FILL-ORIGIN LEVEL: 0 DIFFERENT FILL-ORIGIN LEVEL: 0
L2C AVERAGE MISS LATENCY: 170.368 cycles
L2C RQ	ACCESS:   14528444	FORWARD:          0	MERGED:          0	TO_CACHE:   14528444
L2C WQ	ACCESS:      49291	FORWARD:          0	MERGED:          0	TO_CACHE:      49291
L2C PQ	ACCESS:       8422	FORWARD:          0	MERGED:          0	TO_CACHE:       8422

L2C Instructions Evicting Data 10467
L2C Translations Evicting Data 915
L2C Data Evicting Data 47524
L2C Instructions Evicting Instructions 2061
L2C Translations Evicting Instructions 189
L2C Data Evicting Instructions 9952
L2C Instructions Evicting Translations 207
L2C Translations Evicting Translations 33
L2C Data Evicting Translations 852
L2C Dense regions hint from L2: 0
PSCL5 TOTAL     ACCESS:     105164  HIT:     105164  MISS:          0  HIT %:        100  MISS %:          0   MPKI: 0
PSCL5 LOAD TRANSLATION ACCESS:       1412  HIT:       1412  MISS:          0  HIT %:        100  MISS %:          0   MPKI: 0
PSCL5 TRANSLATION FROM L1D PREFETCHER ACCESS:     103752  HIT:     103752  MISS:          0  HIT %:        100  MISS %:          0   MPKI: 0
PSCL5 PREFETCH  REQUESTED:          0  ISSUED:          0  USEFUL:          0  USELESS:          0
PSCL5 USEFUL LOAD PREFETCHES:          0 PREFETCH ISSUED TO LOWER LEVEL:          0  ACCURACY: -nan
PSCL5 TIMELY PREFETCHES:          0 LATE PREFETCHES: 0 DROPPED PREFETCHES: 0
PSCL5 PREFETCHES SAME FILL-ORIGIN LEVEL: 0 DIFFERENT FILL-ORIGIN LEVEL: 0

PSCL4 TOTAL     ACCESS:     102370  HIT:     102359  MISS:         11  HIT %:    99.9893  MISS %:  0.0107453   MPKI: 5.5e-05
PSCL4 LOAD TRANSLATION ACCESS:       1155  HIT:       1144  MISS:         11  HIT %:    99.0476  MISS %:   0.952381   MPKI: 5.5e-05
PSCL4 TRANSLATION FROM L1D PREFETCHER ACCESS:     101215  HIT:     101215  MISS:          0  HIT %:        100  MISS %:          0   MPKI: 0
PSCL4 PREFETCH  REQUESTED:          0  ISSUED:          0  USEFUL:          0  USELESS:          0
PSCL4 USEFUL LOAD PREFETCHES:          0 PREFETCH ISSUED TO LOWER LEVEL:          0  ACCURACY: -nan
PSCL4 TIMELY PREFETCHES:          0 LATE PREFETCHES: 0 DROPPED PREFETCHES: 0
PSCL4 PREFETCHES SAME FILL-ORIGIN LEVEL: 0 DIFFERENT FILL-ORIGIN LEVEL: 0

PSCL3 TOTAL     ACCESS:     102161  HIT:     102150  MISS:         11  HIT %:    99.9892  MISS %:  0.0107673   MPKI: 5.5e-05
PSCL3 LOAD TRANSLATION ACCESS:       1305  HIT:       1294  MISS:         11  HIT %:    99.1571  MISS %:   0.842912   MPKI: 5.5e-05
PSCL3 TRANSLATION FROM L1D PREFETCHER ACCESS:     100856  HIT:     100856  MISS:          0  HIT %:        100  MISS %:          0   MPKI: 0
PSCL3 PREFETCH  REQUESTED:          0  ISSUED:          0  USEFUL:          0  USELESS:          0
PSCL3 USEFUL LOAD PREFETCHES:          0 PREFETCH ISSUED TO LOWER LEVEL:          0  ACCURACY: -nan
PSCL3 TIMELY PREFETCHES:          0 LATE PREFETCHES: 0 DROPPED PREFETCHES: 0
PSCL3 PREFETCHES SAME FILL-ORIGIN LEVEL: 0 DIFFERENT FILL-ORIGIN LEVEL: 0

PSCL2 TOTAL     ACCESS:      73805  HIT:      73627  MISS:        178  HIT %:    99.7588  MISS %:   0.241176   MPKI: 0.00089
PSCL2 LOAD TRANSLATION ACCESS:       1419  HIT:       1241  MISS:        178  HIT %:     87.456  MISS %:     12.544   MPKI: 0.00089
PSCL2 TRANSLATION FROM L1D PREFETCHER ACCESS:      72386  HIT:      72386  MISS:          0  HIT %:        100  MISS %:          0   MPKI: 0
PSCL2 PREFETCH  REQUESTED:          0  ISSUED:          0  USEFUL:          0  USELESS:          0
PSCL2 USEFUL LOAD PREFETCHES:          0 PREFETCH ISSUED TO LOWER LEVEL:          0  ACCURACY: -nan
PSCL2 TIMELY PREFETCHES:          0 LATE PREFETCHES: 0 DROPPED PREFETCHES: 0
PSCL2 PREFETCHES SAME FILL-ORIGIN LEVEL: 0 DIFFERENT FILL-ORIGIN LEVEL: 0

LLC TOTAL     ACCESS:     110474  HIT:      64563  MISS:      45911  HIT %:    58.4418  MISS %:    41.5582   MPKI: 0.229555
LLC LOAD      ACCESS:      33874  HIT:      12512  MISS:      21362  HIT %:    36.9369  MISS %:    63.0631   MPKI: 0.10681
LLC RFO       ACCESS:      33019  HIT:      12468  MISS:      20551  HIT %:    37.7601  MISS %:    62.2399   MPKI: 0.102755
LLC PREFETCH  ACCESS:       4170  HIT:       1244  MISS:       2926  HIT %:    29.8321  MISS %:    70.1679   MPKI: 0.01463
AGUS PREFETCH L1 MISS: 0
LLC WRITEBACK ACCESS:      38274  HIT:      37918  MISS:        356  HIT %:    99.0699  MISS %:   0.930135   MPKI: 0.00178
LLC LOAD TRANSLATION ACCESS:        752  HIT:        257  MISS:        495  HIT %:    34.1755  MISS %:    65.8245   MPKI: 0.002475
LLC TRANSLATION FROM L1D PREFETCHER ACCESS:        385  HIT:        164  MISS:        221  HIT %:    42.5974  MISS %:    57.4026   MPKI: 0.001105
LLC PREFETCH  REQUESTED:          0  ISSUED:          0  USEFUL:        423  USELESS:       5102
LLC USEFUL LOAD PREFETCHES:        423 PREFETCH ISSUED TO LOWER LEVEL:       2926  ACCURACY: 14.4566
LLC TIMELY PREFETCHES:        423 LATE PREFETCHES: 0 DROPPED PREFETCHES: 0
LLC PREFETCHES SAME FILL-ORIGIN LEVEL: 0 DIFFERENT FILL-ORIGIN LEVEL: 0
LLC AVERAGE MISS LATENCY: 226.746 cycles
LLC RQ	ACCESS:      68030	FORWARD:          0	MERGED:          0	TO_CACHE:      68030
LLC WQ	ACCESS:      38274	FORWARD:          0	MERGED:          0	TO_CACHE:      38274
LLC PQ	ACCESS:       4170	FORWARD:          0	MERGED:          0	TO_CACHE:       4170

LLC Dense regions hint to LLC: 0

RAW hits: 2175775
Loads Generated: 49539224
Loads sent to L1D: 47363448
Stores Generated: 28475376
Stores sent to L1D: 28475378
Major fault: 0 Minor fault: 2050
Allocated PAGES: 2050
Completed 

DRAM Statistics
 CHANNEL 0
 RQ ROW_BUFFER_HIT:      17093  ROW_BUFFER_MISS:      28462
 DBUS_CONGESTED:          2
 WQ ROW_BUFFER_HIT:       6501  ROW_BUFFER_MISS:      18935  FULL:          0

 AVG_CONGESTED_CYCLE: 5
 All warmup complete: 2
Channel 0 Bank busy for read cycles: 0
Channel 0 Bank busy for write cycles: 0
Channel 0
Rank 0
0banks busy for read cycles: 348082972
0banks busy for write cycles: 6152
1banks busy for read cycles: 1879600
1banks busy for write cycles: 961964
2banks busy for read cycles: 387669
2banks busy for write cycles: 359176
3banks busy for read cycles: 99834
3banks busy for write cycles: 169998
4banks busy for read cycles: 34213
4banks busy for write cycles: 70280
5banks busy for read cycles: 36655
5banks busy for write cycles: 30994
6banks busy for read cycles: 48421
6banks busy for write cycles: 21546
7banks busy for read cycles: 66966
7banks busy for write cycles: 45349
8banks busy for read cycles: 147748
8banks busy for write cycles: 218607

CPU 0 Branch Prediction Accuracy: 99.9274% MPKI: 0.113335 Average ROB Occupancy at Mispredict: 10.5766
Branch types
NOT_BRANCH: 168787540 84.3938%
BRANCH_DIRECT_JUMP: 1774351 0.887176%
BRANCH_INDIRECT: 11507662 5.75383%
BRANCH_CONDITIONAL: 9680225 4.84011%
BRANCH_DIRECT_CALL: 3347214 1.67361%
BRANCH_INDIRECT_CALL: 777882 0.388941%
BRANCH_RETURN: 4125097 2.06255%
BRANCH_OTHER: 0 0%

DRAM PAGES: 1048576
Allocated PAGES: 2050
