
*** ChampSim Multicore Out-of-Order Simulator ***

Warmup Instructions: 50000000
Simulation Instructions: 200000000
Number of CPUs: 1
LLC sets: 2048
LLC ways: 16
Off-chip DRAM Size: 4096 MB Channels: 1 Width: 64-bit Data Rate: 6400 MT/s
CPU 0 runs traces/spec2k17/srv_11.champsimtrace.xz
.xz
BTB has LRU replacement policy
ITLB has LRU replacement policy
DTLB has LRU replacement policy
STLB has LRU replacement policy
L1I has LRU replacement policy
L1D has LRU replacement policy
Initialize SRRIP state for L2C
Initialize DRRIP state for LLC
Heartbeat CPU 0 instructions: 10000000 cycles: 3181387 heartbeat IPC: 3.14328 cumulative IPC: 3.14328 (Simulation time: 0 hr 0 min 42 sec) 
Heartbeat CPU 0 instructions: 20000002 cycles: 7210395 heartbeat IPC: 2.482 cumulative IPC: 2.77377 (Simulation time: 0 hr 1 min 39 sec) 
Heartbeat CPU 0 instructions: 30000001 cycles: 9985125 heartbeat IPC: 3.60395 cumulative IPC: 3.00447 (Simulation time: 0 hr 2 min 14 sec) 
*** Reached end of trace for Core: 0 Repeating trace: traces/spec2k17/srv_11.champsimtrace.xz
Heartbeat CPU 0 instructions: 40000001 cycles: 13028671 heartbeat IPC: 3.28564 cumulative IPC: 3.07015 (Simulation time: 0 hr 2 min 58 sec) 
Heartbeat CPU 0 instructions: 50000000 cycles: 17177519 heartbeat IPC: 2.41031 cumulative IPC: 2.91078 (Simulation time: 0 hr 3 min 55 sec) 

Warmup complete CPU 0 instructions: 50000004 cycles: 17177520 (Simulation time: 0 hr 3 min 55 sec) 

Heartbeat CPU 0 instructions: 60000003 cycles: 40820285 heartbeat IPC: 0.422962 cumulative IPC: 0.422962 (Simulation time: 0 hr 4 min 49 sec) 
*** Reached end of trace for Core: 0 Repeating trace: traces/spec2k17/srv_11.champsimtrace.xz
Heartbeat CPU 0 instructions: 70000000 cycles: 64711147 heartbeat IPC: 0.41857 cumulative IPC: 0.420755 (Simulation time: 0 hr 5 min 48 sec) 
Heartbeat CPU 0 instructions: 80000001 cycles: 100521764 heartbeat IPC: 0.279247 cumulative IPC: 0.359953 (Simulation time: 0 hr 7 min 15 sec) 
Heartbeat CPU 0 instructions: 90000003 cycles: 124923978 heartbeat IPC: 0.409799 cumulative IPC: 0.371242 (Simulation time: 0 hr 8 min 15 sec) 
*** Reached end of trace for Core: 0 Repeating trace: traces/spec2k17/srv_11.champsimtrace.xz
Heartbeat CPU 0 instructions: 100000003 cycles: 148410810 heartbeat IPC: 0.42577 cumulative IPC: 0.381001 (Simulation time: 0 hr 9 min 11 sec) 
Heartbeat CPU 0 instructions: 110000000 cycles: 183299184 heartbeat IPC: 0.286628 cumulative IPC: 0.361181 (Simulation time: 0 hr 10 min 30 sec) 
Heartbeat CPU 0 instructions: 120000000 cycles: 208519596 heartbeat IPC: 0.396504 cumulative IPC: 0.365837 (Simulation time: 0 hr 11 min 38 sec) 
*** Reached end of trace for Core: 0 Repeating trace: traces/spec2k17/srv_11.champsimtrace.xz
Heartbeat CPU 0 instructions: 130000002 cycles: 231963654 heartbeat IPC: 0.426547 cumulative IPC: 0.372464 (Simulation time: 0 hr 12 min 36 sec) 
Heartbeat CPU 0 instructions: 140000002 cycles: 265935806 heartbeat IPC: 0.294359 cumulative IPC: 0.361797 (Simulation time: 0 hr 14 min 3 sec) 
Heartbeat CPU 0 instructions: 150000002 cycles: 291802932 heartbeat IPC: 0.386591 cumulative IPC: 0.364132 (Simulation time: 0 hr 15 min 5 sec) 
*** Reached end of trace for Core: 0 Repeating trace: traces/spec2k17/srv_11.champsimtrace.xz
Heartbeat CPU 0 instructions: 160000003 cycles: 315402221 heartbeat IPC: 0.423742 cumulative IPC: 0.368849 (Simulation time: 0 hr 16 min 4 sec) 
Heartbeat CPU 0 instructions: 170000001 cycles: 348499900 heartbeat IPC: 0.302136 cumulative IPC: 0.362185 (Simulation time: 0 hr 17 min 22 sec) 
Heartbeat CPU 0 instructions: 180000001 cycles: 375176438 heartbeat IPC: 0.374861 cumulative IPC: 0.36313 (Simulation time: 0 hr 18 min 27 sec) 
*** Reached end of trace for Core: 0 Repeating trace: traces/spec2k17/srv_11.champsimtrace.xz
Heartbeat CPU 0 instructions: 190000003 cycles: 398583243 heartbeat IPC: 0.427226 cumulative IPC: 0.367063 (Simulation time: 0 hr 19 min 27 sec) 
Heartbeat CPU 0 instructions: 200000000 cycles: 430986567 heartbeat IPC: 0.30861 cumulative IPC: 0.362486 (Simulation time: 0 hr 20 min 39 sec) 
Heartbeat CPU 0 instructions: 210000001 cycles: 458446914 heartbeat IPC: 0.364161 cumulative IPC: 0.36259 (Simulation time: 0 hr 21 min 49 sec) 
*** Reached end of trace for Core: 0 Repeating trace: traces/spec2k17/srv_11.champsimtrace.xz
Heartbeat CPU 0 instructions: 220000000 cycles: 481912744 heartbeat IPC: 0.426152 cumulative IPC: 0.3658 (Simulation time: 0 hr 22 min 50 sec) 
Heartbeat CPU 0 instructions: 230000000 cycles: 513401283 heartbeat IPC: 0.317576 cumulative IPC: 0.36274 (Simulation time: 0 hr 24 min 5 sec) 
Heartbeat CPU 0 instructions: 240000002 cycles: 541691995 heartbeat IPC: 0.353473 cumulative IPC: 0.36224 (Simulation time: 0 hr 25 min 18 sec) 
*** Reached end of trace for Core: 0 Repeating trace: traces/spec2k17/srv_11.champsimtrace.xz
Heartbeat CPU 0 instructions: 250000002 cycles: 565117114 heartbeat IPC: 0.426892 cumulative IPC: 0.365004 (Simulation time: 0 hr 26 min 15 sec) 
Finished CPU 0 instructions: 200000002 cycles: 547939595 cumulative IPC: 0.365004 (Simulation time: 0 hr 26 min 15 sec) 

ChampSim completed all CPUs

Region of Interest Statistics

CPU 0 cumulative IPC: 0.365004 instructions: 200000002 cycles: 547939595
ITLB TOTAL     ACCESS:   37990693  HIT:   37451216  MISS:     539477  HIT %:      98.58  MISS %:    1.42002   MPKI: 2.69738
ITLB LOAD TRANSLATION ACCESS:   37990693  HIT:   37451216  MISS:     539477  HIT %:      98.58  MISS %:    1.42002   MPKI: 2.69738
ITLB PREFETCH  REQUESTED:          0  ISSUED:          0  USEFUL:          0  USELESS:          0
ITLB USEFUL LOAD PREFETCHES:          0 PREFETCH ISSUED TO LOWER LEVEL:          0  ACCURACY: -nan
ITLB TIMELY PREFETCHES:          0 LATE PREFETCHES: 0 DROPPED PREFETCHES: 0
ITLB PREFETCHES SAME FILL-ORIGIN LEVEL: 0 DIFFERENT FILL-ORIGIN LEVEL: 0
ITLB AVERAGE MISS LATENCY: 15.9385 cycles
ITLB RQ	ACCESS:   43893056	FORWARD:          0	MERGED:    5773672	TO_CACHE:   38119384

DTLB TOTAL     ACCESS:   43883686  HIT:   34897015  MISS:    8986671  HIT %:    79.5216  MISS %:    20.4784   MPKI: 44.9334
DTLB LOAD TRANSLATION ACCESS:   43883686  HIT:   34897015  MISS:    8986671  HIT %:    79.5216  MISS %:    20.4784   MPKI: 44.9334
DTLB PREFETCH  REQUESTED:          0  ISSUED:          0  USEFUL:          0  USELESS:          0
DTLB USEFUL LOAD PREFETCHES:          0 PREFETCH ISSUED TO LOWER LEVEL:          0  ACCURACY: -nan
DTLB TIMELY PREFETCHES:          0 LATE PREFETCHES: 0 DROPPED PREFETCHES: 0
DTLB PREFETCHES SAME FILL-ORIGIN LEVEL: 0 DIFFERENT FILL-ORIGIN LEVEL: 0
DTLB AVERAGE MISS LATENCY: 8.4504 cycles
DTLB RQ	ACCESS:   58935154	FORWARD:          0	MERGED:   14870607	TO_CACHE:   44064547

STLB TOTAL     ACCESS:   26663400  HIT:   26347890  MISS:     315510  HIT %:    98.8167  MISS %:    1.18331   MPKI: 1.57755
STLB LOAD TRANSLATION ACCESS:    9526148  HIT:    9212568  MISS:     313580  HIT %:    96.7082  MISS %:    3.29178   MPKI: 1.5679
STLB TRANSLATION FROM L1D PREFETCHER ACCESS:   17137252  HIT:   17135322  MISS:       1930  HIT %:    99.9887  MISS %:   0.011262   MPKI: 0.00965
STLB PREFETCH  REQUESTED:          0  ISSUED:          0  USEFUL:       1642  USELESS:        285
STLB USEFUL LOAD PREFETCHES:       1642 PREFETCH ISSUED TO LOWER LEVEL:          0  ACCURACY: inf
STLB TIMELY PREFETCHES:       1642 LATE PREFETCHES: 468 DROPPED PREFETCHES: 187093
STLB PREFETCHES SAME FILL-ORIGIN LEVEL: 0 DIFFERENT FILL-ORIGIN LEVEL: 0
STLB AVERAGE MISS LATENCY: 40.2664 cycles
STLB RQ	ACCESS:   34968635	FORWARD:          0	MERGED:    8117058	TO_CACHE:   26851577

STLB Hit, L1D data hit: 0
STLB Hit, L2C data hit: 0
STLB Hit, LLC data hit: 0
STLB Hit, LLC data miss: 0
STLB STLB hints to L2: 0
L1D TOTAL     ACCESS:   76719077  HIT:   64313224  MISS:   12405853  HIT %:    83.8295  MISS %:    16.1705   MPKI: 62.0293
L1D LOAD      ACCESS:   41004718  HIT:   31961447  MISS:    9043271  HIT %:    77.9458  MISS %:    22.0542   MPKI: 45.2164
L1D RFO       ACCESS:   17520941  HIT:   17151373  MISS:     369568  HIT %:    97.8907  MISS %:    2.10929   MPKI: 1.84784
L1D PREFETCH  ACCESS:   18193418  HIT:   15200404  MISS:    2993014  HIT %:    83.5489  MISS %:    16.4511   MPKI: 14.9651
AGUS PREFETCH L1 MISS: 0
L1D PREFETCH  REQUESTED:   51842496  ISSUED:   51841987  USEFUL:    2952162  USELESS:      40837
L1D USEFUL LOAD PREFETCHES:    2952162 PREFETCH ISSUED TO LOWER LEVEL:    6093040  ACCURACY: 48.4514
L1D TIMELY PREFETCHES:    2952162 LATE PREFETCHES: 3099848 DROPPED PREFETCHES: 206086
L1D PREFETCHES SAME FILL-ORIGIN LEVEL: 6093040 DIFFERENT FILL-ORIGIN LEVEL: 0
L1D AVERAGE MISS LATENCY: 7.53526e+07 cycles
L1D RQ	ACCESS:   54028608	FORWARD:          0	MERGED:   12764495	TO_CACHE:   41105163
L1D WQ	ACCESS:   18064452	FORWARD:     240300	MERGED:     234461	TO_CACHE:   17829991
L1D PQ	ACCESS:   26399500	FORWARD:          0	MERGED:     875663	TO_CACHE:   25442487

L1D UNIQUE REGIONS ACCESSED: 0
L1D REGIONS CONFLICTS: 0
L1D Cross Page Prefetch Requests: 24821995
L1D Same Page Prefetch Requests: 7790202
L1D ROI Sum of L1D PQ occupancy: 360947442
L1D PREFETCHES PUSHED FROM L2C: 0
L1I TOTAL     ACCESS:   42777541  HIT:   39355399  MISS:    3422142  HIT %:    92.0001  MISS %:    7.99986   MPKI: 17.1107
L1I LOAD      ACCESS:   42777541  HIT:   39355399  MISS:    3422142  HIT %:    92.0001  MISS %:    7.99986   MPKI: 17.1107
L1I PREFETCH  REQUESTED:          0  ISSUED:          0  USEFUL:          0  USELESS:          0
L1I USEFUL LOAD PREFETCHES:          0 PREFETCH ISSUED TO LOWER LEVEL:          0  ACCURACY: -nan
L1I TIMELY PREFETCHES:          0 LATE PREFETCHES: 0 DROPPED PREFETCHES: 0
L1I PREFETCHES SAME FILL-ORIGIN LEVEL: 0 DIFFERENT FILL-ORIGIN LEVEL: 0
L1I AVERAGE MISS LATENCY: 28.2076 cycles
L1I RQ	ACCESS:   65989894	FORWARD:          0	MERGED:   22096838	TO_CACHE:   43893056

BTB TOTAL     ACCESS:   33562539  HIT:   29061289  MISS:    4501250  HIT %:    86.5885  MISS %:    13.4115   MPKI: 22.5062
BTB BRANCH_DIRECT_JUMP	ACCESS:    1685269  HIT:    1483558  MISS:     201711
BTB BRANCH_INDIRECT	ACCESS:   19828015  HIT:   17476346  MISS:    2351669
BTB BRANCH_CONDITIONAL	ACCESS:    4608066  HIT:    4287796  MISS:     320270
BTB BRANCH_DIRECT_CALL	ACCESS:    2993939  HIT:    2599188  MISS:     394751
BTB BRANCH_INDIRECT_CALL	ACCESS:     724221  HIT:     681906  MISS:      42315
BTB BRANCH_RETURN	ACCESS:    3723029  HIT:    2532495  MISS:    1190534
BTB BRANCH_OTHER ACCESS:          0  HIT:          0  MISS:          0

L2C TOTAL     ACCESS:   17249382  HIT:   14582340  MISS:    2667042  HIT %:    84.5383  MISS %:    15.4617   MPKI: 13.3352
L2C LOAD      ACCESS:    9365542  HIT:    7039952  MISS:    2325590  HIT %:    75.1687  MISS %:    24.8313   MPKI: 11.6279
L2C DATA LOAD MPKI: 3.91558
L2C INSTRUCTION LOAD MPKI: 7.71237
L2C RFO       ACCESS:     369390  HIT:     244941  MISS:     124449  HIT %:    66.3096  MISS %:    33.6904   MPKI: 0.622245
L2C PREFETCH  ACCESS:    6093036  HIT:    6076554  MISS:      16482  HIT %:    99.7295  MISS %:   0.270506   MPKI: 0.08241
AGUS PREFETCH L1 MISS: 0
L2C DATA PREFETCH MPKI: 0.08241
L2C INSTRUCTION PREFETCH MPKI: 0
L2C WRITEBACK ACCESS:     808629  HIT:     768457  MISS:      40172  HIT %:    95.0321  MISS %:    4.96791   MPKI: 0.20086
L2C LOAD TRANSLATION ACCESS:     396889  HIT:     248928  MISS:     147961  HIT %:    62.7198  MISS %:    37.2802   MPKI: 0.739805
L2C TRANSLATION FROM L1D PREFETCHER ACCESS:     215896  HIT:     203508  MISS:      12388  HIT %:    94.2621  MISS %:    5.73795   MPKI: 0.06194
L2C PREFETCH  REQUESTED:          0  ISSUED:          0  USEFUL:       9411  USELESS:      19439
L2C USEFUL LOAD PREFETCHES:       9411 PREFETCH ISSUED TO LOWER LEVEL:      16482  ACCURACY: 57.0987
L2C TIMELY PREFETCHES:       9411 LATE PREFETCHES: 0 DROPPED PREFETCHES: 0
L2C PREFETCHES SAME FILL-ORIGIN LEVEL: 0 DIFFERENT FILL-ORIGIN LEVEL: 0
L2C AVERAGE MISS LATENCY: 41.691 cycles
L2C RQ	ACCESS:   10347740	FORWARD:          0	MERGED:          0	TO_CACHE:   10347717
L2C WQ	ACCESS:     808629	FORWARD:         27	MERGED:          0	TO_CACHE:     808629
L2C PQ	ACCESS:    6093040	FORWARD:          0	MERGED:          0	TO_CACHE:    6093036

L2C Instructions Evicting Data 555377
L2C Translations Evicting Data 57838
L2C Data Evicting Data 338388
L2C Instructions Evicting Instructions 892955
L2C Translations Evicting Instructions 94116
L2C Data Evicting Instructions 530426
L2C Instructions Evicting Translations 94142
L2C Translations Evicting Translations 8395
L2C Data Evicting Translations 55233
L2C Dense regions hint from L2: 0
PSCL5 TOTAL     ACCESS:     486913  HIT:     486913  MISS:          0  HIT %:        100  MISS %:          0   MPKI: 0
PSCL5 LOAD TRANSLATION ACCESS:     313112  HIT:     313112  MISS:          0  HIT %:        100  MISS %:          0   MPKI: 0
PSCL5 TRANSLATION FROM L1D PREFETCHER ACCESS:     173801  HIT:     173801  MISS:          0  HIT %:        100  MISS %:          0   MPKI: 0
PSCL5 PREFETCH  REQUESTED:          0  ISSUED:          0  USEFUL:          0  USELESS:          0
PSCL5 USEFUL LOAD PREFETCHES:          0 PREFETCH ISSUED TO LOWER LEVEL:          0  ACCURACY: -nan
PSCL5 TIMELY PREFETCHES:          0 LATE PREFETCHES: 0 DROPPED PREFETCHES: 0
PSCL5 PREFETCHES SAME FILL-ORIGIN LEVEL: 0 DIFFERENT FILL-ORIGIN LEVEL: 0

PSCL4 TOTAL     ACCESS:     454020  HIT:     453250  MISS:        770  HIT %:    99.8304  MISS %:   0.169596   MPKI: 0.00385
PSCL4 LOAD TRANSLATION ACCESS:     291375  HIT:     290605  MISS:        770  HIT %:    99.7357  MISS %:   0.264264   MPKI: 0.00385
PSCL4 TRANSLATION FROM L1D PREFETCHER ACCESS:     162645  HIT:     162645  MISS:          0  HIT %:        100  MISS %:          0   MPKI: 0
PSCL4 PREFETCH  REQUESTED:          0  ISSUED:          0  USEFUL:          0  USELESS:          0
PSCL4 USEFUL LOAD PREFETCHES:          0 PREFETCH ISSUED TO LOWER LEVEL:          0  ACCURACY: -nan
PSCL4 TIMELY PREFETCHES:          0 LATE PREFETCHES: 0 DROPPED PREFETCHES: 0
PSCL4 PREFETCHES SAME FILL-ORIGIN LEVEL: 0 DIFFERENT FILL-ORIGIN LEVEL: 0

PSCL3 TOTAL     ACCESS:     468645  HIT:     466158  MISS:       2487  HIT %:    99.4693  MISS %:   0.530679   MPKI: 0.012435
PSCL3 LOAD TRANSLATION ACCESS:     310576  HIT:     308089  MISS:       2487  HIT %:    99.1992  MISS %:    0.80077   MPKI: 0.012435
PSCL3 TRANSLATION FROM L1D PREFETCHER ACCESS:     158069  HIT:     158069  MISS:          0  HIT %:        100  MISS %:          0   MPKI: 0
PSCL3 PREFETCH  REQUESTED:          0  ISSUED:          0  USEFUL:          0  USELESS:          0
PSCL3 USEFUL LOAD PREFETCHES:          0 PREFETCH ISSUED TO LOWER LEVEL:          0  ACCURACY: -nan
PSCL3 TIMELY PREFETCHES:          0 LATE PREFETCHES: 0 DROPPED PREFETCHES: 0
PSCL3 PREFETCHES SAME FILL-ORIGIN LEVEL: 0 DIFFERENT FILL-ORIGIN LEVEL: 0

PSCL2 TOTAL     ACCESS:     346048  HIT:     264188  MISS:      81860  HIT %:    76.3443  MISS %:    23.6557   MPKI: 0.4093
PSCL2 LOAD TRANSLATION ACCESS:     314441  HIT:     232581  MISS:      81860  HIT %:    73.9665  MISS %:    26.0335   MPKI: 0.4093
PSCL2 TRANSLATION FROM L1D PREFETCHER ACCESS:      31607  HIT:      31607  MISS:          0  HIT %:        100  MISS %:          0   MPKI: 0
PSCL2 PREFETCH  REQUESTED:          0  ISSUED:          0  USEFUL:          0  USELESS:          0
PSCL2 USEFUL LOAD PREFETCHES:          0 PREFETCH ISSUED TO LOWER LEVEL:          0  ACCURACY: -nan
PSCL2 TIMELY PREFETCHES:          0 LATE PREFETCHES: 0 DROPPED PREFETCHES: 0
PSCL2 PREFETCHES SAME FILL-ORIGIN LEVEL: 0 DIFFERENT FILL-ORIGIN LEVEL: 0

LLC TOTAL     ACCESS:    2962125  HIT:    2765167  MISS:     196958  HIT %:    93.3508  MISS %:    6.64921   MPKI: 0.98479
LLC LOAD      ACCESS:    2325589  HIT:    2169012  MISS:     156577  HIT %:    93.2672  MISS %:    6.73279   MPKI: 0.782885
LLC RFO       ACCESS:     124449  HIT:      92940  MISS:      31509  HIT %:    74.6812  MISS %:    25.3188   MPKI: 0.157545
LLC PREFETCH  ACCESS:      16482  HIT:      13765  MISS:       2717  HIT %:    83.5154  MISS %:    16.4846   MPKI: 0.013585
AGUS PREFETCH L1 MISS: 0
LLC WRITEBACK ACCESS:     335256  HIT:     333332  MISS:       1924  HIT %:    99.4261  MISS %:    0.57389   MPKI: 0.00962
LLC LOAD TRANSLATION ACCESS:     147961  HIT:     144626  MISS:       3335  HIT %:     97.746  MISS %:    2.25397   MPKI: 0.016675
LLC TRANSLATION FROM L1D PREFETCHER ACCESS:      12388  HIT:      11492  MISS:        896  HIT %:    92.7672  MISS %:    7.23281   MPKI: 0.00448
LLC PREFETCH  REQUESTED:          0  ISSUED:          0  USEFUL:        530  USELESS:       3030
LLC USEFUL LOAD PREFETCHES:        530 PREFETCH ISSUED TO LOWER LEVEL:       2717  ACCURACY: 19.5068
LLC TIMELY PREFETCHES:        530 LATE PREFETCHES: 0 DROPPED PREFETCHES: 0
LLC PREFETCHES SAME FILL-ORIGIN LEVEL: 0 DIFFERENT FILL-ORIGIN LEVEL: 0
LLC AVERAGE MISS LATENCY: 164.421 cycles
LLC RQ	ACCESS:    2610388	FORWARD:          0	MERGED:          0	TO_CACHE:    2610387
LLC WQ	ACCESS:     335256	FORWARD:          1	MERGED:          0	TO_CACHE:     335256
LLC PQ	ACCESS:      16482	FORWARD:          0	MERGED:          0	TO_CACHE:      16482

LLC Dense regions hint to LLC: 0

RAW hits: 2264199
Loads Generated: 56292807
Loads sent to L1D: 54028608
Stores Generated: 18064421
Stores sent to L1D: 18064452
Major fault: 0 Minor fault: 4241
Allocated PAGES: 4241
Completed 

DRAM Statistics
 CHANNEL 0
 RQ ROW_BUFFER_HIT:      43144  ROW_BUFFER_MISS:     151890
 DBUS_CONGESTED:        101
 WQ ROW_BUFFER_HIT:      17738  ROW_BUFFER_MISS:     116770  FULL:          0

 AVG_CONGESTED_CYCLE: 4
 All warmup complete: 2
Channel 0 Bank busy for read cycles: 0
Channel 0 Bank busy for write cycles: 0
Channel 0
Rank 0
0banks busy for read cycles: 513134887
0banks busy for write cycles: 76777
1banks busy for read cycles: 17153486
1banks busy for write cycles: 10891561
2banks busy for read cycles: 2028248
2banks busy for write cycles: 2118987
3banks busy for read cycles: 310702
3banks busy for write cycles: 620763
4banks busy for read cycles: 160441
4banks busy for write cycles: 310942
5banks busy for read cycles: 68757
5banks busy for write cycles: 190497
6banks busy for read cycles: 49991
6banks busy for write cycles: 139250
7banks busy for read cycles: 57114
7banks busy for write cycles: 129944
8banks busy for read cycles: 146974
8banks busy for write cycles: 350275

CPU 0 Branch Prediction Accuracy: 99.8224% MPKI: 0.38789 Average ROB Occupancy at Mispredict: 29.3767
Branch types
NOT_BRANCH: 156307724 78.1539%
BRANCH_DIRECT_JUMP: 1685269 0.842634%
BRANCH_INDIRECT: 19828015 9.91401%
BRANCH_CONDITIONAL: 14737476 7.36874%
BRANCH_DIRECT_CALL: 2993939 1.49697%
BRANCH_INDIRECT_CALL: 724221 0.36211%
BRANCH_RETURN: 3723029 1.86151%
BRANCH_OTHER: 0 0%

DRAM PAGES: 1048576
Allocated PAGES: 4241
