
*** ChampSim Multicore Out-of-Order Simulator ***

Warmup Instructions: 50000000
Simulation Instructions: 200000000
Number of CPUs: 1
LLC sets: 2048
LLC ways: 16
Off-chip DRAM Size: 4096 MB Channels: 1 Width: 64-bit Data Rate: 6400 MT/s
CPU 0 runs traces/spec2k17/srv_51.champsimtrace.xz
.xz
BTB has LRU replacement policy
ITLB has LRU replacement policy
DTLB has LRU replacement policy
STLB has LRU replacement policy
L1I has LRU replacement policy
L1D has LRU replacement policy
Initialize SRRIP state for L2C
Initialize DRRIP state for LLC
Heartbeat CPU 0 instructions: 10000001 cycles: 2876454 heartbeat IPC: 3.4765 cumulative IPC: 3.4765 (Simulation time: 0 hr 0 min 37 sec) 
Heartbeat CPU 0 instructions: 20000003 cycles: 5680299 heartbeat IPC: 3.56653 cumulative IPC: 3.52094 (Simulation time: 0 hr 1 min 15 sec) 
Heartbeat CPU 0 instructions: 30000003 cycles: 8553102 heartbeat IPC: 3.48092 cumulative IPC: 3.5075 (Simulation time: 0 hr 1 min 54 sec) 
*** Reached end of trace for Core: 0 Repeating trace: traces/spec2k17/srv_51.champsimtrace.xz
Heartbeat CPU 0 instructions: 40000002 cycles: 11419221 heartbeat IPC: 3.48904 cumulative IPC: 3.50287 (Simulation time: 0 hr 2 min 36 sec) 
Heartbeat CPU 0 instructions: 50000001 cycles: 14222702 heartbeat IPC: 3.56699 cumulative IPC: 3.51551 (Simulation time: 0 hr 3 min 12 sec) 

Warmup complete CPU 0 instructions: 50000001 cycles: 14222702 (Simulation time: 0 hr 3 min 12 sec) 

Heartbeat CPU 0 instructions: 60000000 cycles: 40241147 heartbeat IPC: 0.384343 cumulative IPC: 0.384343 (Simulation time: 0 hr 3 min 57 sec) 
*** Reached end of trace for Core: 0 Repeating trace: traces/spec2k17/srv_51.champsimtrace.xz
Heartbeat CPU 0 instructions: 70000002 cycles: 67738239 heartbeat IPC: 0.363675 cumulative IPC: 0.373723 (Simulation time: 0 hr 4 min 53 sec) 
Heartbeat CPU 0 instructions: 80000001 cycles: 84628484 heartbeat IPC: 0.592058 cumulative IPC: 0.426101 (Simulation time: 0 hr 5 min 29 sec) 
Heartbeat CPU 0 instructions: 90000001 cycles: 112141968 heartbeat IPC: 0.363458 cumulative IPC: 0.4085 (Simulation time: 0 hr 6 min 9 sec) 
*** Reached end of trace for Core: 0 Repeating trace: traces/spec2k17/srv_51.champsimtrace.xz
Heartbeat CPU 0 instructions: 100000001 cycles: 138648926 heartbeat IPC: 0.377259 cumulative IPC: 0.401845 (Simulation time: 0 hr 6 min 46 sec) 
Heartbeat CPU 0 instructions: 110000000 cycles: 156181707 heartbeat IPC: 0.57036 cumulative IPC: 0.422657 (Simulation time: 0 hr 7 min 19 sec) 
Heartbeat CPU 0 instructions: 120000000 cycles: 182769661 heartbeat IPC: 0.37611 cumulative IPC: 0.415315 (Simulation time: 0 hr 7 min 57 sec) 
*** Reached end of trace for Core: 0 Repeating trace: traces/spec2k17/srv_51.champsimtrace.xz
Heartbeat CPU 0 instructions: 130000000 cycles: 209543152 heartbeat IPC: 0.373504 cumulative IPC: 0.409583 (Simulation time: 0 hr 8 min 34 sec) 
Heartbeat CPU 0 instructions: 140000000 cycles: 228793952 heartbeat IPC: 0.519459 cumulative IPC: 0.419441 (Simulation time: 0 hr 9 min 9 sec) 
Heartbeat CPU 0 instructions: 150000000 cycles: 252918553 heartbeat IPC: 0.414515 cumulative IPC: 0.418943 (Simulation time: 0 hr 9 min 46 sec) 
*** Reached end of trace for Core: 0 Repeating trace: traces/spec2k17/srv_51.champsimtrace.xz
Heartbeat CPU 0 instructions: 160000003 cycles: 280892589 heartbeat IPC: 0.357474 cumulative IPC: 0.412495 (Simulation time: 0 hr 10 min 23 sec) 
Heartbeat CPU 0 instructions: 170000001 cycles: 300923897 heartbeat IPC: 0.499218 cumulative IPC: 0.418554 (Simulation time: 0 hr 10 min 58 sec) 
Heartbeat CPU 0 instructions: 180000002 cycles: 325134394 heartbeat IPC: 0.413044 cumulative IPC: 0.418125 (Simulation time: 0 hr 11 min 35 sec) 
*** Reached end of trace for Core: 0 Repeating trace: traces/spec2k17/srv_51.champsimtrace.xz
Heartbeat CPU 0 instructions: 190000001 cycles: 351275025 heartbeat IPC: 0.382546 cumulative IPC: 0.415366 (Simulation time: 0 hr 12 min 12 sec) 
Heartbeat CPU 0 instructions: 200000001 cycles: 373389267 heartbeat IPC: 0.452197 cumulative IPC: 0.417634 (Simulation time: 0 hr 12 min 47 sec) 
Heartbeat CPU 0 instructions: 210000002 cycles: 397165499 heartbeat IPC: 0.420588 cumulative IPC: 0.417817 (Simulation time: 0 hr 13 min 24 sec) 
*** Reached end of trace for Core: 0 Repeating trace: traces/spec2k17/srv_51.champsimtrace.xz
Heartbeat CPU 0 instructions: 220000000 cycles: 421361395 heartbeat IPC: 0.413293 cumulative IPC: 0.417548 (Simulation time: 0 hr 14 min 1 sec) 
Heartbeat CPU 0 instructions: 230000002 cycles: 445728761 heartbeat IPC: 0.410385 cumulative IPC: 0.417144 (Simulation time: 0 hr 14 min 36 sec) 
Heartbeat CPU 0 instructions: 240000001 cycles: 469154834 heartbeat IPC: 0.426875 cumulative IPC: 0.417645 (Simulation time: 0 hr 15 min 11 sec) 
*** Reached end of trace for Core: 0 Repeating trace: traces/spec2k17/srv_51.champsimtrace.xz
Heartbeat CPU 0 instructions: 250000003 cycles: 492816508 heartbeat IPC: 0.422624 cumulative IPC: 0.417891 (Simulation time: 0 hr 15 min 46 sec) 
Finished CPU 0 instructions: 200000002 cycles: 478593806 cumulative IPC: 0.417891 (Simulation time: 0 hr 15 min 46 sec) 

ChampSim completed all CPUs

Region of Interest Statistics

CPU 0 cumulative IPC: 0.417891 instructions: 200000002 cycles: 478593806
ITLB TOTAL     ACCESS:   34149163  HIT:   33258176  MISS:     890987  HIT %:    97.3909  MISS %:     2.6091   MPKI: 4.45493
ITLB LOAD TRANSLATION ACCESS:   34149163  HIT:   33258176  MISS:     890987  HIT %:    97.3909  MISS %:     2.6091   MPKI: 4.45493
ITLB PREFETCH  REQUESTED:          0  ISSUED:          0  USEFUL:          0  USELESS:          0
ITLB USEFUL LOAD PREFETCHES:          0 PREFETCH ISSUED TO LOWER LEVEL:          0  ACCURACY: -nan
ITLB TIMELY PREFETCHES:          0 LATE PREFETCHES: 0 DROPPED PREFETCHES: 0
ITLB PREFETCHES SAME FILL-ORIGIN LEVEL: 0 DIFFERENT FILL-ORIGIN LEVEL: 0
ITLB AVERAGE MISS LATENCY: 10.036 cycles
ITLB RQ	ACCESS:   39347977	FORWARD:          0	MERGED:    4957294	TO_CACHE:   34390683

DTLB TOTAL     ACCESS:   42023685  HIT:   40975842  MISS:    1047843  HIT %:    97.5065  MISS %:    2.49346   MPKI: 5.23921
DTLB LOAD TRANSLATION ACCESS:   42023685  HIT:   40975842  MISS:    1047843  HIT %:    97.5065  MISS %:    2.49346   MPKI: 5.23921
DTLB PREFETCH  REQUESTED:          0  ISSUED:          0  USEFUL:          0  USELESS:          0
DTLB USEFUL LOAD PREFETCHES:          0 PREFETCH ISSUED TO LOWER LEVEL:          0  ACCURACY: -nan
DTLB TIMELY PREFETCHES:          0 LATE PREFETCHES: 0 DROPPED PREFETCHES: 0
DTLB PREFETCHES SAME FILL-ORIGIN LEVEL: 0 DIFFERENT FILL-ORIGIN LEVEL: 0
DTLB AVERAGE MISS LATENCY: 14.6318 cycles
DTLB RQ	ACCESS:   55069626	FORWARD:          0	MERGED:   12980421	TO_CACHE:   42089205

STLB TOTAL     ACCESS:    5389650  HIT:    5303377  MISS:      86273  HIT %:    98.3993  MISS %:    1.60072   MPKI: 0.431365
STLB LOAD TRANSLATION ACCESS:    1938830  HIT:    1853816  MISS:      85014  HIT %:    95.6152  MISS %:    4.38481   MPKI: 0.42507
STLB TRANSLATION FROM L1D PREFETCHER ACCESS:    3450820  HIT:    3449561  MISS:       1259  HIT %:    99.9635  MISS %:  0.0364841   MPKI: 0.006295
STLB PREFETCH  REQUESTED:          0  ISSUED:          0  USEFUL:       1012  USELESS:        240
STLB USEFUL LOAD PREFETCHES:       1012 PREFETCH ISSUED TO LOWER LEVEL:          0  ACCURACY: inf
STLB TIMELY PREFETCHES:       1012 LATE PREFETCHES: 72 DROPPED PREFETCHES: 38699
STLB PREFETCHES SAME FILL-ORIGIN LEVEL: 0 DIFFERENT FILL-ORIGIN LEVEL: 0
STLB AVERAGE MISS LATENCY: 81.4219 cycles
STLB RQ	ACCESS:    6375530	FORWARD:          0	MERGED:     946990	TO_CACHE:    5428540

STLB Hit, L1D data hit: 0
STLB Hit, L2C data hit: 0
STLB Hit, LLC data hit: 0
STLB Hit, LLC data miss: 0
STLB STLB hints to L2: 0
L1D TOTAL     ACCESS:   58346350  HIT:   55874930  MISS:    2471420  HIT %:    95.7642  MISS %:    4.23577   MPKI: 12.3571
L1D LOAD      ACCESS:   34030841  HIT:   32370870  MISS:    1659971  HIT %:    95.1222  MISS %:    4.87784   MPKI: 8.29985
L1D RFO       ACCESS:   19980323  HIT:   19241601  MISS:     738722  HIT %:    96.3028  MISS %:    3.69725   MPKI: 3.69361
L1D PREFETCH  ACCESS:    4335186  HIT:    4262459  MISS:      72727  HIT %:    98.3224  MISS %:     1.6776   MPKI: 0.363635
AGUS PREFETCH L1 MISS: 0
L1D PREFETCH  REQUESTED:    9499884  ISSUED:    9499834  USEFUL:      35141  USELESS:      37589
L1D USEFUL LOAD PREFETCHES:      35141 PREFETCH ISSUED TO LOWER LEVEL:      94156  ACCURACY: 37.3221
L1D TIMELY PREFETCHES:      35141 LATE PREFETCHES: 21410 DROPPED PREFETCHES: 50223
L1D PREFETCHES SAME FILL-ORIGIN LEVEL: 94156 DIFFERENT FILL-ORIGIN LEVEL: 0
L1D AVERAGE MISS LATENCY: 2.63713e+06 cycles
L1D RQ	ACCESS:   46037577	FORWARD:          0	MERGED:   11596745	TO_CACHE:   34147730
L1D WQ	ACCESS:   21239484	FORWARD:     295627	MERGED:     317588	TO_CACHE:   20921896
L1D PQ	ACCESS:    5063134	FORWARD:          0	MERGED:     623909	TO_CACHE:    4436700

L1D UNIQUE REGIONS ACCESSED: 0
L1D REGIONS CONFLICTS: 0
L1D Cross Page Prefetch Requests: 3607694
L1D Same Page Prefetch Requests: 1935188
L1D ROI Sum of L1D PQ occupancy: 64590581
L1D PREFETCHES PUSHED FROM L2C: 0
L1I TOTAL     ACCESS:   38622111  HIT:   33878006  MISS:    4744105  HIT %:    87.7166  MISS %:    12.2834   MPKI: 23.7205
L1I LOAD      ACCESS:   38622111  HIT:   33878006  MISS:    4744105  HIT %:    87.7166  MISS %:    12.2834   MPKI: 23.7205
L1I PREFETCH  REQUESTED:          0  ISSUED:          0  USEFUL:          0  USELESS:          0
L1I USEFUL LOAD PREFETCHES:          0 PREFETCH ISSUED TO LOWER LEVEL:          0  ACCURACY: -nan
L1I TIMELY PREFETCHES:          0 LATE PREFETCHES: 0 DROPPED PREFETCHES: 0
L1I PREFETCHES SAME FILL-ORIGIN LEVEL: 0 DIFFERENT FILL-ORIGIN LEVEL: 0
L1I AVERAGE MISS LATENCY: 23.4209 cycles
L1I RQ	ACCESS:   59223968	FORWARD:          0	MERGED:   19875991	TO_CACHE:   39347977

BTB TOTAL     ACCESS:   30738842  HIT:   24217545  MISS:    6521297  HIT %:    78.7848  MISS %:    21.2152   MPKI: 32.6065
BTB BRANCH_DIRECT_JUMP	ACCESS:    3651900  HIT:    3183732  MISS:     468168
BTB BRANCH_INDIRECT	ACCESS:   11989101  HIT:    9519360  MISS:    2469741
BTB BRANCH_CONDITIONAL	ACCESS:    8587084  HIT:    8036020  MISS:     551064
BTB BRANCH_DIRECT_CALL	ACCESS:    2662247  HIT:    1824351  MISS:     837896
BTB BRANCH_INDIRECT_CALL	ACCESS:     593188  HIT:     320085  MISS:     273103
BTB BRANCH_RETURN	ACCESS:    3255322  HIT:    1333997  MISS:    1921325
BTB BRANCH_OTHER ACCESS:          0  HIT:          0  MISS:          0

L2C TOTAL     ACCESS:    8639998  HIT:    5940587  MISS:    2699411  HIT %:    68.7568  MISS %:    31.2432   MPKI: 13.4971
L2C LOAD      ACCESS:    6382647  HIT:    4252893  MISS:    2129754  HIT %:    66.6321  MISS %:    33.3679   MPKI: 10.6488
L2C DATA LOAD MPKI: 3.6519
L2C INSTRUCTION LOAD MPKI: 6.99687
L2C RFO       ACCESS:     738703  HIT:     355484  MISS:     383219  HIT %:    48.1227  MISS %:    51.8773   MPKI: 1.91609
L2C PREFETCH  ACCESS:      94148  HIT:      54958  MISS:      39190  HIT %:     58.374  MISS %:     41.626   MPKI: 0.19595
AGUS PREFETCH L1 MISS: 0
L2C DATA PREFETCH MPKI: 0.19595
L2C INSTRUCTION PREFETCH MPKI: 0
L2C WRITEBACK ACCESS:    1225198  HIT:    1152353  MISS:      72845  HIT %:    94.0544  MISS %:    5.94557   MPKI: 0.364225
L2C LOAD TRANSLATION ACCESS:     134244  HIT:      64979  MISS:      69265  HIT %:    48.4037  MISS %:    51.5963   MPKI: 0.346325
L2C TRANSLATION FROM L1D PREFETCHER ACCESS:      65058  HIT:      59920  MISS:       5138  HIT %:    92.1024  MISS %:    7.89757   MPKI: 0.02569
L2C PREFETCH  REQUESTED:          0  ISSUED:          0  USEFUL:       5246  USELESS:      38981
L2C USEFUL LOAD PREFETCHES:       5246 PREFETCH ISSUED TO LOWER LEVEL:      39190  ACCURACY: 13.3861
L2C TIMELY PREFETCHES:       5246 LATE PREFETCHES: 0 DROPPED PREFETCHES: 0
L2C PREFETCHES SAME FILL-ORIGIN LEVEL: 0 DIFFERENT FILL-ORIGIN LEVEL: 0
L2C AVERAGE MISS LATENCY: 57.8549 cycles
L2C RQ	ACCESS:    7320671	FORWARD:          0	MERGED:          0	TO_CACHE:    7320652
L2C WQ	ACCESS:    1225198	FORWARD:         27	MERGED:          0	TO_CACHE:    1225198
L2C PQ	ACCESS:      94156	FORWARD:          0	MERGED:          0	TO_CACHE:      94148

L2C Instructions Evicting Data 552237
L2C Translations Evicting Data 43145
L2C Data Evicting Data 592781
L2C Instructions Evicting Instructions 818479
L2C Translations Evicting Instructions 28345
L2C Data Evicting Instructions 519217
L2C Instructions Evicting Translations 28658
L2C Translations Evicting Translations 2913
L2C Data Evicting Translations 40791
L2C Dense regions hint from L2: 0
PSCL5 TOTAL     ACCESS:     124938  HIT:     124938  MISS:          0  HIT %:        100  MISS %:          0   MPKI: 0
PSCL5 LOAD TRANSLATION ACCESS:      84942  HIT:      84942  MISS:          0  HIT %:        100  MISS %:          0   MPKI: 0
PSCL5 TRANSLATION FROM L1D PREFETCHER ACCESS:      39996  HIT:      39996  MISS:          0  HIT %:        100  MISS %:          0   MPKI: 0
PSCL5 PREFETCH  REQUESTED:          0  ISSUED:          0  USEFUL:          0  USELESS:          0
PSCL5 USEFUL LOAD PREFETCHES:          0 PREFETCH ISSUED TO LOWER LEVEL:          0  ACCURACY: -nan
PSCL5 TIMELY PREFETCHES:          0 LATE PREFETCHES: 0 DROPPED PREFETCHES: 0
PSCL5 PREFETCHES SAME FILL-ORIGIN LEVEL: 0 DIFFERENT FILL-ORIGIN LEVEL: 0

PSCL4 TOTAL     ACCESS:     123803  HIT:     123334  MISS:        469  HIT %:    99.6212  MISS %:   0.378828   MPKI: 0.002345
PSCL4 LOAD TRANSLATION ACCESS:      84009  HIT:      83540  MISS:        469  HIT %:    99.4417  MISS %:   0.558274   MPKI: 0.002345
PSCL4 TRANSLATION FROM L1D PREFETCHER ACCESS:      39794  HIT:      39794  MISS:          0  HIT %:        100  MISS %:          0   MPKI: 0
PSCL4 PREFETCH  REQUESTED:          0  ISSUED:          0  USEFUL:          0  USELESS:          0
PSCL4 USEFUL LOAD PREFETCHES:          0 PREFETCH ISSUED TO LOWER LEVEL:          0  ACCURACY: -nan
PSCL4 TIMELY PREFETCHES:          0 LATE PREFETCHES: 0 DROPPED PREFETCHES: 0
PSCL4 PREFETCHES SAME FILL-ORIGIN LEVEL: 0 DIFFERENT FILL-ORIGIN LEVEL: 0

PSCL3 TOTAL     ACCESS:     108433  HIT:      94463  MISS:      13970  HIT %:    87.1165  MISS %:    12.8835   MPKI: 0.06985
PSCL3 LOAD TRANSLATION ACCESS:      79607  HIT:      65637  MISS:      13970  HIT %:    82.4513  MISS %:    17.5487   MPKI: 0.06985
PSCL3 TRANSLATION FROM L1D PREFETCHER ACCESS:      28826  HIT:      28826  MISS:          0  HIT %:        100  MISS %:          0   MPKI: 0
PSCL3 PREFETCH  REQUESTED:          0  ISSUED:          0  USEFUL:          0  USELESS:          0
PSCL3 USEFUL LOAD PREFETCHES:          0 PREFETCH ISSUED TO LOWER LEVEL:          0  ACCURACY: -nan
PSCL3 TIMELY PREFETCHES:          0 LATE PREFETCHES: 0 DROPPED PREFETCHES: 0
PSCL3 PREFETCHES SAME FILL-ORIGIN LEVEL: 0 DIFFERENT FILL-ORIGIN LEVEL: 0

PSCL2 TOTAL     ACCESS:     105568  HIT:      69269  MISS:      36299  HIT %:    65.6155  MISS %:    34.3845   MPKI: 0.181495
PSCL2 LOAD TRANSLATION ACCESS:      85848  HIT:      49549  MISS:      36299  HIT %:    57.7171  MISS %:    42.2829   MPKI: 0.181495
PSCL2 TRANSLATION FROM L1D PREFETCHER ACCESS:      19720  HIT:      19720  MISS:          0  HIT %:        100  MISS %:          0   MPKI: 0
PSCL2 PREFETCH  REQUESTED:          0  ISSUED:          0  USEFUL:          0  USELESS:          0
PSCL2 USEFUL LOAD PREFETCHES:          0 PREFETCH ISSUED TO LOWER LEVEL:          0  ACCURACY: -nan
PSCL2 TIMELY PREFETCHES:          0 LATE PREFETCHES: 0 DROPPED PREFETCHES: 0
PSCL2 PREFETCHES SAME FILL-ORIGIN LEVEL: 0 DIFFERENT FILL-ORIGIN LEVEL: 0

LLC TOTAL     ACCESS:    3216727  HIT:    2815614  MISS:     401113  HIT %:    87.5304  MISS %:    12.4696   MPKI: 2.00556
LLC LOAD      ACCESS:    2129754  HIT:    1911430  MISS:     218324  HIT %:    89.7489  MISS %:    10.2511   MPKI: 1.09162
LLC RFO       ACCESS:     383215  HIT:     231981  MISS:     151234  HIT %:    60.5355  MISS %:    39.4645   MPKI: 0.75617
LLC PREFETCH  ACCESS:      39190  HIT:      25550  MISS:      13640  HIT %:    65.1952  MISS %:    34.8048   MPKI: 0.0682
AGUS PREFETCH L1 MISS: 0
LLC WRITEBACK ACCESS:     590165  HIT:     587204  MISS:       2961  HIT %:    99.4983  MISS %:   0.501724   MPKI: 0.014805
LLC LOAD TRANSLATION ACCESS:      69265  HIT:      54818  MISS:      14447  HIT %:    79.1424  MISS %:    20.8576   MPKI: 0.072235
LLC TRANSLATION FROM L1D PREFETCHER ACCESS:       5138  HIT:       4631  MISS:        507  HIT %:    90.1323  MISS %:    9.86765   MPKI: 0.002535
LLC PREFETCH  REQUESTED:          0  ISSUED:          0  USEFUL:        637  USELESS:      14102
LLC USEFUL LOAD PREFETCHES:        637 PREFETCH ISSUED TO LOWER LEVEL:      13640  ACCURACY: 4.67009
LLC TIMELY PREFETCHES:        637 LATE PREFETCHES: 0 DROPPED PREFETCHES: 0
LLC PREFETCHES SAME FILL-ORIGIN LEVEL: 0 DIFFERENT FILL-ORIGIN LEVEL: 0
LLC AVERAGE MISS LATENCY: 192.902 cycles
LLC RQ	ACCESS:    2587376	FORWARD:          0	MERGED:          0	TO_CACHE:    2587372
LLC WQ	ACCESS:     590165	FORWARD:          4	MERGED:          0	TO_CACHE:     590165
LLC PQ	ACCESS:      39190	FORWARD:          0	MERGED:          0	TO_CACHE:      39190

LLC Dense regions hint to LLC: 0

RAW hits: 2341503
Loads Generated: 48379080
Loads sent to L1D: 46037577
Stores Generated: 21239482
Stores sent to L1D: 21239484
Major fault: 0 Minor fault: 6400
Allocated PAGES: 6400
Completed 

DRAM Statistics
 CHANNEL 0
 RQ ROW_BUFFER_HIT:      96595  ROW_BUFFER_MISS:     301556
 DBUS_CONGESTED:        140
 WQ ROW_BUFFER_HIT:      39868  ROW_BUFFER_MISS:     206386  FULL:          0

 AVG_CONGESTED_CYCLE: 4
 All warmup complete: 2
Channel 0 Bank busy for read cycles: 0
Channel 0 Bank busy for write cycles: 0
Channel 0
Rank 0
0banks busy for read cycles: 421544978
0banks busy for write cycles: 103540
1banks busy for read cycles: 26318053
1banks busy for write cycles: 15199282
2banks busy for read cycles: 4468434
2banks busy for write cycles: 3943528
3banks busy for read cycles: 1018418
3banks busy for write cycles: 1492764
4banks busy for read cycles: 242960
4banks busy for write cycles: 610598
5banks busy for read cycles: 146855
5banks busy for write cycles: 280998
6banks busy for read cycles: 168470
6banks busy for write cycles: 171935
7banks busy for read cycles: 277422
7banks busy for write cycles: 225943
8banks busy for read cycles: 910384
8banks busy for write cycles: 1469245

CPU 0 Branch Prediction Accuracy: 99.6854% MPKI: 0.56232 Average ROB Occupancy at Mispredict: 39.6131
Branch types
NOT_BRANCH: 164252984 82.1265%
BRANCH_DIRECT_JUMP: 3651900 1.82595%
BRANCH_INDIRECT: 11989101 5.99455%
BRANCH_CONDITIONAL: 13594936 6.79747%
BRANCH_DIRECT_CALL: 2662247 1.33112%
BRANCH_INDIRECT_CALL: 593188 0.296594%
BRANCH_RETURN: 3255322 1.62766%
BRANCH_OTHER: 0 0%

DRAM PAGES: 1048576
Allocated PAGES: 6400
