
*** ChampSim Multicore Out-of-Order Simulator ***

Warmup Instructions: 50000000
Simulation Instructions: 200000000
Number of CPUs: 1
LLC sets: 2048
LLC ways: 16
Off-chip DRAM Size: 4096 MB Channels: 1 Width: 64-bit Data Rate: 6400 MT/s
CPU 0 runs traces/spec2k17/srv_75.champsimtrace.xz
.xz
BTB has LRU replacement policy
ITLB has LRU replacement policy
DTLB has LRU replacement policy
STLB has LRU replacement policy
L1I has LRU replacement policy
L1D has LRU replacement policy
Initialize SRRIP state for L2C
Initialize DRRIP state for LLC
Heartbeat CPU 0 instructions: 10000003 cycles: 2945066 heartbeat IPC: 3.39551 cumulative IPC: 3.39551 (Simulation time: 0 hr 0 min 42 sec) 
Heartbeat CPU 0 instructions: 20000003 cycles: 5881889 heartbeat IPC: 3.40504 cumulative IPC: 3.40027 (Simulation time: 0 hr 1 min 18 sec) 
Heartbeat CPU 0 instructions: 30000001 cycles: 8825129 heartbeat IPC: 3.39762 cumulative IPC: 3.39938 (Simulation time: 0 hr 1 min 53 sec) 
*** Reached end of trace for Core: 0 Repeating trace: traces/spec2k17/srv_75.champsimtrace.xz
Heartbeat CPU 0 instructions: 40000000 cycles: 11768514 heartbeat IPC: 3.39745 cumulative IPC: 3.3989 (Simulation time: 0 hr 2 min 30 sec) 
Heartbeat CPU 0 instructions: 50000001 cycles: 14711417 heartbeat IPC: 3.39801 cumulative IPC: 3.39872 (Simulation time: 0 hr 2 min 57 sec) 

Warmup complete CPU 0 instructions: 50000001 cycles: 14711417 (Simulation time: 0 hr 2 min 57 sec) 

Heartbeat CPU 0 instructions: 60000003 cycles: 34029761 heartbeat IPC: 0.517643 cumulative IPC: 0.517643 (Simulation time: 0 hr 3 min 42 sec) 
*** Reached end of trace for Core: 0 Repeating trace: traces/spec2k17/srv_75.champsimtrace.xz
Heartbeat CPU 0 instructions: 70000000 cycles: 53238673 heartbeat IPC: 0.520592 cumulative IPC: 0.519113 (Simulation time: 0 hr 4 min 27 sec) 
Heartbeat CPU 0 instructions: 80000003 cycles: 72449887 heartbeat IPC: 0.520529 cumulative IPC: 0.519584 (Simulation time: 0 hr 5 min 11 sec) 
Heartbeat CPU 0 instructions: 90000002 cycles: 91624977 heartbeat IPC: 0.52151 cumulative IPC: 0.520064 (Simulation time: 0 hr 5 min 54 sec) 
*** Reached end of trace for Core: 0 Repeating trace: traces/spec2k17/srv_75.champsimtrace.xz
Heartbeat CPU 0 instructions: 100000000 cycles: 110805056 heartbeat IPC: 0.521374 cumulative IPC: 0.520326 (Simulation time: 0 hr 6 min 39 sec) 
Heartbeat CPU 0 instructions: 110000000 cycles: 130033131 heartbeat IPC: 0.520073 cumulative IPC: 0.520284 (Simulation time: 0 hr 7 min 23 sec) 
Heartbeat CPU 0 instructions: 120000000 cycles: 149184365 heartbeat IPC: 0.52216 cumulative IPC: 0.520551 (Simulation time: 0 hr 8 min 7 sec) 
*** Reached end of trace for Core: 0 Repeating trace: traces/spec2k17/srv_75.champsimtrace.xz
Heartbeat CPU 0 instructions: 130000002 cycles: 168353922 heartbeat IPC: 0.521661 cumulative IPC: 0.520689 (Simulation time: 0 hr 8 min 52 sec) 
Heartbeat CPU 0 instructions: 140000000 cycles: 187587483 heartbeat IPC: 0.519924 cumulative IPC: 0.520604 (Simulation time: 0 hr 9 min 36 sec) 
Heartbeat CPU 0 instructions: 150000001 cycles: 206705521 heartbeat IPC: 0.523066 cumulative IPC: 0.520849 (Simulation time: 0 hr 10 min 20 sec) 
Heartbeat CPU 0 instructions: 160000000 cycles: 225874438 heartbeat IPC: 0.521678 cumulative IPC: 0.520925 (Simulation time: 0 hr 11 min 3 sec) 
*** Reached end of trace for Core: 0 Repeating trace: traces/spec2k17/srv_75.champsimtrace.xz
Heartbeat CPU 0 instructions: 170000001 cycles: 244986671 heartbeat IPC: 0.523225 cumulative IPC: 0.521115 (Simulation time: 0 hr 11 min 48 sec) 
Heartbeat CPU 0 instructions: 180000002 cycles: 264186262 heartbeat IPC: 0.520844 cumulative IPC: 0.521095 (Simulation time: 0 hr 12 min 31 sec) 
Heartbeat CPU 0 instructions: 190000000 cycles: 283336895 heartbeat IPC: 0.522176 cumulative IPC: 0.521172 (Simulation time: 0 hr 13 min 14 sec) 
*** Reached end of trace for Core: 0 Repeating trace: traces/spec2k17/srv_75.champsimtrace.xz
Heartbeat CPU 0 instructions: 200000002 cycles: 302458205 heartbeat IPC: 0.522977 cumulative IPC: 0.521292 (Simulation time: 0 hr 13 min 57 sec) 
Heartbeat CPU 0 instructions: 210000002 cycles: 321627554 heartbeat IPC: 0.521666 cumulative IPC: 0.521315 (Simulation time: 0 hr 14 min 36 sec) 
Heartbeat CPU 0 instructions: 220000000 cycles: 340715517 heartbeat IPC: 0.52389 cumulative IPC: 0.521466 (Simulation time: 0 hr 15 min 11 sec) 
*** Reached end of trace for Core: 0 Repeating trace: traces/spec2k17/srv_75.champsimtrace.xz
Heartbeat CPU 0 instructions: 230000003 cycles: 359763352 heartbeat IPC: 0.524994 cumulative IPC: 0.521661 (Simulation time: 0 hr 15 min 43 sec) 
Heartbeat CPU 0 instructions: 240000000 cycles: 378954395 heartbeat IPC: 0.521076 cumulative IPC: 0.52163 (Simulation time: 0 hr 16 min 15 sec) 
Heartbeat CPU 0 instructions: 250000002 cycles: 398060149 heartbeat IPC: 0.523403 cumulative IPC: 0.521718 (Simulation time: 0 hr 16 min 46 sec) 
Finished CPU 0 instructions: 200000001 cycles: 383348732 cumulative IPC: 0.521718 (Simulation time: 0 hr 16 min 46 sec) 

ChampSim completed all CPUs

Region of Interest Statistics

CPU 0 cumulative IPC: 0.521718 instructions: 200000001 cycles: 383348732
ITLB TOTAL     ACCESS:   33744993  HIT:   32208250  MISS:    1536743  HIT %:     95.446  MISS %:    4.55399   MPKI: 7.68371
ITLB LOAD TRANSLATION ACCESS:   33744993  HIT:   32208250  MISS:    1536743  HIT %:     95.446  MISS %:    4.55399   MPKI: 7.68371
ITLB PREFETCH  REQUESTED:          0  ISSUED:          0  USEFUL:          0  USELESS:          0
ITLB USEFUL LOAD PREFETCHES:          0 PREFETCH ISSUED TO LOWER LEVEL:          0  ACCURACY: -nan
ITLB TIMELY PREFETCHES:          0 LATE PREFETCHES: 0 DROPPED PREFETCHES: 0
ITLB PREFETCHES SAME FILL-ORIGIN LEVEL: 0 DIFFERENT FILL-ORIGIN LEVEL: 0
ITLB AVERAGE MISS LATENCY: 9.18276 cycles
ITLB RQ	ACCESS:   40651348	FORWARD:          0	MERGED:    6410991	TO_CACHE:   34240357

DTLB TOTAL     ACCESS:   39996118  HIT:   38472521  MISS:    1523597  HIT %:    96.1906  MISS %:    3.80936   MPKI: 7.61798
DTLB LOAD TRANSLATION ACCESS:   39996118  HIT:   38472521  MISS:    1523597  HIT %:    96.1906  MISS %:    3.80936   MPKI: 7.61798
DTLB PREFETCH  REQUESTED:          0  ISSUED:          0  USEFUL:          0  USELESS:          0
DTLB USEFUL LOAD PREFETCHES:          0 PREFETCH ISSUED TO LOWER LEVEL:          0  ACCURACY: -nan
DTLB TIMELY PREFETCHES:          0 LATE PREFETCHES: 0 DROPPED PREFETCHES: 0
DTLB PREFETCHES SAME FILL-ORIGIN LEVEL: 0 DIFFERENT FILL-ORIGIN LEVEL: 0
DTLB AVERAGE MISS LATENCY: 13.4676 cycles
DTLB RQ	ACCESS:   61174615	FORWARD:          0	MERGED:   20794625	TO_CACHE:   40379990

STLB TOTAL     ACCESS:    7213347  HIT:    7137480  MISS:      75867  HIT %:    98.9482  MISS %:    1.05176   MPKI: 0.379335
STLB LOAD TRANSLATION ACCESS:    3060340  HIT:    2987158  MISS:      73182  HIT %:    97.6087  MISS %:     2.3913   MPKI: 0.36591
STLB TRANSLATION FROM L1D PREFETCHER ACCESS:    4153007  HIT:    4150322  MISS:       2685  HIT %:    99.9353  MISS %:  0.0646519   MPKI: 0.013425
STLB PREFETCH  REQUESTED:          0  ISSUED:          0  USEFUL:       2429  USELESS:        251
STLB USEFUL LOAD PREFETCHES:       2429 PREFETCH ISSUED TO LOWER LEVEL:          0  ACCURACY: inf
STLB TIMELY PREFETCHES:       2429 LATE PREFETCHES: 1029 DROPPED PREFETCHES: 24604
STLB PREFETCHES SAME FILL-ORIGIN LEVEL: 0 DIFFERENT FILL-ORIGIN LEVEL: 0
STLB AVERAGE MISS LATENCY: 120583 cycles
STLB RQ	ACCESS:   10057506	FORWARD:          0	MERGED:    2818134	TO_CACHE:    7239372

STLB Hit, L1D data hit: 0
STLB Hit, L2C data hit: 0
STLB Hit, LLC data hit: 0
STLB Hit, LLC data miss: 0
STLB STLB hints to L2: 0
L1D TOTAL     ACCESS:   54699667  HIT:   47842629  MISS:    6857038  HIT %:    87.4642  MISS %:    12.5358   MPKI: 34.2852
L1D LOAD      ACCESS:   26725180  HIT:   23884501  MISS:    2840679  HIT %:    89.3708  MISS %:    10.6292   MPKI: 14.2034
L1D RFO       ACCESS:   22263641  HIT:   18548888  MISS:    3714753  HIT %:    83.3147  MISS %:    16.6853   MPKI: 18.5738
L1D PREFETCH  ACCESS:    5710846  HIT:    5409240  MISS:     301606  HIT %:    94.7187  MISS %:    5.28128   MPKI: 1.50803
AGUS PREFETCH L1 MISS: 0
L1D PREFETCH  REQUESTED:   15177893  ISSUED:   15174445  USEFUL:     237574  USELESS:      64058
L1D USEFUL LOAD PREFETCHES:     237574 PREFETCH ISSUED TO LOWER LEVEL:     782784  ACCURACY: 30.3499
L1D TIMELY PREFETCHES:     237574 LATE PREFETCHES: 481108 DROPPED PREFETCHES: 33745
L1D PREFETCHES SAME FILL-ORIGIN LEVEL: 782784 DIFFERENT FILL-ORIGIN LEVEL: 0
L1D AVERAGE MISS LATENCY: 1.46995e+07 cycles
L1D RQ	ACCESS:   45267363	FORWARD:          0	MERGED:   17874134	TO_CACHE:   27110686
L1D WQ	ACCESS:   34266000	FORWARD:     308191	MERGED:     202071	TO_CACHE:   34063929
L1D PQ	ACCESS:    8177279	FORWARD:          0	MERGED:    1154465	TO_CACHE:    6997166

L1D UNIQUE REGIONS ACCESSED: 0
L1D REGIONS CONFLICTS: 0
L1D Cross Page Prefetch Requests: 3106340
L1D Same Page Prefetch Requests: 6135186
L1D ROI Sum of L1D PQ occupancy: 108093949
L1D PREFETCHES PUSHED FROM L2C: 0
L1I TOTAL     ACCESS:   38005740  HIT:   28952315  MISS:    9053425  HIT %:    76.1788  MISS %:    23.8212   MPKI: 45.2671
L1I LOAD      ACCESS:   38005740  HIT:   28952315  MISS:    9053425  HIT %:    76.1788  MISS %:    23.8212   MPKI: 45.2671
L1I PREFETCH  REQUESTED:          0  ISSUED:          0  USEFUL:          0  USELESS:          0
L1I USEFUL LOAD PREFETCHES:          0 PREFETCH ISSUED TO LOWER LEVEL:          0  ACCURACY: -nan
L1I TIMELY PREFETCHES:          0 LATE PREFETCHES: 0 DROPPED PREFETCHES: 0
L1I PREFETCHES SAME FILL-ORIGIN LEVEL: 0 DIFFERENT FILL-ORIGIN LEVEL: 0
L1I AVERAGE MISS LATENCY: 16.4586 cycles
L1I RQ	ACCESS:   58908830	FORWARD:          0	MERGED:   18257482	TO_CACHE:   40651348

BTB TOTAL     ACCESS:   25661075  HIT:   24120507  MISS:    1540568  HIT %:    93.9965  MISS %:    6.00352   MPKI: 7.70284
BTB BRANCH_DIRECT_JUMP	ACCESS:    1658498  HIT:    1648884  MISS:       9614
BTB BRANCH_INDIRECT	ACCESS:    9965680  HIT:    9453518  MISS:     512162
BTB BRANCH_CONDITIONAL	ACCESS:    7213546  HIT:    7200102  MISS:      13444
BTB BRANCH_DIRECT_CALL	ACCESS:    2819430  HIT:    2786168  MISS:      33262
BTB BRANCH_INDIRECT_CALL	ACCESS:     592212  HIT:     481174  MISS:     111038
BTB BRANCH_RETURN	ACCESS:    3411709  HIT:    2550661  MISS:     861048
BTB BRANCH_OTHER ACCESS:          0  HIT:          0  MISS:          0

L2C TOTAL     ACCESS:   20396757  HIT:   13750264  MISS:    6646493  HIT %:     67.414  MISS %:     32.586   MPKI: 33.2325
L2C LOAD      ACCESS:   11412923  HIT:    9123622  MISS:    2289301  HIT %:    79.9412  MISS %:    20.0588   MPKI: 11.4465
L2C DATA LOAD MPKI: 8.6795
L2C INSTRUCTION LOAD MPKI: 2.767
L2C RFO       ACCESS:    3714678  HIT:     170178  MISS:    3544500  HIT %:    4.58123  MISS %:    95.4188   MPKI: 17.7225
L2C PREFETCH  ACCESS:     782757  HIT:     152769  MISS:     629988  HIT %:    19.5168  MISS %:    80.4832   MPKI: 3.14994
AGUS PREFETCH L1 MISS: 0
L2C DATA PREFETCH MPKI: 3.14994
L2C INSTRUCTION PREFETCH MPKI: 0
L2C WRITEBACK ACCESS:    4367782  HIT:    4227781  MISS:     140001  HIT %:    96.7947  MISS %:    3.20531   MPKI: 0.700005
L2C LOAD TRANSLATION ACCESS:      78986  HIT:      44665  MISS:      34321  HIT %:     56.548  MISS %:     43.452   MPKI: 0.171605
L2C TRANSLATION FROM L1D PREFETCHER ACCESS:      39631  HIT:      31249  MISS:       8382  HIT %:    78.8499  MISS %:    21.1501   MPKI: 0.04191
L2C PREFETCH  REQUESTED:          0  ISSUED:          0  USEFUL:      12303  USELESS:     626070
L2C USEFUL LOAD PREFETCHES:      12303 PREFETCH ISSUED TO LOWER LEVEL:     629988  ACCURACY: 1.95289
L2C TIMELY PREFETCHES:      12303 LATE PREFETCHES: 0 DROPPED PREFETCHES: 0
L2C PREFETCHES SAME FILL-ORIGIN LEVEL: 0 DIFFERENT FILL-ORIGIN LEVEL: 0
L2C AVERAGE MISS LATENCY: 160.854 cycles
L2C RQ	ACCESS:   15246297	FORWARD:          0	MERGED:          0	TO_CACHE:   15246220
L2C WQ	ACCESS:    4367783	FORWARD:        104	MERGED:          0	TO_CACHE:    4367783
L2C PQ	ACCESS:     782784	FORWARD:          0	MERGED:          0	TO_CACHE:     782757

L2C Instructions Evicting Data 504527
L2C Translations Evicting Data 38468
L2C Data Evicting Data 5378605
L2C Instructions Evicting Instructions 44860
L2C Translations Evicting Instructions 4046
L2C Data Evicting Instructions 493984
L2C Instructions Evicting Translations 4013
L2C Translations Evicting Translations 189
L2C Data Evicting Translations 37800
L2C Dense regions hint from L2: 0
PSCL5 TOTAL     ACCESS:      98310  HIT:      98310  MISS:          0  HIT %:        100  MISS %:          0   MPKI: 0
PSCL5 LOAD TRANSLATION ACCESS:      72153  HIT:      72153  MISS:          0  HIT %:        100  MISS %:          0   MPKI: 0
PSCL5 TRANSLATION FROM L1D PREFETCHER ACCESS:      26157  HIT:      26157  MISS:          0  HIT %:        100  MISS %:          0   MPKI: 0
PSCL5 PREFETCH  REQUESTED:          0  ISSUED:          0  USEFUL:          0  USELESS:          0
PSCL5 USEFUL LOAD PREFETCHES:          0 PREFETCH ISSUED TO LOWER LEVEL:          0  ACCURACY: -nan
PSCL5 TIMELY PREFETCHES:          0 LATE PREFETCHES: 0 DROPPED PREFETCHES: 0
PSCL5 PREFETCHES SAME FILL-ORIGIN LEVEL: 0 DIFFERENT FILL-ORIGIN LEVEL: 0

PSCL4 TOTAL     ACCESS:      86572  HIT:      86478  MISS:         94  HIT %:    99.8914  MISS %:    0.10858   MPKI: 0.00047
PSCL4 LOAD TRANSLATION ACCESS:      63333  HIT:      63239  MISS:         94  HIT %:    99.8516  MISS %:   0.148422   MPKI: 0.00047
PSCL4 TRANSLATION FROM L1D PREFETCHER ACCESS:      23239  HIT:      23239  MISS:          0  HIT %:        100  MISS %:          0   MPKI: 0
PSCL4 PREFETCH  REQUESTED:          0  ISSUED:          0  USEFUL:          0  USELESS:          0
PSCL4 USEFUL LOAD PREFETCHES:          0 PREFETCH ISSUED TO LOWER LEVEL:          0  ACCURACY: -nan
PSCL4 TIMELY PREFETCHES:          0 LATE PREFETCHES: 0 DROPPED PREFETCHES: 0
PSCL4 PREFETCHES SAME FILL-ORIGIN LEVEL: 0 DIFFERENT FILL-ORIGIN LEVEL: 0

PSCL3 TOTAL     ACCESS:      96081  HIT:      95892  MISS:        189  HIT %:    99.8033  MISS %:   0.196709   MPKI: 0.000945
PSCL3 LOAD TRANSLATION ACCESS:      71530  HIT:      71341  MISS:        189  HIT %:    99.7358  MISS %:   0.264225   MPKI: 0.000945
PSCL3 TRANSLATION FROM L1D PREFETCHER ACCESS:      24551  HIT:      24551  MISS:          0  HIT %:        100  MISS %:          0   MPKI: 0
PSCL3 PREFETCH  REQUESTED:          0  ISSUED:          0  USEFUL:          0  USELESS:          0
PSCL3 USEFUL LOAD PREFETCHES:          0 PREFETCH ISSUED TO LOWER LEVEL:          0  ACCURACY: -nan
PSCL3 TIMELY PREFETCHES:          0 LATE PREFETCHES: 0 DROPPED PREFETCHES: 0
PSCL3 PREFETCHES SAME FILL-ORIGIN LEVEL: 0 DIFFERENT FILL-ORIGIN LEVEL: 0

PSCL2 TOTAL     ACCESS:      83268  HIT:      76580  MISS:       6688  HIT %:    91.9681  MISS %:     8.0319   MPKI: 0.03344
PSCL2 LOAD TRANSLATION ACCESS:      72285  HIT:      65597  MISS:       6688  HIT %:    90.7477  MISS %:    9.25227   MPKI: 0.03344
PSCL2 TRANSLATION FROM L1D PREFETCHER ACCESS:      10983  HIT:      10983  MISS:          0  HIT %:        100  MISS %:          0   MPKI: 0
PSCL2 PREFETCH  REQUESTED:          0  ISSUED:          0  USEFUL:          0  USELESS:          0
PSCL2 USEFUL LOAD PREFETCHES:          0 PREFETCH ISSUED TO LOWER LEVEL:          0  ACCURACY: -nan
PSCL2 TIMELY PREFETCHES:          0 LATE PREFETCHES: 0 DROPPED PREFETCHES: 0
PSCL2 PREFETCHES SAME FILL-ORIGIN LEVEL: 0 DIFFERENT FILL-ORIGIN LEVEL: 0

LLC TOTAL     ACCESS:   10546576  HIT:    4178571  MISS:    6368005  HIT %:    39.6202  MISS %:    60.3798   MPKI: 31.84
LLC LOAD      ACCESS:    2289301  HIT:    1612231  MISS:     677070  HIT %:    70.4246  MISS %:    29.5754   MPKI: 3.38535
LLC RFO       ACCESS:    3544488  HIT:     966216  MISS:    2578272  HIT %:    27.2597  MISS %:    72.7403   MPKI: 12.8914
LLC PREFETCH  ACCESS:     629988  HIT:      50237  MISS:     579751  HIT %:    7.97428  MISS %:    92.0257   MPKI: 2.89875
AGUS PREFETCH L1 MISS: 0
LLC WRITEBACK ACCESS:    4040096  HIT:    1532356  MISS:    2507740  HIT %:    37.9287  MISS %:    62.0713   MPKI: 12.5387
LLC LOAD TRANSLATION ACCESS:      34321  HIT:      14160  MISS:      20161  HIT %:    41.2575  MISS %:    58.7425   MPKI: 0.100805
LLC TRANSLATION FROM L1D PREFETCHER ACCESS:       8382  HIT:       3371  MISS:       5011  HIT %:    40.2171  MISS %:    59.7829   MPKI: 0.025055
LLC PREFETCH  REQUESTED:          0  ISSUED:          0  USEFUL:       1730  USELESS:     583734
LLC USEFUL LOAD PREFETCHES:       1730 PREFETCH ISSUED TO LOWER LEVEL:     579751  ACCURACY: 0.298404
LLC TIMELY PREFETCHES:       1730 LATE PREFETCHES: 0 DROPPED PREFETCHES: 0
LLC PREFETCHES SAME FILL-ORIGIN LEVEL: 0 DIFFERENT FILL-ORIGIN LEVEL: 0
LLC AVERAGE MISS LATENCY: 137.235 cycles
LLC RQ	ACCESS:    5876506	FORWARD:          0	MERGED:          0	TO_CACHE:    5876494
LLC WQ	ACCESS:    4040098	FORWARD:         12	MERGED:          0	TO_CACHE:    4040098
LLC PQ	ACCESS:     629988	FORWARD:          0	MERGED:          0	TO_CACHE:     629988

LLC Dense regions hint to LLC: 0

RAW hits: 2462314
Loads Generated: 47729678
Loads sent to L1D: 45267363
Stores Generated: 34266005
Stores sent to L1D: 34266000
Major fault: 0 Minor fault: 8372
Allocated PAGES: 8372
Completed 

DRAM Statistics
 CHANNEL 0
 RQ ROW_BUFFER_HIT:    1847986  ROW_BUFFER_MISS:    2011817
 DBUS_CONGESTED:       2377
 WQ ROW_BUFFER_HIT:     534037  ROW_BUFFER_MISS:    2111318  FULL:      62067

 AVG_CONGESTED_CYCLE: 3
 All warmup complete: 2
Channel 0 Bank busy for read cycles: 0
Channel 0 Bank busy for write cycles: 0
Channel 0
Rank 0
0banks busy for read cycles: 175018322
0banks busy for write cycles: 271573
1banks busy for read cycles: 27829941
1banks busy for write cycles: 38026339
2banks busy for read cycles: 11584990
2banks busy for write cycles: 13471820
3banks busy for read cycles: 15326382
3banks busy for write cycles: 5831786
4banks busy for read cycles: 5606451
4banks busy for write cycles: 3628894
5banks busy for read cycles: 4906018
5banks busy for write cycles: 3105386
6banks busy for read cycles: 5785223
6banks busy for write cycles: 3141071
7banks busy for read cycles: 7317409
7banks busy for write cycles: 5700449
8banks busy for read cycles: 21479277
8banks busy for write cycles: 35317402

CPU 0 Branch Prediction Accuracy: 99.9491% MPKI: 0.077685 Average ROB Occupancy at Mispredict: 124.968
Branch types
NOT_BRANCH: 169475776 84.7379%
BRANCH_DIRECT_JUMP: 1658498 0.829249%
BRANCH_INDIRECT: 9965680 4.98284%
BRANCH_CONDITIONAL: 12076911 6.03846%
BRANCH_DIRECT_CALL: 2819430 1.40971%
BRANCH_INDIRECT_CALL: 592212 0.296106%
BRANCH_RETURN: 3411709 1.70585%
BRANCH_OTHER: 0 0%

DRAM PAGES: 1048576
Allocated PAGES: 8372
