
*** ChampSim Multicore Out-of-Order Simulator ***

Warmup Instructions: 50000000
Simulation Instructions: 200000000
Number of CPUs: 1
LLC sets: 2048
LLC ways: 16
Off-chip DRAM Size: 4096 MB Channels: 1 Width: 64-bit Data Rate: 6400 MT/s
CPU 0 runs traces/spec2k17/srv_27.champsimtrace.xz
.xz
BTB has LRU replacement policy
ITLB has LRU replacement policy
DTLB has LRU replacement policy
STLB has LRU replacement policy
L1I has LRU replacement policy
L1D has LRU replacement policy
Initialize SRRIP state for L2C
Initialize DRRIP state for LLC
Heartbeat CPU 0 instructions: 10000001 cycles: 2808842 heartbeat IPC: 3.56019 cumulative IPC: 3.56019 (Simulation time: 0 hr 0 min 46 sec) 
Heartbeat CPU 0 instructions: 20000002 cycles: 5614231 heartbeat IPC: 3.56457 cumulative IPC: 3.56238 (Simulation time: 0 hr 1 min 28 sec) 
Heartbeat CPU 0 instructions: 30000001 cycles: 8421447 heartbeat IPC: 3.56225 cumulative IPC: 3.56233 (Simulation time: 0 hr 2 min 12 sec) 
*** Reached end of trace for Core: 0 Repeating trace: traces/spec2k17/srv_27.champsimtrace.xz
Heartbeat CPU 0 instructions: 40000001 cycles: 11226908 heartbeat IPC: 3.56448 cumulative IPC: 3.56287 (Simulation time: 0 hr 2 min 54 sec) 
Heartbeat CPU 0 instructions: 50000000 cycles: 14032844 heartbeat IPC: 3.56387 cumulative IPC: 3.56307 (Simulation time: 0 hr 3 min 36 sec) 

Warmup complete CPU 0 instructions: 50000004 cycles: 14032845 (Simulation time: 0 hr 3 min 36 sec) 

Heartbeat CPU 0 instructions: 60000002 cycles: 27885880 heartbeat IPC: 0.721864 cumulative IPC: 0.721863 (Simulation time: 0 hr 4 min 27 sec) 
*** Reached end of trace for Core: 0 Repeating trace: traces/spec2k17/srv_27.champsimtrace.xz
Heartbeat CPU 0 instructions: 70000003 cycles: 41869059 heartbeat IPC: 0.715145 cumulative IPC: 0.718488 (Simulation time: 0 hr 5 min 20 sec) 
Heartbeat CPU 0 instructions: 80000000 cycles: 55776859 heartbeat IPC: 0.719021 cumulative IPC: 0.718666 (Simulation time: 0 hr 6 min 16 sec) 
Heartbeat CPU 0 instructions: 90000000 cycles: 69543256 heartbeat IPC: 0.726406 cumulative IPC: 0.720585 (Simulation time: 0 hr 7 min 12 sec) 
*** Reached end of trace for Core: 0 Repeating trace: traces/spec2k17/srv_27.champsimtrace.xz
Heartbeat CPU 0 instructions: 100000000 cycles: 83542004 heartbeat IPC: 0.71435 cumulative IPC: 0.71933 (Simulation time: 0 hr 8 min 9 sec) 
Heartbeat CPU 0 instructions: 110000000 cycles: 97369684 heartbeat IPC: 0.723187 cumulative IPC: 0.71997 (Simulation time: 0 hr 9 min 3 sec) 
Heartbeat CPU 0 instructions: 120000000 cycles: 111164630 heartbeat IPC: 0.724903 cumulative IPC: 0.72067 (Simulation time: 0 hr 9 min 55 sec) 
*** Reached end of trace for Core: 0 Repeating trace: traces/spec2k17/srv_27.champsimtrace.xz
Heartbeat CPU 0 instructions: 130000001 cycles: 125197046 heartbeat IPC: 0.712636 cumulative IPC: 0.719656 (Simulation time: 0 hr 10 min 48 sec) 
Heartbeat CPU 0 instructions: 140000001 cycles: 138729967 heartbeat IPC: 0.738939 cumulative IPC: 0.721749 (Simulation time: 0 hr 11 min 41 sec) 
Heartbeat CPU 0 instructions: 150000001 cycles: 152757157 heartbeat IPC: 0.712901 cumulative IPC: 0.720854 (Simulation time: 0 hr 12 min 34 sec) 
*** Reached end of trace for Core: 0 Repeating trace: traces/spec2k17/srv_27.champsimtrace.xz
Heartbeat CPU 0 instructions: 160000002 cycles: 166715246 heartbeat IPC: 0.716431 cumulative IPC: 0.72045 (Simulation time: 0 hr 13 min 29 sec) 
Heartbeat CPU 0 instructions: 170000001 cycles: 180347758 heartbeat IPC: 0.73354 cumulative IPC: 0.721523 (Simulation time: 0 hr 14 min 23 sec) 
Heartbeat CPU 0 instructions: 180000001 cycles: 194338515 heartbeat IPC: 0.714758 cumulative IPC: 0.720998 (Simulation time: 0 hr 15 min 18 sec) 
Heartbeat CPU 0 instructions: 190000002 cycles: 208290332 heartbeat IPC: 0.716753 cumulative IPC: 0.720693 (Simulation time: 0 hr 16 min 12 sec) 
*** Reached end of trace for Core: 0 Repeating trace: traces/spec2k17/srv_27.champsimtrace.xz
Heartbeat CPU 0 instructions: 200000003 cycles: 221932605 heartbeat IPC: 0.733016 cumulative IPC: 0.721502 (Simulation time: 0 hr 17 min 2 sec) 
Heartbeat CPU 0 instructions: 210000002 cycles: 235900627 heartbeat IPC: 0.715921 cumulative IPC: 0.72115 (Simulation time: 0 hr 17 min 54 sec) 
Heartbeat CPU 0 instructions: 220000000 cycles: 249533611 heartbeat IPC: 0.733515 cumulative IPC: 0.721866 (Simulation time: 0 hr 18 min 47 sec) 
*** Reached end of trace for Core: 0 Repeating trace: traces/spec2k17/srv_27.champsimtrace.xz
Heartbeat CPU 0 instructions: 230000001 cycles: 263464834 heartbeat IPC: 0.717812 cumulative IPC: 0.72164 (Simulation time: 0 hr 19 min 38 sec) 
Heartbeat CPU 0 instructions: 240000003 cycles: 277350808 heartbeat IPC: 0.720151 cumulative IPC: 0.721561 (Simulation time: 0 hr 20 min 31 sec) 
Heartbeat CPU 0 instructions: 250000000 cycles: 291028086 heartbeat IPC: 0.731139 cumulative IPC: 0.722034 (Simulation time: 0 hr 21 min 24 sec) 
Finished CPU 0 instructions: 200000002 cycles: 276995261 cumulative IPC: 0.722034 (Simulation time: 0 hr 21 min 24 sec) 

ChampSim completed all CPUs

Region of Interest Statistics

CPU 0 cumulative IPC: 0.722034 instructions: 200000002 cycles: 276995261
ITLB TOTAL     ACCESS:   32432426  HIT:   32330132  MISS:     102294  HIT %:    99.6846  MISS %:   0.315407   MPKI: 0.51147
ITLB LOAD TRANSLATION ACCESS:   32432426  HIT:   32330132  MISS:     102294  HIT %:    99.6846  MISS %:   0.315407   MPKI: 0.51147
ITLB PREFETCH  REQUESTED:          0  ISSUED:          0  USEFUL:          0  USELESS:          0
ITLB USEFUL LOAD PREFETCHES:          0 PREFETCH ISSUED TO LOWER LEVEL:          0  ACCURACY: -nan
ITLB TIMELY PREFETCHES:          0 LATE PREFETCHES: 0 DROPPED PREFETCHES: 0
ITLB PREFETCHES SAME FILL-ORIGIN LEVEL: 0 DIFFERENT FILL-ORIGIN LEVEL: 0
ITLB AVERAGE MISS LATENCY: 10.5754 cycles
ITLB RQ	ACCESS:   38229384	FORWARD:          0	MERGED:    5763436	TO_CACHE:   32465948

DTLB TOTAL     ACCESS:   40776946  HIT:   38997808  MISS:    1779138  HIT %:    95.6369  MISS %:     4.3631   MPKI: 8.89569
DTLB LOAD TRANSLATION ACCESS:   40776946  HIT:   38997808  MISS:    1779138  HIT %:    95.6369  MISS %:     4.3631   MPKI: 8.89569
DTLB PREFETCH  REQUESTED:          0  ISSUED:          0  USEFUL:          0  USELESS:          0
DTLB USEFUL LOAD PREFETCHES:          0 PREFETCH ISSUED TO LOWER LEVEL:          0  ACCURACY: -nan
DTLB TIMELY PREFETCHES:          0 LATE PREFETCHES: 0 DROPPED PREFETCHES: 0
DTLB PREFETCHES SAME FILL-ORIGIN LEVEL: 0 DIFFERENT FILL-ORIGIN LEVEL: 0
DTLB AVERAGE MISS LATENCY: 9.95843 cycles
DTLB RQ	ACCESS:   54708664	FORWARD:          0	MERGED:   13750031	TO_CACHE:   40958633

STLB TOTAL     ACCESS:   16684299  HIT:   16598751  MISS:      85548  HIT %:    99.4873  MISS %:   0.512746   MPKI: 0.42774
STLB LOAD TRANSLATION ACCESS:    1881432  HIT:    1795969  MISS:      85463  HIT %:    95.4576  MISS %:    4.54244   MPKI: 0.427315
STLB TRANSLATION FROM L1D PREFETCHER ACCESS:   14802867  HIT:   14802782  MISS:         85  HIT %:    99.9994  MISS %: 0.000574213   MPKI: 0.000425
STLB PREFETCH  REQUESTED:          0  ISSUED:          0  USEFUL:         73  USELESS:         12
STLB USEFUL LOAD PREFETCHES:         73 PREFETCH ISSUED TO LOWER LEVEL:          0  ACCURACY: inf
STLB TIMELY PREFETCHES:         73 LATE PREFETCHES: 118 DROPPED PREFETCHES: 49496
STLB PREFETCHES SAME FILL-ORIGIN LEVEL: 0 DIFFERENT FILL-ORIGIN LEVEL: 0
STLB AVERAGE MISS LATENCY: 36.2071 cycles
STLB RQ	ACCESS:   20450851	FORWARD:          0	MERGED:    3716645	TO_CACHE:   16734206

STLB Hit, L1D data hit: 0
STLB Hit, L2C data hit: 0
STLB Hit, LLC data hit: 0
STLB Hit, LLC data miss: 0
STLB STLB hints to L2: 0
L1D TOTAL     ACCESS:   72519890  HIT:   71729222  MISS:     790668  HIT %:    98.9097  MISS %:    1.09028   MPKI: 3.95334
L1D LOAD      ACCESS:   30716186  HIT:   30295792  MISS:     420394  HIT %:    98.6314  MISS %:    1.36864   MPKI: 2.10197
L1D RFO       ACCESS:   23419492  HIT:   23298700  MISS:     120792  HIT %:    99.4842  MISS %:   0.515775   MPKI: 0.60396
L1D PREFETCH  ACCESS:   18384212  HIT:   18134730  MISS:     249482  HIT %:     98.643  MISS %:    1.35704   MPKI: 1.24741
AGUS PREFETCH L1 MISS: 0
L1D PREFETCH  REQUESTED:   39819781  ISSUED:   39819476  USEFUL:      11452  USELESS:     238017
L1D USEFUL LOAD PREFETCHES:      11452 PREFETCH ISSUED TO LOWER LEVEL:     286320  ACCURACY: 3.99972
L1D TIMELY PREFETCHES:      11452 LATE PREFETCHES: 36838 DROPPED PREFETCHES: 53250
L1D PREFETCHES SAME FILL-ORIGIN LEVEL: 286320 DIFFERENT FILL-ORIGIN LEVEL: 0
L1D AVERAGE MISS LATENCY: 8.0148e+06 cycles
L1D RQ	ACCESS:   49483811	FORWARD:          0	MERGED:   18523295	TO_CACHE:   30841577
L1D WQ	ACCESS:   24124410	FORWARD:     200042	MERGED:     257323	TO_CACHE:   23867087
L1D PQ	ACCESS:   21250057	FORWARD:          0	MERGED:    2599535	TO_CACHE:   18569419

L1D UNIQUE REGIONS ACCESSED: 0
L1D REGIONS CONFLICTS: 0
L1D Cross Page Prefetch Requests: 16418926
L1D Same Page Prefetch Requests: 7151796
L1D ROI Sum of L1D PQ occupancy: 258591961
L1D PREFETCHES PUSHED FROM L2C: 0
L1I TOTAL     ACCESS:   38045223  HIT:   37437762  MISS:     607461  HIT %:    98.4033  MISS %:    1.59668   MPKI: 3.0373
L1I LOAD      ACCESS:   38045223  HIT:   37437762  MISS:     607461  HIT %:    98.4033  MISS %:    1.59668   MPKI: 3.0373
L1I PREFETCH  REQUESTED:          0  ISSUED:          0  USEFUL:          0  USELESS:          0
L1I USEFUL LOAD PREFETCHES:          0 PREFETCH ISSUED TO LOWER LEVEL:          0  ACCURACY: -nan
L1I TIMELY PREFETCHES:          0 LATE PREFETCHES: 0 DROPPED PREFETCHES: 0
L1I PREFETCHES SAME FILL-ORIGIN LEVEL: 0 DIFFERENT FILL-ORIGIN LEVEL: 0
L1I AVERAGE MISS LATENCY: 16.4593 cycles
L1I RQ	ACCESS:   60441867	FORWARD:          0	MERGED:   22212483	TO_CACHE:   38229384

BTB TOTAL     ACCESS:   29347733  HIT:   27692669  MISS:    1655064  HIT %:    94.3605  MISS %:     5.6395   MPKI: 8.27532
BTB BRANCH_DIRECT_JUMP	ACCESS:    2290071  HIT:    2288950  MISS:       1121
BTB BRANCH_INDIRECT	ACCESS:   12563222  HIT:   12018859  MISS:     544363
BTB BRANCH_CONDITIONAL	ACCESS:    6926945  HIT:    6925297  MISS:       1648
BTB BRANCH_DIRECT_CALL	ACCESS:    3333321  HIT:    3330170  MISS:       3151
BTB BRANCH_INDIRECT_CALL	ACCESS:     450445  HIT:     256847  MISS:     193598
BTB BRANCH_RETURN	ACCESS:    3783729  HIT:    2872546  MISS:     911183
BTB BRANCH_OTHER ACCESS:          0  HIT:          0  MISS:          0

L2C TOTAL     ACCESS:    1755609  HIT:    1280771  MISS:     474838  HIT %:    72.9531  MISS %:    27.0469   MPKI: 2.37419
L2C LOAD      ACCESS:     990341  HIT:     669571  MISS:     320770  HIT %:    67.6101  MISS %:    32.3899   MPKI: 1.60385
L2C DATA LOAD MPKI: 1.43714
L2C INSTRUCTION LOAD MPKI: 0.166705
L2C RFO       ACCESS:     118853  HIT:      14347  MISS:     104506  HIT %:    12.0712  MISS %:    87.9288   MPKI: 0.52253
L2C PREFETCH  ACCESS:     286264  HIT:     266866  MISS:      19398  HIT %:    93.2237  MISS %:    6.77626   MPKI: 0.09699
AGUS PREFETCH L1 MISS: 0
L2C DATA PREFETCH MPKI: 0.09699
L2C INSTRUCTION PREFETCH MPKI: 0
L2C WRITEBACK ACCESS:     166209  HIT:     160632  MISS:       5577  HIT %:    96.6446  MISS %:    3.35541   MPKI: 0.027885
L2C LOAD TRANSLATION ACCESS:     122517  HIT:      98506  MISS:      24011  HIT %:    80.4019  MISS %:    19.5981   MPKI: 0.120055
L2C TRANSLATION FROM L1D PREFETCHER ACCESS:      71425  HIT:      70849  MISS:        576  HIT %:    99.1936  MISS %:    0.80644   MPKI: 0.00288
L2C PREFETCH  REQUESTED:          0  ISSUED:          0  USEFUL:       1101  USELESS:      18926
L2C USEFUL LOAD PREFETCHES:       1101 PREFETCH ISSUED TO LOWER LEVEL:      19398  ACCURACY: 5.67584
L2C TIMELY PREFETCHES:       1101 LATE PREFETCHES: 0 DROPPED PREFETCHES: 0
L2C PREFETCHES SAME FILL-ORIGIN LEVEL: 0 DIFFERENT FILL-ORIGIN LEVEL: 0
L2C AVERAGE MISS LATENCY: 108.411 cycles
L2C RQ	ACCESS:    1305751	FORWARD:          0	MERGED:          0	TO_CACHE:    1303136
L2C WQ	ACCESS:     166209	FORWARD:       2671	MERGED:          0	TO_CACHE:     166209
L2C PQ	ACCESS:     286320	FORWARD:          0	MERGED:          0	TO_CACHE:     286264

L2C Instructions Evicting Data 29727
L2C Translations Evicting Data 21332
L2C Data Evicting Data 360662
L2C Instructions Evicting Instructions 1939
L2C Translations Evicting Instructions 1769
L2C Data Evicting Instructions 29888
L2C Instructions Evicting Translations 1675
L2C Translations Evicting Translations 1486
L2C Data Evicting Translations 20783
L2C Dense regions hint from L2: 0
PSCL5 TOTAL     ACCESS:     134114  HIT:     134114  MISS:          0  HIT %:        100  MISS %:          0   MPKI: 0
PSCL5 LOAD TRANSLATION ACCESS:      85345  HIT:      85345  MISS:          0  HIT %:        100  MISS %:          0   MPKI: 0
PSCL5 TRANSLATION FROM L1D PREFETCHER ACCESS:      48769  HIT:      48769  MISS:          0  HIT %:        100  MISS %:          0   MPKI: 0
PSCL5 PREFETCH  REQUESTED:          0  ISSUED:          0  USEFUL:          0  USELESS:          0
PSCL5 USEFUL LOAD PREFETCHES:          0 PREFETCH ISSUED TO LOWER LEVEL:          0  ACCURACY: -nan
PSCL5 TIMELY PREFETCHES:          0 LATE PREFETCHES: 0 DROPPED PREFETCHES: 0
PSCL5 PREFETCHES SAME FILL-ORIGIN LEVEL: 0 DIFFERENT FILL-ORIGIN LEVEL: 0

PSCL4 TOTAL     ACCESS:     130398  HIT:     130271  MISS:        127  HIT %:    99.9026  MISS %:  0.0973941   MPKI: 0.000635
PSCL4 LOAD TRANSLATION ACCESS:      83131  HIT:      83004  MISS:        127  HIT %:    99.8472  MISS %:   0.152771   MPKI: 0.000635
PSCL4 TRANSLATION FROM L1D PREFETCHER ACCESS:      47267  HIT:      47267  MISS:          0  HIT %:        100  MISS %:          0   MPKI: 0
PSCL4 PREFETCH  REQUESTED:          0  ISSUED:          0  USEFUL:          0  USELESS:          0
PSCL4 USEFUL LOAD PREFETCHES:          0 PREFETCH ISSUED TO LOWER LEVEL:          0  ACCURACY: -nan
PSCL4 TIMELY PREFETCHES:          0 LATE PREFETCHES: 0 DROPPED PREFETCHES: 0
PSCL4 PREFETCHES SAME FILL-ORIGIN LEVEL: 0 DIFFERENT FILL-ORIGIN LEVEL: 0

PSCL3 TOTAL     ACCESS:     120716  HIT:     120357  MISS:        359  HIT %:    99.7026  MISS %:   0.297392   MPKI: 0.001795
PSCL3 LOAD TRANSLATION ACCESS:      84964  HIT:      84605  MISS:        359  HIT %:    99.5775  MISS %:   0.422532   MPKI: 0.001795
PSCL3 TRANSLATION FROM L1D PREFETCHER ACCESS:      35752  HIT:      35752  MISS:          0  HIT %:        100  MISS %:          0   MPKI: 0
PSCL3 PREFETCH  REQUESTED:          0  ISSUED:          0  USEFUL:          0  USELESS:          0
PSCL3 USEFUL LOAD PREFETCHES:          0 PREFETCH ISSUED TO LOWER LEVEL:          0  ACCURACY: -nan
PSCL3 TIMELY PREFETCHES:          0 LATE PREFETCHES: 0 DROPPED PREFETCHES: 0
PSCL3 PREFETCHES SAME FILL-ORIGIN LEVEL: 0 DIFFERENT FILL-ORIGIN LEVEL: 0

PSCL2 TOTAL     ACCESS:      87885  HIT:      51149  MISS:      36736  HIT %:    58.1999  MISS %:    41.8001   MPKI: 0.18368
PSCL2 LOAD TRANSLATION ACCESS:      85387  HIT:      48651  MISS:      36736  HIT %:    56.9771  MISS %:    43.0229   MPKI: 0.18368
PSCL2 TRANSLATION FROM L1D PREFETCHER ACCESS:       2498  HIT:       2498  MISS:          0  HIT %:        100  MISS %:          0   MPKI: 0
PSCL2 PREFETCH  REQUESTED:          0  ISSUED:          0  USEFUL:          0  USELESS:          0
PSCL2 USEFUL LOAD PREFETCHES:          0 PREFETCH ISSUED TO LOWER LEVEL:          0  ACCURACY: -nan
PSCL2 TIMELY PREFETCHES:          0 LATE PREFETCHES: 0 DROPPED PREFETCHES: 0
PSCL2 PREFETCHES SAME FILL-ORIGIN LEVEL: 0 DIFFERENT FILL-ORIGIN LEVEL: 0

LLC TOTAL     ACCESS:     607717  HIT:     365854  MISS:     241863  HIT %:    60.2014  MISS %:    39.7986   MPKI: 1.20931
LLC LOAD      ACCESS:     320770  HIT:     121926  MISS:     198844  HIT %:    38.0104  MISS %:    61.9896   MPKI: 0.99422
LLC RFO       ACCESS:     104506  HIT:      74750  MISS:      29756  HIT %:     71.527  MISS %:     28.473   MPKI: 0.14878
LLC PREFETCH  ACCESS:      19398  HIT:       9462  MISS:       9936  HIT %:    48.7782  MISS %:    51.2218   MPKI: 0.04968
AGUS PREFETCH L1 MISS: 0
LLC WRITEBACK ACCESS:     138456  HIT:     137107  MISS:       1349  HIT %:    99.0257  MISS %:   0.974317   MPKI: 0.006745
LLC LOAD TRANSLATION ACCESS:      24011  HIT:      22184  MISS:       1827  HIT %:     92.391  MISS %:    7.60901   MPKI: 0.009135
LLC TRANSLATION FROM L1D PREFETCHER ACCESS:        576  HIT:        425  MISS:        151  HIT %:    73.7847  MISS %:    26.2153   MPKI: 0.000755
LLC PREFETCH  REQUESTED:          0  ISSUED:          0  USEFUL:        309  USELESS:      10366
LLC USEFUL LOAD PREFETCHES:        309 PREFETCH ISSUED TO LOWER LEVEL:       9936  ACCURACY: 3.1099
LLC TIMELY PREFETCHES:        309 LATE PREFETCHES: 0 DROPPED PREFETCHES: 0
LLC PREFETCHES SAME FILL-ORIGIN LEVEL: 0 DIFFERENT FILL-ORIGIN LEVEL: 0
LLC AVERAGE MISS LATENCY: 154.628 cycles
LLC RQ	ACCESS:     449863	FORWARD:          0	MERGED:          0	TO_CACHE:     449863
LLC WQ	ACCESS:     138456	FORWARD:          0	MERGED:          0	TO_CACHE:     138456
LLC PQ	ACCESS:      19398	FORWARD:          0	MERGED:          0	TO_CACHE:      19398

LLC Dense regions hint to LLC: 0

RAW hits: 2379141
Loads Generated: 51862954
Loads sent to L1D: 49483811
Stores Generated: 24124397
Stores sent to L1D: 24124410
Major fault: 0 Minor fault: 6082
Allocated PAGES: 6082
Completed 

DRAM Statistics
 CHANNEL 0
 RQ ROW_BUFFER_HIT:      49730  ROW_BUFFER_MISS:     190770
 DBUS_CONGESTED:        160
 WQ ROW_BUFFER_HIT:       7662  ROW_BUFFER_MISS:      31847  FULL:          0

 AVG_CONGESTED_CYCLE: 5
 All warmup complete: 2
Channel 0 Bank busy for read cycles: 0
Channel 0 Bank busy for write cycles: 0
Channel 0
Rank 0
0banks busy for read cycles: 247308924
0banks busy for write cycles: 24017
1banks busy for read cycles: 21705784
1banks busy for write cycles: 4254697
2banks busy for read cycles: 1232869
2banks busy for write cycles: 487894
3banks busy for read cycles: 440474
3banks busy for write cycles: 132346
4banks busy for read cycles: 287570
4banks busy for write cycles: 91428
5banks busy for read cycles: 221463
5banks busy for write cycles: 79972
6banks busy for read cycles: 197675
6banks busy for write cycles: 81406
7banks busy for read cycles: 152732
7banks busy for write cycles: 75595
8banks busy for read cycles: 137187
8banks busy for write cycles: 83229

CPU 0 Branch Prediction Accuracy: 99.7868% MPKI: 0.389745 Average ROB Occupancy at Mispredict: 19.6092
Branch types
NOT_BRANCH: 163431817 81.7159%
BRANCH_DIRECT_JUMP: 2290071 1.14504%
BRANCH_INDIRECT: 12563222 6.28161%
BRANCH_CONDITIONAL: 14147089 7.07354%
BRANCH_DIRECT_CALL: 3333321 1.66666%
BRANCH_INDIRECT_CALL: 450445 0.225222%
BRANCH_RETURN: 3783729 1.89186%
BRANCH_OTHER: 0 0%

DRAM PAGES: 1048576
Allocated PAGES: 6082
