
*** ChampSim Multicore Out-of-Order Simulator ***

Warmup Instructions: 50000000
Simulation Instructions: 200000000
Number of CPUs: 1
LLC sets: 2048
LLC ways: 16
Off-chip DRAM Size: 4096 MB Channels: 1 Width: 64-bit Data Rate: 6400 MT/s
CPU 0 runs traces/spec2k17/srv_62.champsimtrace.xz
.xz
BTB has LRU replacement policy
ITLB has LRU replacement policy
DTLB has LRU replacement policy
STLB has LRU replacement policy
L1I has LRU replacement policy
L1D has LRU replacement policy
Initialize SRRIP state for L2C
Initialize DRRIP state for LLC
Heartbeat CPU 0 instructions: 10000003 cycles: 2772043 heartbeat IPC: 3.60745 cumulative IPC: 3.60745 (Simulation time: 0 hr 0 min 35 sec) 
Heartbeat CPU 0 instructions: 20000001 cycles: 5538785 heartbeat IPC: 3.61436 cumulative IPC: 3.6109 (Simulation time: 0 hr 1 min 9 sec) 
Heartbeat CPU 0 instructions: 30000000 cycles: 8304409 heartbeat IPC: 3.61582 cumulative IPC: 3.61254 (Simulation time: 0 hr 1 min 43 sec) 
*** Reached end of trace for Core: 0 Repeating trace: traces/spec2k17/srv_62.champsimtrace.xz
Heartbeat CPU 0 instructions: 40000000 cycles: 11071028 heartbeat IPC: 3.61452 cumulative IPC: 3.61303 (Simulation time: 0 hr 2 min 13 sec) 
Heartbeat CPU 0 instructions: 50000003 cycles: 13839410 heartbeat IPC: 3.61222 cumulative IPC: 3.61287 (Simulation time: 0 hr 2 min 48 sec) 

Warmup complete CPU 0 instructions: 50000003 cycles: 13839410 (Simulation time: 0 hr 2 min 48 sec) 

Heartbeat CPU 0 instructions: 60000002 cycles: 35738642 heartbeat IPC: 0.456637 cumulative IPC: 0.456637 (Simulation time: 0 hr 3 min 28 sec) 
*** Reached end of trace for Core: 0 Repeating trace: traces/spec2k17/srv_62.champsimtrace.xz
Heartbeat CPU 0 instructions: 70000002 cycles: 57748385 heartbeat IPC: 0.454344 cumulative IPC: 0.455488 (Simulation time: 0 hr 4 min 6 sec) 
Heartbeat CPU 0 instructions: 80000000 cycles: 79976240 heartbeat IPC: 0.449886 cumulative IPC: 0.453605 (Simulation time: 0 hr 4 min 43 sec) 
Heartbeat CPU 0 instructions: 90000000 cycles: 101815959 heartbeat IPC: 0.457881 cumulative IPC: 0.454667 (Simulation time: 0 hr 5 min 19 sec) 
*** Reached end of trace for Core: 0 Repeating trace: traces/spec2k17/srv_62.champsimtrace.xz
Heartbeat CPU 0 instructions: 100000002 cycles: 123461000 heartbeat IPC: 0.462 cumulative IPC: 0.456115 (Simulation time: 0 hr 5 min 55 sec) 
Heartbeat CPU 0 instructions: 110000000 cycles: 145820907 heartbeat IPC: 0.447229 cumulative IPC: 0.454609 (Simulation time: 0 hr 6 min 31 sec) 
Heartbeat CPU 0 instructions: 120000000 cycles: 167847673 heartbeat IPC: 0.453993 cumulative IPC: 0.454521 (Simulation time: 0 hr 7 min 7 sec) 
*** Reached end of trace for Core: 0 Repeating trace: traces/spec2k17/srv_62.champsimtrace.xz
Heartbeat CPU 0 instructions: 130000002 cycles: 189288537 heartbeat IPC: 0.466399 cumulative IPC: 0.455973 (Simulation time: 0 hr 7 min 43 sec) 
Heartbeat CPU 0 instructions: 140000001 cycles: 211572257 heartbeat IPC: 0.448758 cumulative IPC: 0.45516 (Simulation time: 0 hr 8 min 19 sec) 
Heartbeat CPU 0 instructions: 150000000 cycles: 233738646 heartbeat IPC: 0.451133 cumulative IPC: 0.454754 (Simulation time: 0 hr 8 min 55 sec) 
*** Reached end of trace for Core: 0 Repeating trace: traces/spec2k17/srv_62.champsimtrace.xz
Heartbeat CPU 0 instructions: 160000000 cycles: 255023221 heartbeat IPC: 0.469824 cumulative IPC: 0.456084 (Simulation time: 0 hr 9 min 31 sec) 
Heartbeat CPU 0 instructions: 170000001 cycles: 277139945 heartbeat IPC: 0.452147 cumulative IPC: 0.455753 (Simulation time: 0 hr 10 min 7 sec) 
Heartbeat CPU 0 instructions: 180000001 cycles: 299556889 heartbeat IPC: 0.446091 cumulative IPC: 0.454995 (Simulation time: 0 hr 10 min 43 sec) 
*** Reached end of trace for Core: 0 Repeating trace: traces/spec2k17/srv_62.champsimtrace.xz
Heartbeat CPU 0 instructions: 190000000 cycles: 320857827 heartbeat IPC: 0.469463 cumulative IPC: 0.455999 (Simulation time: 0 hr 11 min 19 sec) 
Heartbeat CPU 0 instructions: 200000002 cycles: 343118952 heartbeat IPC: 0.449214 cumulative IPC: 0.45554 (Simulation time: 0 hr 11 min 55 sec) 
Heartbeat CPU 0 instructions: 210000000 cycles: 365239360 heartbeat IPC: 0.452071 cumulative IPC: 0.455322 (Simulation time: 0 hr 12 min 31 sec) 
*** Reached end of trace for Core: 0 Repeating trace: traces/spec2k17/srv_62.champsimtrace.xz
Heartbeat CPU 0 instructions: 220000000 cycles: 386614933 heartbeat IPC: 0.467824 cumulative IPC: 0.456039 (Simulation time: 0 hr 13 min 5 sec) 
Heartbeat CPU 0 instructions: 230000002 cycles: 408817105 heartbeat IPC: 0.450406 cumulative IPC: 0.455722 (Simulation time: 0 hr 13 min 40 sec) 
Heartbeat CPU 0 instructions: 240000003 cycles: 430694821 heartbeat IPC: 0.457086 cumulative IPC: 0.455794 (Simulation time: 0 hr 14 min 15 sec) 
*** Reached end of trace for Core: 0 Repeating trace: traces/spec2k17/srv_62.champsimtrace.xz
Heartbeat CPU 0 instructions: 250000003 cycles: 452329412 heartbeat IPC: 0.462223 cumulative IPC: 0.456111 (Simulation time: 0 hr 14 min 48 sec) 
Finished CPU 0 instructions: 200000000 cycles: 438490002 cumulative IPC: 0.456111 (Simulation time: 0 hr 14 min 48 sec) 

ChampSim completed all CPUs

Region of Interest Statistics

CPU 0 cumulative IPC: 0.456111 instructions: 200000000 cycles: 438490002
ITLB TOTAL     ACCESS:   31575410  HIT:   30800656  MISS:     774754  HIT %:    97.5463  MISS %:    2.45366   MPKI: 3.87377
ITLB LOAD TRANSLATION ACCESS:   31575410  HIT:   30800656  MISS:     774754  HIT %:    97.5463  MISS %:    2.45366   MPKI: 3.87377
ITLB PREFETCH  REQUESTED:          0  ISSUED:          0  USEFUL:          0  USELESS:          0
ITLB USEFUL LOAD PREFETCHES:          0 PREFETCH ISSUED TO LOWER LEVEL:          0  ACCURACY: -nan
ITLB TIMELY PREFETCHES:          0 LATE PREFETCHES: 0 DROPPED PREFETCHES: 0
ITLB PREFETCHES SAME FILL-ORIGIN LEVEL: 0 DIFFERENT FILL-ORIGIN LEVEL: 0
ITLB AVERAGE MISS LATENCY: 13.6528 cycles
ITLB RQ	ACCESS:   38437190	FORWARD:          0	MERGED:    6667564	TO_CACHE:   31769626

DTLB TOTAL     ACCESS:   37059044  HIT:   34491759  MISS:    2567285  HIT %:    93.0724  MISS %:    6.92755   MPKI: 12.8364
DTLB LOAD TRANSLATION ACCESS:   37059044  HIT:   34491759  MISS:    2567285  HIT %:    93.0724  MISS %:    6.92755   MPKI: 12.8364
DTLB PREFETCH  REQUESTED:          0  ISSUED:          0  USEFUL:          0  USELESS:          0
DTLB USEFUL LOAD PREFETCHES:          0 PREFETCH ISSUED TO LOWER LEVEL:          0  ACCURACY: -nan
DTLB TIMELY PREFETCHES:          0 LATE PREFETCHES: 0 DROPPED PREFETCHES: 0
DTLB PREFETCHES SAME FILL-ORIGIN LEVEL: 0 DIFFERENT FILL-ORIGIN LEVEL: 0
DTLB AVERAGE MISS LATENCY: 13.218 cycles
DTLB RQ	ACCESS:   47611387	FORWARD:          0	MERGED:   10407235	TO_CACHE:   37204152

STLB TOTAL     ACCESS:    9199040  HIT:    8856652  MISS:     342388  HIT %:     96.278  MISS %:      3.722   MPKI: 1.71194
STLB LOAD TRANSLATION ACCESS:    3342039  HIT:    3002870  MISS:     339169  HIT %:    89.8514  MISS %:    10.1486   MPKI: 1.69585
STLB TRANSLATION FROM L1D PREFETCHER ACCESS:    5857001  HIT:    5853782  MISS:       3219  HIT %:     99.945  MISS %:  0.0549599   MPKI: 0.016095
STLB PREFETCH  REQUESTED:          0  ISSUED:          0  USEFUL:       2584  USELESS:        632
STLB USEFUL LOAD PREFETCHES:       2584 PREFETCH ISSUED TO LOWER LEVEL:          0  ACCURACY: inf
STLB TIMELY PREFETCHES:       2584 LATE PREFETCHES: 530 DROPPED PREFETCHES: 124021
STLB PREFETCHES SAME FILL-ORIGIN LEVEL: 0 DIFFERENT FILL-ORIGIN LEVEL: 0
STLB AVERAGE MISS LATENCY: 44.6072 cycles
STLB RQ	ACCESS:   11010455	FORWARD:          0	MERGED:    1686313	TO_CACHE:    9324142

STLB Hit, L1D data hit: 0
STLB Hit, L2C data hit: 0
STLB Hit, LLC data hit: 0
STLB Hit, LLC data miss: 0
STLB STLB hints to L2: 0
L1D TOTAL     ACCESS:   54530620  HIT:   52042344  MISS:    2488276  HIT %:    95.4369  MISS %:    4.56308   MPKI: 12.4414
L1D LOAD      ACCESS:   27513421  HIT:   25453041  MISS:    2060380  HIT %:    92.5114  MISS %:    7.48864   MPKI: 10.3019
L1D RFO       ACCESS:   19577436  HIT:   19244882  MISS:     332554  HIT %:    98.3013  MISS %:    1.69866   MPKI: 1.66277
L1D PREFETCH  ACCESS:    7439763  HIT:    7344421  MISS:      95342  HIT %:    98.7185  MISS %:    1.28152   MPKI: 0.47671
AGUS PREFETCH L1 MISS: 0
L1D PREFETCH  REQUESTED:   16149017  ISSUED:   16148558  USEFUL:      60320  USELESS:      35015
L1D USEFUL LOAD PREFETCHES:      60320 PREFETCH ISSUED TO LOWER LEVEL:     120922  ACCURACY: 49.8834
L1D TIMELY PREFETCHES:      60320 LATE PREFETCHES: 25377 DROPPED PREFETCHES: 156584
L1D PREFETCHES SAME FILL-ORIGIN LEVEL: 120922 DIFFERENT FILL-ORIGIN LEVEL: 0
L1D AVERAGE MISS LATENCY: 3.03472e+06 cycles
L1D RQ	ACCESS:   42148062	FORWARD:          0	MERGED:   14265058	TO_CACHE:   27638702
L1D WQ	ACCESS:   20274529	FORWARD:     309439	MERGED:     301844	TO_CACHE:   19972685
L1D PQ	ACCESS:    8480142	FORWARD:          0	MERGED:     746589	TO_CACHE:    7668416

L1D UNIQUE REGIONS ACCESSED: 0
L1D REGIONS CONFLICTS: 0
L1D Cross Page Prefetch Requests: 6941004
L1D Same Page Prefetch Requests: 2578896
L1D ROI Sum of L1D PQ occupancy: 115090714
L1D PREFETCHES PUSHED FROM L2C: 0
L1I TOTAL     ACCESS:   36636564  HIT:   31507282  MISS:    5129282  HIT %:    85.9996  MISS %:    14.0004   MPKI: 25.6464
L1I LOAD      ACCESS:   36636564  HIT:   31507282  MISS:    5129282  HIT %:    85.9996  MISS %:    14.0004   MPKI: 25.6464
L1I PREFETCH  REQUESTED:          0  ISSUED:          0  USEFUL:          0  USELESS:          0
L1I USEFUL LOAD PREFETCHES:          0 PREFETCH ISSUED TO LOWER LEVEL:          0  ACCURACY: -nan
L1I TIMELY PREFETCHES:          0 LATE PREFETCHES: 0 DROPPED PREFETCHES: 0
L1I PREFETCHES SAME FILL-ORIGIN LEVEL: 0 DIFFERENT FILL-ORIGIN LEVEL: 0
L1I AVERAGE MISS LATENCY: 25.0371 cycles
L1I RQ	ACCESS:   57312709	FORWARD:          0	MERGED:   18875519	TO_CACHE:   38437190

BTB TOTAL     ACCESS:   22279888  HIT:   17885763  MISS:    4394125  HIT %:    80.2776  MISS %:    19.7224   MPKI: 21.9706
BTB BRANCH_DIRECT_JUMP	ACCESS:    1742966  HIT:    1496509  MISS:     246457
BTB BRANCH_INDIRECT	ACCESS:    9461254  HIT:    7317397  MISS:    2143857
BTB BRANCH_CONDITIONAL	ACCESS:    4743514  HIT:    4337322  MISS:     406192
BTB BRANCH_DIRECT_CALL	ACCESS:    2483118  HIT:    2001034  MISS:     482084
BTB BRANCH_INDIRECT_CALL	ACCESS:     682660  HIT:     643233  MISS:      39427
BTB BRANCH_RETURN	ACCESS:    3166376  HIT:    2090268  MISS:    1076108
BTB BRANCH_OTHER ACCESS:          0  HIT:          0  MISS:          0

L2C TOTAL     ACCESS:    9233588  HIT:    6143026  MISS:    3090562  HIT %:    66.5291  MISS %:    33.4709   MPKI: 15.4528
L2C LOAD      ACCESS:    7164246  HIT:    4470622  MISS:    2693624  HIT %:    62.4018  MISS %:    37.5982   MPKI: 13.4681
L2C DATA LOAD MPKI: 4.42931
L2C INSTRUCTION LOAD MPKI: 9.03881
L2C RFO       ACCESS:     332351  HIT:     198126  MISS:     134225  HIT %:    59.6135  MISS %:    40.3865   MPKI: 0.671125
L2C PREFETCH  ACCESS:     120883  HIT:      93491  MISS:      27392  HIT %:    77.3401  MISS %:    22.6599   MPKI: 0.13696
AGUS PREFETCH L1 MISS: 0
L2C DATA PREFETCH MPKI: 0.13696
L2C INSTRUCTION PREFETCH MPKI: 0
L2C WRITEBACK ACCESS:    1015295  HIT:     966050  MISS:      49245  HIT %:    95.1497  MISS %:    4.85031   MPKI: 0.246225
L2C LOAD TRANSLATION ACCESS:     446326  HIT:     276386  MISS:     169940  HIT %:    61.9247  MISS %:    38.0753   MPKI: 0.8497
L2C TRANSLATION FROM L1D PREFETCHER ACCESS:     154487  HIT:     138351  MISS:      16136  HIT %:    89.5551  MISS %:    10.4449   MPKI: 0.08068
L2C PREFETCH  REQUESTED:          0  ISSUED:          0  USEFUL:      12270  USELESS:      31235
L2C USEFUL LOAD PREFETCHES:      12270 PREFETCH ISSUED TO LOWER LEVEL:      27392  ACCURACY: 44.7941
L2C TIMELY PREFETCHES:      12270 LATE PREFETCHES: 0 DROPPED PREFETCHES: 0
L2C PREFETCHES SAME FILL-ORIGIN LEVEL: 0 DIFFERENT FILL-ORIGIN LEVEL: 0
L2C AVERAGE MISS LATENCY: 44.1956 cycles
L2C RQ	ACCESS:    8097449	FORWARD:          0	MERGED:          0	TO_CACHE:    8097410
L2C WQ	ACCESS:    1015295	FORWARD:         78	MERGED:          0	TO_CACHE:    1015295
L2C PQ	ACCESS:     120922	FORWARD:          0	MERGED:          0	TO_CACHE:     120883

L2C Instructions Evicting Data 630164
L2C Translations Evicting Data 66329
L2C Data Evicting Data 382890
L2C Instructions Evicting Instructions 1070767
L2C Translations Evicting Instructions 107855
L2C Data Evicting Instructions 599690
L2C Instructions Evicting Translations 106832
L2C Translations Evicting Translations 11892
L2C Data Evicting Translations 64898
L2C Dense regions hint from L2: 0
PSCL5 TOTAL     ACCESS:     460302  HIT:     460302  MISS:          0  HIT %:        100  MISS %:          0   MPKI: 0
PSCL5 LOAD TRANSLATION ACCESS:     338639  HIT:     338639  MISS:          0  HIT %:        100  MISS %:          0   MPKI: 0
PSCL5 TRANSLATION FROM L1D PREFETCHER ACCESS:     121663  HIT:     121663  MISS:          0  HIT %:        100  MISS %:          0   MPKI: 0
PSCL5 PREFETCH  REQUESTED:          0  ISSUED:          0  USEFUL:          0  USELESS:          0
PSCL5 USEFUL LOAD PREFETCHES:          0 PREFETCH ISSUED TO LOWER LEVEL:          0  ACCURACY: -nan
PSCL5 TIMELY PREFETCHES:          0 LATE PREFETCHES: 0 DROPPED PREFETCHES: 0
PSCL5 PREFETCHES SAME FILL-ORIGIN LEVEL: 0 DIFFERENT FILL-ORIGIN LEVEL: 0

PSCL4 TOTAL     ACCESS:     383432  HIT:     383118  MISS:        314  HIT %:    99.9181  MISS %:   0.081892   MPKI: 0.00157
PSCL4 LOAD TRANSLATION ACCESS:     283120  HIT:     282806  MISS:        314  HIT %:    99.8891  MISS %:   0.110907   MPKI: 0.00157
PSCL4 TRANSLATION FROM L1D PREFETCHER ACCESS:     100312  HIT:     100312  MISS:          0  HIT %:        100  MISS %:          0   MPKI: 0
PSCL4 PREFETCH  REQUESTED:          0  ISSUED:          0  USEFUL:          0  USELESS:          0
PSCL4 USEFUL LOAD PREFETCHES:          0 PREFETCH ISSUED TO LOWER LEVEL:          0  ACCURACY: -nan
PSCL4 TIMELY PREFETCHES:          0 LATE PREFETCHES: 0 DROPPED PREFETCHES: 0
PSCL4 PREFETCHES SAME FILL-ORIGIN LEVEL: 0 DIFFERENT FILL-ORIGIN LEVEL: 0

PSCL3 TOTAL     ACCESS:     434696  HIT:     433756  MISS:        940  HIT %:    99.7838  MISS %:   0.216243   MPKI: 0.0047
PSCL3 LOAD TRANSLATION ACCESS:     337467  HIT:     336527  MISS:        940  HIT %:    99.7215  MISS %:   0.278546   MPKI: 0.0047
PSCL3 TRANSLATION FROM L1D PREFETCHER ACCESS:      97229  HIT:      97229  MISS:          0  HIT %:        100  MISS %:          0   MPKI: 0
PSCL3 PREFETCH  REQUESTED:          0  ISSUED:          0  USEFUL:          0  USELESS:          0
PSCL3 USEFUL LOAD PREFETCHES:          0 PREFETCH ISSUED TO LOWER LEVEL:          0  ACCURACY: -nan
PSCL3 TIMELY PREFETCHES:          0 LATE PREFETCHES: 0 DROPPED PREFETCHES: 0
PSCL3 PREFETCHES SAME FILL-ORIGIN LEVEL: 0 DIFFERENT FILL-ORIGIN LEVEL: 0

PSCL2 TOTAL     ACCESS:     363318  HIT:     254932  MISS:     108386  HIT %:    70.1677  MISS %:    29.8323   MPKI: 0.54193
PSCL2 LOAD TRANSLATION ACCESS:     340589  HIT:     232203  MISS:     108386  HIT %:    68.1769  MISS %:    31.8231   MPKI: 0.54193
PSCL2 TRANSLATION FROM L1D PREFETCHER ACCESS:      22729  HIT:      22729  MISS:          0  HIT %:        100  MISS %:          0   MPKI: 0
PSCL2 PREFETCH  REQUESTED:          0  ISSUED:          0  USEFUL:          0  USELESS:          0
PSCL2 USEFUL LOAD PREFETCHES:          0 PREFETCH ISSUED TO LOWER LEVEL:          0  ACCURACY: -nan
PSCL2 TIMELY PREFETCHES:          0 LATE PREFETCHES: 0 DROPPED PREFETCHES: 0
PSCL2 PREFETCHES SAME FILL-ORIGIN LEVEL: 0 DIFFERENT FILL-ORIGIN LEVEL: 0

LLC TOTAL     ACCESS:    3447799  HIT:    3148405  MISS:     299394  HIT %:    91.3164  MISS %:    8.68363   MPKI: 1.49697
LLC LOAD      ACCESS:    2693617  HIT:    2458120  MISS:     235497  HIT %:    91.2572  MISS %:    8.74278   MPKI: 1.17748
LLC RFO       ACCESS:     134225  HIT:      87445  MISS:      46780  HIT %:    65.1481  MISS %:    34.8519   MPKI: 0.2339
LLC PREFETCH  ACCESS:      27389  HIT:      23694  MISS:       3695  HIT %:    86.5092  MISS %:    13.4908   MPKI: 0.018475
AGUS PREFETCH L1 MISS: 0
LLC WRITEBACK ACCESS:     406492  HIT:     404416  MISS:       2076  HIT %:    99.4893  MISS %:   0.510711   MPKI: 0.01038
LLC LOAD TRANSLATION ACCESS:     169940  HIT:     159412  MISS:      10528  HIT %:    93.8049  MISS %:    6.19513   MPKI: 0.05264
LLC TRANSLATION FROM L1D PREFETCHER ACCESS:      16136  HIT:      15318  MISS:        818  HIT %:    94.9306  MISS %:    5.06941   MPKI: 0.00409
LLC PREFETCH  REQUESTED:          0  ISSUED:          0  USEFUL:       1046  USELESS:       3274
LLC USEFUL LOAD PREFETCHES:       1046 PREFETCH ISSUED TO LOWER LEVEL:       3695  ACCURACY: 28.3085
LLC TIMELY PREFETCHES:       1046 LATE PREFETCHES: 0 DROPPED PREFETCHES: 0
LLC PREFETCHES SAME FILL-ORIGIN LEVEL: 0 DIFFERENT FILL-ORIGIN LEVEL: 0
LLC AVERAGE MISS LATENCY: 151.469 cycles
LLC RQ	ACCESS:    3013925	FORWARD:          0	MERGED:          0	TO_CACHE:    3013918
LLC WQ	ACCESS:     406492	FORWARD:         10	MERGED:          0	TO_CACHE:     406492
LLC PQ	ACCESS:      27392	FORWARD:          0	MERGED:          0	TO_CACHE:      27389

LLC Dense regions hint to LLC: 0

RAW hits: 2806425
Loads Generated: 44954488
Loads sent to L1D: 42148062
Stores Generated: 20274529
Stores sent to L1D: 20274529
Major fault: 0 Minor fault: 5946
Allocated PAGES: 5946
Completed 

DRAM Statistics
 CHANNEL 0
 RQ ROW_BUFFER_HIT:      57398  ROW_BUFFER_MISS:     239920
 DBUS_CONGESTED:        194
 WQ ROW_BUFFER_HIT:      30439  ROW_BUFFER_MISS:     184504  FULL:          0

 AVG_CONGESTED_CYCLE: 4
 All warmup complete: 2
Channel 0 Bank busy for read cycles: 0
Channel 0 Bank busy for write cycles: 0
Channel 0
Rank 0
0banks busy for read cycles: 381806223
0banks busy for write cycles: 121646
1banks busy for read cycles: 27500687
1banks busy for write cycles: 17069122
2banks busy for read cycles: 3691112
2banks busy for write cycles: 4074831
3banks busy for read cycles: 486309
3banks busy for write cycles: 1377640
4banks busy for read cycles: 213094
4banks busy for write cycles: 690588
5banks busy for read cycles: 96032
5banks busy for write cycles: 414916
6banks busy for read cycles: 61537
6banks busy for write cycles: 283667
7banks busy for read cycles: 46268
7banks busy for write cycles: 242572
8banks busy for read cycles: 61421
8banks busy for write cycles: 252338

CPU 0 Branch Prediction Accuracy: 99.8413% MPKI: 0.28434 Average ROB Occupancy at Mispredict: 45.7593
Branch types
NOT_BRANCH: 164167961 82.084%
BRANCH_DIRECT_JUMP: 1742966 0.871483%
BRANCH_INDIRECT: 9461254 4.73063%
BRANCH_CONDITIONAL: 18295371 9.14769%
BRANCH_DIRECT_CALL: 2483118 1.24156%
BRANCH_INDIRECT_CALL: 682660 0.34133%
BRANCH_RETURN: 3166376 1.58319%
BRANCH_OTHER: 0 0%

DRAM PAGES: 1048576
Allocated PAGES: 5946
