
*** ChampSim Multicore Out-of-Order Simulator ***

Warmup Instructions: 50000000
Simulation Instructions: 200000000
Number of CPUs: 1
LLC sets: 2048
LLC ways: 16
Off-chip DRAM Size: 4096 MB Channels: 1 Width: 64-bit Data Rate: 6400 MT/s
CPU 0 runs traces/spec2k17/srv_70.champsimtrace.xz
.xz
BTB has LRU replacement policy
ITLB has LRU replacement policy
DTLB has LRU replacement policy
STLB has LRU replacement policy
L1I has LRU replacement policy
L1D has LRU replacement policy
Initialize SRRIP state for L2C
Initialize DRRIP state for LLC
Heartbeat CPU 0 instructions: 10000000 cycles: 2807071 heartbeat IPC: 3.56243 cumulative IPC: 3.56243 (Simulation time: 0 hr 0 min 40 sec) 
Heartbeat CPU 0 instructions: 20000000 cycles: 5613174 heartbeat IPC: 3.56366 cumulative IPC: 3.56305 (Simulation time: 0 hr 1 min 13 sec) 
Heartbeat CPU 0 instructions: 30000000 cycles: 8420816 heartbeat IPC: 3.56171 cumulative IPC: 3.5626 (Simulation time: 0 hr 1 min 49 sec) 
*** Reached end of trace for Core: 0 Repeating trace: traces/spec2k17/srv_70.champsimtrace.xz
Heartbeat CPU 0 instructions: 40000001 cycles: 11223122 heartbeat IPC: 3.56849 cumulative IPC: 3.56407 (Simulation time: 0 hr 2 min 23 sec) 
Heartbeat CPU 0 instructions: 50000003 cycles: 14028944 heartbeat IPC: 3.56402 cumulative IPC: 3.56406 (Simulation time: 0 hr 2 min 56 sec) 

Warmup complete CPU 0 instructions: 50000003 cycles: 14028944 (Simulation time: 0 hr 2 min 56 sec) 

Heartbeat CPU 0 instructions: 60000001 cycles: 44371887 heartbeat IPC: 0.329566 cumulative IPC: 0.329566 (Simulation time: 0 hr 3 min 43 sec) 
*** Reached end of trace for Core: 0 Repeating trace: traces/spec2k17/srv_70.champsimtrace.xz
Heartbeat CPU 0 instructions: 70000001 cycles: 74134975 heartbeat IPC: 0.335987 cumulative IPC: 0.332745 (Simulation time: 0 hr 4 min 23 sec) 
Heartbeat CPU 0 instructions: 80000001 cycles: 104336497 heartbeat IPC: 0.331109 cumulative IPC: 0.332198 (Simulation time: 0 hr 5 min 0 sec) 
Heartbeat CPU 0 instructions: 90000003 cycles: 134083121 heartbeat IPC: 0.336173 cumulative IPC: 0.333183 (Simulation time: 0 hr 5 min 37 sec) 
*** Reached end of trace for Core: 0 Repeating trace: traces/spec2k17/srv_70.champsimtrace.xz
Heartbeat CPU 0 instructions: 100000002 cycles: 163880556 heartbeat IPC: 0.335599 cumulative IPC: 0.333663 (Simulation time: 0 hr 6 min 14 sec) 
Heartbeat CPU 0 instructions: 110000000 cycles: 193905920 heartbeat IPC: 0.333052 cumulative IPC: 0.333561 (Simulation time: 0 hr 6 min 52 sec) 
Heartbeat CPU 0 instructions: 120000000 cycles: 223661375 heartbeat IPC: 0.336073 cumulative IPC: 0.333918 (Simulation time: 0 hr 7 min 29 sec) 
*** Reached end of trace for Core: 0 Repeating trace: traces/spec2k17/srv_70.champsimtrace.xz
Heartbeat CPU 0 instructions: 130000000 cycles: 253529680 heartbeat IPC: 0.334803 cumulative IPC: 0.334028 (Simulation time: 0 hr 8 min 6 sec) 
Heartbeat CPU 0 instructions: 140000002 cycles: 283451261 heartbeat IPC: 0.334207 cumulative IPC: 0.334048 (Simulation time: 0 hr 8 min 44 sec) 
Heartbeat CPU 0 instructions: 150000003 cycles: 313298058 heartbeat IPC: 0.335044 cumulative IPC: 0.334147 (Simulation time: 0 hr 9 min 22 sec) 
*** Reached end of trace for Core: 0 Repeating trace: traces/spec2k17/srv_70.champsimtrace.xz
Heartbeat CPU 0 instructions: 160000000 cycles: 343213083 heartbeat IPC: 0.33428 cumulative IPC: 0.334159 (Simulation time: 0 hr 10 min 0 sec) 
Heartbeat CPU 0 instructions: 170000001 cycles: 372643859 heartbeat IPC: 0.33978 cumulative IPC: 0.334621 (Simulation time: 0 hr 10 min 37 sec) 
Heartbeat CPU 0 instructions: 180000001 cycles: 402606971 heartbeat IPC: 0.333744 cumulative IPC: 0.334553 (Simulation time: 0 hr 11 min 15 sec) 
*** Reached end of trace for Core: 0 Repeating trace: traces/spec2k17/srv_70.champsimtrace.xz
Heartbeat CPU 0 instructions: 190000003 cycles: 432292292 heartbeat IPC: 0.336867 cumulative IPC: 0.334717 (Simulation time: 0 hr 11 min 52 sec) 
Heartbeat CPU 0 instructions: 200000002 cycles: 461815341 heartbeat IPC: 0.338718 cumulative IPC: 0.334981 (Simulation time: 0 hr 12 min 29 sec) 
Heartbeat CPU 0 instructions: 210000000 cycles: 491652917 heartbeat IPC: 0.335148 cumulative IPC: 0.334992 (Simulation time: 0 hr 13 min 7 sec) 
*** Reached end of trace for Core: 0 Repeating trace: traces/spec2k17/srv_70.champsimtrace.xz
Heartbeat CPU 0 instructions: 220000000 cycles: 521329371 heartbeat IPC: 0.336967 cumulative IPC: 0.335107 (Simulation time: 0 hr 13 min 44 sec) 
Heartbeat CPU 0 instructions: 230000001 cycles: 550597615 heartbeat IPC: 0.341667 cumulative IPC: 0.335465 (Simulation time: 0 hr 14 min 20 sec) 
Heartbeat CPU 0 instructions: 240000001 cycles: 580433203 heartbeat IPC: 0.33517 cumulative IPC: 0.335449 (Simulation time: 0 hr 14 min 53 sec) 
*** Reached end of trace for Core: 0 Repeating trace: traces/spec2k17/srv_70.champsimtrace.xz
Heartbeat CPU 0 instructions: 250000001 cycles: 610046791 heartbeat IPC: 0.337683 cumulative IPC: 0.33556 (Simulation time: 0 hr 15 min 22 sec) 
Finished CPU 0 instructions: 200000000 cycles: 596017859 cumulative IPC: 0.33556 (Simulation time: 0 hr 15 min 22 sec) 

ChampSim completed all CPUs

Region of Interest Statistics

CPU 0 cumulative IPC: 0.33556 instructions: 200000000 cycles: 596017859
ITLB TOTAL     ACCESS:   34462549  HIT:   32606660  MISS:    1855889  HIT %:    94.6148  MISS %:    5.38523   MPKI: 9.27945
ITLB LOAD TRANSLATION ACCESS:   34462549  HIT:   32606660  MISS:    1855889  HIT %:    94.6148  MISS %:    5.38523   MPKI: 9.27945
ITLB PREFETCH  REQUESTED:          0  ISSUED:          0  USEFUL:          0  USELESS:          0
ITLB USEFUL LOAD PREFETCHES:          0 PREFETCH ISSUED TO LOWER LEVEL:          0  ACCURACY: -nan
ITLB TIMELY PREFETCHES:          0 LATE PREFETCHES: 0 DROPPED PREFETCHES: 0
ITLB PREFETCHES SAME FILL-ORIGIN LEVEL: 0 DIFFERENT FILL-ORIGIN LEVEL: 0
ITLB AVERAGE MISS LATENCY: 9.05195 cycles
ITLB RQ	ACCESS:   40290860	FORWARD:          0	MERGED:    5379557	TO_CACHE:   34911303

DTLB TOTAL     ACCESS:   45366641  HIT:   43571960  MISS:    1794681  HIT %:    96.0441  MISS %:    3.95595   MPKI: 8.9734
DTLB LOAD TRANSLATION ACCESS:   45366641  HIT:   43571960  MISS:    1794681  HIT %:    96.0441  MISS %:    3.95595   MPKI: 8.9734
DTLB PREFETCH  REQUESTED:          0  ISSUED:          0  USEFUL:          0  USELESS:          0
DTLB USEFUL LOAD PREFETCHES:          0 PREFETCH ISSUED TO LOWER LEVEL:          0  ACCURACY: -nan
DTLB TIMELY PREFETCHES:          0 LATE PREFETCHES: 0 DROPPED PREFETCHES: 0
DTLB PREFETCHES SAME FILL-ORIGIN LEVEL: 0 DIFFERENT FILL-ORIGIN LEVEL: 0
DTLB AVERAGE MISS LATENCY: 8.74887 cycles
DTLB RQ	ACCESS:   59862142	FORWARD:          0	MERGED:   14432662	TO_CACHE:   45429480

STLB TOTAL     ACCESS:   12397153  HIT:   12386416  MISS:      10737  HIT %:    99.9134  MISS %:  0.0866086   MPKI: 0.053685
STLB LOAD TRANSLATION ACCESS:    3650570  HIT:    3640602  MISS:       9968  HIT %:    99.7269  MISS %:   0.273053   MPKI: 0.04984
STLB TRANSLATION FROM L1D PREFETCHER ACCESS:    8746583  HIT:    8745814  MISS:        769  HIT %:    99.9912  MISS %:   0.008792   MPKI: 0.003845
STLB PREFETCH  REQUESTED:          0  ISSUED:          0  USEFUL:        618  USELESS:        142
STLB USEFUL LOAD PREFETCHES:        618 PREFETCH ISSUED TO LOWER LEVEL:          0  ACCURACY: inf
STLB TIMELY PREFETCHES:        618 LATE PREFETCHES: 132 DROPPED PREFETCHES: 166075
STLB PREFETCHES SAME FILL-ORIGIN LEVEL: 0 DIFFERENT FILL-ORIGIN LEVEL: 0
STLB AVERAGE MISS LATENCY: 40.5644 cycles
STLB RQ	ACCESS:   15086822	FORWARD:          0	MERGED:    2523353	TO_CACHE:   12563469

STLB Hit, L1D data hit: 0
STLB Hit, L2C data hit: 0
STLB Hit, LLC data hit: 0
STLB Hit, LLC data miss: 0
STLB STLB hints to L2: 0
L1D TOTAL     ACCESS:   68809341  HIT:   64706372  MISS:    4102969  HIT %:    94.0372  MISS %:    5.96281   MPKI: 20.5148
L1D LOAD      ACCESS:   33622743  HIT:   31347854  MISS:    2274889  HIT %:    93.2341  MISS %:    6.76592   MPKI: 11.3744
L1D RFO       ACCESS:   24553471  HIT:   23518157  MISS:    1035314  HIT %:    95.7834  MISS %:    4.21657   MPKI: 5.17657
L1D PREFETCH  ACCESS:   10633127  HIT:    9840361  MISS:     792766  HIT %:    92.5444  MISS %:    7.45562   MPKI: 3.96383
AGUS PREFETCH L1 MISS: 0
L1D PREFETCH  REQUESTED:   23938749  ISSUED:   23937407  USEFUL:     600116  USELESS:     192609
L1D USEFUL LOAD PREFETCHES:     600116 PREFETCH ISSUED TO LOWER LEVEL:    1175863  ACCURACY: 51.0362
L1D TIMELY PREFETCHES:     600116 LATE PREFETCHES: 380679 DROPPED PREFETCHES: 183464
L1D PREFETCHES SAME FILL-ORIGIN LEVEL: 1175863 DIFFERENT FILL-ORIGIN LEVEL: 0
L1D AVERAGE MISS LATENCY: 3.46069e+07 cycles
L1D RQ	ACCESS:   46904131	FORWARD:          0	MERGED:   12885984	TO_CACHE:   33724522
L1D WQ	ACCESS:   26309150	FORWARD:     313191	MERGED:     171530	TO_CACHE:   26137620
L1D PQ	ACCESS:   12501155	FORWARD:          0	MERGED:    1045337	TO_CACHE:   11436252

L1D UNIQUE REGIONS ACCESSED: 0
L1D REGIONS CONFLICTS: 0
L1D Cross Page Prefetch Requests: 8669463
L1D Same Page Prefetch Requests: 4240008
L1D ROI Sum of L1D PQ occupancy: 167418969
L1D PREFETCHES PUSHED FROM L2C: 0
L1I TOTAL     ACCESS:   38867408  HIT:   29157149  MISS:    9710259  HIT %:     75.017  MISS %:     24.983   MPKI: 48.5513
L1I LOAD      ACCESS:   38867408  HIT:   29157149  MISS:    9710259  HIT %:     75.017  MISS %:     24.983   MPKI: 48.5513
L1I PREFETCH  REQUESTED:          0  ISSUED:          0  USEFUL:          0  USELESS:          0
L1I USEFUL LOAD PREFETCHES:          0 PREFETCH ISSUED TO LOWER LEVEL:          0  ACCURACY: -nan
L1I TIMELY PREFETCHES:          0 LATE PREFETCHES: 0 DROPPED PREFETCHES: 0
L1I PREFETCHES SAME FILL-ORIGIN LEVEL: 0 DIFFERENT FILL-ORIGIN LEVEL: 0
L1I AVERAGE MISS LATENCY: 16.7778 cycles
L1I RQ	ACCESS:   57820758	FORWARD:          0	MERGED:   17529898	TO_CACHE:   40290860

BTB TOTAL     ACCESS:   30330112  HIT:   18855293  MISS:   11474819  HIT %:    62.1669  MISS %:    37.8331   MPKI: 57.3741
BTB BRANCH_DIRECT_JUMP	ACCESS:    2183492  HIT:    1381264  MISS:     802228
BTB BRANCH_INDIRECT	ACCESS:   11409987  HIT:    7107186  MISS:    4302801
BTB BRANCH_CONDITIONAL	ACCESS:    8659441  HIT:    7498829  MISS:    1160612
BTB BRANCH_DIRECT_CALL	ACCESS:    3412328  HIT:    1528915  MISS:    1883413
BTB BRANCH_INDIRECT_CALL	ACCESS:     626274  HIT:     246325  MISS:     379949
BTB BRANCH_RETURN	ACCESS:    4038590  HIT:    1092774  MISS:    2945816
BTB BRANCH_OTHER ACCESS:          0  HIT:          0  MISS:          0

L2C TOTAL     ACCESS:   15884135  HIT:   14312888  MISS:    1571247  HIT %:    90.1081  MISS %:    9.89193   MPKI: 7.85623
L2C LOAD      ACCESS:   11604443  HIT:   10479554  MISS:    1124889  HIT %:    90.3064  MISS %:    9.69361   MPKI: 5.62444
L2C DATA LOAD MPKI: 1.27834
L2C INSTRUCTION LOAD MPKI: 4.3461
L2C RFO       ACCESS:    1032892  HIT:     835790  MISS:     197102  HIT %:    80.9175  MISS %:    19.0825   MPKI: 0.98551
L2C PREFETCH  ACCESS:    1175513  HIT:    1004698  MISS:     170815  HIT %:    85.4689  MISS %:    14.5311   MPKI: 0.854075
AGUS PREFETCH L1 MISS: 0
L2C DATA PREFETCH MPKI: 0.854075
L2C INSTRUCTION PREFETCH MPKI: 0
L2C WRITEBACK ACCESS:    1834045  HIT:    1787171  MISS:      46874  HIT %:    97.4442  MISS %:    2.55577   MPKI: 0.23437
L2C LOAD TRANSLATION ACCESS:      10699  HIT:       4348  MISS:       6351  HIT %:    40.6393  MISS %:    59.3607   MPKI: 0.031755
L2C TRANSLATION FROM L1D PREFETCHER ACCESS:     226543  HIT:     201327  MISS:      25216  HIT %:    88.8692  MISS %:    11.1308   MPKI: 0.12608
L2C PREFETCH  REQUESTED:          0  ISSUED:          0  USEFUL:      29702  USELESS:     166108
L2C USEFUL LOAD PREFETCHES:      29702 PREFETCH ISSUED TO LOWER LEVEL:     170815  ACCURACY: 17.3884
L2C TIMELY PREFETCHES:      29702 LATE PREFETCHES: 0 DROPPED PREFETCHES: 0
L2C PREFETCHES SAME FILL-ORIGIN LEVEL: 0 DIFFERENT FILL-ORIGIN LEVEL: 0
L2C AVERAGE MISS LATENCY: 32.0882 cycles
L2C RQ	ACCESS:   12874605	FORWARD:          0	MERGED:          0	TO_CACHE:   12874576
L2C WQ	ACCESS:    1834045	FORWARD:        379	MERGED:          0	TO_CACHE:    1834045
L2C PQ	ACCESS:    1175863	FORWARD:          0	MERGED:          0	TO_CACHE:    1175513

L2C Instructions Evicting Data 321419
L2C Translations Evicting Data 17311
L2C Data Evicting Data 311213
L2C Instructions Evicting Instructions 534421
L2C Translations Evicting Instructions 12923
L2C Data Evicting Instructions 296304
L2C Instructions Evicting Translations 13381
L2C Translations Evicting Translations 1333
L2C Data Evicting Translations 16068
L2C Dense regions hint from L2: 0
PSCL5 TOTAL     ACCESS:     170984  HIT:     170984  MISS:          0  HIT %:        100  MISS %:          0   MPKI: 0
PSCL5 LOAD TRANSLATION ACCESS:       9836  HIT:       9836  MISS:          0  HIT %:        100  MISS %:          0   MPKI: 0
PSCL5 TRANSLATION FROM L1D PREFETCHER ACCESS:     161148  HIT:     161148  MISS:          0  HIT %:        100  MISS %:          0   MPKI: 0
PSCL5 PREFETCH  REQUESTED:          0  ISSUED:          0  USEFUL:          0  USELESS:          0
PSCL5 USEFUL LOAD PREFETCHES:          0 PREFETCH ISSUED TO LOWER LEVEL:          0  ACCURACY: -nan
PSCL5 TIMELY PREFETCHES:          0 LATE PREFETCHES: 0 DROPPED PREFETCHES: 0
PSCL5 PREFETCHES SAME FILL-ORIGIN LEVEL: 0 DIFFERENT FILL-ORIGIN LEVEL: 0

PSCL4 TOTAL     ACCESS:     143169  HIT:     143139  MISS:         30  HIT %:     99.979  MISS %:  0.0209543   MPKI: 0.00015
PSCL4 LOAD TRANSLATION ACCESS:       9791  HIT:       9761  MISS:         30  HIT %:    99.6936  MISS %:   0.306404   MPKI: 0.00015
PSCL4 TRANSLATION FROM L1D PREFETCHER ACCESS:     133378  HIT:     133378  MISS:          0  HIT %:        100  MISS %:          0   MPKI: 0
PSCL4 PREFETCH  REQUESTED:          0  ISSUED:          0  USEFUL:          0  USELESS:          0
PSCL4 USEFUL LOAD PREFETCHES:          0 PREFETCH ISSUED TO LOWER LEVEL:          0  ACCURACY: -nan
PSCL4 TIMELY PREFETCHES:          0 LATE PREFETCHES: 0 DROPPED PREFETCHES: 0
PSCL4 PREFETCHES SAME FILL-ORIGIN LEVEL: 0 DIFFERENT FILL-ORIGIN LEVEL: 0

PSCL3 TOTAL     ACCESS:     140658  HIT:     140628  MISS:         30  HIT %:    99.9787  MISS %:  0.0213283   MPKI: 0.00015
PSCL3 LOAD TRANSLATION ACCESS:       9827  HIT:       9797  MISS:         30  HIT %:    99.6947  MISS %:   0.305281   MPKI: 0.00015
PSCL3 TRANSLATION FROM L1D PREFETCHER ACCESS:     130831  HIT:     130831  MISS:          0  HIT %:        100  MISS %:          0   MPKI: 0
PSCL3 PREFETCH  REQUESTED:          0  ISSUED:          0  USEFUL:          0  USELESS:          0
PSCL3 USEFUL LOAD PREFETCHES:          0 PREFETCH ISSUED TO LOWER LEVEL:          0  ACCURACY: -nan
PSCL3 TIMELY PREFETCHES:          0 LATE PREFETCHES: 0 DROPPED PREFETCHES: 0
PSCL3 PREFETCHES SAME FILL-ORIGIN LEVEL: 0 DIFFERENT FILL-ORIGIN LEVEL: 0

PSCL2 TOTAL     ACCESS:      43927  HIT:      43061  MISS:        866  HIT %:    98.0285  MISS %:    1.97145   MPKI: 0.00433
PSCL2 LOAD TRANSLATION ACCESS:       9891  HIT:       9025  MISS:        866  HIT %:    91.2446  MISS %:    8.75543   MPKI: 0.00433
PSCL2 TRANSLATION FROM L1D PREFETCHER ACCESS:      34036  HIT:      34036  MISS:          0  HIT %:        100  MISS %:          0   MPKI: 0
PSCL2 PREFETCH  REQUESTED:          0  ISSUED:          0  USEFUL:          0  USELESS:          0
PSCL2 USEFUL LOAD PREFETCHES:          0 PREFETCH ISSUED TO LOWER LEVEL:          0  ACCURACY: -nan
PSCL2 TIMELY PREFETCHES:          0 LATE PREFETCHES: 0 DROPPED PREFETCHES: 0
PSCL2 PREFETCHES SAME FILL-ORIGIN LEVEL: 0 DIFFERENT FILL-ORIGIN LEVEL: 0

LLC TOTAL     ACCESS:    1797073  HIT:    1765135  MISS:      31938  HIT %:    98.2228  MISS %:    1.77722   MPKI: 0.15969
LLC LOAD      ACCESS:    1124889  HIT:    1115745  MISS:       9144  HIT %:    99.1871  MISS %:    0.81288   MPKI: 0.04572
LLC RFO       ACCESS:     197102  HIT:     184926  MISS:      12176  HIT %:    93.8225  MISS %:    6.17751   MPKI: 0.06088
LLC PREFETCH  ACCESS:     170814  HIT:     161718  MISS:       9096  HIT %:    94.6749  MISS %:    5.32509   MPKI: 0.04548
AGUS PREFETCH L1 MISS: 0
LLC WRITEBACK ACCESS:     272701  HIT:     272491  MISS:        210  HIT %:     99.923  MISS %:  0.0770074   MPKI: 0.00105
LLC LOAD TRANSLATION ACCESS:       6351  HIT:       6281  MISS:         70  HIT %:    98.8978  MISS %:    1.10219   MPKI: 0.00035
LLC TRANSLATION FROM L1D PREFETCHER ACCESS:      25216  HIT:      23974  MISS:       1242  HIT %:    95.0746  MISS %:    4.92544   MPKI: 0.00621
LLC PREFETCH  REQUESTED:          0  ISSUED:          0  USEFUL:       2548  USELESS:       7021
LLC USEFUL LOAD PREFETCHES:       2548 PREFETCH ISSUED TO LOWER LEVEL:       9096  ACCURACY: 28.0123
LLC TIMELY PREFETCHES:       2548 LATE PREFETCHES: 0 DROPPED PREFETCHES: 0
LLC PREFETCHES SAME FILL-ORIGIN LEVEL: 0 DIFFERENT FILL-ORIGIN LEVEL: 0
LLC AVERAGE MISS LATENCY: 146.745 cycles
LLC RQ	ACCESS:    1353558	FORWARD:          0	MERGED:          0	TO_CACHE:    1353558
LLC WQ	ACCESS:     272701	FORWARD:          1	MERGED:          0	TO_CACHE:     272701
LLC PQ	ACCESS:     170815	FORWARD:          0	MERGED:          0	TO_CACHE:     170814

LLC Dense regions hint to LLC: 0

RAW hits: 1384667
Loads Generated: 48288798
Loads sent to L1D: 46904131
Stores Generated: 26309148
Stores sent to L1D: 26309150
Major fault: 0 Minor fault: 1865
Allocated PAGES: 1865
Completed 

DRAM Statistics
 CHANNEL 0
 RQ ROW_BUFFER_HIT:       8257  ROW_BUFFER_MISS:      23454
 DBUS_CONGESTED:         25
 WQ ROW_BUFFER_HIT:       1166  ROW_BUFFER_MISS:      13678  FULL:          0

 AVG_CONGESTED_CYCLE: 4
 All warmup complete: 2
Channel 0 Bank busy for read cycles: 0
Channel 0 Bank busy for write cycles: 0
Channel 0
Rank 0
0banks busy for read cycles: 592250463
0banks busy for write cycles: 6903
1banks busy for read cycles: 1797302
1banks busy for write cycles: 898185
2banks busy for read cycles: 311098
2banks busy for write cycles: 156625
3banks busy for read cycles: 144674
3banks busy for write cycles: 74437
4banks busy for read cycles: 81496
4banks busy for write cycles: 51267
5banks busy for read cycles: 49732
5banks busy for write cycles: 40485
6banks busy for read cycles: 34175
6banks busy for write cycles: 33065
7banks busy for read cycles: 23531
7banks busy for write cycles: 26860
8banks busy for read cycles: 16684
8banks busy for write cycles: 20878

CPU 0 Branch Prediction Accuracy: 99.8462% MPKI: 0.271815 Average ROB Occupancy at Mispredict: 54.6739
Branch types
NOT_BRANCH: 164663070 82.3315%
BRANCH_DIRECT_JUMP: 2183492 1.09175%
BRANCH_INDIRECT: 11409987 5.70499%
BRANCH_CONDITIONAL: 13666237 6.83312%
BRANCH_DIRECT_CALL: 3412328 1.70616%
BRANCH_INDIRECT_CALL: 626274 0.313137%
BRANCH_RETURN: 4038590 2.0193%
BRANCH_OTHER: 0 0%

DRAM PAGES: 1048576
Allocated PAGES: 1865
