
*** ChampSim Multicore Out-of-Order Simulator ***

Warmup Instructions: 50000000
Simulation Instructions: 200000000
Number of CPUs: 1
LLC sets: 2048
LLC ways: 16
Off-chip DRAM Size: 4096 MB Channels: 1 Width: 64-bit Data Rate: 6400 MT/s
CPU 0 runs traces/spec2k17/srv_5.champsimtrace.xz
.xz
BTB has LRU replacement policy
ITLB has LRU replacement policy
DTLB has LRU replacement policy
STLB has LRU replacement policy
L1I has LRU replacement policy
L1D has LRU replacement policy
Initialize SRRIP state for L2C
Initialize DRRIP state for LLC
Heartbeat CPU 0 instructions: 10000002 cycles: 2764990 heartbeat IPC: 3.61665 cumulative IPC: 3.61665 (Simulation time: 0 hr 0 min 36 sec) 
Heartbeat CPU 0 instructions: 20000003 cycles: 5519933 heartbeat IPC: 3.62984 cumulative IPC: 3.62323 (Simulation time: 0 hr 1 min 14 sec) 
Heartbeat CPU 0 instructions: 30000002 cycles: 8278151 heartbeat IPC: 3.62553 cumulative IPC: 3.624 (Simulation time: 0 hr 1 min 44 sec) 
*** Reached end of trace for Core: 0 Repeating trace: traces/spec2k17/srv_5.champsimtrace.xz
Heartbeat CPU 0 instructions: 40000002 cycles: 11037531 heartbeat IPC: 3.624 cumulative IPC: 3.624 (Simulation time: 0 hr 2 min 11 sec) 
Heartbeat CPU 0 instructions: 50000002 cycles: 13792662 heartbeat IPC: 3.62959 cumulative IPC: 3.62512 (Simulation time: 0 hr 2 min 37 sec) 

Warmup complete CPU 0 instructions: 50000002 cycles: 13792662 (Simulation time: 0 hr 2 min 37 sec) 

Heartbeat CPU 0 instructions: 60000001 cycles: 35716078 heartbeat IPC: 0.456133 cumulative IPC: 0.456133 (Simulation time: 0 hr 3 min 15 sec) 
*** Reached end of trace for Core: 0 Repeating trace: traces/spec2k17/srv_5.champsimtrace.xz
Heartbeat CPU 0 instructions: 70000003 cycles: 57631175 heartbeat IPC: 0.456307 cumulative IPC: 0.45622 (Simulation time: 0 hr 3 min 53 sec) 
Heartbeat CPU 0 instructions: 80000001 cycles: 78912333 heartbeat IPC: 0.469899 cumulative IPC: 0.46069 (Simulation time: 0 hr 4 min 34 sec) 
Heartbeat CPU 0 instructions: 90000002 cycles: 100928745 heartbeat IPC: 0.454207 cumulative IPC: 0.459052 (Simulation time: 0 hr 5 min 10 sec) 
*** Reached end of trace for Core: 0 Repeating trace: traces/spec2k17/srv_5.champsimtrace.xz
Heartbeat CPU 0 instructions: 100000001 cycles: 122476636 heartbeat IPC: 0.464082 cumulative IPC: 0.460049 (Simulation time: 0 hr 5 min 46 sec) 
Heartbeat CPU 0 instructions: 110000000 cycles: 144001562 heartbeat IPC: 0.464578 cumulative IPC: 0.460798 (Simulation time: 0 hr 6 min 21 sec) 
Heartbeat CPU 0 instructions: 120000001 cycles: 165873343 heartbeat IPC: 0.45721 cumulative IPC: 0.460282 (Simulation time: 0 hr 6 min 57 sec) 
*** Reached end of trace for Core: 0 Repeating trace: traces/spec2k17/srv_5.champsimtrace.xz
Heartbeat CPU 0 instructions: 130000001 cycles: 187340881 heartbeat IPC: 0.46582 cumulative IPC: 0.460967 (Simulation time: 0 hr 7 min 33 sec) 
Heartbeat CPU 0 instructions: 140000003 cycles: 208859536 heartbeat IPC: 0.464713 cumulative IPC: 0.46138 (Simulation time: 0 hr 8 min 9 sec) 
Heartbeat CPU 0 instructions: 150000000 cycles: 230536432 heartbeat IPC: 0.461321 cumulative IPC: 0.461374 (Simulation time: 0 hr 8 min 44 sec) 
*** Reached end of trace for Core: 0 Repeating trace: traces/spec2k17/srv_5.champsimtrace.xz
Heartbeat CPU 0 instructions: 160000000 cycles: 251959911 heartbeat IPC: 0.466778 cumulative IPC: 0.46186 (Simulation time: 0 hr 9 min 20 sec) 
Heartbeat CPU 0 instructions: 170000002 cycles: 273760364 heartbeat IPC: 0.458706 cumulative IPC: 0.461596 (Simulation time: 0 hr 9 min 56 sec) 
Heartbeat CPU 0 instructions: 180000000 cycles: 295304526 heartbeat IPC: 0.464163 cumulative IPC: 0.461792 (Simulation time: 0 hr 10 min 32 sec) 
*** Reached end of trace for Core: 0 Repeating trace: traces/spec2k17/srv_5.champsimtrace.xz
Heartbeat CPU 0 instructions: 190000000 cycles: 316782480 heartbeat IPC: 0.465594 cumulative IPC: 0.462062 (Simulation time: 0 hr 11 min 8 sec) 
Heartbeat CPU 0 instructions: 200000003 cycles: 338661990 heartbeat IPC: 0.457049 cumulative IPC: 0.461724 (Simulation time: 0 hr 11 min 44 sec) 
Heartbeat CPU 0 instructions: 210000000 cycles: 360050246 heartbeat IPC: 0.467546 cumulative IPC: 0.462084 (Simulation time: 0 hr 12 min 20 sec) 
*** Reached end of trace for Core: 0 Repeating trace: traces/spec2k17/srv_5.champsimtrace.xz
Heartbeat CPU 0 instructions: 220000000 cycles: 381570437 heartbeat IPC: 0.46468 cumulative IPC: 0.462236 (Simulation time: 0 hr 12 min 55 sec) 
Heartbeat CPU 0 instructions: 230000003 cycles: 403503859 heartbeat IPC: 0.455925 cumulative IPC: 0.461881 (Simulation time: 0 hr 13 min 30 sec) 
Heartbeat CPU 0 instructions: 240000002 cycles: 424900340 heartbeat IPC: 0.467367 cumulative IPC: 0.462166 (Simulation time: 0 hr 14 min 5 sec) 
*** Reached end of trace for Core: 0 Repeating trace: traces/spec2k17/srv_5.champsimtrace.xz
Heartbeat CPU 0 instructions: 250000001 cycles: 446404979 heartbeat IPC: 0.465016 cumulative IPC: 0.462308 (Simulation time: 0 hr 14 min 38 sec) 
Finished CPU 0 instructions: 200000000 cycles: 432612318 cumulative IPC: 0.462308 (Simulation time: 0 hr 14 min 38 sec) 

ChampSim completed all CPUs

Region of Interest Statistics

CPU 0 cumulative IPC: 0.462308 instructions: 200000000 cycles: 432612318
ITLB TOTAL     ACCESS:   31215995  HIT:   30408224  MISS:     807771  HIT %:    97.4123  MISS %:    2.58768   MPKI: 4.03885
ITLB LOAD TRANSLATION ACCESS:   31215995  HIT:   30408224  MISS:     807771  HIT %:    97.4123  MISS %:    2.58768   MPKI: 4.03885
ITLB PREFETCH  REQUESTED:          0  ISSUED:          0  USEFUL:          0  USELESS:          0
ITLB USEFUL LOAD PREFETCHES:          0 PREFETCH ISSUED TO LOWER LEVEL:          0  ACCURACY: -nan
ITLB TIMELY PREFETCHES:          0 LATE PREFETCHES: 0 DROPPED PREFETCHES: 0
ITLB PREFETCHES SAME FILL-ORIGIN LEVEL: 0 DIFFERENT FILL-ORIGIN LEVEL: 0
ITLB AVERAGE MISS LATENCY: 13.4046 cycles
ITLB RQ	ACCESS:   38118834	FORWARD:          0	MERGED:    6698857	TO_CACHE:   31419977

DTLB TOTAL     ACCESS:   36982833  HIT:   34370078  MISS:    2612755  HIT %:    92.9352  MISS %:    7.06478   MPKI: 13.0638
DTLB LOAD TRANSLATION ACCESS:   36982833  HIT:   34370078  MISS:    2612755  HIT %:    92.9352  MISS %:    7.06478   MPKI: 13.0638
DTLB PREFETCH  REQUESTED:          0  ISSUED:          0  USEFUL:          0  USELESS:          0
DTLB USEFUL LOAD PREFETCHES:          0 PREFETCH ISSUED TO LOWER LEVEL:          0  ACCURACY: -nan
DTLB TIMELY PREFETCHES:          0 LATE PREFETCHES: 0 DROPPED PREFETCHES: 0
DTLB PREFETCHES SAME FILL-ORIGIN LEVEL: 0 DIFFERENT FILL-ORIGIN LEVEL: 0
DTLB AVERAGE MISS LATENCY: 12.9325 cycles
DTLB RQ	ACCESS:   47422900	FORWARD:          0	MERGED:   10293453	TO_CACHE:   37129447

STLB TOTAL     ACCESS:    9196513  HIT:    8875158  MISS:     321355  HIT %:    96.5057  MISS %:    3.49431   MPKI: 1.60678
STLB LOAD TRANSLATION ACCESS:    3420526  HIT:    3102557  MISS:     317969  HIT %:    90.7041  MISS %:    9.29591   MPKI: 1.58984
STLB TRANSLATION FROM L1D PREFETCHER ACCESS:    5775987  HIT:    5772601  MISS:       3386  HIT %:    99.9414  MISS %:   0.058622   MPKI: 0.01693
STLB PREFETCH  REQUESTED:          0  ISSUED:          0  USEFUL:       2713  USELESS:        673
STLB USEFUL LOAD PREFETCHES:       2713 PREFETCH ISSUED TO LOWER LEVEL:          0  ACCURACY: inf
STLB TIMELY PREFETCHES:       2713 LATE PREFETCHES: 652 DROPPED PREFETCHES: 117041
STLB PREFETCHES SAME FILL-ORIGIN LEVEL: 0 DIFFERENT FILL-ORIGIN LEVEL: 0
STLB AVERAGE MISS LATENCY: 45.7329 cycles
STLB RQ	ACCESS:   10974544	FORWARD:          0	MERGED:    1659670	TO_CACHE:    9314874

STLB Hit, L1D data hit: 0
STLB Hit, L2C data hit: 0
STLB Hit, LLC data hit: 0
STLB Hit, LLC data miss: 0
STLB STLB hints to L2: 0
L1D TOTAL     ACCESS:   54212239  HIT:   51711446  MISS:    2500793  HIT %:     95.387  MISS %:    4.61297   MPKI: 12.504
L1D LOAD      ACCESS:   27413225  HIT:   25333189  MISS:    2080036  HIT %:    92.4123  MISS %:    7.58771   MPKI: 10.4002
L1D RFO       ACCESS:   19473917  HIT:   19145674  MISS:     328243  HIT %:    98.3144  MISS %:    1.68555   MPKI: 1.64122
L1D PREFETCH  ACCESS:    7325097  HIT:    7232583  MISS:      92514  HIT %:     98.737  MISS %:    1.26297   MPKI: 0.46257
AGUS PREFETCH L1 MISS: 0
L1D PREFETCH  REQUESTED:   15912849  ISSUED:   15912301  USEFUL:      59060  USELESS:      33453
L1D USEFUL LOAD PREFETCHES:      59060 PREFETCH ISSUED TO LOWER LEVEL:     120292  ACCURACY: 49.0972
L1D TIMELY PREFETCHES:      59060 LATE PREFETCHES: 27568 DROPPED PREFETCHES: 152856
L1D PREFETCHES SAME FILL-ORIGIN LEVEL: 120292 DIFFERENT FILL-ORIGIN LEVEL: 0
L1D AVERAGE MISS LATENCY: 3.23142e+06 cycles
L1D RQ	ACCESS:   41957051	FORWARD:          0	MERGED:   14187892	TO_CACHE:   27548906
L1D WQ	ACCESS:   20207881	FORWARD:     281794	MERGED:     333887	TO_CACHE:   19873994
L1D PQ	ACCESS:    8358283	FORWARD:          0	MERGED:     742724	TO_CACHE:    7554018

L1D UNIQUE REGIONS ACCESSED: 0
L1D REGIONS CONFLICTS: 0
L1D Cross Page Prefetch Requests: 6830937
L1D Same Page Prefetch Requests: 2536651
L1D ROI Sum of L1D PQ occupancy: 112902972
L1D PREFETCHES PUSHED FROM L2C: 0
L1I TOTAL     ACCESS:   36284937  HIT:   31133481  MISS:    5151456  HIT %:    85.8028  MISS %:    14.1972   MPKI: 25.7573
L1I LOAD      ACCESS:   36284937  HIT:   31133481  MISS:    5151456  HIT %:    85.8028  MISS %:    14.1972   MPKI: 25.7573
L1I PREFETCH  REQUESTED:          0  ISSUED:          0  USEFUL:          0  USELESS:          0
L1I USEFUL LOAD PREFETCHES:          0 PREFETCH ISSUED TO LOWER LEVEL:          0  ACCURACY: -nan
L1I TIMELY PREFETCHES:          0 LATE PREFETCHES: 0 DROPPED PREFETCHES: 0
L1I PREFETCHES SAME FILL-ORIGIN LEVEL: 0 DIFFERENT FILL-ORIGIN LEVEL: 0
L1I AVERAGE MISS LATENCY: 24.5935 cycles
L1I RQ	ACCESS:   57138315	FORWARD:          0	MERGED:   19019481	TO_CACHE:   38118834

BTB TOTAL     ACCESS:   22212153  HIT:   17957529  MISS:    4254624  HIT %:    80.8455  MISS %:    19.1545   MPKI: 21.2731
BTB BRANCH_DIRECT_JUMP	ACCESS:    1780172  HIT:    1545024  MISS:     235148
BTB BRANCH_INDIRECT	ACCESS:    9535407  HIT:    7469894  MISS:    2065513
BTB BRANCH_CONDITIONAL	ACCESS:    4548641  HIT:    4163963  MISS:     384678
BTB BRANCH_DIRECT_CALL	ACCESS:    2494547  HIT:    2037677  MISS:     456870
BTB BRANCH_INDIRECT_CALL	ACCESS:     678804  HIT:     637539  MISS:      41265
BTB BRANCH_RETURN	ACCESS:    3174582  HIT:    2103432  MISS:    1071150
BTB BRANCH_OTHER ACCESS:          0  HIT:          0  MISS:          0

L2C TOTAL     ACCESS:    9233117  HIT:    6140137  MISS:    3092980  HIT %:    66.5012  MISS %:    33.4988   MPKI: 15.4649
L2C LOAD      ACCESS:    7203867  HIT:    4513440  MISS:    2690427  HIT %:     62.653  MISS %:     37.347   MPKI: 13.4521
L2C DATA LOAD MPKI: 4.58498
L2C INSTRUCTION LOAD MPKI: 8.86716
L2C RFO       ACCESS:     328033  HIT:     188341  MISS:     139692  HIT %:    57.4153  MISS %:    42.5847   MPKI: 0.69846
L2C PREFETCH  ACCESS:     120268  HIT:      90058  MISS:      30210  HIT %:    74.8811  MISS %:    25.1189   MPKI: 0.15105
AGUS PREFETCH L1 MISS: 0
L2C DATA PREFETCH MPKI: 0.15105
L2C INSTRUCTION PREFETCH MPKI: 0
L2C WRITEBACK ACCESS:    1016254  HIT:     962546  MISS:      53708  HIT %:    94.7151  MISS %:     5.2849   MPKI: 0.26854
L2C LOAD TRANSLATION ACCESS:     418473  HIT:     253717  MISS:     164756  HIT %:    60.6292  MISS %:    39.3708   MPKI: 0.82378
L2C TRANSLATION FROM L1D PREFETCHER ACCESS:     146222  HIT:     132035  MISS:      14187  HIT %:    90.2976  MISS %:    9.70237   MPKI: 0.070935
L2C PREFETCH  REQUESTED:          0  ISSUED:          0  USEFUL:      12365  USELESS:      31991
L2C USEFUL LOAD PREFETCHES:      12365 PREFETCH ISSUED TO LOWER LEVEL:      30210  ACCURACY: 40.9302
L2C TIMELY PREFETCHES:      12365 LATE PREFETCHES: 0 DROPPED PREFETCHES: 0
L2C PREFETCHES SAME FILL-ORIGIN LEVEL: 0 DIFFERENT FILL-ORIGIN LEVEL: 0
L2C AVERAGE MISS LATENCY: 43.9437 cycles
L2C RQ	ACCESS:    8096653	FORWARD:          0	MERGED:          0	TO_CACHE:    8096595
L2C WQ	ACCESS:    1016254	FORWARD:         82	MERGED:          0	TO_CACHE:    1016254
L2C PQ	ACCESS:     120292	FORWARD:          0	MERGED:          0	TO_CACHE:     120268

L2C Instructions Evicting Data 644603
L2C Translations Evicting Data 70608
L2C Data Evicting Data 405894
L2C Instructions Evicting Instructions 1031650
L2C Translations Evicting Instructions 97974
L2C Data Evicting Instructions 612903
L2C Instructions Evicting Translations 97179
L2C Translations Evicting Translations 10361
L2C Data Evicting Translations 68100
L2C Dense regions hint from L2: 0
PSCL5 TOTAL     ACCESS:     433219  HIT:     433219  MISS:          0  HIT %:        100  MISS %:          0   MPKI: 0
PSCL5 LOAD TRANSLATION ACCESS:     317317  HIT:     317317  MISS:          0  HIT %:        100  MISS %:          0   MPKI: 0
PSCL5 TRANSLATION FROM L1D PREFETCHER ACCESS:     115902  HIT:     115902  MISS:          0  HIT %:        100  MISS %:          0   MPKI: 0
PSCL5 PREFETCH  REQUESTED:          0  ISSUED:          0  USEFUL:          0  USELESS:          0
PSCL5 USEFUL LOAD PREFETCHES:          0 PREFETCH ISSUED TO LOWER LEVEL:          0  ACCURACY: -nan
PSCL5 TIMELY PREFETCHES:          0 LATE PREFETCHES: 0 DROPPED PREFETCHES: 0
PSCL5 PREFETCHES SAME FILL-ORIGIN LEVEL: 0 DIFFERENT FILL-ORIGIN LEVEL: 0

PSCL4 TOTAL     ACCESS:     378472  HIT:     377931  MISS:        541  HIT %:    99.8571  MISS %:   0.142943   MPKI: 0.002705
PSCL4 LOAD TRANSLATION ACCESS:     281968  HIT:     281427  MISS:        541  HIT %:    99.8081  MISS %:   0.191866   MPKI: 0.002705
PSCL4 TRANSLATION FROM L1D PREFETCHER ACCESS:      96504  HIT:      96504  MISS:          0  HIT %:        100  MISS %:          0   MPKI: 0
PSCL4 PREFETCH  REQUESTED:          0  ISSUED:          0  USEFUL:          0  USELESS:          0
PSCL4 USEFUL LOAD PREFETCHES:          0 PREFETCH ISSUED TO LOWER LEVEL:          0  ACCURACY: -nan
PSCL4 TIMELY PREFETCHES:          0 LATE PREFETCHES: 0 DROPPED PREFETCHES: 0
PSCL4 PREFETCHES SAME FILL-ORIGIN LEVEL: 0 DIFFERENT FILL-ORIGIN LEVEL: 0

PSCL3 TOTAL     ACCESS:     404553  HIT:     402928  MISS:       1625  HIT %:    99.5983  MISS %:   0.401678   MPKI: 0.008125
PSCL3 LOAD TRANSLATION ACCESS:     314770  HIT:     313145  MISS:       1625  HIT %:    99.4838  MISS %:    0.51625   MPKI: 0.008125
PSCL3 TRANSLATION FROM L1D PREFETCHER ACCESS:      89783  HIT:      89783  MISS:          0  HIT %:        100  MISS %:          0   MPKI: 0
PSCL3 PREFETCH  REQUESTED:          0  ISSUED:          0  USEFUL:          0  USELESS:          0
PSCL3 USEFUL LOAD PREFETCHES:          0 PREFETCH ISSUED TO LOWER LEVEL:          0  ACCURACY: -nan
PSCL3 TIMELY PREFETCHES:          0 LATE PREFETCHES: 0 DROPPED PREFETCHES: 0
PSCL3 PREFETCHES SAME FILL-ORIGIN LEVEL: 0 DIFFERENT FILL-ORIGIN LEVEL: 0

PSCL2 TOTAL     ACCESS:     339029  HIT:     237826  MISS:     101203  HIT %:    70.1492  MISS %:    29.8508   MPKI: 0.506015
PSCL2 LOAD TRANSLATION ACCESS:     319522  HIT:     218319  MISS:     101203  HIT %:    68.3268  MISS %:    31.6732   MPKI: 0.506015
PSCL2 TRANSLATION FROM L1D PREFETCHER ACCESS:      19507  HIT:      19507  MISS:          0  HIT %:        100  MISS %:          0   MPKI: 0
PSCL2 PREFETCH  REQUESTED:          0  ISSUED:          0  USEFUL:          0  USELESS:          0
PSCL2 USEFUL LOAD PREFETCHES:          0 PREFETCH ISSUED TO LOWER LEVEL:          0  ACCURACY: -nan
PSCL2 TIMELY PREFETCHES:          0 LATE PREFETCHES: 0 DROPPED PREFETCHES: 0
PSCL2 PREFETCHES SAME FILL-ORIGIN LEVEL: 0 DIFFERENT FILL-ORIGIN LEVEL: 0

LLC TOTAL     ACCESS:    3461547  HIT:    3165902  MISS:     295645  HIT %:    91.4592  MISS %:    8.54083   MPKI: 1.47822
LLC LOAD      ACCESS:    2690427  HIT:    2457759  MISS:     232668  HIT %:     91.352  MISS %:      8.648   MPKI: 1.16334
LLC RFO       ACCESS:     139690  HIT:      93251  MISS:      46439  HIT %:    66.7557  MISS %:    33.2443   MPKI: 0.232195
LLC PREFETCH  ACCESS:      30210  HIT:      25899  MISS:       4311  HIT %:    85.7299  MISS %:    14.2701   MPKI: 0.021555
AGUS PREFETCH L1 MISS: 0
LLC WRITEBACK ACCESS:     422277  HIT:     420556  MISS:       1721  HIT %:    99.5924  MISS %:   0.407552   MPKI: 0.008605
LLC LOAD TRANSLATION ACCESS:     164756  HIT:     154916  MISS:       9840  HIT %:    94.0275  MISS %:    5.97247   MPKI: 0.0492
LLC TRANSLATION FROM L1D PREFETCHER ACCESS:      14187  HIT:      13521  MISS:        666  HIT %:    95.3056  MISS %:    4.69444   MPKI: 0.00333
LLC PREFETCH  REQUESTED:          0  ISSUED:          0  USEFUL:        889  USELESS:       3850
LLC USEFUL LOAD PREFETCHES:        889 PREFETCH ISSUED TO LOWER LEVEL:       4311  ACCURACY: 20.6217
LLC TIMELY PREFETCHES:        889 LATE PREFETCHES: 0 DROPPED PREFETCHES: 0
LLC PREFETCHES SAME FILL-ORIGIN LEVEL: 0 DIFFERENT FILL-ORIGIN LEVEL: 0
LLC AVERAGE MISS LATENCY: 151.321 cycles
LLC RQ	ACCESS:    3009062	FORWARD:          0	MERGED:          0	TO_CACHE:    3009060
LLC WQ	ACCESS:     422277	FORWARD:          2	MERGED:          0	TO_CACHE:     422277
LLC PQ	ACCESS:      30210	FORWARD:          0	MERGED:          0	TO_CACHE:      30210

LLC Dense regions hint to LLC: 0

RAW hits: 2846877
Loads Generated: 44803929
Loads sent to L1D: 41957051
Stores Generated: 20207846
Stores sent to L1D: 20207881
Major fault: 0 Minor fault: 5869
Allocated PAGES: 5869
Completed 

DRAM Statistics
 CHANNEL 0
 RQ ROW_BUFFER_HIT:      58370  ROW_BUFFER_MISS:     235554
 DBUS_CONGESTED:        172
 WQ ROW_BUFFER_HIT:      28173  ROW_BUFFER_MISS:     183800  FULL:          0

 AVG_CONGESTED_CYCLE: 4
 All warmup complete: 2
Channel 0 Bank busy for read cycles: 0
Channel 0 Bank busy for write cycles: 0
Channel 0
Rank 0
0banks busy for read cycles: 377269056
0banks busy for write cycles: 118095
1banks busy for read cycles: 26733736
1banks busy for write cycles: 16548382
2banks busy for read cycles: 3689537
2banks busy for write cycles: 3966239
3banks busy for read cycles: 507369
3banks busy for write cycles: 1357473
4banks busy for read cycles: 192380
4banks busy for write cycles: 721136
5banks busy for read cycles: 104799
5banks busy for write cycles: 443324
6banks busy for read cycles: 77303
6banks busy for write cycles: 281798
7banks busy for read cycles: 54324
7banks busy for write cycles: 239538
8banks busy for read cycles: 59999
8banks busy for write cycles: 247831

CPU 0 Branch Prediction Accuracy: 99.8674% MPKI: 0.23804 Average ROB Occupancy at Mispredict: 58.2304
Branch types
NOT_BRANCH: 164099013 82.0495%
BRANCH_DIRECT_JUMP: 1780172 0.890086%
BRANCH_INDIRECT: 9535407 4.7677%
BRANCH_CONDITIONAL: 18237136 9.11857%
BRANCH_DIRECT_CALL: 2494547 1.24727%
BRANCH_INDIRECT_CALL: 678804 0.339402%
BRANCH_RETURN: 3174582 1.58729%
BRANCH_OTHER: 0 0%

DRAM PAGES: 1048576
Allocated PAGES: 5869
