
*** ChampSim Multicore Out-of-Order Simulator ***

Warmup Instructions: 50000000
Simulation Instructions: 200000000
Number of CPUs: 1
LLC sets: 2048
LLC ways: 16
Off-chip DRAM Size: 4096 MB Channels: 1 Width: 64-bit Data Rate: 6400 MT/s
CPU 0 runs traces/spec2k17/srv_30.champsimtrace.xz
.xz
BTB has LRU replacement policy
ITLB has LRU replacement policy
DTLB has LRU replacement policy
STLB has LRU replacement policy
L1I has LRU replacement policy
L1D has LRU replacement policy
Initialize SRRIP state for L2C
Initialize DRRIP state for LLC
Heartbeat CPU 0 instructions: 10000001 cycles: 2807067 heartbeat IPC: 3.56244 cumulative IPC: 3.56244 (Simulation time: 0 hr 0 min 42 sec) 
Heartbeat CPU 0 instructions: 20000002 cycles: 5612393 heartbeat IPC: 3.56465 cumulative IPC: 3.56354 (Simulation time: 0 hr 1 min 24 sec) 
Heartbeat CPU 0 instructions: 30000003 cycles: 8416654 heartbeat IPC: 3.566 cumulative IPC: 3.56436 (Simulation time: 0 hr 2 min 5 sec) 
*** Reached end of trace for Core: 0 Repeating trace: traces/spec2k17/srv_30.champsimtrace.xz
Heartbeat CPU 0 instructions: 40000003 cycles: 11222162 heartbeat IPC: 3.56442 cumulative IPC: 3.56438 (Simulation time: 0 hr 2 min 49 sec) 
Heartbeat CPU 0 instructions: 50000000 cycles: 14028280 heartbeat IPC: 3.56364 cumulative IPC: 3.56423 (Simulation time: 0 hr 3 min 29 sec) 

Warmup complete CPU 0 instructions: 50000004 cycles: 14028281 (Simulation time: 0 hr 3 min 29 sec) 

Heartbeat CPU 0 instructions: 60000003 cycles: 27945983 heartbeat IPC: 0.71851 cumulative IPC: 0.718509 (Simulation time: 0 hr 4 min 22 sec) 
*** Reached end of trace for Core: 0 Repeating trace: traces/spec2k17/srv_30.champsimtrace.xz
Heartbeat CPU 0 instructions: 70000000 cycles: 41920386 heartbeat IPC: 0.715594 cumulative IPC: 0.717049 (Simulation time: 0 hr 5 min 14 sec) 
Heartbeat CPU 0 instructions: 80000000 cycles: 55868122 heartbeat IPC: 0.716962 cumulative IPC: 0.71702 (Simulation time: 0 hr 6 min 8 sec) 
Heartbeat CPU 0 instructions: 90000001 cycles: 69743456 heartbeat IPC: 0.720703 cumulative IPC: 0.717937 (Simulation time: 0 hr 7 min 1 sec) 
*** Reached end of trace for Core: 0 Repeating trace: traces/spec2k17/srv_30.champsimtrace.xz
Heartbeat CPU 0 instructions: 100000001 cycles: 83501446 heartbeat IPC: 0.72685 cumulative IPC: 0.719702 (Simulation time: 0 hr 7 min 49 sec) 
Heartbeat CPU 0 instructions: 110000000 cycles: 97342321 heartbeat IPC: 0.722498 cumulative IPC: 0.720167 (Simulation time: 0 hr 8 min 42 sec) 
Heartbeat CPU 0 instructions: 120000003 cycles: 111472427 heartbeat IPC: 0.707709 cumulative IPC: 0.71836 (Simulation time: 0 hr 9 min 36 sec) 
*** Reached end of trace for Core: 0 Repeating trace: traces/spec2k17/srv_30.champsimtrace.xz
Heartbeat CPU 0 instructions: 130000000 cycles: 125263343 heartbeat IPC: 0.725115 cumulative IPC: 0.719198 (Simulation time: 0 hr 10 min 32 sec) 
Heartbeat CPU 0 instructions: 140000001 cycles: 139061482 heartbeat IPC: 0.724735 cumulative IPC: 0.719809 (Simulation time: 0 hr 11 min 23 sec) 
Heartbeat CPU 0 instructions: 150000000 cycles: 153192177 heartbeat IPC: 0.707679 cumulative IPC: 0.718577 (Simulation time: 0 hr 12 min 16 sec) 
*** Reached end of trace for Core: 0 Repeating trace: traces/spec2k17/srv_30.champsimtrace.xz
Heartbeat CPU 0 instructions: 160000003 cycles: 167009703 heartbeat IPC: 0.723719 cumulative IPC: 0.719042 (Simulation time: 0 hr 13 min 10 sec) 
Heartbeat CPU 0 instructions: 170000002 cycles: 180716713 heartbeat IPC: 0.729554 cumulative IPC: 0.719906 (Simulation time: 0 hr 14 min 5 sec) 
Heartbeat CPU 0 instructions: 180000001 cycles: 194667159 heartbeat IPC: 0.716823 cumulative IPC: 0.719668 (Simulation time: 0 hr 14 min 58 sec) 
Heartbeat CPU 0 instructions: 190000003 cycles: 208505480 heartbeat IPC: 0.722631 cumulative IPC: 0.719879 (Simulation time: 0 hr 15 min 51 sec) 
*** Reached end of trace for Core: 0 Repeating trace: traces/spec2k17/srv_30.champsimtrace.xz
Heartbeat CPU 0 instructions: 200000001 cycles: 222428396 heartbeat IPC: 0.71824 cumulative IPC: 0.719769 (Simulation time: 0 hr 16 min 43 sec) 
Heartbeat CPU 0 instructions: 210000000 cycles: 236345975 heartbeat IPC: 0.718516 cumulative IPC: 0.719691 (Simulation time: 0 hr 17 min 35 sec) 
Heartbeat CPU 0 instructions: 220000000 cycles: 250191172 heartbeat IPC: 0.722272 cumulative IPC: 0.719842 (Simulation time: 0 hr 18 min 29 sec) 
*** Reached end of trace for Core: 0 Repeating trace: traces/spec2k17/srv_30.champsimtrace.xz
Heartbeat CPU 0 instructions: 230000003 cycles: 264126343 heartbeat IPC: 0.717609 cumulative IPC: 0.719718 (Simulation time: 0 hr 19 min 20 sec) 
Heartbeat CPU 0 instructions: 240000001 cycles: 278014617 heartbeat IPC: 0.720032 cumulative IPC: 0.719734 (Simulation time: 0 hr 20 min 13 sec) 
Heartbeat CPU 0 instructions: 250000000 cycles: 291729433 heartbeat IPC: 0.729138 cumulative IPC: 0.720199 (Simulation time: 0 hr 21 min 6 sec) 
Finished CPU 0 instructions: 200000000 cycles: 277701153 cumulative IPC: 0.720199 (Simulation time: 0 hr 21 min 6 sec) 

ChampSim completed all CPUs

Region of Interest Statistics

CPU 0 cumulative IPC: 0.720199 instructions: 200000000 cycles: 277701153
ITLB TOTAL     ACCESS:   32450378  HIT:   32342882  MISS:     107496  HIT %:    99.6687  MISS %:   0.331263   MPKI: 0.53748
ITLB LOAD TRANSLATION ACCESS:   32450378  HIT:   32342882  MISS:     107496  HIT %:    99.6687  MISS %:   0.331263   MPKI: 0.53748
ITLB PREFETCH  REQUESTED:          0  ISSUED:          0  USEFUL:          0  USELESS:          0
ITLB USEFUL LOAD PREFETCHES:          0 PREFETCH ISSUED TO LOWER LEVEL:          0  ACCURACY: -nan
ITLB TIMELY PREFETCHES:          0 LATE PREFETCHES: 0 DROPPED PREFETCHES: 0
ITLB PREFETCHES SAME FILL-ORIGIN LEVEL: 0 DIFFERENT FILL-ORIGIN LEVEL: 0
ITLB AVERAGE MISS LATENCY: 10.6059 cycles
ITLB RQ	ACCESS:   38250063	FORWARD:          0	MERGED:    5764386	TO_CACHE:   32485677

DTLB TOTAL     ACCESS:   40781353  HIT:   38975881  MISS:    1805472  HIT %:    95.5728  MISS %:     4.4272   MPKI: 9.02736
DTLB LOAD TRANSLATION ACCESS:   40781353  HIT:   38975881  MISS:    1805472  HIT %:    95.5728  MISS %:     4.4272   MPKI: 9.02736
DTLB PREFETCH  REQUESTED:          0  ISSUED:          0  USEFUL:          0  USELESS:          0
DTLB USEFUL LOAD PREFETCHES:          0 PREFETCH ISSUED TO LOWER LEVEL:          0  ACCURACY: -nan
DTLB TIMELY PREFETCHES:          0 LATE PREFETCHES: 0 DROPPED PREFETCHES: 0
DTLB PREFETCHES SAME FILL-ORIGIN LEVEL: 0 DIFFERENT FILL-ORIGIN LEVEL: 0
DTLB AVERAGE MISS LATENCY: 10.0033 cycles
DTLB RQ	ACCESS:   54739823	FORWARD:          0	MERGED:   13776468	TO_CACHE:   40963355

STLB TOTAL     ACCESS:   16606518  HIT:   16520215  MISS:      86303  HIT %:    99.4803  MISS %:   0.519694   MPKI: 0.431515
STLB LOAD TRANSLATION ACCESS:    1912968  HIT:    1826863  MISS:      86105  HIT %:    95.4989  MISS %:    4.50112   MPKI: 0.430525
STLB TRANSLATION FROM L1D PREFETCHER ACCESS:   14693550  HIT:   14693352  MISS:        198  HIT %:    99.9987  MISS %: 0.00134753   MPKI: 0.00099
STLB PREFETCH  REQUESTED:          0  ISSUED:          0  USEFUL:        179  USELESS:         19
STLB USEFUL LOAD PREFETCHES:        179 PREFETCH ISSUED TO LOWER LEVEL:          0  ACCURACY: inf
STLB TIMELY PREFETCHES:        179 LATE PREFETCHES: 161 DROPPED PREFETCHES: 53796
STLB PREFETCHES SAME FILL-ORIGIN LEVEL: 0 DIFFERENT FILL-ORIGIN LEVEL: 0
STLB AVERAGE MISS LATENCY: 36.7695 cycles
STLB RQ	ACCESS:   20382463	FORWARD:          0	MERGED:    3721483	TO_CACHE:   16660980

STLB Hit, L1D data hit: 0
STLB Hit, L2C data hit: 0
STLB Hit, LLC data hit: 0
STLB Hit, LLC data miss: 0
STLB STLB hints to L2: 0
L1D TOTAL     ACCESS:   72374315  HIT:   71583659  MISS:     790656  HIT %:    98.9075  MISS %:    1.09245   MPKI: 3.95328
L1D LOAD      ACCESS:   30692661  HIT:   30259260  MISS:     433401  HIT %:    98.5879  MISS %:    1.41207   MPKI: 2.16701
L1D RFO       ACCESS:   23418558  HIT:   23280770  MISS:     137788  HIT %:    99.4116  MISS %:   0.588371   MPKI: 0.68894
L1D PREFETCH  ACCESS:   18263096  HIT:   18043629  MISS:     219467  HIT %:    98.7983  MISS %:     1.2017   MPKI: 1.09733
AGUS PREFETCH L1 MISS: 0
L1D PREFETCH  REQUESTED:   39585841  ISSUED:   39584703  USEFUL:      17655  USELESS:     201793
L1D USEFUL LOAD PREFETCHES:      17655 PREFETCH ISSUED TO LOWER LEVEL:     272150  ACCURACY: 6.48723
L1D TIMELY PREFETCHES:      17655 LATE PREFETCHES: 52678 DROPPED PREFETCHES: 58037
L1D PREFETCHES SAME FILL-ORIGIN LEVEL: 272150 DIFFERENT FILL-ORIGIN LEVEL: 0
L1D AVERAGE MISS LATENCY: 1.13003e+07 cycles
L1D RQ	ACCESS:   49504540	FORWARD:          0	MERGED:   18563913	TO_CACHE:   30819994
L1D WQ	ACCESS:   24177356	FORWARD:     202599	MERGED:     257527	TO_CACHE:   23919829
L1D PQ	ACCESS:   21115208	FORWARD:          0	MERGED:    2563747	TO_CACHE:   18469495

L1D UNIQUE REGIONS ACCESSED: 0
L1D REGIONS CONFLICTS: 0
L1D Cross Page Prefetch Requests: 16258544
L1D Same Page Prefetch Requests: 7171140
L1D ROI Sum of L1D PQ occupancy: 258230919
L1D PREFETCHES PUSHED FROM L2C: 0
L1I TOTAL     ACCESS:   38055809  HIT:   37412030  MISS:     643779  HIT %:    98.3083  MISS %:    1.69167   MPKI: 3.21889
L1I LOAD      ACCESS:   38055809  HIT:   37412030  MISS:     643779  HIT %:    98.3083  MISS %:    1.69167   MPKI: 3.21889
L1I PREFETCH  REQUESTED:          0  ISSUED:          0  USEFUL:          0  USELESS:          0
L1I USEFUL LOAD PREFETCHES:          0 PREFETCH ISSUED TO LOWER LEVEL:          0  ACCURACY: -nan
L1I TIMELY PREFETCHES:          0 LATE PREFETCHES: 0 DROPPED PREFETCHES: 0
L1I PREFETCHES SAME FILL-ORIGIN LEVEL: 0 DIFFERENT FILL-ORIGIN LEVEL: 0
L1I AVERAGE MISS LATENCY: 16.6253 cycles
L1I RQ	ACCESS:   60436345	FORWARD:          0	MERGED:   22186282	TO_CACHE:   38250063

BTB TOTAL     ACCESS:   29552303  HIT:   27894287  MISS:    1658016  HIT %:    94.3896  MISS %:    5.61045   MPKI: 8.29008
BTB BRANCH_DIRECT_JUMP	ACCESS:    2289018  HIT:    2287659  MISS:       1359
BTB BRANCH_INDIRECT	ACCESS:   12541857  HIT:   11996019  MISS:     545838
BTB BRANCH_CONDITIONAL	ACCESS:    7157854  HIT:    7155870  MISS:       1984
BTB BRANCH_DIRECT_CALL	ACCESS:    3331862  HIT:    3328374  MISS:       3488
BTB BRANCH_INDIRECT_CALL	ACCESS:     449927  HIT:     256803  MISS:     193124
BTB BRANCH_RETURN	ACCESS:    3781785  HIT:    2869562  MISS:     912223
BTB BRANCH_OTHER ACCESS:          0  HIT:          0  MISS:          0

L2C TOTAL     ACCESS:    1824870  HIT:    1314507  MISS:     510363  HIT %:    72.0329  MISS %:    27.9671   MPKI: 2.55181
L2C LOAD      ACCESS:    1024003  HIT:     701011  MISS:     322992  HIT %:    68.4579  MISS %:    31.5421   MPKI: 1.61496
L2C DATA LOAD MPKI: 1.41475
L2C INSTRUCTION LOAD MPKI: 0.200205
L2C RFO       ACCESS:     136350  HIT:      16614  MISS:     119736  HIT %:    12.1848  MISS %:    87.8152   MPKI: 0.59868
L2C PREFETCH  ACCESS:     272075  HIT:     236507  MISS:      35568  HIT %:    86.9271  MISS %:    13.0729   MPKI: 0.17784
AGUS PREFETCH L1 MISS: 0
L2C DATA PREFETCH MPKI: 0.17784
L2C INSTRUCTION PREFETCH MPKI: 0
L2C WRITEBACK ACCESS:     186351  HIT:     180952  MISS:       5399  HIT %:    97.1028  MISS %:    2.89722   MPKI: 0.026995
L2C LOAD TRANSLATION ACCESS:     122304  HIT:      96465  MISS:      25839  HIT %:    78.8731  MISS %:    21.1269   MPKI: 0.129195
L2C TRANSLATION FROM L1D PREFETCHER ACCESS:      83787  HIT:      82958  MISS:        829  HIT %:    99.0106  MISS %:   0.989414   MPKI: 0.004145
L2C PREFETCH  REQUESTED:          0  ISSUED:          0  USEFUL:       1809  USELESS:      34953
L2C USEFUL LOAD PREFETCHES:       1809 PREFETCH ISSUED TO LOWER LEVEL:      35568  ACCURACY: 5.08603
L2C TIMELY PREFETCHES:       1809 LATE PREFETCHES: 0 DROPPED PREFETCHES: 0
L2C PREFETCHES SAME FILL-ORIGIN LEVEL: 0 DIFFERENT FILL-ORIGIN LEVEL: 0
L2C AVERAGE MISS LATENCY: 111.768 cycles
L2C RQ	ACCESS:    1368376	FORWARD:          0	MERGED:          0	TO_CACHE:    1366444
L2C WQ	ACCESS:     186351	FORWARD:       2007	MERGED:          0	TO_CACHE:     186351
L2C PQ	ACCESS:     272150	FORWARD:          0	MERGED:          0	TO_CACHE:     272075

L2C Instructions Evicting Data 35900
L2C Translations Evicting Data 23327
L2C Data Evicting Data 379868
L2C Instructions Evicting Instructions 2316
L2C Translations Evicting Instructions 2077
L2C Data Evicting Instructions 35419
L2C Instructions Evicting Translations 1825
L2C Translations Evicting Translations 1264
L2C Data Evicting Translations 22968
L2C Dense regions hint from L2: 0
PSCL5 TOTAL     ACCESS:     139730  HIT:     139730  MISS:          0  HIT %:        100  MISS %:          0   MPKI: 0
PSCL5 LOAD TRANSLATION ACCESS:      85944  HIT:      85944  MISS:          0  HIT %:        100  MISS %:          0   MPKI: 0
PSCL5 TRANSLATION FROM L1D PREFETCHER ACCESS:      53786  HIT:      53786  MISS:          0  HIT %:        100  MISS %:          0   MPKI: 0
PSCL5 PREFETCH  REQUESTED:          0  ISSUED:          0  USEFUL:          0  USELESS:          0
PSCL5 USEFUL LOAD PREFETCHES:          0 PREFETCH ISSUED TO LOWER LEVEL:          0  ACCURACY: -nan
PSCL5 TIMELY PREFETCHES:          0 LATE PREFETCHES: 0 DROPPED PREFETCHES: 0
PSCL5 PREFETCHES SAME FILL-ORIGIN LEVEL: 0 DIFFERENT FILL-ORIGIN LEVEL: 0

PSCL4 TOTAL     ACCESS:     134681  HIT:     134537  MISS:        144  HIT %:    99.8931  MISS %:   0.106919   MPKI: 0.00072
PSCL4 LOAD TRANSLATION ACCESS:      83226  HIT:      83082  MISS:        144  HIT %:     99.827  MISS %:   0.173023   MPKI: 0.00072
PSCL4 TRANSLATION FROM L1D PREFETCHER ACCESS:      51455  HIT:      51455  MISS:          0  HIT %:        100  MISS %:          0   MPKI: 0
PSCL4 PREFETCH  REQUESTED:          0  ISSUED:          0  USEFUL:          0  USELESS:          0
PSCL4 USEFUL LOAD PREFETCHES:          0 PREFETCH ISSUED TO LOWER LEVEL:          0  ACCURACY: -nan
PSCL4 TIMELY PREFETCHES:          0 LATE PREFETCHES: 0 DROPPED PREFETCHES: 0
PSCL4 PREFETCHES SAME FILL-ORIGIN LEVEL: 0 DIFFERENT FILL-ORIGIN LEVEL: 0

PSCL3 TOTAL     ACCESS:     122111  HIT:     121661  MISS:        450  HIT %:    99.6315  MISS %:   0.368517   MPKI: 0.00225
PSCL3 LOAD TRANSLATION ACCESS:      85696  HIT:      85246  MISS:        450  HIT %:    99.4749  MISS %:   0.525112   MPKI: 0.00225
PSCL3 TRANSLATION FROM L1D PREFETCHER ACCESS:      36415  HIT:      36415  MISS:          0  HIT %:        100  MISS %:          0   MPKI: 0
PSCL3 PREFETCH  REQUESTED:          0  ISSUED:          0  USEFUL:          0  USELESS:          0
PSCL3 USEFUL LOAD PREFETCHES:          0 PREFETCH ISSUED TO LOWER LEVEL:          0  ACCURACY: -nan
PSCL3 TIMELY PREFETCHES:          0 LATE PREFETCHES: 0 DROPPED PREFETCHES: 0
PSCL3 PREFETCHES SAME FILL-ORIGIN LEVEL: 0 DIFFERENT FILL-ORIGIN LEVEL: 0

PSCL2 TOTAL     ACCESS:      87882  HIT:      52014  MISS:      35868  HIT %:    59.1862  MISS %:    40.8138   MPKI: 0.17934
PSCL2 LOAD TRANSLATION ACCESS:      86032  HIT:      50164  MISS:      35868  HIT %:    58.3085  MISS %:    41.6915   MPKI: 0.17934
PSCL2 TRANSLATION FROM L1D PREFETCHER ACCESS:       1850  HIT:       1850  MISS:          0  HIT %:        100  MISS %:          0   MPKI: 0
PSCL2 PREFETCH  REQUESTED:          0  ISSUED:          0  USEFUL:          0  USELESS:          0
PSCL2 USEFUL LOAD PREFETCHES:          0 PREFETCH ISSUED TO LOWER LEVEL:          0  ACCURACY: -nan
PSCL2 TIMELY PREFETCHES:          0 LATE PREFETCHES: 0 DROPPED PREFETCHES: 0
PSCL2 PREFETCHES SAME FILL-ORIGIN LEVEL: 0 DIFFERENT FILL-ORIGIN LEVEL: 0

LLC TOTAL     ACCESS:     662145  HIT:     390639  MISS:     271506  HIT %:     58.996  MISS %:     41.004   MPKI: 1.35753
LLC LOAD      ACCESS:     322992  HIT:     125489  MISS:     197503  HIT %:     38.852  MISS %:     61.148   MPKI: 0.987515
LLC RFO       ACCESS:     119736  HIT:      75337  MISS:      44399  HIT %:    62.9193  MISS %:    37.0807   MPKI: 0.221995
LLC PREFETCH  ACCESS:      35568  HIT:      11794  MISS:      23774  HIT %:     33.159  MISS %:     66.841   MPKI: 0.11887
AGUS PREFETCH L1 MISS: 0
LLC WRITEBACK ACCESS:     157181  HIT:     153581  MISS:       3600  HIT %:    97.7096  MISS %:    2.29035   MPKI: 0.018
LLC LOAD TRANSLATION ACCESS:      25839  HIT:      23873  MISS:       1966  HIT %:    92.3913  MISS %:    7.60865   MPKI: 0.00983
LLC TRANSLATION FROM L1D PREFETCHER ACCESS:        829  HIT:        565  MISS:        264  HIT %:    68.1544  MISS %:    31.8456   MPKI: 0.00132
LLC PREFETCH  REQUESTED:          0  ISSUED:          0  USEFUL:        480  USELESS:      25672
LLC USEFUL LOAD PREFETCHES:        480 PREFETCH ISSUED TO LOWER LEVEL:      23774  ACCURACY: 2.01901
LLC TIMELY PREFETCHES:        480 LATE PREFETCHES: 0 DROPPED PREFETCHES: 0
LLC PREFETCHES SAME FILL-ORIGIN LEVEL: 0 DIFFERENT FILL-ORIGIN LEVEL: 0
LLC AVERAGE MISS LATENCY: 154.295 cycles
LLC RQ	ACCESS:     469396	FORWARD:          0	MERGED:          0	TO_CACHE:     469396
LLC WQ	ACCESS:     157181	FORWARD:          0	MERGED:          0	TO_CACHE:     157181
LLC PQ	ACCESS:      35568	FORWARD:          0	MERGED:          0	TO_CACHE:      35568

LLC Dense regions hint to LLC: 0

RAW hits: 2386382
Loads Generated: 51890921
Loads sent to L1D: 49504540
Stores Generated: 24177353
Stores sent to L1D: 24177356
Major fault: 0 Minor fault: 6174
Allocated PAGES: 6174
Completed 

DRAM Statistics
 CHANNEL 0
 RQ ROW_BUFFER_HIT:      61323  ROW_BUFFER_MISS:     206558
 DBUS_CONGESTED:        216
 WQ ROW_BUFFER_HIT:      10623  ROW_BUFFER_MISS:      44114  FULL:          0

 AVG_CONGESTED_CYCLE: 5
 All warmup complete: 2
Channel 0 Bank busy for read cycles: 0
Channel 0 Bank busy for write cycles: 0
Channel 0
Rank 0
0banks busy for read cycles: 246076293
0banks busy for write cycles: 29339
1banks busy for read cycles: 21803344
1banks busy for write cycles: 5130773
2banks busy for read cycles: 1356760
2banks busy for write cycles: 663083
3banks busy for read cycles: 478215
3banks busy for write cycles: 182134
4banks busy for read cycles: 337462
4banks busy for write cycles: 118522
5banks busy for read cycles: 272379
5banks busy for write cycles: 101088
6banks busy for read cycles: 251616
6banks busy for write cycles: 96477
7banks busy for read cycles: 235302
7banks busy for write cycles: 112671
8banks busy for read cycles: 279175
8banks busy for write cycles: 176521

CPU 0 Branch Prediction Accuracy: 99.7854% MPKI: 0.39192 Average ROB Occupancy at Mispredict: 19.432
Branch types
NOT_BRANCH: 163480475 81.7402%
BRANCH_DIRECT_JUMP: 2289018 1.14451%
BRANCH_INDIRECT: 12541857 6.27093%
BRANCH_CONDITIONAL: 14124865 7.06243%
BRANCH_DIRECT_CALL: 3331862 1.66593%
BRANCH_INDIRECT_CALL: 449927 0.224964%
BRANCH_RETURN: 3781785 1.89089%
BRANCH_OTHER: 0 0%

DRAM PAGES: 1048576
Allocated PAGES: 6174
