
*** ChampSim Multicore Out-of-Order Simulator ***

Warmup Instructions: 50000000
Simulation Instructions: 200000000
Number of CPUs: 1
LLC sets: 2048
LLC ways: 16
Off-chip DRAM Size: 4096 MB Channels: 1 Width: 64-bit Data Rate: 6400 MT/s
CPU 0 runs traces/spec2k17/srv_16.champsimtrace.xz
.xz
BTB has LRU replacement policy
ITLB has LRU replacement policy
DTLB has LRU replacement policy
STLB has LRU replacement policy
L1I has LRU replacement policy
L1D has LRU replacement policy
Initialize SRRIP state for L2C
Initialize DRRIP state for LLC
Heartbeat CPU 0 instructions: 10000000 cycles: 2839663 heartbeat IPC: 3.52154 cumulative IPC: 3.52154 (Simulation time: 0 hr 0 min 36 sec) 
Heartbeat CPU 0 instructions: 20000002 cycles: 5675406 heartbeat IPC: 3.52641 cumulative IPC: 3.52398 (Simulation time: 0 hr 1 min 11 sec) 
Heartbeat CPU 0 instructions: 30000003 cycles: 8508810 heartbeat IPC: 3.52932 cumulative IPC: 3.52576 (Simulation time: 0 hr 1 min 46 sec) 
*** Reached end of trace for Core: 0 Repeating trace: traces/spec2k17/srv_16.champsimtrace.xz
Heartbeat CPU 0 instructions: 40000001 cycles: 11345626 heartbeat IPC: 3.52508 cumulative IPC: 3.52559 (Simulation time: 0 hr 2 min 23 sec) 
Heartbeat CPU 0 instructions: 50000003 cycles: 14187746 heartbeat IPC: 3.5185 cumulative IPC: 3.52417 (Simulation time: 0 hr 3 min 1 sec) 

Warmup complete CPU 0 instructions: 50000003 cycles: 14187746 (Simulation time: 0 hr 3 min 1 sec) 

Heartbeat CPU 0 instructions: 60000001 cycles: 47776498 heartbeat IPC: 0.297719 cumulative IPC: 0.297719 (Simulation time: 0 hr 3 min 52 sec) 
*** Reached end of trace for Core: 0 Repeating trace: traces/spec2k17/srv_16.champsimtrace.xz
Heartbeat CPU 0 instructions: 70000001 cycles: 81412844 heartbeat IPC: 0.297297 cumulative IPC: 0.297508 (Simulation time: 0 hr 4 min 49 sec) 
Heartbeat CPU 0 instructions: 80000000 cycles: 114917237 heartbeat IPC: 0.298468 cumulative IPC: 0.297827 (Simulation time: 0 hr 5 min 50 sec) 
Heartbeat CPU 0 instructions: 90000000 cycles: 148154681 heartbeat IPC: 0.300866 cumulative IPC: 0.298581 (Simulation time: 0 hr 6 min 53 sec) 
*** Reached end of trace for Core: 0 Repeating trace: traces/spec2k17/srv_16.champsimtrace.xz
Heartbeat CPU 0 instructions: 100000003 cycles: 181232906 heartbeat IPC: 0.302314 cumulative IPC: 0.29932 (Simulation time: 0 hr 7 min 57 sec) 
Heartbeat CPU 0 instructions: 110000000 cycles: 214315752 heartbeat IPC: 0.302271 cumulative IPC: 0.299808 (Simulation time: 0 hr 9 min 3 sec) 
Heartbeat CPU 0 instructions: 120000001 cycles: 247256790 heartbeat IPC: 0.303573 cumulative IPC: 0.30034 (Simulation time: 0 hr 10 min 5 sec) 
*** Reached end of trace for Core: 0 Repeating trace: traces/spec2k17/srv_16.champsimtrace.xz
Heartbeat CPU 0 instructions: 130000003 cycles: 280215479 heartbeat IPC: 0.30341 cumulative IPC: 0.300721 (Simulation time: 0 hr 11 min 8 sec) 
Heartbeat CPU 0 instructions: 140000001 cycles: 313231859 heartbeat IPC: 0.30288 cumulative IPC: 0.300959 (Simulation time: 0 hr 12 min 11 sec) 
Heartbeat CPU 0 instructions: 150000000 cycles: 346140009 heartbeat IPC: 0.303876 cumulative IPC: 0.301248 (Simulation time: 0 hr 13 min 15 sec) 
*** Reached end of trace for Core: 0 Repeating trace: traces/spec2k17/srv_16.champsimtrace.xz
Heartbeat CPU 0 instructions: 160000001 cycles: 379028576 heartbeat IPC: 0.304057 cumulative IPC: 0.301501 (Simulation time: 0 hr 14 min 20 sec) 
Heartbeat CPU 0 instructions: 170000002 cycles: 412058754 heartbeat IPC: 0.302753 cumulative IPC: 0.301605 (Simulation time: 0 hr 15 min 26 sec) 
Heartbeat CPU 0 instructions: 180000002 cycles: 444992700 heartbeat IPC: 0.303638 cumulative IPC: 0.301761 (Simulation time: 0 hr 16 min 32 sec) 
*** Reached end of trace for Core: 0 Repeating trace: traces/spec2k17/srv_16.champsimtrace.xz
Heartbeat CPU 0 instructions: 190000003 cycles: 477872340 heartbeat IPC: 0.30414 cumulative IPC: 0.301929 (Simulation time: 0 hr 17 min 40 sec) 
Heartbeat CPU 0 instructions: 200000002 cycles: 510924804 heartbeat IPC: 0.302549 cumulative IPC: 0.301971 (Simulation time: 0 hr 18 min 43 sec) 
Heartbeat CPU 0 instructions: 210000001 cycles: 543913467 heartbeat IPC: 0.303134 cumulative IPC: 0.302043 (Simulation time: 0 hr 19 min 46 sec) 
*** Reached end of trace for Core: 0 Repeating trace: traces/spec2k17/srv_16.champsimtrace.xz
Heartbeat CPU 0 instructions: 220000000 cycles: 576744541 heartbeat IPC: 0.304589 cumulative IPC: 0.302192 (Simulation time: 0 hr 20 min 48 sec) 
Heartbeat CPU 0 instructions: 230000001 cycles: 609740132 heartbeat IPC: 0.303071 cumulative IPC: 0.30224 (Simulation time: 0 hr 21 min 50 sec) 
Heartbeat CPU 0 instructions: 240000000 cycles: 642687282 heartbeat IPC: 0.303516 cumulative IPC: 0.302307 (Simulation time: 0 hr 22 min 52 sec) 
Heartbeat CPU 0 instructions: 250000003 cycles: 675490730 heartbeat IPC: 0.304846 cumulative IPC: 0.302433 (Simulation time: 0 hr 23 min 53 sec) 
Finished CPU 0 instructions: 200000000 cycles: 661302984 cumulative IPC: 0.302433 (Simulation time: 0 hr 23 min 53 sec) 

ChampSim completed all CPUs

Region of Interest Statistics

CPU 0 cumulative IPC: 0.302433 instructions: 200000000 cycles: 661302984
ITLB TOTAL     ACCESS:   35384001  HIT:   32957313  MISS:    2426688  HIT %:    93.1418  MISS %:    6.85815   MPKI: 12.1334
ITLB LOAD TRANSLATION ACCESS:   35384001  HIT:   32957313  MISS:    2426688  HIT %:    93.1418  MISS %:    6.85815   MPKI: 12.1334
ITLB PREFETCH  REQUESTED:          0  ISSUED:          0  USEFUL:          0  USELESS:          0
ITLB USEFUL LOAD PREFETCHES:          0 PREFETCH ISSUED TO LOWER LEVEL:          0  ACCURACY: -nan
ITLB TIMELY PREFETCHES:          0 LATE PREFETCHES: 0 DROPPED PREFETCHES: 0
ITLB PREFETCHES SAME FILL-ORIGIN LEVEL: 0 DIFFERENT FILL-ORIGIN LEVEL: 0
ITLB AVERAGE MISS LATENCY: 9.02077 cycles
ITLB RQ	ACCESS:   41973488	FORWARD:          0	MERGED:    6023754	TO_CACHE:   35949734

DTLB TOTAL     ACCESS:   47534693  HIT:   45561842  MISS:    1972851  HIT %:    95.8497  MISS %:    4.15034   MPKI: 9.86425
DTLB LOAD TRANSLATION ACCESS:   47534693  HIT:   45561842  MISS:    1972851  HIT %:    95.8497  MISS %:    4.15034   MPKI: 9.86425
DTLB PREFETCH  REQUESTED:          0  ISSUED:          0  USEFUL:          0  USELESS:          0
DTLB USEFUL LOAD PREFETCHES:          0 PREFETCH ISSUED TO LOWER LEVEL:          0  ACCURACY: -nan
DTLB TIMELY PREFETCHES:          0 LATE PREFETCHES: 0 DROPPED PREFETCHES: 0
DTLB PREFETCHES SAME FILL-ORIGIN LEVEL: 0 DIFFERENT FILL-ORIGIN LEVEL: 0
DTLB AVERAGE MISS LATENCY: 8.08026 cycles
DTLB RQ	ACCESS:   62713027	FORWARD:          0	MERGED:   15131682	TO_CACHE:   47581345

STLB TOTAL     ACCESS:   23071145  HIT:   23069290  MISS:       1855  HIT %:     99.992  MISS %: 0.00804035   MPKI: 0.009275
STLB LOAD TRANSLATION ACCESS:    4399539  HIT:    4398003  MISS:       1536  HIT %:    99.9651  MISS %:  0.0349127   MPKI: 0.00768
STLB TRANSLATION FROM L1D PREFETCHER ACCESS:   18671606  HIT:   18671287  MISS:        319  HIT %:    99.9983  MISS %: 0.00170848   MPKI: 0.001595
STLB PREFETCH  REQUESTED:          0  ISSUED:          0  USEFUL:        301  USELESS:         18
STLB USEFUL LOAD PREFETCHES:        301 PREFETCH ISSUED TO LOWER LEVEL:          0  ACCURACY: inf
STLB TIMELY PREFETCHES:        301 LATE PREFETCHES: 25 DROPPED PREFETCHES: 318214
STLB PREFETCHES SAME FILL-ORIGIN LEVEL: 0 DIFFERENT FILL-ORIGIN LEVEL: 0
STLB AVERAGE MISS LATENCY: 28.5229 cycles
STLB RQ	ACCESS:   28182160	FORWARD:          0	MERGED:    4792404	TO_CACHE:   23389756

STLB Hit, L1D data hit: 0
STLB Hit, L2C data hit: 0
STLB Hit, LLC data hit: 0
STLB Hit, LLC data miss: 0
STLB STLB hints to L2: 0
L1D TOTAL     ACCESS:   83449513  HIT:   78699275  MISS:    4750238  HIT %:    94.3077  MISS %:    5.69235   MPKI: 23.7512
L1D LOAD      ACCESS:   34731565  HIT:   32727550  MISS:    2004015  HIT %:      94.23  MISS %:    5.77001   MPKI: 10.0201
L1D RFO       ACCESS:   26315864  HIT:   25207466  MISS:    1108398  HIT %:    95.7881  MISS %:     4.2119   MPKI: 5.54199
L1D PREFETCH  ACCESS:   22402084  HIT:   20764259  MISS:    1637825  HIT %:     92.689  MISS %:    7.31104   MPKI: 8.18913
AGUS PREFETCH L1 MISS: 0
L1D PREFETCH  REQUESTED:   49549111  ISSUED:   49548623  USEFUL:    1379649  USELESS:     258152
L1D USEFUL LOAD PREFETCHES:    1379649 PREFETCH ISSUED TO LOWER LEVEL:    2166782  ACCURACY: 63.6727
L1D TIMELY PREFETCHES:    1379649 LATE PREFETCHES: 521953 DROPPED PREFETCHES: 365591
L1D PREFETCHES SAME FILL-ORIGIN LEVEL: 2166782 DIFFERENT FILL-ORIGIN LEVEL: 0
L1D AVERAGE MISS LATENCY: 4.48739e+07 cycles
L1D RQ	ACCESS:   47224490	FORWARD:          0	MERGED:   12053777	TO_CACHE:   34821314
L1D WQ	ACCESS:   28035950	FORWARD:     392811	MERGED:     144237	TO_CACHE:   27891713
L1D PQ	ACCESS:   25766002	FORWARD:          0	MERGED:    1939969	TO_CACHE:   23782621

L1D UNIQUE REGIONS ACCESSED: 0
L1D REGIONS CONFLICTS: 0
L1D Cross Page Prefetch Requests: 19097579
L1D Same Page Prefetch Requests: 7235168
L1D ROI Sum of L1D PQ occupancy: 344014642
L1D PREFETCHES PUSHED FROM L2C: 0
L1I TOTAL     ACCESS:   40173515  HIT:   27971905  MISS:   12201610  HIT %:    69.6277  MISS %:    30.3723   MPKI: 61.008
L1I LOAD      ACCESS:   40173515  HIT:   27971905  MISS:   12201610  HIT %:    69.6277  MISS %:    30.3723   MPKI: 61.008
L1I PREFETCH  REQUESTED:          0  ISSUED:          0  USEFUL:          0  USELESS:          0
L1I USEFUL LOAD PREFETCHES:          0 PREFETCH ISSUED TO LOWER LEVEL:          0  ACCURACY: -nan
L1I TIMELY PREFETCHES:          0 LATE PREFETCHES: 0 DROPPED PREFETCHES: 0
L1I PREFETCHES SAME FILL-ORIGIN LEVEL: 0 DIFFERENT FILL-ORIGIN LEVEL: 0
L1I AVERAGE MISS LATENCY: 15.5769 cycles
L1I RQ	ACCESS:   58896168	FORWARD:          0	MERGED:   16922680	TO_CACHE:   41973488

BTB TOTAL     ACCESS:   30243090  HIT:   16698409  MISS:   13544681  HIT %:     55.214  MISS %:     44.786   MPKI: 67.7234
BTB BRANCH_DIRECT_JUMP	ACCESS:    1963388  HIT:    1087332  MISS:     876056
BTB BRANCH_INDIRECT	ACCESS:   12759698  HIT:    7591616  MISS:    5168082
BTB BRANCH_CONDITIONAL	ACCESS:    5682628  HIT:    4287581  MISS:    1395047
BTB BRANCH_DIRECT_CALL	ACCESS:    4145072  HIT:    1929113  MISS:    2215959
BTB BRANCH_INDIRECT_CALL	ACCESS:     773633  HIT:     372148  MISS:     401485
BTB BRANCH_RETURN	ACCESS:    4918671  HIT:    1430619  MISS:    3488052
BTB BRANCH_OTHER ACCESS:          0  HIT:          0  MISS:          0

L2C TOTAL     ACCESS:   19693137  HIT:   18795033  MISS:     898104  HIT %:    95.4395  MISS %:    4.56049   MPKI: 4.49052
L2C LOAD      ACCESS:   13683289  HIT:   12949971  MISS:     733318  HIT %:    94.6408  MISS %:    5.35922   MPKI: 3.66659
L2C DATA LOAD MPKI: 0.614825
L2C INSTRUCTION LOAD MPKI: 3.05177
L2C RFO       ACCESS:    1101394  HIT:    1084331  MISS:      17063  HIT %:    98.4508  MISS %:    1.54922   MPKI: 0.085315
L2C PREFETCH  ACCESS:    2166670  HIT:    2050209  MISS:     116461  HIT %:    94.6249  MISS %:    5.37511   MPKI: 0.582305
AGUS PREFETCH L1 MISS: 0
L2C DATA PREFETCH MPKI: 0.582305
L2C INSTRUCTION PREFETCH MPKI: 0
L2C WRITEBACK ACCESS:    2313465  HIT:    2301849  MISS:      11616  HIT %:    99.4979  MISS %:   0.502104   MPKI: 0.05808
L2C LOAD TRANSLATION ACCESS:       1515  HIT:        995  MISS:        520  HIT %:    65.6766  MISS %:    34.3234   MPKI: 0.0026
L2C TRANSLATION FROM L1D PREFETCHER ACCESS:     426804  HIT:     407678  MISS:      19126  HIT %:    95.5188  MISS %:    4.48121   MPKI: 0.09563
L2C PREFETCH  REQUESTED:          0  ISSUED:          0  USEFUL:      11392  USELESS:     124427
L2C USEFUL LOAD PREFETCHES:      11392 PREFETCH ISSUED TO LOWER LEVEL:     116461  ACCURACY: 9.78182
L2C TIMELY PREFETCHES:      11392 LATE PREFETCHES: 0 DROPPED PREFETCHES: 0
L2C PREFETCHES SAME FILL-ORIGIN LEVEL: 0 DIFFERENT FILL-ORIGIN LEVEL: 0
L2C AVERAGE MISS LATENCY: 30.2577 cycles
L2C RQ	ACCESS:   15213383	FORWARD:          0	MERGED:          0	TO_CACHE:   15213001
L2C WQ	ACCESS:    2313465	FORWARD:        494	MERGED:          0	TO_CACHE:    2313465
L2C PQ	ACCESS:    2166782	FORWARD:          0	MERGED:          0	TO_CACHE:    2166670

L2C Instructions Evicting Data 121816
L2C Translations Evicting Data 8348
L2C Data Evicting Data 135681
L2C Instructions Evicting Instructions 480123
L2C Translations Evicting Instructions 9756
L2C Data Evicting Instructions 111530
L2C Instructions Evicting Translations 8414
L2C Translations Evicting Translations 1541
L2C Data Evicting Translations 9275
L2C Dense regions hint from L2: 0
PSCL5 TOTAL     ACCESS:     312218  HIT:     312218  MISS:          0  HIT %:        100  MISS %:          0   MPKI: 0
PSCL5 LOAD TRANSLATION ACCESS:       1511  HIT:       1511  MISS:          0  HIT %:        100  MISS %:          0   MPKI: 0
PSCL5 TRANSLATION FROM L1D PREFETCHER ACCESS:     310707  HIT:     310707  MISS:          0  HIT %:        100  MISS %:          0   MPKI: 0
PSCL5 PREFETCH  REQUESTED:          0  ISSUED:          0  USEFUL:          0  USELESS:          0
PSCL5 USEFUL LOAD PREFETCHES:          0 PREFETCH ISSUED TO LOWER LEVEL:          0  ACCURACY: -nan
PSCL5 TIMELY PREFETCHES:          0 LATE PREFETCHES: 0 DROPPED PREFETCHES: 0
PSCL5 PREFETCHES SAME FILL-ORIGIN LEVEL: 0 DIFFERENT FILL-ORIGIN LEVEL: 0

PSCL4 TOTAL     ACCESS:     269861  HIT:     269861  MISS:          0  HIT %:        100  MISS %:          0   MPKI: 0
PSCL4 LOAD TRANSLATION ACCESS:       1511  HIT:       1511  MISS:          0  HIT %:        100  MISS %:          0   MPKI: 0
PSCL4 TRANSLATION FROM L1D PREFETCHER ACCESS:     268350  HIT:     268350  MISS:          0  HIT %:        100  MISS %:          0   MPKI: 0
PSCL4 PREFETCH  REQUESTED:          0  ISSUED:          0  USEFUL:          0  USELESS:          0
PSCL4 USEFUL LOAD PREFETCHES:          0 PREFETCH ISSUED TO LOWER LEVEL:          0  ACCURACY: -nan
PSCL4 TIMELY PREFETCHES:          0 LATE PREFETCHES: 0 DROPPED PREFETCHES: 0
PSCL4 PREFETCHES SAME FILL-ORIGIN LEVEL: 0 DIFFERENT FILL-ORIGIN LEVEL: 0

PSCL3 TOTAL     ACCESS:     252965  HIT:     252965  MISS:          0  HIT %:        100  MISS %:          0   MPKI: 0
PSCL3 LOAD TRANSLATION ACCESS:       1511  HIT:       1511  MISS:          0  HIT %:        100  MISS %:          0   MPKI: 0
PSCL3 TRANSLATION FROM L1D PREFETCHER ACCESS:     251454  HIT:     251454  MISS:          0  HIT %:        100  MISS %:          0   MPKI: 0
PSCL3 PREFETCH  REQUESTED:          0  ISSUED:          0  USEFUL:          0  USELESS:          0
PSCL3 USEFUL LOAD PREFETCHES:          0 PREFETCH ISSUED TO LOWER LEVEL:          0  ACCURACY: -nan
PSCL3 TIMELY PREFETCHES:          0 LATE PREFETCHES: 0 DROPPED PREFETCHES: 0
PSCL3 PREFETCHES SAME FILL-ORIGIN LEVEL: 0 DIFFERENT FILL-ORIGIN LEVEL: 0

PSCL2 TOTAL     ACCESS:      89548  HIT:      89541  MISS:          7  HIT %:    99.9922  MISS %: 0.00781704   MPKI: 3.5e-05
PSCL2 LOAD TRANSLATION ACCESS:       1514  HIT:       1507  MISS:          7  HIT %:    99.5376  MISS %:   0.462351   MPKI: 3.5e-05
PSCL2 TRANSLATION FROM L1D PREFETCHER ACCESS:      88034  HIT:      88034  MISS:          0  HIT %:        100  MISS %:          0   MPKI: 0
PSCL2 PREFETCH  REQUESTED:          0  ISSUED:          0  USEFUL:          0  USELESS:          0
PSCL2 USEFUL LOAD PREFETCHES:          0 PREFETCH ISSUED TO LOWER LEVEL:          0  ACCURACY: -nan
PSCL2 TIMELY PREFETCHES:          0 LATE PREFETCHES: 0 DROPPED PREFETCHES: 0
PSCL2 PREFETCHES SAME FILL-ORIGIN LEVEL: 0 DIFFERENT FILL-ORIGIN LEVEL: 0

LLC TOTAL     ACCESS:     915259  HIT:     911775  MISS:       3484  HIT %:    99.6193  MISS %:   0.380657   MPKI: 0.01742
LLC LOAD      ACCESS:     733318  HIT:     732522  MISS:        796  HIT %:    99.8915  MISS %:   0.108548   MPKI: 0.00398
LLC RFO       ACCESS:      17063  HIT:      17063  MISS:          0  HIT %:        100  MISS %:          0   MPKI: 0
LLC PREFETCH  ACCESS:     116461  HIT:     114324  MISS:       2137  HIT %:    98.1651  MISS %:    1.83495   MPKI: 0.010685
AGUS PREFETCH L1 MISS: 0
LLC WRITEBACK ACCESS:      28771  HIT:      28763  MISS:          8  HIT %:    99.9722  MISS %:  0.0278058   MPKI: 4e-05
LLC LOAD TRANSLATION ACCESS:        520  HIT:        520  MISS:          0  HIT %:        100  MISS %:          0   MPKI: 0
LLC TRANSLATION FROM L1D PREFETCHER ACCESS:      19126  HIT:      18583  MISS:        543  HIT %:    97.1609  MISS %:    2.83907   MPKI: 0.002715
LLC PREFETCH  REQUESTED:          0  ISSUED:          0  USEFUL:       2324  USELESS:        389
LLC USEFUL LOAD PREFETCHES:       2324 PREFETCH ISSUED TO LOWER LEVEL:       2137  ACCURACY: 108.751
LLC TIMELY PREFETCHES:       2324 LATE PREFETCHES: 0 DROPPED PREFETCHES: 0
LLC PREFETCHES SAME FILL-ORIGIN LEVEL: 0 DIFFERENT FILL-ORIGIN LEVEL: 0
LLC AVERAGE MISS LATENCY: 166.434 cycles
LLC RQ	ACCESS:     770027	FORWARD:          0	MERGED:          0	TO_CACHE:     770027
LLC WQ	ACCESS:      28771	FORWARD:          0	MERGED:          0	TO_CACHE:      28771
LLC PQ	ACCESS:     116461	FORWARD:          0	MERGED:          0	TO_CACHE:     116461

LLC Dense regions hint to LLC: 0

RAW hits: 1500860
Loads Generated: 48725350
Loads sent to L1D: 47224490
Stores Generated: 28035942
Stores sent to L1D: 28035950
Major fault: 0 Minor fault: 1271
Allocated PAGES: 1271
Completed 

DRAM Statistics
 CHANNEL 0
 RQ ROW_BUFFER_HIT:        140  ROW_BUFFER_MISS:       3336
 DBUS_CONGESTED:          0
 WQ ROW_BUFFER_HIT:          0  ROW_BUFFER_MISS:          5  FULL:          0

 AVG_CONGESTED_CYCLE: -
 All warmup complete: 2
Channel 0 Bank busy for read cycles: 0
Channel 0 Bank busy for write cycles: 0
Channel 0
Rank 0
0banks busy for read cycles: 660865766
0banks busy for write cycles: 5
1banks busy for read cycles: 373088
1banks busy for write cycles: 750
2banks busy for read cycles: 56415
2banks busy for write cycles: 0
3banks busy for read cycles: 6362
3banks busy for write cycles: 0
4banks busy for read cycles: 599
4banks busy for write cycles: 0
5banks busy for read cycles: 0
5banks busy for write cycles: 0
6banks busy for read cycles: 0
6banks busy for write cycles: 0
7banks busy for read cycles: 0
7banks busy for write cycles: 0
8banks busy for read cycles: 0
8banks busy for write cycles: 0

CPU 0 Branch Prediction Accuracy: 99.9106% MPKI: 0.158745 Average ROB Occupancy at Mispredict: 30.8242
Branch types
NOT_BRANCH: 164493954 82.247%
BRANCH_DIRECT_JUMP: 1963388 0.981694%
BRANCH_INDIRECT: 12759698 6.37985%
BRANCH_CONDITIONAL: 10945421 5.47271%
BRANCH_DIRECT_CALL: 4145072 2.07254%
BRANCH_INDIRECT_CALL: 773633 0.386817%
BRANCH_RETURN: 4918671 2.45934%
BRANCH_OTHER: 0 0%

DRAM PAGES: 1048576
Allocated PAGES: 1271
