
*** ChampSim Multicore Out-of-Order Simulator ***

Warmup Instructions: 50000000
Simulation Instructions: 200000000
Number of CPUs: 1
LLC sets: 2048
LLC ways: 16
Off-chip DRAM Size: 4096 MB Channels: 1 Width: 64-bit Data Rate: 6400 MT/s
CPU 0 runs traces/spec2k17/srv_24.champsimtrace.xz
.xz
BTB has LRU replacement policy
ITLB has LRU replacement policy
DTLB has LRU replacement policy
STLB has LRU replacement policy
L1I has LRU replacement policy
L1D has LRU replacement policy
Initialize SRRIP state for L2C
Initialize DRRIP state for LLC
Heartbeat CPU 0 instructions: 10000000 cycles: 2832486 heartbeat IPC: 3.53047 cumulative IPC: 3.53047 (Simulation time: 0 hr 0 min 40 sec) 
Heartbeat CPU 0 instructions: 20000000 cycles: 5661390 heartbeat IPC: 3.53494 cumulative IPC: 3.5327 (Simulation time: 0 hr 1 min 19 sec) 
Heartbeat CPU 0 instructions: 30000001 cycles: 8490989 heartbeat IPC: 3.53407 cumulative IPC: 3.53316 (Simulation time: 0 hr 1 min 58 sec) 
*** Reached end of trace for Core: 0 Repeating trace: traces/spec2k17/srv_24.champsimtrace.xz
Heartbeat CPU 0 instructions: 40000002 cycles: 11321156 heartbeat IPC: 3.53336 cumulative IPC: 3.53321 (Simulation time: 0 hr 2 min 36 sec) 
Heartbeat CPU 0 instructions: 50000001 cycles: 14155368 heartbeat IPC: 3.52832 cumulative IPC: 3.53223 (Simulation time: 0 hr 3 min 16 sec) 

Warmup complete CPU 0 instructions: 50000001 cycles: 14155368 (Simulation time: 0 hr 3 min 16 sec) 

Heartbeat CPU 0 instructions: 60000000 cycles: 47583797 heartbeat IPC: 0.299147 cumulative IPC: 0.299147 (Simulation time: 0 hr 4 min 18 sec) 
*** Reached end of trace for Core: 0 Repeating trace: traces/spec2k17/srv_24.champsimtrace.xz
Heartbeat CPU 0 instructions: 70000000 cycles: 80952359 heartbeat IPC: 0.299683 cumulative IPC: 0.299415 (Simulation time: 0 hr 5 min 26 sec) 
Heartbeat CPU 0 instructions: 80000002 cycles: 114163526 heartbeat IPC: 0.301104 cumulative IPC: 0.299976 (Simulation time: 0 hr 6 min 28 sec) 
Heartbeat CPU 0 instructions: 90000000 cycles: 147250916 heartbeat IPC: 0.30223 cumulative IPC: 0.300536 (Simulation time: 0 hr 7 min 30 sec) 
*** Reached end of trace for Core: 0 Repeating trace: traces/spec2k17/srv_24.champsimtrace.xz
Heartbeat CPU 0 instructions: 100000001 cycles: 180058477 heartbeat IPC: 0.304808 cumulative IPC: 0.301381 (Simulation time: 0 hr 8 min 32 sec) 
Heartbeat CPU 0 instructions: 110000000 cycles: 212770497 heartbeat IPC: 0.305698 cumulative IPC: 0.302092 (Simulation time: 0 hr 9 min 37 sec) 
Heartbeat CPU 0 instructions: 120000001 cycles: 245501287 heartbeat IPC: 0.305523 cumulative IPC: 0.302577 (Simulation time: 0 hr 10 min 39 sec) 
*** Reached end of trace for Core: 0 Repeating trace: traces/spec2k17/srv_24.champsimtrace.xz
Heartbeat CPU 0 instructions: 130000003 cycles: 278220478 heartbeat IPC: 0.305631 cumulative IPC: 0.302956 (Simulation time: 0 hr 11 min 45 sec) 
Heartbeat CPU 0 instructions: 140000003 cycles: 310871975 heartbeat IPC: 0.306265 cumulative IPC: 0.30332 (Simulation time: 0 hr 12 min 48 sec) 
Heartbeat CPU 0 instructions: 150000003 cycles: 343549176 heartbeat IPC: 0.306024 cumulative IPC: 0.303588 (Simulation time: 0 hr 13 min 49 sec) 
*** Reached end of trace for Core: 0 Repeating trace: traces/spec2k17/srv_24.champsimtrace.xz
Heartbeat CPU 0 instructions: 160000003 cycles: 376217531 heartbeat IPC: 0.306107 cumulative IPC: 0.303815 (Simulation time: 0 hr 14 min 53 sec) 
Heartbeat CPU 0 instructions: 170000000 cycles: 408869313 heartbeat IPC: 0.306262 cumulative IPC: 0.304018 (Simulation time: 0 hr 15 min 57 sec) 
Heartbeat CPU 0 instructions: 180000001 cycles: 441506337 heartbeat IPC: 0.306401 cumulative IPC: 0.3042 (Simulation time: 0 hr 16 min 58 sec) 
*** Reached end of trace for Core: 0 Repeating trace: traces/spec2k17/srv_24.champsimtrace.xz
Heartbeat CPU 0 instructions: 190000002 cycles: 474158702 heartbeat IPC: 0.306257 cumulative IPC: 0.304346 (Simulation time: 0 hr 18 min 1 sec) 
Heartbeat CPU 0 instructions: 200000001 cycles: 506831661 heartbeat IPC: 0.306063 cumulative IPC: 0.30446 (Simulation time: 0 hr 19 min 3 sec) 
Heartbeat CPU 0 instructions: 210000001 cycles: 539480018 heartbeat IPC: 0.306294 cumulative IPC: 0.304574 (Simulation time: 0 hr 20 min 3 sec) 
*** Reached end of trace for Core: 0 Repeating trace: traces/spec2k17/srv_24.champsimtrace.xz
Heartbeat CPU 0 instructions: 220000000 cycles: 572153018 heartbeat IPC: 0.306063 cumulative IPC: 0.304661 (Simulation time: 0 hr 21 min 5 sec) 
Heartbeat CPU 0 instructions: 230000001 cycles: 604828755 heartbeat IPC: 0.306038 cumulative IPC: 0.304737 (Simulation time: 0 hr 22 min 6 sec) 
Heartbeat CPU 0 instructions: 240000003 cycles: 637473759 heartbeat IPC: 0.306326 cumulative IPC: 0.30482 (Simulation time: 0 hr 23 min 8 sec) 
Heartbeat CPU 0 instructions: 250000000 cycles: 670141461 heartbeat IPC: 0.306113 cumulative IPC: 0.304885 (Simulation time: 0 hr 24 min 9 sec) 
Finished CPU 0 instructions: 200000001 cycles: 655986094 cumulative IPC: 0.304884 (Simulation time: 0 hr 24 min 9 sec) 

ChampSim completed all CPUs

Region of Interest Statistics

CPU 0 cumulative IPC: 0.304884 instructions: 200000001 cycles: 655986094
ITLB TOTAL     ACCESS:   35351679  HIT:   32920906  MISS:    2430773  HIT %:     93.124  MISS %:    6.87598   MPKI: 12.1539
ITLB LOAD TRANSLATION ACCESS:   35351679  HIT:   32920906  MISS:    2430773  HIT %:     93.124  MISS %:    6.87598   MPKI: 12.1539
ITLB PREFETCH  REQUESTED:          0  ISSUED:          0  USEFUL:          0  USELESS:          0
ITLB USEFUL LOAD PREFETCHES:          0 PREFETCH ISSUED TO LOWER LEVEL:          0  ACCURACY: -nan
ITLB TIMELY PREFETCHES:          0 LATE PREFETCHES: 0 DROPPED PREFETCHES: 0
ITLB PREFETCHES SAME FILL-ORIGIN LEVEL: 0 DIFFERENT FILL-ORIGIN LEVEL: 0
ITLB AVERAGE MISS LATENCY: 9.0218 cycles
ITLB RQ	ACCESS:   41924713	FORWARD:          0	MERGED:    6004169	TO_CACHE:   35920544

DTLB TOTAL     ACCESS:   47487852  HIT:   45497221  MISS:    1990631  HIT %:    95.8081  MISS %:    4.19187   MPKI: 9.95315
DTLB LOAD TRANSLATION ACCESS:   47487852  HIT:   45497221  MISS:    1990631  HIT %:    95.8081  MISS %:    4.19187   MPKI: 9.95315
DTLB PREFETCH  REQUESTED:          0  ISSUED:          0  USEFUL:          0  USELESS:          0
DTLB USEFUL LOAD PREFETCHES:          0 PREFETCH ISSUED TO LOWER LEVEL:          0  ACCURACY: -nan
DTLB TIMELY PREFETCHES:          0 LATE PREFETCHES: 0 DROPPED PREFETCHES: 0
DTLB PREFETCHES SAME FILL-ORIGIN LEVEL: 0 DIFFERENT FILL-ORIGIN LEVEL: 0
DTLB AVERAGE MISS LATENCY: 8.06621 cycles
DTLB RQ	ACCESS:   62700250	FORWARD:          0	MERGED:   15167196	TO_CACHE:   47533054

STLB TOTAL     ACCESS:   23117486  HIT:   23115704  MISS:       1782  HIT %:    99.9923  MISS %: 0.00770845   MPKI: 0.00891
STLB LOAD TRANSLATION ACCESS:    4421403  HIT:    4419927  MISS:       1476  HIT %:    99.9666  MISS %:  0.0333831   MPKI: 0.00738
STLB TRANSLATION FROM L1D PREFETCHER ACCESS:   18696083  HIT:   18695777  MISS:        306  HIT %:    99.9984  MISS %: 0.00163671   MPKI: 0.00153
STLB PREFETCH  REQUESTED:          0  ISSUED:          0  USEFUL:        278  USELESS:         28
STLB USEFUL LOAD PREFETCHES:        278 PREFETCH ISSUED TO LOWER LEVEL:          0  ACCURACY: inf
STLB TIMELY PREFETCHES:        278 LATE PREFETCHES: 4 DROPPED PREFETCHES: 320674
STLB PREFETCHES SAME FILL-ORIGIN LEVEL: 0 DIFFERENT FILL-ORIGIN LEVEL: 0
STLB AVERAGE MISS LATENCY: 28.9231 cycles
STLB RQ	ACCESS:   28263238	FORWARD:          0	MERGED:    4824693	TO_CACHE:   23438545

STLB Hit, L1D data hit: 0
STLB Hit, L2C data hit: 0
STLB Hit, LLC data hit: 0
STLB Hit, LLC data miss: 0
STLB STLB hints to L2: 0
L1D TOTAL     ACCESS:   83462117  HIT:   78706983  MISS:    4755134  HIT %:    94.3026  MISS %:    5.69736   MPKI: 23.7757
L1D LOAD      ACCESS:   34735007  HIT:   32719917  MISS:    2015090  HIT %:    94.1987  MISS %:    5.80132   MPKI: 10.0754
L1D RFO       ACCESS:   26289312  HIT:   25180818  MISS:    1108494  HIT %:    95.7835  MISS %:    4.21652   MPKI: 5.54247
L1D PREFETCH  ACCESS:   22437798  HIT:   20806248  MISS:    1631550  HIT %:    92.7286  MISS %:    7.27144   MPKI: 8.15775
AGUS PREFETCH L1 MISS: 0
L1D PREFETCH  REQUESTED:   49677631  ISSUED:   49677246  USEFUL:    1375849  USELESS:     255666
L1D USEFUL LOAD PREFETCHES:    1375849 PREFETCH ISSUED TO LOWER LEVEL:    2170861  ACCURACY: 63.378
L1D TIMELY PREFETCHES:    1375849 LATE PREFETCHES: 531138 DROPPED PREFETCHES: 367418
L1D PREFETCHES SAME FILL-ORIGIN LEVEL: 2170861 DIFFERENT FILL-ORIGIN LEVEL: 0
L1D AVERAGE MISS LATENCY: 4.52356e+07 cycles
L1D RQ	ACCESS:   47239165	FORWARD:          0	MERGED:   12070635	TO_CACHE:   34820664
L1D WQ	ACCESS:   28029091	FORWARD:     391258	MERGED:     149505	TO_CACHE:   27879586
L1D PQ	ACCESS:   25835411	FORWARD:          0	MERGED:    1950184	TO_CACHE:   23841835

L1D UNIQUE REGIONS ACCESSED: 0
L1D REGIONS CONFLICTS: 0
L1D Cross Page Prefetch Requests: 19133303
L1D Same Page Prefetch Requests: 7275702
L1D ROI Sum of L1D PQ occupancy: 345646847
L1D PREFETCHES PUSHED FROM L2C: 0
L1I TOTAL     ACCESS:   40165461  HIT:   27936441  MISS:   12229020  HIT %:    69.5534  MISS %:    30.4466   MPKI: 61.1451
L1I LOAD      ACCESS:   40165461  HIT:   27936441  MISS:   12229020  HIT %:    69.5534  MISS %:    30.4466   MPKI: 61.1451
L1I PREFETCH  REQUESTED:          0  ISSUED:          0  USEFUL:          0  USELESS:          0
L1I USEFUL LOAD PREFETCHES:          0 PREFETCH ISSUED TO LOWER LEVEL:          0  ACCURACY: -nan
L1I TIMELY PREFETCHES:          0 LATE PREFETCHES: 0 DROPPED PREFETCHES: 0
L1I PREFETCHES SAME FILL-ORIGIN LEVEL: 0 DIFFERENT FILL-ORIGIN LEVEL: 0
L1I AVERAGE MISS LATENCY: 15.0102 cycles
L1I RQ	ACCESS:   58805763	FORWARD:          0	MERGED:   16881050	TO_CACHE:   41924713

BTB TOTAL     ACCESS:   30232374  HIT:   16633211  MISS:   13599163  HIT %:    55.0179  MISS %:    44.9821   MPKI: 67.9958
BTB BRANCH_DIRECT_JUMP	ACCESS:    1953106  HIT:    1075540  MISS:     877566
BTB BRANCH_INDIRECT	ACCESS:   12762841  HIT:    7577249  MISS:    5185592
BTB BRANCH_CONDITIONAL	ACCESS:    5680689  HIT:    4279292  MISS:    1401397
BTB BRANCH_DIRECT_CALL	ACCESS:    4143765  HIT:    1916358  MISS:    2227407
BTB BRANCH_INDIRECT_CALL	ACCESS:     774109  HIT:     369936  MISS:     404173
BTB BRANCH_RETURN	ACCESS:    4917864  HIT:    1414836  MISS:    3503028
BTB BRANCH_OTHER ACCESS:          0  HIT:          0  MISS:          0

L2C TOTAL     ACCESS:   19748576  HIT:   19067893  MISS:     680683  HIT %:    96.5533  MISS %:    3.44674   MPKI: 3.40341
L2C LOAD      ACCESS:   13712758  HIT:   13205418  MISS:     507340  HIT %:    96.3002  MISS %:    3.69977   MPKI: 2.5367
L2C DATA LOAD MPKI: 0.63166
L2C INSTRUCTION LOAD MPKI: 1.90504
L2C RFO       ACCESS:    1100321  HIT:    1068194  MISS:      32127  HIT %:    97.0802  MISS %:    2.91978   MPKI: 0.160635
L2C PREFETCH  ACCESS:    2170688  HIT:    2066813  MISS:     103875  HIT %:    95.2147  MISS %:    4.78535   MPKI: 0.519375
AGUS PREFETCH L1 MISS: 0
L2C DATA PREFETCH MPKI: 0.519375
L2C INSTRUCTION PREFETCH MPKI: 0
L2C WRITEBACK ACCESS:    2319952  HIT:    2303893  MISS:      16059  HIT %:    99.3078  MISS %:   0.692213   MPKI: 0.080295
L2C LOAD TRANSLATION ACCESS:       1474  HIT:       1014  MISS:        460  HIT %:    68.7924  MISS %:    31.2076   MPKI: 0.0023
L2C TRANSLATION FROM L1D PREFETCHER ACCESS:     443383  HIT:     422561  MISS:      20822  HIT %:    95.3038  MISS %:    4.69617   MPKI: 0.10411
L2C PREFETCH  REQUESTED:          0  ISSUED:          0  USEFUL:      13713  USELESS:     111261
L2C USEFUL LOAD PREFETCHES:      13713 PREFETCH ISSUED TO LOWER LEVEL:     103875  ACCURACY: 13.2014
L2C TIMELY PREFETCHES:      13713 LATE PREFETCHES: 0 DROPPED PREFETCHES: 0
L2C PREFETCHES SAME FILL-ORIGIN LEVEL: 0 DIFFERENT FILL-ORIGIN LEVEL: 0
L2C AVERAGE MISS LATENCY: 30.1048 cycles
L2C RQ	ACCESS:   15258149	FORWARD:          0	MERGED:          0	TO_CACHE:   15257935
L2C WQ	ACCESS:    2319952	FORWARD:        387	MERGED:          0	TO_CACHE:    2319952
L2C PQ	ACCESS:    2170861	FORWARD:          0	MERGED:          0	TO_CACHE:    2170688

L2C Instructions Evicting Data 110006
L2C Translations Evicting Data 13757
L2C Data Evicting Data 147215
L2C Instructions Evicting Instructions 262672
L2C Translations Evicting Instructions 7216
L2C Data Evicting Instructions 103156
L2C Instructions Evicting Translations 8330
L2C Translations Evicting Translations 308
L2C Data Evicting Translations 11962
L2C Dense regions hint from L2: 0
PSCL5 TOTAL     ACCESS:     315686  HIT:     315686  MISS:          0  HIT %:        100  MISS %:          0   MPKI: 0
PSCL5 LOAD TRANSLATION ACCESS:       1472  HIT:       1472  MISS:          0  HIT %:        100  MISS %:          0   MPKI: 0
PSCL5 TRANSLATION FROM L1D PREFETCHER ACCESS:     314214  HIT:     314214  MISS:          0  HIT %:        100  MISS %:          0   MPKI: 0
PSCL5 PREFETCH  REQUESTED:          0  ISSUED:          0  USEFUL:          0  USELESS:          0
PSCL5 USEFUL LOAD PREFETCHES:          0 PREFETCH ISSUED TO LOWER LEVEL:          0  ACCURACY: -nan
PSCL5 TIMELY PREFETCHES:          0 LATE PREFETCHES: 0 DROPPED PREFETCHES: 0
PSCL5 PREFETCHES SAME FILL-ORIGIN LEVEL: 0 DIFFERENT FILL-ORIGIN LEVEL: 0

PSCL4 TOTAL     ACCESS:     267458  HIT:     267457  MISS:          1  HIT %:    99.9996  MISS %: 0.00037389   MPKI: 5e-06
PSCL4 LOAD TRANSLATION ACCESS:       1473  HIT:       1472  MISS:          1  HIT %:    99.9321  MISS %:  0.0678887   MPKI: 5e-06
PSCL4 TRANSLATION FROM L1D PREFETCHER ACCESS:     265985  HIT:     265985  MISS:          0  HIT %:        100  MISS %:          0   MPKI: 0
PSCL4 PREFETCH  REQUESTED:          0  ISSUED:          0  USEFUL:          0  USELESS:          0
PSCL4 USEFUL LOAD PREFETCHES:          0 PREFETCH ISSUED TO LOWER LEVEL:          0  ACCURACY: -nan
PSCL4 TIMELY PREFETCHES:          0 LATE PREFETCHES: 0 DROPPED PREFETCHES: 0
PSCL4 PREFETCHES SAME FILL-ORIGIN LEVEL: 0 DIFFERENT FILL-ORIGIN LEVEL: 0

PSCL3 TOTAL     ACCESS:     252423  HIT:     252422  MISS:          1  HIT %:    99.9996  MISS %: 0.00039616   MPKI: 5e-06
PSCL3 LOAD TRANSLATION ACCESS:       1473  HIT:       1472  MISS:          1  HIT %:    99.9321  MISS %:  0.0678887   MPKI: 5e-06
PSCL3 TRANSLATION FROM L1D PREFETCHER ACCESS:     250950  HIT:     250950  MISS:          0  HIT %:        100  MISS %:          0   MPKI: 0
PSCL3 PREFETCH  REQUESTED:          0  ISSUED:          0  USEFUL:          0  USELESS:          0
PSCL3 USEFUL LOAD PREFETCHES:          0 PREFETCH ISSUED TO LOWER LEVEL:          0  ACCURACY: -nan
PSCL3 TIMELY PREFETCHES:          0 LATE PREFETCHES: 0 DROPPED PREFETCHES: 0
PSCL3 PREFETCHES SAME FILL-ORIGIN LEVEL: 0 DIFFERENT FILL-ORIGIN LEVEL: 0

PSCL2 TOTAL     ACCESS:      93757  HIT:      93752  MISS:          5  HIT %:    99.9947  MISS %: 0.00533294   MPKI: 2.5e-05
PSCL2 LOAD TRANSLATION ACCESS:       1475  HIT:       1470  MISS:          5  HIT %:     99.661  MISS %:   0.338983   MPKI: 2.5e-05
PSCL2 TRANSLATION FROM L1D PREFETCHER ACCESS:      92282  HIT:      92282  MISS:          0  HIT %:        100  MISS %:          0   MPKI: 0
PSCL2 PREFETCH  REQUESTED:          0  ISSUED:          0  USEFUL:          0  USELESS:          0
PSCL2 USEFUL LOAD PREFETCHES:          0 PREFETCH ISSUED TO LOWER LEVEL:          0  ACCURACY: -nan
PSCL2 TIMELY PREFETCHES:          0 LATE PREFETCHES: 0 DROPPED PREFETCHES: 0
PSCL2 PREFETCHES SAME FILL-ORIGIN LEVEL: 0 DIFFERENT FILL-ORIGIN LEVEL: 0

LLC TOTAL     ACCESS:     709414  HIT:     706087  MISS:       3327  HIT %:     99.531  MISS %:   0.468979   MPKI: 0.016635
LLC LOAD      ACCESS:     507340  HIT:     506760  MISS:        580  HIT %:    99.8857  MISS %:   0.114322   MPKI: 0.0029
LLC RFO       ACCESS:      32127  HIT:      32126  MISS:          1  HIT %:    99.9969  MISS %: 0.00311265   MPKI: 5e-06
LLC PREFETCH  ACCESS:     103875  HIT:     101676  MISS:       2199  HIT %:     97.883  MISS %:    2.11697   MPKI: 0.010995
AGUS PREFETCH L1 MISS: 0
LLC WRITEBACK ACCESS:      44790  HIT:      44788  MISS:          2  HIT %:    99.9955  MISS %: 0.00446528   MPKI: 1e-05
LLC LOAD TRANSLATION ACCESS:        460  HIT:        452  MISS:          8  HIT %:    98.2609  MISS %:    1.73913   MPKI: 4e-05
LLC TRANSLATION FROM L1D PREFETCHER ACCESS:      20822  HIT:      20285  MISS:        537  HIT %:     97.421  MISS %:      2.579   MPKI: 0.002685
LLC PREFETCH  REQUESTED:          0  ISSUED:          0  USEFUL:       2382  USELESS:        310
LLC USEFUL LOAD PREFETCHES:       2382 PREFETCH ISSUED TO LOWER LEVEL:       2199  ACCURACY: 108.322
LLC TIMELY PREFETCHES:       2382 LATE PREFETCHES: 0 DROPPED PREFETCHES: 0
LLC PREFETCHES SAME FILL-ORIGIN LEVEL: 0 DIFFERENT FILL-ORIGIN LEVEL: 0
LLC AVERAGE MISS LATENCY: 166.237 cycles
LLC RQ	ACCESS:     560749	FORWARD:          0	MERGED:          0	TO_CACHE:     560749
LLC WQ	ACCESS:      44790	FORWARD:          0	MERGED:          0	TO_CACHE:      44790
LLC PQ	ACCESS:     103875	FORWARD:          0	MERGED:          0	TO_CACHE:     103875

LLC Dense regions hint to LLC: 0

RAW hits: 1493413
Loads Generated: 48732580
Loads sent to L1D: 47239165
Stores Generated: 28029087
Stores sent to L1D: 28029091
Major fault: 0 Minor fault: 1251
Allocated PAGES: 1251
Completed 

DRAM Statistics
 CHANNEL 0
 RQ ROW_BUFFER_HIT:        162  ROW_BUFFER_MISS:       3163
 DBUS_CONGESTED:          0
 WQ ROW_BUFFER_HIT:          0  ROW_BUFFER_MISS:          3  FULL:          0

 AVG_CONGESTED_CYCLE: -
 All warmup complete: 2
Channel 0 Bank busy for read cycles: 0
Channel 0 Bank busy for write cycles: 0
Channel 0
Rank 0
0banks busy for read cycles: 655581980
0banks busy for write cycles: 3
1banks busy for read cycles: 334426
1banks busy for write cycles: 450
2banks busy for read cycles: 60551
2banks busy for write cycles: 0
3banks busy for read cycles: 7844
3banks busy for write cycles: 0
4banks busy for read cycles: 715
4banks busy for write cycles: 0
5banks busy for read cycles: 126
5banks busy for write cycles: 0
6banks busy for read cycles: 0
6banks busy for write cycles: 0
7banks busy for read cycles: 0
7banks busy for write cycles: 0
8banks busy for read cycles: 0
8banks busy for write cycles: 0

CPU 0 Branch Prediction Accuracy: 99.9093% MPKI: 0.16097 Average ROB Occupancy at Mispredict: 31.3131
Branch types
NOT_BRANCH: 164496933 82.2485%
BRANCH_DIRECT_JUMP: 1953106 0.976553%
BRANCH_INDIRECT: 12762841 6.38142%
BRANCH_CONDITIONAL: 10951337 5.47567%
BRANCH_DIRECT_CALL: 4143765 2.07188%
BRANCH_INDIRECT_CALL: 774109 0.387054%
BRANCH_RETURN: 4917864 2.45893%
BRANCH_OTHER: 0 0%

DRAM PAGES: 1048576
Allocated PAGES: 1251
