
*** ChampSim Multicore Out-of-Order Simulator ***

Warmup Instructions: 50000000
Simulation Instructions: 200000000
Number of CPUs: 1
LLC sets: 2048
LLC ways: 16
Off-chip DRAM Size: 4096 MB Channels: 1 Width: 64-bit Data Rate: 6400 MT/s
CPU 0 runs traces/spec2k17/srv_45.champsimtrace.xz
.xz
BTB has LRU replacement policy
ITLB has LRU replacement policy
DTLB has LRU replacement policy
STLB has LRU replacement policy
L1I has LRU replacement policy
L1D has LRU replacement policy
Initialize SRRIP state for L2C
Initialize DRRIP state for LLC
Heartbeat CPU 0 instructions: 10000003 cycles: 2933814 heartbeat IPC: 3.40853 cumulative IPC: 3.40853 (Simulation time: 0 hr 0 min 41 sec) 
Heartbeat CPU 0 instructions: 20000002 cycles: 5867824 heartbeat IPC: 3.4083 cumulative IPC: 3.40842 (Simulation time: 0 hr 1 min 21 sec) 
Heartbeat CPU 0 instructions: 30000000 cycles: 8797770 heartbeat IPC: 3.41303 cumulative IPC: 3.40996 (Simulation time: 0 hr 2 min 0 sec) 
*** Reached end of trace for Core: 0 Repeating trace: traces/spec2k17/srv_45.champsimtrace.xz
Heartbeat CPU 0 instructions: 40000000 cycles: 11726154 heartbeat IPC: 3.41485 cumulative IPC: 3.41118 (Simulation time: 0 hr 2 min 42 sec) 
Heartbeat CPU 0 instructions: 50000001 cycles: 14658116 heartbeat IPC: 3.41069 cumulative IPC: 3.41108 (Simulation time: 0 hr 3 min 24 sec) 

Warmup complete CPU 0 instructions: 50000001 cycles: 14658116 (Simulation time: 0 hr 3 min 24 sec) 

Heartbeat CPU 0 instructions: 60000000 cycles: 54128580 heartbeat IPC: 0.253354 cumulative IPC: 0.253354 (Simulation time: 0 hr 4 min 30 sec) 
*** Reached end of trace for Core: 0 Repeating trace: traces/spec2k17/srv_45.champsimtrace.xz
Heartbeat CPU 0 instructions: 70000000 cycles: 93514787 heartbeat IPC: 0.253896 cumulative IPC: 0.253625 (Simulation time: 0 hr 5 min 21 sec) 
Heartbeat CPU 0 instructions: 80000001 cycles: 132976514 heartbeat IPC: 0.25341 cumulative IPC: 0.253553 (Simulation time: 0 hr 6 min 13 sec) 
Heartbeat CPU 0 instructions: 90000003 cycles: 172276945 heartbeat IPC: 0.25445 cumulative IPC: 0.253777 (Simulation time: 0 hr 6 min 57 sec) 
*** Reached end of trace for Core: 0 Repeating trace: traces/spec2k17/srv_45.champsimtrace.xz
Heartbeat CPU 0 instructions: 100000003 cycles: 211653903 heartbeat IPC: 0.253956 cumulative IPC: 0.253813 (Simulation time: 0 hr 7 min 39 sec) 
Heartbeat CPU 0 instructions: 110000000 cycles: 251107685 heartbeat IPC: 0.253461 cumulative IPC: 0.253754 (Simulation time: 0 hr 8 min 22 sec) 
Heartbeat CPU 0 instructions: 120000000 cycles: 290152061 heartbeat IPC: 0.256119 cumulative IPC: 0.254089 (Simulation time: 0 hr 9 min 4 sec) 
*** Reached end of trace for Core: 0 Repeating trace: traces/spec2k17/srv_45.champsimtrace.xz
Heartbeat CPU 0 instructions: 130000002 cycles: 329251468 heartbeat IPC: 0.255758 cumulative IPC: 0.254297 (Simulation time: 0 hr 9 min 47 sec) 
Heartbeat CPU 0 instructions: 140000003 cycles: 368354691 heartbeat IPC: 0.255733 cumulative IPC: 0.254455 (Simulation time: 0 hr 10 min 29 sec) 
Heartbeat CPU 0 instructions: 150000000 cycles: 407531204 heartbeat IPC: 0.255255 cumulative IPC: 0.254535 (Simulation time: 0 hr 11 min 12 sec) 
*** Reached end of trace for Core: 0 Repeating trace: traces/spec2k17/srv_45.champsimtrace.xz
Heartbeat CPU 0 instructions: 160000001 cycles: 446468308 heartbeat IPC: 0.256824 cumulative IPC: 0.254742 (Simulation time: 0 hr 11 min 54 sec) 
Heartbeat CPU 0 instructions: 170000001 cycles: 485483633 heartbeat IPC: 0.25631 cumulative IPC: 0.254871 (Simulation time: 0 hr 12 min 37 sec) 
Heartbeat CPU 0 instructions: 180000000 cycles: 524774063 heartbeat IPC: 0.254515 cumulative IPC: 0.254844 (Simulation time: 0 hr 13 min 20 sec) 
*** Reached end of trace for Core: 0 Repeating trace: traces/spec2k17/srv_45.champsimtrace.xz
Heartbeat CPU 0 instructions: 190000001 cycles: 563668877 heartbeat IPC: 0.257104 cumulative IPC: 0.255004 (Simulation time: 0 hr 14 min 2 sec) 
Heartbeat CPU 0 instructions: 200000000 cycles: 602928649 heartbeat IPC: 0.254714 cumulative IPC: 0.254985 (Simulation time: 0 hr 14 min 44 sec) 
Heartbeat CPU 0 instructions: 210000003 cycles: 641952173 heartbeat IPC: 0.256256 cumulative IPC: 0.255064 (Simulation time: 0 hr 15 min 25 sec) 
*** Reached end of trace for Core: 0 Repeating trace: traces/spec2k17/srv_45.champsimtrace.xz
Heartbeat CPU 0 instructions: 220000000 cycles: 680858182 heartbeat IPC: 0.25703 cumulative IPC: 0.255179 (Simulation time: 0 hr 16 min 6 sec) 
Heartbeat CPU 0 instructions: 230000000 cycles: 720015736 heartbeat IPC: 0.255379 cumulative IPC: 0.25519 (Simulation time: 0 hr 16 min 46 sec) 
Heartbeat CPU 0 instructions: 240000000 cycles: 759105453 heartbeat IPC: 0.255822 cumulative IPC: 0.255223 (Simulation time: 0 hr 17 min 20 sec) 
*** Reached end of trace for Core: 0 Repeating trace: traces/spec2k17/srv_45.champsimtrace.xz
Heartbeat CPU 0 instructions: 250000003 cycles: 797908415 heartbeat IPC: 0.257712 cumulative IPC: 0.255346 (Simulation time: 0 hr 17 min 50 sec) 
Finished CPU 0 instructions: 200000002 cycles: 783250299 cumulative IPC: 0.255346 (Simulation time: 0 hr 17 min 50 sec) 

ChampSim completed all CPUs

Region of Interest Statistics

CPU 0 cumulative IPC: 0.255346 instructions: 200000002 cycles: 783250299
ITLB TOTAL     ACCESS:   36323623  HIT:   33575797  MISS:    2747826  HIT %:    92.4352  MISS %:    7.56485   MPKI: 13.7391
ITLB LOAD TRANSLATION ACCESS:   36323623  HIT:   33575797  MISS:    2747826  HIT %:    92.4352  MISS %:    7.56485   MPKI: 13.7391
ITLB PREFETCH  REQUESTED:          0  ISSUED:          0  USEFUL:          0  USELESS:          0
ITLB USEFUL LOAD PREFETCHES:          0 PREFETCH ISSUED TO LOWER LEVEL:          0  ACCURACY: -nan
ITLB TIMELY PREFETCHES:          0 LATE PREFETCHES: 0 DROPPED PREFETCHES: 0
ITLB PREFETCHES SAME FILL-ORIGIN LEVEL: 0 DIFFERENT FILL-ORIGIN LEVEL: 0
ITLB AVERAGE MISS LATENCY: 9.3266 cycles
ITLB RQ	ACCESS:   42982639	FORWARD:          0	MERGED:    5919106	TO_CACHE:   37063533

DTLB TOTAL     ACCESS:   49825914  HIT:   47367108  MISS:    2458806  HIT %:    95.0652  MISS %:    4.93479   MPKI: 12.294
DTLB LOAD TRANSLATION ACCESS:   49825914  HIT:   47367108  MISS:    2458806  HIT %:    95.0652  MISS %:    4.93479   MPKI: 12.294
DTLB PREFETCH  REQUESTED:          0  ISSUED:          0  USEFUL:          0  USELESS:          0
DTLB USEFUL LOAD PREFETCHES:          0 PREFETCH ISSUED TO LOWER LEVEL:          0  ACCURACY: -nan
DTLB TIMELY PREFETCHES:          0 LATE PREFETCHES: 0 DROPPED PREFETCHES: 0
DTLB PREFETCHES SAME FILL-ORIGIN LEVEL: 0 DIFFERENT FILL-ORIGIN LEVEL: 0
DTLB AVERAGE MISS LATENCY: 11.5154 cycles
DTLB RQ	ACCESS:   66055289	FORWARD:          0	MERGED:   16095020	TO_CACHE:   49960269

STLB TOTAL     ACCESS:   13814361  HIT:   13706378  MISS:     107983  HIT %:    99.2183  MISS %:   0.781672   MPKI: 0.539915
STLB LOAD TRANSLATION ACCESS:    5206632  HIT:    5102395  MISS:     104237  HIT %:     97.998  MISS %:      2.002   MPKI: 0.521185
STLB TRANSLATION FROM L1D PREFETCHER ACCESS:    8607729  HIT:    8603983  MISS:       3746  HIT %:    99.9565  MISS %:   0.043519   MPKI: 0.01873
STLB PREFETCH  REQUESTED:          0  ISSUED:          0  USEFUL:       3574  USELESS:        169
STLB USEFUL LOAD PREFETCHES:       3574 PREFETCH ISSUED TO LOWER LEVEL:          0  ACCURACY: inf
STLB TIMELY PREFETCHES:       3574 LATE PREFETCHES: 390 DROPPED PREFETCHES: 240734
STLB PREFETCHES SAME FILL-ORIGIN LEVEL: 0 DIFFERENT FILL-ORIGIN LEVEL: 0
STLB AVERAGE MISS LATENCY: 77.7998 cycles
STLB RQ	ACCESS:   16580014	FORWARD:          0	MERGED:    2524398	TO_CACHE:   14055616

STLB Hit, L1D data hit: 0
STLB Hit, L2C data hit: 0
STLB Hit, LLC data hit: 0
STLB Hit, LLC data miss: 0
STLB STLB hints to L2: 0
L1D TOTAL     ACCESS:   73896202  HIT:   67921672  MISS:    5974530  HIT %:     91.915  MISS %:    8.08503   MPKI: 29.8726
L1D LOAD      ACCESS:   39578138  HIT:   36261286  MISS:    3316852  HIT %:    91.6195  MISS %:    8.38052   MPKI: 16.5843
L1D RFO       ACCESS:   23794156  HIT:   22110580  MISS:    1683576  HIT %:    92.9244  MISS %:    7.07559   MPKI: 8.41788
L1D PREFETCH  ACCESS:   10523908  HIT:    9549806  MISS:     974102  HIT %:    90.7439  MISS %:    9.25609   MPKI: 4.87051
AGUS PREFETCH L1 MISS: 0
L1D PREFETCH  REQUESTED:   23602315  ISSUED:   23602150  USEFUL:     753243  USELESS:     220834
L1D USEFUL LOAD PREFETCHES:     753243 PREFETCH ISSUED TO LOWER LEVEL:    1275409  ACCURACY: 59.0589
L1D TIMELY PREFETCHES:     753243 LATE PREFETCHES: 298635 DROPPED PREFETCHES: 266065
L1D PREFETCHES SAME FILL-ORIGIN LEVEL: 1275409 DIFFERENT FILL-ORIGIN LEVEL: 0
L1D AVERAGE MISS LATENCY: 2.5246e+07 cycles
L1D RQ	ACCESS:   50629677	FORWARD:          0	MERGED:   10717983	TO_CACHE:   39737382
L1D WQ	ACCESS:   26484793	FORWARD:     204356	MERGED:     166886	TO_CACHE:   26317907
L1D PQ	ACCESS:   12228768	FORWARD:          0	MERGED:     825342	TO_CACHE:   11373382

L1D UNIQUE REGIONS ACCESSED: 0
L1D REGIONS CONFLICTS: 0
L1D Cross Page Prefetch Requests: 8881354
L1D Same Page Prefetch Requests: 3639203
L1D ROI Sum of L1D PQ occupancy: 174330740
L1D PREFETCHES PUSHED FROM L2C: 0
L1I TOTAL     ACCESS:   41298608  HIT:   28144882  MISS:   13153726  HIT %:    68.1497  MISS %:    31.8503   MPKI: 65.7686
L1I LOAD      ACCESS:   41298608  HIT:   28144882  MISS:   13153726  HIT %:    68.1497  MISS %:    31.8503   MPKI: 65.7686
L1I PREFETCH  REQUESTED:          0  ISSUED:          0  USEFUL:          0  USELESS:          0
L1I USEFUL LOAD PREFETCHES:          0 PREFETCH ISSUED TO LOWER LEVEL:          0  ACCURACY: -nan
L1I TIMELY PREFETCHES:          0 LATE PREFETCHES: 0 DROPPED PREFETCHES: 0
L1I PREFETCHES SAME FILL-ORIGIN LEVEL: 0 DIFFERENT FILL-ORIGIN LEVEL: 0
L1I AVERAGE MISS LATENCY: 16.1865 cycles
L1I RQ	ACCESS:   59963715	FORWARD:          0	MERGED:   16981076	TO_CACHE:   42982639

BTB TOTAL     ACCESS:   31973434  HIT:   16686947  MISS:   15286487  HIT %:      52.19  MISS %:      47.81   MPKI: 76.4324
BTB BRANCH_DIRECT_JUMP	ACCESS:    2345713  HIT:    1227110  MISS:    1118603
BTB BRANCH_INDIRECT	ACCESS:   14157352  HIT:    8110274  MISS:    6047078
BTB BRANCH_CONDITIONAL	ACCESS:    4344280  HIT:    3034534  MISS:    1309746
BTB BRANCH_DIRECT_CALL	ACCESS:    4151171  HIT:    2145079  MISS:    2006092
BTB BRANCH_INDIRECT_CALL	ACCESS:    1411897  HIT:     576080  MISS:     835817
BTB BRANCH_RETURN	ACCESS:    5563021  HIT:    1593870  MISS:    3969151
BTB BRANCH_OTHER ACCESS:          0  HIT:          0  MISS:          0

L2C TOTAL     ACCESS:   22519782  HIT:   19621886  MISS:    2897896  HIT %:    87.1318  MISS %:    12.8682   MPKI: 14.4895
L2C LOAD      ACCESS:   16171866  HIT:   14332510  MISS:    1839356  HIT %:    88.6262  MISS %:    11.3738   MPKI: 9.19678
L2C DATA LOAD MPKI: 4.69665
L2C INSTRUCTION LOAD MPKI: 4.50012
L2C RFO       ACCESS:    1680902  HIT:    1083985  MISS:     596917  HIT %:    64.4883  MISS %:    35.5117   MPKI: 2.98458
L2C PREFETCH  ACCESS:    1275300  HIT:    1073964  MISS:     201336  HIT %:    84.2127  MISS %:    15.7873   MPKI: 1.00668
AGUS PREFETCH L1 MISS: 0
L2C DATA PREFETCH MPKI: 1.00668
L2C INSTRUCTION PREFETCH MPKI: 0
L2C WRITEBACK ACCESS:    2815483  HIT:    2674321  MISS:     141162  HIT %:    94.9862  MISS %:    5.01378   MPKI: 0.70581
L2C LOAD TRANSLATION ACCESS:     168134  HIT:      85717  MISS:      82417  HIT %:    50.9814  MISS %:    49.0186   MPKI: 0.412085
L2C TRANSLATION FROM L1D PREFETCHER ACCESS:     408097  HIT:     371389  MISS:      36708  HIT %:    91.0051  MISS %:    8.99492   MPKI: 0.18354
L2C PREFETCH  REQUESTED:          0  ISSUED:          0  USEFUL:      40266  USELESS:     197584
L2C USEFUL LOAD PREFETCHES:      40266 PREFETCH ISSUED TO LOWER LEVEL:     201336  ACCURACY: 19.9994
L2C TIMELY PREFETCHES:      40266 LATE PREFETCHES: 0 DROPPED PREFETCHES: 0
L2C PREFETCHES SAME FILL-ORIGIN LEVEL: 0 DIFFERENT FILL-ORIGIN LEVEL: 0
L2C AVERAGE MISS LATENCY: 50.2777 cycles
L2C RQ	ACCESS:   18429079	FORWARD:          0	MERGED:          0	TO_CACHE:   18429000
L2C WQ	ACCESS:    2815483	FORWARD:        188	MERGED:          0	TO_CACHE:    2815483
L2C PQ	ACCESS:    1275409	FORWARD:          0	MERGED:          0	TO_CACHE:    1275300

L2C Instructions Evicting Data 451552
L2C Translations Evicting Data 91845
L2C Data Evicting Data 1250737
L2C Instructions Evicting Instructions 427021
L2C Translations Evicting Instructions 21490
L2C Data Evicting Instructions 399213
L2C Instructions Evicting Translations 21452
L2C Translations Evicting Translations 5790
L2C Data Evicting Translations 87634
L2C Dense regions hint from L2: 0
PSCL5 TOTAL     ACCESS:     339262  HIT:     339262  MISS:          0  HIT %:        100  MISS %:          0   MPKI: 0
PSCL5 LOAD TRANSLATION ACCESS:     103847  HIT:     103847  MISS:          0  HIT %:        100  MISS %:          0   MPKI: 0
PSCL5 TRANSLATION FROM L1D PREFETCHER ACCESS:     235415  HIT:     235415  MISS:          0  HIT %:        100  MISS %:          0   MPKI: 0
PSCL5 PREFETCH  REQUESTED:          0  ISSUED:          0  USEFUL:          0  USELESS:          0
PSCL5 USEFUL LOAD PREFETCHES:          0 PREFETCH ISSUED TO LOWER LEVEL:          0  ACCURACY: -nan
PSCL5 TIMELY PREFETCHES:          0 LATE PREFETCHES: 0 DROPPED PREFETCHES: 0
PSCL5 PREFETCHES SAME FILL-ORIGIN LEVEL: 0 DIFFERENT FILL-ORIGIN LEVEL: 0

PSCL4 TOTAL     ACCESS:     316457  HIT:     315682  MISS:        775  HIT %:    99.7551  MISS %:   0.244899   MPKI: 0.003875
PSCL4 LOAD TRANSLATION ACCESS:     102486  HIT:     101711  MISS:        775  HIT %:    99.2438  MISS %:   0.756201   MPKI: 0.003875
PSCL4 TRANSLATION FROM L1D PREFETCHER ACCESS:     213971  HIT:     213971  MISS:          0  HIT %:        100  MISS %:          0   MPKI: 0
PSCL4 PREFETCH  REQUESTED:          0  ISSUED:          0  USEFUL:          0  USELESS:          0
PSCL4 USEFUL LOAD PREFETCHES:          0 PREFETCH ISSUED TO LOWER LEVEL:          0  ACCURACY: -nan
PSCL4 TIMELY PREFETCHES:          0 LATE PREFETCHES: 0 DROPPED PREFETCHES: 0
PSCL4 PREFETCHES SAME FILL-ORIGIN LEVEL: 0 DIFFERENT FILL-ORIGIN LEVEL: 0

PSCL3 TOTAL     ACCESS:     210266  HIT:     190672  MISS:      19594  HIT %:    90.6813  MISS %:    9.31867   MPKI: 0.09797
PSCL3 LOAD TRANSLATION ACCESS:      91534  HIT:      71940  MISS:      19594  HIT %:    78.5937  MISS %:    21.4063   MPKI: 0.09797
PSCL3 TRANSLATION FROM L1D PREFETCHER ACCESS:     118732  HIT:     118732  MISS:          0  HIT %:        100  MISS %:          0   MPKI: 0
PSCL3 PREFETCH  REQUESTED:          0  ISSUED:          0  USEFUL:          0  USELESS:          0
PSCL3 USEFUL LOAD PREFETCHES:          0 PREFETCH ISSUED TO LOWER LEVEL:          0  ACCURACY: -nan
PSCL3 TIMELY PREFETCHES:          0 LATE PREFETCHES: 0 DROPPED PREFETCHES: 0
PSCL3 PREFETCHES SAME FILL-ORIGIN LEVEL: 0 DIFFERENT FILL-ORIGIN LEVEL: 0

PSCL2 TOTAL     ACCESS:     130420  HIT:      83861  MISS:      46559  HIT %:    64.3007  MISS %:    35.6993   MPKI: 0.232795
PSCL2 LOAD TRANSLATION ACCESS:     105718  HIT:      59159  MISS:      46559  HIT %:    55.9593  MISS %:    44.0407   MPKI: 0.232795
PSCL2 TRANSLATION FROM L1D PREFETCHER ACCESS:      24702  HIT:      24702  MISS:          0  HIT %:        100  MISS %:          0   MPKI: 0
PSCL2 PREFETCH  REQUESTED:          0  ISSUED:          0  USEFUL:          0  USELESS:          0
PSCL2 USEFUL LOAD PREFETCHES:          0 PREFETCH ISSUED TO LOWER LEVEL:          0  ACCURACY: -nan
PSCL2 TIMELY PREFETCHES:          0 LATE PREFETCHES: 0 DROPPED PREFETCHES: 0
PSCL2 PREFETCHES SAME FILL-ORIGIN LEVEL: 0 DIFFERENT FILL-ORIGIN LEVEL: 0

LLC TOTAL     ACCESS:    3713402  HIT:    3420748  MISS:     292654  HIT %:     92.119  MISS %:    7.88102   MPKI: 1.46327
LLC LOAD      ACCESS:    1839356  HIT:    1712461  MISS:     126895  HIT %:    93.1011  MISS %:    6.89888   MPKI: 0.634475
LLC RFO       ACCESS:     596914  HIT:     482213  MISS:     114701  HIT %:    80.7843  MISS %:    19.2157   MPKI: 0.573505
LLC PREFETCH  ACCESS:     201331  HIT:     172610  MISS:      28721  HIT %:    85.7344  MISS %:    14.2656   MPKI: 0.143605
AGUS PREFETCH L1 MISS: 0
LLC WRITEBACK ACCESS:     956676  HIT:     949591  MISS:       7085  HIT %:    99.2594  MISS %:   0.740585   MPKI: 0.035425
LLC LOAD TRANSLATION ACCESS:      82417  HIT:      69075  MISS:      13342  HIT %:    83.8116  MISS %:    16.1884   MPKI: 0.06671
LLC TRANSLATION FROM L1D PREFETCHER ACCESS:      36708  HIT:      34798  MISS:       1910  HIT %:    94.7968  MISS %:    5.20323   MPKI: 0.00955
LLC PREFETCH  REQUESTED:          0  ISSUED:          0  USEFUL:       1619  USELESS:      30432
LLC USEFUL LOAD PREFETCHES:       1619 PREFETCH ISSUED TO LOWER LEVEL:      28721  ACCURACY: 5.63699
LLC TIMELY PREFETCHES:       1619 LATE PREFETCHES: 0 DROPPED PREFETCHES: 0
LLC PREFETCHES SAME FILL-ORIGIN LEVEL: 0 DIFFERENT FILL-ORIGIN LEVEL: 0
LLC AVERAGE MISS LATENCY: 215.26 cycles
LLC RQ	ACCESS:    2555399	FORWARD:          0	MERGED:          0	TO_CACHE:    2555395
LLC WQ	ACCESS:     956676	FORWARD:          9	MERGED:          0	TO_CACHE:     956676
LLC PQ	ACCESS:     201336	FORWARD:          0	MERGED:          0	TO_CACHE:     201331

LLC Dense regions hint to LLC: 0

RAW hits: 1575708
Loads Generated: 52205385
Loads sent to L1D: 50629677
Stores Generated: 26484784
Stores sent to L1D: 26484793
Major fault: 0 Minor fault: 6405
Allocated PAGES: 6405
Completed 

DRAM Statistics
 CHANNEL 0
 RQ ROW_BUFFER_HIT:      86986  ROW_BUFFER_MISS:     198583
 DBUS_CONGESTED:         80
 WQ ROW_BUFFER_HIT:      26273  ROW_BUFFER_MISS:     127022  FULL:          0

 AVG_CONGESTED_CYCLE: 4
 All warmup complete: 2
Channel 0 Bank busy for read cycles: 0
Channel 0 Bank busy for write cycles: 0
Channel 0
Rank 0
0banks busy for read cycles: 751209633
0banks busy for write cycles: 53059
1banks busy for read cycles: 15062541
1banks busy for write cycles: 8097479
2banks busy for read cycles: 2169997
2banks busy for write cycles: 1618776
3banks busy for read cycles: 529328
3banks busy for write cycles: 482519
4banks busy for read cycles: 126106
4banks busy for write cycles: 207764
5banks busy for read cycles: 110901
5banks busy for write cycles: 118230
6banks busy for read cycles: 155090
6banks busy for write cycles: 104368
7banks busy for read cycles: 281810
7banks busy for write cycles: 200435
8banks busy for read cycles: 1178755
8banks busy for write cycles: 1543509

CPU 0 Branch Prediction Accuracy: 99.9107% MPKI: 0.163205 Average ROB Occupancy at Mispredict: 44.2061
Branch types
NOT_BRANCH: 163456051 81.728%
BRANCH_DIRECT_JUMP: 2345713 1.17286%
BRANCH_INDIRECT: 14157352 7.07868%
BRANCH_CONDITIONAL: 8914734 4.45737%
BRANCH_DIRECT_CALL: 4151171 2.07559%
BRANCH_INDIRECT_CALL: 1411897 0.705948%
BRANCH_RETURN: 5563021 2.78151%
BRANCH_OTHER: 0 0%

DRAM PAGES: 1048576
Allocated PAGES: 6405
