
*** ChampSim Multicore Out-of-Order Simulator ***

Warmup Instructions: 50000000
Simulation Instructions: 200000000
Number of CPUs: 1
LLC sets: 2048
LLC ways: 16
Off-chip DRAM Size: 4096 MB Channels: 1 Width: 64-bit Data Rate: 6400 MT/s
CPU 0 runs traces/spec2k17/srv_33.champsimtrace.xz
.xz
BTB has LRU replacement policy
ITLB has LRU replacement policy
DTLB has LRU replacement policy
STLB has LRU replacement policy
L1I has LRU replacement policy
L1D has LRU replacement policy
Initialize SRRIP state for L2C
Initialize DRRIP state for LLC
Heartbeat CPU 0 instructions: 10000001 cycles: 2939102 heartbeat IPC: 3.4024 cumulative IPC: 3.4024 (Simulation time: 0 hr 0 min 45 sec) 
Heartbeat CPU 0 instructions: 20000003 cycles: 5882266 heartbeat IPC: 3.3977 cumulative IPC: 3.40005 (Simulation time: 0 hr 1 min 27 sec) 
Heartbeat CPU 0 instructions: 30000000 cycles: 8820364 heartbeat IPC: 3.40356 cumulative IPC: 3.40122 (Simulation time: 0 hr 2 min 14 sec) 
*** Reached end of trace for Core: 0 Repeating trace: traces/spec2k17/srv_33.champsimtrace.xz
Heartbeat CPU 0 instructions: 40000002 cycles: 11760166 heartbeat IPC: 3.40159 cumulative IPC: 3.40131 (Simulation time: 0 hr 3 min 1 sec) 
Heartbeat CPU 0 instructions: 50000002 cycles: 14707580 heartbeat IPC: 3.3928 cumulative IPC: 3.39961 (Simulation time: 0 hr 3 min 45 sec) 

Warmup complete CPU 0 instructions: 50000002 cycles: 14707580 (Simulation time: 0 hr 3 min 45 sec) 

Heartbeat CPU 0 instructions: 60000000 cycles: 34025633 heartbeat IPC: 0.51765 cumulative IPC: 0.51765 (Simulation time: 0 hr 4 min 58 sec) 
*** Reached end of trace for Core: 0 Repeating trace: traces/spec2k17/srv_33.champsimtrace.xz
Heartbeat CPU 0 instructions: 70000000 cycles: 53264208 heartbeat IPC: 0.519789 cumulative IPC: 0.518718 (Simulation time: 0 hr 6 min 12 sec) 
Heartbeat CPU 0 instructions: 80000003 cycles: 72431910 heartbeat IPC: 0.521711 cumulative IPC: 0.519712 (Simulation time: 0 hr 7 min 19 sec) 
Heartbeat CPU 0 instructions: 90000001 cycles: 91660432 heartbeat IPC: 0.520061 cumulative IPC: 0.519799 (Simulation time: 0 hr 8 min 33 sec) 
*** Reached end of trace for Core: 0 Repeating trace: traces/spec2k17/srv_33.champsimtrace.xz
Heartbeat CPU 0 instructions: 100000000 cycles: 110887321 heartbeat IPC: 0.520105 cumulative IPC: 0.51986 (Simulation time: 0 hr 9 min 50 sec) 
Heartbeat CPU 0 instructions: 110000000 cycles: 130053658 heartbeat IPC: 0.521748 cumulative IPC: 0.520174 (Simulation time: 0 hr 11 min 2 sec) 
Heartbeat CPU 0 instructions: 120000000 cycles: 149330607 heartbeat IPC: 0.518754 cumulative IPC: 0.51997 (Simulation time: 0 hr 12 min 16 sec) 
*** Reached end of trace for Core: 0 Repeating trace: traces/spec2k17/srv_33.champsimtrace.xz
Heartbeat CPU 0 instructions: 130000002 cycles: 168506899 heartbeat IPC: 0.521477 cumulative IPC: 0.520158 (Simulation time: 0 hr 13 min 29 sec) 
Heartbeat CPU 0 instructions: 140000000 cycles: 187620244 heartbeat IPC: 0.523195 cumulative IPC: 0.520494 (Simulation time: 0 hr 14 min 44 sec) 
Heartbeat CPU 0 instructions: 150000001 cycles: 206776674 heartbeat IPC: 0.522018 cumulative IPC: 0.520646 (Simulation time: 0 hr 15 min 57 sec) 
Heartbeat CPU 0 instructions: 160000001 cycles: 225966797 heartbeat IPC: 0.521101 cumulative IPC: 0.520687 (Simulation time: 0 hr 17 min 7 sec) 
*** Reached end of trace for Core: 0 Repeating trace: traces/spec2k17/srv_33.champsimtrace.xz
Heartbeat CPU 0 instructions: 170000001 cycles: 245127787 heartbeat IPC: 0.521894 cumulative IPC: 0.520788 (Simulation time: 0 hr 18 min 19 sec) 
Heartbeat CPU 0 instructions: 180000003 cycles: 264364399 heartbeat IPC: 0.519842 cumulative IPC: 0.520715 (Simulation time: 0 hr 19 min 29 sec) 
Heartbeat CPU 0 instructions: 190000002 cycles: 283541540 heartbeat IPC: 0.521454 cumulative IPC: 0.520768 (Simulation time: 0 hr 20 min 39 sec) 
*** Reached end of trace for Core: 0 Repeating trace: traces/spec2k17/srv_33.champsimtrace.xz
Heartbeat CPU 0 instructions: 200000000 cycles: 302690813 heartbeat IPC: 0.522213 cumulative IPC: 0.520864 (Simulation time: 0 hr 21 min 52 sec) 
Heartbeat CPU 0 instructions: 210000001 cycles: 321886736 heartbeat IPC: 0.520944 cumulative IPC: 0.520869 (Simulation time: 0 hr 23 min 2 sec) 
Heartbeat CPU 0 instructions: 220000000 cycles: 340979105 heartbeat IPC: 0.523769 cumulative IPC: 0.521038 (Simulation time: 0 hr 24 min 13 sec) 
*** Reached end of trace for Core: 0 Repeating trace: traces/spec2k17/srv_33.champsimtrace.xz
Heartbeat CPU 0 instructions: 230000000 cycles: 360141265 heartbeat IPC: 0.521862 cumulative IPC: 0.521084 (Simulation time: 0 hr 25 min 16 sec) 
Heartbeat CPU 0 instructions: 240000001 cycles: 379319407 heartbeat IPC: 0.521427 cumulative IPC: 0.521102 (Simulation time: 0 hr 26 min 25 sec) 
Heartbeat CPU 0 instructions: 250000002 cycles: 398450697 heartbeat IPC: 0.522704 cumulative IPC: 0.521182 (Simulation time: 0 hr 27 min 26 sec) 
Finished CPU 0 instructions: 200000000 cycles: 383743117 cumulative IPC: 0.521182 (Simulation time: 0 hr 27 min 26 sec) 

ChampSim completed all CPUs

Region of Interest Statistics

CPU 0 cumulative IPC: 0.521182 instructions: 200000000 cycles: 383743117
ITLB TOTAL     ACCESS:   33764410  HIT:   32221512  MISS:    1542898  HIT %:    95.4304  MISS %:     4.5696   MPKI: 7.71449
ITLB LOAD TRANSLATION ACCESS:   33764410  HIT:   32221512  MISS:    1542898  HIT %:    95.4304  MISS %:     4.5696   MPKI: 7.71449
ITLB PREFETCH  REQUESTED:          0  ISSUED:          0  USEFUL:          0  USELESS:          0
ITLB USEFUL LOAD PREFETCHES:          0 PREFETCH ISSUED TO LOWER LEVEL:          0  ACCURACY: -nan
ITLB TIMELY PREFETCHES:          0 LATE PREFETCHES: 0 DROPPED PREFETCHES: 0
ITLB PREFETCHES SAME FILL-ORIGIN LEVEL: 0 DIFFERENT FILL-ORIGIN LEVEL: 0
ITLB AVERAGE MISS LATENCY: 9.22464 cycles
ITLB RQ	ACCESS:   40671074	FORWARD:          0	MERGED:    6410458	TO_CACHE:   34260616

DTLB TOTAL     ACCESS:   40000969  HIT:   38484717  MISS:    1516252  HIT %:    96.2095  MISS %:    3.79054   MPKI: 7.58126
DTLB LOAD TRANSLATION ACCESS:   40000969  HIT:   38484717  MISS:    1516252  HIT %:    96.2095  MISS %:    3.79054   MPKI: 7.58126
DTLB PREFETCH  REQUESTED:          0  ISSUED:          0  USEFUL:          0  USELESS:          0
DTLB USEFUL LOAD PREFETCHES:          0 PREFETCH ISSUED TO LOWER LEVEL:          0  ACCURACY: -nan
DTLB TIMELY PREFETCHES:          0 LATE PREFETCHES: 0 DROPPED PREFETCHES: 0
DTLB PREFETCHES SAME FILL-ORIGIN LEVEL: 0 DIFFERENT FILL-ORIGIN LEVEL: 0
DTLB AVERAGE MISS LATENCY: 14.0279 cycles
DTLB RQ	ACCESS:   61188570	FORWARD:          0	MERGED:   20801434	TO_CACHE:   40387136

STLB TOTAL     ACCESS:    7207368  HIT:    7133657  MISS:      73711  HIT %:    98.9773  MISS %:    1.02272   MPKI: 0.368555
STLB LOAD TRANSLATION ACCESS:    3059150  HIT:    2987740  MISS:      71410  HIT %:    97.6657  MISS %:    2.33431   MPKI: 0.35705
STLB TRANSLATION FROM L1D PREFETCHER ACCESS:    4148218  HIT:    4145917  MISS:       2301  HIT %:    99.9445  MISS %:  0.0554696   MPKI: 0.011505
STLB PREFETCH  REQUESTED:          0  ISSUED:          0  USEFUL:       2220  USELESS:         82
STLB USEFUL LOAD PREFETCHES:       2220 PREFETCH ISSUED TO LOWER LEVEL:          0  ACCURACY: inf
STLB TIMELY PREFETCHES:       2220 LATE PREFETCHES: 887 DROPPED PREFETCHES: 30403
STLB PREFETCHES SAME FILL-ORIGIN LEVEL: 0 DIFFERENT FILL-ORIGIN LEVEL: 0
STLB AVERAGE MISS LATENCY: 104811 cycles
STLB RQ	ACCESS:   10061236	FORWARD:          0	MERGED:    2822109	TO_CACHE:    7239127

STLB Hit, L1D data hit: 0
STLB Hit, L2C data hit: 0
STLB Hit, LLC data hit: 0
STLB Hit, LLC data miss: 0
STLB STLB hints to L2: 0
L1D TOTAL     ACCESS:   54780923  HIT:   47950712  MISS:    6830211  HIT %:    87.5318  MISS %:    12.4682   MPKI: 34.1511
L1D LOAD      ACCESS:   26758295  HIT:   23927004  MISS:    2831291  HIT %:     89.419  MISS %:     10.581   MPKI: 14.1565
L1D RFO       ACCESS:   22311757  HIT:   18609656  MISS:    3702101  HIT %:    83.4074  MISS %:    16.5926   MPKI: 18.5105
L1D PREFETCH  ACCESS:    5710871  HIT:    5414052  MISS:     296819  HIT %:    94.8026  MISS %:    5.19744   MPKI: 1.48409
AGUS PREFETCH L1 MISS: 0
L1D PREFETCH  REQUESTED:   15176366  ISSUED:   15172782  USEFUL:     233129  USELESS:      63686
L1D USEFUL LOAD PREFETCHES:     233129 PREFETCH ISSUED TO LOWER LEVEL:     776444  ACCURACY: 30.0252
L1D TIMELY PREFETCHES:     233129 LATE PREFETCHES: 479577 DROPPED PREFETCHES: 43023
L1D PREFETCHES SAME FILL-ORIGIN LEVEL: 776444 DIFFERENT FILL-ORIGIN LEVEL: 0
L1D AVERAGE MISS LATENCY: 1.47163e+07 cycles
L1D RQ	ACCESS:   45283497	FORWARD:          0	MERGED:   17858133	TO_CACHE:   27142198
L1D WQ	ACCESS:   34247148	FORWARD:     308553	MERGED:     200776	TO_CACHE:   34046372
L1D PQ	ACCESS:    8170696	FORWARD:          0	MERGED:    1143223	TO_CACHE:    7002086

L1D UNIQUE REGIONS ACCESSED: 0
L1D REGIONS CONFLICTS: 0
L1D Cross Page Prefetch Requests: 3113757
L1D Same Page Prefetch Requests: 6120700
L1D ROI Sum of L1D PQ occupancy: 109684985
L1D PREFETCHES PUSHED FROM L2C: 0
L1I TOTAL     ACCESS:   38011988  HIT:   28893853  MISS:    9118135  HIT %:    76.0125  MISS %:    23.9875   MPKI: 45.5907
L1I LOAD      ACCESS:   38011988  HIT:   28893853  MISS:    9118135  HIT %:    76.0125  MISS %:    23.9875   MPKI: 45.5907
L1I PREFETCH  REQUESTED:          0  ISSUED:          0  USEFUL:          0  USELESS:          0
L1I USEFUL LOAD PREFETCHES:          0 PREFETCH ISSUED TO LOWER LEVEL:          0  ACCURACY: -nan
L1I TIMELY PREFETCHES:          0 LATE PREFETCHES: 0 DROPPED PREFETCHES: 0
L1I PREFETCHES SAME FILL-ORIGIN LEVEL: 0 DIFFERENT FILL-ORIGIN LEVEL: 0
L1I AVERAGE MISS LATENCY: 16.4973 cycles
L1I RQ	ACCESS:   58943617	FORWARD:          0	MERGED:   18272543	TO_CACHE:   40671074

BTB TOTAL     ACCESS:   25663217  HIT:   24125509  MISS:    1537708  HIT %:    94.0081  MISS %:    5.99188   MPKI: 7.68854
BTB BRANCH_DIRECT_JUMP	ACCESS:    1661208  HIT:    1651586  MISS:       9622
BTB BRANCH_INDIRECT	ACCESS:    9967593  HIT:    9459764  MISS:     507829
BTB BRANCH_CONDITIONAL	ACCESS:    7198622  HIT:    7185146  MISS:      13476
BTB BRANCH_DIRECT_CALL	ACCESS:    2825210  HIT:    2791882  MISS:      33328
BTB BRANCH_INDIRECT_CALL	ACCESS:     592633  HIT:     481147  MISS:     111486
BTB BRANCH_RETURN	ACCESS:    3417951  HIT:    2555984  MISS:     861967
BTB BRANCH_OTHER ACCESS:          0  HIT:          0  MISS:          0

L2C TOTAL     ACCESS:   20428588  HIT:   13804133  MISS:    6624455  HIT %:    67.5726  MISS %:    32.4274   MPKI: 33.1223
L2C LOAD      ACCESS:   11469796  HIT:    9179865  MISS:    2289931  HIT %:    80.0351  MISS %:    19.9649   MPKI: 11.4497
L2C DATA LOAD MPKI: 8.67394
L2C INSTRUCTION LOAD MPKI: 2.77572
L2C RFO       ACCESS:    3702053  HIT:     173214  MISS:    3528839  HIT %:    4.67886  MISS %:    95.3211   MPKI: 17.6442
L2C PREFETCH  ACCESS:     776423  HIT:     150969  MISS:     625454  HIT %:    19.4442  MISS %:    80.5558   MPKI: 3.12727
AGUS PREFETCH L1 MISS: 0
L2C DATA PREFETCH MPKI: 3.12727
L2C INSTRUCTION PREFETCH MPKI: 0
L2C WRITEBACK ACCESS:    4354432  HIT:    4218619  MISS:     135813  HIT %:     96.881  MISS %:    3.11896   MPKI: 0.679065
L2C LOAD TRANSLATION ACCESS:      78521  HIT:      43209  MISS:      35312  HIT %:    55.0286  MISS %:    44.9714   MPKI: 0.17656
L2C TRANSLATION FROM L1D PREFETCHER ACCESS:      47363  HIT:      38257  MISS:       9106  HIT %:     80.774  MISS %:     19.226   MPKI: 0.04553
L2C PREFETCH  REQUESTED:          0  ISSUED:          0  USEFUL:      12551  USELESS:     622319
L2C USEFUL LOAD PREFETCHES:      12551 PREFETCH ISSUED TO LOWER LEVEL:     625454  ACCURACY: 2.0067
L2C TIMELY PREFETCHES:      12551 LATE PREFETCHES: 0 DROPPED PREFETCHES: 0
L2C PREFETCHES SAME FILL-ORIGIN LEVEL: 0 DIFFERENT FILL-ORIGIN LEVEL: 0
L2C AVERAGE MISS LATENCY: 160.681 cycles
L2C RQ	ACCESS:   15297785	FORWARD:          0	MERGED:          0	TO_CACHE:   15297733
L2C WQ	ACCESS:    4354432	FORWARD:         73	MERGED:          0	TO_CACHE:    4354432
L2C PQ	ACCESS:     776444	FORWARD:          0	MERGED:          0	TO_CACHE:     776423

L2C Instructions Evicting Data 508998
L2C Translations Evicting Data 40258
L2C Data Evicting Data 5354367
L2C Instructions Evicting Instructions 42421
L2C Translations Evicting Instructions 3932
L2C Data Evicting Instructions 494932
L2C Instructions Evicting Translations 3725
L2C Translations Evicting Translations 228
L2C Data Evicting Translations 39781
L2C Dense regions hint from L2: 0
PSCL5 TOTAL     ACCESS:      99954  HIT:      99954  MISS:          0  HIT %:        100  MISS %:          0   MPKI: 0
PSCL5 LOAD TRANSLATION ACCESS:      70523  HIT:      70523  MISS:          0  HIT %:        100  MISS %:          0   MPKI: 0
PSCL5 TRANSLATION FROM L1D PREFETCHER ACCESS:      29431  HIT:      29431  MISS:          0  HIT %:        100  MISS %:          0   MPKI: 0
PSCL5 PREFETCH  REQUESTED:          0  ISSUED:          0  USEFUL:          0  USELESS:          0
PSCL5 USEFUL LOAD PREFETCHES:          0 PREFETCH ISSUED TO LOWER LEVEL:          0  ACCURACY: -nan
PSCL5 TIMELY PREFETCHES:          0 LATE PREFETCHES: 0 DROPPED PREFETCHES: 0
PSCL5 PREFETCHES SAME FILL-ORIGIN LEVEL: 0 DIFFERENT FILL-ORIGIN LEVEL: 0

PSCL4 TOTAL     ACCESS:      85136  HIT:      85042  MISS:         94  HIT %:    99.8896  MISS %:   0.110412   MPKI: 0.00047
PSCL4 LOAD TRANSLATION ACCESS:      61696  HIT:      61602  MISS:         94  HIT %:    99.8476  MISS %:    0.15236   MPKI: 0.00047
PSCL4 TRANSLATION FROM L1D PREFETCHER ACCESS:      23440  HIT:      23440  MISS:          0  HIT %:        100  MISS %:          0   MPKI: 0
PSCL4 PREFETCH  REQUESTED:          0  ISSUED:          0  USEFUL:          0  USELESS:          0
PSCL4 USEFUL LOAD PREFETCHES:          0 PREFETCH ISSUED TO LOWER LEVEL:          0  ACCURACY: -nan
PSCL4 TIMELY PREFETCHES:          0 LATE PREFETCHES: 0 DROPPED PREFETCHES: 0
PSCL4 PREFETCHES SAME FILL-ORIGIN LEVEL: 0 DIFFERENT FILL-ORIGIN LEVEL: 0

PSCL3 TOTAL     ACCESS:      97711  HIT:      97526  MISS:        185  HIT %:    99.8107  MISS %:   0.189334   MPKI: 0.000925
PSCL3 LOAD TRANSLATION ACCESS:      70505  HIT:      70320  MISS:        185  HIT %:    99.7376  MISS %:   0.262393   MPKI: 0.000925
PSCL3 TRANSLATION FROM L1D PREFETCHER ACCESS:      27206  HIT:      27206  MISS:          0  HIT %:        100  MISS %:          0   MPKI: 0
PSCL3 PREFETCH  REQUESTED:          0  ISSUED:          0  USEFUL:          0  USELESS:          0
PSCL3 USEFUL LOAD PREFETCHES:          0 PREFETCH ISSUED TO LOWER LEVEL:          0  ACCURACY: -nan
PSCL3 TIMELY PREFETCHES:          0 LATE PREFETCHES: 0 DROPPED PREFETCHES: 0
PSCL3 PREFETCHES SAME FILL-ORIGIN LEVEL: 0 DIFFERENT FILL-ORIGIN LEVEL: 0

PSCL2 TOTAL     ACCESS:      80903  HIT:      73060  MISS:       7843  HIT %:    90.3057  MISS %:    9.69433   MPKI: 0.039215
PSCL2 LOAD TRANSLATION ACCESS:      70647  HIT:      62804  MISS:       7843  HIT %:    88.8983  MISS %:    11.1017   MPKI: 0.039215
PSCL2 TRANSLATION FROM L1D PREFETCHER ACCESS:      10256  HIT:      10256  MISS:          0  HIT %:        100  MISS %:          0   MPKI: 0
PSCL2 PREFETCH  REQUESTED:          0  ISSUED:          0  USEFUL:          0  USELESS:          0
PSCL2 USEFUL LOAD PREFETCHES:          0 PREFETCH ISSUED TO LOWER LEVEL:          0  ACCURACY: -nan
PSCL2 TIMELY PREFETCHES:          0 LATE PREFETCHES: 0 DROPPED PREFETCHES: 0
PSCL2 PREFETCHES SAME FILL-ORIGIN LEVEL: 0 DIFFERENT FILL-ORIGIN LEVEL: 0

LLC TOTAL     ACCESS:   10517965  HIT:    4187649  MISS:    6330316  HIT %:    39.8143  MISS %:    60.1857   MPKI: 31.6516
LLC LOAD      ACCESS:    2289928  HIT:    1623384  MISS:     666544  HIT %:    70.8924  MISS %:    29.1076   MPKI: 3.33272
LLC RFO       ACCESS:    3528812  HIT:     963677  MISS:    2565135  HIT %:    27.3088  MISS %:    72.6912   MPKI: 12.8257
LLC PREFETCH  ACCESS:     625454  HIT:      53544  MISS:     571910  HIT %:    8.56082  MISS %:    91.4392   MPKI: 2.85955
AGUS PREFETCH L1 MISS: 0
LLC WRITEBACK ACCESS:    4029353  HIT:    1533236  MISS:    2496117  HIT %:    38.0517  MISS %:    61.9483   MPKI: 12.4806
LLC LOAD TRANSLATION ACCESS:      35312  HIT:      10042  MISS:      25270  HIT %:    28.4379  MISS %:    71.5621   MPKI: 0.12635
LLC TRANSLATION FROM L1D PREFETCHER ACCESS:       9106  HIT:       3766  MISS:       5340  HIT %:    41.3573  MISS %:    58.6427   MPKI: 0.0267
LLC PREFETCH  REQUESTED:          0  ISSUED:          0  USEFUL:       2162  USELESS:     575930
LLC USEFUL LOAD PREFETCHES:       2162 PREFETCH ISSUED TO LOWER LEVEL:     571910  ACCURACY: 0.378032
LLC TIMELY PREFETCHES:       2162 LATE PREFETCHES: 0 DROPPED PREFETCHES: 0
LLC PREFETCHES SAME FILL-ORIGIN LEVEL: 0 DIFFERENT FILL-ORIGIN LEVEL: 0
LLC AVERAGE MISS LATENCY: 137.395 cycles
LLC RQ	ACCESS:    5863188	FORWARD:          0	MERGED:          0	TO_CACHE:    5863158
LLC WQ	ACCESS:    4029353	FORWARD:         30	MERGED:          0	TO_CACHE:    4029353
LLC PQ	ACCESS:     625454	FORWARD:          0	MERGED:          0	TO_CACHE:     625454

LLC Dense regions hint to LLC: 0

RAW hits: 2444446
Loads Generated: 47727944
Loads sent to L1D: 45283497
Stores Generated: 34247178
Stores sent to L1D: 34247148
Major fault: 0 Minor fault: 8597
Allocated PAGES: 8597
Completed 

DRAM Statistics
 CHANNEL 0
 RQ ROW_BUFFER_HIT:    1841951  ROW_BUFFER_MISS:    1991740
 DBUS_CONGESTED:       2226
 WQ ROW_BUFFER_HIT:     521597  ROW_BUFFER_MISS:    2109273  FULL:      59319

 AVG_CONGESTED_CYCLE: 3
 All warmup complete: 2
Channel 0 Bank busy for read cycles: 0
Channel 0 Bank busy for write cycles: 0
Channel 0
Rank 0
0banks busy for read cycles: 176343821
0banks busy for write cycles: 271754
1banks busy for read cycles: 27659708
1banks busy for write cycles: 38142242
2banks busy for read cycles: 11427228
2banks busy for write cycles: 13428571
3banks busy for read cycles: 15257319
3banks busy for write cycles: 5786005
4banks busy for read cycles: 5611465
4banks busy for write cycles: 3623719
5banks busy for read cycles: 4848287
5banks busy for write cycles: 3107275
6banks busy for read cycles: 5686017
6banks busy for write cycles: 3125984
7banks busy for read cycles: 7114512
7banks busy for write cycles: 5709018
8banks busy for read cycles: 21400804
8banks busy for write cycles: 35199389

CPU 0 Branch Prediction Accuracy: 99.9491% MPKI: 0.0777 Average ROB Occupancy at Mispredict: 122.454
Branch types
NOT_BRANCH: 169471465 84.7357%
BRANCH_DIRECT_JUMP: 1661208 0.830604%
BRANCH_INDIRECT: 9967593 4.9838%
BRANCH_CONDITIONAL: 12063902 6.03195%
BRANCH_DIRECT_CALL: 2825210 1.41261%
BRANCH_INDIRECT_CALL: 592633 0.296316%
BRANCH_RETURN: 3417951 1.70898%
BRANCH_OTHER: 0 0%

DRAM PAGES: 1048576
Allocated PAGES: 8597
