
*** ChampSim Multicore Out-of-Order Simulator ***

Warmup Instructions: 50000000
Simulation Instructions: 200000000
Number of CPUs: 1
LLC sets: 2048
LLC ways: 16
Off-chip DRAM Size: 4096 MB Channels: 1 Width: 64-bit Data Rate: 6400 MT/s
CPU 0 runs traces/spec2k17/srv_13.champsimtrace.xz
.xz
BTB has LRU replacement policy
ITLB has LRU replacement policy
DTLB has LRU replacement policy
STLB has LRU replacement policy
L1I has LRU replacement policy
L1D has LRU replacement policy
Initialize SRRIP state for L2C
Initialize DRRIP state for LLC
Heartbeat CPU 0 instructions: 10000002 cycles: 2807424 heartbeat IPC: 3.56199 cumulative IPC: 3.56199 (Simulation time: 0 hr 0 min 44 sec) 
Heartbeat CPU 0 instructions: 20000000 cycles: 5612141 heartbeat IPC: 3.56542 cumulative IPC: 3.5637 (Simulation time: 0 hr 1 min 25 sec) 
Heartbeat CPU 0 instructions: 30000003 cycles: 8419201 heartbeat IPC: 3.56245 cumulative IPC: 3.56328 (Simulation time: 0 hr 2 min 6 sec) 
*** Reached end of trace for Core: 0 Repeating trace: traces/spec2k17/srv_13.champsimtrace.xz
Heartbeat CPU 0 instructions: 40000001 cycles: 11218521 heartbeat IPC: 3.5723 cumulative IPC: 3.56553 (Simulation time: 0 hr 2 min 46 sec) 
Heartbeat CPU 0 instructions: 50000003 cycles: 14025084 heartbeat IPC: 3.56308 cumulative IPC: 3.56504 (Simulation time: 0 hr 3 min 26 sec) 

Warmup complete CPU 0 instructions: 50000003 cycles: 14025084 (Simulation time: 0 hr 3 min 26 sec) 

Heartbeat CPU 0 instructions: 60000000 cycles: 44255403 heartbeat IPC: 0.330794 cumulative IPC: 0.330794 (Simulation time: 0 hr 4 min 31 sec) 
*** Reached end of trace for Core: 0 Repeating trace: traces/spec2k17/srv_13.champsimtrace.xz
Heartbeat CPU 0 instructions: 70000001 cycles: 73267416 heartbeat IPC: 0.344685 cumulative IPC: 0.337596 (Simulation time: 0 hr 5 min 33 sec) 
Heartbeat CPU 0 instructions: 80000003 cycles: 103110949 heartbeat IPC: 0.335081 cumulative IPC: 0.336754 (Simulation time: 0 hr 6 min 38 sec) 
Heartbeat CPU 0 instructions: 90000001 cycles: 133390741 heartbeat IPC: 0.330253 cumulative IPC: 0.335105 (Simulation time: 0 hr 7 min 35 sec) 
*** Reached end of trace for Core: 0 Repeating trace: traces/spec2k17/srv_13.champsimtrace.xz
Heartbeat CPU 0 instructions: 100000000 cycles: 162637838 heartbeat IPC: 0.341914 cumulative IPC: 0.336445 (Simulation time: 0 hr 8 min 27 sec) 
Heartbeat CPU 0 instructions: 110000000 cycles: 192158279 heartbeat IPC: 0.338748 cumulative IPC: 0.336827 (Simulation time: 0 hr 9 min 28 sec) 
Heartbeat CPU 0 instructions: 120000002 cycles: 222469905 heartbeat IPC: 0.329906 cumulative IPC: 0.33582 (Simulation time: 0 hr 10 min 26 sec) 
*** Reached end of trace for Core: 0 Repeating trace: traces/spec2k17/srv_13.champsimtrace.xz
Heartbeat CPU 0 instructions: 130000001 cycles: 251565592 heartbeat IPC: 0.343694 cumulative IPC: 0.336785 (Simulation time: 0 hr 11 min 23 sec) 
Heartbeat CPU 0 instructions: 140000002 cycles: 281237485 heartbeat IPC: 0.337019 cumulative IPC: 0.336811 (Simulation time: 0 hr 12 min 17 sec) 
Heartbeat CPU 0 instructions: 150000002 cycles: 311319132 heartbeat IPC: 0.332429 cumulative IPC: 0.336367 (Simulation time: 0 hr 13 min 17 sec) 
*** Reached end of trace for Core: 0 Repeating trace: traces/spec2k17/srv_13.champsimtrace.xz
Heartbeat CPU 0 instructions: 160000002 cycles: 340319716 heartbeat IPC: 0.344821 cumulative IPC: 0.337119 (Simulation time: 0 hr 14 min 18 sec) 
Heartbeat CPU 0 instructions: 170000000 cycles: 369984584 heartbeat IPC: 0.337099 cumulative IPC: 0.337117 (Simulation time: 0 hr 15 min 17 sec) 
Heartbeat CPU 0 instructions: 180000003 cycles: 399927513 heartbeat IPC: 0.333969 cumulative IPC: 0.336873 (Simulation time: 0 hr 16 min 17 sec) 
*** Reached end of trace for Core: 0 Repeating trace: traces/spec2k17/srv_13.champsimtrace.xz
Heartbeat CPU 0 instructions: 190000000 cycles: 429004069 heartbeat IPC: 0.34392 cumulative IPC: 0.337366 (Simulation time: 0 hr 17 min 19 sec) 
Heartbeat CPU 0 instructions: 200000001 cycles: 458513811 heartbeat IPC: 0.338871 cumulative IPC: 0.337466 (Simulation time: 0 hr 18 min 21 sec) 
Heartbeat CPU 0 instructions: 210000000 cycles: 488154291 heartbeat IPC: 0.337376 cumulative IPC: 0.337461 (Simulation time: 0 hr 19 min 24 sec) 
*** Reached end of trace for Core: 0 Repeating trace: traces/spec2k17/srv_13.champsimtrace.xz
Heartbeat CPU 0 instructions: 220000000 cycles: 517461528 heartbeat IPC: 0.341213 cumulative IPC: 0.337679 (Simulation time: 0 hr 20 min 27 sec) 
Heartbeat CPU 0 instructions: 230000001 cycles: 546800508 heartbeat IPC: 0.340843 cumulative IPC: 0.337853 (Simulation time: 0 hr 21 min 32 sec) 
Heartbeat CPU 0 instructions: 240000000 cycles: 576420221 heartbeat IPC: 0.337613 cumulative IPC: 0.337841 (Simulation time: 0 hr 22 min 36 sec) 
*** Reached end of trace for Core: 0 Repeating trace: traces/spec2k17/srv_13.champsimtrace.xz
Heartbeat CPU 0 instructions: 250000000 cycles: 606018721 heartbeat IPC: 0.337855 cumulative IPC: 0.337841 (Simulation time: 0 hr 23 min 41 sec) 
Finished CPU 0 instructions: 200000003 cycles: 591993642 cumulative IPC: 0.337841 (Simulation time: 0 hr 23 min 41 sec) 

ChampSim completed all CPUs

Region of Interest Statistics

CPU 0 cumulative IPC: 0.337841 instructions: 200000003 cycles: 591993642
ITLB TOTAL     ACCESS:   34416151  HIT:   32578026  MISS:    1838125  HIT %:    94.6591  MISS %:    5.34088   MPKI: 9.19062
ITLB LOAD TRANSLATION ACCESS:   34416151  HIT:   32578026  MISS:    1838125  HIT %:    94.6591  MISS %:    5.34088   MPKI: 9.19062
ITLB PREFETCH  REQUESTED:          0  ISSUED:          0  USEFUL:          0  USELESS:          0
ITLB USEFUL LOAD PREFETCHES:          0 PREFETCH ISSUED TO LOWER LEVEL:          0  ACCURACY: -nan
ITLB TIMELY PREFETCHES:          0 LATE PREFETCHES: 0 DROPPED PREFETCHES: 0
ITLB PREFETCHES SAME FILL-ORIGIN LEVEL: 0 DIFFERENT FILL-ORIGIN LEVEL: 0
ITLB AVERAGE MISS LATENCY: 9.05409 cycles
ITLB RQ	ACCESS:   40217522	FORWARD:          0	MERGED:    5358173	TO_CACHE:   34859349

DTLB TOTAL     ACCESS:   45370170  HIT:   43576566  MISS:    1793604  HIT %:    96.0467  MISS %:    3.95327   MPKI: 8.96802
DTLB LOAD TRANSLATION ACCESS:   45370170  HIT:   43576566  MISS:    1793604  HIT %:    96.0467  MISS %:    3.95327   MPKI: 8.96802
DTLB PREFETCH  REQUESTED:          0  ISSUED:          0  USEFUL:          0  USELESS:          0
DTLB USEFUL LOAD PREFETCHES:          0 PREFETCH ISSUED TO LOWER LEVEL:          0  ACCURACY: -nan
DTLB TIMELY PREFETCHES:          0 LATE PREFETCHES: 0 DROPPED PREFETCHES: 0
DTLB PREFETCHES SAME FILL-ORIGIN LEVEL: 0 DIFFERENT FILL-ORIGIN LEVEL: 0
DTLB AVERAGE MISS LATENCY: 8.76353 cycles
DTLB RQ	ACCESS:   59737689	FORWARD:          0	MERGED:   14303778	TO_CACHE:   45433911

STLB TOTAL     ACCESS:   12281394  HIT:   12271371  MISS:      10023  HIT %:    99.9184  MISS %:  0.0816113   MPKI: 0.050115
STLB LOAD TRANSLATION ACCESS:    3631729  HIT:    3622347  MISS:       9382  HIT %:    99.7417  MISS %:   0.258334   MPKI: 0.04691
STLB TRANSLATION FROM L1D PREFETCHER ACCESS:    8649665  HIT:    8649024  MISS:        641  HIT %:    99.9926  MISS %: 0.00741069   MPKI: 0.003205
STLB PREFETCH  REQUESTED:          0  ISSUED:          0  USEFUL:        511  USELESS:        124
STLB USEFUL LOAD PREFETCHES:        511 PREFETCH ISSUED TO LOWER LEVEL:          0  ACCURACY: inf
STLB TIMELY PREFETCHES:        511 LATE PREFETCHES: 159 DROPPED PREFETCHES: 151268
STLB PREFETCHES SAME FILL-ORIGIN LEVEL: 0 DIFFERENT FILL-ORIGIN LEVEL: 0
STLB AVERAGE MISS LATENCY: 268813 cycles
STLB RQ	ACCESS:   14833547	FORWARD:          0	MERGED:    2400674	TO_CACHE:   12432873

STLB Hit, L1D data hit: 0
STLB Hit, L2C data hit: 0
STLB Hit, LLC data hit: 0
STLB Hit, LLC data miss: 0
STLB STLB hints to L2: 0
L1D TOTAL     ACCESS:   68438932  HIT:   64372850  MISS:    4066082  HIT %:    94.0588  MISS %:    5.94118   MPKI: 20.3304
L1D LOAD      ACCESS:   33489140  HIT:   31219934  MISS:    2269206  HIT %:    93.2241  MISS %:    6.77595   MPKI: 11.346
L1D RFO       ACCESS:   24534479  HIT:   23498836  MISS:    1035643  HIT %:    95.7788  MISS %:    4.22117   MPKI: 5.17821
L1D PREFETCH  ACCESS:   10415313  HIT:    9654080  MISS:     761233  HIT %:    92.6912  MISS %:    7.30879   MPKI: 3.80616
AGUS PREFETCH L1 MISS: 0
L1D PREFETCH  REQUESTED:   23455459  ISSUED:   23455248  USEFUL:     570993  USELESS:     190197
L1D USEFUL LOAD PREFETCHES:     570993 PREFETCH ISSUED TO LOWER LEVEL:    1150825  ACCURACY: 49.616
L1D TIMELY PREFETCHES:     570993 LATE PREFETCHES: 387071 DROPPED PREFETCHES: 165986
L1D PREFETCHES SAME FILL-ORIGIN LEVEL: 1150825 DIFFERENT FILL-ORIGIN LEVEL: 0
L1D AVERAGE MISS LATENCY: 3.50939e+07 cycles
L1D RQ	ACCESS:   46966131	FORWARD:          0	MERGED:   13074446	TO_CACHE:   33597053
L1D WQ	ACCESS:   26311887	FORWARD:     314267	MERGED:     171251	TO_CACHE:   26140636
L1D PQ	ACCESS:   12253430	FORWARD:          0	MERGED:    1031977	TO_CACHE:   11201818

L1D UNIQUE REGIONS ACCESSED: 0
L1D REGIONS CONFLICTS: 0
L1D Cross Page Prefetch Requests: 8552254
L1D Same Page Prefetch Requests: 4107486
L1D ROI Sum of L1D PQ occupancy: 163158679
L1D PREFETCHES PUSHED FROM L2C: 0
L1I TOTAL     ACCESS:   38815084  HIT:   29174245  MISS:    9640839  HIT %:    75.1621  MISS %:    24.8379   MPKI: 48.2042
L1I LOAD      ACCESS:   38815084  HIT:   29174245  MISS:    9640839  HIT %:    75.1621  MISS %:    24.8379   MPKI: 48.2042
L1I PREFETCH  REQUESTED:          0  ISSUED:          0  USEFUL:          0  USELESS:          0
L1I USEFUL LOAD PREFETCHES:          0 PREFETCH ISSUED TO LOWER LEVEL:          0  ACCURACY: -nan
L1I TIMELY PREFETCHES:          0 LATE PREFETCHES: 0 DROPPED PREFETCHES: 0
L1I PREFETCHES SAME FILL-ORIGIN LEVEL: 0 DIFFERENT FILL-ORIGIN LEVEL: 0
L1I AVERAGE MISS LATENCY: 16.6481 cycles
L1I RQ	ACCESS:   57780331	FORWARD:          0	MERGED:   17562809	TO_CACHE:   40217522

BTB TOTAL     ACCESS:   30281760  HIT:   18910009  MISS:   11371751  HIT %:    62.4469  MISS %:    37.5531   MPKI: 56.8588
BTB BRANCH_DIRECT_JUMP	ACCESS:    2184471  HIT:    1385849  MISS:     798622
BTB BRANCH_INDIRECT	ACCESS:   11367631  HIT:    7108083  MISS:    4259548
BTB BRANCH_CONDITIONAL	ACCESS:    8713184  HIT:    7563917  MISS:    1149267
BTB BRANCH_DIRECT_CALL	ACCESS:    3386061  HIT:    1522950  MISS:    1863111
BTB BRANCH_INDIRECT_CALL	ACCESS:     622186  HIT:     244573  MISS:     377613
BTB BRANCH_RETURN	ACCESS:    4008227  HIT:    1084637  MISS:    2923590
BTB BRANCH_OTHER ACCESS:          0  HIT:          0  MISS:          0

L2C TOTAL     ACCESS:   15741359  HIT:   14153054  MISS:    1588305  HIT %:      89.91  MISS %:      10.09   MPKI: 7.94152
L2C LOAD      ACCESS:   11522929  HIT:   10422781  MISS:    1100148  HIT %:    90.4525  MISS %:    9.54747   MPKI: 5.50074
L2C DATA LOAD MPKI: 1.39421
L2C INSTRUCTION LOAD MPKI: 4.10653
L2C RFO       ACCESS:    1033112  HIT:     824265  MISS:     208847  HIT %:    79.7847  MISS %:    20.2153   MPKI: 1.04423
L2C PREFETCH  ACCESS:    1150204  HIT:     950132  MISS:     200072  HIT %:    82.6055  MISS %:    17.3945   MPKI: 1.00036
AGUS PREFETCH L1 MISS: 0
L2C DATA PREFETCH MPKI: 1.00036
L2C INSTRUCTION PREFETCH MPKI: 0
L2C WRITEBACK ACCESS:    1817979  HIT:    1767769  MISS:      50210  HIT %:    97.2381  MISS %:    2.76186   MPKI: 0.25105
L2C LOAD TRANSLATION ACCESS:      10096  HIT:       3691  MISS:       6405  HIT %:     36.559  MISS %:     63.441   MPKI: 0.032025
L2C TRANSLATION FROM L1D PREFETCHER ACCESS:     207039  HIT:     184416  MISS:      22623  HIT %:    89.0731  MISS %:    10.9269   MPKI: 0.113115
L2C PREFETCH  REQUESTED:          0  ISSUED:          0  USEFUL:      32039  USELESS:     190437
L2C USEFUL LOAD PREFETCHES:      32039 PREFETCH ISSUED TO LOWER LEVEL:     200072  ACCURACY: 16.0137
L2C TIMELY PREFETCHES:      32039 LATE PREFETCHES: 0 DROPPED PREFETCHES: 0
L2C PREFETCHES SAME FILL-ORIGIN LEVEL: 0 DIFFERENT FILL-ORIGIN LEVEL: 0
L2C AVERAGE MISS LATENCY: 33.9123 cycles
L2C RQ	ACCESS:   12773233	FORWARD:          0	MERGED:          0	TO_CACHE:   12773178
L2C WQ	ACCESS:    1817979	FORWARD:        676	MERGED:          0	TO_CACHE:    1817979
L2C PQ	ACCESS:    1150825	FORWARD:          0	MERGED:          0	TO_CACHE:    1150204

L2C Instructions Evicting Data 332995
L2C Translations Evicting Data 16993
L2C Data Evicting Data 367018
L2C Instructions Evicting Instructions 477190
L2C Translations Evicting Instructions 11022
L2C Data Evicting Instructions 304779
L2C Instructions Evicting Translations 11121
L2C Translations Evicting Translations 1013
L2C Data Evicting Translations 15964
L2C Dense regions hint from L2: 0
PSCL5 TOTAL     ACCESS:     157362  HIT:     157362  MISS:          0  HIT %:        100  MISS %:          0   MPKI: 0
PSCL5 LOAD TRANSLATION ACCESS:       9223  HIT:       9223  MISS:          0  HIT %:        100  MISS %:          0   MPKI: 0
PSCL5 TRANSLATION FROM L1D PREFETCHER ACCESS:     148139  HIT:     148139  MISS:          0  HIT %:        100  MISS %:          0   MPKI: 0
PSCL5 PREFETCH  REQUESTED:          0  ISSUED:          0  USEFUL:          0  USELESS:          0
PSCL5 USEFUL LOAD PREFETCHES:          0 PREFETCH ISSUED TO LOWER LEVEL:          0  ACCURACY: -nan
PSCL5 TIMELY PREFETCHES:          0 LATE PREFETCHES: 0 DROPPED PREFETCHES: 0
PSCL5 PREFETCHES SAME FILL-ORIGIN LEVEL: 0 DIFFERENT FILL-ORIGIN LEVEL: 0

PSCL4 TOTAL     ACCESS:     113985  HIT:     113950  MISS:         35  HIT %:    99.9693  MISS %:  0.0307058   MPKI: 0.000175
PSCL4 LOAD TRANSLATION ACCESS:       8708  HIT:       8673  MISS:         35  HIT %:    99.5981  MISS %:   0.401929   MPKI: 0.000175
PSCL4 TRANSLATION FROM L1D PREFETCHER ACCESS:     105277  HIT:     105277  MISS:          0  HIT %:        100  MISS %:          0   MPKI: 0
PSCL4 PREFETCH  REQUESTED:          0  ISSUED:          0  USEFUL:          0  USELESS:          0
PSCL4 USEFUL LOAD PREFETCHES:          0 PREFETCH ISSUED TO LOWER LEVEL:          0  ACCURACY: -nan
PSCL4 TIMELY PREFETCHES:          0 LATE PREFETCHES: 0 DROPPED PREFETCHES: 0
PSCL4 PREFETCHES SAME FILL-ORIGIN LEVEL: 0 DIFFERENT FILL-ORIGIN LEVEL: 0

PSCL3 TOTAL     ACCESS:     125214  HIT:     125179  MISS:         35  HIT %:     99.972  MISS %:  0.0279521   MPKI: 0.000175
PSCL3 LOAD TRANSLATION ACCESS:       9185  HIT:       9150  MISS:         35  HIT %:    99.6189  MISS %:   0.381056   MPKI: 0.000175
PSCL3 TRANSLATION FROM L1D PREFETCHER ACCESS:     116029  HIT:     116029  MISS:          0  HIT %:        100  MISS %:          0   MPKI: 0
PSCL3 PREFETCH  REQUESTED:          0  ISSUED:          0  USEFUL:          0  USELESS:          0
PSCL3 USEFUL LOAD PREFETCHES:          0 PREFETCH ISSUED TO LOWER LEVEL:          0  ACCURACY: -nan
PSCL3 TIMELY PREFETCHES:          0 LATE PREFETCHES: 0 DROPPED PREFETCHES: 0
PSCL3 PREFETCHES SAME FILL-ORIGIN LEVEL: 0 DIFFERENT FILL-ORIGIN LEVEL: 0

PSCL2 TOTAL     ACCESS:      44201  HIT:      43333  MISS:        868  HIT %:    98.0362  MISS %:    1.96376   MPKI: 0.00434
PSCL2 LOAD TRANSLATION ACCESS:       9280  HIT:       8412  MISS:        868  HIT %:    90.6466  MISS %:    9.35345   MPKI: 0.00434
PSCL2 TRANSLATION FROM L1D PREFETCHER ACCESS:      34921  HIT:      34921  MISS:          0  HIT %:        100  MISS %:          0   MPKI: 0
PSCL2 PREFETCH  REQUESTED:          0  ISSUED:          0  USEFUL:          0  USELESS:          0
PSCL2 USEFUL LOAD PREFETCHES:          0 PREFETCH ISSUED TO LOWER LEVEL:          0  ACCURACY: -nan
PSCL2 TIMELY PREFETCHES:          0 LATE PREFETCHES: 0 DROPPED PREFETCHES: 0
PSCL2 PREFETCHES SAME FILL-ORIGIN LEVEL: 0 DIFFERENT FILL-ORIGIN LEVEL: 0

LLC TOTAL     ACCESS:    1833831  HIT:    1782253  MISS:      51578  HIT %:    97.1874  MISS %:    2.81258   MPKI: 0.25789
LLC LOAD      ACCESS:    1100148  HIT:    1086030  MISS:      14118  HIT %:    98.7167  MISS %:    1.28328   MPKI: 0.07059
LLC RFO       ACCESS:     208847  HIT:     187511  MISS:      21336  HIT %:    89.7839  MISS %:    10.2161   MPKI: 0.10668
LLC PREFETCH  ACCESS:     200072  HIT:     185580  MISS:      14492  HIT %:    92.7566  MISS %:    7.24339   MPKI: 0.07246
AGUS PREFETCH L1 MISS: 0
LLC WRITEBACK ACCESS:     295736  HIT:     295492  MISS:        244  HIT %:    99.9175  MISS %:   0.082506   MPKI: 0.00122
LLC LOAD TRANSLATION ACCESS:       6405  HIT:       6268  MISS:        137  HIT %:     97.861  MISS %:    2.13895   MPKI: 0.000685
LLC TRANSLATION FROM L1D PREFETCHER ACCESS:      22623  HIT:      21372  MISS:       1251  HIT %:    94.4702  MISS %:    5.52977   MPKI: 0.006255
LLC PREFETCH  REQUESTED:          0  ISSUED:          0  USEFUL:       2690  USELESS:      12680
LLC USEFUL LOAD PREFETCHES:       2690 PREFETCH ISSUED TO LOWER LEVEL:      14492  ACCURACY: 18.562
LLC TIMELY PREFETCHES:       2690 LATE PREFETCHES: 0 DROPPED PREFETCHES: 0
LLC PREFETCHES SAME FILL-ORIGIN LEVEL: 0 DIFFERENT FILL-ORIGIN LEVEL: 0
LLC AVERAGE MISS LATENCY: 149.657 cycles
LLC RQ	ACCESS:    1338023	FORWARD:          0	MERGED:          0	TO_CACHE:    1338023
LLC WQ	ACCESS:     295736	FORWARD:          0	MERGED:          0	TO_CACHE:     295736
LLC PQ	ACCESS:     200072	FORWARD:          0	MERGED:          0	TO_CACHE:     200072

LLC Dense regions hint to LLC: 0

RAW hits: 1376234
Loads Generated: 48342365
Loads sent to L1D: 46966131
Stores Generated: 26311868
Stores sent to L1D: 26311887
Major fault: 0 Minor fault: 1910
Allocated PAGES: 1910
Completed 

DRAM Statistics
 CHANNEL 0
 RQ ROW_BUFFER_HIT:      15605  ROW_BUFFER_MISS:      35685
 DBUS_CONGESTED:         72
 WQ ROW_BUFFER_HIT:       2742  ROW_BUFFER_MISS:      22520  FULL:          0

 AVG_CONGESTED_CYCLE: 4
 All warmup complete: 2
Channel 0 Bank busy for read cycles: 0
Channel 0 Bank busy for write cycles: 0
Channel 0
Rank 0
0banks busy for read cycles: 586864395
0banks busy for write cycles: 8836
1banks busy for read cycles: 2161515
1banks busy for write cycles: 1109114
2banks busy for read cycles: 458209
2banks busy for write cycles: 207224
3banks busy for read cycles: 239848
3banks busy for write cycles: 120525
4banks busy for read cycles: 151745
4banks busy for write cycles: 83990
5banks busy for read cycles: 104508
5banks busy for write cycles: 64722
6banks busy for read cycles: 79672
6banks busy for write cycles: 54311
7banks busy for read cycles: 56291
7banks busy for write cycles: 61272
8banks busy for read cycles: 42675
8banks busy for write cycles: 124791

CPU 0 Branch Prediction Accuracy: 99.8429% MPKI: 0.27698 Average ROB Occupancy at Mispredict: 53.0185
Branch types
NOT_BRANCH: 164736751 82.3684%
BRANCH_DIRECT_JUMP: 2184471 1.09224%
BRANCH_INDIRECT: 11367631 5.68382%
BRANCH_CONDITIONAL: 13694607 6.8473%
BRANCH_DIRECT_CALL: 3386061 1.69303%
BRANCH_INDIRECT_CALL: 622186 0.311093%
BRANCH_RETURN: 4008227 2.00411%
BRANCH_OTHER: 0 0%

DRAM PAGES: 1048576
Allocated PAGES: 1910
