
*** ChampSim Multicore Out-of-Order Simulator ***

Warmup Instructions: 50000000
Simulation Instructions: 200000000
Number of CPUs: 1
LLC sets: 2048
LLC ways: 16
Off-chip DRAM Size: 4096 MB Channels: 1 Width: 64-bit Data Rate: 6400 MT/s
CPU 0 runs traces/spec2k17/srv_69.champsimtrace.xz
.xz
BTB has LRU replacement policy
ITLB has LRU replacement policy
DTLB has LRU replacement policy
STLB has LRU replacement policy
L1I has LRU replacement policy
L1D has LRU replacement policy
Initialize SRRIP state for L2C
Initialize DRRIP state for LLC
Heartbeat CPU 0 instructions: 10000001 cycles: 2780476 heartbeat IPC: 3.59651 cumulative IPC: 3.59651 (Simulation time: 0 hr 0 min 39 sec) 
Heartbeat CPU 0 instructions: 20000003 cycles: 5563508 heartbeat IPC: 3.5932 cumulative IPC: 3.59485 (Simulation time: 0 hr 1 min 16 sec) 
Heartbeat CPU 0 instructions: 30000000 cycles: 8337196 heartbeat IPC: 3.60531 cumulative IPC: 3.59833 (Simulation time: 0 hr 1 min 44 sec) 
*** Reached end of trace for Core: 0 Repeating trace: traces/spec2k17/srv_69.champsimtrace.xz
Heartbeat CPU 0 instructions: 40000003 cycles: 11112646 heartbeat IPC: 3.60302 cumulative IPC: 3.5995 (Simulation time: 0 hr 2 min 13 sec) 
Heartbeat CPU 0 instructions: 50000003 cycles: 13895253 heartbeat IPC: 3.59375 cumulative IPC: 3.59835 (Simulation time: 0 hr 2 min 38 sec) 

Warmup complete CPU 0 instructions: 50000003 cycles: 13895253 (Simulation time: 0 hr 2 min 38 sec) 

Heartbeat CPU 0 instructions: 60000000 cycles: 37248572 heartbeat IPC: 0.428205 cumulative IPC: 0.428205 (Simulation time: 0 hr 3 min 16 sec) 
*** Reached end of trace for Core: 0 Repeating trace: traces/spec2k17/srv_69.champsimtrace.xz
Heartbeat CPU 0 instructions: 70000001 cycles: 60795067 heartbeat IPC: 0.424692 cumulative IPC: 0.426441 (Simulation time: 0 hr 3 min 57 sec) 
Heartbeat CPU 0 instructions: 80000000 cycles: 84647885 heartbeat IPC: 0.419238 cumulative IPC: 0.424012 (Simulation time: 0 hr 4 min 34 sec) 
Heartbeat CPU 0 instructions: 90000001 cycles: 108766334 heartbeat IPC: 0.41462 cumulative IPC: 0.421625 (Simulation time: 0 hr 5 min 10 sec) 
*** Reached end of trace for Core: 0 Repeating trace: traces/spec2k17/srv_69.champsimtrace.xz
Heartbeat CPU 0 instructions: 100000000 cycles: 132444788 heartbeat IPC: 0.422325 cumulative IPC: 0.421765 (Simulation time: 0 hr 5 min 46 sec) 
Heartbeat CPU 0 instructions: 110000000 cycles: 155896512 heartbeat IPC: 0.426408 cumulative IPC: 0.422531 (Simulation time: 0 hr 6 min 23 sec) 
Heartbeat CPU 0 instructions: 120000002 cycles: 180209470 heartbeat IPC: 0.411303 cumulative IPC: 0.42089 (Simulation time: 0 hr 6 min 59 sec) 
*** Reached end of trace for Core: 0 Repeating trace: traces/spec2k17/srv_69.champsimtrace.xz
Heartbeat CPU 0 instructions: 130000000 cycles: 203738881 heartbeat IPC: 0.425 cumulative IPC: 0.421399 (Simulation time: 0 hr 7 min 35 sec) 
Heartbeat CPU 0 instructions: 140000003 cycles: 227807854 heartbeat IPC: 0.415473 cumulative IPC: 0.420733 (Simulation time: 0 hr 8 min 11 sec) 
Heartbeat CPU 0 instructions: 150000000 cycles: 251698630 heartbeat IPC: 0.418571 cumulative IPC: 0.420515 (Simulation time: 0 hr 8 min 47 sec) 
*** Reached end of trace for Core: 0 Repeating trace: traces/spec2k17/srv_69.champsimtrace.xz
Heartbeat CPU 0 instructions: 160000001 cycles: 275133102 heartbeat IPC: 0.426722 cumulative IPC: 0.421072 (Simulation time: 0 hr 9 min 23 sec) 
Heartbeat CPU 0 instructions: 170000000 cycles: 298787068 heartbeat IPC: 0.422762 cumulative IPC: 0.421213 (Simulation time: 0 hr 9 min 59 sec) 
Heartbeat CPU 0 instructions: 180000001 cycles: 322952380 heartbeat IPC: 0.413816 cumulative IPC: 0.420634 (Simulation time: 0 hr 10 min 36 sec) 
*** Reached end of trace for Core: 0 Repeating trace: traces/spec2k17/srv_69.champsimtrace.xz
Heartbeat CPU 0 instructions: 190000000 cycles: 346309768 heartbeat IPC: 0.42813 cumulative IPC: 0.421161 (Simulation time: 0 hr 11 min 11 sec) 
Heartbeat CPU 0 instructions: 200000000 cycles: 370161852 heartbeat IPC: 0.419251 cumulative IPC: 0.421033 (Simulation time: 0 hr 11 min 47 sec) 
Heartbeat CPU 0 instructions: 210000002 cycles: 394293204 heartbeat IPC: 0.414399 cumulative IPC: 0.420612 (Simulation time: 0 hr 12 min 23 sec) 
*** Reached end of trace for Core: 0 Repeating trace: traces/spec2k17/srv_69.champsimtrace.xz
Heartbeat CPU 0 instructions: 220000000 cycles: 417568465 heartbeat IPC: 0.429641 cumulative IPC: 0.421133 (Simulation time: 0 hr 12 min 58 sec) 
Heartbeat CPU 0 instructions: 230000003 cycles: 441579113 heartbeat IPC: 0.416482 cumulative IPC: 0.420872 (Simulation time: 0 hr 13 min 33 sec) 
Heartbeat CPU 0 instructions: 240000000 cycles: 465654679 heartbeat IPC: 0.415359 cumulative IPC: 0.420578 (Simulation time: 0 hr 14 min 8 sec) 
*** Reached end of trace for Core: 0 Repeating trace: traces/spec2k17/srv_69.champsimtrace.xz
Heartbeat CPU 0 instructions: 250000003 cycles: 488767152 heartbeat IPC: 0.432667 cumulative IPC: 0.421166 (Simulation time: 0 hr 14 min 40 sec) 
Finished CPU 0 instructions: 200000000 cycles: 474871899 cumulative IPC: 0.421166 (Simulation time: 0 hr 14 min 40 sec) 

ChampSim completed all CPUs

Region of Interest Statistics

CPU 0 cumulative IPC: 0.421166 instructions: 200000000 cycles: 474871899
ITLB TOTAL     ACCESS:   31682485  HIT:   30867021  MISS:     815464  HIT %:    97.4261  MISS %:    2.57386   MPKI: 4.07732
ITLB LOAD TRANSLATION ACCESS:   31682485  HIT:   30867021  MISS:     815464  HIT %:    97.4261  MISS %:    2.57386   MPKI: 4.07732
ITLB PREFETCH  REQUESTED:          0  ISSUED:          0  USEFUL:          0  USELESS:          0
ITLB USEFUL LOAD PREFETCHES:          0 PREFETCH ISSUED TO LOWER LEVEL:          0  ACCURACY: -nan
ITLB TIMELY PREFETCHES:          0 LATE PREFETCHES: 0 DROPPED PREFETCHES: 0
ITLB PREFETCHES SAME FILL-ORIGIN LEVEL: 0 DIFFERENT FILL-ORIGIN LEVEL: 0
ITLB AVERAGE MISS LATENCY: 15.4661 cycles
ITLB RQ	ACCESS:   38412956	FORWARD:          0	MERGED:    6538226	TO_CACHE:   31874730

DTLB TOTAL     ACCESS:   37908750  HIT:   35446601  MISS:    2462149  HIT %:    93.5051  MISS %:    6.49494   MPKI: 12.3107
DTLB LOAD TRANSLATION ACCESS:   37908750  HIT:   35446601  MISS:    2462149  HIT %:    93.5051  MISS %:    6.49494   MPKI: 12.3107
DTLB PREFETCH  REQUESTED:          0  ISSUED:          0  USEFUL:          0  USELESS:          0
DTLB USEFUL LOAD PREFETCHES:          0 PREFETCH ISSUED TO LOWER LEVEL:          0  ACCURACY: -nan
DTLB TIMELY PREFETCHES:          0 LATE PREFETCHES: 0 DROPPED PREFETCHES: 0
DTLB PREFETCHES SAME FILL-ORIGIN LEVEL: 0 DIFFERENT FILL-ORIGIN LEVEL: 0
DTLB AVERAGE MISS LATENCY: 13.9716 cycles
DTLB RQ	ACCESS:   48348389	FORWARD:          0	MERGED:   10295066	TO_CACHE:   38053323

STLB TOTAL     ACCESS:    8600505  HIT:    8143574  MISS:     456931  HIT %:    94.6872  MISS %:    5.31284   MPKI: 2.28465
STLB LOAD TRANSLATION ACCESS:    3277613  HIT:    2825580  MISS:     452033  HIT %:    86.2085  MISS %:    13.7915   MPKI: 2.26017
STLB TRANSLATION FROM L1D PREFETCHER ACCESS:    5322892  HIT:    5317994  MISS:       4898  HIT %:     99.908  MISS %:  0.0920176   MPKI: 0.02449
STLB PREFETCH  REQUESTED:          0  ISSUED:          0  USEFUL:       4050  USELESS:        847
STLB USEFUL LOAD PREFETCHES:       4050 PREFETCH ISSUED TO LOWER LEVEL:          0  ACCURACY: inf
STLB TIMELY PREFETCHES:       4050 LATE PREFETCHES: 909 DROPPED PREFETCHES: 101045
STLB PREFETCHES SAME FILL-ORIGIN LEVEL: 0 DIFFERENT FILL-ORIGIN LEVEL: 0
STLB AVERAGE MISS LATENCY: 40.083 cycles
STLB RQ	ACCESS:   10162688	FORWARD:          0	MERGED:    1459865	TO_CACHE:    8702823

STLB Hit, L1D data hit: 0
STLB Hit, L2C data hit: 0
STLB Hit, LLC data hit: 0
STLB Hit, LLC data miss: 0
STLB STLB hints to L2: 0
L1D TOTAL     ACCESS:   54496320  HIT:   52009173  MISS:    2487147  HIT %:    95.4361  MISS %:    4.56388   MPKI: 12.4357
L1D LOAD      ACCESS:   28289471  HIT:   26214864  MISS:    2074607  HIT %:    92.6665  MISS %:     7.3335   MPKI: 10.373
L1D RFO       ACCESS:   19509314  HIT:   19168696  MISS:     340618  HIT %:    98.2541  MISS %:    1.74593   MPKI: 1.70309
L1D PREFETCH  ACCESS:    6697535  HIT:    6625613  MISS:      71922  HIT %:    98.9261  MISS %:    1.07386   MPKI: 0.35961
AGUS PREFETCH L1 MISS: 0
L1D PREFETCH  REQUESTED:   14609934  ISSUED:   14609636  USEFUL:      39590  USELESS:      32313
L1D USEFUL LOAD PREFETCHES:      39590 PREFETCH ISSUED TO LOWER LEVEL:      90268  ACCURACY: 43.8583
L1D TIMELY PREFETCHES:      39590 LATE PREFETCHES: 18088 DROPPED PREFETCHES: 133758
L1D PREFETCHES SAME FILL-ORIGIN LEVEL: 90268 DIFFERENT FILL-ORIGIN LEVEL: 0
L1D AVERAGE MISS LATENCY: 2.28275e+06 cycles
L1D RQ	ACCESS:   42630669	FORWARD:          0	MERGED:   13990093	TO_CACHE:   28426571
L1D WQ	ACCESS:   20255400	FORWARD:     269820	MERGED:     333582	TO_CACHE:   19921818
L1D PQ	ACCESS:    7724561	FORWARD:          0	MERGED:     783671	TO_CACHE:    6885075

L1D UNIQUE REGIONS ACCESSED: 0
L1D REGIONS CONFLICTS: 0
L1D Cross Page Prefetch Requests: 6142511
L1D Same Page Prefetch Requests: 2472339
L1D ROI Sum of L1D PQ occupancy: 103471728
L1D PREFETCHES PUSHED FROM L2C: 0
L1I TOTAL     ACCESS:   36779913  HIT:   31721150  MISS:    5058763  HIT %:    86.2459  MISS %:    13.7541   MPKI: 25.2938
L1I LOAD      ACCESS:   36779913  HIT:   31721150  MISS:    5058763  HIT %:    86.2459  MISS %:    13.7541   MPKI: 25.2938
L1I PREFETCH  REQUESTED:          0  ISSUED:          0  USEFUL:          0  USELESS:          0
L1I USEFUL LOAD PREFETCHES:          0 PREFETCH ISSUED TO LOWER LEVEL:          0  ACCURACY: -nan
L1I TIMELY PREFETCHES:          0 LATE PREFETCHES: 0 DROPPED PREFETCHES: 0
L1I PREFETCHES SAME FILL-ORIGIN LEVEL: 0 DIFFERENT FILL-ORIGIN LEVEL: 0
L1I AVERAGE MISS LATENCY: 27.4777 cycles
L1I RQ	ACCESS:   57432255	FORWARD:          0	MERGED:   19019299	TO_CACHE:   38412956

BTB TOTAL     ACCESS:   23164670  HIT:   18167924  MISS:    4996746  HIT %:    78.4295  MISS %:    21.5705   MPKI: 24.9837
BTB BRANCH_DIRECT_JUMP	ACCESS:    1914726  HIT:    1629531  MISS:     285195
BTB BRANCH_INDIRECT	ACCESS:    9756590  HIT:    7380331  MISS:    2376259
BTB BRANCH_CONDITIONAL	ACCESS:    4774695  HIT:    4326607  MISS:     448088
BTB BRANCH_DIRECT_CALL	ACCESS:    2648257  HIT:    2097355  MISS:     550902
BTB BRANCH_INDIRECT_CALL	ACCESS:     697289  HIT:     631848  MISS:      65441
BTB BRANCH_RETURN	ACCESS:    3373113  HIT:    2102252  MISS:    1270861
BTB BRANCH_OTHER ACCESS:          0  HIT:          0  MISS:          0

L2C TOTAL     ACCESS:    9218980  HIT:    5496948  MISS:    3722032  HIT %:    59.6264  MISS %:    40.3736   MPKI: 18.6102
L2C LOAD      ACCESS:    7115210  HIT:    3868850  MISS:    3246360  HIT %:    54.3744  MISS %:    45.6256   MPKI: 16.2318
L2C DATA LOAD MPKI: 5.49937
L2C INSTRUCTION LOAD MPKI: 10.7324
L2C RFO       ACCESS:     340360  HIT:     166470  MISS:     173890  HIT %:      48.91  MISS %:      51.09   MPKI: 0.86945
L2C PREFETCH  ACCESS:      90251  HIT:      63225  MISS:      27026  HIT %:    70.0546  MISS %:    29.9454   MPKI: 0.13513
AGUS PREFETCH L1 MISS: 0
L2C DATA PREFETCH MPKI: 0.13513
L2C INSTRUCTION PREFETCH MPKI: 0
L2C WRITEBACK ACCESS:     963761  HIT:     907067  MISS:      56694  HIT %:    94.1174  MISS %:    5.88258   MPKI: 0.28347
L2C LOAD TRANSLATION ACCESS:     570327  HIT:     367688  MISS:     202639  HIT %:    64.4697  MISS %:    35.5303   MPKI: 1.0132
L2C TRANSLATION FROM L1D PREFETCHER ACCESS:     139071  HIT:     123648  MISS:      15423  HIT %:      88.91  MISS %:      11.09   MPKI: 0.077115
L2C PREFETCH  REQUESTED:          0  ISSUED:          0  USEFUL:      12673  USELESS:      29701
L2C USEFUL LOAD PREFETCHES:      12673 PREFETCH ISSUED TO LOWER LEVEL:      27026  ACCURACY: 46.8919
L2C TIMELY PREFETCHES:      12673 LATE PREFETCHES: 0 DROPPED PREFETCHES: 0
L2C PREFETCHES SAME FILL-ORIGIN LEVEL: 0 DIFFERENT FILL-ORIGIN LEVEL: 0
L2C AVERAGE MISS LATENCY: 42.0767 cycles
L2C RQ	ACCESS:    8165040	FORWARD:          0	MERGED:          0	TO_CACHE:    8164968
L2C WQ	ACCESS:     963761	FORWARD:         89	MERGED:          0	TO_CACHE:     963761
L2C PQ	ACCESS:      90268	FORWARD:          0	MERGED:          0	TO_CACHE:      90251

L2C Instructions Evicting Data 772521
L2C Translations Evicting Data 79754
L2C Data Evicting Data 483751
L2C Instructions Evicting Instructions 1244857
L2C Translations Evicting Instructions 127056
L2C Data Evicting Instructions 742598
L2C Instructions Evicting Translations 129108
L2C Translations Evicting Translations 11252
L2C Data Evicting Translations 74441
L2C Dense regions hint from L2: 0
PSCL5 TOTAL     ACCESS:     553837  HIT:     553837  MISS:          0  HIT %:        100  MISS %:          0   MPKI: 0
PSCL5 LOAD TRANSLATION ACCESS:     451124  HIT:     451124  MISS:          0  HIT %:        100  MISS %:          0   MPKI: 0
PSCL5 TRANSLATION FROM L1D PREFETCHER ACCESS:     102713  HIT:     102713  MISS:          0  HIT %:        100  MISS %:          0   MPKI: 0
PSCL5 PREFETCH  REQUESTED:          0  ISSUED:          0  USEFUL:          0  USELESS:          0
PSCL5 USEFUL LOAD PREFETCHES:          0 PREFETCH ISSUED TO LOWER LEVEL:          0  ACCURACY: -nan
PSCL5 TIMELY PREFETCHES:          0 LATE PREFETCHES: 0 DROPPED PREFETCHES: 0
PSCL5 PREFETCHES SAME FILL-ORIGIN LEVEL: 0 DIFFERENT FILL-ORIGIN LEVEL: 0

PSCL4 TOTAL     ACCESS:     507413  HIT:     506156  MISS:       1257  HIT %:    99.7523  MISS %:   0.247727   MPKI: 0.006285
PSCL4 LOAD TRANSLATION ACCESS:     422000  HIT:     420743  MISS:       1257  HIT %:    99.7021  MISS %:   0.297867   MPKI: 0.006285
PSCL4 TRANSLATION FROM L1D PREFETCHER ACCESS:      85413  HIT:      85413  MISS:          0  HIT %:        100  MISS %:          0   MPKI: 0
PSCL4 PREFETCH  REQUESTED:          0  ISSUED:          0  USEFUL:          0  USELESS:          0
PSCL4 USEFUL LOAD PREFETCHES:          0 PREFETCH ISSUED TO LOWER LEVEL:          0  ACCURACY: -nan
PSCL4 TIMELY PREFETCHES:          0 LATE PREFETCHES: 0 DROPPED PREFETCHES: 0
PSCL4 PREFETCHES SAME FILL-ORIGIN LEVEL: 0 DIFFERENT FILL-ORIGIN LEVEL: 0

PSCL3 TOTAL     ACCESS:     531881  HIT:     528112  MISS:       3769  HIT %:    99.2914  MISS %:   0.708617   MPKI: 0.018845
PSCL3 LOAD TRANSLATION ACCESS:     447533  HIT:     443764  MISS:       3769  HIT %:    99.1578  MISS %:   0.842173   MPKI: 0.018845
PSCL3 TRANSLATION FROM L1D PREFETCHER ACCESS:      84348  HIT:      84348  MISS:          0  HIT %:        100  MISS %:          0   MPKI: 0
PSCL3 PREFETCH  REQUESTED:          0  ISSUED:          0  USEFUL:          0  USELESS:          0
PSCL3 USEFUL LOAD PREFETCHES:          0 PREFETCH ISSUED TO LOWER LEVEL:          0  ACCURACY: -nan
PSCL3 TIMELY PREFETCHES:          0 LATE PREFETCHES: 0 DROPPED PREFETCHES: 0
PSCL3 PREFETCHES SAME FILL-ORIGIN LEVEL: 0 DIFFERENT FILL-ORIGIN LEVEL: 0

PSCL2 TOTAL     ACCESS:     467224  HIT:     350217  MISS:     117007  HIT %:     74.957  MISS %:     25.043   MPKI: 0.585035
PSCL2 LOAD TRANSLATION ACCESS:     453908  HIT:     336901  MISS:     117007  HIT %:    74.2223  MISS %:    25.7777   MPKI: 0.585035
PSCL2 TRANSLATION FROM L1D PREFETCHER ACCESS:      13316  HIT:      13316  MISS:          0  HIT %:        100  MISS %:          0   MPKI: 0
PSCL2 PREFETCH  REQUESTED:          0  ISSUED:          0  USEFUL:          0  USELESS:          0
PSCL2 USEFUL LOAD PREFETCHES:          0 PREFETCH ISSUED TO LOWER LEVEL:          0  ACCURACY: -nan
PSCL2 TIMELY PREFETCHES:          0 LATE PREFETCHES: 0 DROPPED PREFETCHES: 0
PSCL2 PREFETCHES SAME FILL-ORIGIN LEVEL: 0 DIFFERENT FILL-ORIGIN LEVEL: 0

LLC TOTAL     ACCESS:    4136130  HIT:    3828869  MISS:     307261  HIT %:    92.5713  MISS %:    7.42871   MPKI: 1.53631
LLC LOAD      ACCESS:    3246360  HIT:    3003061  MISS:     243299  HIT %:    92.5055  MISS %:    7.49452   MPKI: 1.2165
LLC RFO       ACCESS:     173888  HIT:     124956  MISS:      48932  HIT %:      71.86  MISS %:      28.14   MPKI: 0.24466
LLC PREFETCH  ACCESS:      27026  HIT:      23069  MISS:       3957  HIT %:    85.3585  MISS %:    14.6415   MPKI: 0.019785
AGUS PREFETCH L1 MISS: 0
LLC WRITEBACK ACCESS:     470794  HIT:     467326  MISS:       3468  HIT %:    99.2634  MISS %:   0.736628   MPKI: 0.01734
LLC LOAD TRANSLATION ACCESS:     202639  HIT:     196063  MISS:       6576  HIT %:    96.7548  MISS %:    3.24518   MPKI: 0.03288
LLC TRANSLATION FROM L1D PREFETCHER ACCESS:      15423  HIT:      14394  MISS:       1029  HIT %:    93.3281  MISS %:    6.67185   MPKI: 0.005145
LLC PREFETCH  REQUESTED:          0  ISSUED:          0  USEFUL:       1361  USELESS:       3477
LLC USEFUL LOAD PREFETCHES:       1361 PREFETCH ISSUED TO LOWER LEVEL:       3957  ACCURACY: 34.3947
LLC TIMELY PREFETCHES:       1361 LATE PREFETCHES: 0 DROPPED PREFETCHES: 0
LLC PREFETCHES SAME FILL-ORIGIN LEVEL: 0 DIFFERENT FILL-ORIGIN LEVEL: 0
LLC AVERAGE MISS LATENCY: 151.821 cycles
LLC RQ	ACCESS:    3638312	FORWARD:          0	MERGED:          0	TO_CACHE:    3638310
LLC WQ	ACCESS:     470794	FORWARD:          2	MERGED:          0	TO_CACHE:     470794
LLC PQ	ACCESS:      27026	FORWARD:          0	MERGED:          0	TO_CACHE:      27026

LLC Dense regions hint to LLC: 0

RAW hits: 2747442
Loads Generated: 45378115
Loads sent to L1D: 42630669
Stores Generated: 20255404
Stores sent to L1D: 20255400
Major fault: 0 Minor fault: 5460
Allocated PAGES: 5460
Completed 

DRAM Statistics
 CHANNEL 0
 RQ ROW_BUFFER_HIT:      54932  ROW_BUFFER_MISS:     248861
 DBUS_CONGESTED:        107
 WQ ROW_BUFFER_HIT:      29907  ROW_BUFFER_MISS:     178123  FULL:          0

 AVG_CONGESTED_CYCLE: 4
 All warmup complete: 2
Channel 0 Bank busy for read cycles: 0
Channel 0 Bank busy for write cycles: 0
Channel 0
Rank 0
0banks busy for read cycles: 417410279
0banks busy for write cycles: 119144
1banks busy for read cycles: 28343973
1banks busy for write cycles: 16934036
2banks busy for read cycles: 4002338
2banks busy for write cycles: 3863244
3banks busy for read cycles: 594820
3banks busy for write cycles: 1352149
4banks busy for read cycles: 219497
4banks busy for write cycles: 712703
5banks busy for read cycles: 78199
5banks busy for write cycles: 444131
6banks busy for read cycles: 41415
6banks busy for write cycles: 296303
7banks busy for read cycles: 27400
7banks busy for write cycles: 218155
8banks busy for read cycles: 29249
8banks busy for write cycles: 184865

CPU 0 Branch Prediction Accuracy: 99.7309% MPKI: 0.485 Average ROB Occupancy at Mispredict: 31.1435
Branch types
NOT_BRANCH: 163956013 81.978%
BRANCH_DIRECT_JUMP: 1914726 0.957363%
BRANCH_INDIRECT: 9756590 4.87829%
BRANCH_CONDITIONAL: 17653765 8.82688%
BRANCH_DIRECT_CALL: 2648257 1.32413%
BRANCH_INDIRECT_CALL: 697289 0.348645%
BRANCH_RETURN: 3373113 1.68656%
BRANCH_OTHER: 0 0%

DRAM PAGES: 1048576
Allocated PAGES: 5460
