
*** ChampSim Multicore Out-of-Order Simulator ***

Warmup Instructions: 50000000
Simulation Instructions: 200000000
Number of CPUs: 1
LLC sets: 2048
LLC ways: 16
Off-chip DRAM Size: 4096 MB Channels: 1 Width: 64-bit Data Rate: 6400 MT/s
CPU 0 runs traces/spec2k17/srv_9.champsimtrace.xz
.xz
BTB has LRU replacement policy
ITLB has LRU replacement policy
DTLB has LRU replacement policy
STLB has LRU replacement policy
L1I has LRU replacement policy
L1D has LRU replacement policy
Initialize SRRIP state for L2C
Initialize DRRIP state for LLC
Heartbeat CPU 0 instructions: 10000001 cycles: 3507913 heartbeat IPC: 2.8507 cumulative IPC: 2.8507 (Simulation time: 0 hr 0 min 38 sec) 
Heartbeat CPU 0 instructions: 20000002 cycles: 7388958 heartbeat IPC: 2.57663 cumulative IPC: 2.70674 (Simulation time: 0 hr 1 min 16 sec) 
Heartbeat CPU 0 instructions: 30000000 cycles: 10344912 heartbeat IPC: 3.383 cumulative IPC: 2.89998 (Simulation time: 0 hr 1 min 38 sec) 
*** Reached end of trace for Core: 0 Repeating trace: traces/spec2k17/srv_9.champsimtrace.xz
Heartbeat CPU 0 instructions: 40000001 cycles: 13786953 heartbeat IPC: 2.90525 cumulative IPC: 2.90129 (Simulation time: 0 hr 2 min 12 sec) 
Heartbeat CPU 0 instructions: 50000003 cycles: 17571585 heartbeat IPC: 2.64227 cumulative IPC: 2.8455 (Simulation time: 0 hr 2 min 44 sec) 

Warmup complete CPU 0 instructions: 50000003 cycles: 17571585 (Simulation time: 0 hr 2 min 44 sec) 

Heartbeat CPU 0 instructions: 60000001 cycles: 41239495 heartbeat IPC: 0.422513 cumulative IPC: 0.422513 (Simulation time: 0 hr 3 min 26 sec) 
*** Reached end of trace for Core: 0 Repeating trace: traces/spec2k17/srv_9.champsimtrace.xz
Heartbeat CPU 0 instructions: 70000001 cycles: 66920697 heartbeat IPC: 0.38939 cumulative IPC: 0.405276 (Simulation time: 0 hr 4 min 9 sec) 
Heartbeat CPU 0 instructions: 80000000 cycles: 98138066 heartbeat IPC: 0.320334 cumulative IPC: 0.372363 (Simulation time: 0 hr 4 min 54 sec) 
Heartbeat CPU 0 instructions: 90000001 cycles: 121622392 heartbeat IPC: 0.425816 cumulative IPC: 0.384428 (Simulation time: 0 hr 5 min 35 sec) 
*** Reached end of trace for Core: 0 Repeating trace: traces/spec2k17/srv_9.champsimtrace.xz
Heartbeat CPU 0 instructions: 100000003 cycles: 146268599 heartbeat IPC: 0.405742 cumulative IPC: 0.388509 (Simulation time: 0 hr 6 min 16 sec) 
Heartbeat CPU 0 instructions: 110000000 cycles: 178255431 heartbeat IPC: 0.312629 cumulative IPC: 0.373404 (Simulation time: 0 hr 7 min 1 sec) 
Heartbeat CPU 0 instructions: 120000001 cycles: 201660821 heartbeat IPC: 0.427252 cumulative IPC: 0.38025 (Simulation time: 0 hr 7 min 42 sec) 
*** Reached end of trace for Core: 0 Repeating trace: traces/spec2k17/srv_9.champsimtrace.xz
Heartbeat CPU 0 instructions: 130000003 cycles: 225393911 heartbeat IPC: 0.421353 cumulative IPC: 0.384944 (Simulation time: 0 hr 8 min 21 sec) 
Heartbeat CPU 0 instructions: 140000001 cycles: 258015372 heartbeat IPC: 0.306547 cumulative IPC: 0.374308 (Simulation time: 0 hr 9 min 8 sec) 
Heartbeat CPU 0 instructions: 150000002 cycles: 281547800 heartbeat IPC: 0.424946 cumulative IPC: 0.378822 (Simulation time: 0 hr 9 min 48 sec) 
*** Reached end of trace for Core: 0 Repeating trace: traces/spec2k17/srv_9.champsimtrace.xz
Heartbeat CPU 0 instructions: 160000001 cycles: 304406101 heartbeat IPC: 0.437478 cumulative IPC: 0.383496 (Simulation time: 0 hr 10 min 27 sec) 
Heartbeat CPU 0 instructions: 170000000 cycles: 337170808 heartbeat IPC: 0.305206 cumulative IPC: 0.37547 (Simulation time: 0 hr 11 min 13 sec) 
Heartbeat CPU 0 instructions: 180000000 cycles: 361280481 heartbeat IPC: 0.414771 cumulative IPC: 0.378227 (Simulation time: 0 hr 11 min 53 sec) 
*** Reached end of trace for Core: 0 Repeating trace: traces/spec2k17/srv_9.champsimtrace.xz
Heartbeat CPU 0 instructions: 190000000 cycles: 383180667 heartbeat IPC: 0.456617 cumulative IPC: 0.382923 (Simulation time: 0 hr 12 min 31 sec) 
Heartbeat CPU 0 instructions: 200000000 cycles: 415567975 heartbeat IPC: 0.308763 cumulative IPC: 0.376888 (Simulation time: 0 hr 13 min 18 sec) 
Heartbeat CPU 0 instructions: 210000000 cycles: 440910923 heartbeat IPC: 0.394587 cumulative IPC: 0.377947 (Simulation time: 0 hr 13 min 57 sec) 
*** Reached end of trace for Core: 0 Repeating trace: traces/spec2k17/srv_9.champsimtrace.xz
Heartbeat CPU 0 instructions: 220000000 cycles: 460166270 heartbeat IPC: 0.519336 cumulative IPC: 0.384099 (Simulation time: 0 hr 14 min 29 sec) 
Heartbeat CPU 0 instructions: 230000000 cycles: 494050082 heartbeat IPC: 0.295126 cumulative IPC: 0.377771 (Simulation time: 0 hr 15 min 6 sec) 
Heartbeat CPU 0 instructions: 240000000 cycles: 519246594 heartbeat IPC: 0.39688 cumulative IPC: 0.378731 (Simulation time: 0 hr 15 min 35 sec) 
*** Reached end of trace for Core: 0 Repeating trace: traces/spec2k17/srv_9.champsimtrace.xz
Heartbeat CPU 0 instructions: 250000003 cycles: 537765283 heartbeat IPC: 0.539995 cumulative IPC: 0.384472 (Simulation time: 0 hr 16 min 2 sec) 
Finished CPU 0 instructions: 200000000 cycles: 520193698 cumulative IPC: 0.384472 (Simulation time: 0 hr 16 min 2 sec) 

ChampSim completed all CPUs

Region of Interest Statistics

CPU 0 cumulative IPC: 0.384472 instructions: 200000000 cycles: 520193698
ITLB TOTAL     ACCESS:   41435982  HIT:   41295870  MISS:     140112  HIT %:    99.6619  MISS %:   0.338141   MPKI: 0.70056
ITLB LOAD TRANSLATION ACCESS:   41435982  HIT:   41295870  MISS:     140112  HIT %:    99.6619  MISS %:   0.338141   MPKI: 0.70056
ITLB PREFETCH  REQUESTED:          0  ISSUED:          0  USEFUL:          0  USELESS:          0
ITLB USEFUL LOAD PREFETCHES:          0 PREFETCH ISSUED TO LOWER LEVEL:          0  ACCURACY: -nan
ITLB TIMELY PREFETCHES:          0 LATE PREFETCHES: 0 DROPPED PREFETCHES: 0
ITLB PREFETCHES SAME FILL-ORIGIN LEVEL: 0 DIFFERENT FILL-ORIGIN LEVEL: 0
ITLB AVERAGE MISS LATENCY: 18.5138 cycles
ITLB RQ	ACCESS:   45006892	FORWARD:          0	MERGED:    3532205	TO_CACHE:   41474687

DTLB TOTAL     ACCESS:   42468826  HIT:   33957973  MISS:    8510853  HIT %:    79.9598  MISS %:    20.0402   MPKI: 42.5543
DTLB LOAD TRANSLATION ACCESS:   42468826  HIT:   33957973  MISS:    8510853  HIT %:    79.9598  MISS %:    20.0402   MPKI: 42.5543
DTLB PREFETCH  REQUESTED:          0  ISSUED:          0  USEFUL:          0  USELESS:          0
DTLB USEFUL LOAD PREFETCHES:          0 PREFETCH ISSUED TO LOWER LEVEL:          0  ACCURACY: -nan
DTLB TIMELY PREFETCHES:          0 LATE PREFETCHES: 0 DROPPED PREFETCHES: 0
DTLB PREFETCHES SAME FILL-ORIGIN LEVEL: 0 DIFFERENT FILL-ORIGIN LEVEL: 0
DTLB AVERAGE MISS LATENCY: 8.03753 cycles
DTLB RQ	ACCESS:   55786128	FORWARD:          0	MERGED:   13201076	TO_CACHE:   42585052

STLB TOTAL     ACCESS:   24783888  HIT:   24685613  MISS:      98275  HIT %:    99.6035  MISS %:   0.396528   MPKI: 0.491375
STLB LOAD TRANSLATION ACCESS:    8650965  HIT:    8553449  MISS:      97516  HIT %:    98.8728  MISS %:    1.12723   MPKI: 0.48758
STLB TRANSLATION FROM L1D PREFETCHER ACCESS:   16132923  HIT:   16132164  MISS:        759  HIT %:    99.9953  MISS %: 0.00470467   MPKI: 0.003795
STLB PREFETCH  REQUESTED:          0  ISSUED:          0  USEFUL:        651  USELESS:        114
STLB USEFUL LOAD PREFETCHES:        651 PREFETCH ISSUED TO LOWER LEVEL:          0  ACCURACY: inf
STLB TIMELY PREFETCHES:        651 LATE PREFETCHES: 74 DROPPED PREFETCHES: 32225
STLB PREFETCHES SAME FILL-ORIGIN LEVEL: 0 DIFFERENT FILL-ORIGIN LEVEL: 0
STLB AVERAGE MISS LATENCY: 85.419 cycles
STLB RQ	ACCESS:   33595138	FORWARD:          0	MERGED:    8778007	TO_CACHE:   24817131

STLB Hit, L1D data hit: 0
STLB Hit, L2C data hit: 0
STLB Hit, LLC data hit: 0
STLB Hit, LLC data miss: 0
STLB STLB hints to L2: 0
L1D TOTAL     ACCESS:   71056345  HIT:   57610862  MISS:   13445483  HIT %:    81.0777  MISS %:    18.9223   MPKI: 67.2274
L1D LOAD      ACCESS:   40169249  HIT:   29940630  MISS:   10228619  HIT %:    74.5362  MISS %:    25.4638   MPKI: 51.1431
L1D RFO       ACCESS:   14338267  HIT:   14118621  MISS:     219646  HIT %:    98.4681  MISS %:    1.53189   MPKI: 1.09823
L1D PREFETCH  ACCESS:   16548829  HIT:   13551611  MISS:    2997218  HIT %:    81.8886  MISS %:    18.1114   MPKI: 14.9861
AGUS PREFETCH L1 MISS: 0
L1D PREFETCH  REQUESTED:   50731786  ISSUED:   50731103  USEFUL:    2951227  USELESS:      46004
L1D USEFUL LOAD PREFETCHES:    2951227 PREFETCH ISSUED TO LOWER LEVEL:    7308404  ACCURACY: 40.3813
L1D TIMELY PREFETCHES:    2951227 LATE PREFETCHES: 4311171 DROPPED PREFETCHES: 37394
L1D PREFETCHES SAME FILL-ORIGIN LEVEL: 7308404 DIFFERENT FILL-ORIGIN LEVEL: 0
L1D AVERAGE MISS LATENCY: 8.95784e+07 cycles
L1D RQ	ACCESS:   58970626	FORWARD:          0	MERGED:   17685320	TO_CACHE:   41178766
L1D WQ	ACCESS:   18280129	FORWARD:     191992	MERGED:    3672767	TO_CACHE:   14607362
L1D PQ	ACCESS:   25786930	FORWARD:          0	MERGED:     757305	TO_CACHE:   24944173

L1D UNIQUE REGIONS ACCESSED: 0
L1D REGIONS CONFLICTS: 0
L1D Cross Page Prefetch Requests: 24892235
L1D Same Page Prefetch Requests: 7288706
L1D ROI Sum of L1D PQ occupancy: 347026029
L1D PREFETCHES PUSHED FROM L2C: 0
L1I TOTAL     ACCESS:   44765095  HIT:   44072587  MISS:     692508  HIT %:     98.453  MISS %:    1.54698   MPKI: 3.46254
L1I LOAD      ACCESS:   44765095  HIT:   44072587  MISS:     692508  HIT %:     98.453  MISS %:    1.54698   MPKI: 3.46254
L1I PREFETCH  REQUESTED:          0  ISSUED:          0  USEFUL:          0  USELESS:          0
L1I USEFUL LOAD PREFETCHES:          0 PREFETCH ISSUED TO LOWER LEVEL:          0  ACCURACY: -nan
L1I TIMELY PREFETCHES:          0 LATE PREFETCHES: 0 DROPPED PREFETCHES: 0
L1I PREFETCHES SAME FILL-ORIGIN LEVEL: 0 DIFFERENT FILL-ORIGIN LEVEL: 0
L1I AVERAGE MISS LATENCY: 46.6428 cycles
L1I RQ	ACCESS:   72750912	FORWARD:          0	MERGED:   27744020	TO_CACHE:   45006892

BTB TOTAL     ACCESS:   41124974  HIT:   38918366  MISS:    2206608  HIT %:    94.6344  MISS %:    5.36562   MPKI: 11.033
BTB BRANCH_DIRECT_JUMP	ACCESS:    1846532  HIT:    1816859  MISS:      29673
BTB BRANCH_INDIRECT	ACCESS:   24302772  HIT:   22906224  MISS:    1396548
BTB BRANCH_CONDITIONAL	ACCESS:    9638327  HIT:    9593202  MISS:      45125
BTB BRANCH_DIRECT_CALL	ACCESS:    2098553  HIT:    2045392  MISS:      53161
BTB BRANCH_INDIRECT_CALL	ACCESS:     567787  HIT:     550197  MISS:      17590
BTB BRANCH_RETURN	ACCESS:    2671003  HIT:    2006492  MISS:     664511
BTB BRANCH_OTHER ACCESS:          0  HIT:          0  MISS:          0

L2C TOTAL     ACCESS:   14655859  HIT:   13100643  MISS:    1555216  HIT %:    89.3884  MISS %:    10.6116   MPKI: 7.77608
L2C LOAD      ACCESS:    6609956  HIT:    5196415  MISS:    1413541  HIT %:     78.615  MISS %:     21.385   MPKI: 7.06771
L2C DATA LOAD MPKI: 5.80555
L2C INSTRUCTION LOAD MPKI: 1.26215
L2C RFO       ACCESS:     219625  HIT:     147823  MISS:      71802  HIT %:     67.307  MISS %:     32.693   MPKI: 0.35901
L2C PREFETCH  ACCESS:    7308404  HIT:    7297841  MISS:      10563  HIT %:    99.8555  MISS %:   0.144532   MPKI: 0.052815
AGUS PREFETCH L1 MISS: 0
L2C DATA PREFETCH MPKI: 0.052815
L2C INSTRUCTION PREFETCH MPKI: 0
L2C WRITEBACK ACCESS:     349762  HIT:     341415  MISS:       8347  HIT %:    97.6135  MISS %:    2.38648   MPKI: 0.041735
L2C LOAD TRANSLATION ACCESS:     117862  HIT:      70296  MISS:      47566  HIT %:    59.6426  MISS %:    40.3574   MPKI: 0.23783
L2C TRANSLATION FROM L1D PREFETCHER ACCESS:      50250  HIT:      46853  MISS:       3397  HIT %:    93.2398  MISS %:     6.7602   MPKI: 0.016985
L2C PREFETCH  REQUESTED:          0  ISSUED:          0  USEFUL:       2471  USELESS:      11451
L2C USEFUL LOAD PREFETCHES:       2471 PREFETCH ISSUED TO LOWER LEVEL:      10563  ACCURACY: 23.393
L2C TIMELY PREFETCHES:       2471 LATE PREFETCHES: 0 DROPPED PREFETCHES: 0
L2C PREFETCHES SAME FILL-ORIGIN LEVEL: 0 DIFFERENT FILL-ORIGIN LEVEL: 0
L2C AVERAGE MISS LATENCY: 121.027 cycles
L2C RQ	ACCESS:    6997699	FORWARD:          0	MERGED:          0	TO_CACHE:    6997693
L2C WQ	ACCESS:     349762	FORWARD:          6	MERGED:          0	TO_CACHE:     349762
L2C PQ	ACCESS:    7308404	FORWARD:          0	MERGED:          0	TO_CACHE:    7308404

L2C Instructions Evicting Data 156212
L2C Translations Evicting Data 33842
L2C Data Evicting Data 1054964
L2C Instructions Evicting Instructions 81867
L2C Translations Evicting Instructions 14522
L2C Data Evicting Instructions 154878
L2C Instructions Evicting Translations 14352
L2C Translations Evicting Translations 2599
L2C Data Evicting Translations 33633
L2C Dense regions hint from L2: 0
PSCL5 TOTAL     ACCESS:     124543  HIT:     124543  MISS:          0  HIT %:        100  MISS %:          0   MPKI: 0
PSCL5 LOAD TRANSLATION ACCESS:      97442  HIT:      97442  MISS:          0  HIT %:        100  MISS %:          0   MPKI: 0
PSCL5 TRANSLATION FROM L1D PREFETCHER ACCESS:      27101  HIT:      27101  MISS:          0  HIT %:        100  MISS %:          0   MPKI: 0
PSCL5 PREFETCH  REQUESTED:          0  ISSUED:          0  USEFUL:          0  USELESS:          0
PSCL5 USEFUL LOAD PREFETCHES:          0 PREFETCH ISSUED TO LOWER LEVEL:          0  ACCURACY: -nan
PSCL5 TIMELY PREFETCHES:          0 LATE PREFETCHES: 0 DROPPED PREFETCHES: 0
PSCL5 PREFETCHES SAME FILL-ORIGIN LEVEL: 0 DIFFERENT FILL-ORIGIN LEVEL: 0

PSCL4 TOTAL     ACCESS:     113690  HIT:     113592  MISS:         98  HIT %:    99.9138  MISS %:  0.0861993   MPKI: 0.00049
PSCL4 LOAD TRANSLATION ACCESS:      87556  HIT:      87458  MISS:         98  HIT %:    99.8881  MISS %:   0.111928   MPKI: 0.00049
PSCL4 TRANSLATION FROM L1D PREFETCHER ACCESS:      26134  HIT:      26134  MISS:          0  HIT %:        100  MISS %:          0   MPKI: 0
PSCL4 PREFETCH  REQUESTED:          0  ISSUED:          0  USEFUL:          0  USELESS:          0
PSCL4 USEFUL LOAD PREFETCHES:          0 PREFETCH ISSUED TO LOWER LEVEL:          0  ACCURACY: -nan
PSCL4 TIMELY PREFETCHES:          0 LATE PREFETCHES: 0 DROPPED PREFETCHES: 0
PSCL4 PREFETCHES SAME FILL-ORIGIN LEVEL: 0 DIFFERENT FILL-ORIGIN LEVEL: 0

PSCL3 TOTAL     ACCESS:     122157  HIT:     121927  MISS:        230  HIT %:    99.8117  MISS %:   0.188282   MPKI: 0.00115
PSCL3 LOAD TRANSLATION ACCESS:      97245  HIT:      97015  MISS:        230  HIT %:    99.7635  MISS %:   0.236516   MPKI: 0.00115
PSCL3 TRANSLATION FROM L1D PREFETCHER ACCESS:      24912  HIT:      24912  MISS:          0  HIT %:        100  MISS %:          0   MPKI: 0
PSCL3 PREFETCH  REQUESTED:          0  ISSUED:          0  USEFUL:          0  USELESS:          0
PSCL3 USEFUL LOAD PREFETCHES:          0 PREFETCH ISSUED TO LOWER LEVEL:          0  ACCURACY: -nan
PSCL3 TIMELY PREFETCHES:          0 LATE PREFETCHES: 0 DROPPED PREFETCHES: 0
PSCL3 PREFETCHES SAME FILL-ORIGIN LEVEL: 0 DIFFERENT FILL-ORIGIN LEVEL: 0

PSCL2 TOTAL     ACCESS:     100869  HIT:      80529  MISS:      20340  HIT %:    79.8352  MISS %:    20.1648   MPKI: 0.1017
PSCL2 LOAD TRANSLATION ACCESS:      97684  HIT:      77344  MISS:      20340  HIT %:    79.1778  MISS %:    20.8222   MPKI: 0.1017
PSCL2 TRANSLATION FROM L1D PREFETCHER ACCESS:       3185  HIT:       3185  MISS:          0  HIT %:        100  MISS %:          0   MPKI: 0
PSCL2 PREFETCH  REQUESTED:          0  ISSUED:          0  USEFUL:          0  USELESS:          0
PSCL2 USEFUL LOAD PREFETCHES:          0 PREFETCH ISSUED TO LOWER LEVEL:          0  ACCURACY: -nan
PSCL2 TIMELY PREFETCHES:          0 LATE PREFETCHES: 0 DROPPED PREFETCHES: 0
PSCL2 PREFETCHES SAME FILL-ORIGIN LEVEL: 0 DIFFERENT FILL-ORIGIN LEVEL: 0

LLC TOTAL     ACCESS:    1723157  HIT:     450431  MISS:    1272726  HIT %:    26.1399  MISS %:    73.8601   MPKI: 6.36363
LLC LOAD      ACCESS:    1413541  HIT:     270104  MISS:    1143437  HIT %:    19.1083  MISS %:    80.8917   MPKI: 5.71718
LLC RFO       ACCESS:      71802  HIT:      11998  MISS:      59804  HIT %:    16.7098  MISS %:    83.2902   MPKI: 0.29902
LLC PREFETCH  ACCESS:      10563  HIT:       2616  MISS:       7947  HIT %:    24.7657  MISS %:    75.2343   MPKI: 0.039735
AGUS PREFETCH L1 MISS: 0
LLC WRITEBACK ACCESS:     176288  HIT:     142753  MISS:      33535  HIT %:    80.9772  MISS %:    19.0228   MPKI: 0.167675
LLC LOAD TRANSLATION ACCESS:      47566  HIT:      21676  MISS:      25890  HIT %:    45.5704  MISS %:    54.4296   MPKI: 0.12945
LLC TRANSLATION FROM L1D PREFETCHER ACCESS:       3397  HIT:       1284  MISS:       2113  HIT %:    37.7981  MISS %:    62.2019   MPKI: 0.010565
LLC PREFETCH  REQUESTED:          0  ISSUED:          0  USEFUL:        694  USELESS:       9611
LLC USEFUL LOAD PREFETCHES:        694 PREFETCH ISSUED TO LOWER LEVEL:       7947  ACCURACY: 8.73286
LLC TIMELY PREFETCHES:        694 LATE PREFETCHES: 0 DROPPED PREFETCHES: 0
LLC PREFETCHES SAME FILL-ORIGIN LEVEL: 0 DIFFERENT FILL-ORIGIN LEVEL: 0
LLC AVERAGE MISS LATENCY: 111.427 cycles
LLC RQ	ACCESS:    1536306	FORWARD:          0	MERGED:          0	TO_CACHE:    1536306
LLC WQ	ACCESS:     176288	FORWARD:          0	MERGED:          0	TO_CACHE:     176288
LLC PQ	ACCESS:      10563	FORWARD:          0	MERGED:          0	TO_CACHE:      10563

LLC Dense regions hint to LLC: 0

RAW hits: 7105395
Loads Generated: 66076027
Loads sent to L1D: 58970626
Stores Generated: 18280128
Stores sent to L1D: 18280129
Major fault: 0 Minor fault: 9438
Allocated PAGES: 9438
Completed 

DRAM Statistics
 CHANNEL 0
 RQ ROW_BUFFER_HIT:     723990  ROW_BUFFER_MISS:     515200
 DBUS_CONGESTED:       1340
 WQ ROW_BUFFER_HIT:      74984  ROW_BUFFER_MISS:      68217  FULL:          0

 AVG_CONGESTED_CYCLE: 4
 All warmup complete: 2
Channel 0 Bank busy for read cycles: 0
Channel 0 Bank busy for write cycles: 0
Channel 0
Rank 0
0banks busy for read cycles: 409788547
0banks busy for write cycles: 63323
1banks busy for read cycles: 70261177
1banks busy for write cycles: 11739713
2banks busy for read cycles: 18223199
2banks busy for write cycles: 2933350
3banks busy for read cycles: 969527
3banks busy for write cycles: 1220801
4banks busy for read cycles: 229633
4banks busy for write cycles: 835959
5banks busy for read cycles: 110136
5banks busy for write cycles: 786591
6banks busy for read cycles: 80568
6banks busy for write cycles: 850555
7banks busy for read cycles: 84255
7banks busy for write cycles: 856889
8banks busy for read cycles: 170248
8banks busy for write cycles: 989228

CPU 0 Branch Prediction Accuracy: 99.6511% MPKI: 0.819515 Average ROB Occupancy at Mispredict: 30.2468
Branch types
NOT_BRANCH: 153025252 76.5126%
BRANCH_DIRECT_JUMP: 1846532 0.923266%
BRANCH_INDIRECT: 24302772 12.1514%
BRANCH_CONDITIONAL: 15487967 7.74398%
BRANCH_DIRECT_CALL: 2098553 1.04928%
BRANCH_INDIRECT_CALL: 567787 0.283894%
BRANCH_RETURN: 2671003 1.3355%
BRANCH_OTHER: 0 0%

DRAM PAGES: 1048576
Allocated PAGES: 9438
