
*** ChampSim Multicore Out-of-Order Simulator ***

Warmup Instructions: 50000000
Simulation Instructions: 200000000
Number of CPUs: 1
LLC sets: 2048
LLC ways: 16
Off-chip DRAM Size: 4096 MB Channels: 1 Width: 64-bit Data Rate: 6400 MT/s
CPU 0 runs traces/spec2k17/srv_2.champsimtrace.xz
.xz
BTB has LRU replacement policy
ITLB has LRU replacement policy
DTLB has LRU replacement policy
STLB has LRU replacement policy
L1I has LRU replacement policy
L1D has LRU replacement policy
Initialize SRRIP state for L2C
Initialize DRRIP state for LLC
Offset table: -6 -5 -4 -3 -2 -1 1 2 3 4 5 6 
Offset table size: 12

Printing Sanity: 1

Round Robin Complete

Offset reward: 363 257 461 586 807 1210 706 1223 3594 299 151 2 
Offset reward size: 12

Offset count: 1 1 1 1 1 1 1 1 1 1 1 1 
Offset count size: 12

Printing Sanity: 2
n total: 12
Writing in data1.txt 

Writing done! 

Heartbeat CPU 0 instructions: 10000002 cycles: 2808051 heartbeat IPC: 3.56119 cumulative IPC: 3.56119 (Simulation time: 0 hr 0 min 21 sec) 
Heartbeat CPU 0 instructions: 20000002 cycles: 5608154 heartbeat IPC: 3.5713 cumulative IPC: 3.56624 (Simulation time: 0 hr 0 min 43 sec) 
Heartbeat CPU 0 instructions: 30000001 cycles: 8407389 heartbeat IPC: 3.5724 cumulative IPC: 3.56829 (Simulation time: 0 hr 1 min 4 sec) 
*** Reached end of trace for Core: 0 Repeating trace: traces/spec2k17/srv_2.champsimtrace.xz
Heartbeat CPU 0 instructions: 40000000 cycles: 11208605 heartbeat IPC: 3.56988 cumulative IPC: 3.56869 (Simulation time: 0 hr 1 min 25 sec) 
Heartbeat CPU 0 instructions: 50000002 cycles: 14008104 heartbeat IPC: 3.57207 cumulative IPC: 3.56936 (Simulation time: 0 hr 1 min 46 sec) 

Warmup complete CPU 0 instructions: 50000002 cycles: 14008104 (Simulation time: 0 hr 1 min 46 sec) 

Heartbeat CPU 0 instructions: 60000000 cycles: 37150973 heartbeat IPC: 0.432098 cumulative IPC: 0.432098 (Simulation time: 0 hr 2 min 20 sec) 
*** Reached end of trace for Core: 0 Repeating trace: traces/spec2k17/srv_2.champsimtrace.xz
Heartbeat CPU 0 instructions: 70000000 cycles: 60001514 heartbeat IPC: 0.437626 cumulative IPC: 0.434845 (Simulation time: 0 hr 2 min 54 sec) 
Heartbeat CPU 0 instructions: 80000001 cycles: 82023743 heartbeat IPC: 0.454087 cumulative IPC: 0.441075 (Simulation time: 0 hr 3 min 27 sec) 
Heartbeat CPU 0 instructions: 90000000 cycles: 104699201 heartbeat IPC: 0.441005 cumulative IPC: 0.441058 (Simulation time: 0 hr 4 min 0 sec) 
*** Reached end of trace for Core: 0 Repeating trace: traces/spec2k17/srv_2.champsimtrace.xz
Heartbeat CPU 0 instructions: 100000000 cycles: 127068130 heartbeat IPC: 0.447049 cumulative IPC: 0.442243 (Simulation time: 0 hr 4 min 34 sec) 
Heartbeat CPU 0 instructions: 110000000 cycles: 148974934 heartbeat IPC: 0.456479 cumulative IPC: 0.444554 (Simulation time: 0 hr 5 min 7 sec) 
Heartbeat CPU 0 instructions: 120000001 cycles: 171137720 heartbeat IPC: 0.451207 cumulative IPC: 0.445492 (Simulation time: 0 hr 5 min 40 sec) 
*** Reached end of trace for Core: 0 Repeating trace: traces/spec2k17/srv_2.champsimtrace.xz
Heartbeat CPU 0 instructions: 130000001 cycles: 194069184 heartbeat IPC: 0.436082 cumulative IPC: 0.444294 (Simulation time: 0 hr 6 min 13 sec) 
Heartbeat CPU 0 instructions: 140000000 cycles: 216123953 heartbeat IPC: 0.453417 cumulative IPC: 0.445289 (Simulation time: 0 hr 6 min 46 sec) 
Heartbeat CPU 0 instructions: 150000001 cycles: 238671708 heartbeat IPC: 0.443503 cumulative IPC: 0.44511 (Simulation time: 0 hr 7 min 20 sec) 
*** Reached end of trace for Core: 0 Repeating trace: traces/spec2k17/srv_2.champsimtrace.xz
Heartbeat CPU 0 instructions: 160000002 cycles: 261476634 heartbeat IPC: 0.438502 cumulative IPC: 0.444501 (Simulation time: 0 hr 7 min 54 sec) 
Heartbeat CPU 0 instructions: 170000001 cycles: 283819602 heartbeat IPC: 0.447568 cumulative IPC: 0.444755 (Simulation time: 0 hr 8 min 27 sec) 
Heartbeat CPU 0 instructions: 180000000 cycles: 306342529 heartbeat IPC: 0.443992 cumulative IPC: 0.444696 (Simulation time: 0 hr 9 min 1 sec) 
*** Reached end of trace for Core: 0 Repeating trace: traces/spec2k17/srv_2.champsimtrace.xz
Heartbeat CPU 0 instructions: 190000000 cycles: 329212896 heartbeat IPC: 0.437247 cumulative IPC: 0.444156 (Simulation time: 0 hr 9 min 34 sec) 
Heartbeat CPU 0 instructions: 200000000 cycles: 351497262 heartbeat IPC: 0.448745 cumulative IPC: 0.444459 (Simulation time: 0 hr 10 min 7 sec) 
Heartbeat CPU 0 instructions: 210000000 cycles: 373525058 heartbeat IPC: 0.453972 cumulative IPC: 0.445042 (Simulation time: 0 hr 10 min 40 sec) 
*** Reached end of trace for Core: 0 Repeating trace: traces/spec2k17/srv_2.champsimtrace.xz
Heartbeat CPU 0 instructions: 220000000 cycles: 396689637 heartbeat IPC: 0.431694 cumulative IPC: 0.444234 (Simulation time: 0 hr 11 min 13 sec) 
Heartbeat CPU 0 instructions: 230000002 cycles: 419170767 heartbeat IPC: 0.444818 cumulative IPC: 0.444266 (Simulation time: 0 hr 11 min 47 sec) 
Heartbeat CPU 0 instructions: 240000002 cycles: 441455527 heartbeat IPC: 0.448737 cumulative IPC: 0.444499 (Simulation time: 0 hr 12 min 20 sec) 
*** Reached end of trace for Core: 0 Repeating trace: traces/spec2k17/srv_2.champsimtrace.xz
Heartbeat CPU 0 instructions: 250000003 cycles: 464537547 heartbeat IPC: 0.433238 cumulative IPC: 0.443922 (Simulation time: 0 hr 12 min 54 sec) 
Finished CPU 0 instructions: 200000001 cycles: 450529443 cumulative IPC: 0.443922 (Simulation time: 0 hr 12 min 54 sec) 

ChampSim completed all CPUs

Region of Interest Statistics

CPU 0 cumulative IPC: 0.443922 instructions: 200000001 cycles: 450529443
ITLB TOTAL     ACCESS:   31284054  HIT:   30505309  MISS:     778745  HIT %:    97.5107  MISS %:    2.48927   MPKI: 3.89372
ITLB LOAD TRANSLATION ACCESS:   31284054  HIT:   30505309  MISS:     778745  HIT %:    97.5107  MISS %:    2.48927   MPKI: 3.89372
ITLB PREFETCH  REQUESTED:          0  ISSUED:          0  USEFUL:          0  USELESS:          0
ITLB USEFUL LOAD PREFETCHES:          0 PREFETCH ISSUED TO LOWER LEVEL:          0  ACCURACY: -nan
ITLB TIMELY PREFETCHES:          0 LATE PREFETCHES: 0 DROPPED PREFETCHES: 0
ITLB PREFETCHES SAME FILL-ORIGIN LEVEL: 0 DIFFERENT FILL-ORIGIN LEVEL: 0
ITLB AVERAGE MISS LATENCY: 14.2289 cycles
ITLB RQ	ACCESS:   38368833	FORWARD:          0	MERGED:    6890365	TO_CACHE:   31478468

DTLB TOTAL     ACCESS:   37278123  HIT:   34683883  MISS:    2594240  HIT %:    93.0409  MISS %:    6.95915   MPKI: 12.9712
DTLB LOAD TRANSLATION ACCESS:   37278123  HIT:   34683883  MISS:    2594240  HIT %:    93.0409  MISS %:    6.95915   MPKI: 12.9712
DTLB PREFETCH  REQUESTED:          0  ISSUED:          0  USEFUL:          0  USELESS:          0
DTLB USEFUL LOAD PREFETCHES:          0 PREFETCH ISSUED TO LOWER LEVEL:          0  ACCURACY: -nan
DTLB TIMELY PREFETCHES:          0 LATE PREFETCHES: 0 DROPPED PREFETCHES: 0
DTLB PREFETCHES SAME FILL-ORIGIN LEVEL: 0 DIFFERENT FILL-ORIGIN LEVEL: 0
DTLB AVERAGE MISS LATENCY: 14.0574 cycles
DTLB RQ	ACCESS:   47694519	FORWARD:          0	MERGED:   10274847	TO_CACHE:   37419672

STLB TOTAL     ACCESS:   25614708  HIT:   25277753  MISS:     336955  HIT %:    98.6845  MISS %:    1.31547   MPKI: 1.68477
STLB LOAD TRANSLATION ACCESS:    3372985  HIT:    3042147  MISS:     330838  HIT %:    90.1915  MISS %:    9.80846   MPKI: 1.65419
STLB TRANSLATION FROM L1D PREFETCHER ACCESS:   22241723  HIT:   22235606  MISS:       6117  HIT %:    99.9725  MISS %:  0.0275024   MPKI: 0.030585
STLB PREFETCH  REQUESTED:          0  ISSUED:          0  USEFUL:       5598  USELESS:        517
STLB USEFUL LOAD PREFETCHES:       5598 PREFETCH ISSUED TO LOWER LEVEL:          0  ACCURACY: inf
STLB TIMELY PREFETCHES:       5598 LATE PREFETCHES: 299 DROPPED PREFETCHES: 636678
STLB PREFETCHES SAME FILL-ORIGIN LEVEL: 0 DIFFERENT FILL-ORIGIN LEVEL: 0
STLB AVERAGE MISS LATENCY: 51.4784 cycles
STLB RQ	ACCESS:   30206914	FORWARD:          0	MERGED:    3954323	TO_CACHE:   26252591

STLB Hit, L1D data hit: 0
STLB Hit, L2C data hit: 0
STLB Hit, LLC data hit: 0
STLB Hit, LLC data miss: 0
STLB STLB hints to L2: 0
L1D TOTAL     ACCESS:   73121337  HIT:   68891980  MISS:    4229357  HIT %:     94.216  MISS %:    5.78403   MPKI: 21.1468
L1D LOAD      ACCESS:   27650317  HIT:   25654019  MISS:    1996298  HIT %:    92.7802  MISS %:     7.2198   MPKI: 9.98149
L1D RFO       ACCESS:   19606669  HIT:   19296242  MISS:     310427  HIT %:    98.4167  MISS %:    1.58327   MPKI: 1.55213
L1D PREFETCH  ACCESS:   25864351  HIT:   23941719  MISS:    1922632  HIT %:    92.5665  MISS %:    7.43352   MPKI: 9.61316
AGUS PREFETCH L1 MISS: 0
L1D PREFETCH  REQUESTED:   54582988  ISSUED:   54582717  USEFUL:     456100  USELESS:    1466501
L1D USEFUL LOAD PREFETCHES:     456100 PREFETCH ISSUED TO LOWER LEVEL:    1963694  ACCURACY: 23.2266
L1D TIMELY PREFETCHES:     456100 LATE PREFETCHES: 38913 DROPPED PREFETCHES: 653663
L1D PREFETCHES SAME FILL-ORIGIN LEVEL: 1963694 DIFFERENT FILL-ORIGIN LEVEL: 0
L1D AVERAGE MISS LATENCY: 2.17325e+06 cycles
L1D RQ	ACCESS:   42254629	FORWARD:          0	MERGED:   14256402	TO_CACHE:   27749059
L1D WQ	ACCESS:   20224316	FORWARD:     294826	MERGED:     278856	TO_CACHE:   19945460
L1D PQ	ACCESS:   27748788	FORWARD:          0	MERGED:     869201	TO_CACHE:   26833929

L1D UNIQUE REGIONS ACCESSED: 0
L1D REGIONS CONFLICTS: 0
L1D Cross Page Prefetch Requests: 1854823
L1D Same Page Prefetch Requests: 32757961
L1D ROI Sum of L1D PQ occupancy: 389049978
L1D PREFETCHES PUSHED FROM L2C: 0
L1I TOTAL     ACCESS:   36558999  HIT:   31410713  MISS:    5148286  HIT %:    85.9179  MISS %:    14.0821   MPKI: 25.7414
L1I LOAD      ACCESS:   36558999  HIT:   31410713  MISS:    5148286  HIT %:    85.9179  MISS %:    14.0821   MPKI: 25.7414
L1I PREFETCH  REQUESTED:          0  ISSUED:          0  USEFUL:          0  USELESS:          0
L1I USEFUL LOAD PREFETCHES:          0 PREFETCH ISSUED TO LOWER LEVEL:          0  ACCURACY: -nan
L1I TIMELY PREFETCHES:          0 LATE PREFETCHES: 0 DROPPED PREFETCHES: 0
L1I PREFETCHES SAME FILL-ORIGIN LEVEL: 0 DIFFERENT FILL-ORIGIN LEVEL: 0
L1I AVERAGE MISS LATENCY: 27.7359 cycles
L1I RQ	ACCESS:   57171229	FORWARD:          0	MERGED:   18802396	TO_CACHE:   38368833

BTB TOTAL     ACCESS:   22017285  HIT:   17637201  MISS:    4380084  HIT %:    80.1062  MISS %:    19.8938   MPKI: 21.9004
BTB BRANCH_DIRECT_JUMP	ACCESS:    1737856  HIT:    1493758  MISS:     244098
BTB BRANCH_INDIRECT	ACCESS:    9415711  HIT:    7279334  MISS:    2136377
BTB BRANCH_CONDITIONAL	ACCESS:    4567442  HIT:    4164173  MISS:     403269
BTB BRANCH_DIRECT_CALL	ACCESS:    2474422  HIT:    1994046  MISS:     480376
BTB BRANCH_INDIRECT_CALL	ACCESS:     673221  HIT:     632799  MISS:      40422
BTB BRANCH_RETURN	ACCESS:    3148633  HIT:    2073091  MISS:    1075542
BTB BRANCH_OTHER ACCESS:          0  HIT:          0  MISS:          0

L2C TOTAL     ACCESS:   12038155  HIT:    7640116  MISS:    4398039  HIT %:    63.4658  MISS %:    36.5342   MPKI: 21.9902
L2C LOAD      ACCESS:    7105430  HIT:    4132719  MISS:    2972711  HIT %:    58.1628  MISS %:    41.8372   MPKI: 14.8636
L2C DATA LOAD MPKI: 3.94414
L2C INSTRUCTION LOAD MPKI: 10.9194
L2C RFO       ACCESS:     308249  HIT:     177544  MISS:     130705  HIT %:    57.5976  MISS %:    42.4024   MPKI: 0.653525
L2C PREFETCH  ACCESS:    1963537  HIT:     918710  MISS:    1044827  HIT %:    46.7885  MISS %:    53.2115   MPKI: 5.22413
AGUS PREFETCH L1 MISS: 0
L2C DATA PREFETCH MPKI: 5.22413
L2C INSTRUCTION PREFETCH MPKI: 0
L2C WRITEBACK ACCESS:    1101675  HIT:    1062018  MISS:      39657  HIT %:    96.4003  MISS %:     3.5997   MPKI: 0.198285
L2C LOAD TRANSLATION ACCESS:     435802  HIT:     234021  MISS:     201781  HIT %:    53.6989  MISS %:    46.3011   MPKI: 1.0089
L2C TRANSLATION FROM L1D PREFETCHER ACCESS:    1123462  HIT:    1115104  MISS:       8358  HIT %:     99.256  MISS %:    0.74395   MPKI: 0.04179
L2C PREFETCH  REQUESTED:          0  ISSUED:          0  USEFUL:      58348  USELESS:     994702
L2C USEFUL LOAD PREFETCHES:      58348 PREFETCH ISSUED TO LOWER LEVEL:    1044828  ACCURACY: 5.58446
L2C TIMELY PREFETCHES:      58348 LATE PREFETCHES: 0 DROPPED PREFETCHES: 0
L2C PREFETCHES SAME FILL-ORIGIN LEVEL: 0 DIFFERENT FILL-ORIGIN LEVEL: 0
L2C AVERAGE MISS LATENCY: 43.9037 cycles
L2C RQ	ACCESS:    8973215	FORWARD:          0	MERGED:          0	TO_CACHE:    8972944
L2C WQ	ACCESS:    1101675	FORWARD:        427	MERGED:          0	TO_CACHE:    1101675
L2C PQ	ACCESS:    1963694	FORWARD:          0	MERGED:          0	TO_CACHE:    1963538

L2C Instructions Evicting Data 982883
L2C Translations Evicting Data 97567
L2C Data Evicting Data 905554
L2C Instructions Evicting Instructions 1100537
L2C Translations Evicting Instructions 101242
L2C Data Evicting Instructions 961969
L2C Instructions Evicting Translations 100463
L2C Translations Evicting Translations 11330
L2C Data Evicting Translations 96837
L2C Dense regions hint from L2: 0
PSCL5 TOTAL     ACCESS:     973632  HIT:     973632  MISS:          0  HIT %:        100  MISS %:          0   MPKI: 0
PSCL5 LOAD TRANSLATION ACCESS:     330539  HIT:     330539  MISS:          0  HIT %:        100  MISS %:          0   MPKI: 0
PSCL5 TRANSLATION FROM L1D PREFETCHER ACCESS:     643093  HIT:     643093  MISS:          0  HIT %:        100  MISS %:          0   MPKI: 0
PSCL5 PREFETCH  REQUESTED:          0  ISSUED:          0  USEFUL:          0  USELESS:          0
PSCL5 USEFUL LOAD PREFETCHES:          0 PREFETCH ISSUED TO LOWER LEVEL:          0  ACCURACY: -nan
PSCL5 TIMELY PREFETCHES:          0 LATE PREFETCHES: 0 DROPPED PREFETCHES: 0
PSCL5 PREFETCHES SAME FILL-ORIGIN LEVEL: 0 DIFFERENT FILL-ORIGIN LEVEL: 0

PSCL4 TOTAL     ACCESS:     925372  HIT:     924971  MISS:        401  HIT %:    99.9567  MISS %:  0.0433339   MPKI: 0.002005
PSCL4 LOAD TRANSLATION ACCESS:     312151  HIT:     311750  MISS:        401  HIT %:    99.8715  MISS %:   0.128463   MPKI: 0.002005
PSCL4 TRANSLATION FROM L1D PREFETCHER ACCESS:     613221  HIT:     613221  MISS:          0  HIT %:        100  MISS %:          0   MPKI: 0
PSCL4 PREFETCH  REQUESTED:          0  ISSUED:          0  USEFUL:          0  USELESS:          0
PSCL4 USEFUL LOAD PREFETCHES:          0 PREFETCH ISSUED TO LOWER LEVEL:          0  ACCURACY: -nan
PSCL4 TIMELY PREFETCHES:          0 LATE PREFETCHES: 0 DROPPED PREFETCHES: 0
PSCL4 PREFETCHES SAME FILL-ORIGIN LEVEL: 0 DIFFERENT FILL-ORIGIN LEVEL: 0

PSCL3 TOTAL     ACCESS:     971544  HIT:     970740  MISS:        804  HIT %:    99.9172  MISS %:  0.0827549   MPKI: 0.00402
PSCL3 LOAD TRANSLATION ACCESS:     329718  HIT:     328914  MISS:        804  HIT %:    99.7562  MISS %:   0.243845   MPKI: 0.00402
PSCL3 TRANSLATION FROM L1D PREFETCHER ACCESS:     641826  HIT:     641826  MISS:          0  HIT %:        100  MISS %:          0   MPKI: 0
PSCL3 PREFETCH  REQUESTED:          0  ISSUED:          0  USEFUL:          0  USELESS:          0
PSCL3 USEFUL LOAD PREFETCHES:          0 PREFETCH ISSUED TO LOWER LEVEL:          0  ACCURACY: -nan
PSCL3 TIMELY PREFETCHES:          0 LATE PREFETCHES: 0 DROPPED PREFETCHES: 0
PSCL3 PREFETCHES SAME FILL-ORIGIN LEVEL: 0 DIFFERENT FILL-ORIGIN LEVEL: 0

PSCL2 TOTAL     ACCESS:     494462  HIT:     388940  MISS:     105522  HIT %:    78.6592  MISS %:    21.3408   MPKI: 0.52761
PSCL2 LOAD TRANSLATION ACCESS:     331956  HIT:     226434  MISS:     105522  HIT %:    68.2121  MISS %:    31.7879   MPKI: 0.52761
PSCL2 TRANSLATION FROM L1D PREFETCHER ACCESS:     162506  HIT:     162506  MISS:          0  HIT %:        100  MISS %:          0   MPKI: 0
PSCL2 PREFETCH  REQUESTED:          0  ISSUED:          0  USEFUL:          0  USELESS:          0
PSCL2 USEFUL LOAD PREFETCHES:          0 PREFETCH ISSUED TO LOWER LEVEL:          0  ACCURACY: -nan
PSCL2 TIMELY PREFETCHES:          0 LATE PREFETCHES: 0 DROPPED PREFETCHES: 0
PSCL2 PREFETCHES SAME FILL-ORIGIN LEVEL: 0 DIFFERENT FILL-ORIGIN LEVEL: 0

LLC TOTAL     ACCESS:    4822407  HIT:    4398398  MISS:     424009  HIT %:    91.2075  MISS %:    8.79248   MPKI: 2.12004
LLC LOAD      ACCESS:    2972705  HIT:    2809875  MISS:     162830  HIT %:    94.5225  MISS %:     5.4775   MPKI: 0.81415
LLC RFO       ACCESS:     130704  HIT:      91630  MISS:      39074  HIT %:     70.105  MISS %:     29.895   MPKI: 0.19537
LLC PREFETCH  ACCESS:    1044827  HIT:     842719  MISS:     202108  HIT %:    80.6563  MISS %:    19.3437   MPKI: 1.01054
AGUS PREFETCH L1 MISS: 0
LLC WRITEBACK ACCESS:     464032  HIT:     461391  MISS:       2641  HIT %:    99.4309  MISS %:   0.569142   MPKI: 0.013205
LLC LOAD TRANSLATION ACCESS:     201781  HIT:     184789  MISS:      16992  HIT %:     91.579  MISS %:    8.42101   MPKI: 0.08496
LLC TRANSLATION FROM L1D PREFETCHER ACCESS:       8358  HIT:       7994  MISS:        364  HIT %:    95.6449  MISS %:    4.35511   MPKI: 0.00182
LLC PREFETCH  REQUESTED:          0  ISSUED:          0  USEFUL:       6668  USELESS:     193070
LLC USEFUL LOAD PREFETCHES:       6668 PREFETCH ISSUED TO LOWER LEVEL:     202109  ACCURACY: 3.29921
LLC TIMELY PREFETCHES:       6668 LATE PREFETCHES: 0 DROPPED PREFETCHES: 0
LLC PREFETCHES SAME FILL-ORIGIN LEVEL: 0 DIFFERENT FILL-ORIGIN LEVEL: 0
LLC AVERAGE MISS LATENCY: 147.018 cycles
LLC RQ	ACCESS:    3313556	FORWARD:          0	MERGED:          0	TO_CACHE:    3313549
LLC WQ	ACCESS:     464032	FORWARD:          7	MERGED:          0	TO_CACHE:     464032
LLC PQ	ACCESS:    1044828	FORWARD:          0	MERGED:          0	TO_CACHE:    1044828

LLC Dense regions hint to LLC: 0

RAW hits: 2618554
Loads Generated: 44873183
Loads sent to L1D: 42254629
Stores Generated: 20224312
Stores sent to L1D: 20224316
Major fault: 0 Minor fault: 6527
Allocated PAGES: 6527
ucb ended

DRAM Statistics
 CHANNEL 0
 RQ ROW_BUFFER_HIT:     103388  ROW_BUFFER_MISS:     317980
 DBUS_CONGESTED:        224
 WQ ROW_BUFFER_HIT:      42698  ROW_BUFFER_MISS:     183354  FULL:          0

 AVG_CONGESTED_CYCLE: 4
 All warmup complete: 2
Channel 0 Bank busy for read cycles: 0
Channel 0 Bank busy for write cycles: 0
Channel 0
Rank 0
0banks busy for read cycles: 387318330
0banks busy for write cycles: 106898
1banks busy for read cycles: 28750753
1banks busy for write cycles: 14930561
2banks busy for read cycles: 7580344
2banks busy for write cycles: 3916732
3banks busy for read cycles: 1672124
3banks busy for write cycles: 1793400
4banks busy for read cycles: 544438
4banks busy for write cycles: 1189757
5banks busy for read cycles: 154009
5banks busy for write cycles: 876518
6banks busy for read cycles: 61410
6banks busy for write cycles: 657087
7banks busy for read cycles: 37294
7banks busy for write cycles: 485751
8banks busy for read cycles: 45312
8banks busy for write cycles: 408726

CPU 0 Branch Prediction Accuracy: 99.8118% MPKI: 0.33607 Average ROB Occupancy at Mispredict: 38.7984
Branch types
NOT_BRANCH: 164293632 82.1468%
BRANCH_DIRECT_JUMP: 1737856 0.868928%
BRANCH_INDIRECT: 9415711 4.70786%
BRANCH_CONDITIONAL: 18256213 9.12811%
BRANCH_DIRECT_CALL: 2474422 1.23721%
BRANCH_INDIRECT_CALL: 673221 0.33661%
BRANCH_RETURN: 3148633 1.57432%
BRANCH_OTHER: 0 0%

DRAM PAGES: 1048576
Allocated PAGES: 6527
