
*** ChampSim Multicore Out-of-Order Simulator ***

Warmup Instructions: 50000000
Simulation Instructions: 200000000
Number of CPUs: 1
LLC sets: 2048
LLC ways: 16
Off-chip DRAM Size: 4096 MB Channels: 1 Width: 64-bit Data Rate: 6400 MT/s
CPU 0 runs traces/spec2k17/srv_54.champsimtrace.xz
.xz
BTB has LRU replacement policy
ITLB has LRU replacement policy
DTLB has LRU replacement policy
STLB has LRU replacement policy
L1I has LRU replacement policy
L1D has LRU replacement policy
Initialize SRRIP state for L2C
Initialize DRRIP state for LLC
Offset table: -6 -5 -4 -3 -2 -1 1 2 3 4 5 6 
Offset table size: 12

Printing Sanity: 1

Round Robin Complete

Offset reward: 407 485 565 526 740 1353 1601 460 1124 382 518 361 
Offset reward size: 12

Offset count: 1 1 1 1 1 1 1 1 1 1 1 1 
Offset count size: 12

Printing Sanity: 2
n total: 12
Writing in data1.txt 

Writing done! 

Heartbeat CPU 0 instructions: 10000000 cycles: 2831060 heartbeat IPC: 3.53225 cumulative IPC: 3.53225 (Simulation time: 0 hr 0 min 22 sec) 
Heartbeat CPU 0 instructions: 20000002 cycles: 5661126 heartbeat IPC: 3.53349 cumulative IPC: 3.53287 (Simulation time: 0 hr 0 min 44 sec) 
Heartbeat CPU 0 instructions: 30000001 cycles: 8499359 heartbeat IPC: 3.52332 cumulative IPC: 3.52968 (Simulation time: 0 hr 1 min 7 sec) 
*** Reached end of trace for Core: 0 Repeating trace: traces/spec2k17/srv_54.champsimtrace.xz
Heartbeat CPU 0 instructions: 40000003 cycles: 11318027 heartbeat IPC: 3.54778 cumulative IPC: 3.53419 (Simulation time: 0 hr 1 min 29 sec) 
Heartbeat CPU 0 instructions: 50000003 cycles: 14159743 heartbeat IPC: 3.519 cumulative IPC: 3.53114 (Simulation time: 0 hr 1 min 51 sec) 

Warmup complete CPU 0 instructions: 50000003 cycles: 14159743 (Simulation time: 0 hr 1 min 51 sec) 

Heartbeat CPU 0 instructions: 60000003 cycles: 34301366 heartbeat IPC: 0.496484 cumulative IPC: 0.496484 (Simulation time: 0 hr 2 min 23 sec) 
*** Reached end of trace for Core: 0 Repeating trace: traces/spec2k17/srv_54.champsimtrace.xz
Heartbeat CPU 0 instructions: 70000001 cycles: 52283083 heartbeat IPC: 0.55612 cumulative IPC: 0.524613 (Simulation time: 0 hr 2 min 55 sec) 
Heartbeat CPU 0 instructions: 80000001 cycles: 71847470 heartbeat IPC: 0.511133 cumulative IPC: 0.520041 (Simulation time: 0 hr 3 min 26 sec) 
Heartbeat CPU 0 instructions: 90000001 cycles: 92515168 heartbeat IPC: 0.483847 cumulative IPC: 0.510494 (Simulation time: 0 hr 3 min 59 sec) 
*** Reached end of trace for Core: 0 Repeating trace: traces/spec2k17/srv_54.champsimtrace.xz
Heartbeat CPU 0 instructions: 100000002 cycles: 111917277 heartbeat IPC: 0.515408 cumulative IPC: 0.51147 (Simulation time: 0 hr 4 min 31 sec) 
Heartbeat CPU 0 instructions: 110000000 cycles: 129373561 heartbeat IPC: 0.572859 cumulative IPC: 0.520771 (Simulation time: 0 hr 5 min 2 sec) 
Heartbeat CPU 0 instructions: 120000003 cycles: 150992838 heartbeat IPC: 0.46255 cumulative IPC: 0.511572 (Simulation time: 0 hr 5 min 34 sec) 
*** Reached end of trace for Core: 0 Repeating trace: traces/spec2k17/srv_54.champsimtrace.xz
Heartbeat CPU 0 instructions: 130000001 cycles: 169961051 heartbeat IPC: 0.527198 cumulative IPC: 0.513475 (Simulation time: 0 hr 6 min 6 sec) 
Heartbeat CPU 0 instructions: 140000000 cycles: 188821449 heartbeat IPC: 0.530211 cumulative IPC: 0.515282 (Simulation time: 0 hr 6 min 38 sec) 
Heartbeat CPU 0 instructions: 150000000 cycles: 210488692 heartbeat IPC: 0.461526 cumulative IPC: 0.509349 (Simulation time: 0 hr 7 min 10 sec) 
*** Reached end of trace for Core: 0 Repeating trace: traces/spec2k17/srv_54.champsimtrace.xz
Heartbeat CPU 0 instructions: 160000002 cycles: 228335070 heartbeat IPC: 0.560338 cumulative IPC: 0.513598 (Simulation time: 0 hr 7 min 42 sec) 
Heartbeat CPU 0 instructions: 170000001 cycles: 248096060 heartbeat IPC: 0.506047 cumulative IPC: 0.51296 (Simulation time: 0 hr 8 min 14 sec) 
Heartbeat CPU 0 instructions: 180000001 cycles: 269565911 heartbeat IPC: 0.465769 cumulative IPC: 0.508993 (Simulation time: 0 hr 8 min 47 sec) 
*** Reached end of trace for Core: 0 Repeating trace: traces/spec2k17/srv_54.champsimtrace.xz
Heartbeat CPU 0 instructions: 190000002 cycles: 286895922 heartbeat IPC: 0.577034 cumulative IPC: 0.513317 (Simulation time: 0 hr 9 min 18 sec) 
Heartbeat CPU 0 instructions: 200000000 cycles: 305566439 heartbeat IPC: 0.535604 cumulative IPC: 0.514745 (Simulation time: 0 hr 9 min 50 sec) 
Heartbeat CPU 0 instructions: 210000000 cycles: 328728203 heartbeat IPC: 0.431746 cumulative IPC: 0.508633 (Simulation time: 0 hr 10 min 23 sec) 
*** Reached end of trace for Core: 0 Repeating trace: traces/spec2k17/srv_54.champsimtrace.xz
Heartbeat CPU 0 instructions: 220000000 cycles: 346169232 heartbeat IPC: 0.573361 cumulative IPC: 0.512034 (Simulation time: 0 hr 10 min 54 sec) 
Heartbeat CPU 0 instructions: 230000001 cycles: 362824838 heartbeat IPC: 0.600398 cumulative IPC: 0.516255 (Simulation time: 0 hr 11 min 25 sec) 
Heartbeat CPU 0 instructions: 240000002 cycles: 387886003 heartbeat IPC: 0.399024 cumulative IPC: 0.508393 (Simulation time: 0 hr 11 min 58 sec) 
*** Reached end of trace for Core: 0 Repeating trace: traces/spec2k17/srv_54.champsimtrace.xz
Heartbeat CPU 0 instructions: 250000001 cycles: 404889906 heartbeat IPC: 0.5881 cumulative IPC: 0.511862 (Simulation time: 0 hr 12 min 29 sec) 
Finished CPU 0 instructions: 200000002 cycles: 390730164 cumulative IPC: 0.511862 (Simulation time: 0 hr 12 min 29 sec) 

ChampSim completed all CPUs

Region of Interest Statistics

CPU 0 cumulative IPC: 0.511862 instructions: 200000002 cycles: 390730164
ITLB TOTAL     ACCESS:   33886698  HIT:   33287572  MISS:     599126  HIT %:     98.232  MISS %:    1.76803   MPKI: 2.99563
ITLB LOAD TRANSLATION ACCESS:   33886698  HIT:   33287572  MISS:     599126  HIT %:     98.232  MISS %:    1.76803   MPKI: 2.99563
ITLB PREFETCH  REQUESTED:          0  ISSUED:          0  USEFUL:          0  USELESS:          0
ITLB USEFUL LOAD PREFETCHES:          0 PREFETCH ISSUED TO LOWER LEVEL:          0  ACCURACY: -nan
ITLB TIMELY PREFETCHES:          0 LATE PREFETCHES: 0 DROPPED PREFETCHES: 0
ITLB PREFETCHES SAME FILL-ORIGIN LEVEL: 0 DIFFERENT FILL-ORIGIN LEVEL: 0
ITLB AVERAGE MISS LATENCY: 10.7597 cycles
ITLB RQ	ACCESS:   38517818	FORWARD:          0	MERGED:    4458398	TO_CACHE:   34059420

DTLB TOTAL     ACCESS:   39151008  HIT:   38525958  MISS:     625050  HIT %:    98.4035  MISS %:    1.59651   MPKI: 3.12525
DTLB LOAD TRANSLATION ACCESS:   39151008  HIT:   38525958  MISS:     625050  HIT %:    98.4035  MISS %:    1.59651   MPKI: 3.12525
DTLB PREFETCH  REQUESTED:          0  ISSUED:          0  USEFUL:          0  USELESS:          0
DTLB USEFUL LOAD PREFETCHES:          0 PREFETCH ISSUED TO LOWER LEVEL:          0  ACCURACY: -nan
DTLB TIMELY PREFETCHES:          0 LATE PREFETCHES: 0 DROPPED PREFETCHES: 0
DTLB PREFETCHES SAME FILL-ORIGIN LEVEL: 0 DIFFERENT FILL-ORIGIN LEVEL: 0
DTLB AVERAGE MISS LATENCY: 17.0558 cycles
DTLB RQ	ACCESS:   51369858	FORWARD:          0	MERGED:   12170862	TO_CACHE:   39198996

STLB TOTAL     ACCESS:   25232416  HIT:   25153162  MISS:      79254  HIT %:    99.6859  MISS %:   0.314096   MPKI: 0.39627
STLB LOAD TRANSLATION ACCESS:    1224176  HIT:    1146370  MISS:      77806  HIT %:    93.6442  MISS %:    6.35579   MPKI: 0.38903
STLB TRANSLATION FROM L1D PREFETCHER ACCESS:   24008240  HIT:   24006792  MISS:       1448  HIT %:     99.994  MISS %: 0.00603126   MPKI: 0.00724
STLB PREFETCH  REQUESTED:          0  ISSUED:          0  USEFUL:       1352  USELESS:         99
STLB USEFUL LOAD PREFETCHES:       1352 PREFETCH ISSUED TO LOWER LEVEL:          0  ACCURACY: inf
STLB TIMELY PREFETCHES:       1352 LATE PREFETCHES: 27 DROPPED PREFETCHES: 466116
STLB PREFETCHES SAME FILL-ORIGIN LEVEL: 0 DIFFERENT FILL-ORIGIN LEVEL: 0
STLB AVERAGE MISS LATENCY: 77.6538 cycles
STLB RQ	ACCESS:   30514252	FORWARD:          0	MERGED:    4813407	TO_CACHE:   25700845

STLB Hit, L1D data hit: 0
STLB Hit, L2C data hit: 0
STLB Hit, LLC data hit: 0
STLB Hit, LLC data miss: 0
STLB STLB hints to L2: 0
L1D TOTAL     ACCESS:   79145424  HIT:   76520496  MISS:    2624928  HIT %:    96.6834  MISS %:    3.31659   MPKI: 13.1246
L1D LOAD      ACCESS:   31287812  HIT:   30219367  MISS:    1068445  HIT %:    96.5851  MISS %:    3.41489   MPKI: 5.34222
L1D RFO       ACCESS:   19243761  HIT:   18757047  MISS:     486714  HIT %:    97.4708  MISS %:     2.5292   MPKI: 2.43357
L1D PREFETCH  ACCESS:   28613851  HIT:   27544082  MISS:    1069769  HIT %:    96.2614  MISS %:    3.73864   MPKI: 5.34884
AGUS PREFETCH L1 MISS: 0
L1D PREFETCH  REQUESTED:   60660866  ISSUED:   60660436  USEFUL:     268523  USELESS:     801289
L1D USEFUL LOAD PREFETCHES:     268523 PREFETCH ISSUED TO LOWER LEVEL:    1095740  ACCURACY: 24.5061
L1D TIMELY PREFETCHES:     268523 LATE PREFETCHES: 22253 DROPPED PREFETCHES: 470718
L1D PREFETCHES SAME FILL-ORIGIN LEVEL: 1095740 DIFFERENT FILL-ORIGIN LEVEL: 0
L1D AVERAGE MISS LATENCY: 2.11108e+06 cycles
L1D RQ	ACCESS:   43793123	FORWARD:          0	MERGED:   12106157	TO_CACHE:   31370790
L1D WQ	ACCESS:   20218308	FORWARD:     333518	MERGED:     219240	TO_CACHE:   19999068
L1D PQ	ACCESS:   31370360	FORWARD:          0	MERGED:    2062942	TO_CACHE:   29290076

L1D UNIQUE REGIONS ACCESSED: 0
L1D REGIONS CONFLICTS: 0
L1D Cross Page Prefetch Requests: 1168684
L1D Same Page Prefetch Requests: 37400777
L1D ROI Sum of L1D PQ occupancy: 399551828
L1D PREFETCHES PUSHED FROM L2C: 0
L1I TOTAL     ACCESS:   37978533  HIT:   34695276  MISS:    3283257  HIT %:     91.355  MISS %:    8.64503   MPKI: 16.4163
L1I LOAD      ACCESS:   37978533  HIT:   34695276  MISS:    3283257  HIT %:     91.355  MISS %:    8.64503   MPKI: 16.4163
L1I PREFETCH  REQUESTED:          0  ISSUED:          0  USEFUL:          0  USELESS:          0
L1I USEFUL LOAD PREFETCHES:          0 PREFETCH ISSUED TO LOWER LEVEL:          0  ACCURACY: -nan
L1I TIMELY PREFETCHES:          0 LATE PREFETCHES: 0 DROPPED PREFETCHES: 0
L1I PREFETCHES SAME FILL-ORIGIN LEVEL: 0 DIFFERENT FILL-ORIGIN LEVEL: 0
L1I AVERAGE MISS LATENCY: 24.0306 cycles
L1I RQ	ACCESS:   60216648	FORWARD:          0	MERGED:   21698830	TO_CACHE:   38517818

BTB TOTAL     ACCESS:   31119941  HIT:   26685030  MISS:    4434911  HIT %:     85.749  MISS %:     14.251   MPKI: 22.1746
BTB BRANCH_DIRECT_JUMP	ACCESS:    3483278  HIT:    3224169  MISS:     259109
BTB BRANCH_INDIRECT	ACCESS:   12132846  HIT:   10375979  MISS:    1756867
BTB BRANCH_CONDITIONAL	ACCESS:    9258792  HIT:    8942003  MISS:     316789
BTB BRANCH_DIRECT_CALL	ACCESS:    2660044  HIT:    2167295  MISS:     492749
BTB BRANCH_INDIRECT_CALL	ACCESS:     462476  HIT:     321593  MISS:     140883
BTB BRANCH_RETURN	ACCESS:    3122505  HIT:    1653991  MISS:    1468514
BTB BRANCH_OTHER ACCESS:          0  HIT:          0  MISS:          0

L2C TOTAL     ACCESS:    7530095  HIT:    5129903  MISS:    2400192  HIT %:    68.1253  MISS %:    31.8747   MPKI: 12.001
L2C LOAD      ACCESS:    4329400  HIT:    2879681  MISS:    1449719  HIT %:    66.5146  MISS %:    33.4854   MPKI: 7.24859
L2C DATA LOAD MPKI: 2.14221
L2C INSTRUCTION LOAD MPKI: 5.10638
L2C RFO       ACCESS:     482964  HIT:     189765  MISS:     293199  HIT %:    39.2917  MISS %:    60.7083   MPKI: 1.46599
L2C PREFETCH  ACCESS:    1095712  HIT:     551879  MISS:     543833  HIT %:    50.3672  MISS %:    49.6328   MPKI: 2.71916
AGUS PREFETCH L1 MISS: 0
L2C DATA PREFETCH MPKI: 2.71916
L2C INSTRUCTION PREFETCH MPKI: 0
L2C WRITEBACK ACCESS:     969978  HIT:     929642  MISS:      40336  HIT %:    95.8416  MISS %:    4.15844   MPKI: 0.20168
L2C LOAD TRANSLATION ACCESS:     117521  HIT:      49525  MISS:      67996  HIT %:    42.1414  MISS %:    57.8586   MPKI: 0.33998
L2C TRANSLATION FROM L1D PREFETCHER ACCESS:     534520  HIT:     529411  MISS:       5109  HIT %:    99.0442  MISS %:   0.955811   MPKI: 0.025545
L2C PREFETCH  REQUESTED:          0  ISSUED:          0  USEFUL:      46805  USELESS:     502388
L2C USEFUL LOAD PREFETCHES:      46805 PREFETCH ISSUED TO LOWER LEVEL:     543833  ACCURACY: 8.6065
L2C TIMELY PREFETCHES:      46805 LATE PREFETCHES: 0 DROPPED PREFETCHES: 0
L2C PREFETCHES SAME FILL-ORIGIN LEVEL: 0 DIFFERENT FILL-ORIGIN LEVEL: 0
L2C AVERAGE MISS LATENCY: 60.8905 cycles
L2C RQ	ACCESS:    5464488	FORWARD:          0	MERGED:          0	TO_CACHE:    5464406
L2C WQ	ACCESS:     969978	FORWARD:        110	MERGED:          0	TO_CACHE:     969978
L2C PQ	ACCESS:    1095740	FORWARD:          0	MERGED:          0	TO_CACHE:    1095712

L2C Instructions Evicting Data 539645
L2C Translations Evicting Data 39959
L2C Data Evicting Data 703325
L2C Instructions Evicting Instructions 450637
L2C Translations Evicting Instructions 30539
L2C Data Evicting Instructions 523532
L2C Instructions Evicting Translations 30995
L2C Translations Evicting Translations 2607
L2C Data Evicting Translations 38617
L2C Dense regions hint from L2: 0
PSCL5 TOTAL     ACCESS:     545370  HIT:     545370  MISS:          0  HIT %:        100  MISS %:          0   MPKI: 0
PSCL5 LOAD TRANSLATION ACCESS:      77779  HIT:      77779  MISS:          0  HIT %:        100  MISS %:          0   MPKI: 0
PSCL5 TRANSLATION FROM L1D PREFETCHER ACCESS:     467591  HIT:     467591  MISS:          0  HIT %:        100  MISS %:          0   MPKI: 0
PSCL5 PREFETCH  REQUESTED:          0  ISSUED:          0  USEFUL:          0  USELESS:          0
PSCL5 USEFUL LOAD PREFETCHES:          0 PREFETCH ISSUED TO LOWER LEVEL:          0  ACCURACY: -nan
PSCL5 TIMELY PREFETCHES:          0 LATE PREFETCHES: 0 DROPPED PREFETCHES: 0
PSCL5 PREFETCHES SAME FILL-ORIGIN LEVEL: 0 DIFFERENT FILL-ORIGIN LEVEL: 0

PSCL4 TOTAL     ACCESS:     535873  HIT:     535289  MISS:        584  HIT %:     99.891  MISS %:   0.108981   MPKI: 0.00292
PSCL4 LOAD TRANSLATION ACCESS:      76010  HIT:      75426  MISS:        584  HIT %:    99.2317  MISS %:    0.76832   MPKI: 0.00292
PSCL4 TRANSLATION FROM L1D PREFETCHER ACCESS:     459863  HIT:     459863  MISS:          0  HIT %:        100  MISS %:          0   MPKI: 0
PSCL4 PREFETCH  REQUESTED:          0  ISSUED:          0  USEFUL:          0  USELESS:          0
PSCL4 USEFUL LOAD PREFETCHES:          0 PREFETCH ISSUED TO LOWER LEVEL:          0  ACCURACY: -nan
PSCL4 TIMELY PREFETCHES:          0 LATE PREFETCHES: 0 DROPPED PREFETCHES: 0
PSCL4 PREFETCHES SAME FILL-ORIGIN LEVEL: 0 DIFFERENT FILL-ORIGIN LEVEL: 0

PSCL3 TOTAL     ACCESS:     405848  HIT:     395504  MISS:      10344  HIT %:    97.4513  MISS %:    2.54874   MPKI: 0.05172
PSCL3 LOAD TRANSLATION ACCESS:      71788  HIT:      61444  MISS:      10344  HIT %:    85.5909  MISS %:    14.4091   MPKI: 0.05172
PSCL3 TRANSLATION FROM L1D PREFETCHER ACCESS:     334060  HIT:     334060  MISS:          0  HIT %:        100  MISS %:          0   MPKI: 0
PSCL3 PREFETCH  REQUESTED:          0  ISSUED:          0  USEFUL:          0  USELESS:          0
PSCL3 USEFUL LOAD PREFETCHES:          0 PREFETCH ISSUED TO LOWER LEVEL:          0  ACCURACY: -nan
PSCL3 TIMELY PREFETCHES:          0 LATE PREFETCHES: 0 DROPPED PREFETCHES: 0
PSCL3 PREFETCHES SAME FILL-ORIGIN LEVEL: 0 DIFFERENT FILL-ORIGIN LEVEL: 0

PSCL2 TOTAL     ACCESS:     497691  HIT:     468505  MISS:      29186  HIT %:    94.1357  MISS %:    5.86428   MPKI: 0.14593
PSCL2 LOAD TRANSLATION ACCESS:      78049  HIT:      48863  MISS:      29186  HIT %:    62.6055  MISS %:    37.3945   MPKI: 0.14593
PSCL2 TRANSLATION FROM L1D PREFETCHER ACCESS:     419642  HIT:     419642  MISS:          0  HIT %:        100  MISS %:          0   MPKI: 0
PSCL2 PREFETCH  REQUESTED:          0  ISSUED:          0  USEFUL:          0  USELESS:          0
PSCL2 USEFUL LOAD PREFETCHES:          0 PREFETCH ISSUED TO LOWER LEVEL:          0  ACCURACY: -nan
PSCL2 TIMELY PREFETCHES:          0 LATE PREFETCHES: 0 DROPPED PREFETCHES: 0
PSCL2 PREFETCHES SAME FILL-ORIGIN LEVEL: 0 DIFFERENT FILL-ORIGIN LEVEL: 0

LLC TOTAL     ACCESS:    2881884  HIT:    2455623  MISS:     426261  HIT %:    85.2089  MISS %:    14.7911   MPKI: 2.1313
LLC LOAD      ACCESS:    1449718  HIT:    1314519  MISS:     135199  HIT %:    90.6741  MISS %:    9.32588   MPKI: 0.675995
LLC RFO       ACCESS:     293198  HIT:     161001  MISS:     132197  HIT %:     54.912  MISS %:     45.088   MPKI: 0.660985
LLC PREFETCH  ACCESS:     543832  HIT:     400831  MISS:     143001  HIT %:    73.7049  MISS %:    26.2951   MPKI: 0.715005
AGUS PREFETCH L1 MISS: 0
LLC WRITEBACK ACCESS:     522031  HIT:     518678  MISS:       3353  HIT %:    99.3577  MISS %:   0.642299   MPKI: 0.016765
LLC LOAD TRANSLATION ACCESS:      67996  HIT:      56526  MISS:      11470  HIT %:    83.1314  MISS %:    16.8686   MPKI: 0.05735
LLC TRANSLATION FROM L1D PREFETCHER ACCESS:       5109  HIT:       4068  MISS:       1041  HIT %:    79.6242  MISS %:    20.3758   MPKI: 0.005205
LLC PREFETCH  REQUESTED:          0  ISSUED:          0  USEFUL:      11123  USELESS:     132454
LLC USEFUL LOAD PREFETCHES:      11123 PREFETCH ISSUED TO LOWER LEVEL:     143001  ACCURACY: 7.77827
LLC TIMELY PREFETCHES:      11123 LATE PREFETCHES: 0 DROPPED PREFETCHES: 0
LLC PREFETCHES SAME FILL-ORIGIN LEVEL: 0 DIFFERENT FILL-ORIGIN LEVEL: 0
LLC AVERAGE MISS LATENCY: 176.772 cycles
LLC RQ	ACCESS:    1816024	FORWARD:          0	MERGED:          0	TO_CACHE:    1816022
LLC WQ	ACCESS:     522031	FORWARD:          3	MERGED:          0	TO_CACHE:     522031
LLC PQ	ACCESS:     543833	FORWARD:          0	MERGED:          0	TO_CACHE:     543832

LLC Dense regions hint to LLC: 0

RAW hits: 2259948
Loads Generated: 46053071
Loads sent to L1D: 43793123
Stores Generated: 20218309
Stores sent to L1D: 20218308
Major fault: 0 Minor fault: 4930
Allocated PAGES: 4930
ucb ended

DRAM Statistics
 CHANNEL 0
 RQ ROW_BUFFER_HIT:      98585  ROW_BUFFER_MISS:     324315
 DBUS_CONGESTED:        224
 WQ ROW_BUFFER_HIT:      32878  ROW_BUFFER_MISS:     200083  FULL:          0

 AVG_CONGESTED_CYCLE: 4
 All warmup complete: 2
Channel 0 Bank busy for read cycles: 0
Channel 0 Bank busy for write cycles: 0
Channel 0
Rank 0
0banks busy for read cycles: 337016776
0banks busy for write cycles: 93135
1banks busy for read cycles: 21010511
1banks busy for write cycles: 12059853
2banks busy for read cycles: 8105781
2banks busy for write cycles: 4221537
3banks busy for read cycles: 1812687
3banks busy for write cycles: 1791056
4banks busy for read cycles: 561349
4banks busy for write cycles: 869969
5banks busy for read cycles: 191921
5banks busy for write cycles: 441145
6banks busy for read cycles: 156982
6banks busy for write cycles: 259413
7banks busy for read cycles: 200493
7banks busy for write cycles: 231242
8banks busy for read cycles: 700768
8banks busy for write cycles: 1005547

CPU 0 Branch Prediction Accuracy: 99.6389% MPKI: 0.649475 Average ROB Occupancy at Mispredict: 28.324
Branch types
NOT_BRANCH: 164024535 82.0123%
BRANCH_DIRECT_JUMP: 3483278 1.74164%
BRANCH_INDIRECT: 12132846 6.06642%
BRANCH_CONDITIONAL: 14114305 7.05715%
BRANCH_DIRECT_CALL: 2660044 1.33002%
BRANCH_INDIRECT_CALL: 462476 0.231238%
BRANCH_RETURN: 3122505 1.56125%
BRANCH_OTHER: 0 0%

DRAM PAGES: 1048576
Allocated PAGES: 4930
