
*** ChampSim Multicore Out-of-Order Simulator ***

Warmup Instructions: 50000000
Simulation Instructions: 200000000
Number of CPUs: 1
LLC sets: 2048
LLC ways: 16
Off-chip DRAM Size: 4096 MB Channels: 1 Width: 64-bit Data Rate: 6400 MT/s
CPU 0 runs traces/spec2k17/srv_11.champsimtrace.xz
.xz
BTB has LRU replacement policy
ITLB has LRU replacement policy
DTLB has LRU replacement policy
STLB has LRU replacement policy
L1I has LRU replacement policy
L1D has LRU replacement policy
Initialize SRRIP state for L2C
Initialize DRRIP state for LLC
Offset table: -6 -5 -4 -3 -2 -1 1 2 3 4 5 6 
Offset table size: 12

Printing Sanity: 1

Round Robin Complete

Offset reward: 330 187 424 413 601 928 1114 641 594 509 326 269 
Offset reward size: 12

Offset count: 1 1 1 1 1 1 1 1 1 1 1 1 
Offset count size: 12

Printing Sanity: 2
n total: 12
Writing in data1.txt 

Writing done! 

Heartbeat CPU 0 instructions: 10000000 cycles: 3349024 heartbeat IPC: 2.98594 cumulative IPC: 2.98594 (Simulation time: 0 hr 0 min 24 sec) 
Heartbeat CPU 0 instructions: 20000002 cycles: 7877430 heartbeat IPC: 2.20828 cumulative IPC: 2.5389 (Simulation time: 0 hr 0 min 56 sec) 
Heartbeat CPU 0 instructions: 30000000 cycles: 10677879 heartbeat IPC: 3.57086 cumulative IPC: 2.80955 (Simulation time: 0 hr 1 min 17 sec) 
*** Reached end of trace for Core: 0 Repeating trace: traces/spec2k17/srv_11.champsimtrace.xz
Heartbeat CPU 0 instructions: 40000001 cycles: 13854419 heartbeat IPC: 3.14808 cumulative IPC: 2.88717 (Simulation time: 0 hr 1 min 40 sec) 
Heartbeat CPU 0 instructions: 50000000 cycles: 18541662 heartbeat IPC: 2.13345 cumulative IPC: 2.69663 (Simulation time: 0 hr 2 min 13 sec) 

Warmup complete CPU 0 instructions: 50000004 cycles: 18541663 (Simulation time: 0 hr 2 min 13 sec) 

Heartbeat CPU 0 instructions: 60000003 cycles: 42658402 heartbeat IPC: 0.41465 cumulative IPC: 0.41465 (Simulation time: 0 hr 2 min 47 sec) 
*** Reached end of trace for Core: 0 Repeating trace: traces/spec2k17/srv_11.champsimtrace.xz
Heartbeat CPU 0 instructions: 70000000 cycles: 67011394 heartbeat IPC: 0.410627 cumulative IPC: 0.412629 (Simulation time: 0 hr 3 min 21 sec) 
Heartbeat CPU 0 instructions: 80000001 cycles: 107717431 heartbeat IPC: 0.245664 cumulative IPC: 0.336414 (Simulation time: 0 hr 4 min 12 sec) 
Heartbeat CPU 0 instructions: 90000003 cycles: 132827583 heartbeat IPC: 0.398245 cumulative IPC: 0.349999 (Simulation time: 0 hr 4 min 47 sec) 
*** Reached end of trace for Core: 0 Repeating trace: traces/spec2k17/srv_11.champsimtrace.xz
Heartbeat CPU 0 instructions: 100000003 cycles: 156743385 heartbeat IPC: 0.418134 cumulative IPC: 0.36179 (Simulation time: 0 hr 5 min 21 sec) 
Heartbeat CPU 0 instructions: 110000000 cycles: 196397461 heartbeat IPC: 0.252181 cumulative IPC: 0.337352 (Simulation time: 0 hr 6 min 12 sec) 
Heartbeat CPU 0 instructions: 120000000 cycles: 222420830 heartbeat IPC: 0.38427 cumulative IPC: 0.343341 (Simulation time: 0 hr 6 min 47 sec) 
*** Reached end of trace for Core: 0 Repeating trace: traces/spec2k17/srv_11.champsimtrace.xz
Heartbeat CPU 0 instructions: 130000002 cycles: 246008614 heartbeat IPC: 0.423948 cumulative IPC: 0.351699 (Simulation time: 0 hr 7 min 21 sec) 
Heartbeat CPU 0 instructions: 140000002 cycles: 284523416 heartbeat IPC: 0.25964 cumulative IPC: 0.338369 (Simulation time: 0 hr 8 min 9 sec) 
Heartbeat CPU 0 instructions: 150000002 cycles: 311785104 heartbeat IPC: 0.366815 cumulative IPC: 0.341014 (Simulation time: 0 hr 8 min 47 sec) 
*** Reached end of trace for Core: 0 Repeating trace: traces/spec2k17/srv_11.champsimtrace.xz
Heartbeat CPU 0 instructions: 160000003 cycles: 335740424 heartbeat IPC: 0.417444 cumulative IPC: 0.346786 (Simulation time: 0 hr 9 min 20 sec) 
Heartbeat CPU 0 instructions: 170000000 cycles: 373098902 heartbeat IPC: 0.267677 cumulative IPC: 0.33845 (Simulation time: 0 hr 10 min 8 sec) 
Heartbeat CPU 0 instructions: 180000001 cycles: 401341079 heartbeat IPC: 0.35408 cumulative IPC: 0.339603 (Simulation time: 0 hr 10 min 47 sec) 
*** Reached end of trace for Core: 0 Repeating trace: traces/spec2k17/srv_11.champsimtrace.xz
Heartbeat CPU 0 instructions: 190000003 cycles: 425220770 heartbeat IPC: 0.418766 cumulative IPC: 0.344252 (Simulation time: 0 hr 11 min 21 sec) 
Heartbeat CPU 0 instructions: 200000000 cycles: 461527982 heartbeat IPC: 0.275427 cumulative IPC: 0.338611 (Simulation time: 0 hr 12 min 7 sec) 
Heartbeat CPU 0 instructions: 210000001 cycles: 491005700 heartbeat IPC: 0.339239 cumulative IPC: 0.33865 (Simulation time: 0 hr 12 min 47 sec) 
*** Reached end of trace for Core: 0 Repeating trace: traces/spec2k17/srv_11.champsimtrace.xz
Heartbeat CPU 0 instructions: 220000000 cycles: 514995633 heartbeat IPC: 0.416841 cumulative IPC: 0.342429 (Simulation time: 0 hr 13 min 20 sec) 
Heartbeat CPU 0 instructions: 230000000 cycles: 549853751 heartbeat IPC: 0.286877 cumulative IPC: 0.338784 (Simulation time: 0 hr 14 min 5 sec) 
Heartbeat CPU 0 instructions: 240000002 cycles: 580516282 heartbeat IPC: 0.326131 cumulative IPC: 0.338094 (Simulation time: 0 hr 14 min 46 sec) 
*** Reached end of trace for Core: 0 Repeating trace: traces/spec2k17/srv_11.champsimtrace.xz
Heartbeat CPU 0 instructions: 250000000 cycles: 604371701 heartbeat IPC: 0.419192 cumulative IPC: 0.341396 (Simulation time: 0 hr 15 min 19 sec) 
Finished CPU 0 instructions: 200000000 cycles: 585830039 cumulative IPC: 0.341396 (Simulation time: 0 hr 15 min 19 sec) 

ChampSim completed all CPUs

Region of Interest Statistics

CPU 0 cumulative IPC: 0.341396 instructions: 200000000 cycles: 585830039
ITLB TOTAL     ACCESS:   37990668  HIT:   37451191  MISS:     539477  HIT %:      98.58  MISS %:    1.42003   MPKI: 2.69739
ITLB LOAD TRANSLATION ACCESS:   37990668  HIT:   37451191  MISS:     539477  HIT %:      98.58  MISS %:    1.42003   MPKI: 2.69739
ITLB PREFETCH  REQUESTED:          0  ISSUED:          0  USEFUL:          0  USELESS:          0
ITLB USEFUL LOAD PREFETCHES:          0 PREFETCH ISSUED TO LOWER LEVEL:          0  ACCURACY: -nan
ITLB TIMELY PREFETCHES:          0 LATE PREFETCHES: 0 DROPPED PREFETCHES: 0
ITLB PREFETCHES SAME FILL-ORIGIN LEVEL: 0 DIFFERENT FILL-ORIGIN LEVEL: 0
ITLB AVERAGE MISS LATENCY: 16.4967 cycles
ITLB RQ	ACCESS:   43893739	FORWARD:          0	MERGED:    5774528	TO_CACHE:   38119211

DTLB TOTAL     ACCESS:   43916198  HIT:   34929922  MISS:    8986276  HIT %:    79.5377  MISS %:    20.4623   MPKI: 44.9314
DTLB LOAD TRANSLATION ACCESS:   43916198  HIT:   34929922  MISS:    8986276  HIT %:    79.5377  MISS %:    20.4623   MPKI: 44.9314
DTLB PREFETCH  REQUESTED:          0  ISSUED:          0  USEFUL:          0  USELESS:          0
DTLB USEFUL LOAD PREFETCHES:          0 PREFETCH ISSUED TO LOWER LEVEL:          0  ACCURACY: -nan
DTLB TIMELY PREFETCHES:          0 LATE PREFETCHES: 0 DROPPED PREFETCHES: 0
DTLB PREFETCHES SAME FILL-ORIGIN LEVEL: 0 DIFFERENT FILL-ORIGIN LEVEL: 0
DTLB AVERAGE MISS LATENCY: 10.0468 cycles
DTLB RQ	ACCESS:   58975832	FORWARD:          0	MERGED:   14848779	TO_CACHE:   44127053

STLB TOTAL     ACCESS:   40311760  HIT:   39995950  MISS:     315810  HIT %:    99.2166  MISS %:   0.783419   MPKI: 1.57905
STLB LOAD TRANSLATION ACCESS:    9525753  HIT:    9213526  MISS:     312227  HIT %:    96.7223  MISS %:    3.27771   MPKI: 1.56113
STLB TRANSLATION FROM L1D PREFETCHER ACCESS:   30786007  HIT:   30782424  MISS:       3583  HIT %:    99.9884  MISS %:  0.0116384   MPKI: 0.017915
STLB PREFETCH  REQUESTED:          0  ISSUED:          0  USEFUL:       3262  USELESS:        321
STLB USEFUL LOAD PREFETCHES:       3262 PREFETCH ISSUED TO LOWER LEVEL:          0  ACCURACY: inf
STLB TIMELY PREFETCHES:       3262 LATE PREFETCHES: 260 DROPPED PREFETCHES: 692425
STLB PREFETCHES SAME FILL-ORIGIN LEVEL: 0 DIFFERENT FILL-ORIGIN LEVEL: 0
STLB AVERAGE MISS LATENCY: 42.7757 cycles
STLB RQ	ACCESS:   49880506	FORWARD:          0	MERGED:    8874721	TO_CACHE:   41005785

STLB Hit, L1D data hit: 0
STLB Hit, L2C data hit: 0
STLB Hit, LLC data hit: 0
STLB Hit, LLC data miss: 0
STLB STLB hints to L2: 0
L1D TOTAL     ACCESS:   93506944  HIT:   74062536  MISS:   19444408  HIT %:    79.2054  MISS %:    20.7946   MPKI: 97.222
L1D LOAD      ACCESS:   41054270  HIT:   29026234  MISS:   12028036  HIT %:    70.7021  MISS %:    29.2979   MPKI: 60.1402
L1D RFO       ACCESS:   17465675  HIT:   17085760  MISS:     379915  HIT %:    97.8248  MISS %:    2.17521   MPKI: 1.89958
L1D PREFETCH  ACCESS:   34986999  HIT:   27950542  MISS:    7036457  HIT %:    79.8884  MISS %:    20.1116   MPKI: 35.1823
AGUS PREFETCH L1 MISS: 0
L1D PREFETCH  REQUESTED:   81492345  ISSUED:   81491790  USEFUL:     434381  USELESS:    6601924
L1D USEFUL LOAD PREFETCHES:     434381 PREFETCH ISSUED TO LOWER LEVEL:    7066609  ACCURACY: 6.14695
L1D TIMELY PREFETCHES:     434381 LATE PREFETCHES: 28527 DROPPED PREFETCHES: 735350
L1D PREFETCHES SAME FILL-ORIGIN LEVEL: 7066609 DIFFERENT FILL-ORIGIN LEVEL: 0
L1D AVERAGE MISS LATENCY: 549793 cycles
L1D RQ	ACCESS:   54060543	FORWARD:          0	MERGED:   12696725	TO_CACHE:   41137593
L1D WQ	ACCESS:   18064452	FORWARD:     256081	MERGED:     226213	TO_CACHE:   17838239
L1D PQ	ACCESS:   41137037	FORWARD:          0	MERGED:     752428	TO_CACHE:   40354753

L1D UNIQUE REGIONS ACCESSED: 0
L1D REGIONS CONFLICTS: 0
L1D Cross Page Prefetch Requests: 1698960
L1D Same Page Prefetch Requests: 50546878
L1D ROI Sum of L1D PQ occupancy: 562457067
L1D PREFETCHES PUSHED FROM L2C: 0
L1I TOTAL     ACCESS:   42777099  HIT:   39354957  MISS:    3422142  HIT %:    92.0001  MISS %:    7.99994   MPKI: 17.1107
L1I LOAD      ACCESS:   42777099  HIT:   39354957  MISS:    3422142  HIT %:    92.0001  MISS %:    7.99994   MPKI: 17.1107
L1I PREFETCH  REQUESTED:          0  ISSUED:          0  USEFUL:          0  USELESS:          0
L1I USEFUL LOAD PREFETCHES:          0 PREFETCH ISSUED TO LOWER LEVEL:          0  ACCURACY: -nan
L1I TIMELY PREFETCHES:          0 LATE PREFETCHES: 0 DROPPED PREFETCHES: 0
L1I PREFETCHES SAME FILL-ORIGIN LEVEL: 0 DIFFERENT FILL-ORIGIN LEVEL: 0
L1I AVERAGE MISS LATENCY: 30.2111 cycles
L1I RQ	ACCESS:   65987994	FORWARD:          0	MERGED:   22094255	TO_CACHE:   43893739

BTB TOTAL     ACCESS:   33562541  HIT:   29061291  MISS:    4501250  HIT %:    86.5885  MISS %:    13.4115   MPKI: 22.5063
BTB BRANCH_DIRECT_JUMP	ACCESS:    1685269  HIT:    1483558  MISS:     201711
BTB BRANCH_INDIRECT	ACCESS:   19828017  HIT:   17476348  MISS:    2351669
BTB BRANCH_CONDITIONAL	ACCESS:    4608066  HIT:    4287796  MISS:     320270
BTB BRANCH_DIRECT_CALL	ACCESS:    2993939  HIT:    2599188  MISS:     394751
BTB BRANCH_INDIRECT_CALL	ACCESS:     724221  HIT:     681906  MISS:      42315
BTB BRANCH_RETURN	ACCESS:    3723029  HIT:    2532495  MISS:    1190534
BTB BRANCH_OTHER ACCESS:          0  HIT:          0  MISS:          0

L2C TOTAL     ACCESS:   25321186  HIT:   21923868  MISS:    3397318  HIT %:    86.5831  MISS %:    13.4169   MPKI: 16.9866
L2C LOAD      ACCESS:   15421582  HIT:   13018931  MISS:    2402651  HIT %:    84.4202  MISS %:    15.5798   MPKI: 12.0133
L2C DATA LOAD MPKI: 3.44369
L2C INSTRUCTION LOAD MPKI: 8.56957
L2C RFO       ACCESS:     378282  HIT:     267621  MISS:     110661  HIT %:    70.7464  MISS %:    29.2536   MPKI: 0.553305
L2C PREFETCH  ACCESS:    7066570  HIT:    6382043  MISS:     684527  HIT %:    90.3132  MISS %:    9.68684   MPKI: 3.42264
AGUS PREFETCH L1 MISS: 0
L2C DATA PREFETCH MPKI: 3.42264
L2C INSTRUCTION PREFETCH MPKI: 0
L2C WRITEBACK ACCESS:     933053  HIT:     901742  MISS:      31311  HIT %:    96.6442  MISS %:    3.35576   MPKI: 0.156555
L2C LOAD TRANSLATION ACCESS:     395288  HIT:     231163  MISS:     164125  HIT %:    58.4796  MISS %:    41.5204   MPKI: 0.820625
L2C TRANSLATION FROM L1D PREFETCHER ACCESS:    1126411  HIT:    1122368  MISS:       4043  HIT %:    99.6411  MISS %:   0.358928   MPKI: 0.020215
L2C PREFETCH  REQUESTED:          0  ISSUED:          0  USEFUL:      33529  USELESS:     655413
L2C USEFUL LOAD PREFETCHES:      33529 PREFETCH ISSUED TO LOWER LEVEL:     684527  ACCURACY: 4.89813
L2C TIMELY PREFETCHES:      33529 LATE PREFETCHES: 0 DROPPED PREFETCHES: 0
L2C PREFETCHES SAME FILL-ORIGIN LEVEL: 0 DIFFERENT FILL-ORIGIN LEVEL: 0
L2C AVERAGE MISS LATENCY: 43.7576 cycles
L2C RQ	ACCESS:   17321640	FORWARD:          0	MERGED:          0	TO_CACHE:   17321563
L2C WQ	ACCESS:     933053	FORWARD:        116	MERGED:          0	TO_CACHE:     933053
L2C PQ	ACCESS:    7066609	FORWARD:          0	MERGED:          0	TO_CACHE:    7066570

L2C Instructions Evicting Data 760773
L2C Translations Evicting Data 75495
L2C Data Evicting Data 666357
L2C Instructions Evicting Instructions 867565
L2C Translations Evicting Instructions 85710
L2C Data Evicting Instructions 743745
L2C Instructions Evicting Translations 85575
L2C Translations Evicting Translations 6963
L2C Data Evicting Translations 73824
L2C Dense regions hint from L2: 0
PSCL5 TOTAL     ACCESS:    1008235  HIT:    1008235  MISS:          0  HIT %:        100  MISS %:          0   MPKI: 0
PSCL5 LOAD TRANSLATION ACCESS:     311967  HIT:     311967  MISS:          0  HIT %:        100  MISS %:          0   MPKI: 0
PSCL5 TRANSLATION FROM L1D PREFETCHER ACCESS:     696268  HIT:     696268  MISS:          0  HIT %:        100  MISS %:          0   MPKI: 0
PSCL5 PREFETCH  REQUESTED:          0  ISSUED:          0  USEFUL:          0  USELESS:          0
PSCL5 USEFUL LOAD PREFETCHES:          0 PREFETCH ISSUED TO LOWER LEVEL:          0  ACCURACY: -nan
PSCL5 TIMELY PREFETCHES:          0 LATE PREFETCHES: 0 DROPPED PREFETCHES: 0
PSCL5 PREFETCHES SAME FILL-ORIGIN LEVEL: 0 DIFFERENT FILL-ORIGIN LEVEL: 0

PSCL4 TOTAL     ACCESS:     938513  HIT:     937832  MISS:        681  HIT %:    99.9274  MISS %:  0.0725616   MPKI: 0.003405
PSCL4 LOAD TRANSLATION ACCESS:     289889  HIT:     289208  MISS:        681  HIT %:    99.7651  MISS %:   0.234918   MPKI: 0.003405
PSCL4 TRANSLATION FROM L1D PREFETCHER ACCESS:     648624  HIT:     648624  MISS:          0  HIT %:        100  MISS %:          0   MPKI: 0
PSCL4 PREFETCH  REQUESTED:          0  ISSUED:          0  USEFUL:          0  USELESS:          0
PSCL4 USEFUL LOAD PREFETCHES:          0 PREFETCH ISSUED TO LOWER LEVEL:          0  ACCURACY: -nan
PSCL4 TIMELY PREFETCHES:          0 LATE PREFETCHES: 0 DROPPED PREFETCHES: 0
PSCL4 PREFETCHES SAME FILL-ORIGIN LEVEL: 0 DIFFERENT FILL-ORIGIN LEVEL: 0

PSCL3 TOTAL     ACCESS:    1000732  HIT:     998320  MISS:       2412  HIT %:     99.759  MISS %:   0.241024   MPKI: 0.01206
PSCL3 LOAD TRANSLATION ACCESS:     309832  HIT:     307420  MISS:       2412  HIT %:    99.2215  MISS %:   0.778486   MPKI: 0.01206
PSCL3 TRANSLATION FROM L1D PREFETCHER ACCESS:     690900  HIT:     690900  MISS:          0  HIT %:        100  MISS %:          0   MPKI: 0
PSCL3 PREFETCH  REQUESTED:          0  ISSUED:          0  USEFUL:          0  USELESS:          0
PSCL3 USEFUL LOAD PREFETCHES:          0 PREFETCH ISSUED TO LOWER LEVEL:          0  ACCURACY: -nan
PSCL3 TIMELY PREFETCHES:          0 LATE PREFETCHES: 0 DROPPED PREFETCHES: 0
PSCL3 PREFETCHES SAME FILL-ORIGIN LEVEL: 0 DIFFERENT FILL-ORIGIN LEVEL: 0

PSCL2 TOTAL     ACCESS:     581009  HIT:     499844  MISS:      81165  HIT %:    86.0303  MISS %:    13.9697   MPKI: 0.405825
PSCL2 LOAD TRANSLATION ACCESS:     312865  HIT:     231700  MISS:      81165  HIT %:    74.0575  MISS %:    25.9425   MPKI: 0.405825
PSCL2 TRANSLATION FROM L1D PREFETCHER ACCESS:     268144  HIT:     268144  MISS:          0  HIT %:        100  MISS %:          0   MPKI: 0
PSCL2 PREFETCH  REQUESTED:          0  ISSUED:          0  USEFUL:          0  USELESS:          0
PSCL2 USEFUL LOAD PREFETCHES:          0 PREFETCH ISSUED TO LOWER LEVEL:          0  ACCURACY: -nan
PSCL2 TIMELY PREFETCHES:          0 LATE PREFETCHES: 0 DROPPED PREFETCHES: 0
PSCL2 PREFETCHES SAME FILL-ORIGIN LEVEL: 0 DIFFERENT FILL-ORIGIN LEVEL: 0

LLC TOTAL     ACCESS:    3728324  HIT:    3429654  MISS:     298670  HIT %:    91.9892  MISS %:    8.01084   MPKI: 1.49335
LLC LOAD      ACCESS:    2402650  HIT:    2268501  MISS:     134149  HIT %:    94.4166  MISS %:    5.58338   MPKI: 0.670745
LLC RFO       ACCESS:     110661  HIT:      78483  MISS:      32178  HIT %:     70.922  MISS %:     29.078   MPKI: 0.16089
LLC PREFETCH  ACCESS:     684523  HIT:     562838  MISS:     121685  HIT %:    82.2234  MISS %:    17.7766   MPKI: 0.608425
AGUS PREFETCH L1 MISS: 0
LLC WRITEBACK ACCESS:     362322  HIT:     357369  MISS:       4953  HIT %:     98.633  MISS %:    1.36702   MPKI: 0.024765
LLC LOAD TRANSLATION ACCESS:     164125  HIT:     158728  MISS:       5397  HIT %:    96.7117  MISS %:    3.28835   MPKI: 0.026985
LLC TRANSLATION FROM L1D PREFETCHER ACCESS:       4043  HIT:       3735  MISS:        308  HIT %:    92.3819  MISS %:    7.61811   MPKI: 0.00154
LLC PREFETCH  REQUESTED:          0  ISSUED:          0  USEFUL:       6718  USELESS:     115408
LLC USEFUL LOAD PREFETCHES:       6718 PREFETCH ISSUED TO LOWER LEVEL:     121685  ACCURACY: 5.52081
LLC TIMELY PREFETCHES:       6718 LATE PREFETCHES: 0 DROPPED PREFETCHES: 0
LLC PREFETCHES SAME FILL-ORIGIN LEVEL: 0 DIFFERENT FILL-ORIGIN LEVEL: 0
LLC AVERAGE MISS LATENCY: 159.629 cycles
LLC RQ	ACCESS:    2681480	FORWARD:          0	MERGED:          0	TO_CACHE:    2681479
LLC WQ	ACCESS:     362322	FORWARD:          5	MERGED:          0	TO_CACHE:     362322
LLC PQ	ACCESS:     684527	FORWARD:          0	MERGED:          0	TO_CACHE:     684523

LLC Dense regions hint to LLC: 0

RAW hits: 2232275
Loads Generated: 56292824
Loads sent to L1D: 54060543
Stores Generated: 18064423
Stores sent to L1D: 18064452
Major fault: 0 Minor fault: 4241
Allocated PAGES: 4241
ucb ended

DRAM Statistics
 CHANNEL 0
 RQ ROW_BUFFER_HIT:      66520  ROW_BUFFER_MISS:     227195
 DBUS_CONGESTED:        128
 WQ ROW_BUFFER_HIT:      20382  ROW_BUFFER_MISS:     136111  FULL:          0

 AVG_CONGESTED_CYCLE: 4
 All warmup complete: 2
Channel 0 Bank busy for read cycles: 0
Channel 0 Bank busy for write cycles: 0
Channel 0
Rank 0
0banks busy for read cycles: 541142979
0banks busy for write cycles: 84177
1banks busy for read cycles: 21810460
1banks busy for write cycles: 11501755
2banks busy for read cycles: 4472312
2banks busy for write cycles: 2720683
3banks busy for read cycles: 926065
3banks busy for write cycles: 967513
4banks busy for read cycles: 339750
4banks busy for write cycles: 479011
5banks busy for read cycles: 130944
5banks busy for write cycles: 281822
6banks busy for read cycles: 71022
6banks busy for write cycles: 236747
7banks busy for read cycles: 50148
7banks busy for write cycles: 160256
8banks busy for read cycles: 144298
8banks busy for write cycles: 310098

CPU 0 Branch Prediction Accuracy: 99.8224% MPKI: 0.38789 Average ROB Occupancy at Mispredict: 28.5324
Branch types
NOT_BRANCH: 156307769 78.1539%
BRANCH_DIRECT_JUMP: 1685269 0.842634%
BRANCH_INDIRECT: 19828017 9.91401%
BRANCH_CONDITIONAL: 14737479 7.36874%
BRANCH_DIRECT_CALL: 2993939 1.49697%
BRANCH_INDIRECT_CALL: 724221 0.362111%
BRANCH_RETURN: 3723029 1.86151%
BRANCH_OTHER: 0 0%

DRAM PAGES: 1048576
Allocated PAGES: 4241
