
*** ChampSim Multicore Out-of-Order Simulator ***

Warmup Instructions: 50000000
Simulation Instructions: 200000000
Number of CPUs: 1
LLC sets: 2048
LLC ways: 16
Off-chip DRAM Size: 4096 MB Channels: 1 Width: 64-bit Data Rate: 6400 MT/s
CPU 0 runs traces/spec2k17/srv_36.champsimtrace.xz
.xz
BTB has LRU replacement policy
ITLB has LRU replacement policy
DTLB has LRU replacement policy
STLB has LRU replacement policy
L1I has LRU replacement policy
L1D has LRU replacement policy
Initialize SRRIP state for L2C
Initialize DRRIP state for LLC
Offset table: -6 -5 -4 -3 -2 -1 1 2 3 4 5 6 
Offset table size: 12

Printing Sanity: 1

Round Robin Complete

Offset reward: 330 389 434 426 451 872 992 455 403 443 393 203 
Offset reward size: 12

Offset count: 1 1 1 1 1 1 1 1 1 1 1 1 
Offset count size: 12

Printing Sanity: 2
n total: 12
Writing in data1.txt 

Writing done! 

Heartbeat CPU 0 instructions: 10000001 cycles: 2979611 heartbeat IPC: 3.35614 cumulative IPC: 3.35614 (Simulation time: 0 hr 0 min 24 sec) 
Heartbeat CPU 0 instructions: 20000002 cycles: 5952272 heartbeat IPC: 3.36399 cumulative IPC: 3.36006 (Simulation time: 0 hr 0 min 48 sec) 
Heartbeat CPU 0 instructions: 30000000 cycles: 8923545 heartbeat IPC: 3.36556 cumulative IPC: 3.36189 (Simulation time: 0 hr 1 min 11 sec) 
*** Reached end of trace for Core: 0 Repeating trace: traces/spec2k17/srv_36.champsimtrace.xz
Heartbeat CPU 0 instructions: 40000001 cycles: 11898728 heartbeat IPC: 3.36114 cumulative IPC: 3.3617 (Simulation time: 0 hr 1 min 35 sec) 
Heartbeat CPU 0 instructions: 50000002 cycles: 14875082 heartbeat IPC: 3.35982 cumulative IPC: 3.36133 (Simulation time: 0 hr 1 min 59 sec) 

Warmup complete CPU 0 instructions: 50000002 cycles: 14875082 (Simulation time: 0 hr 1 min 59 sec) 

Heartbeat CPU 0 instructions: 60000003 cycles: 34766991 heartbeat IPC: 0.502717 cumulative IPC: 0.502717 (Simulation time: 0 hr 2 min 41 sec) 
*** Reached end of trace for Core: 0 Repeating trace: traces/spec2k17/srv_36.champsimtrace.xz
Heartbeat CPU 0 instructions: 70000001 cycles: 54511813 heartbeat IPC: 0.506462 cumulative IPC: 0.504582 (Simulation time: 0 hr 3 min 23 sec) 
Heartbeat CPU 0 instructions: 80000002 cycles: 74089861 heartbeat IPC: 0.510776 cumulative IPC: 0.50663 (Simulation time: 0 hr 4 min 5 sec) 
Heartbeat CPU 0 instructions: 90000000 cycles: 93807643 heartbeat IPC: 0.507156 cumulative IPC: 0.506762 (Simulation time: 0 hr 4 min 47 sec) 
*** Reached end of trace for Core: 0 Repeating trace: traces/spec2k17/srv_36.champsimtrace.xz
Heartbeat CPU 0 instructions: 100000000 cycles: 113477233 heartbeat IPC: 0.508399 cumulative IPC: 0.507088 (Simulation time: 0 hr 5 min 29 sec) 
Heartbeat CPU 0 instructions: 110000000 cycles: 133034201 heartbeat IPC: 0.511327 cumulative IPC: 0.50779 (Simulation time: 0 hr 6 min 11 sec) 
Heartbeat CPU 0 instructions: 120000000 cycles: 152653019 heartbeat IPC: 0.509715 cumulative IPC: 0.508064 (Simulation time: 0 hr 6 min 53 sec) 
*** Reached end of trace for Core: 0 Repeating trace: traces/spec2k17/srv_36.champsimtrace.xz
Heartbeat CPU 0 instructions: 130000000 cycles: 172325023 heartbeat IPC: 0.508337 cumulative IPC: 0.508098 (Simulation time: 0 hr 7 min 34 sec) 
Heartbeat CPU 0 instructions: 140000000 cycles: 191839504 heartbeat IPC: 0.51244 cumulative IPC: 0.508577 (Simulation time: 0 hr 8 min 16 sec) 
Heartbeat CPU 0 instructions: 150000003 cycles: 211425833 heartbeat IPC: 0.51056 cumulative IPC: 0.508774 (Simulation time: 0 hr 8 min 57 sec) 
Heartbeat CPU 0 instructions: 160000001 cycles: 231032814 heartbeat IPC: 0.510022 cumulative IPC: 0.508888 (Simulation time: 0 hr 9 min 39 sec) 
*** Reached end of trace for Core: 0 Repeating trace: traces/spec2k17/srv_36.champsimtrace.xz
Heartbeat CPU 0 instructions: 170000001 cycles: 250783610 heartbeat IPC: 0.506309 cumulative IPC: 0.508672 (Simulation time: 0 hr 10 min 22 sec) 
Heartbeat CPU 0 instructions: 180000000 cycles: 270541080 heartbeat IPC: 0.506138 cumulative IPC: 0.508476 (Simulation time: 0 hr 11 min 4 sec) 
Heartbeat CPU 0 instructions: 190000000 cycles: 290297330 heartbeat IPC: 0.506169 cumulative IPC: 0.50831 (Simulation time: 0 hr 11 min 46 sec) 
*** Reached end of trace for Core: 0 Repeating trace: traces/spec2k17/srv_36.champsimtrace.xz
Heartbeat CPU 0 instructions: 200000002 cycles: 309932713 heartbeat IPC: 0.509285 cumulative IPC: 0.508375 (Simulation time: 0 hr 12 min 28 sec) 
Heartbeat CPU 0 instructions: 210000001 cycles: 329625311 heartbeat IPC: 0.507805 cumulative IPC: 0.50834 (Simulation time: 0 hr 13 min 10 sec) 
Heartbeat CPU 0 instructions: 220000000 cycles: 349273504 heartbeat IPC: 0.508953 cumulative IPC: 0.508376 (Simulation time: 0 hr 13 min 52 sec) 
*** Reached end of trace for Core: 0 Repeating trace: traces/spec2k17/srv_36.champsimtrace.xz
Heartbeat CPU 0 instructions: 230000001 cycles: 368842624 heartbeat IPC: 0.511009 cumulative IPC: 0.508521 (Simulation time: 0 hr 14 min 33 sec) 
Heartbeat CPU 0 instructions: 240000002 cycles: 387943696 heartbeat IPC: 0.523531 cumulative IPC: 0.50929 (Simulation time: 0 hr 15 min 15 sec) 
Heartbeat CPU 0 instructions: 250000002 cycles: 407021266 heartbeat IPC: 0.524176 cumulative IPC: 0.510014 (Simulation time: 0 hr 15 min 57 sec) 
Finished CPU 0 instructions: 200000000 cycles: 392146184 cumulative IPC: 0.510014 (Simulation time: 0 hr 15 min 57 sec) 

ChampSim completed all CPUs

Region of Interest Statistics

CPU 0 cumulative IPC: 0.510014 instructions: 200000000 cycles: 392146184
ITLB TOTAL     ACCESS:   33785385  HIT:   32250382  MISS:    1535003  HIT %:    95.4566  MISS %:    4.54339   MPKI: 7.67502
ITLB LOAD TRANSLATION ACCESS:   33785385  HIT:   32250382  MISS:    1535003  HIT %:    95.4566  MISS %:    4.54339   MPKI: 7.67502
ITLB PREFETCH  REQUESTED:          0  ISSUED:          0  USEFUL:          0  USELESS:          0
ITLB USEFUL LOAD PREFETCHES:          0 PREFETCH ISSUED TO LOWER LEVEL:          0  ACCURACY: -nan
ITLB TIMELY PREFETCHES:          0 LATE PREFETCHES: 0 DROPPED PREFETCHES: 0
ITLB PREFETCHES SAME FILL-ORIGIN LEVEL: 0 DIFFERENT FILL-ORIGIN LEVEL: 0
ITLB AVERAGE MISS LATENCY: 9.24184 cycles
ITLB RQ	ACCESS:   40661170	FORWARD:          0	MERGED:    6381598	TO_CACHE:   34279572

DTLB TOTAL     ACCESS:   40052762  HIT:   38539413  MISS:    1513349  HIT %:    96.2216  MISS %:    3.77839   MPKI: 7.56675
DTLB LOAD TRANSLATION ACCESS:   40052762  HIT:   38539413  MISS:    1513349  HIT %:    96.2216  MISS %:    3.77839   MPKI: 7.56675
DTLB PREFETCH  REQUESTED:          0  ISSUED:          0  USEFUL:          0  USELESS:          0
DTLB USEFUL LOAD PREFETCHES:          0 PREFETCH ISSUED TO LOWER LEVEL:          0  ACCURACY: -nan
DTLB TIMELY PREFETCHES:          0 LATE PREFETCHES: 0 DROPPED PREFETCHES: 0
DTLB PREFETCHES SAME FILL-ORIGIN LEVEL: 0 DIFFERENT FILL-ORIGIN LEVEL: 0
DTLB AVERAGE MISS LATENCY: 15.1803 cycles
DTLB RQ	ACCESS:   61122886	FORWARD:          0	MERGED:   20672012	TO_CACHE:   40450874

STLB TOTAL     ACCESS:   22927763  HIT:   22847649  MISS:      80114  HIT %:    99.6506  MISS %:   0.349419   MPKI: 0.40057
STLB LOAD TRANSLATION ACCESS:    3048352  HIT:    2970057  MISS:      78295  HIT %:    97.4316  MISS %:    2.56844   MPKI: 0.391475
STLB TRANSLATION FROM L1D PREFETCHER ACCESS:   19879411  HIT:   19877592  MISS:       1819  HIT %:    99.9908  MISS %: 0.00915017   MPKI: 0.009095
STLB PREFETCH  REQUESTED:          0  ISSUED:          0  USEFUL:       1752  USELESS:         68
STLB USEFUL LOAD PREFETCHES:       1752 PREFETCH ISSUED TO LOWER LEVEL:          0  ACCURACY: inf
STLB TIMELY PREFETCHES:       1752 LATE PREFETCHES: 540 DROPPED PREFETCHES: 321117
STLB PREFETCHES SAME FILL-ORIGIN LEVEL: 0 DIFFERENT FILL-ORIGIN LEVEL: 0
STLB AVERAGE MISS LATENCY: 521231 cycles
STLB RQ	ACCESS:   28957713	FORWARD:          0	MERGED:    5708098	TO_CACHE:   23249615

STLB Hit, L1D data hit: 0
STLB Hit, L2C data hit: 0
STLB Hit, LLC data hit: 0
STLB Hit, LLC data miss: 0
STLB STLB hints to L2: 0
L1D TOTAL     ACCESS:   73321708  HIT:   64925223  MISS:    8396485  HIT %:    88.5484  MISS %:    11.4516   MPKI: 41.9824
L1D LOAD      ACCESS:   26716958  HIT:   23734519  MISS:    2982439  HIT %:    88.8369  MISS %:    11.1631   MPKI: 14.9122
L1D RFO       ACCESS:   22576100  HIT:   18908442  MISS:    3667658  HIT %:    83.7542  MISS %:    16.2458   MPKI: 18.3383
L1D PREFETCH  ACCESS:   24028650  HIT:   22282262  MISS:    1746388  HIT %:    92.7321  MISS %:    7.26794   MPKI: 8.73194
AGUS PREFETCH L1 MISS: 0
L1D PREFETCH  REQUESTED:   53035347  ISSUED:   53027572  USEFUL:     428295  USELESS:    1318201
L1D USEFUL LOAD PREFETCHES:     428295 PREFETCH ISSUED TO LOWER LEVEL:    2046621  ACCURACY: 20.9269
L1D TIMELY PREFETCHES:     428295 LATE PREFETCHES: 288381 DROPPED PREFETCHES: 323169
L1D PREFETCHES SAME FILL-ORIGIN LEVEL: 2046621 DIFFERENT FILL-ORIGIN LEVEL: 0
L1D AVERAGE MISS LATENCY: 7.91648e+06 cycles
L1D RQ	ACCESS:   45207959	FORWARD:          0	MERGED:   17832890	TO_CACHE:   27125986
L1D WQ	ACCESS:   34191048	FORWARD:     277431	MERGED:     194148	TO_CACHE:   33996900
L1D PQ	ACCESS:   27118211	FORWARD:          0	MERGED:    1180502	TO_CACHE:   25909361

L1D UNIQUE REGIONS ACCESSED: 0
L1D REGIONS CONFLICTS: 0
L1D Cross Page Prefetch Requests: 830506
L1D Same Page Prefetch Requests: 32614320
L1D ROI Sum of L1D PQ occupancy: 361096437
L1D PREFETCHES PUSHED FROM L2C: 0
L1I TOTAL     ACCESS:   38019545  HIT:   28960550  MISS:    9058995  HIT %:    76.1728  MISS %:    23.8272   MPKI: 45.295
L1I LOAD      ACCESS:   38019545  HIT:   28960550  MISS:    9058995  HIT %:    76.1728  MISS %:    23.8272   MPKI: 45.295
L1I PREFETCH  REQUESTED:          0  ISSUED:          0  USEFUL:          0  USELESS:          0
L1I USEFUL LOAD PREFETCHES:          0 PREFETCH ISSUED TO LOWER LEVEL:          0  ACCURACY: -nan
L1I TIMELY PREFETCHES:          0 LATE PREFETCHES: 0 DROPPED PREFETCHES: 0
L1I PREFETCHES SAME FILL-ORIGIN LEVEL: 0 DIFFERENT FILL-ORIGIN LEVEL: 0
L1I AVERAGE MISS LATENCY: 16.7478 cycles
L1I RQ	ACCESS:   59010784	FORWARD:          0	MERGED:   18349614	TO_CACHE:   40661170

BTB TOTAL     ACCESS:   25729050  HIT:   24193614  MISS:    1535436  HIT %:    94.0323  MISS %:    5.96771   MPKI: 7.67718
BTB BRANCH_DIRECT_JUMP	ACCESS:    1654273  HIT:    1644479  MISS:       9794
BTB BRANCH_INDIRECT	ACCESS:    9941101  HIT:    9432728  MISS:     508373
BTB BRANCH_CONDITIONAL	ACCESS:    7321751  HIT:    7308109  MISS:      13642
BTB BRANCH_DIRECT_CALL	ACCESS:    2814711  HIT:    2781382  MISS:      33329
BTB BRANCH_INDIRECT_CALL	ACCESS:     591266  HIT:     480297  MISS:     110969
BTB BRANCH_RETURN	ACCESS:    3405948  HIT:    2546619  MISS:     859329
BTB BRANCH_OTHER ACCESS:          0  HIT:          0  MISS:          0

L2C TOTAL     ACCESS:   22436248  HIT:   15167858  MISS:    7268390  HIT %:    67.6043  MISS %:    32.3957   MPKI: 36.3419
L2C LOAD      ACCESS:   11752566  HIT:    9377729  MISS:    2374837  HIT %:     79.793  MISS %:     20.207   MPKI: 11.8742
L2C DATA LOAD MPKI: 8.85753
L2C INSTRUCTION LOAD MPKI: 3.01666
L2C RFO       ACCESS:    3655796  HIT:     135155  MISS:    3520641  HIT %:    3.69701  MISS %:     96.303   MPKI: 17.6032
L2C PREFETCH  ACCESS:    2046602  HIT:     831318  MISS:    1215284  HIT %:    40.6194  MISS %:    59.3806   MPKI: 6.07642
AGUS PREFETCH L1 MISS: 0
L2C DATA PREFETCH MPKI: 6.07642
L2C INSTRUCTION PREFETCH MPKI: 0
L2C WRITEBACK ACCESS:    4426702  HIT:    4321463  MISS:     105239  HIT %:    97.6226  MISS %:    2.37737   MPKI: 0.526195
L2C LOAD TRANSLATION ACCESS:      89228  HIT:      48629  MISS:      40599  HIT %:    54.4997  MISS %:    45.5003   MPKI: 0.202995
L2C TRANSLATION FROM L1D PREFETCHER ACCESS:     465354  HIT:     453564  MISS:      11790  HIT %:    97.4664  MISS %:    2.53356   MPKI: 0.05895
L2C PREFETCH  REQUESTED:          0  ISSUED:          0  USEFUL:      69206  USELESS:    1158060
L2C USEFUL LOAD PREFETCHES:      69206 PREFETCH ISSUED TO LOWER LEVEL:    1215284  ACCURACY: 5.69464
L2C TIMELY PREFETCHES:      69206 LATE PREFETCHES: 0 DROPPED PREFETCHES: 0
L2C PREFETCHES SAME FILL-ORIGIN LEVEL: 0 DIFFERENT FILL-ORIGIN LEVEL: 0
L2C AVERAGE MISS LATENCY: 148.258 cycles
L2C RQ	ACCESS:   15963441	FORWARD:          0	MERGED:          0	TO_CACHE:   15962944
L2C WQ	ACCESS:    4426702	FORWARD:        516	MERGED:          0	TO_CACHE:    4426702
L2C PQ	ACCESS:    2046621	FORWARD:          0	MERGED:          0	TO_CACHE:    2046602

L2C Instructions Evicting Data 547374
L2C Translations Evicting Data 48176
L2C Data Evicting Data 5921140
L2C Instructions Evicting Instructions 52281
L2C Translations Evicting Instructions 3885
L2C Data Evicting Instructions 538727
L2C Instructions Evicting Translations 3677
L2C Translations Evicting Translations 328
L2C Data Evicting Translations 47563
L2C Dense regions hint from L2: 0
PSCL5 TOTAL     ACCESS:     401231  HIT:     401231  MISS:          0  HIT %:        100  MISS %:          0   MPKI: 0
PSCL5 LOAD TRANSLATION ACCESS:      77755  HIT:      77755  MISS:          0  HIT %:        100  MISS %:          0   MPKI: 0
PSCL5 TRANSLATION FROM L1D PREFETCHER ACCESS:     323476  HIT:     323476  MISS:          0  HIT %:        100  MISS %:          0   MPKI: 0
PSCL5 PREFETCH  REQUESTED:          0  ISSUED:          0  USEFUL:          0  USELESS:          0
PSCL5 USEFUL LOAD PREFETCHES:          0 PREFETCH ISSUED TO LOWER LEVEL:          0  ACCURACY: -nan
PSCL5 TIMELY PREFETCHES:          0 LATE PREFETCHES: 0 DROPPED PREFETCHES: 0
PSCL5 PREFETCHES SAME FILL-ORIGIN LEVEL: 0 DIFFERENT FILL-ORIGIN LEVEL: 0

PSCL4 TOTAL     ACCESS:     359584  HIT:     359336  MISS:        248  HIT %:     99.931  MISS %:  0.0689686   MPKI: 0.00124
PSCL4 LOAD TRANSLATION ACCESS:      70195  HIT:      69947  MISS:        248  HIT %:    99.6467  MISS %:   0.353302   MPKI: 0.00124
PSCL4 TRANSLATION FROM L1D PREFETCHER ACCESS:     289389  HIT:     289389  MISS:          0  HIT %:        100  MISS %:          0   MPKI: 0
PSCL4 PREFETCH  REQUESTED:          0  ISSUED:          0  USEFUL:          0  USELESS:          0
PSCL4 USEFUL LOAD PREFETCHES:          0 PREFETCH ISSUED TO LOWER LEVEL:          0  ACCURACY: -nan
PSCL4 TIMELY PREFETCHES:          0 LATE PREFETCHES: 0 DROPPED PREFETCHES: 0
PSCL4 PREFETCHES SAME FILL-ORIGIN LEVEL: 0 DIFFERENT FILL-ORIGIN LEVEL: 0

PSCL3 TOTAL     ACCESS:     383144  HIT:     382075  MISS:       1069  HIT %:     99.721  MISS %:   0.279007   MPKI: 0.005345
PSCL3 LOAD TRANSLATION ACCESS:      72893  HIT:      71824  MISS:       1069  HIT %:    98.5335  MISS %:    1.46653   MPKI: 0.005345
PSCL3 TRANSLATION FROM L1D PREFETCHER ACCESS:     310251  HIT:     310251  MISS:          0  HIT %:        100  MISS %:          0   MPKI: 0
PSCL3 PREFETCH  REQUESTED:          0  ISSUED:          0  USEFUL:          0  USELESS:          0
PSCL3 USEFUL LOAD PREFETCHES:          0 PREFETCH ISSUED TO LOWER LEVEL:          0  ACCURACY: -nan
PSCL3 TIMELY PREFETCHES:          0 LATE PREFETCHES: 0 DROPPED PREFETCHES: 0
PSCL3 PREFETCHES SAME FILL-ORIGIN LEVEL: 0 DIFFERENT FILL-ORIGIN LEVEL: 0

PSCL2 TOTAL     ACCESS:     266657  HIT:     256327  MISS:      10330  HIT %:    96.1261  MISS %:    3.87389   MPKI: 0.05165
PSCL2 LOAD TRANSLATION ACCESS:      77920  HIT:      67590  MISS:      10330  HIT %:    86.7428  MISS %:    13.2572   MPKI: 0.05165
PSCL2 TRANSLATION FROM L1D PREFETCHER ACCESS:     188737  HIT:     188737  MISS:          0  HIT %:        100  MISS %:          0   MPKI: 0
PSCL2 PREFETCH  REQUESTED:          0  ISSUED:          0  USEFUL:          0  USELESS:          0
PSCL2 USEFUL LOAD PREFETCHES:          0 PREFETCH ISSUED TO LOWER LEVEL:          0  ACCURACY: -nan
PSCL2 TIMELY PREFETCHES:          0 LATE PREFETCHES: 0 DROPPED PREFETCHES: 0
PSCL2 PREFETCHES SAME FILL-ORIGIN LEVEL: 0 DIFFERENT FILL-ORIGIN LEVEL: 0

LLC TOTAL     ACCESS:   11247242  HIT:    4660907  MISS:    6586335  HIT %:    41.4404  MISS %:    58.5596   MPKI: 32.9317
LLC LOAD      ACCESS:    2374834  HIT:    1408356  MISS:     966478  HIT %:    59.3033  MISS %:    40.6967   MPKI: 4.83239
LLC RFO       ACCESS:    3520624  HIT:     963078  MISS:    2557546  HIT %:    27.3553  MISS %:    72.6447   MPKI: 12.7877
LLC PREFETCH  ACCESS:    1215283  HIT:     702930  MISS:     512353  HIT %:    57.8408  MISS %:    42.1592   MPKI: 2.56176
AGUS PREFETCH L1 MISS: 0
LLC WRITEBACK ACCESS:    4084112  HIT:    1572000  MISS:    2512112  HIT %:    38.4906  MISS %:    61.5094   MPKI: 12.5606
LLC LOAD TRANSLATION ACCESS:      40599  HIT:       9209  MISS:      31390  HIT %:    22.6828  MISS %:    77.3172   MPKI: 0.15695
LLC TRANSLATION FROM L1D PREFETCHER ACCESS:      11790  HIT:       5334  MISS:       6456  HIT %:    45.2417  MISS %:    54.7583   MPKI: 0.03228
LLC PREFETCH  REQUESTED:          0  ISSUED:          0  USEFUL:       2086  USELESS:     517299
LLC USEFUL LOAD PREFETCHES:       2086 PREFETCH ISSUED TO LOWER LEVEL:     512353  ACCURACY: 0.407141
LLC TIMELY PREFETCHES:       2086 LATE PREFETCHES: 0 DROPPED PREFETCHES: 0
LLC PREFETCHES SAME FILL-ORIGIN LEVEL: 0 DIFFERENT FILL-ORIGIN LEVEL: 0
LLC AVERAGE MISS LATENCY: 130.982 cycles
LLC RQ	ACCESS:    5947867	FORWARD:          0	MERGED:          0	TO_CACHE:    5947847
LLC WQ	ACCESS:    4084112	FORWARD:         21	MERGED:          0	TO_CACHE:    4084112
LLC PQ	ACCESS:    1215284	FORWARD:          0	MERGED:          0	TO_CACHE:    1215283

LLC Dense regions hint to LLC: 0

RAW hits: 2410237
Loads Generated: 47618198
Loads sent to L1D: 45207959
Stores Generated: 34191046
Stores sent to L1D: 34191048
Major fault: 0 Minor fault: 9094
Allocated PAGES: 9094
ucb ended

DRAM Statistics
 CHANNEL 0
 RQ ROW_BUFFER_HIT:    1891569  ROW_BUFFER_MISS:    2182265
 DBUS_CONGESTED:       2464
 WQ ROW_BUFFER_HIT:     563345  ROW_BUFFER_MISS:    2091274  FULL:      39861

 AVG_CONGESTED_CYCLE: 3
 All warmup complete: 2
Channel 0 Bank busy for read cycles: 0
Channel 0 Bank busy for write cycles: 0
Channel 0
Rank 0
0banks busy for read cycles: 155839953
0banks busy for write cycles: 243404
1banks busy for read cycles: 43351568
1banks busy for write cycles: 31395989
2banks busy for read cycles: 19528810
2banks busy for write cycles: 15696855
3banks busy for read cycles: 17812565
3banks busy for write cycles: 8428733
4banks busy for read cycles: 7620834
4banks busy for write cycles: 5375062
5banks busy for read cycles: 5786352
5banks busy for write cycles: 4188673
6banks busy for read cycles: 8312825
6banks busy for write cycles: 3965469
7banks busy for read cycles: 8342154
7banks busy for write cycles: 6331384
8banks busy for read cycles: 15588655
8banks busy for write cycles: 34336900

CPU 0 Branch Prediction Accuracy: 99.9484% MPKI: 0.07887 Average ROB Occupancy at Mispredict: 121.263
Branch types
NOT_BRANCH: 169412829 84.7064%
BRANCH_DIRECT_JUMP: 1654273 0.827137%
BRANCH_INDIRECT: 9941101 4.97055%
BRANCH_CONDITIONAL: 12179886 6.08994%
BRANCH_DIRECT_CALL: 2814711 1.40736%
BRANCH_INDIRECT_CALL: 591266 0.295633%
BRANCH_RETURN: 3405948 1.70297%
BRANCH_OTHER: 0 0%

DRAM PAGES: 1048576
Allocated PAGES: 9094
