
*** ChampSim Multicore Out-of-Order Simulator ***

Warmup Instructions: 50000000
Simulation Instructions: 200000000
Number of CPUs: 1
LLC sets: 2048
LLC ways: 16
Off-chip DRAM Size: 4096 MB Channels: 1 Width: 64-bit Data Rate: 6400 MT/s
CPU 0 runs traces/spec2k17/srv_24.champsimtrace.xz
.xz
BTB has LRU replacement policy
ITLB has LRU replacement policy
DTLB has LRU replacement policy
STLB has LRU replacement policy
L1I has LRU replacement policy
L1D has LRU replacement policy
Initialize SRRIP state for L2C
Initialize DRRIP state for LLC
Offset table: -6 -5 -4 -3 -2 -1 1 2 3 4 5 6 
Offset table size: 12

Printing Sanity: 1

Round Robin Complete

Offset reward: 148 521 418 1970 1925 1349 1140 2416 3220 501 617 610 
Offset reward size: 12

Offset count: 1 1 1 1 1 1 1 1 1 1 1 1 
Offset count size: 12

Printing Sanity: 2
n total: 12
Writing in data1.txt 

Writing done! 

Heartbeat CPU 0 instructions: 10000000 cycles: 2901410 heartbeat IPC: 3.4466 cumulative IPC: 3.4466 (Simulation time: 0 hr 0 min 20 sec) 
Heartbeat CPU 0 instructions: 20000000 cycles: 5799706 heartbeat IPC: 3.4503 cumulative IPC: 3.44845 (Simulation time: 0 hr 0 min 40 sec) 
Heartbeat CPU 0 instructions: 30000001 cycles: 8699351 heartbeat IPC: 3.4487 cumulative IPC: 3.44853 (Simulation time: 0 hr 1 min 0 sec) 
*** Reached end of trace for Core: 0 Repeating trace: traces/spec2k17/srv_24.champsimtrace.xz
Heartbeat CPU 0 instructions: 40000002 cycles: 11598121 heartbeat IPC: 3.44974 cumulative IPC: 3.44883 (Simulation time: 0 hr 1 min 20 sec) 
Heartbeat CPU 0 instructions: 50000002 cycles: 14495568 heartbeat IPC: 3.45131 cumulative IPC: 3.44933 (Simulation time: 0 hr 1 min 40 sec) 

Warmup complete CPU 0 instructions: 50000002 cycles: 14495568 (Simulation time: 0 hr 1 min 40 sec) 

Heartbeat CPU 0 instructions: 60000000 cycles: 48165837 heartbeat IPC: 0.296998 cumulative IPC: 0.296998 (Simulation time: 0 hr 2 min 16 sec) 
*** Reached end of trace for Core: 0 Repeating trace: traces/spec2k17/srv_24.champsimtrace.xz
Heartbeat CPU 0 instructions: 70000000 cycles: 81781964 heartbeat IPC: 0.297476 cumulative IPC: 0.297237 (Simulation time: 0 hr 2 min 53 sec) 
Heartbeat CPU 0 instructions: 80000002 cycles: 115347063 heartbeat IPC: 0.297929 cumulative IPC: 0.297467 (Simulation time: 0 hr 3 min 30 sec) 
Heartbeat CPU 0 instructions: 90000000 cycles: 148941111 heartbeat IPC: 0.297672 cumulative IPC: 0.297518 (Simulation time: 0 hr 4 min 7 sec) 
*** Reached end of trace for Core: 0 Repeating trace: traces/spec2k17/srv_24.champsimtrace.xz
Heartbeat CPU 0 instructions: 100000001 cycles: 182545482 heartbeat IPC: 0.29758 cumulative IPC: 0.297531 (Simulation time: 0 hr 4 min 43 sec) 
Heartbeat CPU 0 instructions: 110000000 cycles: 216098104 heartbeat IPC: 0.298039 cumulative IPC: 0.297615 (Simulation time: 0 hr 5 min 20 sec) 
Heartbeat CPU 0 instructions: 120000001 cycles: 249673084 heartbeat IPC: 0.297841 cumulative IPC: 0.297648 (Simulation time: 0 hr 5 min 56 sec) 
*** Reached end of trace for Core: 0 Repeating trace: traces/spec2k17/srv_24.champsimtrace.xz
Heartbeat CPU 0 instructions: 130000003 cycles: 283262033 heartbeat IPC: 0.297717 cumulative IPC: 0.297656 (Simulation time: 0 hr 6 min 33 sec) 
Heartbeat CPU 0 instructions: 140000003 cycles: 316809143 heartbeat IPC: 0.298088 cumulative IPC: 0.297704 (Simulation time: 0 hr 7 min 9 sec) 
Heartbeat CPU 0 instructions: 150000003 cycles: 350378264 heartbeat IPC: 0.297893 cumulative IPC: 0.297723 (Simulation time: 0 hr 7 min 46 sec) 
*** Reached end of trace for Core: 0 Repeating trace: traces/spec2k17/srv_24.champsimtrace.xz
Heartbeat CPU 0 instructions: 160000003 cycles: 383937472 heartbeat IPC: 0.297981 cumulative IPC: 0.297746 (Simulation time: 0 hr 8 min 22 sec) 
Heartbeat CPU 0 instructions: 170000000 cycles: 417466900 heartbeat IPC: 0.298245 cumulative IPC: 0.297788 (Simulation time: 0 hr 8 min 58 sec) 
Heartbeat CPU 0 instructions: 180000001 cycles: 450992909 heartbeat IPC: 0.298276 cumulative IPC: 0.297825 (Simulation time: 0 hr 9 min 35 sec) 
*** Reached end of trace for Core: 0 Repeating trace: traces/spec2k17/srv_24.champsimtrace.xz
Heartbeat CPU 0 instructions: 190000002 cycles: 484535492 heartbeat IPC: 0.298129 cumulative IPC: 0.297847 (Simulation time: 0 hr 10 min 11 sec) 
Heartbeat CPU 0 instructions: 200000001 cycles: 518087715 heartbeat IPC: 0.298043 cumulative IPC: 0.29786 (Simulation time: 0 hr 10 min 47 sec) 
Heartbeat CPU 0 instructions: 210000001 cycles: 551612458 heartbeat IPC: 0.298287 cumulative IPC: 0.297887 (Simulation time: 0 hr 11 min 24 sec) 
*** Reached end of trace for Core: 0 Repeating trace: traces/spec2k17/srv_24.champsimtrace.xz
Heartbeat CPU 0 instructions: 220000000 cycles: 585149347 heartbeat IPC: 0.298179 cumulative IPC: 0.297904 (Simulation time: 0 hr 12 min 0 sec) 
Heartbeat CPU 0 instructions: 230000001 cycles: 618700945 heartbeat IPC: 0.298048 cumulative IPC: 0.297912 (Simulation time: 0 hr 12 min 37 sec) 
Heartbeat CPU 0 instructions: 240000003 cycles: 652228811 heartbeat IPC: 0.298259 cumulative IPC: 0.29793 (Simulation time: 0 hr 13 min 13 sec) 
Heartbeat CPU 0 instructions: 250000000 cycles: 685765920 heartbeat IPC: 0.298177 cumulative IPC: 0.297943 (Simulation time: 0 hr 13 min 50 sec) 
Finished CPU 0 instructions: 200000000 cycles: 671270353 cumulative IPC: 0.297943 (Simulation time: 0 hr 13 min 50 sec) 

ChampSim completed all CPUs

Region of Interest Statistics

CPU 0 cumulative IPC: 0.297943 instructions: 200000000 cycles: 671270353
ITLB TOTAL     ACCESS:   35362644  HIT:   32931870  MISS:    2430774  HIT %:    93.1262  MISS %:    6.87385   MPKI: 12.1539
ITLB LOAD TRANSLATION ACCESS:   35362644  HIT:   32931870  MISS:    2430774  HIT %:    93.1262  MISS %:    6.87385   MPKI: 12.1539
ITLB PREFETCH  REQUESTED:          0  ISSUED:          0  USEFUL:          0  USELESS:          0
ITLB USEFUL LOAD PREFETCHES:          0 PREFETCH ISSUED TO LOWER LEVEL:          0  ACCURACY: -nan
ITLB TIMELY PREFETCHES:          0 LATE PREFETCHES: 0 DROPPED PREFETCHES: 0
ITLB PREFETCHES SAME FILL-ORIGIN LEVEL: 0 DIFFERENT FILL-ORIGIN LEVEL: 0
ITLB AVERAGE MISS LATENCY: 9.00614 cycles
ITLB RQ	ACCESS:   41935184	FORWARD:          0	MERGED:    6007316	TO_CACHE:   35927868

DTLB TOTAL     ACCESS:   47419652  HIT:   45429087  MISS:    1990565  HIT %:    95.8022  MISS %:    4.19776   MPKI: 9.95283
DTLB LOAD TRANSLATION ACCESS:   47419652  HIT:   45429087  MISS:    1990565  HIT %:    95.8022  MISS %:    4.19776   MPKI: 9.95283
DTLB PREFETCH  REQUESTED:          0  ISSUED:          0  USEFUL:          0  USELESS:          0
DTLB USEFUL LOAD PREFETCHES:          0 PREFETCH ISSUED TO LOWER LEVEL:          0  ACCURACY: -nan
DTLB TIMELY PREFETCHES:          0 LATE PREFETCHES: 0 DROPPED PREFETCHES: 0
DTLB PREFETCHES SAME FILL-ORIGIN LEVEL: 0 DIFFERENT FILL-ORIGIN LEVEL: 0
DTLB AVERAGE MISS LATENCY: 9.03438 cycles
DTLB RQ	ACCESS:   62659407	FORWARD:          0	MERGED:   15188392	TO_CACHE:   47471015

STLB TOTAL     ACCESS:   33843205  HIT:   33842000  MISS:       1205  HIT %:    99.9964  MISS %: 0.00356054   MPKI: 0.006025
STLB LOAD TRANSLATION ACCESS:    4421338  HIT:    4420140  MISS:       1198  HIT %:    99.9729  MISS %:  0.0270959   MPKI: 0.00599
STLB TRANSLATION FROM L1D PREFETCHER ACCESS:   29421867  HIT:   29421860  MISS:          7  HIT %:        100  MISS %: 2.37918e-05   MPKI: 3.5e-05
STLB PREFETCH  REQUESTED:          0  ISSUED:          0  USEFUL:          7  USELESS:          0
STLB USEFUL LOAD PREFETCHES:          7 PREFETCH ISSUED TO LOWER LEVEL:          0  ACCURACY: inf
STLB TIMELY PREFETCHES:          7 LATE PREFETCHES: 0 DROPPED PREFETCHES: 92548
STLB PREFETCHES SAME FILL-ORIGIN LEVEL: 0 DIFFERENT FILL-ORIGIN LEVEL: 0
STLB AVERAGE MISS LATENCY: 34.0639 cycles
STLB RQ	ACCESS:   38210159	FORWARD:          0	MERGED:    4274405	TO_CACHE:   33935754

STLB Hit, L1D data hit: 0
STLB Hit, L2C data hit: 0
STLB Hit, LLC data hit: 0
STLB Hit, LLC data miss: 0
STLB STLB hints to L2: 0
L1D TOTAL     ACCESS:   94263038  HIT:   87132811  MISS:    7130227  HIT %:    92.4358  MISS %:    7.56418   MPKI: 35.6511
L1D LOAD      ACCESS:   34682907  HIT:   31708433  MISS:    2974474  HIT %:    91.4238  MISS %:     8.5762   MPKI: 14.8724
L1D RFO       ACCESS:   26234879  HIT:   25098940  MISS:    1135939  HIT %:    95.6701  MISS %:    4.32988   MPKI: 5.67969
L1D PREFETCH  ACCESS:   33345252  HIT:   30325438  MISS:    3019814  HIT %:    90.9438  MISS %:     9.0562   MPKI: 15.0991
AGUS PREFETCH L1 MISS: 0
L1D PREFETCH  REQUESTED:   68573934  ISSUED:   68573934  USEFUL:     777643  USELESS:    2242171
L1D USEFUL LOAD PREFETCHES:     777643 PREFETCH ISSUED TO LOWER LEVEL:    3130639  ACCURACY: 24.8398
L1D TIMELY PREFETCHES:     777643 LATE PREFETCHES: 103512 DROPPED PREFETCHES: 92548
L1D PREFETCHES SAME FILL-ORIGIN LEVEL: 3130639 DIFFERENT FILL-ORIGIN LEVEL: 0
L1D AVERAGE MISS LATENCY: 5.4522e+06 cycles
L1D RQ	ACCESS:   47206077	FORWARD:          0	MERGED:   12078110	TO_CACHE:   34785113
L1D WQ	ACCESS:   28029091	FORWARD:     386970	MERGED:     154797	TO_CACHE:   27874294
L1D PQ	ACCESS:   34785113	FORWARD:          0	MERGED:     952176	TO_CACHE:   33788821

L1D UNIQUE REGIONS ACCESSED: 0
L1D REGIONS CONFLICTS: 0
L1D Cross Page Prefetch Requests: 609751
L1D Same Page Prefetch Requests: 41738038
L1D ROI Sum of L1D PQ occupancy: 434982686
L1D PREFETCHES PUSHED FROM L2C: 0
L1I TOTAL     ACCESS:   40159211  HIT:   27930189  MISS:   12229022  HIT %:    69.5486  MISS %:    30.4514   MPKI: 61.1451
L1I LOAD      ACCESS:   40159211  HIT:   27930189  MISS:   12229022  HIT %:    69.5486  MISS %:    30.4514   MPKI: 61.1451
L1I PREFETCH  REQUESTED:          0  ISSUED:          0  USEFUL:          0  USELESS:          0
L1I USEFUL LOAD PREFETCHES:          0 PREFETCH ISSUED TO LOWER LEVEL:          0  ACCURACY: -nan
L1I TIMELY PREFETCHES:          0 LATE PREFETCHES: 0 DROPPED PREFETCHES: 0
L1I PREFETCHES SAME FILL-ORIGIN LEVEL: 0 DIFFERENT FILL-ORIGIN LEVEL: 0
L1I AVERAGE MISS LATENCY: 15.5205 cycles
L1I RQ	ACCESS:   58806257	FORWARD:          0	MERGED:   16871073	TO_CACHE:   41935184

BTB TOTAL     ACCESS:   30232377  HIT:   16633212  MISS:   13599165  HIT %:    55.0179  MISS %:    44.9821   MPKI: 67.9958
BTB BRANCH_DIRECT_JUMP	ACCESS:    1953107  HIT:    1075540  MISS:     877567
BTB BRANCH_INDIRECT	ACCESS:   12762842  HIT:    7577250  MISS:    5185592
BTB BRANCH_CONDITIONAL	ACCESS:    5680689  HIT:    4279292  MISS:    1401397
BTB BRANCH_DIRECT_CALL	ACCESS:    4143765  HIT:    1916358  MISS:    2227407
BTB BRANCH_INDIRECT_CALL	ACCESS:     774109  HIT:     369936  MISS:     404173
BTB BRANCH_RETURN	ACCESS:    4917865  HIT:    1414836  MISS:    3503029
BTB BRANCH_OTHER ACCESS:          0  HIT:          0  MISS:          0

L2C TOTAL     ACCESS:   21932822  HIT:   20840900  MISS:    1091922  HIT %:    95.0215  MISS %:    4.97848   MPKI: 5.45961
L2C LOAD      ACCESS:   15099982  HIT:   14332686  MISS:     767296  HIT %:    94.9186  MISS %:    5.08144   MPKI: 3.83648
L2C DATA LOAD MPKI: 0.88955
L2C INSTRUCTION LOAD MPKI: 2.94693
L2C RFO       ACCESS:    1128626  HIT:    1082922  MISS:      45704  HIT %:    95.9505  MISS %:    4.04953   MPKI: 0.22852
L2C PREFETCH  ACCESS:    3130067  HIT:    2865278  MISS:     264789  HIT %:    91.5405  MISS %:    8.45953   MPKI: 1.32394
AGUS PREFETCH L1 MISS: 0
L2C DATA PREFETCH MPKI: 1.32394
L2C INSTRUCTION PREFETCH MPKI: 0
L2C WRITEBACK ACCESS:    2477031  HIT:    2463690  MISS:      13341  HIT %:    99.4614  MISS %:   0.538588   MPKI: 0.066705
L2C LOAD TRANSLATION ACCESS:       1198  HIT:        602  MISS:        596  HIT %:    50.2504  MISS %:    49.7496   MPKI: 0.00298
L2C TRANSLATION FROM L1D PREFETCHER ACCESS:      95918  HIT:      95722  MISS:        196  HIT %:    99.7957  MISS %:   0.204341   MPKI: 0.00098
L2C PREFETCH  REQUESTED:          0  ISSUED:          0  USEFUL:       3737  USELESS:     261730
L2C USEFUL LOAD PREFETCHES:       3737 PREFETCH ISSUED TO LOWER LEVEL:     264788  ACCURACY: 1.41132
L2C TIMELY PREFETCHES:       3737 LATE PREFETCHES: 0 DROPPED PREFETCHES: 0
L2C PREFETCHES SAME FILL-ORIGIN LEVEL: 0 DIFFERENT FILL-ORIGIN LEVEL: 0
L2C AVERAGE MISS LATENCY: 29.796 cycles
L2C RQ	ACCESS:   16325726	FORWARD:          0	MERGED:          0	TO_CACHE:   16325724
L2C WQ	ACCESS:    2477031	FORWARD:        575	MERGED:          0	TO_CACHE:    2477031
L2C PQ	ACCESS:    3130639	FORWARD:          0	MERGED:          0	TO_CACHE:    3130066

L2C Instructions Evicting Data 218367
L2C Translations Evicting Data 575
L2C Data Evicting Data 278120
L2C Instructions Evicting Instructions 370852
L2C Translations Evicting Instructions 217
L2C Data Evicting Instructions 209626
L2C Instructions Evicting Translations 167
L2C Translations Evicting Translations 0
L2C Data Evicting Translations 657
L2C Dense regions hint from L2: 0
PSCL5 TOTAL     ACCESS:      93753  HIT:      93753  MISS:          0  HIT %:        100  MISS %:          0   MPKI: 0
PSCL5 LOAD TRANSLATION ACCESS:       1198  HIT:       1198  MISS:          0  HIT %:        100  MISS %:          0   MPKI: 0
PSCL5 TRANSLATION FROM L1D PREFETCHER ACCESS:      92555  HIT:      92555  MISS:          0  HIT %:        100  MISS %:          0   MPKI: 0
PSCL5 PREFETCH  REQUESTED:          0  ISSUED:          0  USEFUL:          0  USELESS:          0
PSCL5 USEFUL LOAD PREFETCHES:          0 PREFETCH ISSUED TO LOWER LEVEL:          0  ACCURACY: -nan
PSCL5 TIMELY PREFETCHES:          0 LATE PREFETCHES: 0 DROPPED PREFETCHES: 0
PSCL5 PREFETCHES SAME FILL-ORIGIN LEVEL: 0 DIFFERENT FILL-ORIGIN LEVEL: 0

PSCL4 TOTAL     ACCESS:      93753  HIT:      93753  MISS:          0  HIT %:        100  MISS %:          0   MPKI: 0
PSCL4 LOAD TRANSLATION ACCESS:       1198  HIT:       1198  MISS:          0  HIT %:        100  MISS %:          0   MPKI: 0
PSCL4 TRANSLATION FROM L1D PREFETCHER ACCESS:      92555  HIT:      92555  MISS:          0  HIT %:        100  MISS %:          0   MPKI: 0
PSCL4 PREFETCH  REQUESTED:          0  ISSUED:          0  USEFUL:          0  USELESS:          0
PSCL4 USEFUL LOAD PREFETCHES:          0 PREFETCH ISSUED TO LOWER LEVEL:          0  ACCURACY: -nan
PSCL4 TIMELY PREFETCHES:          0 LATE PREFETCHES: 0 DROPPED PREFETCHES: 0
PSCL4 PREFETCHES SAME FILL-ORIGIN LEVEL: 0 DIFFERENT FILL-ORIGIN LEVEL: 0

PSCL3 TOTAL     ACCESS:      93753  HIT:      93753  MISS:          0  HIT %:        100  MISS %:          0   MPKI: 0
PSCL3 LOAD TRANSLATION ACCESS:       1198  HIT:       1198  MISS:          0  HIT %:        100  MISS %:          0   MPKI: 0
PSCL3 TRANSLATION FROM L1D PREFETCHER ACCESS:      92555  HIT:      92555  MISS:          0  HIT %:        100  MISS %:          0   MPKI: 0
PSCL3 PREFETCH  REQUESTED:          0  ISSUED:          0  USEFUL:          0  USELESS:          0
PSCL3 USEFUL LOAD PREFETCHES:          0 PREFETCH ISSUED TO LOWER LEVEL:          0  ACCURACY: -nan
PSCL3 TIMELY PREFETCHES:          0 LATE PREFETCHES: 0 DROPPED PREFETCHES: 0
PSCL3 PREFETCHES SAME FILL-ORIGIN LEVEL: 0 DIFFERENT FILL-ORIGIN LEVEL: 0

PSCL2 TOTAL     ACCESS:      90390  HIT:      90390  MISS:          0  HIT %:        100  MISS %:          0   MPKI: 0
PSCL2 LOAD TRANSLATION ACCESS:       1198  HIT:       1198  MISS:          0  HIT %:        100  MISS %:          0   MPKI: 0
PSCL2 TRANSLATION FROM L1D PREFETCHER ACCESS:      89192  HIT:      89192  MISS:          0  HIT %:        100  MISS %:          0   MPKI: 0
PSCL2 PREFETCH  REQUESTED:          0  ISSUED:          0  USEFUL:          0  USELESS:          0
PSCL2 USEFUL LOAD PREFETCHES:          0 PREFETCH ISSUED TO LOWER LEVEL:          0  ACCURACY: -nan
PSCL2 TIMELY PREFETCHES:          0 LATE PREFETCHES: 0 DROPPED PREFETCHES: 0
PSCL2 PREFETCHES SAME FILL-ORIGIN LEVEL: 0 DIFFERENT FILL-ORIGIN LEVEL: 0

LLC TOTAL     ACCESS:    1138320  HIT:    1137246  MISS:       1074  HIT %:    99.9057  MISS %:  0.0943496   MPKI: 0.00537
LLC LOAD      ACCESS:     767296  HIT:     767023  MISS:        273  HIT %:    99.9644  MISS %:  0.0355795   MPKI: 0.001365
LLC RFO       ACCESS:      45704  HIT:      45703  MISS:          1  HIT %:    99.9978  MISS %: 0.00218799   MPKI: 5e-06
LLC PREFETCH  ACCESS:     264789  HIT:     263990  MISS:        799  HIT %:    99.6983  MISS %:    0.30175   MPKI: 0.003995
AGUS PREFETCH L1 MISS: 0
LLC WRITEBACK ACCESS:      59739  HIT:      59738  MISS:          1  HIT %:    99.9983  MISS %: 0.00167395   MPKI: 5e-06
LLC LOAD TRANSLATION ACCESS:        596  HIT:        596  MISS:          0  HIT %:        100  MISS %:          0   MPKI: 0
LLC TRANSLATION FROM L1D PREFETCHER ACCESS:        196  HIT:        196  MISS:          0  HIT %:        100  MISS %:          0   MPKI: 0
LLC PREFETCH  REQUESTED:          0  ISSUED:          0  USEFUL:       1595  USELESS:        547
LLC USEFUL LOAD PREFETCHES:       1595 PREFETCH ISSUED TO LOWER LEVEL:        799  ACCURACY: 199.625
LLC TIMELY PREFETCHES:       1595 LATE PREFETCHES: 0 DROPPED PREFETCHES: 0
LLC PREFETCHES SAME FILL-ORIGIN LEVEL: 0 DIFFERENT FILL-ORIGIN LEVEL: 0
LLC AVERAGE MISS LATENCY: 165.304 cycles
LLC RQ	ACCESS:     813792	FORWARD:          0	MERGED:          0	TO_CACHE:     813792
LLC WQ	ACCESS:      59739	FORWARD:          0	MERGED:          0	TO_CACHE:      59739
LLC PQ	ACCESS:     264788	FORWARD:          0	MERGED:          0	TO_CACHE:     264788

LLC Dense regions hint to LLC: 0

RAW hits: 1526512
Loads Generated: 48732591
Loads sent to L1D: 47206077
Stores Generated: 28029089
Stores sent to L1D: 28029091
Major fault: 0 Minor fault: 1251
Allocated PAGES: 1251
ucb ended

DRAM Statistics
 CHANNEL 0
 RQ ROW_BUFFER_HIT:         51  ROW_BUFFER_MISS:       1022
 DBUS_CONGESTED:          0
 WQ ROW_BUFFER_HIT:          0  ROW_BUFFER_MISS:          4  FULL:          0

 AVG_CONGESTED_CYCLE: -
 All warmup complete: 2
Channel 0 Bank busy for read cycles: 0
Channel 0 Bank busy for write cycles: 0
Channel 0
Rank 0
0banks busy for read cycles: 671119802
0banks busy for write cycles: 4
1banks busy for read cycles: 144212
1banks busy for write cycles: 601
2banks busy for read cycles: 5567
2banks busy for write cycles: 0
3banks busy for read cycles: 168
3banks busy for write cycles: 0
4banks busy for read cycles: 0
4banks busy for write cycles: 0
5banks busy for read cycles: 0
5banks busy for write cycles: 0
6banks busy for read cycles: 0
6banks busy for write cycles: 0
7banks busy for read cycles: 0
7banks busy for write cycles: 0
8banks busy for read cycles: 0
8banks busy for write cycles: 0

CPU 0 Branch Prediction Accuracy: 99.9093% MPKI: 0.16097 Average ROB Occupancy at Mispredict: 30.5302
Branch types
NOT_BRANCH: 164496958 82.2485%
BRANCH_DIRECT_JUMP: 1953107 0.976553%
BRANCH_INDIRECT: 12762842 6.38142%
BRANCH_CONDITIONAL: 10951337 5.47567%
BRANCH_DIRECT_CALL: 4143765 2.07188%
BRANCH_INDIRECT_CALL: 774109 0.387055%
BRANCH_RETURN: 4917865 2.45893%
BRANCH_OTHER: 0 0%

DRAM PAGES: 1048576
Allocated PAGES: 1251
