
*** ChampSim Multicore Out-of-Order Simulator ***

Warmup Instructions: 50000000
Simulation Instructions: 200000000
Number of CPUs: 1
LLC sets: 2048
LLC ways: 16
Off-chip DRAM Size: 4096 MB Channels: 1 Width: 64-bit Data Rate: 6400 MT/s
CPU 0 runs traces/spec2k17/srv_1.champsimtrace.xz
.xz
BTB has LRU replacement policy
ITLB has LRU replacement policy
DTLB has LRU replacement policy
STLB has LRU replacement policy
L1I has LRU replacement policy
L1D has LRU replacement policy
Initialize SRRIP state for L2C
Initialize DRRIP state for LLC
Offset table: -6 -5 -4 -3 -2 -1 1 2 3 4 5 6 
Offset table size: 12

Printing Sanity: 1

Round Robin Complete

Offset reward: 454 1278 566 630 975 2169 3369 819 384 413 603 697 
Offset reward size: 12

Offset count: 1 1 1 1 1 1 1 1 1 1 1 1 
Offset count size: 12

Printing Sanity: 2
n total: 12
Writing in data1.txt 

Writing done! 

Heartbeat CPU 0 instructions: 10000000 cycles: 4278577 heartbeat IPC: 2.33723 cumulative IPC: 2.33723 (Simulation time: 0 hr 0 min 31 sec) 
Heartbeat CPU 0 instructions: 20000003 cycles: 7737678 heartbeat IPC: 2.89093 cumulative IPC: 2.58476 (Simulation time: 0 hr 0 min 56 sec) 
Heartbeat CPU 0 instructions: 30000003 cycles: 10551855 heartbeat IPC: 3.55344 cumulative IPC: 2.8431 (Simulation time: 0 hr 1 min 17 sec) 
*** Reached end of trace for Core: 0 Repeating trace: traces/spec2k17/srv_1.champsimtrace.xz
Heartbeat CPU 0 instructions: 40000001 cycles: 14700560 heartbeat IPC: 2.41039 cumulative IPC: 2.72098 (Simulation time: 0 hr 1 min 47 sec) 
Heartbeat CPU 0 instructions: 50000002 cycles: 18303574 heartbeat IPC: 2.77545 cumulative IPC: 2.73171 (Simulation time: 0 hr 2 min 14 sec) 

Warmup complete CPU 0 instructions: 50000002 cycles: 18303574 (Simulation time: 0 hr 2 min 14 sec) 

Heartbeat CPU 0 instructions: 60000000 cycles: 42747510 heartbeat IPC: 0.409099 cumulative IPC: 0.409099 (Simulation time: 0 hr 2 min 47 sec) 
*** Reached end of trace for Core: 0 Repeating trace: traces/spec2k17/srv_1.champsimtrace.xz
Heartbeat CPU 0 instructions: 70000003 cycles: 76330989 heartbeat IPC: 0.297766 cumulative IPC: 0.344665 (Simulation time: 0 hr 3 min 32 sec) 
Heartbeat CPU 0 instructions: 80000001 cycles: 107736286 heartbeat IPC: 0.318418 cumulative IPC: 0.335448 (Simulation time: 0 hr 4 min 13 sec) 
Heartbeat CPU 0 instructions: 90000000 cycles: 132539380 heartbeat IPC: 0.403175 cumulative IPC: 0.350153 (Simulation time: 0 hr 4 min 47 sec) 
*** Reached end of trace for Core: 0 Repeating trace: traces/spec2k17/srv_1.champsimtrace.xz
Heartbeat CPU 0 instructions: 100000000 cycles: 165031178 heartbeat IPC: 0.30777 cumulative IPC: 0.340768 (Simulation time: 0 hr 5 min 31 sec) 
Heartbeat CPU 0 instructions: 110000000 cycles: 197337552 heartbeat IPC: 0.309536 cumulative IPC: 0.335132 (Simulation time: 0 hr 6 min 14 sec) 
Heartbeat CPU 0 instructions: 120000001 cycles: 221838236 heartbeat IPC: 0.408152 cumulative IPC: 0.343922 (Simulation time: 0 hr 6 min 47 sec) 
*** Reached end of trace for Core: 0 Repeating trace: traces/spec2k17/srv_1.champsimtrace.xz
Heartbeat CPU 0 instructions: 130000000 cycles: 253329421 heartbeat IPC: 0.317549 cumulative IPC: 0.340388 (Simulation time: 0 hr 7 min 29 sec) 
Heartbeat CPU 0 instructions: 140000002 cycles: 286784813 heartbeat IPC: 0.298906 cumulative IPC: 0.335219 (Simulation time: 0 hr 8 min 13 sec) 
Heartbeat CPU 0 instructions: 150000002 cycles: 311498167 heartbeat IPC: 0.40464 cumulative IPC: 0.34107 (Simulation time: 0 hr 8 min 47 sec) 
*** Reached end of trace for Core: 0 Repeating trace: traces/spec2k17/srv_1.champsimtrace.xz
Heartbeat CPU 0 instructions: 160000000 cycles: 341880298 heartbeat IPC: 0.329141 cumulative IPC: 0.33995 (Simulation time: 0 hr 9 min 27 sec) 
Heartbeat CPU 0 instructions: 170000000 cycles: 376137857 heartbeat IPC: 0.291906 cumulative IPC: 0.335351 (Simulation time: 0 hr 10 min 13 sec) 
Heartbeat CPU 0 instructions: 180000000 cycles: 400933107 heartbeat IPC: 0.403303 cumulative IPC: 0.339754 (Simulation time: 0 hr 10 min 47 sec) 
*** Reached end of trace for Core: 0 Repeating trace: traces/spec2k17/srv_1.champsimtrace.xz
Heartbeat CPU 0 instructions: 190000001 cycles: 430379743 heartbeat IPC: 0.339597 cumulative IPC: 0.339743 (Simulation time: 0 hr 11 min 26 sec) 
Heartbeat CPU 0 instructions: 200000002 cycles: 465592181 heartbeat IPC: 0.283991 cumulative IPC: 0.335354 (Simulation time: 0 hr 12 min 12 sec) 
Heartbeat CPU 0 instructions: 210000002 cycles: 490325790 heartbeat IPC: 0.404308 cumulative IPC: 0.338967 (Simulation time: 0 hr 12 min 46 sec) 
*** Reached end of trace for Core: 0 Repeating trace: traces/spec2k17/srv_1.champsimtrace.xz
Heartbeat CPU 0 instructions: 220000000 cycles: 518826777 heartbeat IPC: 0.350865 cumulative IPC: 0.339645 (Simulation time: 0 hr 13 min 24 sec) 
Heartbeat CPU 0 instructions: 230000000 cycles: 555474233 heartbeat IPC: 0.27287 cumulative IPC: 0.335089 (Simulation time: 0 hr 14 min 13 sec) 
Heartbeat CPU 0 instructions: 240000000 cycles: 579864859 heartbeat IPC: 0.409994 cumulative IPC: 0.338342 (Simulation time: 0 hr 14 min 47 sec) 
*** Reached end of trace for Core: 0 Repeating trace: traces/spec2k17/srv_1.champsimtrace.xz
Heartbeat CPU 0 instructions: 250000001 cycles: 606716511 heartbeat IPC: 0.372417 cumulative IPC: 0.339897 (Simulation time: 0 hr 15 min 24 sec) 
Finished CPU 0 instructions: 200000000 cycles: 588412938 cumulative IPC: 0.339897 (Simulation time: 0 hr 15 min 24 sec) 

ChampSim completed all CPUs

Region of Interest Statistics

CPU 0 cumulative IPC: 0.339897 instructions: 200000000 cycles: 588412938
ITLB TOTAL     ACCESS:   38213322  HIT:   37662995  MISS:     550327  HIT %:    98.5599  MISS %:    1.44014   MPKI: 2.75163
ITLB LOAD TRANSLATION ACCESS:   38213322  HIT:   37662995  MISS:     550327  HIT %:    98.5599  MISS %:    1.44014   MPKI: 2.75163
ITLB PREFETCH  REQUESTED:          0  ISSUED:          0  USEFUL:          0  USELESS:          0
ITLB USEFUL LOAD PREFETCHES:          0 PREFETCH ISSUED TO LOWER LEVEL:          0  ACCURACY: -nan
ITLB TIMELY PREFETCHES:          0 LATE PREFETCHES: 0 DROPPED PREFETCHES: 0
ITLB PREFETCHES SAME FILL-ORIGIN LEVEL: 0 DIFFERENT FILL-ORIGIN LEVEL: 0
ITLB AVERAGE MISS LATENCY: 16.734 cycles
ITLB RQ	ACCESS:   43868886	FORWARD:          0	MERGED:    5522699	TO_CACHE:   38346187

DTLB TOTAL     ACCESS:   43987395  HIT:   35295231  MISS:    8692164  HIT %:    80.2394  MISS %:    19.7606   MPKI: 43.4608
DTLB LOAD TRANSLATION ACCESS:   43987395  HIT:   35295231  MISS:    8692164  HIT %:    80.2394  MISS %:    19.7606   MPKI: 43.4608
DTLB PREFETCH  REQUESTED:          0  ISSUED:          0  USEFUL:          0  USELESS:          0
DTLB USEFUL LOAD PREFETCHES:          0 PREFETCH ISSUED TO LOWER LEVEL:          0  ACCURACY: -nan
DTLB TIMELY PREFETCHES:          0 LATE PREFETCHES: 0 DROPPED PREFETCHES: 0
DTLB PREFETCHES SAME FILL-ORIGIN LEVEL: 0 DIFFERENT FILL-ORIGIN LEVEL: 0
DTLB AVERAGE MISS LATENCY: 10.1581 cycles
DTLB RQ	ACCESS:   59141423	FORWARD:          0	MERGED:   14982923	TO_CACHE:   44158500

STLB TOTAL     ACCESS:   40181259  HIT:   39853926  MISS:     327333  HIT %:    99.1854  MISS %:   0.814641   MPKI: 1.63667
STLB LOAD TRANSLATION ACCESS:    9242491  HIT:    8918292  MISS:     324199  HIT %:    96.4923  MISS %:     3.5077   MPKI: 1.62099
STLB TRANSLATION FROM L1D PREFETCHER ACCESS:   30938768  HIT:   30935634  MISS:       3134  HIT %:    99.9899  MISS %:  0.0101297   MPKI: 0.01567
STLB PREFETCH  REQUESTED:          0  ISSUED:          0  USEFUL:       2908  USELESS:        225
STLB USEFUL LOAD PREFETCHES:       2908 PREFETCH ISSUED TO LOWER LEVEL:          0  ACCURACY: inf
STLB TIMELY PREFETCHES:       2908 LATE PREFETCHES: 189 DROPPED PREFETCHES: 597541
STLB PREFETCHES SAME FILL-ORIGIN LEVEL: 0 DIFFERENT FILL-ORIGIN LEVEL: 0
STLB AVERAGE MISS LATENCY: 43.9059 cycles
STLB RQ	ACCESS:   49660963	FORWARD:          0	MERGED:    8881390	TO_CACHE:   40779573

STLB Hit, L1D data hit: 0
STLB Hit, L2C data hit: 0
STLB Hit, LLC data hit: 0
STLB Hit, LLC data miss: 0
STLB STLB hints to L2: 0
L1D TOTAL     ACCESS:   93931423  HIT:   74991216  MISS:   18940207  HIT %:    79.8361  MISS %:    20.1639   MPKI: 94.701
L1D LOAD      ACCESS:   41107958  HIT:   29271350  MISS:   11836608  HIT %:     71.206  MISS %:     28.794   MPKI: 59.183
L1D RFO       ACCESS:   17622213  HIT:   17253382  MISS:     368831  HIT %:     97.907  MISS %:    2.09299   MPKI: 1.84415
L1D PREFETCH  ACCESS:   35201252  HIT:   28466484  MISS:    6734768  HIT %:    80.8678  MISS %:    19.1322   MPKI: 33.6738
AGUS PREFETCH L1 MISS: 0
L1D PREFETCH  REQUESTED:   81611178  ISSUED:   81610436  USEFUL:     489262  USELESS:    6245290
L1D USEFUL LOAD PREFETCHES:     489262 PREFETCH ISSUED TO LOWER LEVEL:    6764472  ACCURACY: 7.23282
L1D TIMELY PREFETCHES:     489262 LATE PREFETCHES: 27908 DROPPED PREFETCHES: 630222
L1D PREFETCHES SAME FILL-ORIGIN LEVEL: 6764472 DIFFERENT FILL-ORIGIN LEVEL: 0
L1D AVERAGE MISS LATENCY: 450539 cycles
L1D RQ	ACCESS:   54103155	FORWARD:          0	MERGED:   12697953	TO_CACHE:   41192703
L1D WQ	ACCESS:   18253453	FORWARD:     238968	MERGED:     304733	TO_CACHE:   17948720
L1D PQ	ACCESS:   41191964	FORWARD:          0	MERGED:     747023	TO_CACHE:   40418472

L1D UNIQUE REGIONS ACCESSED: 0
L1D REGIONS CONFLICTS: 0
L1D Cross Page Prefetch Requests: 1716159
L1D Same Page Prefetch Requests: 50511302
L1D ROI Sum of L1D PQ occupancy: 555554577
L1D PREFETCHES PUSHED FROM L2C: 0
L1I TOTAL     ACCESS:   42790232  HIT:   39343847  MISS:    3446385  HIT %:    91.9459  MISS %:    8.05414   MPKI: 17.2319
L1I LOAD      ACCESS:   42790232  HIT:   39343847  MISS:    3446385  HIT %:    91.9459  MISS %:    8.05414   MPKI: 17.2319
L1I PREFETCH  REQUESTED:          0  ISSUED:          0  USEFUL:          0  USELESS:          0
L1I USEFUL LOAD PREFETCHES:          0 PREFETCH ISSUED TO LOWER LEVEL:          0  ACCURACY: -nan
L1I TIMELY PREFETCHES:          0 LATE PREFETCHES: 0 DROPPED PREFETCHES: 0
L1I PREFETCHES SAME FILL-ORIGIN LEVEL: 0 DIFFERENT FILL-ORIGIN LEVEL: 0
L1I AVERAGE MISS LATENCY: 30.5049 cycles
L1I RQ	ACCESS:   66222796	FORWARD:          0	MERGED:   22353910	TO_CACHE:   43868886

BTB TOTAL     ACCESS:   33996129  HIT:   29348304  MISS:    4647825  HIT %:    86.3284  MISS %:    13.6716   MPKI: 23.2391
BTB BRANCH_DIRECT_JUMP	ACCESS:    1820121  HIT:    1607789  MISS:     212332
BTB BRANCH_INDIRECT	ACCESS:   19847784  HIT:   17441635  MISS:    2406149
BTB BRANCH_CONDITIONAL	ACCESS:    4748982  HIT:    4420071  MISS:     328911
BTB BRANCH_DIRECT_CALL	ACCESS:    3062626  HIT:    2647973  MISS:     414653
BTB BRANCH_INDIRECT_CALL	ACCESS:     723674  HIT:     676539  MISS:      47135
BTB BRANCH_RETURN	ACCESS:    3792942  HIT:    2554297  MISS:    1238645
BTB BRANCH_OTHER ACCESS:          0  HIT:          0  MISS:          0

L2C TOTAL     ACCESS:   24716373  HIT:   21293590  MISS:    3422783  HIT %:    86.1518  MISS %:    13.8482   MPKI: 17.1139
L2C LOAD      ACCESS:   15255027  HIT:   12817321  MISS:    2437706  HIT %:    84.0203  MISS %:    15.9797   MPKI: 12.1885
L2C DATA LOAD MPKI: 3.48171
L2C INSTRUCTION LOAD MPKI: 8.70682
L2C RFO       ACCESS:     366984  HIT:     254710  MISS:     112274  HIT %:    69.4063  MISS %:    30.5937   MPKI: 0.56137
L2C PREFETCH  ACCESS:    6764390  HIT:    6089747  MISS:     674643  HIT %:    90.0266  MISS %:    9.97345   MPKI: 3.37322
AGUS PREFETCH L1 MISS: 0
L2C DATA PREFETCH MPKI: 3.37322
L2C INSTRUCTION PREFETCH MPKI: 0
L2C WRITEBACK ACCESS:     931270  HIT:     905729  MISS:      25541  HIT %:    97.2574  MISS %:     2.7426   MPKI: 0.127705
L2C LOAD TRANSLATION ACCESS:     411477  HIT:     242535  MISS:     168942  HIT %:    58.9425  MISS %:    41.0575   MPKI: 0.84471
L2C TRANSLATION FROM L1D PREFETCHER ACCESS:     987225  HIT:     983548  MISS:       3677  HIT %:    99.6275  MISS %:   0.372458   MPKI: 0.018385
L2C PREFETCH  REQUESTED:          0  ISSUED:          0  USEFUL:      33934  USELESS:     644436
L2C USEFUL LOAD PREFETCHES:      33934 PREFETCH ISSUED TO LOWER LEVEL:     674643  ACCURACY: 5.02992
L2C TIMELY PREFETCHES:      33934 LATE PREFETCHES: 0 DROPPED PREFETCHES: 0
L2C PREFETCHES SAME FILL-ORIGIN LEVEL: 0 DIFFERENT FILL-ORIGIN LEVEL: 0
L2C AVERAGE MISS LATENCY: 44.44 cycles
L2C RQ	ACCESS:   17020824	FORWARD:          0	MERGED:          0	TO_CACHE:   17020714
L2C WQ	ACCESS:     931270	FORWARD:        192	MERGED:          0	TO_CACHE:     931270
L2C PQ	ACCESS:    6764472	FORWARD:          0	MERGED:          0	TO_CACHE:    6764390

L2C Instructions Evicting Data 763370
L2C Translations Evicting Data 75898
L2C Data Evicting Data 657212
L2C Instructions Evicting Instructions 890458
L2C Translations Evicting Instructions 87192
L2C Data Evicting Instructions 751690
L2C Instructions Evicting Translations 87536
L2C Translations Evicting Translations 9529
L2C Data Evicting Translations 74357
L2C Dense regions hint from L2: 0
PSCL5 TOTAL     ACCESS:     924874  HIT:     924874  MISS:          0  HIT %:        100  MISS %:          0   MPKI: 0
PSCL5 LOAD TRANSLATION ACCESS:     324010  HIT:     324010  MISS:          0  HIT %:        100  MISS %:          0   MPKI: 0
PSCL5 TRANSLATION FROM L1D PREFETCHER ACCESS:     600864  HIT:     600864  MISS:          0  HIT %:        100  MISS %:          0   MPKI: 0
PSCL5 PREFETCH  REQUESTED:          0  ISSUED:          0  USEFUL:          0  USELESS:          0
PSCL5 USEFUL LOAD PREFETCHES:          0 PREFETCH ISSUED TO LOWER LEVEL:          0  ACCURACY: -nan
PSCL5 TIMELY PREFETCHES:          0 LATE PREFETCHES: 0 DROPPED PREFETCHES: 0
PSCL5 PREFETCHES SAME FILL-ORIGIN LEVEL: 0 DIFFERENT FILL-ORIGIN LEVEL: 0

PSCL4 TOTAL     ACCESS:     859172  HIT:     858364  MISS:        808  HIT %:     99.906  MISS %:   0.094044   MPKI: 0.00404
PSCL4 LOAD TRANSLATION ACCESS:     313556  HIT:     312748  MISS:        808  HIT %:    99.7423  MISS %:   0.257689   MPKI: 0.00404
PSCL4 TRANSLATION FROM L1D PREFETCHER ACCESS:     545616  HIT:     545616  MISS:          0  HIT %:        100  MISS %:          0   MPKI: 0
PSCL4 PREFETCH  REQUESTED:          0  ISSUED:          0  USEFUL:          0  USELESS:          0
PSCL4 USEFUL LOAD PREFETCHES:          0 PREFETCH ISSUED TO LOWER LEVEL:          0  ACCURACY: -nan
PSCL4 TIMELY PREFETCHES:          0 LATE PREFETCHES: 0 DROPPED PREFETCHES: 0
PSCL4 PREFETCHES SAME FILL-ORIGIN LEVEL: 0 DIFFERENT FILL-ORIGIN LEVEL: 0

PSCL3 TOTAL     ACCESS:     917736  HIT:     915122  MISS:       2614  HIT %:    99.7152  MISS %:   0.284831   MPKI: 0.01307
PSCL3 LOAD TRANSLATION ACCESS:     320934  HIT:     318320  MISS:       2614  HIT %:    99.1855  MISS %:   0.814498   MPKI: 0.01307
PSCL3 TRANSLATION FROM L1D PREFETCHER ACCESS:     596802  HIT:     596802  MISS:          0  HIT %:        100  MISS %:          0   MPKI: 0
PSCL3 PREFETCH  REQUESTED:          0  ISSUED:          0  USEFUL:          0  USELESS:          0
PSCL3 USEFUL LOAD PREFETCHES:          0 PREFETCH ISSUED TO LOWER LEVEL:          0  ACCURACY: -nan
PSCL3 TIMELY PREFETCHES:          0 LATE PREFETCHES: 0 DROPPED PREFETCHES: 0
PSCL3 PREFETCHES SAME FILL-ORIGIN LEVEL: 0 DIFFERENT FILL-ORIGIN LEVEL: 0

PSCL2 TOTAL     ACCESS:     541131  HIT:     456135  MISS:      84996  HIT %:    84.2929  MISS %:    15.7071   MPKI: 0.42498
PSCL2 LOAD TRANSLATION ACCESS:     324942  HIT:     239946  MISS:      84996  HIT %:    73.8427  MISS %:    26.1573   MPKI: 0.42498
PSCL2 TRANSLATION FROM L1D PREFETCHER ACCESS:     216189  HIT:     216189  MISS:          0  HIT %:        100  MISS %:          0   MPKI: 0
PSCL2 PREFETCH  REQUESTED:          0  ISSUED:          0  USEFUL:          0  USELESS:          0
PSCL2 USEFUL LOAD PREFETCHES:          0 PREFETCH ISSUED TO LOWER LEVEL:          0  ACCURACY: -nan
PSCL2 TIMELY PREFETCHES:          0 LATE PREFETCHES: 0 DROPPED PREFETCHES: 0
PSCL2 PREFETCHES SAME FILL-ORIGIN LEVEL: 0 DIFFERENT FILL-ORIGIN LEVEL: 0

LLC TOTAL     ACCESS:    3752658  HIT:    3438715  MISS:     313943  HIT %:    91.6341  MISS %:    8.36588   MPKI: 1.56971
LLC LOAD      ACCESS:    2437706  HIT:    2294382  MISS:     143324  HIT %:    94.1205  MISS %:    5.87946   MPKI: 0.71662
LLC RFO       ACCESS:     112274  HIT:      79811  MISS:      32463  HIT %:    71.0859  MISS %:    28.9141   MPKI: 0.162315
LLC PREFETCH  ACCESS:     674643  HIT:     549289  MISS:     125354  HIT %:    81.4192  MISS %:    18.5808   MPKI: 0.62677
AGUS PREFETCH L1 MISS: 0
LLC WRITEBACK ACCESS:     355416  HIT:     349968  MISS:       5448  HIT %:    98.4671  MISS %:    1.53285   MPKI: 0.02724
LLC LOAD TRANSLATION ACCESS:     168942  HIT:     161965  MISS:       6977  HIT %:    95.8702  MISS %:    4.12982   MPKI: 0.034885
LLC TRANSLATION FROM L1D PREFETCHER ACCESS:       3677  HIT:       3300  MISS:        377  HIT %:    89.7471  MISS %:    10.2529   MPKI: 0.001885
LLC PREFETCH  REQUESTED:          0  ISSUED:          0  USEFUL:       5688  USELESS:     120629
LLC USEFUL LOAD PREFETCHES:       5688 PREFETCH ISSUED TO LOWER LEVEL:     125354  ACCURACY: 4.53755
LLC TIMELY PREFETCHES:       5688 LATE PREFETCHES: 0 DROPPED PREFETCHES: 0
LLC PREFETCHES SAME FILL-ORIGIN LEVEL: 0 DIFFERENT FILL-ORIGIN LEVEL: 0
LLC AVERAGE MISS LATENCY: 159.867 cycles
LLC RQ	ACCESS:    2722599	FORWARD:          0	MERGED:          0	TO_CACHE:    2722599
LLC WQ	ACCESS:     355416	FORWARD:          0	MERGED:          0	TO_CACHE:     355416
LLC PQ	ACCESS:     674643	FORWARD:          0	MERGED:          0	TO_CACHE:     674643

LLC Dense regions hint to LLC: 0

RAW hits: 2278602
Loads Generated: 56381754
Loads sent to L1D: 54103155
Stores Generated: 18253447
Stores sent to L1D: 18253453
Major fault: 0 Minor fault: 4447
Allocated PAGES: 4447
ucb ended

DRAM Statistics
 CHANNEL 0
 RQ ROW_BUFFER_HIT:      65061  ROW_BUFFER_MISS:     243433
 DBUS_CONGESTED:        109
 WQ ROW_BUFFER_HIT:      21247  ROW_BUFFER_MISS:     132591  FULL:          0

 AVG_CONGESTED_CYCLE: 4
 All warmup complete: 2
Channel 0 Bank busy for read cycles: 0
Channel 0 Bank busy for write cycles: 0
Channel 0
Rank 0
0banks busy for read cycles: 541950960
0banks busy for write cycles: 84090
1banks busy for read cycles: 23008860
1banks busy for write cycles: 11658850
2banks busy for read cycles: 4805202
2banks busy for write cycles: 2704885
3banks busy for read cycles: 1048614
3banks busy for write cycles: 951427
4banks busy for read cycles: 380867
4banks busy for write cycles: 487230
5banks busy for read cycles: 129104
5banks busy for write cycles: 293386
6banks busy for read cycles: 69144
6banks busy for write cycles: 220501
7banks busy for read cycles: 50791
7banks busy for write cycles: 150157
8banks busy for read cycles: 141862
8banks busy for write cycles: 277009

CPU 0 Branch Prediction Accuracy: 99.8043% MPKI: 0.43045 Average ROB Occupancy at Mispredict: 28.178
Branch types
NOT_BRANCH: 156016057 78.008%
BRANCH_DIRECT_JUMP: 1820121 0.910061%
BRANCH_INDIRECT: 19847784 9.92389%
BRANCH_CONDITIONAL: 14736604 7.3683%
BRANCH_DIRECT_CALL: 3062626 1.53131%
BRANCH_INDIRECT_CALL: 723674 0.361837%
BRANCH_RETURN: 3792942 1.89647%
BRANCH_OTHER: 0 0%

DRAM PAGES: 1048576
Allocated PAGES: 4447
