
*** ChampSim Multicore Out-of-Order Simulator ***

Warmup Instructions: 50000000
Simulation Instructions: 200000000
Number of CPUs: 1
LLC sets: 2048
LLC ways: 16
Off-chip DRAM Size: 4096 MB Channels: 1 Width: 64-bit Data Rate: 6400 MT/s
CPU 0 runs traces/spec2k17/srv_29.champsimtrace.xz
.xz
BTB has LRU replacement policy
ITLB has LRU replacement policy
DTLB has LRU replacement policy
STLB has LRU replacement policy
L1I has LRU replacement policy
L1D has LRU replacement policy
Initialize SRRIP state for L2C
Initialize DRRIP state for LLC
Offset table: -6 -5 -4 -3 -2 -1 1 2 3 4 5 6 
Offset table size: 12

Printing Sanity: 1

Round Robin Complete

Offset reward: 817 409 651 702 774 1265 1353 824 841 620 520 442 
Offset reward size: 12

Offset count: 1 1 1 1 1 1 1 1 1 1 1 1 
Offset count size: 12

Printing Sanity: 2
n total: 12
Writing in data1.txt 

Writing done! 

Heartbeat CPU 0 instructions: 10000000 cycles: 2815869 heartbeat IPC: 3.5513 cumulative IPC: 3.5513 (Simulation time: 0 hr 0 min 25 sec) 
Heartbeat CPU 0 instructions: 20000000 cycles: 5628400 heartbeat IPC: 3.55552 cumulative IPC: 3.55341 (Simulation time: 0 hr 0 min 50 sec) 
Heartbeat CPU 0 instructions: 30000003 cycles: 8442447 heartbeat IPC: 3.5536 cumulative IPC: 3.55347 (Simulation time: 0 hr 1 min 15 sec) 
*** Reached end of trace for Core: 0 Repeating trace: traces/spec2k17/srv_29.champsimtrace.xz
Heartbeat CPU 0 instructions: 40000000 cycles: 11257522 heartbeat IPC: 3.5523 cumulative IPC: 3.55318 (Simulation time: 0 hr 1 min 39 sec) 
Heartbeat CPU 0 instructions: 50000000 cycles: 14070595 heartbeat IPC: 3.55483 cumulative IPC: 3.55351 (Simulation time: 0 hr 2 min 4 sec) 

Warmup complete CPU 0 instructions: 50000004 cycles: 14070596 (Simulation time: 0 hr 2 min 4 sec) 

Heartbeat CPU 0 instructions: 60000001 cycles: 28031946 heartbeat IPC: 0.716263 cumulative IPC: 0.716263 (Simulation time: 0 hr 2 min 36 sec) 
*** Reached end of trace for Core: 0 Repeating trace: traces/spec2k17/srv_29.champsimtrace.xz
Heartbeat CPU 0 instructions: 70000000 cycles: 42099655 heartbeat IPC: 0.710848 cumulative IPC: 0.713545 (Simulation time: 0 hr 3 min 8 sec) 
Heartbeat CPU 0 instructions: 80000000 cycles: 55982495 heartbeat IPC: 0.720314 cumulative IPC: 0.715787 (Simulation time: 0 hr 3 min 39 sec) 
Heartbeat CPU 0 instructions: 90000000 cycles: 69850384 heartbeat IPC: 0.72109 cumulative IPC: 0.717106 (Simulation time: 0 hr 4 min 10 sec) 
*** Reached end of trace for Core: 0 Repeating trace: traces/spec2k17/srv_29.champsimtrace.xz
Heartbeat CPU 0 instructions: 100000001 cycles: 83803715 heartbeat IPC: 0.716675 cumulative IPC: 0.717019 (Simulation time: 0 hr 4 min 41 sec) 
Heartbeat CPU 0 instructions: 110000000 cycles: 97435035 heartbeat IPC: 0.733605 cumulative IPC: 0.719731 (Simulation time: 0 hr 5 min 12 sec) 
Heartbeat CPU 0 instructions: 120000002 cycles: 111621336 heartbeat IPC: 0.704906 cumulative IPC: 0.717575 (Simulation time: 0 hr 5 min 44 sec) 
*** Reached end of trace for Core: 0 Repeating trace: traces/spec2k17/srv_29.champsimtrace.xz
Heartbeat CPU 0 instructions: 130000002 cycles: 125472385 heartbeat IPC: 0.721967 cumulative IPC: 0.718121 (Simulation time: 0 hr 6 min 16 sec) 
Heartbeat CPU 0 instructions: 140000001 cycles: 139215068 heartbeat IPC: 0.72766 cumulative IPC: 0.719169 (Simulation time: 0 hr 6 min 47 sec) 
Heartbeat CPU 0 instructions: 150000001 cycles: 153386858 heartbeat IPC: 0.705627 cumulative IPC: 0.717791 (Simulation time: 0 hr 7 min 19 sec) 
*** Reached end of trace for Core: 0 Repeating trace: traces/spec2k17/srv_29.champsimtrace.xz
Heartbeat CPU 0 instructions: 160000001 cycles: 167307508 heartbeat IPC: 0.718357 cumulative IPC: 0.717843 (Simulation time: 0 hr 7 min 50 sec) 
Heartbeat CPU 0 instructions: 170000001 cycles: 180926887 heartbeat IPC: 0.734248 cumulative IPC: 0.719182 (Simulation time: 0 hr 8 min 21 sec) 
Heartbeat CPU 0 instructions: 180000001 cycles: 194665411 heartbeat IPC: 0.72788 cumulative IPC: 0.719843 (Simulation time: 0 hr 8 min 52 sec) 
Heartbeat CPU 0 instructions: 190000000 cycles: 208161531 heartbeat IPC: 0.740954 cumulative IPC: 0.721311 (Simulation time: 0 hr 9 min 23 sec) 
*** Reached end of trace for Core: 0 Repeating trace: traces/spec2k17/srv_29.champsimtrace.xz
Heartbeat CPU 0 instructions: 200000003 cycles: 221931331 heartbeat IPC: 0.726227 cumulative IPC: 0.721637 (Simulation time: 0 hr 9 min 54 sec) 
Heartbeat CPU 0 instructions: 210000003 cycles: 235626818 heartbeat IPC: 0.730168 cumulative IPC: 0.722164 (Simulation time: 0 hr 10 min 26 sec) 
Heartbeat CPU 0 instructions: 220000000 cycles: 249203978 heartbeat IPC: 0.736531 cumulative IPC: 0.722994 (Simulation time: 0 hr 10 min 57 sec) 
*** Reached end of trace for Core: 0 Repeating trace: traces/spec2k17/srv_29.champsimtrace.xz
Heartbeat CPU 0 instructions: 230000002 cycles: 262866245 heartbeat IPC: 0.731943 cumulative IPC: 0.723485 (Simulation time: 0 hr 11 min 28 sec) 
Heartbeat CPU 0 instructions: 240000001 cycles: 276537594 heartbeat IPC: 0.731457 cumulative IPC: 0.7239 (Simulation time: 0 hr 11 min 59 sec) 
Heartbeat CPU 0 instructions: 250000002 cycles: 290191641 heartbeat IPC: 0.732384 cumulative IPC: 0.72432 (Simulation time: 0 hr 12 min 30 sec) 
Finished CPU 0 instructions: 200000002 cycles: 276121046 cumulative IPC: 0.72432 (Simulation time: 0 hr 12 min 30 sec) 

ChampSim completed all CPUs

Region of Interest Statistics

CPU 0 cumulative IPC: 0.72432 instructions: 200000002 cycles: 276121046
ITLB TOTAL     ACCESS:   32456226  HIT:   32346769  MISS:     109457  HIT %:    99.6628  MISS %:   0.337245   MPKI: 0.547285
ITLB LOAD TRANSLATION ACCESS:   32456226  HIT:   32346769  MISS:     109457  HIT %:    99.6628  MISS %:   0.337245   MPKI: 0.547285
ITLB PREFETCH  REQUESTED:          0  ISSUED:          0  USEFUL:          0  USELESS:          0
ITLB USEFUL LOAD PREFETCHES:          0 PREFETCH ISSUED TO LOWER LEVEL:          0  ACCURACY: -nan
ITLB TIMELY PREFETCHES:          0 LATE PREFETCHES: 0 DROPPED PREFETCHES: 0
ITLB PREFETCHES SAME FILL-ORIGIN LEVEL: 0 DIFFERENT FILL-ORIGIN LEVEL: 0
ITLB AVERAGE MISS LATENCY: 10.694 cycles
ITLB RQ	ACCESS:   38257163	FORWARD:          0	MERGED:    5765260	TO_CACHE:   32491903

DTLB TOTAL     ACCESS:   40762638  HIT:   38954322  MISS:    1808316  HIT %:    95.5638  MISS %:    4.43621   MPKI: 9.04158
DTLB LOAD TRANSLATION ACCESS:   40762638  HIT:   38954322  MISS:    1808316  HIT %:    95.5638  MISS %:    4.43621   MPKI: 9.04158
DTLB PREFETCH  REQUESTED:          0  ISSUED:          0  USEFUL:          0  USELESS:          0
DTLB USEFUL LOAD PREFETCHES:          0 PREFETCH ISSUED TO LOWER LEVEL:          0  ACCURACY: -nan
DTLB TIMELY PREFETCHES:          0 LATE PREFETCHES: 0 DROPPED PREFETCHES: 0
DTLB PREFETCHES SAME FILL-ORIGIN LEVEL: 0 DIFFERENT FILL-ORIGIN LEVEL: 0
DTLB AVERAGE MISS LATENCY: 10.8193 cycles
DTLB RQ	ACCESS:   54780630	FORWARD:          0	MERGED:   13816103	TO_CACHE:   40964527

STLB TOTAL     ACCESS:   24561596  HIT:   24473569  MISS:      88027  HIT %:    99.6416  MISS %:   0.358393   MPKI: 0.440135
STLB LOAD TRANSLATION ACCESS:    1917773  HIT:    1831238  MISS:      86535  HIT %:    95.4877  MISS %:    4.51227   MPKI: 0.432675
STLB TRANSLATION FROM L1D PREFETCHER ACCESS:   22643823  HIT:   22642331  MISS:       1492  HIT %:    99.9934  MISS %: 0.00658899   MPKI: 0.00746
STLB PREFETCH  REQUESTED:          0  ISSUED:          0  USEFUL:       1158  USELESS:        340
STLB USEFUL LOAD PREFETCHES:       1158 PREFETCH ISSUED TO LOWER LEVEL:          0  ACCURACY: inf
STLB TIMELY PREFETCHES:       1158 LATE PREFETCHES: 202 DROPPED PREFETCHES: 1093585
STLB PREFETCHES SAME FILL-ORIGIN LEVEL: 0 DIFFERENT FILL-ORIGIN LEVEL: 0
STLB AVERAGE MISS LATENCY: 39.7878 cycles
STLB RQ	ACCESS:   30642959	FORWARD:          0	MERGED:    4987549	TO_CACHE:   25655410

STLB Hit, L1D data hit: 0
STLB Hit, L2C data hit: 0
STLB Hit, LLC data hit: 0
STLB Hit, LLC data miss: 0
STLB STLB hints to L2: 0
L1D TOTAL     ACCESS:   81556744  HIT:   80759240  MISS:     797504  HIT %:    99.0221  MISS %:   0.977852   MPKI: 3.98752
L1D LOAD      ACCESS:   30722149  HIT:   30341847  MISS:     380302  HIT %:    98.7621  MISS %:    1.23788   MPKI: 1.90151
L1D RFO       ACCESS:   23409386  HIT:   23263532  MISS:     145854  HIT %:    99.3769  MISS %:   0.623058   MPKI: 0.72927
L1D PREFETCH  ACCESS:   27425209  HIT:   27153861  MISS:     271348  HIT %:    99.0106  MISS %:   0.989411   MPKI: 1.35674
AGUS PREFETCH L1 MISS: 0
L1D PREFETCH  REQUESTED:   59553877  ISSUED:   59548097  USEFUL:      43721  USELESS:     227639
L1D USEFUL LOAD PREFETCHES:      43721 PREFETCH ISSUED TO LOWER LEVEL:     302646  ACCURACY: 14.4463
L1D TIMELY PREFETCHES:      43721 LATE PREFETCHES: 30656 DROPPED PREFETCHES: 1093585
L1D PREFETCHES SAME FILL-ORIGIN LEVEL: 302646 DIFFERENT FILL-ORIGIN LEVEL: 0
L1D AVERAGE MISS LATENCY: 6.30251e+06 cycles
L1D RQ	ACCESS:   49552688	FORWARD:          0	MERGED:   18601608	TO_CACHE:   30828694
L1D WQ	ACCESS:   24205930	FORWARD:     214100	MERGED:     253994	TO_CACHE:   23951936
L1D PQ	ACCESS:   30822911	FORWARD:          0	MERGED:    2006011	TO_CACHE:   28725186

L1D UNIQUE REGIONS ACCESSED: 0
L1D REGIONS CONFLICTS: 0
L1D Cross Page Prefetch Requests: 2495234
L1D Same Page Prefetch Requests: 35993839
L1D ROI Sum of L1D PQ occupancy: 443486791
L1D PREFETCHES PUSHED FROM L2C: 0
L1I TOTAL     ACCESS:   38058531  HIT:   37401067  MISS:     657464  HIT %:    98.2725  MISS %:    1.72751   MPKI: 3.28732
L1I LOAD      ACCESS:   38058531  HIT:   37401067  MISS:     657464  HIT %:    98.2725  MISS %:    1.72751   MPKI: 3.28732
L1I PREFETCH  REQUESTED:          0  ISSUED:          0  USEFUL:          0  USELESS:          0
L1I USEFUL LOAD PREFETCHES:          0 PREFETCH ISSUED TO LOWER LEVEL:          0  ACCURACY: -nan
L1I TIMELY PREFETCHES:          0 LATE PREFETCHES: 0 DROPPED PREFETCHES: 0
L1I PREFETCHES SAME FILL-ORIGIN LEVEL: 0 DIFFERENT FILL-ORIGIN LEVEL: 0
L1I AVERAGE MISS LATENCY: 17.0741 cycles
L1I RQ	ACCESS:   60428304	FORWARD:          0	MERGED:   22171141	TO_CACHE:   38257163

BTB TOTAL     ACCESS:   29558552  HIT:   27898491  MISS:    1660061  HIT %:    94.3838  MISS %:    5.61618   MPKI: 8.3003
BTB BRANCH_DIRECT_JUMP	ACCESS:    2284609  HIT:    2283159  MISS:       1450
BTB BRANCH_INDIRECT	ACCESS:   12524838  HIT:   11977687  MISS:     547151
BTB BRANCH_CONDITIONAL	ACCESS:    7193896  HIT:    7191833  MISS:       2063
BTB BRANCH_DIRECT_CALL	ACCESS:    3327862  HIT:    3324183  MISS:       3679
BTB BRANCH_INDIRECT_CALL	ACCESS:     449728  HIT:     256600  MISS:     193128
BTB BRANCH_RETURN	ACCESS:    3777619  HIT:    2865029  MISS:     912590
BTB BRANCH_OTHER ACCESS:          0  HIT:          0  MISS:          0

L2C TOTAL     ACCESS:    3438478  HIT:    2729705  MISS:     708773  HIT %:     79.387  MISS %:     20.613   MPKI: 3.54386
L2C LOAD      ACCESS:    1007034  HIT:     685842  MISS:     321192  HIT %:    68.1051  MISS %:    31.8949   MPKI: 1.60596
L2C DATA LOAD MPKI: 1.37916
L2C INSTRUCTION LOAD MPKI: 0.226795
L2C RFO       ACCESS:     145204  HIT:      14947  MISS:     130257  HIT %:    10.2938  MISS %:    89.7062   MPKI: 0.651285
L2C PREFETCH  ACCESS:     302643  HIT:      81219  MISS:     221424  HIT %:    26.8366  MISS %:    73.1634   MPKI: 1.10712
AGUS PREFETCH L1 MISS: 0
L2C DATA PREFETCH MPKI: 1.10712
L2C INSTRUCTION PREFETCH MPKI: 0
L2C WRITEBACK ACCESS:     203710  HIT:     199661  MISS:       4049  HIT %:    98.0124  MISS %:    1.98763   MPKI: 0.020245
L2C LOAD TRANSLATION ACCESS:     123721  HIT:      92536  MISS:      31185  HIT %:    74.7941  MISS %:    25.2059   MPKI: 0.155925
L2C TRANSLATION FROM L1D PREFETCHER ACCESS:    1656166  HIT:    1655500  MISS:        666  HIT %:    99.9598  MISS %:  0.0402134   MPKI: 0.00333
L2C PREFETCH  REQUESTED:          0  ISSUED:          0  USEFUL:       5784  USELESS:     216401
L2C USEFUL LOAD PREFETCHES:       5784 PREFETCH ISSUED TO LOWER LEVEL:     221424  ACCURACY: 2.61218
L2C TIMELY PREFETCHES:       5784 LATE PREFETCHES: 0 DROPPED PREFETCHES: 0
L2C PREFETCHES SAME FILL-ORIGIN LEVEL: 0 DIFFERENT FILL-ORIGIN LEVEL: 0
L2C AVERAGE MISS LATENCY: 117.596 cycles
L2C RQ	ACCESS:    2932209	FORWARD:          0	MERGED:          0	TO_CACHE:    2932125
L2C WQ	ACCESS:     203710	FORWARD:         87	MERGED:          0	TO_CACHE:     203710
L2C PQ	ACCESS:     302646	FORWARD:          0	MERGED:          0	TO_CACHE:     302643

L2C Instructions Evicting Data 40855
L2C Translations Evicting Data 28138
L2C Data Evicting Data 558695
L2C Instructions Evicting Instructions 2351
L2C Translations Evicting Instructions 2483
L2C Data Evicting Instructions 40751
L2C Instructions Evicting Translations 2153
L2C Translations Evicting Translations 1230
L2C Data Evicting Translations 28068
L2C Dense regions hint from L2: 0
PSCL5 TOTAL     ACCESS:    1181612  HIT:    1181612  MISS:          0  HIT %:        100  MISS %:          0   MPKI: 0
PSCL5 LOAD TRANSLATION ACCESS:      86333  HIT:      86333  MISS:          0  HIT %:        100  MISS %:          0   MPKI: 0
PSCL5 TRANSLATION FROM L1D PREFETCHER ACCESS:    1095279  HIT:    1095279  MISS:          0  HIT %:        100  MISS %:          0   MPKI: 0
PSCL5 PREFETCH  REQUESTED:          0  ISSUED:          0  USEFUL:          0  USELESS:          0
PSCL5 USEFUL LOAD PREFETCHES:          0 PREFETCH ISSUED TO LOWER LEVEL:          0  ACCURACY: -nan
PSCL5 TIMELY PREFETCHES:          0 LATE PREFETCHES: 0 DROPPED PREFETCHES: 0
PSCL5 PREFETCHES SAME FILL-ORIGIN LEVEL: 0 DIFFERENT FILL-ORIGIN LEVEL: 0

PSCL4 TOTAL     ACCESS:    1176423  HIT:    1176279  MISS:        144  HIT %:    99.9878  MISS %:  0.0122405   MPKI: 0.00072
PSCL4 LOAD TRANSLATION ACCESS:      83730  HIT:      83586  MISS:        144  HIT %:     99.828  MISS %:   0.171981   MPKI: 0.00072
PSCL4 TRANSLATION FROM L1D PREFETCHER ACCESS:    1092693  HIT:    1092693  MISS:          0  HIT %:        100  MISS %:          0   MPKI: 0
PSCL4 PREFETCH  REQUESTED:          0  ISSUED:          0  USEFUL:          0  USELESS:          0
PSCL4 USEFUL LOAD PREFETCHES:          0 PREFETCH ISSUED TO LOWER LEVEL:          0  ACCURACY: -nan
PSCL4 TIMELY PREFETCHES:          0 LATE PREFETCHES: 0 DROPPED PREFETCHES: 0
PSCL4 PREFETCHES SAME FILL-ORIGIN LEVEL: 0 DIFFERENT FILL-ORIGIN LEVEL: 0

PSCL3 TOTAL     ACCESS:    1177254  HIT:    1176837  MISS:        417  HIT %:    99.9646  MISS %:  0.0354214   MPKI: 0.002085
PSCL3 LOAD TRANSLATION ACCESS:      86042  HIT:      85625  MISS:        417  HIT %:    99.5154  MISS %:   0.484647   MPKI: 0.002085
PSCL3 TRANSLATION FROM L1D PREFETCHER ACCESS:    1091212  HIT:    1091212  MISS:          0  HIT %:        100  MISS %:          0   MPKI: 0
PSCL3 PREFETCH  REQUESTED:          0  ISSUED:          0  USEFUL:          0  USELESS:          0
PSCL3 USEFUL LOAD PREFETCHES:          0 PREFETCH ISSUED TO LOWER LEVEL:          0  ACCURACY: -nan
PSCL3 TIMELY PREFETCHES:          0 LATE PREFETCHES: 0 DROPPED PREFETCHES: 0
PSCL3 PREFETCHES SAME FILL-ORIGIN LEVEL: 0 DIFFERENT FILL-ORIGIN LEVEL: 0

PSCL2 TOTAL     ACCESS:     621508  HIT:     584539  MISS:      36969  HIT %:    94.0517  MISS %:    5.94827   MPKI: 0.184845
PSCL2 LOAD TRANSLATION ACCESS:      86456  HIT:      49487  MISS:      36969  HIT %:    57.2395  MISS %:    42.7605   MPKI: 0.184845
PSCL2 TRANSLATION FROM L1D PREFETCHER ACCESS:     535052  HIT:     535052  MISS:          0  HIT %:        100  MISS %:          0   MPKI: 0
PSCL2 PREFETCH  REQUESTED:          0  ISSUED:          0  USEFUL:          0  USELESS:          0
PSCL2 USEFUL LOAD PREFETCHES:          0 PREFETCH ISSUED TO LOWER LEVEL:          0  ACCURACY: -nan
PSCL2 TIMELY PREFETCHES:          0 LATE PREFETCHES: 0 DROPPED PREFETCHES: 0
PSCL2 PREFETCHES SAME FILL-ORIGIN LEVEL: 0 DIFFERENT FILL-ORIGIN LEVEL: 0

LLC TOTAL     ACCESS:     877618  HIT:     465130  MISS:     412488  HIT %:    52.9991  MISS %:    47.0009   MPKI: 2.06244
LLC LOAD      ACCESS:     321192  HIT:     127893  MISS:     193299  HIT %:    39.8182  MISS %:    60.1818   MPKI: 0.966495
LLC RFO       ACCESS:     130257  HIT:      76115  MISS:      54142  HIT %:    58.4345  MISS %:    41.5655   MPKI: 0.27071
LLC PREFETCH  ACCESS:     221424  HIT:      71319  MISS:     150105  HIT %:    32.2092  MISS %:    67.7908   MPKI: 0.750525
AGUS PREFETCH L1 MISS: 0
LLC WRITEBACK ACCESS:     172894  HIT:     160895  MISS:      11999  HIT %:    93.0599  MISS %:    6.94009   MPKI: 0.059995
LLC LOAD TRANSLATION ACCESS:      31185  HIT:      28519  MISS:       2666  HIT %:     91.451  MISS %:    8.54898   MPKI: 0.01333
LLC TRANSLATION FROM L1D PREFETCHER ACCESS:        666  HIT:        389  MISS:        277  HIT %:    58.4084  MISS %:    41.5916   MPKI: 0.001385
LLC PREFETCH  REQUESTED:          0  ISSUED:          0  USEFUL:       3179  USELESS:     151379
LLC USEFUL LOAD PREFETCHES:       3179 PREFETCH ISSUED TO LOWER LEVEL:     150105  ACCURACY: 2.11785
LLC TIMELY PREFETCHES:       3179 LATE PREFETCHES: 0 DROPPED PREFETCHES: 0
LLC PREFETCHES SAME FILL-ORIGIN LEVEL: 0 DIFFERENT FILL-ORIGIN LEVEL: 0
LLC AVERAGE MISS LATENCY: 150.806 cycles
LLC RQ	ACCESS:     483300	FORWARD:          0	MERGED:          0	TO_CACHE:     483300
LLC WQ	ACCESS:     172894	FORWARD:          0	MERGED:          0	TO_CACHE:     172894
LLC PQ	ACCESS:     221424	FORWARD:          0	MERGED:          0	TO_CACHE:     221424

LLC Dense regions hint to LLC: 0

RAW hits: 2362707
Loads Generated: 51915376
Loads sent to L1D: 49552688
Stores Generated: 24205900
Stores sent to L1D: 24205930
Major fault: 0 Minor fault: 6265
Allocated PAGES: 6265
ucb ended

DRAM Statistics
 CHANNEL 0
 RQ ROW_BUFFER_HIT:      87727  ROW_BUFFER_MISS:     312721
 DBUS_CONGESTED:        363
 WQ ROW_BUFFER_HIT:      12169  ROW_BUFFER_MISS:      54060  FULL:          0

 AVG_CONGESTED_CYCLE: 5
 All warmup complete: 2
Channel 0 Bank busy for read cycles: 0
Channel 0 Bank busy for write cycles: 0
Channel 0
Rank 0
0banks busy for read cycles: 240361476
0banks busy for write cycles: 32410
1banks busy for read cycles: 12148474
1banks busy for write cycles: 5137221
2banks busy for read cycles: 13243286
2banks busy for write cycles: 1443984
3banks busy for read cycles: 1024514
3banks busy for write cycles: 374943
4banks busy for read cycles: 501930
4banks busy for write cycles: 157090
5banks busy for read cycles: 372437
5banks busy for write cycles: 96857
6banks busy for read cycles: 316348
6banks busy for write cycles: 89403
7banks busy for read cycles: 238399
7banks busy for write cycles: 111355
8banks busy for read cycles: 269376
8banks busy for write cycles: 201544

CPU 0 Branch Prediction Accuracy: 99.7822% MPKI: 0.397295 Average ROB Occupancy at Mispredict: 19.2651
Branch types
NOT_BRANCH: 163510874 81.7554%
BRANCH_DIRECT_JUMP: 2284609 1.1423%
BRANCH_INDIRECT: 12524838 6.26242%
BRANCH_CONDITIONAL: 14124222 7.06211%
BRANCH_DIRECT_CALL: 3327862 1.66393%
BRANCH_INDIRECT_CALL: 449728 0.224864%
BRANCH_RETURN: 3777619 1.88881%
BRANCH_OTHER: 0 0%

DRAM PAGES: 1048576
Allocated PAGES: 6265
