
*** ChampSim Multicore Out-of-Order Simulator ***

Warmup Instructions: 50000000
Simulation Instructions: 200000000
Number of CPUs: 1
LLC sets: 2048
LLC ways: 16
Off-chip DRAM Size: 4096 MB Channels: 1 Width: 64-bit Data Rate: 6400 MT/s
CPU 0 runs traces/spec2k17/srv_27.champsimtrace.xz
.xz
BTB has LRU replacement policy
ITLB has LRU replacement policy
DTLB has LRU replacement policy
STLB has LRU replacement policy
L1I has LRU replacement policy
L1D has LRU replacement policy
Initialize SRRIP state for L2C
Initialize DRRIP state for LLC
Offset table: -6 -5 -4 -3 -2 -1 1 2 3 4 5 6 
Offset table size: 12

Printing Sanity: 1

Round Robin Complete

Offset reward: 447 680 822 679 751 1359 1605 581 991 581 352 181 
Offset reward size: 12

Offset count: 1 1 1 1 1 1 1 1 1 1 1 1 
Offset count size: 12

Printing Sanity: 2
n total: 12
Writing in data1.txt 

Writing done! 

Heartbeat CPU 0 instructions: 10000001 cycles: 2815272 heartbeat IPC: 3.55206 cumulative IPC: 3.55206 (Simulation time: 0 hr 0 min 25 sec) 
Heartbeat CPU 0 instructions: 20000002 cycles: 5629990 heartbeat IPC: 3.55275 cumulative IPC: 3.5524 (Simulation time: 0 hr 0 min 50 sec) 
Heartbeat CPU 0 instructions: 30000001 cycles: 8442479 heartbeat IPC: 3.55557 cumulative IPC: 3.55346 (Simulation time: 0 hr 1 min 15 sec) 
*** Reached end of trace for Core: 0 Repeating trace: traces/spec2k17/srv_27.champsimtrace.xz
Heartbeat CPU 0 instructions: 40000001 cycles: 11256310 heartbeat IPC: 3.55387 cumulative IPC: 3.55356 (Simulation time: 0 hr 1 min 40 sec) 
Heartbeat CPU 0 instructions: 50000000 cycles: 14069197 heartbeat IPC: 3.55507 cumulative IPC: 3.55386 (Simulation time: 0 hr 2 min 5 sec) 

Warmup complete CPU 0 instructions: 50000004 cycles: 14069198 (Simulation time: 0 hr 2 min 5 sec) 

Heartbeat CPU 0 instructions: 60000002 cycles: 27840364 heartbeat IPC: 0.726155 cumulative IPC: 0.726155 (Simulation time: 0 hr 2 min 36 sec) 
*** Reached end of trace for Core: 0 Repeating trace: traces/spec2k17/srv_27.champsimtrace.xz
Heartbeat CPU 0 instructions: 70000003 cycles: 41768119 heartbeat IPC: 0.717991 cumulative IPC: 0.72205 (Simulation time: 0 hr 3 min 8 sec) 
Heartbeat CPU 0 instructions: 80000000 cycles: 55631760 heartbeat IPC: 0.721311 cumulative IPC: 0.721803 (Simulation time: 0 hr 3 min 39 sec) 
Heartbeat CPU 0 instructions: 90000000 cycles: 69325678 heartbeat IPC: 0.730251 cumulative IPC: 0.723897 (Simulation time: 0 hr 4 min 11 sec) 
*** Reached end of trace for Core: 0 Repeating trace: traces/spec2k17/srv_27.champsimtrace.xz
Heartbeat CPU 0 instructions: 100000000 cycles: 83255917 heartbeat IPC: 0.717863 cumulative IPC: 0.722682 (Simulation time: 0 hr 4 min 42 sec) 
Heartbeat CPU 0 instructions: 110000000 cycles: 97021145 heartbeat IPC: 0.726468 cumulative IPC: 0.72331 (Simulation time: 0 hr 5 min 14 sec) 
Heartbeat CPU 0 instructions: 120000000 cycles: 110742856 heartbeat IPC: 0.728772 cumulative IPC: 0.724086 (Simulation time: 0 hr 5 min 44 sec) 
*** Reached end of trace for Core: 0 Repeating trace: traces/spec2k17/srv_27.champsimtrace.xz
Heartbeat CPU 0 instructions: 130000001 cycles: 124714072 heartbeat IPC: 0.715757 cumulative IPC: 0.723034 (Simulation time: 0 hr 6 min 16 sec) 
Heartbeat CPU 0 instructions: 140000001 cycles: 138169356 heartbeat IPC: 0.743202 cumulative IPC: 0.725221 (Simulation time: 0 hr 6 min 46 sec) 
Heartbeat CPU 0 instructions: 150000001 cycles: 152143248 heartbeat IPC: 0.71562 cumulative IPC: 0.724249 (Simulation time: 0 hr 7 min 18 sec) 
*** Reached end of trace for Core: 0 Repeating trace: traces/spec2k17/srv_27.champsimtrace.xz
Heartbeat CPU 0 instructions: 160000002 cycles: 166040679 heartbeat IPC: 0.719558 cumulative IPC: 0.72382 (Simulation time: 0 hr 7 min 49 sec) 
Heartbeat CPU 0 instructions: 170000001 cycles: 179570279 heartbeat IPC: 0.73912 cumulative IPC: 0.725071 (Simulation time: 0 hr 8 min 20 sec) 
Heartbeat CPU 0 instructions: 180000001 cycles: 193386180 heartbeat IPC: 0.723804 cumulative IPC: 0.724973 (Simulation time: 0 hr 8 min 52 sec) 
Heartbeat CPU 0 instructions: 190000002 cycles: 206938320 heartbeat IPC: 0.737891 cumulative IPC: 0.725881 (Simulation time: 0 hr 9 min 24 sec) 
*** Reached end of trace for Core: 0 Repeating trace: traces/spec2k17/srv_27.champsimtrace.xz
Heartbeat CPU 0 instructions: 200000003 cycles: 220161760 heartbeat IPC: 0.756233 cumulative IPC: 0.727828 (Simulation time: 0 hr 9 min 55 sec) 
Heartbeat CPU 0 instructions: 210000002 cycles: 233912694 heartbeat IPC: 0.727223 cumulative IPC: 0.72779 (Simulation time: 0 hr 10 min 26 sec) 
Heartbeat CPU 0 instructions: 220000000 cycles: 247245101 heartbeat IPC: 0.750052 cumulative IPC: 0.729063 (Simulation time: 0 hr 10 min 57 sec) 
*** Reached end of trace for Core: 0 Repeating trace: traces/spec2k17/srv_27.champsimtrace.xz
Heartbeat CPU 0 instructions: 230000001 cycles: 260676137 heartbeat IPC: 0.744544 cumulative IPC: 0.729906 (Simulation time: 0 hr 11 min 28 sec) 
Heartbeat CPU 0 instructions: 240000003 cycles: 274348058 heartbeat IPC: 0.731426 cumulative IPC: 0.729986 (Simulation time: 0 hr 11 min 59 sec) 
Heartbeat CPU 0 instructions: 250000000 cycles: 287839463 heartbeat IPC: 0.741212 cumulative IPC: 0.73054 (Simulation time: 0 hr 12 min 29 sec) 
Finished CPU 0 instructions: 200000002 cycles: 273770285 cumulative IPC: 0.73054 (Simulation time: 0 hr 12 min 29 sec) 

ChampSim completed all CPUs

Region of Interest Statistics

CPU 0 cumulative IPC: 0.73054 instructions: 200000002 cycles: 273770285
ITLB TOTAL     ACCESS:   32431920  HIT:   32329626  MISS:     102294  HIT %:    99.6846  MISS %:   0.315411   MPKI: 0.51147
ITLB LOAD TRANSLATION ACCESS:   32431920  HIT:   32329626  MISS:     102294  HIT %:    99.6846  MISS %:   0.315411   MPKI: 0.51147
ITLB PREFETCH  REQUESTED:          0  ISSUED:          0  USEFUL:          0  USELESS:          0
ITLB USEFUL LOAD PREFETCHES:          0 PREFETCH ISSUED TO LOWER LEVEL:          0  ACCURACY: -nan
ITLB TIMELY PREFETCHES:          0 LATE PREFETCHES: 0 DROPPED PREFETCHES: 0
ITLB PREFETCHES SAME FILL-ORIGIN LEVEL: 0 DIFFERENT FILL-ORIGIN LEVEL: 0
ITLB AVERAGE MISS LATENCY: 10.7024 cycles
ITLB RQ	ACCESS:   38228965	FORWARD:          0	MERGED:    5763521	TO_CACHE:   32465444

DTLB TOTAL     ACCESS:   40767255  HIT:   38987396  MISS:    1779859  HIT %:    95.6341  MISS %:     4.3659   MPKI: 8.89929
DTLB LOAD TRANSLATION ACCESS:   40767255  HIT:   38987396  MISS:    1779859  HIT %:    95.6341  MISS %:     4.3659   MPKI: 8.89929
DTLB PREFETCH  REQUESTED:          0  ISSUED:          0  USEFUL:          0  USELESS:          0
DTLB USEFUL LOAD PREFETCHES:          0 PREFETCH ISSUED TO LOWER LEVEL:          0  ACCURACY: -nan
DTLB TIMELY PREFETCHES:          0 LATE PREFETCHES: 0 DROPPED PREFETCHES: 0
DTLB PREFETCHES SAME FILL-ORIGIN LEVEL: 0 DIFFERENT FILL-ORIGIN LEVEL: 0
DTLB AVERAGE MISS LATENCY: 10.7616 cycles
DTLB RQ	ACCESS:   54735775	FORWARD:          0	MERGED:   13768555	TO_CACHE:   40967220

STLB TOTAL     ACCESS:   24519707  HIT:   24433419  MISS:      86288  HIT %:    99.6481  MISS %:   0.351913   MPKI: 0.43144
STLB LOAD TRANSLATION ACCESS:    1882153  HIT:    1797409  MISS:      84744  HIT %:    95.4975  MISS %:     4.5025   MPKI: 0.42372
STLB TRANSLATION FROM L1D PREFETCHER ACCESS:   22637554  HIT:   22636010  MISS:       1544  HIT %:    99.9932  MISS %: 0.00682052   MPKI: 0.00772
STLB PREFETCH  REQUESTED:          0  ISSUED:          0  USEFUL:       1284  USELESS:        259
STLB USEFUL LOAD PREFETCHES:       1284 PREFETCH ISSUED TO LOWER LEVEL:          0  ACCURACY: inf
STLB TIMELY PREFETCHES:       1284 LATE PREFETCHES: 123 DROPPED PREFETCHES: 1132637
STLB PREFETCHES SAME FILL-ORIGIN LEVEL: 0 DIFFERENT FILL-ORIGIN LEVEL: 0
STLB AVERAGE MISS LATENCY: 10142.3 cycles
STLB RQ	ACCESS:   30624924	FORWARD:          0	MERGED:    4972335	TO_CACHE:   25652589

STLB Hit, L1D data hit: 0
STLB Hit, L2C data hit: 0
STLB Hit, LLC data hit: 0
STLB Hit, LLC data miss: 0
STLB STLB hints to L2: 0
L1D TOTAL     ACCESS:   81626902  HIT:   80909544  MISS:     717358  HIT %:    99.1212  MISS %:   0.878825   MPKI: 3.58679
L1D LOAD      ACCESS:   30776325  HIT:   30442209  MISS:     334116  HIT %:    98.9144  MISS %:    1.08563   MPKI: 1.67058
L1D RFO       ACCESS:   23419338  HIT:   23306699  MISS:     112639  HIT %:     99.519  MISS %:   0.480966   MPKI: 0.563195
L1D PREFETCH  ACCESS:   27431239  HIT:   27160636  MISS:     270603  HIT %:    99.0135  MISS %:   0.986477   MPKI: 1.35301
AGUS PREFETCH L1 MISS: 0
L1D PREFETCH  REQUESTED:   59609012  ISSUED:   59602770  USEFUL:      48493  USELESS:     222183
L1D USEFUL LOAD PREFETCHES:      48493 PREFETCH ISSUED TO LOWER LEVEL:     294371  ACCURACY: 16.4734
L1D TIMELY PREFETCHES:      48493 LATE PREFETCHES: 23246 DROPPED PREFETCHES: 1132925
L1D PREFETCHES SAME FILL-ORIGIN LEVEL: 294371 DIFFERENT FILL-ORIGIN LEVEL: 0
L1D AVERAGE MISS LATENCY: 5.31233e+06 cycles
L1D RQ	ACCESS:   49503182	FORWARD:          0	MERGED:   18515895	TO_CACHE:   30866242
L1D WQ	ACCESS:   24124410	FORWARD:     213533	MERGED:     254877	TO_CACHE:   23869533
L1D PQ	ACCESS:   30859999	FORWARD:          0	MERGED:    2024740	TO_CACHE:   28742771

L1D UNIQUE REGIONS ACCESSED: 0
L1D REGIONS CONFLICTS: 0
L1D Cross Page Prefetch Requests: 2567310
L1D Same Page Prefetch Requests: 35969745
L1D ROI Sum of L1D PQ occupancy: 447810878
L1D PREFETCHES PUSHED FROM L2C: 0
L1I TOTAL     ACCESS:   38045177  HIT:   37437716  MISS:     607461  HIT %:    98.4033  MISS %:    1.59668   MPKI: 3.0373
L1I LOAD      ACCESS:   38045177  HIT:   37437716  MISS:     607461  HIT %:    98.4033  MISS %:    1.59668   MPKI: 3.0373
L1I PREFETCH  REQUESTED:          0  ISSUED:          0  USEFUL:          0  USELESS:          0
L1I USEFUL LOAD PREFETCHES:          0 PREFETCH ISSUED TO LOWER LEVEL:          0  ACCURACY: -nan
L1I TIMELY PREFETCHES:          0 LATE PREFETCHES: 0 DROPPED PREFETCHES: 0
L1I PREFETCHES SAME FILL-ORIGIN LEVEL: 0 DIFFERENT FILL-ORIGIN LEVEL: 0
L1I AVERAGE MISS LATENCY: 16.803 cycles
L1I RQ	ACCESS:   60443089	FORWARD:          0	MERGED:   22214124	TO_CACHE:   38228965

BTB TOTAL     ACCESS:   29347733  HIT:   27692669  MISS:    1655064  HIT %:    94.3605  MISS %:     5.6395   MPKI: 8.27532
BTB BRANCH_DIRECT_JUMP	ACCESS:    2290071  HIT:    2288950  MISS:       1121
BTB BRANCH_INDIRECT	ACCESS:   12563222  HIT:   12018859  MISS:     544363
BTB BRANCH_CONDITIONAL	ACCESS:    6926945  HIT:    6925297  MISS:       1648
BTB BRANCH_DIRECT_CALL	ACCESS:    3333321  HIT:    3330170  MISS:       3151
BTB BRANCH_INDIRECT_CALL	ACCESS:     450445  HIT:     256847  MISS:     193598
BTB BRANCH_RETURN	ACCESS:    3783729  HIT:    2872546  MISS:     911183
BTB BRANCH_OTHER ACCESS:          0  HIT:          0  MISS:          0

L2C TOTAL     ACCESS:    3352041  HIT:    2703107  MISS:     648934  HIT %:    80.6406  MISS %:    19.3594   MPKI: 3.24467
L2C LOAD      ACCESS:     918270  HIT:     628509  MISS:     289761  HIT %:    68.4449  MISS %:    31.5551   MPKI: 1.4488
L2C DATA LOAD MPKI: 1.26091
L2C INSTRUCTION LOAD MPKI: 0.187895
L2C RFO       ACCESS:     112106  HIT:      10955  MISS:     101151  HIT %:      9.772  MISS %:     90.228   MPKI: 0.505755
L2C PREFETCH  ACCESS:     294371  HIT:      69417  MISS:     224954  HIT %:    23.5815  MISS %:    76.4185   MPKI: 1.12477
AGUS PREFETCH L1 MISS: 0
L2C DATA PREFETCH MPKI: 1.12477
L2C INSTRUCTION PREFETCH MPKI: 0
L2C WRITEBACK ACCESS:     163021  HIT:     159350  MISS:       3671  HIT %:    97.7481  MISS %:    2.25186   MPKI: 0.018355
L2C LOAD TRANSLATION ACCESS:     121735  HIT:      92887  MISS:      28848  HIT %:    76.3026  MISS %:    23.6974   MPKI: 0.14424
L2C TRANSLATION FROM L1D PREFETCHER ACCESS:    1742538  HIT:    1741989  MISS:        549  HIT %:    99.9685  MISS %:  0.0315058   MPKI: 0.002745
L2C PREFETCH  REQUESTED:          0  ISSUED:          0  USEFUL:       5523  USELESS:     220101
L2C USEFUL LOAD PREFETCHES:       5523 PREFETCH ISSUED TO LOWER LEVEL:     224954  ACCURACY: 2.45517
L2C TIMELY PREFETCHES:       5523 LATE PREFETCHES: 0 DROPPED PREFETCHES: 0
L2C PREFETCHES SAME FILL-ORIGIN LEVEL: 0 DIFFERENT FILL-ORIGIN LEVEL: 0
L2C AVERAGE MISS LATENCY: 115.627 cycles
L2C RQ	ACCESS:    2894721	FORWARD:          0	MERGED:          0	TO_CACHE:    2894649
L2C WQ	ACCESS:     163021	FORWARD:         72	MERGED:          0	TO_CACHE:     163021
L2C PQ	ACCESS:     294371	FORWARD:          0	MERGED:          0	TO_CACHE:     294371

L2C Instructions Evicting Data 34356
L2C Translations Evicting Data 26026
L2C Data Evicting Data 518125
L2C Instructions Evicting Instructions 1702
L2C Translations Evicting Instructions 1939
L2C Data Evicting Instructions 34110
L2C Instructions Evicting Translations 1521
L2C Translations Evicting Translations 1432
L2C Data Evicting Translations 26052
L2C Dense regions hint from L2: 0
PSCL5 TOTAL     ACCESS:    1218925  HIT:    1218925  MISS:          0  HIT %:        100  MISS %:          0   MPKI: 0
PSCL5 LOAD TRANSLATION ACCESS:      84621  HIT:      84621  MISS:          0  HIT %:        100  MISS %:          0   MPKI: 0
PSCL5 TRANSLATION FROM L1D PREFETCHER ACCESS:    1134304  HIT:    1134304  MISS:          0  HIT %:        100  MISS %:          0   MPKI: 0
PSCL5 PREFETCH  REQUESTED:          0  ISSUED:          0  USEFUL:          0  USELESS:          0
PSCL5 USEFUL LOAD PREFETCHES:          0 PREFETCH ISSUED TO LOWER LEVEL:          0  ACCURACY: -nan
PSCL5 TIMELY PREFETCHES:          0 LATE PREFETCHES: 0 DROPPED PREFETCHES: 0
PSCL5 PREFETCHES SAME FILL-ORIGIN LEVEL: 0 DIFFERENT FILL-ORIGIN LEVEL: 0

PSCL4 TOTAL     ACCESS:    1214437  HIT:    1214310  MISS:        127  HIT %:    99.9895  MISS %:  0.0104575   MPKI: 0.000635
PSCL4 LOAD TRANSLATION ACCESS:      82527  HIT:      82400  MISS:        127  HIT %:    99.8461  MISS %:   0.153889   MPKI: 0.000635
PSCL4 TRANSLATION FROM L1D PREFETCHER ACCESS:    1131910  HIT:    1131910  MISS:          0  HIT %:        100  MISS %:          0   MPKI: 0
PSCL4 PREFETCH  REQUESTED:          0  ISSUED:          0  USEFUL:          0  USELESS:          0
PSCL4 USEFUL LOAD PREFETCHES:          0 PREFETCH ISSUED TO LOWER LEVEL:          0  ACCURACY: -nan
PSCL4 TIMELY PREFETCHES:          0 LATE PREFETCHES: 0 DROPPED PREFETCHES: 0
PSCL4 PREFETCHES SAME FILL-ORIGIN LEVEL: 0 DIFFERENT FILL-ORIGIN LEVEL: 0

PSCL3 TOTAL     ACCESS:    1215166  HIT:    1214807  MISS:        359  HIT %:    99.9705  MISS %:  0.0295433   MPKI: 0.001795
PSCL3 LOAD TRANSLATION ACCESS:      84237  HIT:      83878  MISS:        359  HIT %:    99.5738  MISS %:   0.426179   MPKI: 0.001795
PSCL3 TRANSLATION FROM L1D PREFETCHER ACCESS:    1130929  HIT:    1130929  MISS:          0  HIT %:        100  MISS %:          0   MPKI: 0
PSCL3 PREFETCH  REQUESTED:          0  ISSUED:          0  USEFUL:          0  USELESS:          0
PSCL3 USEFUL LOAD PREFETCHES:          0 PREFETCH ISSUED TO LOWER LEVEL:          0  ACCURACY: -nan
PSCL3 TIMELY PREFETCHES:          0 LATE PREFETCHES: 0 DROPPED PREFETCHES: 0
PSCL3 PREFETCHES SAME FILL-ORIGIN LEVEL: 0 DIFFERENT FILL-ORIGIN LEVEL: 0

PSCL2 TOTAL     ACCESS:     611828  HIT:     575063  MISS:      36765  HIT %:     93.991  MISS %:    6.00904   MPKI: 0.183825
PSCL2 LOAD TRANSLATION ACCESS:      84736  HIT:      47971  MISS:      36765  HIT %:    56.6123  MISS %:    43.3877   MPKI: 0.183825
PSCL2 TRANSLATION FROM L1D PREFETCHER ACCESS:     527092  HIT:     527092  MISS:          0  HIT %:        100  MISS %:          0   MPKI: 0
PSCL2 PREFETCH  REQUESTED:          0  ISSUED:          0  USEFUL:          0  USELESS:          0
PSCL2 USEFUL LOAD PREFETCHES:          0 PREFETCH ISSUED TO LOWER LEVEL:          0  ACCURACY: -nan
PSCL2 TIMELY PREFETCHES:          0 LATE PREFETCHES: 0 DROPPED PREFETCHES: 0
PSCL2 PREFETCHES SAME FILL-ORIGIN LEVEL: 0 DIFFERENT FILL-ORIGIN LEVEL: 0

LLC TOTAL     ACCESS:     785932  HIT:     424130  MISS:     361802  HIT %:    53.9652  MISS %:    46.0348   MPKI: 1.80901
LLC LOAD      ACCESS:     289761  HIT:     120569  MISS:     169192  HIT %:    41.6098  MISS %:    58.3902   MPKI: 0.84596
LLC RFO       ACCESS:     101151  HIT:      65854  MISS:      35297  HIT %:    65.1046  MISS %:    34.8954   MPKI: 0.176485
LLC PREFETCH  ACCESS:     224954  HIT:      76386  MISS:     148568  HIT %:    33.9563  MISS %:    66.0437   MPKI: 0.74284
AGUS PREFETCH L1 MISS: 0
LLC WRITEBACK ACCESS:     140669  HIT:     134392  MISS:       6277  HIT %:    95.5378  MISS %:    4.46225   MPKI: 0.031385
LLC LOAD TRANSLATION ACCESS:      28848  HIT:      26557  MISS:       2291  HIT %:    92.0584  MISS %:    7.94163   MPKI: 0.011455
LLC TRANSLATION FROM L1D PREFETCHER ACCESS:        549  HIT:        372  MISS:        177  HIT %:    67.7596  MISS %:    32.2404   MPKI: 0.000885
LLC PREFETCH  REQUESTED:          0  ISSUED:          0  USEFUL:       3627  USELESS:     148515
LLC USEFUL LOAD PREFETCHES:       3627 PREFETCH ISSUED TO LOWER LEVEL:     148568  ACCURACY: 2.44131
LLC TIMELY PREFETCHES:       3627 LATE PREFETCHES: 0 DROPPED PREFETCHES: 0
LLC PREFETCHES SAME FILL-ORIGIN LEVEL: 0 DIFFERENT FILL-ORIGIN LEVEL: 0
LLC AVERAGE MISS LATENCY: 153.883 cycles
LLC RQ	ACCESS:     420309	FORWARD:          0	MERGED:          0	TO_CACHE:     420309
LLC WQ	ACCESS:     140669	FORWARD:          0	MERGED:          0	TO_CACHE:     140669
LLC PQ	ACCESS:     224954	FORWARD:          0	MERGED:          0	TO_CACHE:     224954

LLC Dense regions hint to LLC: 0

RAW hits: 2359770
Loads Generated: 51862954
Loads sent to L1D: 49503182
Stores Generated: 24124397
Stores sent to L1D: 24124410
Major fault: 0 Minor fault: 6082
Allocated PAGES: 6082
ucb ended

DRAM Statistics
 CHANNEL 0
 RQ ROW_BUFFER_HIT:      67355  ROW_BUFFER_MISS:     288142
 DBUS_CONGESTED:        235
 WQ ROW_BUFFER_HIT:       8809  ROW_BUFFER_MISS:      38228  FULL:          0

 AVG_CONGESTED_CYCLE: 5
 All warmup complete: 2
Channel 0 Bank busy for read cycles: 0
Channel 0 Bank busy for write cycles: 0
Channel 0
Rank 0
0banks busy for read cycles: 241234140
0banks busy for write cycles: 25933
1banks busy for read cycles: 11974433
1banks busy for write cycles: 4199371
2banks busy for read cycles: 12505645
2banks busy for write cycles: 1032450
3banks busy for read cycles: 918305
3banks busy for write cycles: 254512
4banks busy for read cycles: 386727
4banks busy for write cycles: 99579
5banks busy for read cycles: 274034
5banks busy for write cycles: 68229
6banks busy for read cycles: 230041
6banks busy for write cycles: 60117
7banks busy for read cycles: 172609
7banks busy for write cycles: 65659
8banks busy for read cycles: 168075
8banks busy for write cycles: 100427

CPU 0 Branch Prediction Accuracy: 99.7868% MPKI: 0.389745 Average ROB Occupancy at Mispredict: 18.8663
Branch types
NOT_BRANCH: 163431817 81.7159%
BRANCH_DIRECT_JUMP: 2290071 1.14504%
BRANCH_INDIRECT: 12563222 6.28161%
BRANCH_CONDITIONAL: 14147089 7.07354%
BRANCH_DIRECT_CALL: 3333321 1.66666%
BRANCH_INDIRECT_CALL: 450445 0.225222%
BRANCH_RETURN: 3783729 1.89186%
BRANCH_OTHER: 0 0%

DRAM PAGES: 1048576
Allocated PAGES: 6082
