
*** ChampSim Multicore Out-of-Order Simulator ***

Warmup Instructions: 50000000
Simulation Instructions: 200000000
Number of CPUs: 1
LLC sets: 2048
LLC ways: 16
Off-chip DRAM Size: 4096 MB Channels: 1 Width: 64-bit Data Rate: 6400 MT/s
CPU 0 runs traces/spec2k17/server_022.champsimtrace.xz
.xz
BTB has LRU replacement policy
ITLB has LRU replacement policy
DTLB has LRU replacement policy
STLB has LRU replacement policy
L1I has LRU replacement policy
L1D has LRU replacement policy
Initialize SRRIP state for L2C
Initialize DRRIP state for LLC
Heartbeat CPU 0 instructions: 10000001 cycles: 2941888 heartbeat IPC: 3.39918 cumulative IPC: 3.39918 (Simulation time: 0 hr 0 min 48 sec) 
Heartbeat CPU 0 instructions: 20000003 cycles: 5887040 heartbeat IPC: 3.39541 cumulative IPC: 3.39729 (Simulation time: 0 hr 1 min 34 sec) 
Heartbeat CPU 0 instructions: 30000000 cycles: 8825996 heartbeat IPC: 3.40257 cumulative IPC: 3.39905 (Simulation time: 0 hr 2 min 23 sec) 
Heartbeat CPU 0 instructions: 40000002 cycles: 11769155 heartbeat IPC: 3.39771 cumulative IPC: 3.39871 (Simulation time: 0 hr 3 min 6 sec) 
Heartbeat CPU 0 instructions: 50000002 cycles: 14711463 heartbeat IPC: 3.39869 cumulative IPC: 3.39871 (Simulation time: 0 hr 3 min 46 sec) 

Warmup complete CPU 0 instructions: 50000002 cycles: 14711463 (Simulation time: 0 hr 3 min 46 sec) 

Heartbeat CPU 0 instructions: 60000002 cycles: 33438410 heartbeat IPC: 0.53399 cumulative IPC: 0.53399 (Simulation time: 0 hr 4 min 54 sec) 
Heartbeat CPU 0 instructions: 70000000 cycles: 52095074 heartbeat IPC: 0.536001 cumulative IPC: 0.534994 (Simulation time: 0 hr 5 min 58 sec) 
Heartbeat CPU 0 instructions: 80000003 cycles: 70532479 heartbeat IPC: 0.542376 cumulative IPC: 0.537432 (Simulation time: 0 hr 7 min 6 sec) 
Heartbeat CPU 0 instructions: 90000002 cycles: 89085041 heartbeat IPC: 0.539009 cumulative IPC: 0.537825 (Simulation time: 0 hr 8 min 17 sec) 
Heartbeat CPU 0 instructions: 100000000 cycles: 107803112 heartbeat IPC: 0.534243 cumulative IPC: 0.537105 (Simulation time: 0 hr 9 min 21 sec) 
*** Reached end of trace for Core: 0 Repeating trace: traces/spec2k17/server_022.champsimtrace.xz
Heartbeat CPU 0 instructions: 110000000 cycles: 126260607 heartbeat IPC: 0.541785 cumulative IPC: 0.53788 (Simulation time: 0 hr 10 min 32 sec) 
Heartbeat CPU 0 instructions: 120000001 cycles: 144760363 heartbeat IPC: 0.540548 cumulative IPC: 0.538259 (Simulation time: 0 hr 11 min 37 sec) 
Heartbeat CPU 0 instructions: 130000000 cycles: 163189033 heartbeat IPC: 0.542633 cumulative IPC: 0.538802 (Simulation time: 0 hr 12 min 48 sec) 
Heartbeat CPU 0 instructions: 140000000 cycles: 181640981 heartbeat IPC: 0.541948 cumulative IPC: 0.53915 (Simulation time: 0 hr 13 min 59 sec) 
Heartbeat CPU 0 instructions: 150000000 cycles: 200090836 heartbeat IPC: 0.54201 cumulative IPC: 0.539434 (Simulation time: 0 hr 15 min 3 sec) 
Heartbeat CPU 0 instructions: 160000001 cycles: 218748108 heartbeat IPC: 0.535984 cumulative IPC: 0.539119 (Simulation time: 0 hr 16 min 14 sec) 
Heartbeat CPU 0 instructions: 170000002 cycles: 237138857 heartbeat IPC: 0.543752 cumulative IPC: 0.539502 (Simulation time: 0 hr 17 min 20 sec) 
Heartbeat CPU 0 instructions: 180000003 cycles: 255624036 heartbeat IPC: 0.540974 cumulative IPC: 0.539615 (Simulation time: 0 hr 18 min 24 sec) 
Heartbeat CPU 0 instructions: 190000003 cycles: 273901143 heartbeat IPC: 0.547133 cumulative IPC: 0.540145 (Simulation time: 0 hr 19 min 34 sec) 
Heartbeat CPU 0 instructions: 200000002 cycles: 292239160 heartbeat IPC: 0.545315 cumulative IPC: 0.540487 (Simulation time: 0 hr 20 min 39 sec) 
Heartbeat CPU 0 instructions: 210000002 cycles: 310706617 heartbeat IPC: 0.541493 cumulative IPC: 0.540549 (Simulation time: 0 hr 21 min 49 sec) 
*** Reached end of trace for Core: 0 Repeating trace: traces/spec2k17/server_022.champsimtrace.xz
Heartbeat CPU 0 instructions: 220000000 cycles: 329110383 heartbeat IPC: 0.543367 cumulative IPC: 0.540714 (Simulation time: 0 hr 22 min 47 sec) 
Heartbeat CPU 0 instructions: 230000003 cycles: 347568769 heartbeat IPC: 0.541759 cumulative IPC: 0.540772 (Simulation time: 0 hr 23 min 50 sec) 
Heartbeat CPU 0 instructions: 240000000 cycles: 365890567 heartbeat IPC: 0.545798 cumulative IPC: 0.541034 (Simulation time: 0 hr 24 min 57 sec) 
Heartbeat CPU 0 instructions: 250000002 cycles: 384289323 heartbeat IPC: 0.543515 cumulative IPC: 0.541158 (Simulation time: 0 hr 26 min 6 sec) 
Finished CPU 0 instructions: 200000000 cycles: 369577860 cumulative IPC: 0.541158 (Simulation time: 0 hr 26 min 6 sec) 

ChampSim completed all CPUs

Region of Interest Statistics

CPU 0 cumulative IPC: 0.541158 instructions: 200000000 cycles: 369577860
ITLB TOTAL     ACCESS:   33732320  HIT:   32189601  MISS:    1542719  HIT %:    95.4266  MISS %:    4.57342   MPKI: 7.71359
ITLB LOAD TRANSLATION ACCESS:   33732320  HIT:   32189601  MISS:    1542719  HIT %:    95.4266  MISS %:    4.57342   MPKI: 7.71359
ITLB PREFETCH  REQUESTED:          0  ISSUED:          0  USEFUL:          0  USELESS:          0
ITLB USEFUL LOAD PREFETCHES:          0 PREFETCH ISSUED TO LOWER LEVEL:          0  ACCURACY: -nan
ITLB TIMELY PREFETCHES:          0 LATE PREFETCHES: 0 DROPPED PREFETCHES: 0
ITLB PREFETCHES SAME FILL-ORIGIN LEVEL: 0 DIFFERENT FILL-ORIGIN LEVEL: 0
ITLB AVERAGE MISS LATENCY: 9.24189 cycles
ITLB RQ	ACCESS:   40662481	FORWARD:          0	MERGED:    6433818	TO_CACHE:   34228663

DTLB TOTAL     ACCESS:   40450319  HIT:   38926194  MISS:    1524125  HIT %:    96.2321  MISS %:    3.76789   MPKI: 7.62063
DTLB LOAD TRANSLATION ACCESS:   40450319  HIT:   38926194  MISS:    1524125  HIT %:    96.2321  MISS %:    3.76789   MPKI: 7.62063
DTLB PREFETCH  REQUESTED:          0  ISSUED:          0  USEFUL:          0  USELESS:          0
DTLB USEFUL LOAD PREFETCHES:          0 PREFETCH ISSUED TO LOWER LEVEL:          0  ACCURACY: -nan
DTLB TIMELY PREFETCHES:          0 LATE PREFETCHES: 0 DROPPED PREFETCHES: 0
DTLB PREFETCHES SAME FILL-ORIGIN LEVEL: 0 DIFFERENT FILL-ORIGIN LEVEL: 0
DTLB AVERAGE MISS LATENCY: 15.4842 cycles
DTLB RQ	ACCESS:   61447709	FORWARD:          0	MERGED:   20594279	TO_CACHE:   40853430

STLB TOTAL     ACCESS:    4784146  HIT:    4711153  MISS:      72993  HIT %:    98.4743  MISS %:    1.52573   MPKI: 0.364965
STLB LOAD TRANSLATION ACCESS:    3066844  HIT:    2993851  MISS:      72993  HIT %:    97.6199  MISS %:    2.38007   MPKI: 0.364965
STLB TRANSLATION FROM L1D PREFETCHER ACCESS:    1717302  HIT:    1717302  MISS:          0  HIT %:        100  MISS %:          0   MPKI: 0
STLB PREFETCH  REQUESTED:          0  ISSUED:          0  USEFUL:          0  USELESS:          0
STLB USEFUL LOAD PREFETCHES:          0 PREFETCH ISSUED TO LOWER LEVEL:          0  ACCURACY: -nan
STLB TIMELY PREFETCHES:          0 LATE PREFETCHES: 0 DROPPED PREFETCHES: 0
STLB PREFETCHES SAME FILL-ORIGIN LEVEL: 0 DIFFERENT FILL-ORIGIN LEVEL: 0
STLB AVERAGE MISS LATENCY: 140.129 cycles
STLB RQ	ACCESS:    7727150	FORWARD:          0	MERGED:    2943004	TO_CACHE:    4784146

STLB Hit, L1D data hit: 0
STLB Hit, L2C data hit: 0
STLB Hit, LLC data hit: 0
STLB Hit, LLC data miss: 0
STLB STLB hints to L2: 0
L1D TOTAL     ACCESS:   53300464  HIT:   44785124  MISS:    8515340  HIT %:    84.0239  MISS %:    15.9761   MPKI: 42.5767
L1D LOAD      ACCESS:   27105481  HIT:   24751076  MISS:    2354405  HIT %:    91.3139  MISS %:    8.68608   MPKI: 11.772
L1D RFO       ACCESS:   22595035  HIT:   19006495  MISS:    3588540  HIT %:     84.118  MISS %:     15.882   MPKI: 17.9427
L1D PREFETCH  ACCESS:    3599948  HIT:    1027553  MISS:    2572395  HIT %:    28.5436  MISS %:    71.4564   MPKI: 12.862
AGUS PREFETCH L1 MISS: 0
L1D PREFETCH  REQUESTED:    9332273  ISSUED:    9332273  USEFUL:     996078  USELESS:    1576296
L1D USEFUL LOAD PREFETCHES:     996078 PREFETCH ISSUED TO LOWER LEVEL:    3494237  ACCURACY: 28.5063
L1D TIMELY PREFETCHES:     996078 LATE PREFETCHES: 331949 DROPPED PREFETCHES: 0
L1D PREFETCHES SAME FILL-ORIGIN LEVEL: 2905721 DIFFERENT FILL-ORIGIN LEVEL: 588516
L1D AVERAGE MISS LATENCY: 7.83586e+06 cycles
L1D RQ	ACCESS:   45400981	FORWARD:          0	MERGED:   17739067	TO_CACHE:   27403434
L1D WQ	ACCESS:   34236669	FORWARD:     258521	MERGED:     192394	TO_CACHE:   34044275
L1D PQ	ACCESS:    4671967	FORWARD:          0	MERGED:      11620	TO_CACHE:    4660306

L1D UNIQUE REGIONS ACCESSED: 0
L1D REGIONS CONFLICTS: 0
L1D Cross Page Prefetch Requests: 0
L1D Same Page Prefetch Requests: 5843358
L1D ROI Sum of L1D PQ occupancy: 66126112
L1D PREFETCHES PUSHED FROM L2C: 0
L1I TOTAL     ACCESS:   37993038  HIT:   28863833  MISS:    9129205  HIT %:    75.9714  MISS %:    24.0286   MPKI: 45.646
L1I LOAD      ACCESS:   37993038  HIT:   28863833  MISS:    9129205  HIT %:    75.9714  MISS %:    24.0286   MPKI: 45.646
L1I PREFETCH  REQUESTED:          0  ISSUED:          0  USEFUL:          0  USELESS:          0
L1I USEFUL LOAD PREFETCHES:          0 PREFETCH ISSUED TO LOWER LEVEL:          0  ACCURACY: -nan
L1I TIMELY PREFETCHES:          0 LATE PREFETCHES: 0 DROPPED PREFETCHES: 0
L1I PREFETCHES SAME FILL-ORIGIN LEVEL: 0 DIFFERENT FILL-ORIGIN LEVEL: 0
L1I AVERAGE MISS LATENCY: 17.05 cycles
L1I RQ	ACCESS:   58826580	FORWARD:          0	MERGED:   18164099	TO_CACHE:   40662481

BTB TOTAL     ACCESS:   25686191  HIT:   24135281  MISS:    1550910  HIT %:    93.9621  MISS %:    6.03791   MPKI: 7.75455
BTB BRANCH_DIRECT_JUMP	ACCESS:    1661001  HIT:    1650247  MISS:      10754
BTB BRANCH_INDIRECT	ACCESS:    9967570  HIT:    9455076  MISS:     512494
BTB BRANCH_CONDITIONAL	ACCESS:    7219465  HIT:    7204509  MISS:      14956
BTB BRANCH_DIRECT_CALL	ACCESS:    2825891  HIT:    2790313  MISS:      35578
BTB BRANCH_INDIRECT_CALL	ACCESS:     593170  HIT:     481443  MISS:     111727
BTB BRANCH_RETURN	ACCESS:    3419094  HIT:    2553693  MISS:     865401
BTB BRANCH_OTHER ACCESS:          0  HIT:          0  MISS:          0

L2C TOTAL     ACCESS:   22611853  HIT:   14110583  MISS:    8501270  HIT %:    62.4035  MISS %:    37.5965   MPKI: 42.5063
L2C LOAD      ACCESS:   11150988  HIT:    9411976  MISS:    1739012  HIT %:    84.4049  MISS %:    15.5951   MPKI: 8.69506
L2C DATA LOAD MPKI: 5.45158
L2C INSTRUCTION LOAD MPKI: 3.24348
L2C RFO       ACCESS:    3587129  HIT:     131664  MISS:    3455465  HIT %:    3.67046  MISS %:    96.3295   MPKI: 17.2773
L2C PREFETCH  ACCESS:    3399387  HIT:     240552  MISS:    3158835  HIT %:    7.07633  MISS %:    92.9237   MPKI: 15.7942
AGUS PREFETCH L1 MISS: 0
L2C DATA PREFETCH MPKI: 15.7942
L2C INSTRUCTION PREFETCH MPKI: 0
L2C WRITEBACK ACCESS:    4393399  HIT:    4281869  MISS:     111530  HIT %:    97.4614  MISS %:    2.53858   MPKI: 0.55765
L2C LOAD TRANSLATION ACCESS:      80950  HIT:      44522  MISS:      36428  HIT %:    54.9994  MISS %:    45.0006   MPKI: 0.18214
L2C PREFETCH  REQUESTED:          0  ISSUED:          0  USEFUL:     209992  USELESS:    2948068
L2C USEFUL LOAD PREFETCHES:     209992 PREFETCH ISSUED TO LOWER LEVEL:    3189560  ACCURACY: 6.58373
L2C TIMELY PREFETCHES:     209992 LATE PREFETCHES: 30725 DROPPED PREFETCHES: 0
L2C PREFETCHES SAME FILL-ORIGIN LEVEL: 565647 DIFFERENT FILL-ORIGIN LEVEL: 0
L2C AVERAGE MISS LATENCY: 143.073 cycles
L2C RQ	ACCESS:   14819775	FORWARD:          0	MERGED:          0	TO_CACHE:   14819069
L2C WQ	ACCESS:    4393399	FORWARD:        706	MERGED:          0	TO_CACHE:    4393399
L2C PQ	ACCESS:    3494237	FORWARD:          0	MERGED:        712	TO_CACHE:    3493525

L2C Instructions Evicting Data 601113
L2C Translations Evicting Data 33639
L2C Data Evicting Data 7081631
L2C Instructions Evicting Instructions 44856
L2C Translations Evicting Instructions 2637
L2C Data Evicting Instructions 589764
L2C Instructions Evicting Translations 2726
L2C Translations Evicting Translations 152
L2C Data Evicting Translations 33222
L2C Dense regions hint from L2: 0
PSCL5 TOTAL     ACCESS:      72993  HIT:      72993  MISS:          0  HIT %:        100  MISS %:          0   MPKI: 0
PSCL5 LOAD TRANSLATION ACCESS:      72993  HIT:      72993  MISS:          0  HIT %:        100  MISS %:          0   MPKI: 0
PSCL5 PREFETCH  REQUESTED:          0  ISSUED:          0  USEFUL:          0  USELESS:          0
PSCL5 USEFUL LOAD PREFETCHES:          0 PREFETCH ISSUED TO LOWER LEVEL:          0  ACCURACY: -nan
PSCL5 TIMELY PREFETCHES:          0 LATE PREFETCHES: 0 DROPPED PREFETCHES: 0
PSCL5 PREFETCHES SAME FILL-ORIGIN LEVEL: 0 DIFFERENT FILL-ORIGIN LEVEL: 0

PSCL4 TOTAL     ACCESS:      64787  HIT:      64706  MISS:         81  HIT %:     99.875  MISS %:   0.125025   MPKI: 0.000405
PSCL4 LOAD TRANSLATION ACCESS:      64787  HIT:      64706  MISS:         81  HIT %:     99.875  MISS %:   0.125025   MPKI: 0.000405
PSCL4 PREFETCH  REQUESTED:          0  ISSUED:          0  USEFUL:          0  USELESS:          0
PSCL4 USEFUL LOAD PREFETCHES:          0 PREFETCH ISSUED TO LOWER LEVEL:          0  ACCURACY: -nan
PSCL4 TIMELY PREFETCHES:          0 LATE PREFETCHES: 0 DROPPED PREFETCHES: 0
PSCL4 PREFETCHES SAME FILL-ORIGIN LEVEL: 0 DIFFERENT FILL-ORIGIN LEVEL: 0

PSCL3 TOTAL     ACCESS:      72969  HIT:      72804  MISS:        165  HIT %:    99.7739  MISS %:   0.226123   MPKI: 0.000825
PSCL3 LOAD TRANSLATION ACCESS:      72969  HIT:      72804  MISS:        165  HIT %:    99.7739  MISS %:   0.226123   MPKI: 0.000825
PSCL3 PREFETCH  REQUESTED:          0  ISSUED:          0  USEFUL:          0  USELESS:          0
PSCL3 USEFUL LOAD PREFETCHES:          0 PREFETCH ISSUED TO LOWER LEVEL:          0  ACCURACY: -nan
PSCL3 TIMELY PREFETCHES:          0 LATE PREFETCHES: 0 DROPPED PREFETCHES: 0
PSCL3 PREFETCHES SAME FILL-ORIGIN LEVEL: 0 DIFFERENT FILL-ORIGIN LEVEL: 0

PSCL2 TOTAL     ACCESS:      72993  HIT:      65252  MISS:       7741  HIT %:    89.3949  MISS %:    10.6051   MPKI: 0.038705
PSCL2 LOAD TRANSLATION ACCESS:      72993  HIT:      65252  MISS:       7741  HIT %:    89.3949  MISS %:    10.6051   MPKI: 0.038705
PSCL2 PREFETCH  REQUESTED:          0  ISSUED:          0  USEFUL:          0  USELESS:          0
PSCL2 USEFUL LOAD PREFETCHES:          0 PREFETCH ISSUED TO LOWER LEVEL:          0  ACCURACY: -nan
PSCL2 TIMELY PREFETCHES:          0 LATE PREFETCHES: 0 DROPPED PREFETCHES: 0
PSCL2 PREFETCHES SAME FILL-ORIGIN LEVEL: 0 DIFFERENT FILL-ORIGIN LEVEL: 0

LLC TOTAL     ACCESS:   12506721  HIT:    5191133  MISS:    7315588  HIT %:    41.5067  MISS %:    58.4933   MPKI: 36.5779
LLC LOAD      ACCESS:    1708873  HIT:    1449228  MISS:     259645  HIT %:    84.8061  MISS %:    15.1939   MPKI: 1.29822
LLC RFO       ACCESS:    3454858  HIT:     873343  MISS:    2581515  HIT %:    25.2787  MISS %:    74.7213   MPKI: 12.9076
LLC PREFETCH  ACCESS:    3189555  HIT:    1309569  MISS:    1879986  HIT %:     41.058  MISS %:     58.942   MPKI: 9.39993
AGUS PREFETCH L1 MISS: 0
LLC WRITEBACK ACCESS:    4117007  HIT:    1552632  MISS:    2564375  HIT %:    37.7126  MISS %:    62.2874   MPKI: 12.8219
LLC LOAD TRANSLATION ACCESS:      36428  HIT:       6361  MISS:      30067  HIT %:    17.4618  MISS %:    82.5382   MPKI: 0.150335
LLC PREFETCH  REQUESTED:          0  ISSUED:          0  USEFUL:       5201  USELESS:    1874177
LLC USEFUL LOAD PREFETCHES:       5201 PREFETCH ISSUED TO LOWER LEVEL:    1879986  ACCURACY: 0.276651
LLC TIMELY PREFETCHES:       5201 LATE PREFETCHES: 0 DROPPED PREFETCHES: 0
LLC PREFETCHES SAME FILL-ORIGIN LEVEL: 0 DIFFERENT FILL-ORIGIN LEVEL: 0
LLC AVERAGE MISS LATENCY: 131.629 cycles
LLC RQ	ACCESS:    5200180	FORWARD:          0	MERGED:          0	TO_CACHE:    5200159
LLC WQ	ACCESS:    4117007	FORWARD:         26	MERGED:          0	TO_CACHE:    4117007
LLC PQ	ACCESS:    3189560	FORWARD:          0	MERGED:          0	TO_CACHE:    3189555

LLC Dense regions hint to LLC: 0

RAW hits: 2326105
Loads Generated: 47727087
Loads sent to L1D: 45400981
Stores Generated: 34236666
Stores sent to L1D: 34236669
Major fault: 0 Minor fault: 23678
Allocated PAGES: 23678
=== CPU 0 L1D Prefetcher Statistics ===
[MLOP] History of tracked zone:
IIIIIIIIIIIIIIIIIIIIIIIIIIIIIIIIIIIIIIIIIIIIIIIIIIIIIIIIIIIIIIII
AIIIIIIIIIIIIIIIIIIIIIIIIIIIIIIIIIIIIIIIIIIIIIIIIIIIIIIIIIIIIIII
AIIIIIIIIIIIIIIIIIIIIIIIIIIIIIIIAIIIIIIIIIIIIIIIIIIIIIIIIIIIIIII
AIIIIIIIIIIIIIIIIIIIIIIIIIAIIIIIAIIIIIIIIIIIIIIIIIIIIIIIIIIIIIII
AIAIIIIIIIIIIIIIIIIIIIIIIIAIIIIIAIIIIIIIIIIIIIIIIIIIIIIIIIIIIIII
AIAAIIIIIIIIIIIIIIIIIIIIIIAIIIIIAIIIIIIIIIIIIIIIIIIIIIIIIIIIIIII
AIAAIIIIIIIIIIIIIIIIIIIIIIAIIIIIAIIIIIIIIIIIIIIIIIIIIIIIIIAIIIII
AIAAIIIIIIIIIIIIIIIIIIIIIIAIIIIIAIAIIIIIIIIIIIIIIIIIIIIIIIAIIIII
AIAAIIIIIIIIIIIIIIIIIIIIIIAIIIIIAIAAIIIIIIIIIIIIIIIIIIIIIIAIIIII
IIIIIIIIIIIIIIIIIIII2I2IIIIIIIIIAI1IIIIIIIIIIIIIIIIIIIIIIIIIIIII
AI1IIIIIIIIIIIIIIIII2I2IIIIIIIIIAI1IIIIIIIIIIIIIIIIIIIIIIIIIIIII
AI1IIIIIIIIIIIIIIIII2I2IIIIIIIIIAI1IIIIIIIIIII2I2IIIIIIIIIAI1III
AI1IIIIIIIIIIIIIIIII2I2I2IIIIIIIAIAI1IIIIIIIII2I2IIIIIIIIIAI1III
AI1IIIIIIIIIIIIIIIII2I2222IIIIIIAIAA11IIIIIIII2I2IIIIIIIIIAI1III
AI1IIIIIIIIIII2I2III2I2222AI1IIIAIAA11IIIIIIII2I2IIIIIIIIIAI1III
AIAI1IIIIIIIII2I2III2I2222AI1IIIAIAA11IIIIIIII2I2IIIIIIIIIAI1III
AIAA11IIIIIIII2I2III2I2222AI1IIIAIAA11IIIIIIII2I2IIIIIIIIIAI1III
A1112I2IIIIIIIIIIIIIIIIIIIIIIIIIIIIIIIIIIIIIIIIIIIIIIIIIIIIIIIII
A1112I2IIIIIIIIIIIIIIIIIIIIIIIIIA1112I2IIIIIIIIIIIIIIIIIIIIIIIII
A1112I2IIIIIIIIIIIIIIIIIIIA1112IA1112I2IIIIIIIIIIIIIIIIIIIIIIIII
A1A1112I2IIIIIIIIIIIIIIIIIA1112IA1112I2IIIIIIIIIIIIIIIIIIIIIIIII
A1AA111222IIIIIIIIIIIIIIIIA1112IA1112I2IIIIIIIIIIIIIIIIIIIIIIIII
A1AA111222IIIIIIIIIIIIIIIIA1112IA1112I2IIIIIIIIIIIIIIIIIIIA1112I
A1AA111222IIIIIIIIIIIIIIIIA1112IA1A1112I2IIIIIIIIIIIIIIIIIA1112I
A1AA111222IIIIIIIIIIIIIIIIA1112IA1AA111222IIIIIIIIIIIIIIIIA1112I
IIIIIIIIIIIIIIIIIIIIII2IIIIIIIIIAI1IIIIIIIIIIIIIIIIIIIIIIIIIIIII
AI1IIIIIIIIIIIIIIIIIII2IIIIIIIIIAI1IIIIIIIIIIIIIIIIIIIIIIIIIIIII
AI1IIIIIIIIIIIIIIIIIII2IIIIIIIIIAI1IIIIIIIIIIIII2IIIIIIIIIAI1III
AI1IIIIIIIIIIIIIIIIIII2I2IIIIIIIAIAI1IIIIIIIIIII2IIIIIIIIIAI1III
AI1IIIIIIIIIIIIIIIIIII2I22IIIIIIAIAA11IIIIIIIIII2IIIIIIIIIAI1III
AI1IIIIIIIIIIIII2IIIII2I22AI1IIIAIAA11IIIIIIIIII2IIIIIIIIIAI1III
AIAI1IIIIIIIIIII2IIIII2I22AI1IIIAIAA11IIIIIIIIII2IIIIIIIIIAI1III
AIAA11IIIIIIIIII2IIIII2I22AI1IIIAIAA11IIIIIIIIII2IIIIIIIIIAI1III
A12IIIIIIIIIIIIIIIIIIIIIIIIIIIIIIIIIIIIIIIIIIIIIIIIIIIIIIIIIIIII
A12IIIIIIIIIIIIIIIIIIIIIIIIIIIIIA12IIIIIIIIIIIIIIIIIIIIIIIIIIIII
A12IIIIIIIIIIIIIIIIIIIIIIIA12IIIA12IIIIIIIIIIIIIIIIIIIIIIIIIIIII
A1A12IIIIIIIIIIIIIIIIIIIIIA12IIIA12IIIIIIIIIIIIIIIIIIIIIIIIIIIII
A1AA12IIIIIIIIIIIIIIIIIIIIA12IIIA12IIIIIIIIIIIIIIIIIIIIIIIIIIIII
A1AA12IIIIIIIIIIIIIIIIIIIIA12IIIA12IIIIIIIIIIIIIIIIIIIIIIIA12III
A1AA12IIIIIIIIIIIIIIIIIIIIA12IIIA1A12IIIIIIIIIIIIIIIIIIIIIA12III
A1AA12IIIIIIIIIIIIIIIIIIIIA12IIIA1AA12IIIIIIIIIIIIIIIIIIIIA12III
IIIIIIIIIIIIIIIIIIIIIIIIIIIIIIIIAI2IIIIIIIIIIIIIIIIIIIIIIIIIIIII
AI2IIIIIIIIIIIIIIIIIIIIIIIIIIIIIAI2IIIIIIIIIIIIIIIIIIIIIIIIIIIII
AI2IIIIIIIIIIIIIIIIIIIIIIIIIIIIIAI2IIIIIIIIIIIIIIIIIIIIIIIAI2III
AI2IIIIIIIIIIIIIIIIIIIIIIIIIIIIIAIAI2IIIIIIIIIIIIIIIIIIIIIAI2III
AI2IIIIIIIIIIIIIIIIIIIIIIIIIIIIIAIAA22IIIIIIIIIIIIIIIIIIIIAI2III
AI2IIIIIIIIIIIIIIIIIIIIIIIAI2IIIAIAA22IIIIIIIIIIIIIIIIIIIIAI2III
AIAI2IIIIIIIIIIIIIIIIIIIIIAI2IIIAIAA22IIIIIIIIIIIIIIIIIIIIAI2III
AIAA22IIIIIIIIIIIIIIIIIIIIAI2IIIAIAA22IIIIIIIIIIIIIIIIIIIIAI2III
A122II2IIIIIIIIIIIIIIIIIIIIIIIIIIIIIIIIIIIIIIIIIIIIIIIIIIIIIIIII
A122II2IIIIIIIIIIIIIIIIIIIIIIIIIA122II2IIIIIIIIIIIIIIIIIIIIIIIII
A122II2IIIIIIIIIIIIIIIIIIIA122IIA122II2IIIIIIIIIIIIIIIIIIIIIIIII
A1A1222I2IIIIIIIIIIIIIIIIIA122IIA122II2IIIIIIIIIIIIIIIIIIIIIIIII
A1AA122I22IIIIIIIIIIIIIIIIA122IIA122II2IIIIIIIIIIIIIIIIIIIIIIIII
A1AA122I22IIIIIIIIIIIIIIIIA122IIA122II2IIIIIIIIIIIIIIIIIIIA122II
A1AA122I22IIIIIIIIIIIIIIIIA122IIA1A1222I2IIIIIIIIIIIIIIIIIA122II
A1AA122I22IIIIIIIIIIIIIIIIA122IIA1AA122I22IIIIIIIIIIIIIIIIA122II
IIIIIIIIIIIIIIIIII2III2IIIIIIIIIAI1IIIIIIIIIIIIIIIIIIIIIIIIIIIII
AI1IIIIIIIIIIIIIII2III2IIIIIIIIIAI1IIIIIIIIIIIIIIIIIIIIIIIIIIIII
AI1IIIIIIIIIIIIIII2III2IIIIIIIIIAI1IIIIIIIII2III2IIIIIIIIIAI1III
AI1IIIIIIIIIIIIIII2I2I2I2IIIIIIIAIAI1IIIIIII2III2IIIIIIIIIAI1III
AI1IIIIIIIIIIIIIII2I222I22IIIIIIAIAA11IIIIII2III2IIIIIIIIIAI1III
AI1IIIIIIIII2III2I2I222I22AI1IIIAIAA11IIIIII2III2IIIIIIIIIAI1III
AIAI1IIIIIII2III2I2I222I22AI1IIIAIAA11IIIIII2III2IIIIIIIIIAI1III
AIAA11IIIIII2III2I2I222I22AI1IIIAIAA11IIIIII2III2IIIIIIIIIAI1III
A111IIIIIIIIIIIIIIIIIIIIIIIIIIIIIIIIIIIIIIIIIIIIIIIIIIIIIIIIIIII
A111IIIIIIIIIIIIIIIIIIIIIIIIIIIIA111IIIIIIIIIIIIIIIIIIIIIIIIIIII
A111IIIIIIIIIIIIIIIIIIIIIIA111IIA111IIIIIIIIIIIIIIIIIIIIIIIIIIII
A1A111IIIIIIIIIIIIIIIIIIIIA111IIA111IIIIIIIIIIIIIIIIIIIIIIIIIIII
A1AA111IIIIIIIIIIIIIIIIIIIA111IIA111IIIIIIIIIIIIIIIIIIIIIIIIIIII
A1AA111IIIIIIIIIIIIIIIIIIIA111IIA111IIIIIIIIIIIIIIIIIIIIIIA111II
A1AA111IIIIIIIIIIIIIIIIIIIA111IIA1A111IIIIIIIIIIIIIIIIIIIIA111II
A1AA111IIIIIIIIIIIIIIIIIIIA111IIA1AA111IIIIIIIIIIIIIIIIIIIA111II
IIIIIIIIIIIIIIIIIIIIII2IIIIIIIIIAI2IIIIIIIIIIIIIIIIIIIIIIIIIIIII
AI2IIIIIIIIIIIIIIIIIII2IIIIIIIIIAI2IIIIIIIIIIIIIIIIIIIIIIIIIIIII
AI2IIIIIIIIIIIIIIIIIII2IIIIIIIIIAI2IIIIIIIIIIIII2IIIIIIIIIAI2III
AI2IIIIIIIIIIIIIIIIIII2I2IIIIIIIAIAI2IIIIIIIIIII2IIIIIIIIIAI2III
AI2IIIIIIIIIIIIIIIIIII2I22IIIIIIAIAA22IIIIIIIIII2IIIIIIIIIAI2III
AI2IIIIIIIIIIIII2IIIII2I22AI2IIIAIAA22IIIIIIIIII2IIIIIIIIIAI2III
AIAI2IIIIIIIIIII2IIIII2I22AI2IIIAIAA22IIIIIIIIII2IIIIIIIIIAI2III
AIAA22IIIIIIIIII2IIIII2I22AI2IIIAIAA22IIIIIIIIII2IIIIIIIIIAI2III
A1122IIIIIIIIIIIIIIIIIIIIIIIIIIIIIIIIIIIIIIIIIIIIIIIIIIIIIIIIIII
A1122IIIIIIIIIIIIIIIIIIIIIIIIIIIA1122IIIIIIIIIIIIIIIIIIIIIIIIIII
A1122IIIIIIIIIIIIIIIIIIIIIA1122IA1122IIIIIIIIIIIIIIIIIIIIIIIIIII
A1A1122IIIIIIIIIIIIIIIIIIIA1122IA1122IIIIIIIIIIIIIIIIIIIIIIIIIII
A1AA1122IIIIIIIIIIIIIIIIIIA1122IA1122IIIIIIIIIIIIIIIIIIIIIIIIIII
A1AA1122IIIIIIIIIIIIIIIIIIA1122IA1122IIIIIIIIIIIIIIIIIIIIIA1122I
A1AA1122IIIIIIIIIIIIIIIIIIA1122IA1A1122IIIIIIIIIIIIIIIIIIIA1122I
A1AA1122IIIIIIIIIIIIIIIIIIA1122IA1AA1122IIIIIIIIIIIIIIIIIIA1122I
IIIIIIIIIIIIIIIIIIIIIIIIIIIIIIIIAI2I22IIIIIIIIIIIIIIIIIIIIIIIIII
AI2I22IIIIIIIIIIIIIIIIIIIIIIIIIIAI2I22IIIIIIIIIIIIIIIIIIIIIIIIII
AI2I22IIIIIIIIIIIIIIIIIIIIIIIIIIAI2I22IIIIIIIIIIIIIIIIIIIIAI2I22
AI2I22IIIIIIIIIIIIIIIIIIIIIIIIIIAIAI2222IIIIIIIIIIIIIIIIIIAI2I22
AI2I22IIIIIIIIIIIIIIIIIIIIIIIIIIAIAA22222IIIIIIIIIIIIIIIIIAI2I22
AI2I22IIIIIIIIIIIIIIIIIIIIAI2I22AIAA22222IIIIIIIIIIIIIIIIIAI2I22
AIAI2222IIIIIIIIIIIIIIIIIIAI2I22AIAA22222IIIIIIIIIIIIIIIIIAI2I22
AIAA22222IIIIIIIIIIIIIIIIIAI2I22AIAA22222IIIIIIIIIIIIIIIIIAI2I22
A1122I2IIIIIIIIIIIIIIIIIIIIIIIIIIIIIIIIIIIIIIIIIIIIIIIIIIIIIIIII
A1122I2IIIIIIIIIIIIIIIIIIIIIIIIIA1122I2IIIIIIIIIIIIIIIIIIIIIIIII
A1122I2IIIIIIIIIIIIIIIIIIIA1122IA1122I2IIIIIIIIIIIIIIIIIIIIIIIII
A1A1122I2IIIIIIIIIIIIIIIIIA1122IA1122I2IIIIIIIIIIIIIIIIIIIIIIIII
A1AA112222IIIIIIIIIIIIIIIIA1122IA1122I2IIIIIIIIIIIIIIIIIIIIIIIII
A1AA112222IIIIIIIIIIIIIIIIA1122IA1122I2IIIIIIIIIIIIIIIIIIIA1122I
A1AA112222IIIIIIIIIIIIIIIIA1122IA1A1122I2IIIIIIIIIIIIIIIIIA1122I
A1AA112222IIIIIIIIIIIIIIIIA1122IA1AA112222IIIIIIIIIIIIIIIIA1122I
IIIIIIIIIIIIIIIIIIIIII2IIIIIIIIIAI1IIIIIIIIIIIIIIIIIIIIIIIIIIIII
AI1IIIIIIIIIIIIIIIIIII2IIIIIIIIIAI1IIIIIIIIIIIIIIIIIIIIIIIIIIIII
AI1IIIIIIIIIIIIIIIIIII2IIIIIIIIIAI1IIIIIIIIIIIII2IIIIIIIIIAI1III
AI1IIIIIIIIIIIIIIIIIII2I2IIIIIIIAIAI1IIIIIIIIIII2IIIIIIIIIAI1III
AI1IIIIIIIIIIIIIIIIIII2I22IIIIIIAIAA11IIIIIIIIII2IIIIIIIIIAI1III
AI1IIIIIIIIIIIII2IIIII2I22AI1IIIAIAA11IIIIIIIIII2IIIIIIIIIAI1III
AIAI1IIIIIIIIIII2IIIII2I22AI1IIIAIAA11IIIIIIIIII2IIIIIIIIIAI1III
AIAA11IIIIIIIIII2IIIII2I22AI1IIIAIAA11IIIIIIIIII2IIIIIIIIIAI1III
A112IIIIIIIIIIIIIIIIIIIIIIIIIIIIIIIIIIIIIIIIIIIIIIIIIIIIIIIIIIII
A112IIIIIIIIIIIIIIIIIIIIIIIIIIIIA112IIIIIIIIIIIIIIIIIIIIIIIIIIII
A112IIIIIIIIIIIIIIIIIIIIIIA112IIA112IIIIIIIIIIIIIIIIIIIIIIIIIIII
A1A112IIIIIIIIIIIIIIIIIIIIA112IIA112IIIIIIIIIIIIIIIIIIIIIIIIIIII
A1AA112IIIIIIIIIIIIIIIIIIIA112IIA112IIIIIIIIIIIIIIIIIIIIIIIIIIII
A1AA112IIIIIIIIIIIIIIIIIIIA112IIA112IIIIIIIIIIIIIIIIIIIIIIA112II
A1AA112IIIIIIIIIIIIIIIIIIIA112IIA1A112IIIIIIIIIIIIIIIIIIIIA112II
A1AA112IIIIIIIIIIIIIIIIIIIA112IIA1AA112IIIIIIIIIIIIIIIIIIIA112II
IIIIIIIIIIIIIIIII2IIII2IIIIIIIIIAI1IIIIIIIIIIIIIIIIIIIIIIIIIIIII
AI1IIIIIIIIIIIIII2IIII2IIIIIIIIIAI1IIIIIIIIIIIIIIIIIIIIIIIIIIIII
AI1IIIIIIIIIIIIII2IIII2IIIIIIIIIAI1IIIIIIII2IIII2IIIIIIIIIAI1III
AI1IIIIIIIIIIIIII2I2II2I2IIIIIIIAIAI1IIIIII2IIII2IIIIIIIIIAI1III
AI1IIIIIIIIIIIIII2I22I2I22IIIIIIAIAA11IIIII2IIII2IIIIIIIIIAI1III
AI1IIIIIIII2IIII22I22I2I22AI1IIIAIAA11IIIII2IIII2IIIIIIIIIAI1III
AIAI1IIIIII2IIII22I22I2I22AI1IIIAIAA11IIIII2IIII2IIIIIIIIIAI1III
AIAA11IIIII2IIII22I22I2I22AI1IIIAIAA11IIIII2IIII2IIIIIIIIIAI1III
A122IIIIIIIIIIIIIIIIIIIIIIIIIIIIIIIIIIIIIIIIIIIIIIIIIIIIIIIIIIII
A122IIIIIIIIIIIIIIIIIIIIIIIIIIIIA122IIIIIIIIIIIIIIIIIIIIIIIIIIII
A122IIIIIIIIIIIIIIIIIIIIIIA122IIA122IIIIIIIIIIIIIIIIIIIIIIIIIIII
A1A122IIIIIIIIIIIIIIIIIIIIA122IIA122IIIIIIIIIIIIIIIIIIIIIIIIIIII
A1AA122IIIIIIIIIIIIIIIIIIIA122IIA122IIIIIIIIIIIIIIIIIIIIIIIIIIII
A1AA122IIIIIIIIIIIIIIIIIIIA122IIA122IIIIIIIIIIIIIIIIIIIIIIA122II
A1AA122IIIIIIIIIIIIIIIIIIIA122IIA1A122IIIIIIIIIIIIIIIIIIIIA122II
A1AA122IIIIIIIIIIIIIIIIIIIA122IIA1AA122IIIIIIIIIIIIIIIIIIIA122II
IIIIIIIIIIIIIIIIIIIIIIIIIIIIIII2AIIIIIIIIIIIIIIIIIIIIIIIIIIIIIII
AIIIIIIIIIIIIIIIIIIIIIIIIIIIIII2AIIIIIIIIIIIIIIIIIIIIIIIIIIIIIII
AIIIIIIIIIIIIIIIIIIIIIIIIIIIIII2AIIIIIIIIIIIIIIIIIIIIIIII2AIIIII
AIIIIIIIIIIIIIIIIIIIIIIIIIIIIII2A2AIIIIIIIIIIIIIIIIIIIIII2AIIIII
AIIIIIIIIIIIIIIIIIIIIIIIIIIIIII2A2AAIIIIIIIIIIIIIIIIIIIII2AIIIII
AIIIIIIIIIIIIIIIIIIIIIIII2AIIII2A2AAIIIIIIIIIIIIIIIIIIIII2AIIIII
A2AIIIIIIIIIIIIIIIIIIIIII2AIIII2A2AAIIIIIIIIIIIIIIIIIIIII2AIIIII
A2AAIIIIIIIIIIIIIIIIIIIII2AIIII2A2AAIIIIIIIIIIIIIIIIIIIII2AIIIII
A12IIIIIIIIIIIIIIIIIIIIIIIIIIIIIIIIIIIIIIIIIIIIIIIIIIIIIIIIIIIII
A12IIIIIIIIIIIIIIIIIIIIIIIIIIIIIA12IIIIIIIIIIIIIIIIIIIIIIIIIIIII
A12IIIIIIIIIIIIIIIIIIIIIIIA12IIIA12IIIIIIIIIIIIIIIIIIIIIIIIIIIII
A1A12IIIIIIIIIIIIIIIIIIIIIA12IIIA12IIIIIIIIIIIIIIIIIIIIIIIIIIIII
A1AA12IIIIIIIIIIIIIIIIIIIIA12IIIA12IIIIIIIIIIIIIIIIIIIIIIIIIIIII
A1AA12IIIIIIIIIIIIIIIIIIIIA12IIIA12IIIIIIIIIIIIIIIIIIIIIIIA12III
A1AA12IIIIIIIIIIIIIIIIIIIIA12IIIA1A12IIIIIIIIIIIIIIIIIIIIIA12III
A1AA12IIIIIIIIIIIIIIIIIIIIA12IIIA1AA12IIIIIIIIIIIIIIIIIIIIA12III
IIIIIIIIIIIIIIIIII2III2IIIIIIIIIAI1IIIIIIIIIIIIIIIIIIIIIIIIIIIII
AI1IIIIIIIIIIIIIII2III2IIIIIIIIIAI1IIIIIIIIIIIIIIIIIIIIIIIIIIIII
AI1IIIIIIIIIIIIIII2III2IIIIIIIIIAI1IIIIIIIII2III2IIIIIIIIIAI1III
AI1IIIIIIIIIIIIIII2I2I2I2IIIIIIIAIAI1IIIIIII2III2IIIIIIIIIAI1III
AI1IIIIIIIIIIIIIII2I222I22IIIIIIAIAA11IIIIII2III2IIIIIIIIIAI1III
AI1IIIIIIIII2III2I2I222I22AI1IIIAIAA11IIIIII2III2IIIIIIIIIAI1III
AIAI1IIIIIII2III2I2I222I22AI1IIIAIAA11IIIIII2III2IIIIIIIIIAI1III
AIAA11IIIIII2III2I2I222I22AI1IIIAIAA11IIIIII2III2IIIIIIIIIAI1III
A112IIIIIIIIIIIIIIIIIIIIIIIIIIIIIIIIIIIIIIIIIIIIIIIIIIIIIIIIIIII
A112IIIIIIIIIIIIIIIIIIIIIIIIIIIIA112IIIIIIIIIIIIIIIIIIIIIIIIIIII
A112IIIIIIIIIIIIIIIIIIIIIIA112IIA112IIIIIIIIIIIIIIIIIIIIIIIIIIII
A1A112IIIIIIIIIIIIIIIIIIIIA112IIA112IIIIIIIIIIIIIIIIIIIIIIIIIIII
A1AA112IIIIIIIIIIIIIIIIIIIA112IIA112IIIIIIIIIIIIIIIIIIIIIIIIIIII
A1AA112IIIIIIIIIIIIIIIIIIIA112IIA112IIIIIIIIIIIIIIIIIIIIIIA112II
A1AA112IIIIIIIIIIIIIIIIIIIA112IIA1A112IIIIIIIIIIIIIIIIIIIIA112II
A1AA112IIIIIIIIIIIIIIIIIIIA112IIA1AA112IIIIIIIIIIIIIIIIIIIA112II
IIIIIIIIIIIIIIIIIIIIII2IIIIIIIIIAI1IIIIIIIIIIIIIIIIIIIIIIIIIIIII
AI1IIIIIIIIIIIIIIIIIII2IIIIIIIIIAI1IIIIIIIIIIIIIIIIIIIIIIIIIIIII
AI1IIIIIIIIIIIIIIIIIII2IIIIIIIIIAI1IIIIIIIIIIIII2IIIIIIIIIAI1III
AI1IIIIIIIIIIIIIIIIIII2I2IIIIIIIAIAI1IIIIIIIIIII2IIIIIIIIIAI1III
AI1IIIIIIIIIIIIIIIIIII2I22IIIIIIAIAA11IIIIIIIIII2IIIIIIIIIAI1III
AI1IIIIIIIIIIIII2IIIII2I22AI1IIIAIAA11IIIIIIIIII2IIIIIIIIIAI1III
AIAI1IIIIIIIIIII2IIIII2I22AI1IIIAIAA11IIIIIIIIII2IIIIIIIIIAI1III
AIAA11IIIIIIIIII2IIIII2I22AI1IIIAIAA11IIIIIIIIII2IIIIIIIIIAI1III
A122IIIIIIIIIIIIIIIIIIIIIIIIIIIIIIIIIIIIIIIIIIIIIIIIIIIIIIIIIIII
A122IIIIIIIIIIIIIIIIIIIIIIIIIIIIA122IIIIIIIIIIIIIIIIIIIIIIIIIIII
A122IIIIIIIIIIIIIIIIIIIIIIA122IIA122IIIIIIIIIIIIIIIIIIIIIIIIIIII
A1A122IIIIIIIIIIIIIIIIIIIIA122IIA122IIIIIIIIIIIIIIIIIIIIIIIIIIII
A1AA122IIIIIIIIIIIIIIIIIIIA122IIA122IIIIIIIIIIIIIIIIIIIIIIIIIIII
A1AA122IIIIIIIIIIIIIIIIIIIA122IIA122IIIIIIIIIIIIIIIIIIIIIIA122II
A1AA122IIIIIIIIIIIIIIIIIIIA122IIA1A122IIIIIIIIIIIIIIIIIIIIA122II
A1AA122IIIIIIIIIIIIIIIIIIIA122IIA1AA122IIIIIIIIIIIIIIIIIIIA122II
IIIIIIIIIIIIIIIIII2III2IIIIIIIIIAI2IIIIIIIIIIIIIIIIIIIIIIIIIIIII
AI2IIIIIIIIIIIIIII2III2IIIIIIIIIAI2IIIIIIIIIIIIIIIIIIIIIIIIIIIII
AI2IIIIIIIIIIIIIII2III2IIIIIIIIIAI2IIIIIIIII2III2IIIIIIIIIAI2III
AI2IIIIIIIIIIIIIII2I2I2I2IIIIIIIAIAI2IIIIIII2III2IIIIIIIIIAI2III
AI2IIIIIIIIIIIIIII2I222I22IIIIIIAIAA22IIIIII2III2IIIIIIIIIAI2III
AI2IIIIIIIII2III2I2I222I22AI2IIIAIAA22IIIIII2III2IIIIIIIIIAI2III
AIAI2IIIIIII2III2I2I222I22AI2IIIAIAA22IIIIII2III2IIIIIIIIIAI2III
AIAA22IIIIII2III2I2I222I22AI2IIIAIAA22IIIIII2III2IIIIIIIIIAI2III
A12III2IIIIIIIIIIIIIIIIIIIIIIIIIIIIIIIIIIIIIIIIIIIIIIIIIIIIIIIII
A12III2IIIIIIIIIIIIIIIIIIIIIIIIIA12III2IIIIIIIIIIIIIIIIIIIIIIIII
A12III2IIIIIIIIIIIIIIIIIIIA12IIIA12III2IIIIIIIIIIIIIIIIIIIIIIIII
A1A12I2I2IIIIIIIIIIIIIIIIIA12IIIA12III2IIIIIIIIIIIIIIIIIIIIIIIII
A1AA122I22IIIIIIIIIIIIIIIIA12IIIA12III2IIIIIIIIIIIIIIIIIIIIIIIII
A1AA122I22IIIIIIIIIIIIIIIIA12IIIA12III2IIIIIIIIIIIIIIIIIIIA12III
A1AA122I22IIIIIIIIIIIIIIIIA12IIIA1A12I2I2IIIIIIIIIIIIIIIIIA12III
A1AA122I22IIIIIIIIIIIIIIIIA12IIIA1AA122I22IIIIIIIIIIIIIIIIA12III
IIIIIIIIIIIIIIIIII2III2IIIIIIIIIAI2IIIIIIIIIIIIIIIIIIIIIIIIIIIII
AI2IIIIIIIIIIIIIII2III2IIIIIIIIIAI2IIIIIIIIIIIIIIIIIIIIIIIIIIIII
AI2IIIIIIIIIIIIIII2III2IIIIIIIIIAI2IIIIIIIII2III2IIIIIIIIIAI2III
AI2IIIIIIIIIIIIIII2I2I2I2IIIIIIIAIAI2IIIIIII2III2IIIIIIIIIAI2III
AI2IIIIIIIIIIIIIII2I222I22IIIIIIAIAA22IIIIII2III2IIIIIIIIIAI2III
AI2IIIIIIIII2III2I2I222I22AI2IIIAIAA22IIIIII2III2IIIIIIIIIAI2III
AIAI2IIIIIII2III2I2I222I22AI2IIIAIAA22IIIIII2III2IIIIIIIIIAI2III
AIAA22IIIIII2III2I2I222I22AI2IIIAIAA22IIIIII2III2IIIIIIIIIAI2III
A122IIIIIIIIIIIIIIIIIIIIIIIIIIIIIIIIIIIIIIIIIIIIIIIIIIIIIIIIIIII
A122IIIIIIIIIIIIIIIIIIIIIIIIIIIIA122IIIIIIIIIIIIIIIIIIIIIIIIIIII
A122IIIIIIIIIIIIIIIIIIIIIIA122IIA122IIIIIIIIIIIIIIIIIIIIIIIIIIII
A1A122IIIIIIIIIIIIIIIIIIIIA122IIA122IIIIIIIIIIIIIIIIIIIIIIIIIIII
A1AA122IIIIIIIIIIIIIIIIIIIA122IIA122IIIIIIIIIIIIIIIIIIIIIIIIIIII
A1AA122IIIIIIIIIIIIIIIIIIIA122IIA122IIIIIIIIIIIIIIIIIIIIIIA122II
A1AA122IIIIIIIIIIIIIIIIIIIA122IIA1A122IIIIIIIIIIIIIIIIIIIIA122II
A1AA122IIIIIIIIIIIIIIIIIIIA122IIA1AA122IIIIIIIIIIIIIIIIIIIA122II
IIIIIIIIIIIIIIIIII2III2IIIIIIIIIAI2I2IIIIIIIIIIIIIIIIIIIIIIIIIII
AI2I2IIIIIIIIIIIII2III2IIIIIIIIIAI2I2IIIIIIIIIIIIIIIIIIIIIIIIIII
AI2I2IIIIIIIIIIIII2III2IIIIIIIIIAI2I2IIIIIII2III2IIIIIIIIIAI2I2I
AI2I2IIIIIIIIIIIII2I2I2I2IIIIIIIAIAI2I2IIIII2III2IIIIIIIIIAI2I2I
AI2I2IIIIIIIIIIIII2I222I22IIIIIIAIAA2222IIII2III2IIIIIIIIIAI2I2I
AI2I2IIIIIII2III2I2I222I22AI2I2IAIAA2222IIII2III2IIIIIIIIIAI2I2I
AIAI2I2IIIII2III2I2I222I22AI2I2IAIAA2222IIII2III2IIIIIIIIIAI2I2I
AIAA2222IIII2III2I2I222I22AI2I2IAIAA2222IIII2III2IIIIIIIIIAI2I2I
A112IIIIIIIIIIIIIIIIIIIIIIIIIIIIIIIIIIIIIIIIIIIIIIIIIIIIIIIIIIII
A112IIIIIIIIIIIIIIIIIIIIIIIIIIIIA112IIIIIIIIIIIIIIIIIIIIIIIIIIII
A112IIIIIIIIIIIIIIIIIIIIIIA112IIA112IIIIIIIIIIIIIIIIIIIIIIIIIIII
A1A112IIIIIIIIIIIIIIIIIIIIA112IIA112IIIIIIIIIIIIIIIIIIIIIIIIIIII
A1AA112IIIIIIIIIIIIIIIIIIIA112IIA112IIIIIIIIIIIIIIIIIIIIIIIIIIII
A1AA112IIIIIIIIIIIIIIIIIIIA112IIA112IIIIIIIIIIIIIIIIIIIIIIA112II
A1AA112IIIIIIIIIIIIIIIIIIIA112IIA1A112IIIIIIIIIIIIIIIIIIIIA112II
A1AA112IIIIIIIIIIIIIIIIIIIA112IIA1AA112IIIIIIIIIIIIIIIIIIIA112II
IIIIIIIIIIIIIIIIIIIIII2IIIIIIIIIAI2IIIIIIIIIIIIIIIIIIIIIIIIIIIII
AI2IIIIIIIIIIIIIIIIIII2IIIIIIIIIAI2IIIIIIIIIIIIIIIIIIIIIIIIIIIII
AI2IIIIIIIIIIIIIIIIIII2IIIIIIIIIAI2IIIIIIIIIIIII2IIIIIIIIIAI2III
AI2IIIIIIIIIIIIIIIIIII2I2IIIIIIIAIAI2IIIIIIIIIII2IIIIIIIIIAI2III
AI2IIIIIIIIIIIIIIIIIII2I22IIIIIIAIAA22IIIIIIIIII2IIIIIIIIIAI2III
AI2IIIIIIIIIIIII2IIIII2I22AI2IIIAIAA22IIIIIIIIII2IIIIIIIIIAI2III
AIAI2IIIIIIIIIII2IIIII2I22AI2IIIAIAA22IIIIIIIIII2IIIIIIIIIAI2III
AIAA22IIIIIIIIII2IIIII2I22AI2IIIAIAA22IIIIIIIIII2IIIIIIIIIAI2III
A112II2IIIIIIIIIIIIIIIIIIIIIIIIIIIIIIIIIIIIIIIIIIIIIIIIIIIIIIIII
A112II2IIIIIIIIIIIIIIIIIIIIIIIIIA112II2IIIIIIIIIIIIIIIIIIIIIIIII
A112II2IIIIIIIIIIIIIIIIIIIA112IIA112II2IIIIIIIIIIIIIIIIIIIIIIIII
A1A1122I2IIIIIIIIIIIIIIIIIA112IIA112II2IIIIIIIIIIIIIIIIIIIIIIIII
A1AA112I22IIIIIIIIIIIIIIIIA112IIA112II2IIIIIIIIIIIIIIIIIIIIIIIII
A1AA112I22IIIIIIIIIIIIIIIIA112IIA112II2IIIIIIIIIIIIIIIIIIIA112II
A1AA112I22IIIIIIIIIIIIIIIIA112IIA1A1122I2IIIIIIIIIIIIIIIIIA112II
A1AA112I22IIIIIIIIIIIIIIIIA112IIA1AA112I22IIIIIIIIIIIIIIIIA112II
IIIIIIIIIIIIIIIIIIIIIIIIIIII2II2AIIIIIIIIIIIIIIIIIIIIIIIIIIIIIII
AIIIIIIIIIIIIIIIIIIIIIIIIIII2II2AIIIIIIIIIIIIIIIIIIIIIIIIIIIIIII
AIIIIIIIIIIIIIIIIIIIIIIIIIII2II2AIIIIIIIIIIIIIIIIIIIII2II2AIIIII
AIIIIIIIIIIIIIIIIIIIIIIIIIII2I22A2AIIIIIIIIIIIIIIIIIII2II2AIIIII
AIIIIIIIIIIIIIIIIIIIIIIIIIII2I22A2AAIIIIIIIIIIIIIIIIII2II2AIIIII
AIIIIIIIIIIIIIIIIIIIII2II2AI2I22A2AAIIIIIIIIIIIIIIIIII2II2AIIIII
A2AIIIIIIIIIIIIIIIIIII2II2AI2I22A2AAIIIIIIIIIIIIIIIIII2II2AIIIII
A2AAIIIIIIIIIIIIIIIIII2II2AI2I22A2AAIIIIIIIIIIIIIIIIII2II2AIIIII
A122II2IIIIIIIIIIIIIIIIIIIIIIIIIIIIIIIIIIIIIIIIIIIIIIIIIIIIIIIII
A122II2IIIIIIIIIIIIIIIIIIIIIIIIIA122II2IIIIIIIIIIIIIIIIIIIIIIIII
A122II2IIIIIIIIIIIIIIIIIIIA122IIA122II2IIIIIIIIIIIIIIIIIIIIIIIII
A1A1222I2IIIIIIIIIIIIIIIIIA122IIA122II2IIIIIIIIIIIIIIIIIIIIIIIII
A1AA122I22IIIIIIIIIIIIIIIIA122IIA122II2IIIIIIIIIIIIIIIIIIIIIIIII
A1AA122I22IIIIIIIIIIIIIIIIA122IIA122II2IIIIIIIIIIIIIIIIIIIA122II
A1AA122I22IIIIIIIIIIIIIIIIA122IIA1A1222I2IIIIIIIIIIIIIIIIIA122II
A1AA122I22IIIIIIIIIIIIIIIIA122IIA1AA122I22IIIIIIIIIIIIIIIIA122II
IIIIIIIIIIIIIIIIIIIIIIIIIIIIIII2AIIIIIIIIIIIIIIIIIIIIIIIIIIIIIII
AIIIIIIIIIIIIIIIIIIIIIIIIIIIIII2AIIIIIIIIIIIIIIIIIIIIIIIIIIIIIII
AIIIIIIIIIIIIIIIIIIIIIIIIIIIIII2AIIIIIIIIIIIIIIIIIIIIIIII2AIIIII
AIIIIIIIIIIIIIIIIIIIIIIIIIIIIII2A2AIIIIIIIIIIIIIIIIIIIIII2AIIIII
AIIIIIIIIIIIIIIIIIIIIIIIIIIIIII2A2AAIIIIIIIIIIIIIIIIIIIII2AIIIII
AIIIIIIIIIIIIIIIIIIIIIIII2AIIII2A2AAIIIIIIIIIIIIIIIIIIIII2AIIIII
A2AIIIIIIIIIIIIIIIIIIIIII2AIIII2A2AAIIIIIIIIIIIIIIIIIIIII2AIIIII
A2AAIIIIIIIIIIIIIIIIIIIII2AIIII2A2AAIIIIIIIIIIIIIIIIIIIII2AIIIII
A112IIIIIIIIIIIIIIIIIIIIIIIIIIIIIIIIIIIIIIIIIIIIIIIIIIIIIIIIIIII
A112IIIIIIIIIIIIIIIIIIIIIIIIIIIIA112IIIIIIIIIIIIIIIIIIIIIIIIIIII
A112IIIIIIIIIIIIIIIIIIIIIIA112IIA112IIIIIIIIIIIIIIIIIIIIIIIIIIII
A1A112IIIIIIIIIIIIIIIIIIIIA112IIA112IIIIIIIIIIIIIIIIIIIIIIIIIIII
A1AA112IIIIIIIIIIIIIIIIIIIA112IIA112IIIIIIIIIIIIIIIIIIIIIIIIIIII
A1AA112IIIIIIIIIIIIIIIIIIIA112IIA112IIIIIIIIIIIIIIIIIIIIIIA112II
A1AA112IIIIIIIIIIIIIIIIIIIA112IIA1A112IIIIIIIIIIIIIIIIIIIIA112II
A1AA112IIIIIIIIIIIIIIIIIIIA112IIA1AA112IIIIIIIIIIIIIIIIIIIA112II
A1AA112IIIIIIIIIIIIIIIIIIIA112IIA1AA1122IIIIIIIIIIIIIIIIIIA112II
A1AA112IIIIIIIIIIIIIIIIIIIA112IIA1AA1122IIIIIIIIIIIIIIIIIIA112I2
A1AA112IIIIIIIIIIIIIIIIIIIA112IIA1AA11222IIIIIIIIIIIIIIIIIA112I2
IIIIIIIIIIIIIIIIIIIIIIIIIIIIIIIIA12IIIIIIIIIIIIIIIIIIIIIIIIIIIII
IIIIIIIIIIIIIIIIII2IIIIIIIIIIIIIA12IIIIIIIIIIIIIIIIIIIIIIIIIIIII
AI2IIIIIIIIIIIIIII2IIIIIIIIIIIIIA12IIIIIIIIIIIIIIIIIIIIIIIIIIIII
AI2IIIIIIIIIIIIIII2IIIIIIIIIIIIIA12IIIIIIIII2IIIIIIIIIIIIIAI2III
AI2IIIIIIIIIIIIIII2I2IIIIIIIIIIIA1AI2IIIIIII2IIIIIIIIIIIIIAI2III
AI2IIIIIIIIIIIIIII2I22IIIIIIIIIIA1AA22IIIIII2IIIIIIIIIIIIIAI2III
AI2IIIIIIIII2IIIII2I22IIIIAI2IIIA1AA22IIIIII2IIIIIIIIIIIIIAI2III
AIAI2IIIIIII2IIIII2I22IIIIAI2IIIA1AA22IIIIII2IIIIIIIIIIIIIAI2III
AIAA22IIIIII2IIIII2I22IIIIAI2IIIA1AA22IIIIII2IIIIIIIIIIIIIAI2III
A122IIIIIIIIIIIIIIIIIIIIIIIIIIIIIIIIIIIIIIIIIIIIIIIIIIIIIIIIIIII
A122IIIIIIIIIIIIIIIIIIIIIIIIIIIIA122IIIIIIIIIIIIIIIIIIIIIIIIIIII
A122IIIIIIIIIIIIIIIIIIIIIIA122IIA122IIIIIIIIIIIIIIIIIIIIIIIIIIII
A1A122IIIIIIIIIIIIIIIIIIIIA122IIA122IIIIIIIIIIIIIIIIIIIIIIIIIIII
A1AA122IIIIIIIIIIIIIIIIIIIA122IIA122IIIIIIIIIIIIIIIIIIIIIIIIIIII
A1AA122IIIIIIIIIIIIIIIIIIIA122IIA122IIIIIIIIIIIIIIIIIIIIIIA122II
A1AA122IIIIIIIIIIIIIIIIIIIA122IIA1A122IIIIIIIIIIIIIIIIIIIIA122II
A1AA122IIIIIIIIIIIIIIIIIIIA122IIA1AA122IIIIIIIIIIIIIIIIIIIA122II
IIIIIIIIIIIIIIIIIIIIII2IIIII2II1AIIIIIIIIIIIIIIIIIIIIIIIIIIIIIII
AIIIIIIIIIIIIIIIIIIIII2IIIII2II1AIIIIIIIIIIIIIIIIIIIIIIIIIIIIIII
AIIIIIIIIIIIIIIIIIIIII2IIIII2II1AIIIIIIIIIIIIIII2IIIII2II1AIIIII
AIIIIIIIIIIIIIIIIIIIII2I2III2I21A1AIIIIIIIIIIIII2IIIII2II1AIIIII
AIIIIIIIIIIIIIIIIIIIII2I22II2I21A1AAIIIIIIIIIIII2IIIII2II1AIIIII
AIIIIIIIIIIIIIII2IIIII2I21AI2I21A1AAIIIIIIIIIIII2IIIII2II1AIIIII
A1AIIIIIIIIIIIII2IIIII2I21AI2I21A1AAIIIIIIIIIIII2IIIII2II1AIIIII
A1AAIIIIIIIIIIII2IIIII2I21AI2I21A1AAIIIIIIIIIIII2IIIII2II1AIIIII
A1111I2IIIIII2III2IIIIIIIIIIIIIIIIIIIIIIIIIIIIIIIIIIIIIIIIIIIIII
A1111I2IIIIII2III2IIIIIIIIIIIIIIA1111I2IIIIII2III2IIIIIIIIIIIIII
A1111I2IIIIII2III2IIIIIIIIA1111IA1111I22III2I2III2IIIIIIIIIIIIII
A1A1111I2IIII2I2I2I2IIIIIIA1111IA1111I22III2I2III2IIIIIIIIIIIIII
A1AA111122III2I222I22IIIIIA1111IA1111I22III2I2III2IIIIIIIIIIIIII
A1AA111122III2I222I22IIIIIA1111IA1111I22III2I2III2IIIIIIIIA1111I
A1AA111122III2I222I22IIIIIA1111IA1A111122II2I2I2I2I2IIIIIIA1111I
A1AA111122III2I222I22IIIIIA1111IA1AA111122I2I2I222I22IIIIIA1111I
IIIIIIIIIIIIIIIIIIIIII2IIIIIIIIIAI2IIIIIIIIIIIIIIIIIIIIIIIIIIIII
AI2IIIIIIIIIIIIIIIIIII2IIIIIIIIIAI2IIIIIIIIIIIIIIIIIIIIIIIIIIIII
AI2IIIIIIIIIIIIIIIIIII2IIIIIIIIIAI2IIIIIIIIIIIII2IIIIIIIIIAI2III
AI2IIIIIIIIIIIIIIIIIII2I2IIIIIIIAIAI2IIIIIIIIIII2IIIIIIIIIAI2III
AI2IIIIIIIIIIIIIIIIIII2I22IIIIIIAIAA22IIIIIIIIII2IIIIIIIIIAI2III
AI2IIIIIIIIIIIII2IIIII2I22AI2IIIAIAA22IIIIIIIIII2IIIIIIIIIAI2III
AIAI2IIIIIIIIIII2IIIII2I22AI2IIIAIAA22IIIIIIIIII2IIIIIIIIIAI2III
AIAA22IIIIIIIIII2IIIII2I22AI2IIIAIAA22IIIIIIIIII2IIIIIIIIIAI2III
A1122I2I22IIIIIIIIIIIIIIIIIIIIIIIIIIIIIIIIIIIIIIIIIIIIIIIIIIIIII
A1122I2I22IIIIIIIIIIIIIIIIIIIIIIA1122I2I22IIIIIIIIIIIIIIIIIIIIII
A1122I2I22IIIIIIIIIIIIIIIIA1122IA1122I2I22IIIIIIIIIIIIIIIIIIIIII
A1A1122I2222IIIIIIIIIIIIIIA1122IA1122I2I22IIIIIIIIIIIIIIIIIIIIII
A1AA112222222IIIIIIIIIIIIIA1122IA1122I2I22IIIIIIIIIIIIIIIIIIIIII
A1AA112222222IIIIIIIIIIIIIA1122IA1122I2I22IIIIIIIIIIIIIIIIA1122I
A1AA112222222IIIIIIIIIIIIIA1122IA1A1122I2222IIIIIIIIIIIIIIA1122I
A1AA112222222IIIIIIIIIIIIIA1122IA1AA112222222IIIIIIIIIIIIIA1122I
IIIIIIIIIIIIIIIIIIIIII2IIIIIIIIIAI2IIIIIIIIIIIIIIIIIIIIIIIIIIIII
AI2IIIIIIIIIIIIIIIIIII2IIIIIIIIIAI2IIIIIIIIIIIIIIIIIIIIIIIIIIIII
AI2IIIIIIIIIIIIIIIIIII2IIIIIIIIIAI2IIIIIIIIIIIII2IIIIIIIIIAI2III
AI2IIIIIIIIIIIIIIIIIII2I2IIIIIIIAIAI2IIIIIIIIIII2IIIIIIIIIAI2III
AI2IIIIIIIIIIIIIIIIIII2I22IIIIIIAIAA22IIIIIIIIII2IIIIIIIIIAI2III
AI2IIIIIIIIIIIII2IIIII2I22AI2IIIAIAA22IIIIIIIIII2IIIIIIIIIAI2III
AIAI2IIIIIIIIIII2IIIII2I22AI2IIIAIAA22IIIIIIIIII2IIIIIIIIIAI2III
AIAA22IIIIIIIIII2IIIII2I22AI2IIIAIAA22IIIIIIIIII2IIIIIIIIIAI2III
A122II2IIIIIIIIIIIIIIIIIIIIIIIIIIIIIIIIIIIIIIIIIIIIIIIIIIIIIIIII
A122II2IIIIIIIIIIIIIIIIIIIIIIIIIA122II2IIIIIIIIIIIIIIIIIIIIIIIII
A122II2IIIIIIIIIIIIIIIIIIIA122IIA122II2IIIIIIIIIIIIIIIIIIIIIIIII
A1A1222I2IIIIIIIIIIIIIIIIIA122IIA122II2IIIIIIIIIIIIIIIIIIIIIIIII
A1AA122I22IIIIIIIIIIIIIIIIA122IIA122II2IIIIIIIIIIIIIIIIIIIIIIIII
A1AA122I22IIIIIIII2III2IIIA122IIA122II2IIIIIIIIIIIIIIIIIIIIIIIII
A1AA122I22IIIIIIII2III2IIIA122IIA122II2IIIII2III2IIIIIIIIIAI2III
A1AA122I22IIIIIIII2I2I2I2IA122IIA1A22I2IIIII2III2IIIIIIIIIAI2III
A1AA122I22IIIIIIII2I222I22A122IIA1AA222IIIII2III2IIIIIIIIIAI2III
IIIIIIIIIIIIIIIIIIIIII2IIIII2IIIAI2IIIIIIIIIIIIIIIIIIIIIIIIIIIII
AI2IIIIIIIIIIIIIIIIIII2IIIII2IIIAI2IIIIIIIIIIIIIIIIIIIIIIIIIIIII
AI2IIIIIIIIIIIIIIIIIII2IIIII2IIIAI2IIIIIIIIIIIII2IIIII2IIIAI2III
AI2IIIIIIIIIIIIIIIIIII2I2III2I2IAIAI2IIIIIIIIIII2IIIII2IIIAI2III
AI2IIIIIIIIIIIIIIIIIII2I22II2I22AIAA22IIIIIIIIII2IIIII2IIIAI2III
AI2IIIIIIIIIIIII2IIIII2I22AI2I22AIAA22IIIIIIIIII2IIIII2IIIAI2III
AIAI2IIIIIIIIIII2IIIII2I22AI2I22AIAA22IIIIIIIIII2IIIII2IIIAI2III
AIAA22IIIIIIIIII2IIIII2I22AI2I22AIAA22IIIIIIIIII2IIIII2IIIAI2III
A12III2IIIIIIIIIIIIIIIIIIIIIIIIIIIIIIIIIIIIIIIIIIIIIIIIIIIIIIIII
A12III2IIIIIIIIIIIIIIIIIIIIIIIIIA12III2IIIIIIIIIIIIIIIIIIIIIIIII
A12III2IIIIIIIIIIIIIIIIIIIA12IIIA12III2IIIIIIIIIIIIIIIIIIIIIIIII
A1A12I2I2IIIIIIIIIIIIIIIIIA12IIIA12III2IIIIIIIIIIIIIIIIIIIIIIIII
A1AA122I22IIIIIIIIIIIIIIIIA12IIIA12III2IIIIIIIIIIIIIIIIIIIIIIIII
A1AA122I22IIIIIIIIIIIIIIIIA12IIIA12III2IIIIIIIIIIIIIIIIIIIA12III
A1AA122I22IIIIIIIIIIIIIIIIA12IIIA1A12I2I2IIIIIIIIIIIIIIIIIA12III
A1AA122I22IIIIIIIIIIIIIIIIA12IIIA1AA122I22IIIIIIIIIIIIIIIIA12III
IIIIIIIIIIIIIIIIIIIIII2IIIIIIII2AIIIIIIIIII2I2IIIIIIIIIIIIIIIIII
AIIIIIIIIII2I2IIIIIIII2IIIIIIII2AIIIIIIIIII2I2IIIIIIIIIIIIIIIIII
AIIIIIIIIII2I2IIIIIIII2IIIIIIII2AIIIIIIIIII2I2II2IIIIIIII2AIIIII
AIIIIIIIIII2I2IIIIIIII2I2IIIIII2A2AIIIIIIII2I2I22IIIIIIII2AIIIII
AIIIIIIIIII2I2IIIIIIII2I22IIIII2A2AAIIIIIII2I2222IIIIIIII2AIIIII
AIIIIIIIIII2I2II2IIIII2I22AIIII2A2AAI2I2III2I2222IIIIIIII2AIIIII
A2AIIIIIIII2I2I22IIIII2I22AIIII2A2AAI2I2III2I2222IIIIIIII2AIIIII
A2AAIIIIIII2I2222IIIII2I22AIIII2A2AAI2I2III2I2222IIIIIIII2AIIIII
A11III1I11III2II2IIIIIIIIIIIIIIIIIIIIIIIIIIIIIIIIIIIIIIIIIIIIIII
A11III1I11III2II2IIIIIIIIIIIIIIIA11III1I11III2II2IIIIIIIIIIIIIII
A11III1I11III2II2IIIIIIIIIA11IIIA111II12112II2II2IIIIIIIIIIIIIII
A1A11I1I1111I2I22I2IIIIIIIA11IIIA111II12112II2II2IIIIIIIIIIIIIII
A1AA111I111112I22I22IIIIIIA11IIIA111II12112II2II2IIIIIIIIIIIIIII
A1AA111I111112I22I22IIIIIIA11IIIA111II12112II2II2IIIIIIIIIA11III
A1AA111I111112I22I22IIIIIIA11IIIA1A11I121111I2I22I2IIIIIIIA11III
A1AA111I111112I22I22IIIIIIA11IIIA1AA1112111112I22I22IIIIIIA11III
IIIIIIIIIIIIIIIIII2III2IIIIIIIIIAI2IIIIIIIIIIIIIIIIIIIIIIIIIIIII
AI2IIIIIIIIIIIIIII2III2IIIIIIIIIAI2IIIIIIIIIIIIIIIIIIIIIIIIIIIII
AI2IIIIIIIIIIIIIII2III2IIIIIIIIIAI2IIIIIIIII2III2IIIIIIIIIAI2III
AI2IIIIIIIIIIIIIII2I2I2I2IIIIIIIAIAI2IIIIIII2III2IIIIIIIIIAI2III
AI2IIIIIIIIIIIIIII2I222I22IIIIIIAIAA22IIIIII2III2IIIIIIIIIAI2III
AI2IIIIIIIII2III2I2I222I22AI2IIIAIAA22IIIIII2III2IIIIIIIIIAI2III
AIAI2IIIIIII2III2I2I222I22AI2IIIAIAA22IIIIII2III2IIIIIIIIIAI2III
AIAA22IIIIII2III2I2I222I22AI2IIIAIAA22IIIIII2III2IIIIIIIIIAI2III
A122IIIIIIIIIIIIIIIIIIIIIIIIIIIIIIIIIIIIIIIIIIIIIIIIIIIIIIIIIIII
A122IIIIIIIIIIIIIIIIIIIIIIIIIIIIA122IIIIIIIIIIIIIIIIIIIIIIIIIIII
A122IIIIIIIIIIIIIIIIIIIIIIA122IIA122IIIIIIIIIIIIIIIIIIIIIIIIIIII
A1A122IIIIIIIIIIIIIIIIIIIIA122IIA122IIIIIIIIIIIIIIIIIIIIIIIIIIII
A1AA122IIIIIIIIIIIIIIIIIIIA122IIA122IIIIIIIIIIIIIIIIIIIIIIIIIIII
A1AA122IIIIIIIIIIIIIIIIIIIA122IIA122IIIIIIIIIIIIIIIIIIIIIIA122II
A1AA122IIIIIIIIIIIIIIIIIIIA122IIA1A122IIIIIIIIIIIIIIIIIIIIA122II
A1AA122IIIIIIIIIIIIIIIIIIIA122IIA1AA122IIIIIIIIIIIIIIIIIIIA122II
IIIIIIIIIIIIIIIIIIIIII2IIIIIIIIIAI2IIIIIIIIIIIIIIIIIIIIIIIIIIIII
AI2IIIIIIIIIIIIIIIIIII2IIIIIIIIIAI2IIIIIIIIIIIIIIIIIIIIIIIIIIIII
AI2IIIIIIIIIIIIIIIIIII2IIIIIIIIIAI2IIIIIIIIIIIII2IIIIIIIIIAI2III
AI2IIIIIIIIIIIIIIIIIII2I2IIIIIIIAIAI2IIIIIIIIIII2IIIIIIIIIAI2III
AI2IIIIIIIIIIIIIIIIIII2I22IIIIIIAIAA22IIIIIIIIII2IIIIIIIIIAI2III
AI2IIIIIIIIIIIII2IIIII2I22AI2IIIAIAA22IIIIIIIIII2IIIIIIIIIAI2III
AIAI2IIIIIIIIIII2IIIII2I22AI2IIIAIAA22IIIIIIIIII2IIIIIIIIIAI2III
AIAA22IIIIIIIIII2IIIII2I22AI2IIIAIAA22IIIIIIIIII2IIIIIIIIIAI2III
A122II2IIIIIIIIIIIIIIIIIIIIIIIIIIIIIIIIIIIIIIIIIIIIIIIIIIIIIIIII
A122II2IIIIIIIIIIIIIIIIIIIIIIIIIA122II2IIIIIIIIIIIIIIIIIIIIIIIII
A122II2IIIIIIIIIIIIIIIIIIIA122IIA122II2IIIIIIIIIIIIIIIIIIIIIIIII
A1A1222I2IIIIIIIIIIIIIIIIIA122IIA122II2IIIIIIIIIIIIIIIIIIIIIIIII
A1AA122I22IIIIIIIIIIIIIIIIA122IIA122II2IIIIIIIIIIIIIIIIIIIIIIIII
A1AA122I22IIIIIIIIIIIIIIIIA122IIA122II2IIIIIIIIIIIIIIIIIIIA122II
A1AA122I22IIIIIIIIIIIIIIIIA122IIA1A1222I2IIIIIIIIIIIIIIIIIA122II
A1AA122I22IIIIIIIIIIIIIIIIA122IIA1AA122I22IIIIIIIIIIIIIIIIA122II
IIIIIIIIIIIIIIIIIIIIIIIIIIIIIII2AIIIIIIIIIIIIIIIIIIIIIIIIIIIIIII
AIIIIIIIIIIIIIIIIIIIIIIIIIIIIII2AIIIIIIIIIIIIIIIIIIIIIIIIIIIIIII
AIIIIIIIIIIIIIIIIIIIIIIIIIIIIII2AIIIIIIIIIIIIIIIIIIIIIIII2AIIIII
AIIIIIIIIIIIIIIIIIIIIIIIIIIIIII2A2AIIIIIIIIIIIIIIIIIIIIII2AIIIII
AIIIIIIIIIIIIIIIIIIIIIIIIIIIIII2A2AAIIIIIIIIIIIIIIIIIIIII2AIIIII
AI1IIIIIIIIIIIIIIIIIIIIIIIIIIII2A2AAIIIIIIIIIIIIIIIIIIIII2AIIIII
AI1IIIIIIIII2III2I2IIIIIIIAI1II2A2AAIIIIIIIIIIIIIIIIIIIII2AIIIII
AIAI1IIIIIII2III2I2IIIIIIIAI1II2A2AAIIIIIIIIIIIIIIIIIIIII2AIIIII
AIAA11IIIIII2III2I2IIIIIIIAI1II2A2AAIIIIIIIIIIIIIIIIIIIII2AIIIII
A112IIIIIIIIIIIIIIIIIIIIIIIIIIIIIIIIIIIIIIIIIIIIIIIIIIIIIIIIIIII
A112IIIIIIIIIIIIIIIIIIIIIIIIIIIIA112IIIIIIIIIIIIIIIIIIIIIIIIIIII
A112IIIIIIIIIIIIIIIIIIIIIIA112IIA112IIIIIIIIIIIIIIIIIIIIIIIIIIII
A1A112IIIIIIIIIIIIIIIIIIIIA112IIA112IIIIIIIIIIIIIIIIIIIIIIIIIIII
A1AA112IIIIIIIIIIIIIIIIIIIA112IIA112IIIIIIIIIIIIIIIIIIIIIIIIIIII
A1AA112IIIIIIIIIIIIIIIIIIIA112IIA112IIIIIIIIIIIIIIIIIIIIIIA112II
A1AA112IIIIIIIIIIIIIIIIIIIA112IIA1A112IIIIIIIIIIIIIIIIIIIIA112II
A1AA112IIIIIIIIIIIIIIIIIIIA112IIA1AA112IIIIIIIIIIIIIIIIIIIA112II
IIIIIIIIIIIIIIIIIIIIIIIIIIIIIII2AIIII2IIIIIII2IIIIIIIIIIIIIIIIII
AIIII2IIIIIII2IIIIIIIIIIIIIIIII2AIIII2IIIIIII2IIIIIIIIIIIIIIIIII
AIIII2IIIIIII2IIIIIIIIIIIIIIIII2AIIII2IIIIIII2IIIIIIIIIII2AIIII2
AIIII2IIIIIII2IIIIIIIIIIIIIIIII2A2AII2I2IIIII2I2IIIIIIIII2AIIII2
AIIII2IIIIIII2IIIIIIIIIIIIIIIII2A2AAI2I22IIII2I22IIIIIIII2AIIII2
AIIII2IIIIIII2IIIIIIIIIII2AIIII2A2AAI2I22IIII2I22IIIIIIII2AIIII2
A2AII2I2IIIII2I2IIIIIIIII2AIIII2A2AAI2I22IIII2I22IIIIIIII2AIIII2
A2AAI2I22IIII2I22IIIIIIII2AIIII2A2AAI2I22IIII2I22IIIIIIII2AIIII2
A122IIIIIIIIIIIIIIIIIIIIIIIIIIIIIIIIIIIIIIIIIIIIIIIIIIIIIIIIIIII
A122IIIIIIIIIIIIIIIIIIIIIIIIIIIIA122IIIIIIIIIIIIIIIIIIIIIIIIIIII
A122IIIIIIIIIIIIIIIIIIIIIIA122IIA122IIIIIIIIIIIIIIIIIIIIIIIIIIII
A1A122IIIIIIIIIIIIIIIIIIIIA122IIA122IIIIIIIIIIIIIIIIIIIIIIIIIIII
A1AA122IIIIIIIIIIIIIIIIIIIA122IIA122IIIIIIIIIIIIIIIIIIIIIIIIIIII
A1AA122IIIIIIIIIIIIIIIIIIIA122IIA122IIIIIIIIIIIIIIIIIIIIIIA122II
A1AA122IIIIIIIIIIIIIIIIIIIA122IIA1A122IIIIIIIIIIIIIIIIIIIIA122II
A1AA122IIIIIIIIIIIIIIIIIIIA122IIA1AA122IIIIIIIIIIIIIIIIIIIA122II
IIIIIIIIIIIIIIIIIIIIIIIIIIII2II2AIIIIIIIIIIIIIIIIIIIIIIIIIIIIIII
AIIIIIIIIIIIIIIIIIIIIIIIIIII2II2AIIIIIIIIIIIIIIIIIIIIIIIIIIIIIII
AIIIIIIIIIIIIIIIIIIIIIIIIIII2II2AIIIIIIIIIIIIIIIIIIIII2II2AIIIII
AIIIIIIIIIIIIIIIIIIIIIIIIIII2I22A2AIIIIIIIIIIIIIIIIIII2II2AIIIII
AIIIIIIIIIIIIIIIIIIIIIIIIIII2I22A2AAIIIIIIIIIIIIIIIIII2II2AIIIII
AIIIIIIIIIIIIIIIIIIIII2II2AI2I22A2AAIIIIIIIIIIIIIIIIII2II2AIIIII
A2AIIIIIIIIIIIIIIIIIII2II2AI2I22A2AAIIIIIIIIIIIIIIIIII2II2AIIIII
A2AAIIIIIIIIIIIIIIIIII2II2AI2I22A2AAIIIIIIIIIIIIIIIIII2II2AIIIII
A111IIIIIIIIIIIIIIIIIIIIIIIIIIIIIIIIIIIIIIIIIIIIIIIIIIIIIIIIIIII
A111IIIIIIIIIIIIIIIIIIIIIIIIIIIIA111IIIIIIIIIIIIIIIIIIIIIIIIIIII
A111IIIIIIIIIIIIIIIIIIIIIIA111IIA111IIIIIIIIIIIIIIIIIIIIIIIIIIII
A1A111IIIIIIIIIIIIIIIIIIIIA111IIA111IIIIIIIIIIIIIIIIIIIIIIIIIIII
A1AA111IIIIIIIIIIIIIIIIIIIA111IIA111IIIIIIIIIIIIIIIIIIIIIIIIIIII
A1AA111IIIIIIIIIIIIIIIIIIIA111IIA111IIIIIIIIIIIIIIIIIIIIIIA111II
A1AA111IIIIIIIIIIIIIIIIIIIA111IIA1A111IIIIIIIIIIIIIIIIIIIIA111II
A1AA111IIIIIIIIIIIIIIIIIIIA111IIA1AA111IIIIIIIIIIIIIIIIIIIA111II
IIIIIIIIIIIIIIIIIIIIII2IIIIIIIIIAI1I2IIIIIIIIIIIIIIIIIIIIIIIIIII
AI1I2IIIIIIIIIIIIIIIII2IIIIIIIIIAI1I2IIIIIIIIIIIIIIIIIIIIIIIIIII
AI1I2IIIIIIIIIIIIIIIII2IIIIIIIIIAI1I2IIIIIIIIIII2IIIIIIIIIAI1I2I
AI1I2IIIIIIIIIIIIIIIII2I2IIIIIIIAIAI1I2IIIIIIIII2IIIIIIIIIAI1I2I
AI1I2IIIIIIIIIIIIIIIII2I22IIIIIIAIAA1122IIIIIIII2IIIIIIIIIAI1I2I
AI1I2IIIIIIIIIII2IIIII2I22AI1I2IAIAA1122IIIIIIII2IIIIIIIIIAI1I2I
AIAI1I2IIIIIIIII2IIIII2I22AI1I2IAIAA1122IIIIIIII2IIIIIIIIIAI1I2I
AIAA1122IIIIIIII2IIIII2I22AI1I2IAIAA1122IIIIIIII2IIIIIIIIIAI1I2I
A122IIIIIIIIIIIIIIIIIIIIIIIIIIIIIIIIIIIIIIIIIIIIIIIIIIIIIIIIIIII
A122IIIIIIIIIIIIIIIIIIIIIIIIIIIIA122IIIIIIIIIIIIIIIIIIIIIIIIIIII
A122IIIIIIIIIIIIIIIIIIIIIIA122IIA122IIIIIIIIIIIIIIIIIIIIIIIIIIII
A1A122IIIIIIIIIIIIIIIIIIIIA122IIA122IIIIIIIIIIIIIIIIIIIIIIIIIIII
A1AA122IIIIIIIIIIIIIIIIIIIA122IIA122IIIIIIIIIIIIIIIIIIIIIIIIIIII
A1AA122IIIIIIIIIIIIIIIIIIIA122IIA122IIIIIIIIIIIIIIIIIIIIIIA122II
A1AA122IIIIIIIIIIIIIIIIIIIA122IIA1A122IIIIIIIIIIIIIIIIIIIIA122II
A1AA122IIIIIIIIIIIIIIIIIIIA122IIA1AA122IIIIIIIIIIIIIIIIIIIA122II
IIIIIIIIIIIIIIIIIIIIII2IIIIIIIIIAI2IIIIIIIIIIIIIIIIIIIIIIIIIIIII
AI2IIIIIIIIIIIIIIIIIII2IIIIIIIIIAI2IIIIIIIIIIIIIIIIIIIIIIIIIIIII
AI2IIIIIIIIIIIIIIIIIII2IIIIIIIIIAI2IIIIIIIIIIIII2IIIIIIIIIAI2III
AI2IIIIIIIIIIIIIIIIIII2I2IIIIIIIAIAI2IIIIIIIIIII2IIIIIIIIIAI2III
AI2IIIIIIIIIIIIIIIIIII2I22IIIIIIAIAA22IIIIIIIIII2IIIIIIIIIAI2III
AI2IIIIIIIIIIIII2IIIII2I22AI2IIIAIAA22IIIIIIIIII2IIIIIIIIIAI2III
AIAI2IIIIIIIIIII2IIIII2I22AI2IIIAIAA22IIIIIIIIII2IIIIIIIIIAI2III
AIAA22IIIIIIIIII2IIIII2I22AI2IIIAIAA22IIIIIIIIII2IIIIIIIIIAI2III
A112II2IIIIIIIIIIIIIIIIIIIIIIIIIIIIIIIIIIIIIIIIIIIIIIIIIIIIIIIII
A112II2IIIIIIIIIIIIIIIIIIIIIIIIIA112II2IIIIIIIIIIIIIIIIIIIIIIIII
A112II2IIIIIIIIIIIIIIIIIIIA112IIA112II2IIIIIIIIIIIIIIIIIIIIIIIII
A1A1122I2IIIIIIIIIIIIIIIIIA112IIA112II2IIIIIIIIIIIIIIIIIIIIIIIII
A1AA112I22IIIIIIIIIIIIIIIIA112IIA112II2IIIIIIIIIIIIIIIIIIIIIIIII
A1AA112I22IIIIIIIIIIIIIIIIA112IIA112II2IIIIIIIIIIIIIIIIIIIA112II
A1AA112I22IIIIIIIIIIIIIIIIA112IIA1A1122I2IIIIIIIIIIIIIIIIIA112II
A1AA112I22IIIIIIIIIIIIIIIIA112IIA1AA112I22IIIIIIIIIIIIIIIIA112II
IIIA111111IIIIIIIIIIIIIIIIIIIIIIIIIIIIIIIIIIIIIIIIIIIIIIIIIIIIII
IIIAA1111111IIIIIIIIIIIIIIIIIIIIIIIIIIIIIIIIIIIIIIIIIIIIIIIIIIII
IIIAA11111111IIIIIIIIIIIIIIIIIIIIIIIIIIIIIIIIIIIIIIIIIIIIIIIIIII
IIIAAA11111111IIIIIIIIIIIIIIIIIIIIIIIIIIIIIIIIIIIIIIIIIIIIIIIIII
IIIAAA111111111IIIIIIIIIIIIIIIIIIIIIIIIIIIIIIIIIIIIIIIIIIIIIIIII
IIIAAA11111111111IIIIIIIIIIIIIIIIIIIIIIIIIIIIIIIIIIIIIIIIIIIIIII
IIIAAAA1111111111111IIIIIIIIIIIIIIIIIIIIIIIIIIIIIIIIIIIIIIIIIIII
IIIAAAA11111111111111IIIIIIIIIIIIIIIIIIIIIIIIIIIIIIIIIIIIIIIIIII
IIIAAAAA11111111111111IIIIIIIIIIIIIIIIIIIIIIIIIIIIIIIIIIIIIIIIII
IIIAAAAA111111111111111IIIIIIIIIIIIIIIIIIIIIIIIIIIIIIIIIIIIIIIII
IIIAAAAA1111111111111112IIIIIIIIIIIIIIIIIIIIIIIIIIIIIIIIIIIIIIII
IIIAAAAAA1111111111111112IIIIIIIIIIIIIIIIIIIIIIIIIIIIIIIIIIIIIII
IIIAAAAAAA1111111111111112IIIIIIIIIIIIIIIIIIIIIIIIIIIIIIIIIIIIII
IIIAAAAAAAA1111111111111112IIIIIIIIIIIIIIIIIIIIIIIIIIIIIIIIIIIII
IIIAAAAAAAAA1111111111111112IIIIIIIIIIIIIIIIIIIIIIIIIIIIIIIIIIII
IIIAAAAAAAAAA1111111111111112IIIIIIIIIIIIIIIIIIIIIIIIIIIIIIIIIII
IIIAAAAAAAAAAA1111111111111112IIIIIIIIIIIIIIIIIIIIIIIIIIIIIIIIII
IIIAAAAAAAAAAAA1111111111111112IIIIIIIIIIIIIIIIIIIIIIIIIIIIIIIII
IIIAAAAAAAAAAAAA1111111111111112IIIIIIIIIIIIIIIIIIIIIIIIIIIIIIII
IIIAAAAAAAAAAAAAA1111111111111112IIIIIIIIIIIIIIIIIIIIIIIIIIIIIII
IIIAAAAAAAAAAAAAAA1111111111111112IIIIIIIIIIIIIIIIIIIIIIIIIIIIII
IIIAAAAAAAAAAAAAAAA1111111111111112IIIIIIIIIIIIIIIIIIIIIIIIIIIII
IIIAAAAAAAAAAAAAAAAA1111111111111112IIIIIIIIIIIIIIIIIIIIIIIIIIII
IIIAAAAAAAAAAAAAAAAAA1111111111111112IIIIIIIIIIIIIIIIIIIIIIIIIII
IIIAAAAAAAAAAAAAAAAAAA1111111111111112IIIIIIIIIIIIIIIIIIIIIIIIII
IIIAAAAAAAAAAAAAAAAAAAA1111111111111112IIIIIIIIIIIIIIIIIIIIIIIII
IIIAAAAAAAAAAAAAAAAAAAAA1111111111111112IIIIIIIIIIIIIIIIIIIIIIII
IIIAAAAAAAAAAAAAAAAAAAAAA1111111111111112IIIIIIIIIIIIIIIIIIIIIII
IIIAAAAAAAAAAAAAAAAAAAAAAA1111111111111112IIIIIIIIIIIIIIIIIIIIII
IIIAAAAAAAAAAAAAAAAAAAAAAAA1111111111111112IIIIIIIIIIIIIIIIIIIII
IIIAAAAAAAAAAAAAAAAAAAAAAAA11111111A1111111111111112IIIIIIIIIIII
IIIAAAAAAAAAAAAAAAAAAAAAAAA11111111AA1111111111111112IIIIIIIIIII
IIIAAAAAAAAAAAAAAAAAAAAAAAA11111111AAA1111111111111112IIIIIIIIII
IIIAAAAAAAAAAAAAAAAAAAAAAAA11111111AAAA1111111111111112IIIIIIIII
IIIAAAAAAAAAAAAAAAAAAAAAAAA11111111AAAAA1111111111111112IIIIIIII
IIIAAAAAAAAAAAAAAAAAAAAAAAA11111111AAAAAA1111111111111112IIIIIII
IIIAAAAAAAAAAAAAAAAAAAAAAAA11111111AAAAAAA1111111111111112IIIIII
IIIAAAAAAAAAAAAAAAAAAAAAAAA11111111AAAAAAAA1111111111111112IIIII
IIIAAAAAAAAAAAAAAAAAAAAAAAA11111111AAAAAAAAA1111111111111112IIII
IIIAAAAAAAAAAAAAAAAAAAAAAAA11111111AAAAAAAAAA1111111111111112III
IIIAAAAAAAAAAAAAAAAAAAAAAAA11111111AAAAAAAAAAA1111111111111112II
IIIAAAAAAAAAAAAAAAAAAAAAAAA11111111AAAAAAAAAAAA1111111111111112I
IIIAAAAAAAAAAAAAAAAAAAAAAAA11111111AAAAAAAAAAAAA1111111111111112
IIIAAAAAAAAAAAAAAAAAAAAAAAA11111111AAAAAAAAAAAAAA111111111111111
IIIAAAAAAAAAAAAAAAAAAAAAAAA11111111AAAAAAAAAAAAAAA11111111111111
IIIAAAAAAAAAAAAAAAAAAAAAAAA11111111AAAAAAAAAAAAAAAA1111111111111
IIIAAAAAAAAAAAAAAAAAAAAAAAA11111111AAAAAAAAAAAAAAAAA111111111111
IIIAAAAAAAAAAAAAAAAAAAAAAAA11111111AAAAAAAAAAAAAAAAAA11111111111
IIIAAAAAAAAAAAAAAAAAAAAAAAA11111111AAAAAAAAAAAAAAAAAAA1111111111
IIIAAAAAAAAAAAAAAAAAAAAAAAA11111111AAAAAAAAAAAAAAAAAAAA111111111
IIIAAAAAAAAAAAAAAAAAAAAAAAA11111111AAAAAAAAAAAAAAAAAAAAA11111111
IIIAAAAAAAAAAAAAAAAAAAAAAAA11111111AAAAAAAAAAAAAAAAAAAAAA1111111
IIIAAAAAAAAAAAAAAAAAAAAAAAA11111111AAAAAAAAAAAAAAAAAAAAAAA111111
IIIAAAAAAAAAAAAAAAAAAAAAAAA11111111AAAAAAAAAAAAAAAAAAAAAAAA11111
IIIA1I1111111111111IIIIIIIIIIIIIIIIIIIIIIIIIIIIIIIIIIIIIIIIIIIII
IIIAAI1111111111111IIIIIIIIIIIIIIIIIIIIIIIIIIIIIIIIIIIIIIIIIIIII
IIIAAA1111111111111IIIIIIIIIIIIIIIIIIIIIIIIIIIIIIIIIIIIIIIIIIIII
IIIAAAA111111111111IIIIIIIIIIIIIIIIIIIIIIIIIIIIIIIIIIIIIIIIIIIII
IIIAAAAA11111111111IIIIIIIIIIIIIIIIIIIIIIIIIIIIIIIIIIIIIIIIIIIII
IIIAAAAAA1111111111IIIIIIIIIIIIIIIIIIIIIIIIIIIIIIIIIIIIIIIIIIIII
IIIAAAAAAA111111111IIIIIIIIIIIIIIIIIIIIIIIIIIIIIIIIIIIIIIIIIIIII
IIIAAAAAAA1111111111111111IIIIIIIIIIIIIIIIIIIIIIIIIIIIIIIIIIIIII
IIIAAAAAAAA111111111111111IIIIIIIIIIIIIIIIIIIIIIIIIIIIIIIIIIIIII
IIIAAAAAAAAA11111111111111IIIIIIIIIIIIIIIIIIIIIIIIIIIIIIIIIIIIII
IIIAAAAAAAAAA1111111111111111IIIIIIIIIIIIIIIIIIIIIIIIIIIIIIIIIII
IIIAAAAAAAAAAA1111111111111111IIIIIIIIIIIIIIIIIIIIIIIIIIIIIIIIII
IIIAAAAAAAAAAAA1111111111111111IIIIIIIIIIIIIIIIIIIIIIIIIIIIIIIII
IIIAAAAAAAAAAAAA1111111111111111IIIIIIIIIIIIIIIIIIIIIIIIIIIIIIII
IIIAAAAAAAAAAAAAA1111111111111111IIIIIIIIIIIIIIIIIIIIIIIIIIIIIII
IIIAAAAAAAAAAAAAAA1111111111111111IIIIIIIIIIIIIIIIIIIIIIIIIIIIII
IIIAAAAAAAAAAAAAAAA111111111111111IIIIIIIIIIIIIIIIIIIIIIIIIIIIII
IIIAAAAAAAAAAAAAAAAA11111111111111IIIIIIIIIIIIIIIIIIIIIIIIIIIIII
IIIAAAAAAAAAAAAAAAAAA1111111111111111IIIIIIIIIIIIIIIIIIIIIIIIIII
IIIAAAAAAAAAAAAAAAAAAA1111111111111111IIIIIIIIIIIIIIIIIIIIIIIIII
IIIAAAAAAAAAAAAAAAAAAAA1111111111111111IIIIIIIIIIIIIIIIIIIIIIIII
IIIAAAAAAAAAAAAAAAAAAAAA1111111111111111IIIIIIIIIIIIIIIIIIIIIIII
IIIAAAAAAAAAAAAAAAAAAAAAA1111111111111111IIIIIIIIIIIIIIIIIIIIIII
IIIAAAAAAAAAAAAAAAAAAAAAAA111111111111111IIIIIIIIIIIIIIIIIIIIIII
IIIAAAAAAAAAAAAAAAAAAAAAAAA1111111111111111IIIIIIIIIIIIIIIIIIIII
IIIAAAAAAAAAAAAAAAAAAAAAAAA11111111A11111111111I1I11IIIIIIIIIIII
IIIAAAAAAAAAAAAAAAAAAAAAAAA11111111AA1111111111111111IIIIIIIIIII
IIIAAAAAAAAAAAAAAAAAAAAAAAA11111111AAA1111111111111111IIIIIIIIII
IIIAAAAAAAAAAAAAAAAAAAAAAAA11111111AAAA1111111111111111IIIIIIIII
IIIAAAAAAAAAAAAAAAAAAAAAAAA11111111AAAAA1111111111111111IIIIIIII
IIIAAAAAAAAAAAAAAAAAAAAAAAA11111111AAAAAA1111111111111111IIIIIII
IIIAAAAAAAAAAAAAAAAAAAAAAAA11111111AAAAAAA1111111111111111IIIIII
IIIAAAAAAAAAAAAAAAAAAAAAAAA11111111AAAAAAAA1111111111111111IIIII
IIIAAAAAAAAAAAAAAAAAAAAAAAA11111111AAAAAAAAA1111111111111111IIII
IIIAAAAAAAAAAAAAAAAAAAAAAAA11111111AAAAAAAAAA1111111111111111III
IIIAAAAAAAAAAAAAAAAAAAAAAAA11111111AAAAAAAAAAA1111111111111111II
IIIAAAAAAAAAAAAAAAAAAAAAAAA11111111AAAAAAAAAAAA1111111111111111I
IIIAAAAAAAAAAAAAAAAAAAAAAAA11111111AAAAAAAAAAAAA1111111111111111
IIIAAAAAAAAAAAAAAAAAAAAAAAA11111111AAAAAAAAAAAAAA111111111111111
IIIAAAAAAAAAAAAAAAAAAAAAAAA11111111AAAAAAAAAAAAAAA11111111111111
IIIAAAAAAAAAAAAAAAAAAAAAAAA11111111AAAAAAAAAAAAAAAA1111111111111
IIIAAAAAAAAAAAAAAAAAAAAAAAA11111111AAAAAAAAAAAAAAAAA111111111111
IIIAAAAAAAAAAAAAAAAAAAAAAAA11111111AAAAAAAAAAAAAAAAAA11111111111
IIIAAAAAAAAAAAAAAAAAAAAAAAA11111111AAAAAAAAAAAAAAAAAAA1111111111
IIIAAAAAAAAAAAAAAAAAAAAAAAA11111111AAAAAAAAAAAAAAAAAAAA111111111
IIIAAAAAAAAAAAAAAAAAAAAAAAA11111111AAAAAAAAAAAAAAAAAAAAA11111111
IIIAAAAAAAAAAAAAAAAAAAAAAAA11111111AAAAAAAAAAAAAAAAAAAAAA1111111
IIIAAAAAAAAAAAAAAAAAAAAAAAA11111111AAAAAAAAAAAAAAAAAAAAAAA111111
IIIAAAAAAAAAAAAAAAAAAAAAAAA11111111AAAAAAAAAAAAAAAAAAAAAAAA11111
IIIAAAAAAAAAAAAAAAAAAAAAAAA11111111AAAAAAAAAAAAAAAAAAAAAAAAA1111
IIIIIIIIIIIIIIIIIIIIIIIIIIIIIIIIIIIA11I111111111122IIIIIIIIIIIII
IIIIIIIIIIIIIIIIIIIIIIIIIIIIIIIIIIIAA1I111111111122IIIIIIIIIIIII
IIIIIIIIIIIIIIIIIIIIIIIIIIIIIIIIIIIAAA111111111111122III2IIIIIII
IIIIIIIIIIIIIIIIIIIIIIIIIIIIIIIIIIIAAAA111111111111122II22IIIIII
IIIIIIIIIIIIIIIIIIIIIIIIIIIIIIIIIIIAAAAA111111111111122I222IIIII
IIIIIIIIIIIIIIIIIIIIIIIIIIIIIIIIIIIAAAAAA111111111111122222IIIII
IIIIIIIIIIIIIIIIIIIIIIIIIIIIIIIIIIIAAAAAAA11111111111112222I2III
IIIIIIIIIIIIIIIIIIIIIIIIIIIIIIIIIIIAAAAAAAA1111111111111222I22II
IIIIIIIIIIIIIIIIIIIIIIIIIIIIIIIIIIIAAAAAAAAA111111111111122I222I
IIIIIIIIIIIIIIIIIIIIIIIIIIIIIIIIIIIAAAAAAAAAA1111111111111222222
IIIIIIIIIIIIIIIIIIIIIIIIIIIIIIIIIIIAAAAAAAAAAA111111111111122222
IIIIIIIIIIIIIIIIIIIIIIIIIIIIIIIIIIIAAAAAAAAAAAA11111111111112222
IIIIIIIIIIIIIIIIIIIIIIIIIIIIIIIIIIIAAAAAAAAAAAAA1111111111111222
IIIIIIIIIIIIIIIIIIIIIIIIIIIIIIIIIIIAAAAAAAAAAAAAA111111111111122
IIIIIIIIIIIIIIIIIIIIIIIIIIIIIIIIIIIAAAAAAAAAAAAAAA11111111111112
IIIIIIIIIIIIIIIIIIIIIIIIIIIIIIIIIIIAAAAAAAAAAAAAAAA1111111111111
IIIIIIIIIIIIIIIIIIIIIIIIIIIIIIIIIIIAAAAAAAAAAAAAAAAA111111111111
IIIIIIIIIIIIIIIIIIIIIIIIIIIIIIIIIIIAAAAAAAAAAAAAAAAAA11111111111
IIIIIIIIIIIIIIIIIIIIIIIIIIIIIIIIIIIAAAAAAAAAAAAAAAAAAA1111111111
IIIIIIIIIIIIIIIIIIIIIIIIIIIIIIIIIIIAAAAAAAAAAAAAAAAAAAA111111111
IIIIIIIIIIIIIIIIIIIIIIIIIIIIIIIIIIIAAAAAAAAAAAAAAAAAAAAA11111111
IIIIIIIIIIIIIIIIIIIIIIIIIIIIIIIIIIIAAAAAAAAAAAAAAAAAAAAAA1111111
IIIIIIIIIIIIIIIIIIIIIIIIIIIIIIIIIIIAAAAAAAAAAAAAAAAAAAAAAA111111
IIIIIIIIIIIIIIIIIIIIIIIIIIIIIIIIIIIAAAAAAAAAAAAAAAAAAAAAAAA11111
IIIA1111111111111II1IIIIIIIIIIIIIIIAAAAAAAAAAAAAAAAAAAAAAAA11111
IIIAA111111111111II1IIIIIIIIIIIIIIIAAAAAAAAAAAAAAAAAAAAAAAA11111
IIIAAA11111111111II1IIIIIIIIIIIIIIIAAAAAAAAAAAAAAAAAAAAAAAA11111
IIIAAAA1111111111II1IIIIIIIIIIIIIIIAAAAAAAAAAAAAAAAAAAAAAAA11111
IIIAAAAA111111111II1IIIIIIIIIIIIIIIAAAAAAAAAAAAAAAAAAAAAAAA11111
IIIAAAAAA11111111II1IIIIIIIIIIIIIIIAAAAAAAAAAAAAAAAAAAAAAAA11111
IIIAAAAAAA1111111II1IIIIIIIIIIIIIIIAAAAAAAAAAAAAAAAAAAAAAAA11111
IIIAAAAAAA1111111111111II1IIIIIIIIIAAAAAAAAAAAAAAAAAAAAAAAA11111
IIIAAAAAAAA1111111111111I11IIIIIIIIAAAAAAAAAAAAAAAAAAAAAAAA11111
IIIAAAAAAAAA111111111111111IIIIIIIIAAAAAAAAAAAAAAAAAAAAAAAA11111
IIIAAAAAAAAAA11111111111111I1IIIIIIAAAAAAAAAAAAAAAAAAAAAAAA11111
IIIAAAAAAAAAAA1111111111111I11IIIIIAAAAAAAAAAAAAAAAAAAAAAAA11111
IIIAAAAAAAAAAAA1111111111111111IIIIAAAAAAAAAAAAAAAAAAAAAAAA11111
IIIAAAAAAAAAAAAA1111111111111111IIIAAAAAAAAAAAAAAAAAAAAAAAA11111
IIIAAAAAAAAAAAAAA1111111111111111IIAAAAAAAAAAAAAAAAAAAAAAAA11111
IIIAAAAAAAAAAAAAAA111111111111111IIAAAAAAAAAAAAAAAAAAAAAAAA11111
IIIAAAAAAAAAAAAAAAA11111111111111IIAAAAAAAAAAAAAAAAAAAAAAAA11111
IIIAAAAAAAAAAAAAAAAA1111111111111IIAAAAAAAAAAAAAAAAAAAAAAAA11111
IIIAAAAAAAAAAAAAAAAAA111111111111IIAAAAAAAAAAAAAAAAAAAAAAAA11111
IIIAAAAAAAAAAAAAAAAAAA11111111111IIAAAAAAAAAAAAAAAAAAAAAAAA11111
IIIAAAAAAAAAAAAAAAAAAAA111111111111AAAAAAAAAAAAAAAAAAAAAAAA11111
IIIAAAAAAAAAAAAAAAAAAAAA11111111111AAAAAAAAAAAAAAAAAAAAAAAA11111
IIIAAAAAAAAAAAAAAAAAAAAAA1111111111AAAAAAAAAAAAAAAAAAAAAAAA11111
IIIAAAAAAAAAAAAAAAAAAAAAAA111111111AAAAAAAAAAAAAAAAAAAAAAAA11111
IIIAAAAAAAAAAAAAAAAAAAAAAAA11111111AAAAAAAAAAAAAAAAAAAAAAAA11111
IIIA2IIIIIIIIIIIIIIIIIIIIIIIIIIIIIIIIIIIIIIIIIIIIIIIIIIIIIIIIIII
IIIAA2IIIIIIIIIIIIIIIIIIIIIIIIIIIIIIIIIIIIIIIIIIIIIIIIIIIIIIIIII
IIIAAA2IIIIIIIIIIIIIIIIIIIIIIIIIIIIIIIIIIIIIIIIIIIIIIIIIIIIIIIII
IIIAAAA2IIIIIIIIIIIIIIIIIIIIIIIIIIIIIIIIIIIIIIIIIIIIIIIIIIIIIIII
IIIAAAAA2IIIIIIIIIIIIIIIIIIIIIIIIIIIIIIIIIIIIIIIIIIIIIIIIIIIIIII
IIIAAAAAA2IIIIIIIIIIIIIIIIIIIIIIIIIIIIIIIIIIIIIIIIIIIIIIIIIIIIII
IIIAAAAAAA2IIIIIIIIIIIIIIIIIIIIIIIIIIIIIIIIIIIIIIIIIIIIIIIIIIIII
IIIAAAAAAAA2IIIIIIIIIIIIIIIIIIIIIIIIIIIIIIIIIIIIIIIIIIIIIIIIIIII
IIIAAAAAAAAA2IIIIIIIIIIIIIIIIIIIIIIIIIIIIIIIIIIIIIIIIIIIIIIIIIII
IIIAAAAAAAAAA2IIIIIIIIIIIIIIIIIIIIIIIIIIIIIIIIIIIIIIIIIIIIIIIIII
IIIAAAAAAAAAAA2IIIIIIIIIIIIIIIIIIIIIIIIIIIIIIIIIIIIIIIIIIIIIIIII
IIIAAAAAAAAAAAA2IIIIIIIIIIIIIIIIIIIIIIIIIIIIIIIIIIIIIIIIIIIIIIII
IIIAAAAAAAAAAAAA2IIIIIIIIIIIIIIIIIIIIIIIIIIIIIIIIIIIIIIIIIIIIIII
IIIAAAAAAAAAAAAAA2IIIIIIIIIIIIIIIIIIIIIIIIIIIIIIIIIIIIIIIIIIIIII
IIIAAAAAAAAAAAAAAA2IIIIIIIIIIIIIIIIIIIIIIIIIIIIIIIIIIIIIIIIIIIII
IIIAAAAAAAAAAAAAAAA2IIIIIIIIIIIIIIIIIIIIIIIIIIIIIIIIIIIIIIIIIIII
IIIAAAAAAAAAAAAAAAAA2IIIIIIIIIIIIIIIIIIIIIIIIIIIIIIIIIIIIIIIIIII
IIIAAAAAAAAAAAAAAAAAA2IIIIIIIIIIIIIIIIIIIIIIIIIIIIIIIIIIIIIIIIII
IIIAAAAAAAAAAAAAAAAAAA2IIIIIIIIIIIIIIIIIIIIIIIIIIIIIIIIIIIIIIIII
IIIAAAAAAAAAAAAAAAAAAAA2IIIIIIIIIIIIIIIIIIIIIIIIIIIIIIIIIIIIIIII
IIIAAAAAAAAAAAAAAAAAAAAA2IIIIIIIIIIIIIIIIIIIIIIIIIIIIIIIIIIIIIII
IIIAAAAAAAAAAAAAAAAAAAAAA2IIIIIIIIIIIIIIIIIIIIIIIIIIIIIIIIIIIIII
IIIAAAAAAAAAAAAAAAAAAAAAAA2IIIIIIIIIIIIIIIIIIIIIIIIIIIIIIIIIIIII
IIIAAAAAAAAAAAAAAAAAAAAAAAA2IIIIIIIIIIIIIIIIIIIIIIIIIIIIIIIIIIII
IIIAAAAAAAAAAAAAAAAAAAAAAAA22IIIIIIIIIIIIIIIIIIIIIIIIIIIIIIIIIII
IIIAAAAAAAAAAAAAAAAAAAAAAAA22IIIIIIA11111111111111IIIIIIIIIIIIII
IIIAAAAAAAAAAAAAAAAAAAAAAAA22IIIIIIAA1111111111111IIIIIIIIIIIIII
IIIAAAAAAAAAAAAAAAAAAAAAAAA22IIIIIIAAA111111111111IIIIIIIIIIIIII
IIIAAAAAAAAAAAAAAAAAAAAAAAA22IIIIIIAAAA11111111111IIIIIIIIIIIIII
IIIAAAAAAAAAAAAAAAAAAAAAAAA22IIIIIIAAAA1111111111111111IIIIIIIII
IIIAAAAAAAAAAAAAAAAAAAAAAAA22IIIIIIAAAAA1111111111111111IIIIIIII
IIIAAAAAAAAAAAAAAAAAAAAAAAA22IIIIIIAAAAAA1111111111111111IIIIIII
IIIAAAAAAAAAAAAAAAAAAAAAAAA22IIIIIIAAAAAAA1111111111111111IIIIII
IIIAAAAAAAAAAAAAAAAAAAAAAAA22IIIIIIAAAAAAAA1111111111111111IIIII
IIIAAAAAAAAAAAAAAAAAAAAAAAA22IIIIIIAAAAAAAAA1111111111111111IIII
IIIAAAAAAAAAAAAAAAAAAAAAAAA22IIIIIIAAAAAAAAAA1111111111111111III
IIIAAAAAAAAAAAAAAAAAAAAAAAA22IIIIIIAAAAAAAAAAA1111111111111111II
IIIAAAAAAAAAAAAAAAAAAAAAAAA22IIIIIIAAAAAAAAAAAA1111111111111111I
IIIAAAAAAAAAAAAAAAAAAAAAAAA22IIIIIIAAAAAAAAAAAAA1111111111111111
IIIAAAAAAAAAAAAAAAAAAAAAAAA22IIIIIIAAAAAAAAAAAAAA111111111111111
IIIAAAAAAAAAAAAAAAAAAAAAAAA22IIIIIIAAAAAAAAAAAAAAA11111111111111
IIIAAAAAAAAAAAAAAAAAAAAAAAA22IIIIIIAAAAAAAAAAAAAAAA1111111111111
IIIAAAAAAAAAAAAAAAAAAAAAAAA22IIIIIIAAAAAAAAAAAAAAAAA111111111111
IIIAAAAAAAAAAAAAAAAAAAAAAAA22IIIIIIAAAAAAAAAAAAAAAAAA11111111111
IIIAAAAAAAAAAAAAAAAAAAAAAAA22IIIIIIAAAAAAAAAAAAAAAAAAA1111111111
IIIAAAAAAAAAAAAAAAAAAAAAAAA22IIIIIIAAAAAAAAAAAAAAAAAAAA111111111
IIIAAAAAAAAAAAAAAAAAAAAAAAA22IIIIIIAAAAAAAAAAAAAAAAAAAAA11111111
IIIAAAAAAAAAAAAAAAAAAAAAAAA22IIIIIIAAAAAAAAAAAAAAAAAAAAAA1111111
IIIAAAAAAAAAAAAAAAAAAAAAAAA22IIIIIIAAAAAAAAAAAAAAAAAAAAAAA111111
IIIAAAAAAAAAAAAAAAAAAAAAAAA22IIIIIIAAAAAAAAAAAAAAAAAAAAAAAA11111
IIIIIIIIIIIIIIIIIIIIIIIIIIIIIIIIIIIIIA111111I11111111IIIIIIIIIII
IIIIIIIIIIIIIIIIIIIIIIIIIIIIIIIIIIIIIAA11111I11111111IIIIIIIIIII
IIIIIIIIIIIIIIIIIIIIIIIIIIIIIIIIIIIAIAA11111I11111111IIIIIIIIIII
IIIIIIIIIIIIIIIIIIIIIIIIIIIIIIIIIIIAAAA11111I11111111IIIIIIIIIII
IIIIIIIIIIIIIIIIIIIIIIIIIIIIIIIIIIIAAAA11A11I11111111IIIIIIIIIII
IIIIIIIIIIIIIIIIIIIIIIIIIIIIIIIIIIIAAAAA1A11I11111111IIIIIIIIIII
IIIIIIIIIIIIIIIIIIIIIIIIIIIIIIIIIIIAAAAAAA11I11111111IIIIIIIIIII
IIIIIIIIIIIIIIIIIIIIIIIIIIIIIIIIIIIAAAAAAA1111111111111111IIIIII
IIIIIIIIIIIIIIIIIIIIIIIIIIIIIIIIIIIAAAAAAAA111111111111111IIIIII
IIIIIIIIIIIIIIIIIIIIIIIIIIIIIIIIIIIAAAAAAAAA11111111111111IIIIII
IIIIIIIIIIIIIIIIIIIIIIIIIIIIIIIIIIIAAAAAAAAAA111111111111111IIII
IIIIIIIIIIIIIIIIIIIIIIIIIIIIIIIIIIIAAAAAAAAAAA1111111111111111II
IIIIIIIIIIIIIIIIIIIIIIIIIIIIIIIIIIIAAAAAAAAAAAA1111111111111111I
IIIIIIIIIIIIIIIIIIIIIIIIIIIIIIIIIIIAAAAAAAAAAAAA1111111111111111
IIIIIIIIIIIIIIIIIIIIIIIIIIIIIIIIIIIAAAAAAAAAAAAAA111111111111111
IIIIIIIIIIIIIIIIIIIIIIIIIIIIIIIIIIIAAAAAAAAAAAAAAA11111111111111
IIIIIIIIIIIIIIIIIIIIIIIIIIIIIIIIIIIAAAAAAAAAAAAAAAA1111111111111
IIIIIIIIIIIIIIIIIIIIIIIIIIIIIIIIIIIAAAAAAAAAAAAAAAAA111111111111
IIIIIIIIIIIIIIIIIIIIIIIIIIIIIIIIIIIAAAAAAAAAAAAAAAAAA11111111111
IIIIIIIIIIIIIIIIIIIIIIIIIIIIIIIIIIIAAAAAAAAAAAAAAAAAAA1111111111
IIIIIIIIIIIIIIIIIIIIIIIIIIIIIIIIIIIAAAAAAAAAAAAAAAAAAAA111111111
IIIIIIIIIIIIIIIIIIIIIIIIIIIIIIIIIIIAAAAAAAAAAAAAAAAAAAAA11111111
IIIIIIIIIIIIIIIIIIIIIIIIIIIIIIIIIIIAAAAAAAAAAAAAAAAAAAAAA1111111
IIIIIIIIIIIIIIIIIIIIIIIIIIIIIIIIIIIAAAAAAAAAAAAAAAAAAAAAAA111111
IIIIIIIIIIIIIIIIIIIIIIIIIIIIIIIIIIIAAAAAAAAAAAAAAAAAAAAAAAA11111
IIIIIA1I111111I11I1IIIII11IIIIIIIIIAAAAAAAAAAAAAAAAAAAAAAAA11111
IIIA1A1I111111I11I1IIIII11IIIIIIIIIAAAAAAAAAAAAAAAAAAAAAAAA11111
IIIAAA1I111111I11I1IIIII11IIIIIIIIIAAAAAAAAAAAAAAAAAAAAAAAA11111
IIIAAAAI111111I11I1IIIII11IIIIIIIIIAAAAAAAAAAAAAAAAAAAAAAAA11111
IIIAAAAA111111I11I1IIIII11IIIIIIIIIAAAAAAAAAAAAAAAAAAAAAAAA11111
IIIAAAAAA11111I11I1IIIII11IIIIIIIIIAAAAAAAAAAAAAAAAAAAAAAAA11111
IIIAAAAAAA1111I11I1IIIII11IIIIIIIIIAAAAAAAAAAAAAAAAAAAAAAAA11111
IIIAAAAAAA11111111111I1I11II11IIIIIAAAAAAAAAAAAAAAAAAAAAAAA11111
IIIAAAAAAAA1111111111I1I11II11IIIIIAAAAAAAAAAAAAAAAAAAAAAAA11111
IIIAAAAAAAAA111111111I1I11II11IIIIIAAAAAAAAAAAAAAAAAAAAAAAA11111
IIIAAAAAAAAAA11111111I1I11II11IIIIIAAAAAAAAAAAAAAAAAAAAAAAA11111
IIIAAAAAAAAAAA111111111I11II11IIIIIAAAAAAAAAAAAAAAAAAAAAAAA11111
IIIAAAAAAAAAAA1111111111111I11II11IAAAAAAAAAAAAAAAAAAAAAAAA11111
IIIAAAAAAAAAAAA111111111111111II111AAAAAAAAAAAAAAAAAAAAAAAA11111
IIIAAAAAAAAAAAAA11111111111111II111AAAAAAAAAAAAAAAAAAAAAAAA11111
IIIAAAAAAAAAAAAAA1111111111111II111AAAAAAAAAAAAAAAAAAAAAAAA11111
IIIAAAAAAAAAAAAAAA111111111111II111AAAAAAAAAAAAAAAAAAAAAAAA11111
IIIAAAAAAAAAAAAAAAA11111111111II111AAAAAAAAAAAAAAAAAAAAAAAA11111
IIIAAAAAAAAAAAAAAAAA1111111111II111AAAAAAAAAAAAAAAAAAAAAAAA11111
IIIAAAAAAAAAAAAAAAAAA11111111111111AAAAAAAAAAAAAAAAAAAAAAAA11111
IIIAAAAAAAAAAAAAAAAAAA1111111111111AAAAAAAAAAAAAAAAAAAAAAAA11111
IIIAAAAAAAAAAAAAAAAAAAA111111111111AAAAAAAAAAAAAAAAAAAAAAAA11111
IIIAAAAAAAAAAAAAAAAAAAAA11111111111AAAAAAAAAAAAAAAAAAAAAAAA11111
IIIAAAAAAAAAAAAAAAAAAAAAA1111111111AAAAAAAAAAAAAAAAAAAAAAAA11111
IIIAAAAAAAAAAAAAAAAAAAAAAA111111111AAAAAAAAAAAAAAAAAAAAAAAA11111
IIIAAAAAAAAAAAAAAAAAAAAAAAA11111111AAAAAAAAAAAAAAAAAAAAAAAA11111
IIIIIIIIIIIIIIIIIIIIIIIIIIIIIIIIIIIIIIIIA1I11I11111I1111IIIIIIII
IIIIIIIIIIIIIIIIIIIIIIIIIIIIIIIIIIIA1IIIA1I11I11111I1111IIIIIIII
IIIIIIIIIIIIIIIIIIIIIIIIIIIIIIIIIIIAAIIIA1I11I11111I1111IIIIIIII
IIIIIIIIIIIIIIIIIIIIIIIIIIIIIIIIIIIAAAIIA1I11I11111I1111IIIIIIII
IIIIIIIIIIIIIIIIIIIIIIIIIIIIIIIIIIIAAAAIA1I11I11111I1111IIIIIIII
IIIIIIIIIIIIIIIIIIIIIIIIIIIIIIIIIIIAAAAAA1I11I11111I1111IIIIIIII
IIIIIIIIIIIIIIIIIIIIIIIIIIIIIIIIIIIAAAAAAAI11I11111I1111IIIIIIII
IIIIIIIIIIIIIIIIIIIIIIIIIIIIIIIIIIIAAAAAAA111111111111111IIIIIII
IIIIIIIIIIIIIIIIIIIIIIIIIIIIIIIIIIIAAAAAAAA11111111111111IIIIIII
IIIIIIIIIIIIIIIIIIIIIIIIIIIIIIIIIIIAAAAAAAAA1111111111111IIIIIII
IIIIIIIIIIIIIIIIIIIIIIIIIIIIIIIIIIIAAAAAAAAAA111111111111111IIII
IIIIIIIIIIIIIIIIIIIIIIIIIIIIIIIIIIIAAAAAAAAAAA111111111111111III
IIIIIIIIIIIIIIIIIIIIIIIIIIIIIIIIIIIAAAAAAAAAAAA111111111111111II
IIIIIIIIIIIIIIIIIIIIIIIIIIIIIIIIIIIAAAAAAAAAAAAA111111111111111I
IIIIIIIIIIIIIIIIIIIIIIIIIIIIIIIIIIIAAAAAAAAAAAAAA111111111111111
IIIIIIIIIIIIIIIIIIIIIIIIIIIIIIIIIIIAAAAAAAAAAAAAAA11111111111111
IIIIIIIIIIIIIIIIIIIIIIIIIIIIIIIIIIIAAAAAAAAAAAAAAAA1111111111111
IIIIIIIIIIIIIIIIIIIIIIIIIIIIIIIIIIIAAAAAAAAAAAAAAAAA111111111111
IIIIIIIIIIIIIIIIIIIIIIIIIIIIIIIIIIIAAAAAAAAAAAAAAAAAA11111111111
IIIIIIIIIIIIIIIIIIIIIIIIIIIIIIIIIIIAAAAAAAAAAAAAAAAAAA1111111111
IIIIIIIIIIIIIIIIIIIIIIIIIIIIIIIIIIIAAAAAAAAAAAAAAAAAAAA111111111
IIIIIIIIIIIIIIIIIIIIIIIIIIIIIIIIIIIAAAAAAAAAAAAAAAAAAAAA11111111
IIIIIIIIIIIIIIIIIIIIIIIIIIIIIIIIIIIAAAAAAAAAAAAAAAAAAAAAA1111111
IIIIIIIIIIIIIIIIIIIIIIIIIIIIIIIIIIIAAAAAAAAAAAAAAAAAAAAAAA111111
IIIIIIIIIIIIIIIIIIIIIIIIIIIIIIIIIIIAAAAAAAAAAAAAAAAAAAAAAAA11111
IIIA11IIIIIIIIIIIIIIIIIIIIIIIIIIIIIAAAAAAAAAAAAAAAAAAAAAAAA11111
IIIAA11IIIIIIIIIIIIIIIIIIIIIIIIIIIIAAAAAAAAAAAAAAAAAAAAAAAA11111
IIIAA111111I1I11111IIIIIIIIIIIIIIIIAAAAAAAAAAAAAAAAAAAAAAAA11111
IIIAAA11111I1I11111IIIIIIIIIIIIIIIIAAAAAAAAAAAAAAAAAAAAAAAA11111
IIIAAAA1111I1I11111IIIIIIIIIIIIIIIIAAAAAAAAAAAAAAAAAAAAAAAA11111
IIIAAAAA111I1I11111IIIIIIIIIIIIIIIIAAAAAAAAAAAAAAAAAAAAAAAA11111
IIIAAAAAA11I1I11111IIIIIIIIIIIIIIIIAAAAAAAAAAAAAAAAAAAAAAAA11111
IIIAAAAAAA1I1I11111IIIIIIIIIIIIIIIIAAAAAAAAAAAAAAAAAAAAAAAA11111
IIIAAAAAAA1111111111111111IIIIIIIIIAAAAAAAAAAAAAAAAAAAAAAAA11111
IIIAAAAAAAA1111111111111111IIIIIIIIAAAAAAAAAAAAAAAAAAAAAAAA11111
IIIAAAAAAAAA1111111111111111IIIIIIIAAAAAAAAAAAAAAAAAAAAAAAA11111
IIIAAAAAAAAAA1111111111111111IIIIIIAAAAAAAAAAAAAAAAAAAAAAAA11111
IIIAAAAAAAAAAA1111111111111111IIIIIAAAAAAAAAAAAAAAAAAAAAAAA11111
IIIAAAAAAAAAAAA1111111111111111IIIIAAAAAAAAAAAAAAAAAAAAAAAA11111
IIIAAAAAAAAAAAAA111111111111111IIIIAAAAAAAAAAAAAAAAAAAAAAAA11111
IIIAAAAAAAAAAAAAA11111111111111IIIIAAAAAAAAAAAAAAAAAAAAAAAA11111
IIIAAAAAAAAAAAAAAA1111111111111111IAAAAAAAAAAAAAAAAAAAAAAAA11111
IIIAAAAAAAAAAAAAAAA1111111111111111AAAAAAAAAAAAAAAAAAAAAAAA11111
IIIAAAAAAAAAAAAAAAAA111111111111111AAAAAAAAAAAAAAAAAAAAAAAA11111
IIIAAAAAAAAAAAAAAAAAA11111111111111AAAAAAAAAAAAAAAAAAAAAAAA11111
IIIAAAAAAAAAAAAAAAAAAA1111111111111AAAAAAAAAAAAAAAAAAAAAAAA11111
IIIAAAAAAAAAAAAAAAAAAAA111111111111AAAAAAAAAAAAAAAAAAAAAAAA11111
IIIAAAAAAAAAAAAAAAAAAAAA11111111111AAAAAAAAAAAAAAAAAAAAAAAA11111
IIIAAAAAAAAAAAAAAAAAAAAAA1111111111AAAAAAAAAAAAAAAAAAAAAAAA11111
IIIAAAAAAAAAAAAAAAAAAAAAAA111111111AAAAAAAAAAAAAAAAAAAAAAAA11111
IIIAAAAAAAAAAAAAAAAAAAAAAAA11111111AAAAAAAAAAAAAAAAAAAAAAAA11111
IIIIIA1I1111111111111IIIIIIIIIIIIIIIIIIIIIIIIIIIIIIIIIIIIIIIIIII
IIIIIAAI1111111111111IIIIIIIIIIIIIIIIIIIIIIIIIIIIIIIIIIIIIIIIIII
IIIAIAAI1111111111111IIIIIIIIIIIIIIIIIIIIIIIIIIIIIIIIIIIIIIIIIII
IIIAAAAI1111111111111IIIIIIIIIIIIIIIIIIIIIIIIIIIIIIIIIIIIIIIIIII
IIIAAAAA1111111111111IIIIIIIIIIIIIIIIIIIIIIIIIIIIIIIIIIIIIIIIIII
IIIAAAAAA111111111111IIIIIIIIIIIIIIIIIIIIIIIIIIIIIIIIIIIIIIIIIII
IIIAAAAAAA11111111111IIIIIIIIIIIIIIIIIIIIIIIIIIIIIIIIIIIIIIIIIII
IIIAAAAAAA1111111111111111IIIIIIIIIIIIIIIIIIIIIIIIIIIIIIIIIIIIII
IIIAAAAAAAA111111111111111IIIIIIIIIIIIIIIIIIIIIIIIIIIIIIIIIIIIII
IIIAAAAAAAAA11111111111111IIIIIIIIIIIIIIIIIIIIIIIIIIIIIIIIIIIIII
IIIAAAAAAAAAA1111111111111111IIIIIIIIIIIIIIIIIIIIIIIIIIIIIIIIIII
IIIAAAAAAAAAAA1111111111111111IIIIIIIIIIIIIIIIIIIIIIIIIIIIIIIIII
IIIAAAAAAAAAAAA1111111111111111IIIIIIIIIIIIIIIIIIIIIIIIIIIIIIIII
IIIAAAAAAAAAAAAA1111111111111111IIIIIIIIIIIIIIIIIIIIIIIIIIIIIIII
IIIAAAAAAAAAAAAAA111111111111111IIIIIIIIIIIIIIIIIIIIIIIIIIIIIIII
IIIAAAAAAAAAAAAAAA11111111111111IIIIIIIIIIIIIIIIIIIIIIIIIIIIIIII
IIIAAAAAAAAAAAAAAAA1111111111111IIIIIIIIIIIIIIIIIIIIIIIIIIIIIIII
IIIAAAAAAAAAAAAAAAAA1111111111111IIIIIIIIIIIIIIIIIIIIIIIIIIIIIII
IIIAAAAAAAAAAAAAAAAAA111111111111IIIIIIIIIIIIIIIIIIIIIIIIIIIIIII
IIIAAAAAAAAAAAAAAAAAAA11111111111IIIIIIIIIIIIIIIIIIIIIIIIIIIIIII
IIIAAAAAAAAAAAAAAAAAAAA1111111111IIIIIIIIIIIIIIIIIIIIIIIIIIIIIII
IIIAAAAAAAAAAAAAAAAAAAAA111111111IIIIIIIIIIIIIIIIIIIIIIIIIIIIIII
IIIAAAAAAAAAAAAAAAAAAAAAA111111111IIIIIIIIIIIIIIIIIIIIIIIIIIIIII
IIIAAAAAAAAAAAAAAAAAAAAAAA11111111111IIIIIIIIIIIIIIIIIIIIIIIIIII
IIIAAAAAAAAAAAAAAAAAAAAAAAA111111111111111IIIIIIIIIIIIIIIIIIIIII
IIIIIIIIIIIIIIIIIIIIIIIIIIIIIIIIIIIA111111I1111111I1IIIIIIIIIIII
IIIIIIIIIIIIIIIIIIIIIIIIIIIIIIIIIIIAA11111I1111111I1IIIIIIIIIIII
IIIIIIIIIIIIIIIIIIIIIIIIIIIIIIIIIIIAAA1111I1111111I1IIIIIIIIIIII
IIIIIIIIIIIIIIIIIIIIIIIIIIIIIIIIIIIAAAA111I1111111I1IIIIIIIIIIII
IIIIIIIIIIIIIIIIIIIIIIIIIIIIIIIIIIIAAAAA11I1111111I1IIIIIIIIIIII
IIIIIIIIIIIIIIIIIIIIIIIIIIIIIIIIIIIAAAAAA1I1111111I1IIIIIIIIIIII
IIIIIIIIIIIIIIIIIIIIIIIIIIIIIIIIIIIAAAAAAAI1111111I1IIIIIIIIIIII
IIIIIIIIIIIIIIIIIIIIIIIIIIIIIIIIIIIAAAAAAA11111111111111I1IIIIII
IIIIIIIIIIIIIIIIIIIIIIIIIIIIIIIIIIIAAAAAAAA1111111111111I1IIIIII
IIIIIIIIIIIIIIIIIIIIIIIIIIIIIIIIIIIAAAAAAAAA111111111111I1IIIIII
IIIIIIIIIIIIIIIIIIIIIIIIIIIIIIIIIIIAAAAAAAAA11111111111111I1IIII
IIIIIIIIIIIIIIIIIIIIIIIIIIIIIIIIIIIAAAAAAAAAA1111111111111111III
IIIIIIIIIIIIIIIIIIIIIIIIIIIIIIIIIIIAAAAAAAAAAA1111111111111111II
IIIIIIIIIIIIIIIIIIIIIIIIIIIIIIIIIIIAAAAAAAAAAAA1111111111111111I
IIIIIIIIIIIIIIIIIIIIIIIIIIIIIIIIIIIAAAAAAAAAAAAA1111111111111111
IIIIIIIIIIIIIIIIIIIIIIIIIIIIIIIIIIIAAAAAAAAAAAAAA111111111111111
IIIIIIIIIIIIIIIIIIIIIIIIIIIIIIIIIIIAAAAAAAAAAAAAAA11111111111111
IIIIIIIIIIIIIIIIIIIIIIIIIIIIIIIIIIIAAAAAAAAAAAAAAAA1111111111111
IIIIIIIIIIIIIIIIIIIIIIIIIIIIIIIIIIIAAAAAAAAAAAAAAAAA111111111111
IIIIIIIIIIIIIIIIIIIIIIIIIIIIIIIIIIIAAAAAAAAAAAAAAAAAA11111111111
IIIIIIIIIIIIIIIIIIIIIIIIIIIIIIIIIIIAAAAAAAAAAAAAAAAAAA1111111111
IIIIIIIIIIIIIIIIIIIIIIIIIIIIIIIIIIIAAAAAAAAAAAAAAAAAAAA111111111
IIIIIIIIIIIIIIIIIIIIIIIIIIIIIIIIIIIAAAAAAAAAAAAAAAAAAAAA11111111
IIIIIIIIIIIIIIIIIIIIIIIIIIIIIIIIIIIAAAAAAAAAAAAAAAAAAAAAA1111111
IIIIIIIIIIIIIIIIIIIIIIIIIIIIIIIIIIIAAAAAAAAAAAAAAAAAAAAAAA111111
IIIIIIIIIIIIIIIIIIIIIIIIIIIIIIIIIIIAAAAAAAAAAAAAAAAAAAAAAAA11111
IIIIIIIIIIIIIIIIIIIIIIIIIIIIIIIIIIIAAAAAAAAAAAAAAAAAAAAAAAAA1111
IIIA2IIIIIIIIIIIIIIIIIIIIIIIIIIIIIIIIIIIIIIIIIIIIIIIIIIIIIIIIIII
IIIAA2IIIIIIIIIIIIIIIIIIIIIIIIIIIIIIIIIIIIIIIIIIIIIIIIIIIIIIIIII
IIIAAA2IIIIIIIIIIIIIIIIIIIIIIIIIIIIIIIIIIIIIIIIIIIIIIIIIIIIIIIII
IIIAAAA2IIIIIIIIIIIIIIIIIIIIIIIIIIIIIIIIIIIIIIIIIIIIIIIIIIIIIIII
IIIAAAAA2IIIIIIIIIIIIIIIIIIIIIIIIIIIIIIIIIIIIIIIIIIIIIIIIIIIIIII
IIIAAAAAA2IIIIIIIIIIIIIIIIIIIIIIIIIIIIIIIIIIIIIIIIIIIIIIIIIIIIII
IIIAAAAAAA2IIIIIIIIIIIIIIIIIIIIIIIIIIIIIIIIIIIIIIIIIIIIIIIIIIIII
IIIAAAAAAAA2IIIIIIIIIIIIIIIIIIIIIIIIIIIIIIIIIIIIIIIIIIIIIIIIIIII
IIIAAAAAAAAA2IIIIIIIIIIIIIIIIIIIIIIIIIIIIIIIIIIIIIIIIIIIIIIIIIII
IIIAAAAAAAAAA2IIIIIIIIIIIIIIIIIIIIIIIIIIIIIIIIIIIIIIIIIIIIIIIIII
IIIAAAAAAAAAAA2IIIIIIIIIIIIIIIIIIIIIIIIIIIIIIIIIIIIIIIIIIIIIIIII
IIIAAAAAAAAAAAA2IIIIIIIIIIIIIIIIIIIIIIIIIIIIIIIIIIIIIIIIIIIIIIII
IIIAAAAAAAAAAAAA2IIIIIIIIIIIIIIIIIIIIIIIIIIIIIIIIIIIIIIIIIIIIIII
IIIAAAAAAAAAAAAAA2IIIIIIIIIIIIIIIIIIIIIIIIIIIIIIIIIIIIIIIIIIIIII
IIIAAAAAAAAAAAAAAA2IIIIIIIIIIIIIIIIIIIIIIIIIIIIIIIIIIIIIIIIIIIII
IIIAAAAAAAAAAAAAAAA2IIIIIIIIIIIIIIIIIIIIIIIIIIIIIIIIIIIIIIIIIIII
IIIAAAAAAAAAAAAAAAAA2IIIIIIIIIIIIIIIIIIIIIIIIIIIIIIIIIIIIIIIIIII
IIIAAAAAAAAAAAAAAAAAA2IIIIIIIIIIIIIIIIIIIIIIIIIIIIIIIIIIIIIIIIII
IIIAAAAAAAAAAAAAAAAAAA2IIIIIIIIIIIIIIIIIIIIIIIIIIIIIIIIIIIIIIIII
IIIAAAAAAAAAAAAAAAAAAAA2IIIIIIIIIIIIIIIIIIIIIIIIIIIIIIIIIIIIIIII
IIIAAAAAAAAAAAAAAAAAAAAA2IIIIIIIIIIIIIIIIIIIIIIIIIIIIIIIIIIIIIII
IIIAAAAAAAAAAAAAAAAAAAAAA2IIIIIIIIIIIIIIIIIIIIIIIIIIIIIIIIIIIIII
IIIAAAAAAAAAAAAAAAAAAAAAAA2IIIIIIIIIIIIIIIIIIIIIIIIIIIIIIIIIIIII
IIIAAAAAAAAAAAAAAAAAAAAAAAA2IIIIIIIIIIIIIIIIIIIIIIIIIIIIIIIIIIII
IIIAAAAAAAAAAAAAAAAAAAAAAAA2IIIIIIIA1I1111I11I111111IIIIIIIIIIII
IIIAAAAAAAAAAAAAAAAAAAAAAAA2IIIIIIIAAI1111I11I111111IIIIIIIIIIII
IIIAAAAAAAAAAAAAAAAAAAAAAAA2IIIIIIIAAA1111I11I111111IIIIIIIIIIII
IIIAAAAAAAAAAAAAAAAAAAAAAAA2IIIIIIIAAAA111I11I111111IIIIIIIIIIII
IIIAAAAAAAAAAAAAAAAAAAAAAAA2IIIIIIIAAAAA11I11I111111IIIIIIIIIIII
IIIAAAAAAAAAAAAAAAAAAAAAAAA2IIIIIIIAAAAAA1I11I111111IIIIIIIIIIII
IIIAAAAAAAAAAAAAAAAAAAAAAAA2IIIIIIIAAAAAAAI11I111111IIIIIIIIIIII
IIIAAAAAAAAAAAAAAAAAAAAAAAA2IIIIIIIAAAAAAA111111111111111IIIIIII
IIIAAAAAAAAAAAAAAAAAAAAAAAA2IIIIIIIAAAAAAAA11111111111111IIIIIII
IIIAAAAAAAAAAAAAAAAAAAAAAAA2IIIIIIIAAAAAAAAA1111111111111IIIIIII
IIIAAAAAAAAAAAAAAAAAAAAAAAA2IIIIIIIAAAAAAAAAA11111111111111IIIII
IIIAAAAAAAAAAAAAAAAAAAAAAAA2IIIIIIIAAAAAAAAAAA1111111111111IIIII
IIIAAAAAAAAAAAAAAAAAAAAAAAA2IIIIIIIAAAAAAAAAAAA111111111111IIIII
IIIAAAAAAAAAAAAAAAAAAAAAAAA2IIIIIIIAAAAAAAAAAAA1111111111111111I
IIIAAAAAAAAAAAAAAAAAAAAAAAA2IIIIIIIAAAAAAAAAAAAA1111111111111111
IIIAAAAAAAAAAAAAAAAAAAAAAAA2IIIIIIIAAAAAAAAAAAAAA111111111111111
IIIAAAAAAAAAAAAAAAAAAAAAAAA2IIIIIIIAAAAAAAAAAAAAAA11111111111111
IIIAAAAAAAAAAAAAAAAAAAAAAAA2IIIIIIIAAAAAAAAAAAAAAAA1111111111111
IIIAAAAAAAAAAAAAAAAAAAAAAAA2IIIIIIIAAAAAAAAAAAAAAAAA111111111111
IIIAAAAAAAAAAAAAAAAAAAAAAAA2IIIIIIIAAAAAAAAAAAAAAAAAA11111111111
IIIAAAAAAAAAAAAAAAAAAAAAAAA2IIIIIIIAAAAAAAAAAAAAAAAAAA1111111111
IIIAAAAAAAAAAAAAAAAAAAAAAAA2IIIIIIIAAAAAAAAAAAAAAAAAAAA111111111
IIIAAAAAAAAAAAAAAAAAAAAAAAA2IIIIIIIAAAAAAAAAAAAAAAAAAAAA11111111
IIIAAAAAAAAAAAAAAAAAAAAAAAA2IIIIIIIAAAAAAAAAAAAAAAAAAAAAA1111111
IIIAAAAAAAAAAAAAAAAAAAAAAAA2IIIIIIIAAAAAAAAAAAAAAAAAAAAAAA111111
IIIAAAAAAAAAAAAAAAAAAAAAAAA2IIIIIIIAAAAAAAAAAAAAAAAAAAAAAAA11111
IIIA111111I1I1111111IIIIIIIIIIIIIIIIIIIIIIIIIIIIIIIIIIIIIIIIIIII
IIIAA11111I1I1111111IIIIIIIIIIIIIIIIIIIIIIIIIIIIIIIIIIIIIIIIIIII
IIIAAA1111I1I1111111IIIIIIIIIIIIIIIIIIIIIIIIIIIIIIIIIIIIIIIIIIII
IIIAAAA111I1I1111111IIIIIIIIIIIIIIIIIIIIIIIIIIIIIIIIIIIIIIIIIIII
IIIAAAAA11I1I1111111IIIIIIIIIIIIIIIIIIIIIIIIIIIIIIIIIIIIIIIIIIII
IIIAAAAAA1I1I1111111IIIIIIIIIIIIIIIIIIIIIIIIIIIIIIIIIIIIIIIIIIII
IIIAAAAAAAI1I1111111IIIIIIIIIIIIIIIIIIIIIIIIIIIIIIIIIIIIIIIIIIII
IIIAAAAAAA1111111111111111IIIIIIIIIIIIIIIIIIIIIIIIIIIIIIIIIIIIII
IIIAAAAAAAA111111111111111IIIIIIIIIIIIIIIIIIIIIIIIIIIIIIIIIIIIII
IIIAAAAAAAAA111111111111111IIIIIIIIIIIIIIIIIIIIIIIIIIIIIIIIIIIII
IIIAAAAAAAAAA1111111111111111IIIIIIIIIIIIIIIIIIIIIIIIIIIIIIIIIII
IIIAAAAAAAAAAA1111111111111111IIIIIIIIIIIIIIIIIIIIIIIIIIIIIIIIII
IIIAAAAAAAAAAAA1111111111111111IIIIIIIIIIIIIIIIIIIIIIIIIIIIIIIII
IIIAAAAAAAAAAAAA1111111111111111IIIIIIIIIIIIIIIIIIIIIIIIIIIIIIII
IIIAAAAAAAAAAAAAA1111111111111111IIIIIIIIIIIIIIIIIIIIIIIIIIIIIII
IIIAAAAAAAAAAAAAAA1111111111111111IIIIIIIIIIIIIIIIIIIIIIIIIIIIII
IIIAAAAAAAAAAAAAAAA1111111111111111IIIIIIIIIIIIIIIIIIIIIIIIIIIII
IIIAAAAAAAAAAAAAAAAA1111111111111111IIIIIIIIIIIIIIIIIIIIIIIIIIII
IIIAAAAAAAAAAAAAAAAAA1111111111111111IIIIIIIIIIIIIIIIIIIIIIIIIII
IIIAAAAAAAAAAAAAAAAAAA1111111111111111IIIIIIIIIIIIIIIIIIIIIIIIII
IIIAAAAAAAAAAAAAAAAAAAA1111111111111111IIIIIIIIIIIIIIIIIIIIIIIII
IIIAAAAAAAAAAAAAAAAAAAAA1111111111111111IIIIIIIIIIIIIIIIIIIIIIII
IIIAAAAAAAAAAAAAAAAAAAAAA1111111111111111IIIIIIIIIIIIIIIIIIIIIII
IIIAAAAAAAAAAAAAAAAAAAAAAA1111111111111111IIIIIIIIIIIIIIIIIIIIII
IIIAAAAAAAAAAAAAAAAAAAAAAAA1111111111111111IIIIIIIIIIIIIIIIIIIII
IIIAAAAAAAAAAAAAAAAAAAAAAAA11111111A111111111III1III11III1IIIIII
IIIAAAAAAAAAAAAAAAAAAAAAAAA11111111AA111111111II11II111II11IIIII
IIIAAAAAAAAAAAAAAAAAAAAAAAA11111111AAA111111111I11II1111I11IIIII
IIIAAAAAAAAAAAAAAAAAAAAAAAA11111111AAAA11111111I11II1111I11IIIII
IIIAAAAAAAAAAAAAAAAAAAAAAAA11111111AAAAA1111111I11II1111I11IIIII
IIIAAAAAAAAAAAAAAAAAAAAAAAA11111111AAAAAA111111I11II1111I11IIIII
IIIAAAAAAAAAAAAAAAAAAAAAAAA11111111AAAAAAA11111I11II1111I11IIIII
IIIAAAAAAAAAAAAAAAAAAAAAAAA11111111AAAAAAAA1111111111111I11IIIII
IIIAAAAAAAAAAAAAAAAAAAAAAAA11111111AAAAAAAA1111111111111I111IIII
IIIAAAAAAAAAAAAAAAAAAAAAAAA11111111AAAAAAAAA111111111111I111IIII
IIIAAAAAAAAAAAAAAAAAAAAAAAA11111111AAAAAAAAAA11111111111I111IIII
IIIAAAAAAAAAAAAAAAAAAAAAAAA11111111AAAAAAAAAAA1111111111I111II1I
IIIAAAAAAAAAAAAAAAAAAAAAAAA11111111AAAAAAAAAAAA111111111I111II11
IIIAAAAAAAAAAAAAAAAAAAAAAAA11111111AAAAAAAAAAAAA1111111111111I11
IIIAAAAAAAAAAAAAAAAAAAAAAAA11111111AAAAAAAAAAAAAA111111111111111
IIIAAAAAAAAAAAAAAAAAAAAAAAA11111111AAAAAAAAAAAAAAA11111111111111
IIIAAAAAAAAAAAAAAAAAAAAAAAA11111111AAAAAAAAAAAAAAAA1111111111111
IIIAAAAAAAAAAAAAAAAAAAAAAAA11111111AAAAAAAAAAAAAAAAA111111111111
IIIAAAAAAAAAAAAAAAAAAAAAAAA11111111AAAAAAAAAAAAAAAAAA11111111111
IIIAAAAAAAAAAAAAAAAAAAAAAAA11111111AAAAAAAAAAAAAAAAAAA1111111111
IIIAAAAAAAAAAAAAAAAAAAAAAAA11111111AAAAAAAAAAAAAAAAAAAA111111111
IIIAAAAAAAAAAAAAAAAAAAAAAAA11111111AAAAAAAAAAAAAAAAAAAAA11111111
IIIAAAAAAAAAAAAAAAAAAAAAAAA11111111AAAAAAAAAAAAAAAAAAAAAA1111111
IIIAAAAAAAAAAAAAAAAAAAAAAAA11111111AAAAAAAAAAAAAAAAAAAAAAA111111
IIIAAAAAAAAAAAAAAAAAAAAAAAA11111111AAAAAAAAAAAAAAAAAAAAAAAA11111
IIIAAAAAAAAAAAAAAAAAAAAAAAA11111111AAAAAAAAAAAAAAAAAAAAAAAAA1111
IIIIIIIIIIIIIIIIIIIIIIIIIIIIIIIIIIIA1I111111111111IIIIIIIIIIIIII
IIIIIIIIIIIIIIIIIIIIIIIIIIIIIIIIIIIAAI111111111111IIIIIIIIIIIIII
IIIIIIIIIIIIIIIIIIIIIIIIIIIIIIIIIIIAAA111111111111IIIIIIIIIIIIII
IIIIIIIIIIIIIIIIIIIIIIIIIIIIIIIIIIIAAAA11111111111IIIIIIIIIIIIII
IIIIIIIIIIIIIIIIIIIIIIIIIIIIIIIIIIIAAAAA1111111111IIIIIIIIIIIIII
IIIIIIIIIIIIIIIIIIIIIIIIIIIIIIIIIIIAAAAAA111111111IIIIIIIIIIIIII
IIIIIIIIIIIIIIIIIIIIIIIIIIIIIIIIIIIAAAAAAA11111111IIIIIIIIIIIIII
IIIIIIIIIIIIIIIIIIIIIIIIIIIIIIIIIIIAAAAAAA11111111111111IIIIIIII
IIIIIIIIIIIIIIIIIIIIIIIIIIIIIIIIIIIAAAAAAAA11111111111111IIIIIII
IIIIIIIIIIIIIIIIIIIIIIIIIIIIIIIIIIIAAAAAAAAA11111111111111IIIIII
IIIIIIIIIIIIIIIIIIIIIIIIIIIIIIIIIIIAAAAAAAAAA11111111111111IIIII
IIIIIIIIIIIIIIIIIIIIIIIIIIIIIIIIIIIAAAAAAAAAAA11111111111111IIII
IIIIIIIIIIIIIIIIIIIIIIIIIIIIIIIIIIIAAAAAAAAAAAA11111111111111III
IIIIIIIIIIIIIIIIIIIIIIIIIIIIIIIIIIIAAAAAAAAAAAAA11111111111111II
IIIIIIIIIIIIIIIIIIIIIIIIIIIIIIIIIIIAAAAAAAAAAAAAA11111111111111I
IIIIIIIIIIIIIIIIIIIIIIIIIIIIIIIIIIIAAAAAAAAAAAAAAA11111111111111
IIIIIIIIIIIIIIIIIIIIIIIIIIIIIIIIIIIAAAAAAAAAAAAAAAA1111111111111
IIIIIIIIIIIIIIIIIIIIIIIIIIIIIIIIIIIAAAAAAAAAAAAAAAAA111111111111
IIIIIIIIIIIIIIIIIIIIIIIIIIIIIIIIIIIAAAAAAAAAAAAAAAAAA11111111111
IIIIIIIIIIIIIIIIIIIIIIIIIIIIIIIIIIIAAAAAAAAAAAAAAAAAAA1111111111
IIIIIIIIIIIIIIIIIIIIIIIIIIIIIIIIIIIAAAAAAAAAAAAAAAAAAAA111111111
IIIIIIIIIIIIIIIIIIIIIIIIIIIIIIIIIIIAAAAAAAAAAAAAAAAAAAAA11111111
IIIIIIIIIIIIIIIIIIIIIIIIIIIIIIIIIIIAAAAAAAAAAAAAAAAAAAAAA1111111
IIIIIIIIIIIIIIIIIIIIIIIIIIIIIIIIIIIAAAAAAAAAAAAAAAAAAAAAAA111111
IIIIIIIIIIIIIIIIIIIIIIIIIIIIIIIIIIIAAAAAAAAAAAAAAAAAAAAAAAA11111
IIIA1I1111111111111IIIIIIIIIIIIIIIIAAAAAAAAAAAAAAAAAAAAAAAA11111
IIIAAI1111111111111IIIIIIIIIIIIIIIIAAAAAAAAAAAAAAAAAAAAAAAA11111
IIIAAA1111111111111IIIIIIIIIIIIIIIIAAAAAAAAAAAAAAAAAAAAAAAA11111
IIIAAAA111111111111IIIIIIIIIIIIIIIIAAAAAAAAAAAAAAAAAAAAAAAA11111
IIIAAAAA11111111111IIIIIIIIIIIIIIIIAAAAAAAAAAAAAAAAAAAAAAAA11111
IIIAAAAAA1111111111IIIIIIIIIIIIIIIIAAAAAAAAAAAAAAAAAAAAAAAA11111
[...]
A1AA111111111111111111IIIIA1I11IA1A111111211111III1IIIIIIIA12112
A1AA111111111111111111IIIIA1I11IA1AA11111211111III1IIIIIIIA12112
IIIIIIIIIIIIIIIIIIIIIIIIIIIIIIIIAI11I1I11I1222II2IIIIIIIIIIIIIII
AI11I1I11I1222II2IIIIIIIIIIIIIIIAI11I1I11I1222II2IIIIIIIIIIIIIII
AI11I1I11I1222II2IIIIIIIIIIIIIIIAI11I1I11I1222II2IIIIIIIIIAI11I1
AI11I1I11I1222II2IIIIIIIIIIIIIIIAIA111I1111212222I2IIIIIIIAI11I1
AI11I1I11I1222II2IIIIIIIIIIIIIIIAIAA1111111111222I22IIIIIIAI11I1
AI11I1I11I1222II2IIIIIIIIIAI11I1A1AA1111111111222I22IIIIIIAI11I1
AIA111I1111212222I2IIIIIIIAI11I1A1AA1111111111222I22IIIIIIAI11I1
AIAA1111111111222I22IIIIIIAI11I1A1AA1111111111222I22IIIIIIAI11I1
A11I1111III111II1IIIIIIIIIIIIIIIIIIIIIIIIIIIIIIIIIIIIIIIIIIIIIII
A11I1111III111II1IIIIIIIIIIIIIIIA11I1111III111II1IIIIIIIIIIIIIII
A11I1111III111II1IIIIIIIIIAIIIIIA11I1111III111II1IIIIIIIIIIIIIII
A11I1111III111II1IIIIIIIIIA11I11A11I1111II1111II1IIIIIIIIIIIIIII
A1A1111111I111111I1IIIIIIIA11I11A11I1111II1111II1IIIIIIIIIIIIIII
A1AA1111111111111I11IIIIIIA11I11A11I1111II1111II1IIIIIIIIIIIIIII
A1AA1111111111111I11IIIIIIA11I11A11I1111II1111II1IIIIIIIIIA11I11
A1AA1111111111111I11IIIIIIA11I11A1A11111111111111I1IIIIIIIA11I11
A1AA1111111111111I11IIIIIIA11I11A1AA1111111111111I11IIIIIIA11I11
IIIIIIIIIIIIIIIIIIIIIIIIIIIIIIIIAI1I111IIII111II1IIIIIIIIIIIIIII
AI1I111IIII111II1IIIIIIIIIIIIIIIAI1I111IIII111II1IIIIIIIIIIIIIII
AI1I111IIII111II1IIIIIIIIIIIIIIIAI1I111IIII111II1IIIIIIIIIAI1I11
AI1I111IIII111II1IIIIIIIIIIIIIIIAIAI11111II111111I1IIIIIIIAI1I11
AI1I111IIII111II1IIIIIIIIIIIIIIIAIAA111111I111111I11IIIIIIAI1I11
AI1I111IIII111II1IIIIIIIIIAI1I11AIAA1111111111111I11IIIIIIAI1I11
AIAI11111II111111I1IIIIIIIAI1I11AIAA1111111111111I11IIIIIIAI1I11
AIAA111111I111111I11IIIIIIAI1I11AIAA1111111111111I11IIIIIIAI1I11
A1I11IIIIIIIIIIIIIIIIIIIIIIIIIIIIIIIIIIIIIIIIIIIIIIIIIIIIIIIIIII
A1111IIIIII2I2IIIIIIIIIIIIIIIIIIIIIIIIIIIIIIIIIIIIIIIIIIIIIIIIII
A1111IIIIII2I2IIIIIIIIIIIIIIIIIIAI1I2IIIIII2I2IIIIIIIIIIIIIIIIII
A1111IIIIII2I2IIIIIIIIIIIIAI1I2IAI1I22I2III2I2IIIIIIIIIIIIIIIIII
A1A11I2IIII2I2I2IIIIIIIIIIAI1I2IAI1I22I2III2I2IIIIIIIIIIIIIIIIII
A1AA1122III2I2222IIIIIIIIIAI1I2IAI1I22I2III2I2IIIIIIIIIIIIIIIIII
A1AA1122III2I2222IIIIIIIIIAI1I2IAI1I22I2III2I2IIIIIIIIIIIIAI1I2I
A1AA1122III2I2222IIIIIIIIIAI1I2IAIAI1222III2I2I2IIIIIIIIIIAI1I2I
A1AA1122III2I2222IIIIIIIIIAI1I2IAIAA1122III2I2222IIIIIIIIIAI1I2I
IIIIIIIIIIIIIIIIIIIIIIIIIIIIIIIIAI1II1I2III222IIIIIIIIIIIIIIIIII
AI1II1I2III222IIIIIIIIIIIIIIIIIIAI1II1I2III222IIIIIIIIIIIIIIIIII
AI1II1I2III222IIIIIIIIIIIIIIIIIIAI1II1I2III222IIIIIIIIIIIIAI1II1
AI1II1I2III222IIIIIIIIIIIIIIIIIIAIAI11I1I2I22222IIIIIIIIIIAI1II1
AI1II1I2III222IIIIIIIIIIIIIIIIIIAIAA11I1122222222IIIIIIIIIAI1II1
AI1II1I2III222IIIIIIIIIIIIAI1II1A2AA1121122222222IIIIIIIIIAI1II1
AIAI11I1I2I22222IIIIIIIIIIAI1II1A2AA1121122222222IIIIIIIIIAI1II1
AIAA11I1122222222IIIIIIIIIAI1II1A2AA1121122222222IIIIIIIIIAI1II1
A11I11I1111222II2IIIIIIIIIIIIIIIIIIIIIIIIIIIIIIIIIIIIIIIIIIIIIII
A11I11I1111222II2IIIIIIIIIIIIIIIA11I11I1111222II2IIIIIIIIIIIIIII
A11I11I1111222II2IIIIIIIIIA11I11A1111121111222II2IIIIIIIIIIIIIII
A1A11111111112222I2IIIIIIIA11I11A1111121111222II2IIIIIIIIIIIIIII
A1AA1111111111222I22IIIIIIA11I11A1111121111222II2IIIIIIIIIIIIIII
A1AA1111111111222I22IIIIIIA11I11A1111121111222II2IIIIIIIIIA11I11
A1AA1111111111222I22IIIIIIA11I11A1A11111111112222I2IIIIIIIA11I11
A1AA1111111111222I22IIIIIIA11I11A1AA1111111111222I22IIIIIIA11I11
IIIIIIIIIIIIIIIIIIIIIIIIIIIIIIIIAI1I11I1III22III2IIIIIIIIIIIIIII
AI1I11I1III22III2IIIIIIIIIIIIIIIAI1I11I1III22III2IIIIIIIIIIIIIII
AI1I11I1III22III2IIIIIIIIIIIIIIIAI1I11I1III22III2IIIIIIIIIAI1I11
AI1I11I1III22III2IIIIIIIIIIIIIIIAIAI1111I1I2222I2I2IIIIIIIAI1I11
AI1I11I1III22III2IIIIIIIIIIIIIIIAIAA1111111222222I22IIIIIIAI1I11
AI1I11I1III22III2IIIIIIIIIAI1I11A1AA1111111222222I22IIIIIIAI1I11
AIAI1111I1I2222I2I2IIIIIIIAI1I11A1AA1111111222222I22IIIIIIAI1I11
AIAA1111111222222I22IIIIIIAI1I11A1AA1111111222222I22IIIIIIAI1I11
A1I1111I111111111IIIIIIIIIIIIIIIIIIIIIIIIIIIIIIIIIIIIIIIIIIIIIII
A1I1111I111111111IIIIIIIIIIIIIIIA1I1111I111111111IIIIIIIIIIIIIII
A1I1111I111111111IIIIIIIIIA1I111A1111111111111111IIIIIIIIIIIIIII
A1A1111111111111111IIIIIIIA1I111A1111111111111111IIIIIIIIIIIIIII
A1AA1111111111111111IIIIIIA1I111A1111111111111111IIIIIIIIIIIIIII
A1AA1111111111111111IIIIIIA1I111A1111111111111111IIIIIIIIIA1I111
A1AA1111111111111111IIIIIIA1I111A1A11111111111111IIIIIIIIIA1I111
A1AA1111111111111111IIIIIIA1I111A1AA1111111111111IIIIIIIIIA1I111
A1AA1111111111111111IIIIIIA1I111A1AA1111111111111IIIIIIIIIA11111
IIIIIIIIIIIIIIIIIIIIIIIIIIIIIIIIAI1I1II12II2I2II2IIIIIIIIIIIIIII
AI1I1II12II2I2II2IIIIIIIIIIIIIIIAI1I1II12II2I2II2IIIIIIIIIIIIIII
AI1I1II12II2I2II2IIIIIIIIIIIIIIIAI1I1II12II2I2II2IIIIIIIIIAI1I1I
AI1I1II12II2I2II2IIIIIIIIIIIIIIIAIAI1I112122I2I22I2IIIIIIIAI1I1I
AI1I1II12II2I2II2IIIIIIIIIIIIIIIAIAA11112112I2222I22IIIIIIAI1I1I
AI1I1II12II2I2II2IIIIIIIIIAI1I1IA1AA11112112I2222I22IIIIIIAI1I1I
AIAI1I112122I2I22I2IIIIIIIAI1I1IA1AA11112112I2222I22IIIIIIAI1I1I
AIAA11112112I2222I22IIIIIIAI1I1IA1AA11112112I2222I22IIIIIIAI1I1I
AI1II1I2III22III2IIIIIIIIIIIIIIIIIIIIIIIIIIIIIIIIIIIIIIIIIIIIIII
AI1II1I2III22III2IIIIIIIIIIIIIIIAI1II1I2III22III2IIIIIIIIIIIIIII
AI1II1I2III22III2IIIIIIIIIAI1II1A21II122II222III2IIIIIIIIIIIIIII
AIAI11I1I2I2222I2I2IIIIIIIAI1II1A21II122II222III2IIIIIIIIIIIIIII
AIAA11I1122222222I22IIIIIIAI1II1A21II122II222III2IIIIIIIIIIIIIII
AIAA11I1122222222I22IIIIIIAI1II1A21II122II222III2IIIIIIIIIAI1II1
AIAA11I1122222222I22IIIIIIAI1II1A2AI1121I222222I2I2IIIIIIIAI1II1
AIAA11I1122222222I22IIIIIIAI1II1A2AA1121122222222I22IIIIIIAI1II1
IIIIIIIIIIIIIIIIIIIIIIIIIIIIIIIIAI1II1I22II2IIII2IIIIIIIIIIIIIII
AI1II1I22II2IIII2IIIIIIIIIIIIIIIAI1II1I22II2IIII2IIIIIIIIIIIIIII
AI1II1I22II2IIII2IIIIIIIIIIIIIIIAI1II1I22II2IIII2IIIIIIIIIAI1II1
AI1II1I22II2IIII2IIIIIIIIIIIIIIIAIAI11I12222I2II2I2IIIIIIIAI1II1
AI1II1I22II2IIII2IIIIIIIIIIIIIIIAIAA11I11222I22I2I22IIIIIIAI1II1
AI1II1I22II2IIII2IIIIIIIIIAI1II1A2AA11I11222I22I2I22IIIIIIAI1II1
AIAI11I12222I2II2I2IIIIIIIAI1II1A2AA11I11222I22I2I22IIIIIIAI1II1
AIAA11I11222I22I2I22IIIIIIAI1II1A2AA11I11222I22I2I22IIIIIIAI1II1
AI1I1I11III1I1II1IIIIIIIIIIIIIIIIIIIIIIIIIIIIIIIIIIIIIIIIIIIIIII
AI1I1I11III1I1II1IIIIIIIIIIIIIIIAI1I1I11III1I1II1IIIIIIIIIIIIIII
AI1I1I11III1I1II1IIIIIIIIIAI1I1IA11I1111II11I1II1IIIIIIIIIIIIIII
AIAI1I1111I1I1I11I1IIIIIIIAI1I1IA11I1111II11I1II1IIIIIIIIIIIIIII
AIAA11111111I1111I11IIIIIIAI1I1IA11I1111II11I1II1IIIIIIIIIIIIIII
AIAA11111111I1111I11IIIIIIAI1I1IA11I1111II11I1II1IIIIIIIIIAI1I1I
AIAA11111111I1111I11IIIIIIAI1I1IA1AI11111111I1I11I1IIIIIIIAI1I1I
AIAA11111111I1111I11IIIIIIAI1I1IA1AA11111111I1111I11IIIIIIAI1I1I
IIIIIIIIIIIIIIIIIIIIIIIIIIIIIIIIAI1II2I2III22III2IIIIIIIIIIIIIII
AI1II2I2III22III2IIIIIIIIIIIIIIIAI1II2I2III22III2IIIIIIIIIIIIIII
AI1II2I2III22III2IIIIIIIIIIIIIIIAI1II2I2III22III2IIIIIIIIIAI1II2
AI1II2I2III22III2IIIIIIIIIIIIIIIAIAI12I2I2I2222I2I2IIIIIIIAI1II2
AI1II2I2III22III2IIIIIIIIIIIIIIIAIAA11I2222222222I22IIIIIIAI1II2
AI1II2I2III22III2IIIIIIIIIAI1II2A2AA1122222222222I22IIIIIIAI1II2
AIAI12I2I2I2222I2I2IIIIIIIAI1II2A2AA1122222222222I22IIIIIIAI1II2
AIAA11I2222222222I22IIIIIIAI1II2A2AA1122222222222I22IIIIIIAI1II2
AI1111I1III1IIII1IIIIIIIIIIIIIIIIIIIIIIIIIIIIIIIIIIIIIIIIIIIIIII
AI1111I1III1IIII1IIIIIIIIIIIIIIIAI1111I1III1IIII1IIIIIIIIIIIIIII
AI1111I1III1IIII1IIIIIIIIIAIIIIIAI1111I1III1IIII1IIIIIIIIIIIIIII
AI1111I1III1IIII1IIIIIIIIIAI1111A11111I1II11IIII1IIIIIIIIIIIIIII
AIA11111I1I1I1II1I1IIIIIIIAI1111A11111I1II11IIII1IIIIIIIIIIIIIII
AIAA11111111I11I1I11IIIIIIAI1111A11111I1II11IIII1IIIIIIIIIIIIIII
AIAA11111111I11I1I11IIIIIIAI1111A11111I1II11IIII1IIIIIIIIIAI1111
AIAA11111111I11I1I11IIIIIIAI1111A1A11111I111I1II1I1IIIIIIIAI1111
AIAA11111111I11I1I11IIIIIIAI1111A1AA11111111I11I1I11IIIIIIAI1111
IIIIIIIIIIIIIIIIIIIIIIIIIIIIIIIIAI1I22IIIII2IIIIIIIIIIIIIIIIIIII
AI1I22IIIII2IIIIIIIIIIIIIIIIIIIIAI1I22IIIII2IIIIIIIIIIIIIIIIIIII
AI1I22IIIII2IIIIIIIIIIIIIIIIIIIIAI1I22IIIII2IIIIIIIIIIIIIIAI1I22
AI1I22IIIII2IIIIIIIIIIIIIIIIIIIIAIAI1222III2I2IIIIIIIIIIIIAI1I22
AI1I22IIIII2IIIIIIIIIIIIIIIIIIIIAIAA11222II2I22IIIIIIIIIIIAI1I22
AI1I22IIIII2IIIIIIIIIIIIIIAI1I22AIAA11222II2I22IIIIIIIIIIIAI1I22
AIAI1222III2I2IIIIIIIIIIIIAI1I22AIAA11222II2I22IIIIIIIIIIIAI1I22
AIAA11222II2I22IIIIIIIIIIIAI1I22AIAA11222II2I22IIIIIIIIIIIAI1I22
AI1I11I2III22III2IIIIIIIIIIIIIIIIIIIIIIIIIIIIIIIIIIIIIIIIIIIIIII
AI1I11I2III22III2IIIIIIIIIIIIIIIAI1I11I2III22III2IIIIIIIIIIIIIII
AI1I11I2III22III2IIIIIIIIIAI1I11A21I1122II222III2IIIIIIIIIIIIIII
AIAI1111I2I2222I2I2IIIIIIIAI1I11A21I1122II222III2IIIIIIIIIIIIIII
AIAA1111122222222I22IIIIIIAI1I11A21I1122II222III2IIIIIIIIIIIIIII
AIAA1111122222222I22IIIIIIAI1I11A21I1122II222III2IIIIIIIIIAI1I11
AIAA1111122222222I22IIIIIIAI1I11A2AI1111I222222I2I2IIIIIIIAI1I11
AIAA1111122222222I22IIIIIIAI1I11A2AA1111122222222I22IIIIIIAI1I11
IIIIIIIIIIIIIIIIIIIIIIIIIIIIIIIIA111I1I1III1I1II2IIIIIIIIIIIIIII
A111I1I1III1I1II2IIIIIIIIIIIIIIIA111I1I1III1I1II2IIIIIIIIIIIIIII
A111I1I1III1I1II2IIIIIIIIIIIIIIIA111I1I1III1I1II2IIIIIIIIIA111I1
A111I1I1III1I1II2IIIIIIIIIIIIIIIA1A111I1I1I1I1I12I2IIIIIIIA111I1
A111I1I1III1I1II2IIIIIIIIIIIIIIIA1AA11111111I1111I22IIIIIIA111I1
A111I1I1III1I1II2IIIIIIIIIA111I1A1AA11111111I1111I22IIIIIIA111I1
A1A111I1I1I1I1I12I2IIIIIIIA111I1A1AA11111111I1111I22IIIIIIA111I1
A1AA11111111I1111I22IIIIIIA111I1A1AA11111111I1111I22IIIIIIA111I1
AI11I1I1III1I1II2IIIIIIIIIIIIIIIIIIIIIIIIIIIIIIIIIIIIIIIIIIIIIII
AI11I1I1III1I1II2IIIIIIIIIIIIIIIAI11I1I1III1I1II2IIIIIIIIIIIIIII
AI11I1I1III1I1II2IIIIIIIIIAI11I1A111I1I1II21I1II2IIIIIIIIIIIIIII
AIA111I1I1I1I1I12I2IIIIIIIAI11I1A111I1I1II21I1II2IIIIIIIIIIIIIII
AIAA11111111I1111I22IIIIIIAI11I1A111I1I1II21I1II2IIIIIIIIIIIIIII
AIAA11111111I1111I22IIIIIIAI11I1A111I1I1II21I1II2IIIIIIIIIAI11I1
AIAA11111111I1111I22IIIIIIAI11I1A1A111I1I121I1I12I2IIIIIIIAI11I1
AIAA11111111I1111I22IIIIIIAI11I1A1AA11111111I1111I22IIIIIIAI11I1
IIIIIIIIIIIIIIIIIIIIIIIIIIIIIIIIAI1II1I1III222II2IIIIIIIIIIIIIII
AI1II1I1III222II2IIIIIIIIIIIIIIIAI1II1I1III222II2IIIIIIIIIIIIIII
AI1II1I1III222II2IIIIIIIIIIIIIIIAI1II1I1III222II2IIIIIIIIIAI1II1
AI1II1I1III222II2IIIIIIIIIIIIIIIAIAI11I1I1I222222I2IIIIIIIAI1II1
AI1II1I1III222II2IIIIIIIIIIIIIIIAIAA11I1111222222I22IIIIIIAI1II1
AI1II1I1III222II2IIIIIIIIIAI1II1A1AA1121111222222I22IIIIIIAI1II1
AIAI11I1I1I222222I2IIIIIIIAI1II1A1AA1121111222222I22IIIIIIAI1II1
AIAA11I1111222222I22IIIIIIAI1II1A1AA1121111222222I22IIIIIIAI1II1
AIIIIIIIIIIIIIIIIIIIIIIIIIIIIIIIIIIIIIIIIIIIIIIIIIIIIIIIIIIIIIII
AI1IIII1III22III2IIIIIIIIIIIIIIIIIIIIIIIIIIIIIIIIIIIIIIIIIIIIIII
AI1IIII1III22III2IIIIIIIIIIIIIIIAI1IIII1III22III2IIIIIIIIIIIIIII
AI1IIII1III22III2IIIIIIIIIAI1IIIA11II221II222III2IIIIIIIIIIIIIII
AIAI1II1I1I2222I2I2IIIIIIIAI1IIIA11II221II222III2IIIIIIIIIIIIIII
AIAA11I1I11222222I22IIIIIIAI1IIIA11II221II222III2IIIIIIIIIIIIIII
AIAA11I1I11222222I22IIIIIIAI1IIIA11II221II222III2IIIIIIIIIAI1III
AIAA11I1I11222222I22IIIIIIAI1IIIA1AI1221I122222I2I2IIIIIIIAI1III
AIAA11I1I11222222I22IIIIIIAI1IIIA1AA1121I11222222I22IIIIIIAI1III
IIIIIIIIIIIIIIIIIIIIIIIIIIIIIIIIAI1I1I111II122II2IIIIIIIIIIIIIII
AI1I1I111II122II2IIIIIIIIIIIIIIIAI1I1I111II122II2IIIIIIIIIIIIIII
AI1I1I111II122II2IIIIIIIIIIIIIIIAI1I1I111II122II2IIIIIIIIIAI1I1I
AI1I1I111II122II2IIIIIIIIIIIIIIIAIAI1I11111121222I2IIIIIIIAI1I1I
AI1I1I111II122II2IIIIIIIIIIIIIIIAIAA1111111121122I22IIIIIIAI1I1I
A21I1I111II122II2IIIIIIIIIIIIIIIAIAA1111111121122I22IIIIIIAI1I1I
A21I1I111II122II2IIIIIIIIIA2IIIIAIAA1111111121122I22IIIIIIAI1I1I
A2A21I111II122II2IIIIIIIIIA2IIIIAIAA1111111121122I22IIIIIIAI1I1I
A2AA1I111II122II2IIIIIIIIIA2IIIIAIAA1111111121122I22IIIIIIAI1I1I
AI1II2I2III222IIIIIIIIIIIIIIIIIIIIIIIIIIIIIIIIIIIIIIIIIIIIIIIIII
AI1II2I2III222IIIIIIIIIIIIIIIIIIAI1II2I2III222IIIIIIIIIIIIIIIIII
AI1II2I2III222IIIIIIIIIIIIAI1II2A21II222III222IIIIIIIIIIIIIIIIII
AIAI12I2I2I22222IIIIIIIIIIAI1II2A21II222III222IIIIIIIIIIIIIIIIII
AIAA11I2222222222IIIIIIIIIAI1II2A21II222III222IIIIIIIIIIIIIIIIII
AIAA11I2222222222IIIIIIIIIAI1II2A21II222III222IIIIIIIIIIIIAI1II2
AIAA11I2222222222IIIIIIIIIAI1II2A2AI1222I2I22222IIIIIIIIIIAI1II2
AIAA11I2222222222IIIIIIIIIAI1II2A2AA1122222222222IIIIIIIIIAI1II2
IIIIIIIIIIIIIIIIIIIIIIIIIIIIIIIIAI1II2I2III2IIII2IIIIIIIIIIIIIII
AI1II2I2III2IIII2IIIIIIIIIIIIIIIAI1II2I2III2IIII2IIIIIIIIIIIIIII
AI1II2I2III2IIII2IIIIIIIIIIIIIIIAI1II2I2III2IIII2IIIIIIIIIAI1II2
AI1II2I2III2IIII2IIIIIIIIIIIIIIIAIAI12I2I2I2I2II2I2IIIIIIIAI1II2
AI1II2I2III2IIII2IIIIIIIIIIIIIIIAIAA11I22222I22I2I22IIIIIIAI1II2
AI1II2I2III2IIII2IIIIIIIIIAI1II2A2AA11I22222I22I2I22IIIIIIAI1II2
AIAI12I2I2I2I2II2I2IIIIIIIAI1II2A2AA11I22222I22I2I22IIIIIIAI1II2
AIAA11I22222I22I2I22IIIIIIAI1II2A2AA11I22222I22I2I22IIIIIIAI1II2
A1I1I1111I11112IIIIIIIIIIIIIIIIIIIIIIIIIIIIIIIIIIIIIIIIIIIIIIIII
A1I1I1111I11112I2IIIIIIIIIIIIIIIIIIIIIIIIIIIIIIIIIIIIIIIIIIIIIII
A1I1I1111I11112I2IIIIIIIIIIIIIIIA1I1I1111I1IIIIIIIIIIIIIIIIIIIII
A1I1I1111I11112I2IIIIIIIIIA1I1I1A11111111I1IIIIIIIIIIIIIIIIIIIII
A1A1I111111111112I2IIIIIIIA1I1I1A11111111I1IIIIIIIIIIIIIIIIIIIII
A1AA1111111111111222IIIIIIA1I1I1A11111111I1IIIIIIIIIIIIIIIIIIIII
A1AA1111111111111222IIIIIIA1I1I1A11111111I11112I2IIIIIIIIIIIIIII
A1AA1111111111111222IIIIIIA1I1I1A11111111I11112I2IIIIIIIIIA1IIII
A1AA1111111111111222IIIIIIA1I1I1A11111111I11112I2IIIIIIIIIA1I1I1
A1AA1111111111111222IIIIIIA1I1I1A1A11111111111112I2IIIIIIIA1I1I1
A1AA1111111111111222IIIIIIA1I1I1A1AA1111111111111222IIIIIIA1I1I1
IIIIIIIIIIIIIIIIIIIIIIIIIIIIIIIIAI1111I1III1111I1IIIIIIIIIIIIIII
AI1111I1III1111I1IIIIIIIIIIIIIIIAI1111I1III1111I1IIIIIIIIIIIIIII
AI1111I1III1111I1IIIIIIIIIIIIIIIAI1111I1III1111I1IIIIIIIIIAI111I
AI1111I1III1111I1IIIIIIIIIIIIIIIAI1111I1III1111I1IIIIIIIIIAI1111
AI1111I1III1111I1IIIIIIIIIIIIIIIAIA11111I1I111111I1IIIIIIIAI1111
AI1111I1III1111I1IIIIIIIIIIIIIIIAIAA1111111111111111IIIIIIAI1111
AI1111I1III1111I1IIIIIIIIIAI1111A1AA1111111111111111IIIIIIAI1111
AIA11111I1I111111I1IIIIIIIAI1111A1AA1111111111111111IIIIIIAI1111
AIAA1111111111111111IIIIIIAI1111A1AA1111111111111111IIIIIIAI1111
AI111IIIIII111II1IIIIIIIIIIIIIIIIIIIIIIIIIIIIIIIIIIIIIIIIIIIIIII
AI111IIIIII111II1IIIIIIIIIIIIIIIAI111IIIIII111II1IIIIIIIIIIIIIII
AI111IIIIII111II1IIIIIIIIIAI111IAI111111II1111II1IIIIIIIIIIIIIII
AIA1111IIII111111I1IIIIIIIAI111IAI111111II1111II1IIIIIIIIIIIIIII
AIAA1111III111111I11IIIIIIAI111IAI111111II1111II1IIIIIIIIIIIIIII
AIAA1111III111111I11IIIIIIAI111IAI111111II1111II1IIIIIIIIIAI111I
AIAA1111III111111I11IIIIIIAI111IAIA11111II1111111I1IIIIIIIAI111I
AIAA1111III111111I11IIIIIIAI111IAIAA1111II1111111I11IIIIIIAI111I
IIIIIIIIIIIIIIIIIIIIIIIIIIIIIIIIAI11111IIIIIIIIIIIIIIIIIIIIIIIII
IIIIIIIIIIIIIIIIIIIIIIIIIIIIIIIIAI111111III11III1IIIIIIIIIIIIIII
AI111IIIIIIIIIIIIIIIIIIIIIIIIIIIAI111111III11III1IIIIIIIIIIIIIII
AI111IIIIIIIIIIIIIIIIIIIIIIIIIIIAI111111III11III1IIIIIIIIIAI1111
AI111IIIIIIIIIIIIIIIIIIIIIIIIIIIAIA1111111I1111I1I1IIIIIIIAI1111
AI111IIIIIIIIIIIIIIIIIIIIIIIIIIIAIAA1111111111111I11IIIIIIAI1111
AI111111III11III1IIIIIIIIIIIIIIIAIAA1111111111111I11IIIIIIAI1111
AI111111III11III1IIIIIIIIIAI1111A1AA1111111111111I11IIIIIIAI1111
AIA1111111I1111I1I1IIIIIIIAI1111A1AA1111111111111I11IIIIIIAI1111
AIAA1111111111111I11IIIIIIAI1111A1AA1111111111111I11IIIIIIAI1111
AI11III11II1222I2IIIIIIIIIIIIIIIIIIIIIIIIIIIIIIIIIIIIIIIIIIIIIII
AI11III11II1222I2IIIIIIIIIIIIIIIAI11III11II1222I2IIIIIIIIIIIIIII
AI11III11II1222I2IIIIIIIIIAI11IIA111I1211I21222I2IIIIIIIIIIIIIII
AIA111I1111121222I2IIIIIIIAI11IIA111I1211I21222I2IIIIIIIIIIIIIII
AIAA1111111121122222IIIIIIAI11IIA111I1211I21222I2IIIIIIIIIIIIIII
AIAA1111111121122222IIIIIIAI11IIA111I1211I21222I2IIIIIIIIIAI11II
AIAA1111111121122222IIIIIIAI11IIA1A11121111121222I2IIIIIIIAI11II
AIAA1111111121122222IIIIIIAI11IIA1AA1111111121122222IIIIIIAI11II
IIIIIIIIIIIIIIIIIIIIIIIIIIIIIIIIAI1I1112III2I2II2IIIIIIIIIIIIIII
AI1I1112III2I2II2IIIIIIIIIIIIIIIAI1I1112III2I2II2IIIIIIIIIIIIIII
AI1I1112III2I2II2IIIIIIIIIIIIIIIAI1I1112III2I2II2IIIIIIIIIAI1I11
AI1I1112III2I2II2IIIIIIIIIIIIIIIAIAI111112I2I2I22I2IIIIIIIAI1I11
AI1I1112III2I2II2IIIIIIIIIIIIIIIAIAA11111122I2222I22IIIIIIAI1I11
AI1I1112III2I2II2IIIIIIIIIAI1I11A2AA11111122I2222I22IIIIIIAI1I11
AIAI111112I2I2I22I2IIIIIIIAI1I11A2AA11111122I2222I22IIIIIIAI1I11
AIAA11111122I2222I22IIIIIIAI1I11A2AA11111122I2222I22IIIIIIAI1I11
AI1I11I1III122II2IIIIIIIIIIIIIIIIIIIIIIIIIIIIIIIIIIIIIIIIIIIIIII
AI1I11I1III122II2IIIIIIIIIIIIIIIAI1I11I1III122II2IIIIIIIIIIIIIII
AI1I11I1III122II2IIIIIIIIIAI1I11A11I1121II2122II2IIIIIIIIIIIIIII
AIAI1111I1I121222I2IIIIIIIAI1I11A11I1121II2122II2IIIIIIIIIIIIIII
AIAA1111111121122I22IIIIIIAI1I11A11I1121II2122II2IIIIIIIIIIIIIII
AIAA1111111121122I22IIIIIIAI1I11A11I1121II2122II2IIIIIIIIIAI1I11
AIAA1111111121122I22IIIIIIAI1I11A1AI1111I12121222I2IIIIIIIAI1I11
AIAA1111111121122I22IIIIIIAI1I11A1AA1111111121122I22IIIIIIAI1I11
IIIIIIIIIIIIIIIIIIIIIIIIIIIIIIIIAI2II2I2III2IIIIIIIIIIIIIIIIIIII
AI2II2I2III2IIIIIIIIIIIIIIIIIIIIAI2II2I2III2IIIIIIIIIIIIIIIIIIII
AI2II2I2III2IIIIIIIIIIIIIIIIIIIIAI2II2I2III2IIIIIIIIIIIIIIAI2II2
AI2II2I2III2IIIIIIIIIIIIIIIIIIIIAIAI22I2I2I2I2IIIIIIIIIIIIAI2II2
AI2II2I2III2IIIIIIIIIIIIIIIIIIIIAIAA22I22222I22IIIIIIIIIIIAI2II2
AI2II2I2III2IIIIIIIIIIIIIIAI2II2A2AA22I22222I22IIIIIIIIIIIAI2II2
AIAI22I2I2I2I2IIIIIIIIIIIIAI2II2A2AA22I22222I22IIIIIIIIIIIAI2II2
AIAA22I22222I22IIIIIIIIIIIAI2II2A2AA22I22222I22IIIIIIIIIIIAI2II2
AI111111IIIIIIIIIIIIIIIIIIIIIIIIIIIIIIIIIIIIIIIIIIIIIIIIIIIIIIII
AI1111111II1IIII2IIIIIIIIIIIIIIIIIIIIIIIIIIIIIIIIIIIIIIIIIIIIIII
AI1111111II1IIII2IIIIIIIIIIIIIIIAI1111111IIIIIIIIIIIIIIIIIIIIIII
AI1111111II1IIII2IIIIIIIIIAI1111A11111111I2IIIIIIIIIIIIIIIIIIIII
AIA111111111I1II2I2IIIIIIIAI1111A11111111I2IIIIIIIIIIIIIIIIIIIII
AIAA11111111I11I2I22IIIIIIAI1111A11111111I2IIIIIIIIIIIIIIIIIIIII
AIAA11111111I11I2I22IIIIIIAI1111A11111111I21IIII2IIIIIIIIIIIIIII
AIAA11111111I11I2I22IIIIIIAI1111A11111111I21IIII2IIIIIIIIIAI1III
AIAA11111111I11I2I22IIIIIIAI1111A11111111I21IIII2IIIIIIIIIAI1111
AIAA11111111I11I2I22IIIIIIAI1111A1A111111111I1II2I2IIIIIIIAI1111
AIAA11111111I11I2I22IIIIIIAI1111A1AA11111111I11I2I22IIIIIIAI1111
IIIIIIIIIIIIIIIIIIIIIIIIIIIIIIIIAI1I11I11II11III2IIIIIIIIIIIIIII
AI1I11I11II11III2IIIIIIIIIIIIIIIAI1I11I11II11III2IIIIIIIIIIIIIII
AI1I11I11II11III2IIIIIIIIIIIIIIIAI1I11I11II11III2IIIIIIIIIAI1I11
AI1I11I11II11III2IIIIIIIIIIIIIIIAIAI11111111111I2I2IIIIIIIAI1I11
AI1I11I11II11III2IIIIIIIIIIIIIIIAIAA1111111111112I22IIIIIIAI1I11
AI1I11I11II11III2IIIIIIIIIAI1I11A1AA1111111111112I22IIIIIIAI1I11
AIAI11111111111I2I2IIIIIIIAI1I11A1AA1111111111112I22IIIIIIAI1I11
AIAA1111111111112I22IIIIIIAI1I11A1AA1111111111112I22IIIIIIAI1I11
[MLOP] Prefetch Degree Mean: 8.60775
[MLOP] Prefetch Degree SD: 5.65619
[MLOP] Max Score Left Mean (%): 37.08
[MLOP] Max Score Left SD (%): 14.5248
[MLOP] Max Score Right Mean (%): 66.0393
[MLOP] Max Score Right SD (%): 23.4134

DRAM Statistics
 CHANNEL 0
 RQ ROW_BUFFER_HIT:    2556091  ROW_BUFFER_MISS:    2194574
 DBUS_CONGESTED:       3409
 WQ ROW_BUFFER_HIT:     524187  ROW_BUFFER_MISS:    2182684  FULL:      17062

 AVG_CONGESTED_CYCLE: 3
 All warmup complete: 2
Channel 0 Bank busy for read cycles: 0
Channel 0 Bank busy for write cycles: 0
Channel 0
Rank 0
0banks busy for read cycles: 154252640
0banks busy for write cycles: 227515
1banks busy for read cycles: 28478417
1banks busy for write cycles: 26850211
2banks busy for read cycles: 14528165
2banks busy for write cycles: 12694871
3banks busy for read cycles: 17731892
3banks busy for write cycles: 8097042
4banks busy for read cycles: 7314927
4banks busy for write cycles: 6175532
5banks busy for read cycles: 6504973
5banks busy for write cycles: 5293569
6banks busy for read cycles: 7263349
6banks busy for write cycles: 5143342
7banks busy for read cycles: 9464033
7banks busy for write cycles: 7098219
8banks busy for read cycles: 22705651
8banks busy for write cycles: 29753513

CPU 0 Branch Prediction Accuracy: 99.9426% MPKI: 0.08767 Average ROB Occupancy at Mispredict: 101.823
Branch types
NOT_BRANCH: 169469645 84.7348%
BRANCH_DIRECT_JUMP: 1661001 0.8305%
BRANCH_INDIRECT: 9967570 4.98379%
BRANCH_CONDITIONAL: 12063601 6.0318%
BRANCH_DIRECT_CALL: 2825891 1.41295%
BRANCH_INDIRECT_CALL: 593170 0.296585%
BRANCH_RETURN: 3419094 1.70955%
BRANCH_OTHER: 0 0%

DRAM PAGES: 1048576
Allocated PAGES: 23678
