
*** ChampSim Multicore Out-of-Order Simulator ***

Warmup Instructions: 50000000
Simulation Instructions: 200000000
Number of CPUs: 1
LLC sets: 2048
LLC ways: 16
Off-chip DRAM Size: 4096 MB Channels: 1 Width: 64-bit Data Rate: 6400 MT/s
CPU 0 runs traces/spec2k17/server_028.champsimtrace.xz
.xz
BTB has LRU replacement policy
ITLB has LRU replacement policy
DTLB has LRU replacement policy
STLB has LRU replacement policy
L1I has LRU replacement policy
L1D has LRU replacement policy
Initialize SRRIP state for L2C
Initialize DRRIP state for LLC
Heartbeat CPU 0 instructions: 10000001 cycles: 2860547 heartbeat IPC: 3.49584 cumulative IPC: 3.49584 (Simulation time: 0 hr 0 min 38 sec) 
Heartbeat CPU 0 instructions: 20000002 cycles: 5710389 heartbeat IPC: 3.50897 cumulative IPC: 3.50239 (Simulation time: 0 hr 1 min 16 sec) 
Heartbeat CPU 0 instructions: 30000002 cycles: 8557886 heartbeat IPC: 3.51186 cumulative IPC: 3.50554 (Simulation time: 0 hr 1 min 55 sec) 
Heartbeat CPU 0 instructions: 40000001 cycles: 11410827 heartbeat IPC: 3.50515 cumulative IPC: 3.50544 (Simulation time: 0 hr 2 min 31 sec) 
Heartbeat CPU 0 instructions: 50000003 cycles: 14263144 heartbeat IPC: 3.50592 cumulative IPC: 3.50554 (Simulation time: 0 hr 3 min 5 sec) 

Warmup complete CPU 0 instructions: 50000003 cycles: 14263144 (Simulation time: 0 hr 3 min 5 sec) 

Heartbeat CPU 0 instructions: 60000000 cycles: 47629822 heartbeat IPC: 0.2997 cumulative IPC: 0.2997 (Simulation time: 0 hr 4 min 5 sec) 
Heartbeat CPU 0 instructions: 70000000 cycles: 81063287 heartbeat IPC: 0.299102 cumulative IPC: 0.299401 (Simulation time: 0 hr 5 min 3 sec) 
Heartbeat CPU 0 instructions: 80000000 cycles: 114537127 heartbeat IPC: 0.298741 cumulative IPC: 0.29918 (Simulation time: 0 hr 6 min 0 sec) 
*** Reached end of trace for Core: 0 Repeating trace: traces/spec2k17/server_028.champsimtrace.xz
Heartbeat CPU 0 instructions: 90000001 cycles: 147768714 heartbeat IPC: 0.300919 cumulative IPC: 0.299613 (Simulation time: 0 hr 6 min 56 sec) 
Heartbeat CPU 0 instructions: 100000001 cycles: 180870678 heartbeat IPC: 0.302097 cumulative IPC: 0.300106 (Simulation time: 0 hr 7 min 52 sec) 
Heartbeat CPU 0 instructions: 110000000 cycles: 214330020 heartbeat IPC: 0.29887 cumulative IPC: 0.2999 (Simulation time: 0 hr 8 min 55 sec) 
Heartbeat CPU 0 instructions: 120000003 cycles: 247576364 heartbeat IPC: 0.300785 cumulative IPC: 0.300026 (Simulation time: 0 hr 9 min 50 sec) 
Heartbeat CPU 0 instructions: 130000001 cycles: 281051830 heartbeat IPC: 0.298726 cumulative IPC: 0.299863 (Simulation time: 0 hr 10 min 55 sec) 
Heartbeat CPU 0 instructions: 140000001 cycles: 314443171 heartbeat IPC: 0.299479 cumulative IPC: 0.29982 (Simulation time: 0 hr 11 min 52 sec) 
Heartbeat CPU 0 instructions: 150000002 cycles: 347678911 heartbeat IPC: 0.300881 cumulative IPC: 0.299926 (Simulation time: 0 hr 12 min 43 sec) 
Heartbeat CPU 0 instructions: 160000000 cycles: 381044919 heartbeat IPC: 0.299706 cumulative IPC: 0.299906 (Simulation time: 0 hr 13 min 36 sec) 
Heartbeat CPU 0 instructions: 170000001 cycles: 414137241 heartbeat IPC: 0.302185 cumulative IPC: 0.300094 (Simulation time: 0 hr 14 min 40 sec) 
*** Reached end of trace for Core: 0 Repeating trace: traces/spec2k17/server_028.champsimtrace.xz
Heartbeat CPU 0 instructions: 180000002 cycles: 447409047 heartbeat IPC: 0.300555 cumulative IPC: 0.30013 (Simulation time: 0 hr 15 min 39 sec) 
Heartbeat CPU 0 instructions: 190000000 cycles: 480569924 heartbeat IPC: 0.30156 cumulative IPC: 0.300232 (Simulation time: 0 hr 16 min 41 sec) 
Heartbeat CPU 0 instructions: 200000001 cycles: 513806600 heartbeat IPC: 0.300872 cumulative IPC: 0.300274 (Simulation time: 0 hr 17 min 41 sec) 
Heartbeat CPU 0 instructions: 210000002 cycles: 547163255 heartbeat IPC: 0.29979 cumulative IPC: 0.300244 (Simulation time: 0 hr 18 min 34 sec) 
Heartbeat CPU 0 instructions: 220000000 cycles: 580502905 heartbeat IPC: 0.299943 cumulative IPC: 0.300226 (Simulation time: 0 hr 19 min 38 sec) 
Heartbeat CPU 0 instructions: 230000000 cycles: 613599193 heartbeat IPC: 0.302149 cumulative IPC: 0.300332 (Simulation time: 0 hr 20 min 30 sec) 
Heartbeat CPU 0 instructions: 240000000 cycles: 646792331 heartbeat IPC: 0.301267 cumulative IPC: 0.300381 (Simulation time: 0 hr 21 min 22 sec) 
Heartbeat CPU 0 instructions: 250000000 cycles: 680153456 heartbeat IPC: 0.29975 cumulative IPC: 0.30035 (Simulation time: 0 hr 22 min 24 sec) 
Finished CPU 0 instructions: 200000003 cycles: 665890323 cumulative IPC: 0.30035 (Simulation time: 0 hr 22 min 24 sec) 

ChampSim completed all CPUs

Region of Interest Statistics

CPU 0 cumulative IPC: 0.30035 instructions: 200000003 cycles: 665890323
ITLB TOTAL     ACCESS:   35645717  HIT:   33456510  MISS:    2189207  HIT %:    93.8584  MISS %:    6.14157   MPKI: 10.946
ITLB LOAD TRANSLATION ACCESS:   35645717  HIT:   33456510  MISS:    2189207  HIT %:    93.8584  MISS %:    6.14157   MPKI: 10.946
ITLB PREFETCH  REQUESTED:          0  ISSUED:          0  USEFUL:          0  USELESS:          0
ITLB USEFUL LOAD PREFETCHES:          0 PREFETCH ISSUED TO LOWER LEVEL:          0  ACCURACY: -nan
ITLB TIMELY PREFETCHES:          0 LATE PREFETCHES: 0 DROPPED PREFETCHES: 0
ITLB PREFETCHES SAME FILL-ORIGIN LEVEL: 0 DIFFERENT FILL-ORIGIN LEVEL: 0
ITLB AVERAGE MISS LATENCY: 9.34545 cycles
ITLB RQ	ACCESS:   41825070	FORWARD:          0	MERGED:    5654858	TO_CACHE:   36170212

DTLB TOTAL     ACCESS:   45076678  HIT:   42994507  MISS:    2082171  HIT %:    95.3808  MISS %:    4.61918   MPKI: 10.4109
DTLB LOAD TRANSLATION ACCESS:   45076678  HIT:   42994507  MISS:    2082171  HIT %:    95.3808  MISS %:    4.61918   MPKI: 10.4109
DTLB PREFETCH  REQUESTED:          0  ISSUED:          0  USEFUL:          0  USELESS:          0
DTLB USEFUL LOAD PREFETCHES:          0 PREFETCH ISSUED TO LOWER LEVEL:          0  ACCURACY: -nan
DTLB TIMELY PREFETCHES:          0 LATE PREFETCHES: 0 DROPPED PREFETCHES: 0
DTLB PREFETCHES SAME FILL-ORIGIN LEVEL: 0 DIFFERENT FILL-ORIGIN LEVEL: 0
DTLB AVERAGE MISS LATENCY: 11.5942 cycles
DTLB RQ	ACCESS:   59702453	FORWARD:          0	MERGED:   14568563	TO_CACHE:   45133890

STLB TOTAL     ACCESS:    5383567  HIT:    5306648  MISS:      76919  HIT %:    98.5712  MISS %:    1.42877   MPKI: 0.384595
STLB LOAD TRANSLATION ACCESS:    4271378  HIT:    4194459  MISS:      76919  HIT %:    98.1992  MISS %:     1.8008   MPKI: 0.384595
STLB TRANSLATION FROM L1D PREFETCHER ACCESS:    1112189  HIT:    1112189  MISS:          0  HIT %:        100  MISS %:          0   MPKI: 0
STLB PREFETCH  REQUESTED:          0  ISSUED:          0  USEFUL:          0  USELESS:          0
STLB USEFUL LOAD PREFETCHES:          0 PREFETCH ISSUED TO LOWER LEVEL:          0  ACCURACY: -nan
STLB TIMELY PREFETCHES:          0 LATE PREFETCHES: 0 DROPPED PREFETCHES: 0
STLB PREFETCHES SAME FILL-ORIGIN LEVEL: 0 DIFFERENT FILL-ORIGIN LEVEL: 0
STLB AVERAGE MISS LATENCY: 79.6903 cycles
STLB RQ	ACCESS:    8757910	FORWARD:          0	MERGED:    3374343	TO_CACHE:    5383567

STLB Hit, L1D data hit: 0
STLB Hit, L2C data hit: 0
STLB Hit, LLC data hit: 0
STLB Hit, LLC data miss: 0
STLB STLB hints to L2: 0
L1D TOTAL     ACCESS:   60684133  HIT:   52576983  MISS:    8107150  HIT %:    86.6404  MISS %:    13.3596   MPKI: 40.5357
L1D LOAD      ACCESS:   33500279  HIT:   29269167  MISS:    4231112  HIT %:    87.3699  MISS %:    12.6301   MPKI: 21.1556
L1D RFO       ACCESS:   24377749  HIT:   23220699  MISS:    1157050  HIT %:    95.2537  MISS %:    4.74634   MPKI: 5.78525
L1D PREFETCH  ACCESS:    2806105  HIT:      87117  MISS:    2718988  HIT %:    3.10455  MISS %:    96.8954   MPKI: 13.5949
AGUS PREFETCH L1 MISS: 0
L1D PREFETCH  REQUESTED:    8984916  ISSUED:    8984916  USEFUL:     458228  USELESS:    2260579
L1D USEFUL LOAD PREFETCHES:     458228 PREFETCH ISSUED TO LOWER LEVEL:    4363605  ACCURACY: 10.5011
L1D TIMELY PREFETCHES:     458228 LATE PREFETCHES: 74657 DROPPED PREFETCHES: 0
L1D PREFETCHES SAME FILL-ORIGIN LEVEL: 2794641 DIFFERENT FILL-ORIGIN LEVEL: 1568964
L1D AVERAGE MISS LATENCY: 3.19527e+06 cycles
L1D RQ	ACCESS:   46043161	FORWARD:          0	MERGED:   12104430	TO_CACHE:   33625214
L1D WQ	ACCESS:   26217180	FORWARD:     314245	MERGED:     139941	TO_CACHE:   26077239
L1D PQ	ACCESS:    4498384	FORWARD:          0	MERGED:      11124	TO_CACHE:    4486532

L1D UNIQUE REGIONS ACCESSED: 0
L1D REGIONS CONFLICTS: 0
L1D Cross Page Prefetch Requests: 0
L1D Same Page Prefetch Requests: 5580202
L1D ROI Sum of L1D PQ occupancy: 64063357
L1D PREFETCHES PUSHED FROM L2C: 0
L1I TOTAL     ACCESS:   40158249  HIT:   29074549  MISS:   11083700  HIT %:    72.3999  MISS %:    27.6001   MPKI: 55.4185
L1I LOAD      ACCESS:   40158249  HIT:   29074549  MISS:   11083700  HIT %:    72.3999  MISS %:    27.6001   MPKI: 55.4185
L1I PREFETCH  REQUESTED:          0  ISSUED:          0  USEFUL:          0  USELESS:          0
L1I USEFUL LOAD PREFETCHES:          0 PREFETCH ISSUED TO LOWER LEVEL:          0  ACCURACY: -nan
L1I TIMELY PREFETCHES:          0 LATE PREFETCHES: 0 DROPPED PREFETCHES: 0
L1I PREFETCHES SAME FILL-ORIGIN LEVEL: 0 DIFFERENT FILL-ORIGIN LEVEL: 0
L1I AVERAGE MISS LATENCY: 17.1843 cycles
L1I RQ	ACCESS:   58418224	FORWARD:          0	MERGED:   16593154	TO_CACHE:   41825070

BTB TOTAL     ACCESS:   30542458  HIT:   18336623  MISS:   12205835  HIT %:    60.0365  MISS %:    39.9635   MPKI: 61.0292
BTB BRANCH_DIRECT_JUMP	ACCESS:    2010403  HIT:    1225655  MISS:     784748
BTB BRANCH_INDIRECT	ACCESS:   11931802  HIT:    7220486  MISS:    4711316
BTB BRANCH_CONDITIONAL	ACCESS:    7548039  HIT:    6326083  MISS:    1221956
BTB BRANCH_DIRECT_CALL	ACCESS:    3806012  HIT:    1828717  MISS:    1977295
BTB BRANCH_INDIRECT_CALL	ACCESS:     720088  HIT:     358904  MISS:     361184
BTB BRANCH_RETURN	ACCESS:    4526114  HIT:    1376778  MISS:    3149336
BTB BRANCH_OTHER ACCESS:          0  HIT:          0  MISS:          0

L2C TOTAL     ACCESS:   23209756  HIT:   19623283  MISS:    3586473  HIT %:    84.5476  MISS %:    15.4524   MPKI: 17.9324
L2C LOAD      ACCESS:   15240133  HIT:   13691017  MISS:    1549116  HIT %:    89.8353  MISS %:    10.1647   MPKI: 7.74558
L2C DATA LOAD MPKI: 2.23226
L2C INSTRUCTION LOAD MPKI: 5.51332
L2C RFO       ACCESS:    1156055  HIT:    1038133  MISS:     117922  HIT %:    89.7996  MISS %:    10.2004   MPKI: 0.58961
L2C PREFETCH  ACCESS:    4334712  HIT:    2493640  MISS:    1841072  HIT %:    57.5272  MISS %:    42.4728   MPKI: 9.20536
AGUS PREFETCH L1 MISS: 0
L2C DATA PREFETCH MPKI: 9.20536
L2C INSTRUCTION PREFETCH MPKI: 0
L2C WRITEBACK ACCESS:    2367861  HIT:    2345875  MISS:      21986  HIT %:    99.0715  MISS %:   0.928517   MPKI: 0.10993
L2C LOAD TRANSLATION ACCESS:     110995  HIT:      54618  MISS:      56377  HIT %:    49.2076  MISS %:    50.7924   MPKI: 0.281885
L2C PREFETCH  REQUESTED:          0  ISSUED:          0  USEFUL:      45020  USELESS:    1796620
L2C USEFUL LOAD PREFETCHES:      45020 PREFETCH ISSUED TO LOWER LEVEL:    1845765  ACCURACY: 2.4391
L2C TIMELY PREFETCHES:      45020 LATE PREFETCHES: 4693 DROPPED PREFETCHES: 0
L2C PREFETCHES SAME FILL-ORIGIN LEVEL: 722702 DIFFERENT FILL-ORIGIN LEVEL: 0
L2C AVERAGE MISS LATENCY: 50.0601 cycles
L2C RQ	ACCESS:   16507206	FORWARD:          0	MERGED:          0	TO_CACHE:   16507184
L2C WQ	ACCESS:    2367861	FORWARD:         24	MERGED:          0	TO_CACHE:    2367861
L2C PQ	ACCESS:    4363605	FORWARD:          0	MERGED:        393	TO_CACHE:    4363210

L2C Instructions Evicting Data 570823
L2C Translations Evicting Data 44859
L2C Data Evicting Data 1801448
L2C Instructions Evicting Instructions 522005
L2C Translations Evicting Instructions 9612
L2C Data Evicting Instructions 559501
L2C Instructions Evicting Translations 9836
L2C Translations Evicting Translations 1906
L2C Data Evicting Translations 44497
L2C Dense regions hint from L2: 0
PSCL5 TOTAL     ACCESS:      76919  HIT:      76919  MISS:          0  HIT %:        100  MISS %:          0   MPKI: 0
PSCL5 LOAD TRANSLATION ACCESS:      76919  HIT:      76919  MISS:          0  HIT %:        100  MISS %:          0   MPKI: 0
PSCL5 PREFETCH  REQUESTED:          0  ISSUED:          0  USEFUL:          0  USELESS:          0
PSCL5 USEFUL LOAD PREFETCHES:          0 PREFETCH ISSUED TO LOWER LEVEL:          0  ACCURACY: -nan
PSCL5 TIMELY PREFETCHES:          0 LATE PREFETCHES: 0 DROPPED PREFETCHES: 0
PSCL5 PREFETCHES SAME FILL-ORIGIN LEVEL: 0 DIFFERENT FILL-ORIGIN LEVEL: 0

PSCL4 TOTAL     ACCESS:      75136  HIT:      74408  MISS:        728  HIT %:    99.0311  MISS %:    0.96891   MPKI: 0.00364
PSCL4 LOAD TRANSLATION ACCESS:      75136  HIT:      74408  MISS:        728  HIT %:    99.0311  MISS %:    0.96891   MPKI: 0.00364
PSCL4 PREFETCH  REQUESTED:          0  ISSUED:          0  USEFUL:          0  USELESS:          0
PSCL4 USEFUL LOAD PREFETCHES:          0 PREFETCH ISSUED TO LOWER LEVEL:          0  ACCURACY: -nan
PSCL4 TIMELY PREFETCHES:          0 LATE PREFETCHES: 0 DROPPED PREFETCHES: 0
PSCL4 PREFETCHES SAME FILL-ORIGIN LEVEL: 0 DIFFERENT FILL-ORIGIN LEVEL: 0

PSCL3 TOTAL     ACCESS:      76642  HIT:      75914  MISS:        728  HIT %:    99.0501  MISS %:   0.949871   MPKI: 0.00364
PSCL3 LOAD TRANSLATION ACCESS:      76642  HIT:      75914  MISS:        728  HIT %:    99.0501  MISS %:   0.949871   MPKI: 0.00364
PSCL3 PREFETCH  REQUESTED:          0  ISSUED:          0  USEFUL:          0  USELESS:          0
PSCL3 USEFUL LOAD PREFETCHES:          0 PREFETCH ISSUED TO LOWER LEVEL:          0  ACCURACY: -nan
PSCL3 TIMELY PREFETCHES:          0 LATE PREFETCHES: 0 DROPPED PREFETCHES: 0
PSCL3 PREFETCHES SAME FILL-ORIGIN LEVEL: 0 DIFFERENT FILL-ORIGIN LEVEL: 0

PSCL2 TOTAL     ACCESS:      76919  HIT:      44299  MISS:      32620  HIT %:    57.5918  MISS %:    42.4082   MPKI: 0.1631
PSCL2 LOAD TRANSLATION ACCESS:      76919  HIT:      44299  MISS:      32620  HIT %:    57.5918  MISS %:    42.4082   MPKI: 0.1631
PSCL2 PREFETCH  REQUESTED:          0  ISSUED:          0  USEFUL:          0  USELESS:          0
PSCL2 USEFUL LOAD PREFETCHES:          0 PREFETCH ISSUED TO LOWER LEVEL:          0  ACCURACY: -nan
PSCL2 TIMELY PREFETCHES:          0 LATE PREFETCHES: 0 DROPPED PREFETCHES: 0
PSCL2 PREFETCHES SAME FILL-ORIGIN LEVEL: 0 DIFFERENT FILL-ORIGIN LEVEL: 0

LLC TOTAL     ACCESS:    3750623  HIT:    3281241  MISS:     469382  HIT %:    87.4852  MISS %:    12.5148   MPKI: 2.34691
LLC LOAD      ACCESS:    1545442  HIT:    1475515  MISS:      69927  HIT %:    95.4753  MISS %:    4.52472   MPKI: 0.349635
LLC RFO       ACCESS:     116897  HIT:     107609  MISS:       9288  HIT %:    92.0545  MISS %:    7.94546   MPKI: 0.04644
LLC PREFETCH  ACCESS:    1845756  HIT:    1472781  MISS:     372975  HIT %:    79.7928  MISS %:    20.2072   MPKI: 1.86487
AGUS PREFETCH L1 MISS: 0
LLC WRITEBACK ACCESS:     186151  HIT:     182995  MISS:       3156  HIT %:    98.3046  MISS %:     1.6954   MPKI: 0.01578
LLC LOAD TRANSLATION ACCESS:      56377  HIT:      42341  MISS:      14036  HIT %:    75.1033  MISS %:    24.8967   MPKI: 0.07018
LLC PREFETCH  REQUESTED:          0  ISSUED:          0  USEFUL:       9246  USELESS:     367263
LLC USEFUL LOAD PREFETCHES:       9246 PREFETCH ISSUED TO LOWER LEVEL:     372975  ACCURACY: 2.47899
LLC TIMELY PREFETCHES:       9246 LATE PREFETCHES: 0 DROPPED PREFETCHES: 0
LLC PREFETCHES SAME FILL-ORIGIN LEVEL: 0 DIFFERENT FILL-ORIGIN LEVEL: 0
LLC AVERAGE MISS LATENCY: 154.747 cycles
LLC RQ	ACCESS:    1718723	FORWARD:          0	MERGED:          0	TO_CACHE:    1718717
LLC WQ	ACCESS:     186151	FORWARD:         15	MERGED:          0	TO_CACHE:     186151
LLC PQ	ACCESS:    1845765	FORWARD:          0	MERGED:          0	TO_CACHE:    1845756

LLC Dense regions hint to LLC: 0

RAW hits: 1441104
Loads Generated: 47484267
Loads sent to L1D: 46043161
Stores Generated: 26217178
Stores sent to L1D: 26217180
Major fault: 0 Minor fault: 6256
Allocated PAGES: 6256
=== CPU 0 L1D Prefetcher Statistics ===
[MLOP] History of tracked zone:
IIIIIIIIIIIIIIIIIIIIIIIIIIIIIIIIIIIIIIIIIIIIIIIIIIIIIIIIIIIIIIII
IAIIIIIIIIIIIIIIIIIIIIIIIIIIIIIIIIIIIIIIIIIIIIIIIIIIIIIIIIIIIIII
AAIIIIIIIIIIIIIIIIIIIIIIIIIIIIIIIIIIIIIIIIIIIIIIIIIIIIIIIIIIIIII
AA2IIIIIIIIIIIIIIIIIIIIIIIIIIIIIIIIIIIIIIIIIIIIIIIIIIIIIIIIIIIII
AA1IIIIIIIIIIIIIIIIIIIIIIIIIIIIIIIIIIIIIIIIIIIIIIIIIIIIIIIIIIIII
AA11I1111IIIIIIIIIIIIIIIIIIIIIIIIIIIIIIIIIIIIIIIIIIIIIIIIIIIIIII
AA111111111IIIIIIIIIIIIIIIIIIIIIIIIIIIIIIIIIIIIIIIIIIIIIIIIIIIII
AA1111111111IIIIIIIIIIIIIIIIIIIIIIIIIIIIIIIIIIIIIIIIIIIIIIIIIIII
AA1111111111111IIIIIIIIIIIIIIIIIIIIIIIIIIIIIIIIIIIIIIIIIIIIIIIII
AA111111111111111IIIIIIIIIIIIIIIIIIIIIIIIIIIIIIIIIIIIIIIIIIIIIII
AA1111111111111111IIIIIIIIIIIIIIIIIIIIIIIIIIIIIIIIIIIIIIIIIIIIII
AA11111111111111112IIIIIIIIIIIIIIIIIIIIIIIIIIIIIIIIIIIIIIIIIIIII
AA11111111111111111IIIIIIIIIIIIIIIIIIIIIIIIIIIIIIIIIIIIIIIIIIIII
AA111111111111111112IIIIIIIIIIIIIIIIIIIIIIIIIIIIIIIIIIIIIIIIIIII
AA111111111111111111IIIIIIIIIIIIIIIIIIIIIIIIIIIIIIIIIIIIIIIIIIII
[MLOP] Prefetch Degree Mean: 5.45742
[MLOP] Prefetch Degree SD: 4.75038
[MLOP] Max Score Left Mean (%): 16.8663
[MLOP] Max Score Left SD (%): 14.602
[MLOP] Max Score Right Mean (%): 50.2219
[MLOP] Max Score Right SD (%): 11.8444

DRAM Statistics
 CHANNEL 0
 RQ ROW_BUFFER_HIT:     200959  ROW_BUFFER_MISS:     265267
 DBUS_CONGESTED:        120
 WQ ROW_BUFFER_HIT:       1956  ROW_BUFFER_MISS:      11240  FULL:          0

 AVG_CONGESTED_CYCLE: 4
 All warmup complete: 2
Channel 0 Bank busy for read cycles: 0
Channel 0 Bank busy for write cycles: 0
Channel 0
Rank 0
0banks busy for read cycles: 646942775
0banks busy for write cycles: 7602
1banks busy for read cycles: 7351809
1banks busy for write cycles: 1285440
2banks busy for read cycles: 2825166
2banks busy for write cycles: 409256
3banks busy for read cycles: 1353698
3banks busy for write cycles: 163013
4banks busy for read cycles: 1035775
4banks busy for write cycles: 79834
5banks busy for read cycles: 947396
5banks busy for write cycles: 41411
6banks busy for read cycles: 998515
6banks busy for write cycles: 18080
7banks busy for read cycles: 1494403
7banks busy for write cycles: 4673
8banks busy for read cycles: 930560
8banks busy for write cycles: 918

CPU 0 Branch Prediction Accuracy: 99.7758% MPKI: 0.40526 Average ROB Occupancy at Mispredict: 44.5314
Branch types
NOT_BRANCH: 163841125 81.9206%
BRANCH_DIRECT_JUMP: 2010403 1.0052%
BRANCH_INDIRECT: 11931802 5.9659%
BRANCH_CONDITIONAL: 13164452 6.58223%
BRANCH_DIRECT_CALL: 3806012 1.90301%
BRANCH_INDIRECT_CALL: 720088 0.360044%
BRANCH_RETURN: 4526114 2.26306%
BRANCH_OTHER: 0 0%

DRAM PAGES: 1048576
Allocated PAGES: 6256
