
*** ChampSim Multicore Out-of-Order Simulator ***

Warmup Instructions: 50000000
Simulation Instructions: 200000000
Number of CPUs: 1
LLC sets: 2048
LLC ways: 16
Off-chip DRAM Size: 4096 MB Channels: 1 Width: 64-bit Data Rate: 6400 MT/s
CPU 0 runs traces/spec2k17/srv_22.champsimtrace.xz
.xz
BTB has LRU replacement policy
ITLB has LRU replacement policy
DTLB has LRU replacement policy
STLB has LRU replacement policy
L1I has LRU replacement policy
L1D has LRU replacement policy
Initialize SRRIP state for L2C
Initialize DRRIP state for LLC
Heartbeat CPU 0 instructions: 10000000 cycles: 2820282 heartbeat IPC: 3.54574 cumulative IPC: 3.54574 (Simulation time: 0 hr 0 min 40 sec) 
Heartbeat CPU 0 instructions: 20000000 cycles: 5639001 heartbeat IPC: 3.54771 cumulative IPC: 3.54673 (Simulation time: 0 hr 1 min 20 sec) 
Heartbeat CPU 0 instructions: 30000000 cycles: 8458394 heartbeat IPC: 3.54686 cumulative IPC: 3.54677 (Simulation time: 0 hr 1 min 58 sec) 
*** Reached end of trace for Core: 0 Repeating trace: traces/spec2k17/srv_22.champsimtrace.xz
Heartbeat CPU 0 instructions: 40000003 cycles: 11272262 heartbeat IPC: 3.55383 cumulative IPC: 3.54853 (Simulation time: 0 hr 2 min 36 sec) 
Heartbeat CPU 0 instructions: 50000001 cycles: 14088892 heartbeat IPC: 3.55034 cumulative IPC: 3.5489 (Simulation time: 0 hr 3 min 15 sec) 

Warmup complete CPU 0 instructions: 50000001 cycles: 14088892 (Simulation time: 0 hr 3 min 15 sec) 

Heartbeat CPU 0 instructions: 60000001 cycles: 45170214 heartbeat IPC: 0.321737 cumulative IPC: 0.321737 (Simulation time: 0 hr 4 min 15 sec) 
*** Reached end of trace for Core: 0 Repeating trace: traces/spec2k17/srv_22.champsimtrace.xz
Heartbeat CPU 0 instructions: 70000001 cycles: 75592371 heartbeat IPC: 0.328708 cumulative IPC: 0.325185 (Simulation time: 0 hr 5 min 8 sec) 
Heartbeat CPU 0 instructions: 80000001 cycles: 106586624 heartbeat IPC: 0.32264 cumulative IPC: 0.324332 (Simulation time: 0 hr 6 min 5 sec) 
Heartbeat CPU 0 instructions: 90000000 cycles: 136933852 heartbeat IPC: 0.329519 cumulative IPC: 0.325614 (Simulation time: 0 hr 7 min 2 sec) 
*** Reached end of trace for Core: 0 Repeating trace: traces/spec2k17/srv_22.champsimtrace.xz
Heartbeat CPU 0 instructions: 100000002 cycles: 167381433 heartbeat IPC: 0.328433 cumulative IPC: 0.326174 (Simulation time: 0 hr 7 min 59 sec) 
Heartbeat CPU 0 instructions: 110000000 cycles: 198142989 heartbeat IPC: 0.325081 cumulative IPC: 0.325991 (Simulation time: 0 hr 8 min 57 sec) 
Heartbeat CPU 0 instructions: 120000000 cycles: 228555381 heartbeat IPC: 0.328813 cumulative IPC: 0.326391 (Simulation time: 0 hr 9 min 57 sec) 
*** Reached end of trace for Core: 0 Repeating trace: traces/spec2k17/srv_22.champsimtrace.xz
Heartbeat CPU 0 instructions: 130000000 cycles: 259172576 heartbeat IPC: 0.326614 cumulative IPC: 0.326419 (Simulation time: 0 hr 10 min 47 sec) 
Heartbeat CPU 0 instructions: 140000002 cycles: 289916598 heartbeat IPC: 0.325267 cumulative IPC: 0.326291 (Simulation time: 0 hr 11 min 43 sec) 
Heartbeat CPU 0 instructions: 150000003 cycles: 320565697 heartbeat IPC: 0.326274 cumulative IPC: 0.326289 (Simulation time: 0 hr 12 min 46 sec) 
*** Reached end of trace for Core: 0 Repeating trace: traces/spec2k17/srv_22.champsimtrace.xz
Heartbeat CPU 0 instructions: 160000000 cycles: 351322722 heartbeat IPC: 0.325129 cumulative IPC: 0.326183 (Simulation time: 0 hr 13 min 39 sec) 
Heartbeat CPU 0 instructions: 170000001 cycles: 381550902 heartbeat IPC: 0.330817 cumulative IPC: 0.326564 (Simulation time: 0 hr 14 min 28 sec) 
Heartbeat CPU 0 instructions: 180000001 cycles: 412440802 heartbeat IPC: 0.32373 cumulative IPC: 0.326345 (Simulation time: 0 hr 15 min 32 sec) 
*** Reached end of trace for Core: 0 Repeating trace: traces/spec2k17/srv_22.champsimtrace.xz
Heartbeat CPU 0 instructions: 190000003 cycles: 442978284 heartbeat IPC: 0.327466 cumulative IPC: 0.326424 (Simulation time: 0 hr 16 min 24 sec) 
Heartbeat CPU 0 instructions: 200000001 cycles: 473337075 heartbeat IPC: 0.329394 cumulative IPC: 0.326621 (Simulation time: 0 hr 17 min 20 sec) 
Heartbeat CPU 0 instructions: 210000000 cycles: 504123593 heartbeat IPC: 0.324817 cumulative IPC: 0.326507 (Simulation time: 0 hr 18 min 20 sec) 
*** Reached end of trace for Core: 0 Repeating trace: traces/spec2k17/srv_22.champsimtrace.xz
Heartbeat CPU 0 instructions: 220000000 cycles: 534655743 heartbeat IPC: 0.327524 cumulative IPC: 0.326567 (Simulation time: 0 hr 19 min 18 sec) 
Heartbeat CPU 0 instructions: 230000001 cycles: 564685776 heartbeat IPC: 0.333 cumulative IPC: 0.326918 (Simulation time: 0 hr 20 min 14 sec) 
Heartbeat CPU 0 instructions: 240000001 cycles: 595538898 heartbeat IPC: 0.324116 cumulative IPC: 0.326769 (Simulation time: 0 hr 21 min 13 sec) 
*** Reached end of trace for Core: 0 Repeating trace: traces/spec2k17/srv_22.champsimtrace.xz
Heartbeat CPU 0 instructions: 250000001 cycles: 626094706 heartbeat IPC: 0.32727 cumulative IPC: 0.326794 (Simulation time: 0 hr 22 min 8 sec) 
Finished CPU 0 instructions: 200000000 cycles: 612005814 cumulative IPC: 0.326794 (Simulation time: 0 hr 22 min 8 sec) 

ChampSim completed all CPUs

Region of Interest Statistics

CPU 0 cumulative IPC: 0.326794 instructions: 200000000 cycles: 612005814
ITLB TOTAL     ACCESS:   34477760  HIT:   32621871  MISS:    1855889  HIT %:    94.6171  MISS %:    5.38286   MPKI: 9.27945
ITLB LOAD TRANSLATION ACCESS:   34477760  HIT:   32621871  MISS:    1855889  HIT %:    94.6171  MISS %:    5.38286   MPKI: 9.27945
ITLB PREFETCH  REQUESTED:          0  ISSUED:          0  USEFUL:          0  USELESS:          0
ITLB USEFUL LOAD PREFETCHES:          0 PREFETCH ISSUED TO LOWER LEVEL:          0  ACCURACY: -nan
ITLB TIMELY PREFETCHES:          0 LATE PREFETCHES: 0 DROPPED PREFETCHES: 0
ITLB PREFETCHES SAME FILL-ORIGIN LEVEL: 0 DIFFERENT FILL-ORIGIN LEVEL: 0
ITLB AVERAGE MISS LATENCY: 9.06151 cycles
ITLB RQ	ACCESS:   40304779	FORWARD:          0	MERGED:    5379214	TO_CACHE:   34925565

DTLB TOTAL     ACCESS:   45312871  HIT:   43518147  MISS:    1794724  HIT %:    96.0393  MISS %:    3.96074   MPKI: 8.97362
DTLB LOAD TRANSLATION ACCESS:   45312871  HIT:   43518147  MISS:    1794724  HIT %:    96.0393  MISS %:    3.96074   MPKI: 8.97362
DTLB PREFETCH  REQUESTED:          0  ISSUED:          0  USEFUL:          0  USELESS:          0
DTLB USEFUL LOAD PREFETCHES:          0 PREFETCH ISSUED TO LOWER LEVEL:          0  ACCURACY: -nan
DTLB TIMELY PREFETCHES:          0 LATE PREFETCHES: 0 DROPPED PREFETCHES: 0
DTLB PREFETCHES SAME FILL-ORIGIN LEVEL: 0 DIFFERENT FILL-ORIGIN LEVEL: 0
DTLB AVERAGE MISS LATENCY: 9.27512 cycles
DTLB RQ	ACCESS:   59833691	FORWARD:          0	MERGED:   14454691	TO_CACHE:   45379000

STLB TOTAL     ACCESS:    4188533  HIT:    4178699  MISS:       9834  HIT %:    99.7652  MISS %:   0.234784   MPKI: 0.04917
STLB LOAD TRANSLATION ACCESS:    3650613  HIT:    3640779  MISS:       9834  HIT %:    99.7306  MISS %:   0.269379   MPKI: 0.04917
STLB TRANSLATION FROM L1D PREFETCHER ACCESS:     537920  HIT:     537920  MISS:          0  HIT %:        100  MISS %:          0   MPKI: 0
STLB PREFETCH  REQUESTED:          0  ISSUED:          0  USEFUL:          0  USELESS:          0
STLB USEFUL LOAD PREFETCHES:          0 PREFETCH ISSUED TO LOWER LEVEL:          0  ACCURACY: -nan
STLB TIMELY PREFETCHES:          0 LATE PREFETCHES: 0 DROPPED PREFETCHES: 0
STLB PREFETCHES SAME FILL-ORIGIN LEVEL: 0 DIFFERENT FILL-ORIGIN LEVEL: 0
STLB AVERAGE MISS LATENCY: 59.2472 cycles
STLB RQ	ACCESS:    5610772	FORWARD:          0	MERGED:    1422239	TO_CACHE:    4188533

STLB Hit, L1D data hit: 0
STLB Hit, L2C data hit: 0
STLB Hit, LLC data hit: 0
STLB Hit, LLC data miss: 0
STLB STLB hints to L2: 0
L1D TOTAL     ACCESS:   59292035  HIT:   54364653  MISS:    4927382  HIT %:    91.6896  MISS %:    8.31036   MPKI: 24.6369
L1D LOAD      ACCESS:   33597995  HIT:   30829157  MISS:    2768838  HIT %:    91.7589  MISS %:    8.24108   MPKI: 13.8442
L1D RFO       ACCESS:   24497433  HIT:   23424968  MISS:    1072465  HIT %:    95.6221  MISS %:    4.37787   MPKI: 5.36233
L1D PREFETCH  ACCESS:    1196607  HIT:     110528  MISS:    1086079  HIT %:    9.23678  MISS %:    90.7632   MPKI: 5.43039
AGUS PREFETCH L1 MISS: 0
L1D PREFETCH  REQUESTED:    3926792  ISSUED:    3926792  USEFUL:     208152  USELESS:     877899
L1D USEFUL LOAD PREFETCHES:     208152 PREFETCH ISSUED TO LOWER LEVEL:    1832010  ACCURACY: 11.3619
L1D TIMELY PREFETCHES:     208152 LATE PREFETCHES: 34851 DROPPED PREFETCHES: 0
L1D PREFETCHES SAME FILL-ORIGIN LEVEL: 1121816 DIFFERENT FILL-ORIGIN LEVEL: 710194
L1D AVERAGE MISS LATENCY: 2.29453e+06 cycles
L1D RQ	ACCESS:   46886236	FORWARD:          0	MERGED:   12890105	TO_CACHE:   33696023
L1D WQ	ACCESS:   26309150	FORWARD:     300311	MERGED:     171482	TO_CACHE:   26137668
L1D PQ	ACCESS:    1966633	FORWARD:          0	MERGED:       6271	TO_CACHE:    1960159

L1D UNIQUE REGIONS ACCESSED: 0
L1D REGIONS CONFLICTS: 0
L1D Cross Page Prefetch Requests: 0
L1D Same Page Prefetch Requests: 2471991
L1D ROI Sum of L1D PQ occupancy: 27661131
L1D PREFETCHES PUSHED FROM L2C: 0
L1I TOTAL     ACCESS:   38876171  HIT:   29165913  MISS:    9710258  HIT %:    75.0226  MISS %:    24.9774   MPKI: 48.5513
L1I LOAD      ACCESS:   38876171  HIT:   29165913  MISS:    9710258  HIT %:    75.0226  MISS %:    24.9774   MPKI: 48.5513
L1I PREFETCH  REQUESTED:          0  ISSUED:          0  USEFUL:          0  USELESS:          0
L1I USEFUL LOAD PREFETCHES:          0 PREFETCH ISSUED TO LOWER LEVEL:          0  ACCURACY: -nan
L1I TIMELY PREFETCHES:          0 LATE PREFETCHES: 0 DROPPED PREFETCHES: 0
L1I PREFETCHES SAME FILL-ORIGIN LEVEL: 0 DIFFERENT FILL-ORIGIN LEVEL: 0
L1I AVERAGE MISS LATENCY: 17.9898 cycles
L1I RQ	ACCESS:   57839369	FORWARD:          0	MERGED:   17534590	TO_CACHE:   40304779

BTB TOTAL     ACCESS:   30330112  HIT:   18855293  MISS:   11474819  HIT %:    62.1669  MISS %:    37.8331   MPKI: 57.3741
BTB BRANCH_DIRECT_JUMP	ACCESS:    2183492  HIT:    1381264  MISS:     802228
BTB BRANCH_INDIRECT	ACCESS:   11409987  HIT:    7107186  MISS:    4302801
BTB BRANCH_CONDITIONAL	ACCESS:    8659441  HIT:    7498829  MISS:    1160612
BTB BRANCH_DIRECT_CALL	ACCESS:    3412328  HIT:    1528915  MISS:    1883413
BTB BRANCH_INDIRECT_CALL	ACCESS:     626274  HIT:     246325  MISS:     379949
BTB BRANCH_RETURN	ACCESS:    4038590  HIT:    1092774  MISS:    2945816
BTB BRANCH_OTHER ACCESS:          0  HIT:          0  MISS:          0

L2C TOTAL     ACCESS:   17248715  HIT:   14234232  MISS:    3014483  HIT %:    82.5234  MISS %:    17.4766   MPKI: 15.0724
L2C LOAD      ACCESS:   12444164  HIT:   10781894  MISS:    1662270  HIT %:    86.6422  MISS %:    13.3578   MPKI: 8.31135
L2C DATA LOAD MPKI: 2.10314
L2C INSTRUCTION LOAD MPKI: 6.20821
L2C RFO       ACCESS:    1071575  HIT:     836750  MISS:     234825  HIT %:     78.086  MISS %:     21.914   MPKI: 1.17413
L2C PREFETCH  ACCESS:    1813990  HIT:     766445  MISS:    1047545  HIT %:    42.2519  MISS %:    57.7481   MPKI: 5.23773
AGUS PREFETCH L1 MISS: 0
L2C DATA PREFETCH MPKI: 5.23773
L2C INSTRUCTION PREFETCH MPKI: 0
L2C WRITEBACK ACCESS:    1908200  HIT:    1847819  MISS:      60381  HIT %:    96.8357  MISS %:    3.16429   MPKI: 0.301905
L2C LOAD TRANSLATION ACCESS:      10786  HIT:       1324  MISS:       9462  HIT %:    12.2752  MISS %:    87.7248   MPKI: 0.04731
L2C PREFETCH  REQUESTED:          0  ISSUED:          0  USEFUL:      55427  USELESS:     991949
L2C USEFUL LOAD PREFETCHES:      55427 PREFETCH ISSUED TO LOWER LEVEL:    1051627  ACCURACY: 5.27059
L2C TIMELY PREFETCHES:      55427 LATE PREFETCHES: 4082 DROPPED PREFETCHES: 0
L2C PREFETCHES SAME FILL-ORIGIN LEVEL: 454311 DIFFERENT FILL-ORIGIN LEVEL: 0
L2C AVERAGE MISS LATENCY: 35.9367 cycles
L2C RQ	ACCESS:   13526609	FORWARD:          0	MERGED:          0	TO_CACHE:   13526524
L2C WQ	ACCESS:    1908200	FORWARD:        158	MERGED:          0	TO_CACHE:    1908200
L2C PQ	ACCESS:    1832010	FORWARD:          0	MERGED:        155	TO_CACHE:    1831782

L2C Instructions Evicting Data 613667
L2C Translations Evicting Data 6446
L2C Data Evicting Data 1110227
L2C Instructions Evicting Instructions 625042
L2C Translations Evicting Instructions 2921
L2C Data Evicting Instructions 586418
L2C Instructions Evicting Translations 2933
L2C Translations Evicting Translations 95
L2C Data Evicting Translations 6353
L2C Dense regions hint from L2: 0
PSCL5 TOTAL     ACCESS:       9834  HIT:       9834  MISS:          0  HIT %:        100  MISS %:          0   MPKI: 0
PSCL5 LOAD TRANSLATION ACCESS:       9834  HIT:       9834  MISS:          0  HIT %:        100  MISS %:          0   MPKI: 0
PSCL5 PREFETCH  REQUESTED:          0  ISSUED:          0  USEFUL:          0  USELESS:          0
PSCL5 USEFUL LOAD PREFETCHES:          0 PREFETCH ISSUED TO LOWER LEVEL:          0  ACCURACY: -nan
PSCL5 TIMELY PREFETCHES:          0 LATE PREFETCHES: 0 DROPPED PREFETCHES: 0
PSCL5 PREFETCHES SAME FILL-ORIGIN LEVEL: 0 DIFFERENT FILL-ORIGIN LEVEL: 0

PSCL4 TOTAL     ACCESS:       9781  HIT:       9751  MISS:         30  HIT %:    99.6933  MISS %:   0.306717   MPKI: 0.00015
PSCL4 LOAD TRANSLATION ACCESS:       9781  HIT:       9751  MISS:         30  HIT %:    99.6933  MISS %:   0.306717   MPKI: 0.00015
PSCL4 PREFETCH  REQUESTED:          0  ISSUED:          0  USEFUL:          0  USELESS:          0
PSCL4 USEFUL LOAD PREFETCHES:          0 PREFETCH ISSUED TO LOWER LEVEL:          0  ACCURACY: -nan
PSCL4 TIMELY PREFETCHES:          0 LATE PREFETCHES: 0 DROPPED PREFETCHES: 0
PSCL4 PREFETCHES SAME FILL-ORIGIN LEVEL: 0 DIFFERENT FILL-ORIGIN LEVEL: 0

PSCL3 TOTAL     ACCESS:       9817  HIT:       9787  MISS:         30  HIT %:    99.6944  MISS %:   0.305592   MPKI: 0.00015
PSCL3 LOAD TRANSLATION ACCESS:       9817  HIT:       9787  MISS:         30  HIT %:    99.6944  MISS %:   0.305592   MPKI: 0.00015
PSCL3 PREFETCH  REQUESTED:          0  ISSUED:          0  USEFUL:          0  USELESS:          0
PSCL3 USEFUL LOAD PREFETCHES:          0 PREFETCH ISSUED TO LOWER LEVEL:          0  ACCURACY: -nan
PSCL3 TIMELY PREFETCHES:          0 LATE PREFETCHES: 0 DROPPED PREFETCHES: 0
PSCL3 PREFETCHES SAME FILL-ORIGIN LEVEL: 0 DIFFERENT FILL-ORIGIN LEVEL: 0

PSCL2 TOTAL     ACCESS:       9834  HIT:       8942  MISS:        892  HIT %:    90.9294  MISS %:    9.07057   MPKI: 0.00446
PSCL2 LOAD TRANSLATION ACCESS:       9834  HIT:       8942  MISS:        892  HIT %:    90.9294  MISS %:    9.07057   MPKI: 0.00446
PSCL2 PREFETCH  REQUESTED:          0  ISSUED:          0  USEFUL:          0  USELESS:          0
PSCL2 USEFUL LOAD PREFETCHES:          0 PREFETCH ISSUED TO LOWER LEVEL:          0  ACCURACY: -nan
PSCL2 TIMELY PREFETCHES:          0 LATE PREFETCHES: 0 DROPPED PREFETCHES: 0
PSCL2 PREFETCHES SAME FILL-ORIGIN LEVEL: 0 DIFFERENT FILL-ORIGIN LEVEL: 0

LLC TOTAL     ACCESS:    3330250  HIT:    3199966  MISS:     130284  HIT %:    96.0879  MISS %:    3.91214   MPKI: 0.65142
LLC LOAD      ACCESS:    1658229  HIT:    1641439  MISS:      16790  HIT %:    98.9875  MISS %:    1.01253   MPKI: 0.08395
LLC RFO       ACCESS:     234774  HIT:     198847  MISS:      35927  HIT %:    84.6972  MISS %:    15.3028   MPKI: 0.179635
LLC PREFETCH  ACCESS:    1051627  HIT:     975320  MISS:      76307  HIT %:    92.7439  MISS %:    7.25609   MPKI: 0.381535
AGUS PREFETCH L1 MISS: 0
LLC WRITEBACK ACCESS:     376158  HIT:     375487  MISS:        671  HIT %:    99.8216  MISS %:   0.178382   MPKI: 0.003355
LLC LOAD TRANSLATION ACCESS:       9462  HIT:       8873  MISS:        589  HIT %:    93.7751  MISS %:     6.2249   MPKI: 0.002945
LLC PREFETCH  REQUESTED:          0  ISSUED:          0  USEFUL:       5506  USELESS:      70465
LLC USEFUL LOAD PREFETCHES:       5506 PREFETCH ISSUED TO LOWER LEVEL:      76307  ACCURACY: 7.21559
LLC TIMELY PREFETCHES:       5506 LATE PREFETCHES: 0 DROPPED PREFETCHES: 0
LLC PREFETCHES SAME FILL-ORIGIN LEVEL: 0 DIFFERENT FILL-ORIGIN LEVEL: 0
LLC AVERAGE MISS LATENCY: 151.381 cycles
LLC RQ	ACCESS:    1902474	FORWARD:          0	MERGED:          0	TO_CACHE:    1902464
LLC WQ	ACCESS:     376158	FORWARD:         10	MERGED:          0	TO_CACHE:     376158
LLC PQ	ACCESS:    1051627	FORWARD:          0	MERGED:          0	TO_CACHE:    1051627

LLC Dense regions hint to LLC: 0

RAW hits: 1402561
Loads Generated: 48288797
Loads sent to L1D: 46886236
Stores Generated: 26309147
Stores sent to L1D: 26309150
Major fault: 0 Minor fault: 1865
Allocated PAGES: 1865
=== CPU 0 L1D Prefetcher Statistics ===
[MLOP] History of tracked zone:
IIIIIIIIIIIIIIIIIIIIIIIIIIIIIIIIIIIIIIIIIIIIIIIIIIIIIIIIIIIIIIII
IIIIIIIIIIIIIIIIIIIIIIIIIIIIAIIIIIIIIIIIIIIIIIIIIIIIIIIIIIIIIIII
IIIIIIIIIIIIIIIIIIIIIIIIIIIIAIAIIIIIIIIIIIIIIIIIIIIIIIIIIIIIIIII
IIIIIIIIIIIIIIIIIIIIIIIIIIIIAIAAIIIIIIIIIIIIIIIIIIIIIIIIIIIIIIII
IIIIIIIIIIIIIIIIIIIIIIIIIIIIAAAAIIIIIIIIIIIIIIIIIIIIIIIIIIIIIIII
IIIIIIIIIIIIIIIIIIIIIIIIIIIIAAAAAIIIIIIIIIIIIIIIIIIIIIIIIIIIIIII
IIIIIIIIIIIIIIIIIIIIIIIIIIIIAAAAAIIIAIIIIIIIIIIIIIIIIIIIIIIIIIII
IIIIIIIIIIIIIIIIIIIIIIIIIIIIAAAAA2IIAIIIIIIIIIIIIIIIIIIIIIIIIIII
IIIIIIIIIIIIIIIIIIIIIIIIIIIIAAAAA2IIA2IIIIIIIIIIIIIIIIIIIIIIIIII
IIIIIIIIIIIIIIIIIIIIIIIIIIIIAAAAA2IIA2A2IIIIIIIIIIIIIIIIIIIIIIII
IIIIIIIIIIIIIIIIIIIIIIIIIIIIAAAAA2IIA2AA2IIIIIIIIIIIIIIIIIIIIIII
IIIIIIIIIIIIIIIIIIIIIIIIIIIIAAAAA2IIA2AA11111IIIIIIIIIIIIIIIIIII
IIIIIIIIIIIIIIIIIIIIIIIIIIIIAAAAA2IIA2AA11111111IIIIIIIIIIIIIIII
IIIIIIIIIIIIIIIIIIIIIIIIIIIIAAAAA2IIA2AA111111111122IIIIIIIIIIII
IIIIIIIIIIIIIIIIIIIIIIIIIIIIAAAAA2IIAAAA111111111122IIIIIIIIIIII
IIIIIIIIIIIIIIIIIIIIIIIIIIIIAAAAA2IIAAAA1111111111122IIIIIIIIIII
IIIIIIIIIIIIIIIIIIIIIIIIIIIIAAAAA2IIAAAA1111A1111111111122IIIIII
IIIIIIIIIIIIIIIIIIIIIIIIA111AAAAA111AAAA1111A1111111111122IIIIII
IIIIIIIIIIIIIIIIIIIIIIIIA1A1AAAAA111AAAA1111A1111111111122IIIIII
IIIIIIIIIIIIIIIIIIIIIIIIA1AAAAAAA111AAAA1111A1111111111122IIIIII
IIIIIIIIIIIIIIIIIIIIIIIIAAAAAAAAA111AAAA1111A1111111111122IIIIII
IIIIIIIIIIIIIIIIIIIIIIIIAAAAAAAAA111AAAAA111A1111111111122IIIIII
IIIIIIIIIIIIIIIIIIIIIIIIAAAAAAAAA111AAAAA1A1A1111111111122IIIIII
IIIIIIIIIIIIIIIIIIIIIIIIAAAAAAAAA111AAAAA1AAA1111111111122IIIIII
IIIIIIIIIIIIIIIIIIIIIIIIAAAAAAAAA111AAAAAAAAA1111111111122IIIIII
IIIIIIIIIIIIIIIIIIIIIIIIAAAAAAAAA111AAAAAAAAA111111111112222IIII
IIIIIIIIIIIIIIIIIIIIIIIIAAAAAAAAA111AAAAAAAAA111111111111222IIII
IIIIIIIIIIIIIIIIIIIIIIIIAAAAAAAAA111AAAAAAAAA111111111111222I2II
IIIIIIIIIIIIIIIIIIIIIIIIAAAAAAAAA111AAAAAAAAA11111111111122222II
IIIIIIIIIIIIIIIIIIIIIIIIAAAAAAAAA111AAAAAAAAA11111111111112222II
IIIIIIIIIIIIIIIIIIIIIIIIAAAAAAAAA111AAAAAAAAA111111111111121211I
IIIIIIIIIIIIIIIIIIIIIIIIAAAAAAAAA111AAAAAAAAA111111111111111211I
IIIIIIIIIIIIIIIIIIIIIIIIAAAAAAAAA111AAAAAAAAA111111111111111111I
[MLOP] Prefetch Degree Mean: 5.13472
[MLOP] Prefetch Degree SD: 4.57562
[MLOP] Max Score Left Mean (%): 16.6782
[MLOP] Max Score Left SD (%): 12.7215
[MLOP] Max Score Right Mean (%): 50.3537
[MLOP] Max Score Right SD (%): 13.8032

DRAM Statistics
 CHANNEL 0
 RQ ROW_BUFFER_HIT:      50781  ROW_BUFFER_MISS:      78779
 DBUS_CONGESTED:         79
 WQ ROW_BUFFER_HIT:       3609  ROW_BUFFER_MISS:      44137  FULL:          0

 AVG_CONGESTED_CYCLE: 5
 All warmup complete: 2
Channel 0 Bank busy for read cycles: 0
Channel 0 Bank busy for write cycles: 0
Channel 0
Rank 0
0banks busy for read cycles: 602922239
0banks busy for write cycles: 15418
1banks busy for read cycles: 3099174
1banks busy for write cycles: 1675444
2banks busy for read cycles: 848662
2banks busy for write cycles: 498978
3banks busy for read cycles: 501265
3banks busy for write cycles: 290932
4banks busy for read cycles: 371841
4banks busy for write cycles: 210060
5banks busy for read cycles: 313428
5banks busy for write cycles: 168191
6banks busy for read cycles: 264542
6banks busy for write cycles: 127266
7banks busy for read cycles: 227947
7banks busy for write cycles: 97148
8banks busy for read cycles: 233265
8banks busy for write cycles: 140015

CPU 0 Branch Prediction Accuracy: 99.8462% MPKI: 0.271815 Average ROB Occupancy at Mispredict: 56.4632
Branch types
NOT_BRANCH: 164663064 82.3315%
BRANCH_DIRECT_JUMP: 2183492 1.09175%
BRANCH_INDIRECT: 11409987 5.70499%
BRANCH_CONDITIONAL: 13666237 6.83312%
BRANCH_DIRECT_CALL: 3412328 1.70616%
BRANCH_INDIRECT_CALL: 626274 0.313137%
BRANCH_RETURN: 4038590 2.0193%
BRANCH_OTHER: 0 0%

DRAM PAGES: 1048576
Allocated PAGES: 1865
