
*** ChampSim Multicore Out-of-Order Simulator ***

Warmup Instructions: 50000000
Simulation Instructions: 200000000
Number of CPUs: 1
LLC sets: 2048
LLC ways: 16
Off-chip DRAM Size: 4096 MB Channels: 1 Width: 64-bit Data Rate: 6400 MT/s
CPU 0 runs traces/spec2k17/srv_34.champsimtrace.xz
.xz
BTB has LRU replacement policy
ITLB has LRU replacement policy
DTLB has LRU replacement policy
STLB has LRU replacement policy
L1I has LRU replacement policy
L1D has LRU replacement policy
Initialize SRRIP state for L2C
Initialize DRRIP state for LLC
Heartbeat CPU 0 instructions: 10000001 cycles: 2939810 heartbeat IPC: 3.40158 cumulative IPC: 3.40158 (Simulation time: 0 hr 0 min 42 sec) 
Heartbeat CPU 0 instructions: 20000002 cycles: 5885114 heartbeat IPC: 3.39524 cumulative IPC: 3.39841 (Simulation time: 0 hr 1 min 29 sec) 
Heartbeat CPU 0 instructions: 30000001 cycles: 8821485 heartbeat IPC: 3.40556 cumulative IPC: 3.40079 (Simulation time: 0 hr 2 min 16 sec) 
*** Reached end of trace for Core: 0 Repeating trace: traces/spec2k17/srv_34.champsimtrace.xz
Heartbeat CPU 0 instructions: 40000001 cycles: 11761668 heartbeat IPC: 3.40115 cumulative IPC: 3.40088 (Simulation time: 0 hr 2 min 55 sec) 
Heartbeat CPU 0 instructions: 50000003 cycles: 14705207 heartbeat IPC: 3.39727 cumulative IPC: 3.40016 (Simulation time: 0 hr 3 min 40 sec) 

Warmup complete CPU 0 instructions: 50000003 cycles: 14705207 (Simulation time: 0 hr 3 min 40 sec) 

Heartbeat CPU 0 instructions: 60000001 cycles: 33196678 heartbeat IPC: 0.54079 cumulative IPC: 0.54079 (Simulation time: 0 hr 4 min 50 sec) 
*** Reached end of trace for Core: 0 Repeating trace: traces/spec2k17/srv_34.champsimtrace.xz
Heartbeat CPU 0 instructions: 70000001 cycles: 51557604 heartbeat IPC: 0.544635 cumulative IPC: 0.542705 (Simulation time: 0 hr 6 min 2 sec) 
Heartbeat CPU 0 instructions: 80000003 cycles: 70087251 heartbeat IPC: 0.539676 cumulative IPC: 0.541692 (Simulation time: 0 hr 7 min 0 sec) 
Heartbeat CPU 0 instructions: 90000002 cycles: 88533722 heartbeat IPC: 0.542109 cumulative IPC: 0.541796 (Simulation time: 0 hr 8 min 12 sec) 
*** Reached end of trace for Core: 0 Repeating trace: traces/spec2k17/srv_34.champsimtrace.xz
Heartbeat CPU 0 instructions: 100000000 cycles: 106886600 heartbeat IPC: 0.544874 cumulative IPC: 0.542409 (Simulation time: 0 hr 9 min 12 sec) 
Heartbeat CPU 0 instructions: 110000000 cycles: 125406076 heartbeat IPC: 0.539972 cumulative IPC: 0.542001 (Simulation time: 0 hr 10 min 22 sec) 
Heartbeat CPU 0 instructions: 120000000 cycles: 143814317 heartbeat IPC: 0.543235 cumulative IPC: 0.542177 (Simulation time: 0 hr 11 min 24 sec) 
*** Reached end of trace for Core: 0 Repeating trace: traces/spec2k17/srv_34.champsimtrace.xz
Heartbeat CPU 0 instructions: 130000002 cycles: 162224709 heartbeat IPC: 0.543172 cumulative IPC: 0.542301 (Simulation time: 0 hr 12 min 36 sec) 
Heartbeat CPU 0 instructions: 140000001 cycles: 180677700 heartbeat IPC: 0.541918 cumulative IPC: 0.542259 (Simulation time: 0 hr 13 min 30 sec) 
Heartbeat CPU 0 instructions: 150000001 cycles: 199112708 heartbeat IPC: 0.542446 cumulative IPC: 0.542277 (Simulation time: 0 hr 14 min 34 sec) 
Heartbeat CPU 0 instructions: 160000000 cycles: 217543855 heartbeat IPC: 0.54256 cumulative IPC: 0.542303 (Simulation time: 0 hr 15 min 38 sec) 
*** Reached end of trace for Core: 0 Repeating trace: traces/spec2k17/srv_34.champsimtrace.xz
Heartbeat CPU 0 instructions: 170000000 cycles: 235948554 heartbeat IPC: 0.543339 cumulative IPC: 0.542389 (Simulation time: 0 hr 16 min 49 sec) 
Heartbeat CPU 0 instructions: 180000003 cycles: 254484263 heartbeat IPC: 0.539499 cumulative IPC: 0.542166 (Simulation time: 0 hr 17 min 55 sec) 
Heartbeat CPU 0 instructions: 190000000 cycles: 272904677 heartbeat IPC: 0.542876 cumulative IPC: 0.542216 (Simulation time: 0 hr 19 min 7 sec) 
*** Reached end of trace for Core: 0 Repeating trace: traces/spec2k17/srv_34.champsimtrace.xz
Heartbeat CPU 0 instructions: 200000000 cycles: 291266507 heartbeat IPC: 0.544608 cumulative IPC: 0.542375 (Simulation time: 0 hr 20 min 14 sec) 
Heartbeat CPU 0 instructions: 210000000 cycles: 309803803 heartbeat IPC: 0.539453 cumulative IPC: 0.542192 (Simulation time: 0 hr 21 min 26 sec) 
Heartbeat CPU 0 instructions: 220000000 cycles: 328126106 heartbeat IPC: 0.545783 cumulative IPC: 0.542402 (Simulation time: 0 hr 22 min 37 sec) 
*** Reached end of trace for Core: 0 Repeating trace: traces/spec2k17/srv_34.champsimtrace.xz
Heartbeat CPU 0 instructions: 230000003 cycles: 346527885 heartbeat IPC: 0.543426 cumulative IPC: 0.542458 (Simulation time: 0 hr 23 min 42 sec) 
Heartbeat CPU 0 instructions: 240000000 cycles: 365037370 heartbeat IPC: 0.540263 cumulative IPC: 0.542342 (Simulation time: 0 hr 24 min 52 sec) 
Heartbeat CPU 0 instructions: 250000001 cycles: 383468857 heartbeat IPC: 0.54255 cumulative IPC: 0.542353 (Simulation time: 0 hr 25 min 53 sec) 
Finished CPU 0 instructions: 200000000 cycles: 368763651 cumulative IPC: 0.542353 (Simulation time: 0 hr 25 min 53 sec) 

ChampSim completed all CPUs

Region of Interest Statistics

CPU 0 cumulative IPC: 0.542353 instructions: 200000000 cycles: 368763651
ITLB TOTAL     ACCESS:   33737745  HIT:   32195590  MISS:    1542155  HIT %:     95.429  MISS %:    4.57101   MPKI: 7.71077
ITLB LOAD TRANSLATION ACCESS:   33737745  HIT:   32195590  MISS:    1542155  HIT %:     95.429  MISS %:    4.57101   MPKI: 7.71077
ITLB PREFETCH  REQUESTED:          0  ISSUED:          0  USEFUL:          0  USELESS:          0
ITLB USEFUL LOAD PREFETCHES:          0 PREFETCH ISSUED TO LOWER LEVEL:          0  ACCURACY: -nan
ITLB TIMELY PREFETCHES:          0 LATE PREFETCHES: 0 DROPPED PREFETCHES: 0
ITLB PREFETCHES SAME FILL-ORIGIN LEVEL: 0 DIFFERENT FILL-ORIGIN LEVEL: 0
ITLB AVERAGE MISS LATENCY: 9.21588 cycles
ITLB RQ	ACCESS:   40655573	FORWARD:          0	MERGED:    6422570	TO_CACHE:   34233003

DTLB TOTAL     ACCESS:   40431508  HIT:   38921705  MISS:    1509803  HIT %:    96.2658  MISS %:    3.73422   MPKI: 7.54901
DTLB LOAD TRANSLATION ACCESS:   40431508  HIT:   38921705  MISS:    1509803  HIT %:    96.2658  MISS %:    3.73422   MPKI: 7.54901
DTLB PREFETCH  REQUESTED:          0  ISSUED:          0  USEFUL:          0  USELESS:          0
DTLB USEFUL LOAD PREFETCHES:          0 PREFETCH ISSUED TO LOWER LEVEL:          0  ACCURACY: -nan
DTLB TIMELY PREFETCHES:          0 LATE PREFETCHES: 0 DROPPED PREFETCHES: 0
DTLB PREFETCHES SAME FILL-ORIGIN LEVEL: 0 DIFFERENT FILL-ORIGIN LEVEL: 0
DTLB AVERAGE MISS LATENCY: 15.2691 cycles
DTLB RQ	ACCESS:   61383303	FORWARD:          0	MERGED:   20544748	TO_CACHE:   40838555

STLB TOTAL     ACCESS:    4772074  HIT:    4695833  MISS:      76241  HIT %:    98.4024  MISS %:    1.59765   MPKI: 0.381205
STLB LOAD TRANSLATION ACCESS:    3051958  HIT:    2975717  MISS:      76241  HIT %:    97.5019  MISS %:     2.4981   MPKI: 0.381205
STLB TRANSLATION FROM L1D PREFETCHER ACCESS:    1720116  HIT:    1720116  MISS:          0  HIT %:        100  MISS %:          0   MPKI: 0
STLB PREFETCH  REQUESTED:          0  ISSUED:          0  USEFUL:          0  USELESS:          0
STLB USEFUL LOAD PREFETCHES:          0 PREFETCH ISSUED TO LOWER LEVEL:          0  ACCURACY: -nan
STLB TIMELY PREFETCHES:          0 LATE PREFETCHES: 0 DROPPED PREFETCHES: 0
STLB PREFETCHES SAME FILL-ORIGIN LEVEL: 0 DIFFERENT FILL-ORIGIN LEVEL: 0
STLB AVERAGE MISS LATENCY: 128.205 cycles
STLB RQ	ACCESS:    7783411	FORWARD:          0	MERGED:    3011336	TO_CACHE:    4772075

STLB Hit, L1D data hit: 0
STLB Hit, L2C data hit: 0
STLB Hit, LLC data hit: 0
STLB Hit, LLC data miss: 0
STLB STLB hints to L2: 0
L1D TOTAL     ACCESS:   53271818  HIT:   44779305  MISS:    8492513  HIT %:    84.0582  MISS %:    15.9418   MPKI: 42.4626
L1D LOAD      ACCESS:   27100057  HIT:   24750025  MISS:    2350032  HIT %:    91.3283  MISS %:    8.67169   MPKI: 11.7502
L1D RFO       ACCESS:   22551327  HIT:   18978268  MISS:    3573059  HIT %:    84.1559  MISS %:    15.8441   MPKI: 17.8653
L1D PREFETCH  ACCESS:    3620434  HIT:    1051012  MISS:    2569422  HIT %:      29.03  MISS %:      70.97   MPKI: 12.8471
AGUS PREFETCH L1 MISS: 0
L1D PREFETCH  REQUESTED:    9477196  ISSUED:    9477196  USEFUL:     988802  USELESS:    1580684
L1D USEFUL LOAD PREFETCHES:     988802 PREFETCH ISSUED TO LOWER LEVEL:    3539195  ACCURACY: 27.9386
L1D TIMELY PREFETCHES:     988802 LATE PREFETCHES: 342952 DROPPED PREFETCHES: 0
L1D PREFETCHES SAME FILL-ORIGIN LEVEL: 2913868 DIFFERENT FILL-ORIGIN LEVEL: 625327
L1D AVERAGE MISS LATENCY: 8.07931e+06 cycles
L1D RQ	ACCESS:   45418397	FORWARD:          0	MERGED:   17756951	TO_CACHE:   27401776
L1D WQ	ACCESS:   34174261	FORWARD:     259695	MERGED:     192734	TO_CACHE:   33981527
L1D PQ	ACCESS:    4745743	FORWARD:          0	MERGED:      14265	TO_CACHE:    4731453

L1D UNIQUE REGIONS ACCESSED: 0
L1D REGIONS CONFLICTS: 0
L1D Cross Page Prefetch Requests: 0
L1D Same Page Prefetch Requests: 5904967
L1D ROI Sum of L1D PQ occupancy: 67433048
L1D PREFETCHES PUSHED FROM L2C: 0
L1I TOTAL     ACCESS:   37985056  HIT:   28855365  MISS:    9129691  HIT %:     75.965  MISS %:     24.035   MPKI: 45.6485
L1I LOAD      ACCESS:   37985056  HIT:   28855365  MISS:    9129691  HIT %:     75.965  MISS %:     24.035   MPKI: 45.6485
L1I PREFETCH  REQUESTED:          0  ISSUED:          0  USEFUL:          0  USELESS:          0
L1I USEFUL LOAD PREFETCHES:          0 PREFETCH ISSUED TO LOWER LEVEL:          0  ACCURACY: -nan
L1I TIMELY PREFETCHES:          0 LATE PREFETCHES: 0 DROPPED PREFETCHES: 0
L1I PREFETCHES SAME FILL-ORIGIN LEVEL: 0 DIFFERENT FILL-ORIGIN LEVEL: 0
L1I AVERAGE MISS LATENCY: 16.7349 cycles
L1I RQ	ACCESS:   58854585	FORWARD:          0	MERGED:   18199012	TO_CACHE:   40655573

BTB TOTAL     ACCESS:   25683983  HIT:   24137267  MISS:    1546716  HIT %:    93.9779  MISS %:     6.0221   MPKI: 7.73358
BTB BRANCH_DIRECT_JUMP	ACCESS:    1661224  HIT:    1651564  MISS:       9660
BTB BRANCH_INDIRECT	ACCESS:    9989440  HIT:    9473851  MISS:     515589
BTB BRANCH_CONDITIONAL	ACCESS:    7185443  HIT:    7172058  MISS:      13385
BTB BRANCH_DIRECT_CALL	ACCESS:    2827619  HIT:    2794301  MISS:      33318
BTB BRANCH_INDIRECT_CALL	ACCESS:     596257  HIT:     484762  MISS:     111495
BTB BRANCH_RETURN	ACCESS:    3424000  HIT:    2560731  MISS:     863269
BTB BRANCH_OTHER ACCESS:          0  HIT:          0  MISS:          0

L2C TOTAL     ACCESS:   22599438  HIT:   14134072  MISS:    8465366  HIT %:    62.5417  MISS %:    37.4583   MPKI: 42.3268
L2C LOAD      ACCESS:   11136131  HIT:    9428733  MISS:    1707398  HIT %:    84.6679  MISS %:    15.3321   MPKI: 8.53699
L2C DATA LOAD MPKI: 5.42031
L2C INSTRUCTION LOAD MPKI: 3.11668
L2C RFO       ACCESS:    3571535  HIT:     135720  MISS:    3435815  HIT %:    3.80005  MISS %:       96.2   MPKI: 17.1791
L2C PREFETCH  ACCESS:    3429419  HIT:     250284  MISS:    3179135  HIT %:    7.29815  MISS %:    92.7019   MPKI: 15.8957
AGUS PREFETCH L1 MISS: 0
L2C DATA PREFETCH MPKI: 15.8957
L2C INSTRUCTION PREFETCH MPKI: 0
L2C WRITEBACK ACCESS:    4376010  HIT:    4273792  MISS:     102218  HIT %:    97.6641  MISS %:    2.33587   MPKI: 0.51109
L2C LOAD TRANSLATION ACCESS:      86343  HIT:      45543  MISS:      40800  HIT %:    52.7466  MISS %:    47.2534   MPKI: 0.204
L2C PREFETCH  REQUESTED:          0  ISSUED:          0  USEFUL:     212229  USELESS:    2967026
L2C USEFUL LOAD PREFETCHES:     212229 PREFETCH ISSUED TO LOWER LEVEL:    3206432  ACCURACY: 6.61885
L2C TIMELY PREFETCHES:     212229 LATE PREFETCHES: 27297 DROPPED PREFETCHES: 0
L2C PREFETCHES SAME FILL-ORIGIN LEVEL: 597360 DIFFERENT FILL-ORIGIN LEVEL: 0
L2C AVERAGE MISS LATENCY: 143.949 cycles
L2C RQ	ACCESS:   14794686	FORWARD:          0	MERGED:          0	TO_CACHE:   14794015
L2C WQ	ACCESS:    4376011	FORWARD:        671	MERGED:          0	TO_CACHE:    4376011
L2C PQ	ACCESS:    3539195	FORWARD:          0	MERGED:        730	TO_CACHE:    3538465

L2C Instructions Evicting Data 579983
L2C Translations Evicting Data 37503
L2C Data Evicting Data 7092005
L2C Instructions Evicting Instructions 39958
L2C Translations Evicting Instructions 3180
L2C Data Evicting Instructions 570067
L2C Instructions Evicting Translations 3395
L2C Translations Evicting Translations 117
L2C Data Evicting Translations 36940
L2C Dense regions hint from L2: 0
PSCL5 TOTAL     ACCESS:      76241  HIT:      76241  MISS:          0  HIT %:        100  MISS %:          0   MPKI: 0
PSCL5 LOAD TRANSLATION ACCESS:      76241  HIT:      76241  MISS:          0  HIT %:        100  MISS %:          0   MPKI: 0
PSCL5 PREFETCH  REQUESTED:          0  ISSUED:          0  USEFUL:          0  USELESS:          0
PSCL5 USEFUL LOAD PREFETCHES:          0 PREFETCH ISSUED TO LOWER LEVEL:          0  ACCURACY: -nan
PSCL5 TIMELY PREFETCHES:          0 LATE PREFETCHES: 0 DROPPED PREFETCHES: 0
PSCL5 PREFETCHES SAME FILL-ORIGIN LEVEL: 0 DIFFERENT FILL-ORIGIN LEVEL: 0

PSCL4 TOTAL     ACCESS:      65588  HIT:      65481  MISS:        107  HIT %:    99.8369  MISS %:    0.16314   MPKI: 0.000535
PSCL4 LOAD TRANSLATION ACCESS:      65588  HIT:      65481  MISS:        107  HIT %:    99.8369  MISS %:    0.16314   MPKI: 0.000535
PSCL4 PREFETCH  REQUESTED:          0  ISSUED:          0  USEFUL:          0  USELESS:          0
PSCL4 USEFUL LOAD PREFETCHES:          0 PREFETCH ISSUED TO LOWER LEVEL:          0  ACCURACY: -nan
PSCL4 TIMELY PREFETCHES:          0 LATE PREFETCHES: 0 DROPPED PREFETCHES: 0
PSCL4 PREFETCHES SAME FILL-ORIGIN LEVEL: 0 DIFFERENT FILL-ORIGIN LEVEL: 0

PSCL3 TOTAL     ACCESS:      76162  HIT:      75946  MISS:        216  HIT %:    99.7164  MISS %:   0.283606   MPKI: 0.00108
PSCL3 LOAD TRANSLATION ACCESS:      76162  HIT:      75946  MISS:        216  HIT %:    99.7164  MISS %:   0.283606   MPKI: 0.00108
PSCL3 PREFETCH  REQUESTED:          0  ISSUED:          0  USEFUL:          0  USELESS:          0
PSCL3 USEFUL LOAD PREFETCHES:          0 PREFETCH ISSUED TO LOWER LEVEL:          0  ACCURACY: -nan
PSCL3 TIMELY PREFETCHES:          0 LATE PREFETCHES: 0 DROPPED PREFETCHES: 0
PSCL3 PREFETCHES SAME FILL-ORIGIN LEVEL: 0 DIFFERENT FILL-ORIGIN LEVEL: 0

PSCL2 TOTAL     ACCESS:      76241  HIT:      66462  MISS:       9779  HIT %:    87.1736  MISS %:    12.8264   MPKI: 0.048895
PSCL2 LOAD TRANSLATION ACCESS:      76241  HIT:      66462  MISS:       9779  HIT %:    87.1736  MISS %:    12.8264   MPKI: 0.048895
PSCL2 PREFETCH  REQUESTED:          0  ISSUED:          0  USEFUL:          0  USELESS:          0
PSCL2 USEFUL LOAD PREFETCHES:          0 PREFETCH ISSUED TO LOWER LEVEL:          0  ACCURACY: -nan
PSCL2 TIMELY PREFETCHES:          0 LATE PREFETCHES: 0 DROPPED PREFETCHES: 0
PSCL2 PREFETCHES SAME FILL-ORIGIN LEVEL: 0 DIFFERENT FILL-ORIGIN LEVEL: 0

LLC TOTAL     ACCESS:   12461731  HIT:    5122841  MISS:    7338890  HIT %:    41.1086  MISS %:    58.8914   MPKI: 36.6945
LLC LOAD      ACCESS:    1680873  HIT:    1427503  MISS:     253370  HIT %:    84.9263  MISS %:    15.0737   MPKI: 1.26685
LLC RFO       ACCESS:    3435030  HIT:     810500  MISS:    2624530  HIT %:    23.5951  MISS %:    76.4049   MPKI: 13.1227
LLC PREFETCH  ACCESS:    3206432  HIT:    1391775  MISS:    1814657  HIT %:    43.4057  MISS %:    56.5943   MPKI: 9.07329
AGUS PREFETCH L1 MISS: 0
LLC WRITEBACK ACCESS:    4098596  HIT:    1484347  MISS:    2614249  HIT %:     36.216  MISS %:     63.784   MPKI: 13.0712
LLC LOAD TRANSLATION ACCESS:      40800  HIT:       8716  MISS:      32084  HIT %:    21.3627  MISS %:    78.6373   MPKI: 0.16042
LLC PREFETCH  REQUESTED:          0  ISSUED:          0  USEFUL:       5215  USELESS:    1808997
LLC USEFUL LOAD PREFETCHES:       5215 PREFETCH ISSUED TO LOWER LEVEL:    1814657  ACCURACY: 0.287382
LLC TIMELY PREFETCHES:       5215 LATE PREFETCHES: 0 DROPPED PREFETCHES: 0
LLC PREFETCHES SAME FILL-ORIGIN LEVEL: 0 DIFFERENT FILL-ORIGIN LEVEL: 0
LLC AVERAGE MISS LATENCY: 132.01 cycles
LLC RQ	ACCESS:    5156721	FORWARD:          0	MERGED:          0	TO_CACHE:    5156708
LLC WQ	ACCESS:    4098597	FORWARD:         13	MERGED:          0	TO_CACHE:    4098597
LLC PQ	ACCESS:    3206432	FORWARD:          0	MERGED:          0	TO_CACHE:    3206432

LLC Dense regions hint to LLC: 0

RAW hits: 2326644
Loads Generated: 47745046
Loads sent to L1D: 45418397
Stores Generated: 34174248
Stores sent to L1D: 34174261
Major fault: 0 Minor fault: 8817
Allocated PAGES: 8817
=== CPU 0 L1D Prefetcher Statistics ===
[MLOP] History of tracked zone:
IIIIIIIIIIIIIIIIIIIIIIIIIIIIIIIIIIIIIIIIIIIIIIIIIIIIIIIIIIIIIIII
IIIIIIIIIIIIIIIIIIIIIIIIIIIIIIIIIIAIIIIIIIIIIIIIIIIIIIIIIIIIIIII
IIIIIIIIIIIIIIIIIIIIIIIIIIIIIIIIIIAIAIIIIIIIIIIIIIIIIIIIIIIIIIII
IIIIIIIIIIIIIIIIIIIIIIIIIIIIIIIIIIAIAIIIIIIIIAIIIIIIIIIIIIIIIIII
IIIIIIIIIIIIIIIIIIIIIIIIIIIIIIIIIIAIAIIIIIIIIAIIIIIIIAIIIIIIIIII
IIIIIIIIIIIIIIIIIIIIIIIIIIIIIIIIIIAIAIIIIIIIIAIIIIIIIAIIIIIAIIII
IIIIIIIIIIIIIIIIIIIIIIIIIIIIIIIIIIAIAIIIIIIIIAIIIIIIIAIAIIIAIIII
IIIIIIIIIIIIIIIIIIIIIIIIIIIIIIIIIIAIAIIAIIIIIAIIIIIIIAIAIIIAIIII
IIIIIIIIIIIIIIIIIIIIIIIIIIIIIIIIIIAIAIIAIIIIIAIIIIIIIAIAIAIAIIII
IIIIIIIIIIIIIIIIIIIIIIIIIIIIIIIIIIAIAIIAIIIIIAIIIIIIIAIAIAAAIIII
IIIIIIIIIIIIIIIIIIIIIIIIIIIIIIIIIIAIAIIAIIIIIAIIIIIIIAIAAAAAIIII
IIIIIIIIIIIIIIIIIIIIIIIIIIIIIIIIIIAIAIIAIIIAIAIIIIIIIAIAAAAAIIII
IIIIIIIIIIIIIIIIIIIIIIIIIIIIIIIIIIAAAIIAIIIAIAIIIIIIIAIAAAAAIIII
IIIIIIIIIIIIIIIIIIIIIIIIIIIIIIIIIIAAAIAAIIIAIAIIIIIIIAIAAAAAIIII
IIIIIIIIIIIIIIIIIIIIIIIIIIIIIIIIIIAAAIAAIIIAIAIIIIAIIAIAAAAAIIII
IIIIIIIIIIIIIIIIIIIIIIIIIIIIIIIIIIAAAIAAIAIAIAIIIIAIIAIAAAAAIIII
IIIIIIIIIIIIIIIIIIIIIIIIIIIIIIIIIIAAAIAAIAAAIAIIIIAIIAIAAAAAIIII
IIIIIIIIIIIIIIIIIIIIIIIIIIIIIIIIIIAAAAAAIAAAIAIIIIAIIAIAAAAAIIII
IIIIIIIIIIIIIIIIIIIIIIIIIIIIIIIIIIAAAAAAIAAAIAIIIIAIIAIAAAAAIAII
IIIIIIIIIIIIIIIIIIIIIIIIIIIIIIIIIIAAAAAAIAAAIAIIIIAIIAAAAAAAIAII
IIIIIIIIIIIIIIIIIIIIIIIIIIIIIIIIIIAAAAAAIAAAIAIIIIAAIAAAAAAAIAII
IIIIIIIIIIIIIIIIIIIIIIIIIIIIIIIIIIAAAAAAIAAAIAIIIIAAAAAAAAAAIAII
IIIIIIIIIIIIIIIIIIIIIIIIIIIIIIIIIIAAAAAAIAAAIAIAIIAAAAAAAAAAIAII
IIIIIIIIIIIIIIIIIIIIIIIIIIIIIIIIIIAAAAAAAAAAIAIAIIAAAAAAAAAAIAII
IIIIAIIIIIIIIIIIIIIIIIIIIIIIIIIIIIAAAAAAAAAAIAIAIIAAAAAAAAAAIAII
IIIIAIAIIIIIIIIIIIIIIIIIIIIIIIIIIIAAAAAAAAAAIAIAIIAAAAAAAAAAIAII
IIIIAIAIIIIIIIIAIIIIIIIIIIIIIIIIIIAAAAAAAAAAIAIAIIAAAAAAAAAAIAII
IIIIAIAIAIIIIIIAIIIIIIIIIIIIIIIIIIAAAAAAAAAAIAIAIIAAAAAAAAAAIAII
IIIIAIAIAIIIIIIAIIIIIIIAIIIIIIIIIIAAAAAAAAAAIAIAIIAAAAAAAAAAIAII
IIIIAIAIAIIIIIIAIIIIIIIAIAIIIIIIIIAAAAAAAAAAIAIAIIAAAAAAAAAAIAII
IIIIAIAIAIIIIIIAIIIIIIIAIAIIAIIIIIAAAAAAAAAAIAIAIIAAAAAAAAAAIAII
IIIIAIAIAIIIIIIAIIIIIIIAAAIIAIIIIIAAAAAAAAAAIAIAIIAAAAAAAAAAIAII
IIIIAIAAAIIIIIIAIIIIIIIAAAIIAIIIIIAAAAAAAAAAIAIAIIAAAAAAAAAAIAII
IIIIAIAAAIIIIIIAIIIIIAIAAAIIAIIIIIAAAAAAAAAAIAIAIIAAAAAAAAAAIAII
IIIIAIAAAIIIIIIAIIIIIAIAAAIIAIIIAIAAAAAAAAAAIAIAIIAAAAAAAAAAIAII
IIIIAIAAAIIIIIIAIIIIIAIAAAIAAIIIAIAAAAAAAAAAIAIAIIAAAAAAAAAAIAII
IIIIAIAAAIIIIIIAIIIIIAIAAAIAAAIIAIAAAAAAAAAAIAIAIIAAAAAAAAAAIAII
IIIIAIAAAAIIIIIAIIIIIAIAAAIAAAIIAIAAAAAAAAAAIAIAIIAAAAAAAAAAIAII
IIIIAIAAAAIIIIIAIIIIIAIAAAIAAAIIAAAAAAAAAAAAIAIAIIAAAAAAAAAAIAII
IIIIAIAAAAIIIIIAIIIIAAIAAAIAAAIIAAAAAAAAAAAAIAIAIIAAAAAAAAAAIAII
IIIIAIAAAAIIIIIAIIIAAAIAAAIAAAIIAAAAAAAAAAAAIAIAIIAAAAAAAAAAIAII
IIIIAIAAAAIIIIIAIIIAAAIAAAIAAAAIAAAAAAAAAAAAIAIAIIAAAAAAAAAAIAII
IIIIAIAAAAIIIIIAIIIAAAIAAAAAAAAIAAAAAAAAAAAAIAIAIIAAAAAAAAAAIAII
IIIIAAAAAAIIIIIAIIIAAAIAAAAAAAAIAAAAAAAAAAAAIAIAIIAAAAAAAAAAIAII
IIIIAAAAAAIIIIIAIIIAAAIAAAAAAAAAAAAAAAAAAAAAIAIAIIAAAAAAAAAAIAII
IIIIAAAAAAIIIIIAIIIAAAAAAAAAAAAAAAAAAAAAAAAAIAIAIIAAAAAAAAAAIAII
IIIIAAAAAAIAIIIAIIIAAAAAAAAAAAAAAAAAAAAAAAAAIAIAIIAAAAAAAAAAIAII
IIIIAAAAAAIAIAIAIIIAAAAAAAAAAAAAAAAAAAAAAAAAIAIAIIAAAAAAAAAAIAII
IIIIAAAAAAIAIAIAIIIAAAAAAAAAAAAAAAAAAAAAAAAAIAIAIIAAAAAAAAAAIAIA
IIIIAAAAAAIAIAIAIIIAAAAAAAAAAAAAAAAAAAAAAAAAIAIAIAAAAAAAAAAAIAIA
IIIIAAAAAAIAIAIAIIIAAAAAAAAAAAAAAAAAAAAAAAAAIAIAIAAAAAAAAAAAIAAA
IIIIAAAAAAIAIAIAIIIAAAAAAAAAAAAAAAAAAAAAAAAA1AIAIAAAAAAAAAAAIAAA
IIAIAAAAAAIAIAIAIIIAAAAAAAAAAAAAAAAAAAAAAAAA1AIAIAAAAAAAAAAAIAAA
IIAIAAAAAAIAIAIAIIIAAAAAAAAAAAAAAAAAAAAAAAAA1A1A1AAAAAAAAAAAIAAA
IIAIAAAAAAIAIAIAIIIAAAAAAAAAAAAAAAAAAAAAAAAA1A1A1AAAAAAAAAAA1AAA
IIA1AAAAAA1A1A1A112AAAAAAAAAAAAAAAAAAAAAAAAA1A1A1AAAAAAAAAAA1AAA
IAA1AAAAAA1A1A1A112AAAAAAAAAAAAAAAAAAAAAAAAA1A1A1AAAAAAAAAAA1AAA
IAAAAAAAAA1A1A1A112AAAAAAAAAAAAAAAAAAAAAAAAA1A1A1AAAAAAAAAAA1AAA
IAAAAAAAAA1A1A1A111AAAAAAAAAAAAAAAAAAAAAAAAA1A1A1AAAAAAAAAAA1AAA
IIAIIIIIIIIIIIIIIIIIIIIIIIIIIIIIIIIIIIIIIIIIIIIIIIIIIIIIIIIIIIII
IIAIIIIIIIIIIIIIIIIIIII2I2I2IIIIIIIIIAI1IIIIIIIIIIIIIIIIIIIIIIII
IIAIIIIIIIIIIIIIIIIIIII222222IIIIIIIIAA11IIIIIIIIIIIIIIIIIIIIIII
IIAIIIIIIIIIIIIIIIII2I2222222IIIIIAI1AA11IIIIIIIIIIIIIIIIIIIIIII
IIAIIIIIIIIIIIIIIIII2I22222222IIIIAI1AA11IIAI1IIIIIIIIIIIIIIIIII
IIAIIIIIIIIIIIIIIIII2I22222222IIIIAIAAA11IIAI1IIIIIIIIIIIIIIIIII
IIAIIIIIIIIIIIIIIIII2I22222222IIIIAIAAA11IIAI1IIIIIIIAIIIIIIIIII
IIAIIIIIIIIIIIIIIIII2I22222222IIIIAIAAA11IIAI1IIIIIIIAIIIIIIIIAI
IIAIIIIIIIIIIIIIIIII2I22222222IIIIAIAAAA1IIAI1IIIIIIIAIIIIIIIIAI
IIAIIIIIIIIIIIIIIIII2I22222222IIIIAIAAAA1IIAI1IIIIIIIAIIIIIAIIAI
IIAIIIIIIIIIIIIIIIII2I22222222IIIIAIAAAA1IIAI1IIIIIIIAIIIAIAIIAI
IIAIIIIIIIIIIIIIIIII2I22222222IIIIAIAAAA1IAAI1IIIIIIIAIIIAIAIIAI
IIA1111111111111IIII2I22222222IIIIAIAAAA1IAAI1IIIIIIIAIIIAIAIIAI
IIA1111111111111IIII2I22222222IIIIA1AAAA11AA111111IIIAIIIAIAIIAI
IIA1111111111111IIII2I22222222IIIIA1AAAA11AA111111111AIIIAIAIIAI
IIA1111111111111IIII2I22222222IIIIA1AAAA11AA111111111AIIAA1A11A1
IIA1111111111111IIII2I22222222IIIIA1AAAA11AA111111111A11AA1A11A1
IIA1111111111111IIII2I22222222IIIIA1AAAA11AA1111111A1A11AA1A11A1
IIA1111111111111IIII2I22222222IIIIA1AAAA11AA1111111A1A1AAA1A11A1
IIA1111111111111IIII2I22222222IIIIA1AAAA11AA1A11111A1A1AAA1A11A1
IIA1111111111111IIII2I22222222IIIIA1AAAA11AA1A11111A1A1AAAAA11A1
IIA1111111111111IIII2I22222222IIIIAAAAAA11AA1A11111A1A1AAAAA11A1
IIA1111111111111IIII2I22222222IIIIAAAAAA11AA1A1111AA1A1AAAAA11A1
IIA1111111111111IIII2I22222222IIIIAAAAAA1AAA1A1111AA1A1AAAAA11A1
IIA1111111111111IIII2I22222222IIIIAAAAAA1AAA1A1111AA1A1AAAAA1AA1
IIA1111111111111IIII2I22222222IIIIAAAAAA1AAA1A1111AA1AAAAAAA1AA1
IIA1111111111111IIII2I22222222IIIIAAAAAA1AAA1A1111AAAAAAAAAA1AA1
IIA1111111111111IIII2I22222222IIIIAAAAAA1AAA1A1A11AAAAAAAAAA1AA1
IIA1111111111111IIII2I22222222IIIIAAAAAAAAAA1A1A11AAAAAAAAAA1AA1
IIA1A11111111111IIII2I22222222IIIIAAAAAAAAAA1A1A11AAAAAAAAAA1AA1
IIA1A1A111111111IIII2I22222222IIIIAAAAAAAAAA1A1A11AAAAAAAAAA1AA1
IIA1A1A11111111A122I2I22222222IIIIAAAAAAAAAA1A1A11AAAAAAAAAA1AA1
IIA1A1A1A111111A122I2I22222222IIIIAAAAAAAAAA1A1A11AAAAAAAAAA1AA1
IIA1A1A1A111111A122I2I2A122222IIIIAAAAAAAAAA1A1A11AAAAAAAAAA1AA1
IIA1A1A1A111111A122I2I2A1A1222IIIIAAAAAAAAAA1A1A11AAAAAAAAAA1AA1
IIA1A1A1A111111A122I2I2A1A12A122IIAAAAAAAAAA1A1A11AAAAAAAAAA1AA1
IIA1A1A1A111111A122I2I2AAA12A122IIAAAAAAAAAA1A1A11AAAAAAAAAA1AA1
IIA1A1AAA111111A122I2I2AAA12A122IIAAAAAAAAAA1A1A11AAAAAAAAAA1AA1
IIA1A1AAA111111A122I2A1AAA12A122IIAAAAAAAAAA1A1A11AAAAAAAAAA1AA1
IIA1A1AAA111111A122I2A1AAA12A122A1AAAAAAAAAA1A1A11AAAAAAAAAA1AA1
IIA1A1AAA111111A122I2A1AAA1AA122A1AAAAAAAAAA1A1A11AAAAAAAAAA1AA1
IIA1A1AAA111111A122I2A1AAA1AAA12A1AAAAAAAAAA1A1A11AAAAAAAAAA1AA1
IIA1A1AAAA11111A122I2A1AAA1AAA12A1AAAAAAAAAA1A1A11AAAAAAAAAA1AA1
IIA1A1AAAA11111A122I2A1AAA1AAA12AAAAAAAAAAAA1A1A11AAAAAAAAAA1AA1
IIA1A1AAAA11111A122IAA1AAA1AAA12AAAAAAAAAAAA1A1A11AAAAAAAAAA1AA1
IIA1A1AAAA11111A122AAA1AAA1AAA12AAAAAAAAAAAA1A1A11AAAAAAAAAA1AA1
IIA1A1AAAA11111A122AAA1AAA1AAAA1AAAAAAAAAAAA1A1A11AAAAAAAAAA1AA1
IIA1A1AAAA11111A122AAA1AAAAAAAA1AAAAAAAAAAAA1A1A11AAAAAAAAAA1AA1
IIA1AAAAAA11111A122AAA1AAAAAAAA1AAAAAAAAAAAA1A1A11AAAAAAAAAA1AA1
IIA1AAAAAA11111A122AAA1AAAAAAAAAAAAAAAAAAAAA1A1A11AAAAAAAAAA1AA1
IIA1AAAAAA11111A122AAAAAAAAAAAAAAAAAAAAAAAAA1A1A11AAAAAAAAAA1AA1
IIA1AAAAAA1A111A122AAAAAAAAAAAAAAAAAAAAAAAAA1A1A11AAAAAAAAAA1AA1
IIA1AAAAAA1A1A1A122AAAAAAAAAAAAAAAAAAAAAAAAA1A1A11AAAAAAAAAA1AA1
IIA1AAAAAA1A1A1A122AAAAAAAAAAAAAAAAAAAAAAAAA1A1A11AAAAAAAAAA1AAA
IIA1AAAAAA1A1A1A122AAAAAAAAAAAAAAAAAAAAAAAAA1A1A1AAAAAAAAAAA1AAA
IAA1AAAAAA1A1A1A122AAAAAAAAAAAAAAAAAAAAAAAAA1A1A1AAAAAAAAAAA1AAA
IAAAAAAAAA1A1A1A122AAAAAAAAAAAAAAAAAAAAAAAAA1A1A1AAAAAAAAAAA1AAA
IIIIIIIIIIIIIIIIIIIIIIIIIIIIIIIIIIAI2IIIIIIIIIIIIIIIIIIIIIIIIIII
IIIIIIIIIIIIIIIIIIIIIIIIIIIIIIIIIIAIAI2IIIIIIIIIIIIIIIIIIIIIIIII
IIIIIIIIIIIIIIIIIIIIIIIIIIIIIIIIIIAIAI2IIIIIIAI2IIIIIIIIIIIIIIII
IIIIIIIIIIIIIIIIIIIIIIIIIIIIIIIIIIAIAI2IIIIIIAI2IIIIIAI2IIIIIIII
IIIIIIIIIIIIIIIIIIIIIIIIIIIIIIIIIIAIAI2IIIIIIAI2IIIIIAI2IIIAI2II
IIIIIIIIIIIIIIIIIIIIIIIIIIIIIIIIIIAIAI2IIIIIIAI2IIIIIAIAI2IAI2II
IIIIIIIIIIIIIIIIIIIIIIIIIIIIIIIIIIAIAI2AI2IIIAI2IIIIIAIAI2IAI2II
IIIIIIIIIIIIIIIIIIIIIIIIIIIIIIIIIIAIAI2AI2IIIAI2IIIIIAIAIAIAI2II
IIIIIIIIIIIIIIIIIIIIIIIIIIIIIIIIIIAIAI2AI2IIIAI2IIIIIAIAIAAA22II
IIIIIIIIIIIIIIIIIIIIIIIIIIIIIIIIIIAIAI2AI2IIIAI2IIIIIAIAAAAA22II
IIIIIIIIIIIIIIIIIIIIIIIIIIIIIIIIIIAIAI2AI2IAIAI2IIIIIAIAAAAA22II
IIIIIIIIIIIIIIIIIIIIIIIIIIIIIIIIIIAAA22AI2IAIAI2IIIIIAIAAAAA22II
IIIIIIIIIIIIIIIIIIIIIIIIIIIIIIIIIIAAA2AA22IAIAI2IIIIIAIAAAAA22II
IIIIIIIIIIIIIIIIIIIIIIIIIIIIIIIIIIAAA2AA22IAIAI2IIAI2AIAAAAA22II
IIIIIIIIIIIIIIIIIIIIIIIIIIIIIIIIIIAAA2AA2AIAIAI2IIAI2AIAAAAA22II
IIIIIIIIIIIIIIIIIIIIIIIIIIIIIIIIIIAAA2AA2AAA2AI2IIAI2AIAAAAA22II
IIIIIIIIIIIIIIIIIIIIIIIIIIIIIIIIIIAAAAAA2AAA2AI2IIAI2AIAAAAA22II
IIIIIIIIIIIIIIIIIIIIIIIIIIIIIIIIIIAAAAAA2AAA2AI2IIAI2AIAAAAA2AI2
IIIIIIIIIIIIIIIIIIIIIIIIIIIIIIIIIIAAAAAA2AAA2AI2IIAI2AAAAAAA2AI2
IIIIIIIIIIIIIIIIIIIIIIIIIIIIIIIIIIAAAAAA2AAA2AI2IIAA2AAAAAAA2AI2
IIIIIIIIIIIIIIIIIIIIIIIIIIIIIIIIIIAAAAAA2AAA2AI2IIAAAAAAAAAA2AI2
IIIIIIIIIIIIIIIIIIIIIIIIIIIIIIIIIIAAAAAA2AAA2AIAI2AAAAAAAAAA2AI2
IIIIIIIIIIIIIIIIIIIIIIIIIIIIIIIIIIAAAAAAAAAA2AIAI2AAAAAAAAAA2AI2
IIIIAI2IIIIIIIIIIIIIIIIIIIIIIIIIIIAAAAAAAAAA2AIAI2AAAAAAAAAA2AI2
IIIIAIAI2IIIIIIIIIIIIIIIIIIIIIIIIIAAAAAAAAAA2AIAI2AAAAAAAAAA2AI2
IIIIAIAI2IIIIIIAI2IIIIIIIIIIIIIIIIAAAAAAAAAA2AIAI2AAAAAAAAAA2AI2
IIIIAIAIAI2IIIIAI2IIIIIIIIIIIIIIIIAAAAAAAAAA2AIAI2AAAAAAAAAA2AI2
IIIIAIAIAI2IIIIAI2IIIIIAI2IIIIIIIIAAAAAAAAAA2AIAI2AAAAAAAAAA2AI2
IIIIAIAIAI2IIIIAI2IIIIIAIAI2IIIIIIAAAAAAAAAA2AIAI2AAAAAAAAAA2AI2
IIIIAIAIAI2IIIIAI2IIIIIAIAI2AI2IIIAAAAAAAAAA2AIAI2AAAAAAAAAA2AI2
IIIIAIAIAI2IIIIAI2IIIIIAAA22AI2IIIAAAAAAAAAA2AIAI2AAAAAAAAAA2AI2
IIIIAIAAA22IIIIAI2IIIIIAAA22AI2IIIAAAAAAAAAA2AIAI2AAAAAAAAAA2AI2
IIIIAIAAA22IIIIAI2IIIAIAAA22AI2IIIAAAAAAAAAA2AIAI2AAAAAAAAAA2AI2
IIIIAIAAA22IIIIAI2IIIAIAAA22AI2IAIAAAAAAAAAA2AIAI2AAAAAAAAAA2AI2
IIIIAIAAA22IIIIAI2IIIAIAAA2AA22IAIAAAAAAAAAA2AIAI2AAAAAAAAAA2AI2
IIIIAIAAA22IIIIAI2IIIAIAAA2AAA22AIAAAAAAAAAA2AIAI2AAAAAAAAAA2AI2
IIIIAIAAAA22IIIAI2IIIAIAAA2AAA22AIAAAAAAAAAA2AIAI2AAAAAAAAAA2AI2
IIIIAIAAAA22IIIAI2IIIAIAAA2AAA22AAAAAAAAAAAA2AIAI2AAAAAAAAAA2AI2
IIIIAIAAAA22IIIAI2IIAA2AAA2AAA22AAAAAAAAAAAA2AIAI2AAAAAAAAAA2AI2
IIIIAIAAAA22IIIAI2IAAA2AAA2AAA22AAAAAAAAAAAA2AIAI2AAAAAAAAAA2AI2
IIIIAIAAAA22IIIAI2IAAA2AAA2AAAA2AAAAAAAAAAAA2AIAI2AAAAAAAAAA2AI2
IIIIAIAAAA22IIIAI2IAAA2AAAAAAAA2AAAAAAAAAAAA2AIAI2AAAAAAAAAA2AI2
IIIIAAAAAA22IIIAI2IAAA2AAAAAAAA2AAAAAAAAAAAA2AIAI2AAAAAAAAAA2AI2
IIIIAAAAAA22IIIAI2IAAA2AAAAAAAAAAAAAAAAAAAAA2AIAI2AAAAAAAAAA2AI2
IIIIAAAAAA22IIIAI2IAAAAAAAAAAAAAAAAAAAAAAAAA2AIAI2AAAAAAAAAA2AI2
IIIIAAAAAA2AI2IAI2IAAAAAAAAAAAAAAAAAAAAAAAAA2AIAI2AAAAAAAAAA2AI2
IIIIAAAAAA2AIAIAI2IAAAAAAAAAAAAAAAAAAAAAAAAA2AIAI2AAAAAAAAAA2AI2
IIIIAAAAAA2AIAIAI2IAAAAAAAAAAAAAAAAAAAAAAAAA2AIAI2AAAAAAAAAA2AIA
IIIIAAAAAA2AIAIAI2IAAAAAAAAAAAAAAAAAAAAAAAAA2AIAIAAAAAAAAAAA2AIA
IIIIAAAAAA2AIAIAI2IAAAAAAAAAAAAAAAAAAAAAAAAA2AIAIAAAAAAAAAAA2AAA
IIAIAAAAAA2AIAIAI2IAAAAAAAAAAAAAAAAAAAAAAAAA2AIAIAAAAAAAAAAA2AAA
IIA1AAAAAA1A1A1A22IAAAAAAAAAAAAAAAAAAAAAAAAA2AIAIAAAAAAAAAAA2AAA
IAA1AAAAAA1A1A1A22IAAAAAAAAAAAAAAAAAAAAAAAAA2AIAIAAAAAAAAAAA2AAA
IAAAAAAAAA1A1A1A22IAAAAAAAAAAAAAAAAAAAAAAAAA2AIAIAAAAAAAAAAA2AAA
IAAAAAAAAA1A1A1A22IAAAAAAAAAAAAAAAAAAAAAAAAA2AIA2AAAAAAAAAAA2AAA
IAAAAAAAAA1A1A1A22IAAAAAAAAAAAAAAAAAAAAAAAAA1A1A1AAAAAAAAAAA2AAA
IAAAAAAAAA1A1A1A22IAAAAAAAAAAAAAAAAAAAAAAAAA1A1A1AAAAAAAAAAA1AAA
IAAAAAAAAA1A1A1A112AAAAAAAAAAAAAAAAAAAAAAAAA1A1A1AAAAAAAAAAA1AAA
IIAIIIIIIIIIIIIIIIIIIIIIIIIIIIIIIIIIIIIIIIIIIIIIIIIIIIIIIIIIIIII
IIAIIIIIIIIIIIIIIIIIIIIIIII2I2IIIIIIIAI1IIIIIIIIIIIIIIIIIIIIIIII
IIAIIIIIIIIIIIIIIIIIIIIIIII2222IIIIIIAA11IIIIIIIIIIIIIIIIIIIIIII
IIAIIIIIIIIIIIIIIIIIIIII2I22222IIIAI1AA11IIIIIIIIIIIIIIIIIIIIIII
IIAIIIIIIIIIIIIIIIIIIIII2I22222II2A21AA11IIAI1IIIIIIIIIIIIIIIIII
IIAIIIIIIIIIIIIIIIIIIIII2I22222II2A21AA11IIAI1IIIIIIIAI1IIIIIIII
IIAIIIIIIIIIIIIIIIIIIIII2I22222II2A2AAA11IIAI1IIIIIIIAI1IIIIIIII
IIAIIIIIIIIIIIIIIIIIIIII2I22222II2A2AAA11IIAI1IIIIIIIA21IIIIIIAI
IIAIIIIIIIIIIIIIIIIIIIII2I22222II2A2AAAA11IAI1IIIIIIIA21IIIIIIAI
IIAIIIIIIIIIIIIIIIIIIIII2I22222II2A2AAAA11IAI1III2I2IA21IIIAI1AI
IIAIIIIIIIIIIIIIIIIIIIII2I22222II2A2AAAA11IAI1I2I2I2IA21IAIAI1AI
IIAIIIIIIIIIIIIIIIIIIIII2I22222I22A2AAAA11AA11I2I2I2IA21IAIAI1AI
IIA1111111111111IIIIIIII2I22222I22A2AAAA11AA11I2I2I2IA21IAIAI1AI
IIA1111111111111IIIIIIII2I22222I22A1AAAA11AA11111112IA21IAIAI1AI
IIA1111111111111IIIIIIII2I22222I22A1AAAA11AA111111111A21IAIAI1AI
IIA1111111111111IIIIIIII2I22222I22A1AAAA11AA111111111A21AA1A11A1
IIA1111111111111IIIIIIII2I22222I22A1AAAA11AA111111111A11AA1A11A1
IIA1111111111111IIIIIIII2I22222I22A1AAAA11AA1111111A1A11AA1A11A1
IIA1111111111111IIIIIIII2I22222I22A1AAAA11AA1111111A1A1AAA1A11A1
IIA1111111111111IIIIIIII2I22222I22A1AAAA11AA1A11111A1A1AAA1A11A1
IIA1111111111111IIIIIIII2I22222I22A1AAAA11AA1A11111A1A1AAAAA11A1
IIA1111111111111IIIIIIII2I22222I22AAAAAA11AA1A11111A1A1AAAAA11A1
IIA1111111111111IIIIIIII2I22222I22AAAAAA11AA1A1111AA1A1AAAAA11A1
IIA1111111111111IIIIIIII2I22222I22AAAAAA1AAA1A1111AA1A1AAAAA11A1
IIA1111111111111IIIIIIII2I22222I22AAAAAA1AAA1A1111AA1A1AAAAA1AA1
IIA1111111111111IIIIIIII2I22222I22AAAAAA1AAA1A1111AA1AAAAAAA1AA1
IIA1111111111111IIIIIIII2I22222I22AAAAAA1AAA1A1111AAAAAAAAAA1AA1
IIA1111111111111IIIIIIII2I22222I22AAAAAA1AAA1A1A11AAAAAAAAAA1AA1
IIA1111111111111IIIIIIII2I22222I22AAAAAAAAAA1A1A11AAAAAAAAAA1AA1
IIA1A11111111111IIIIIIII2I22222I22AAAAAAAAAA1A1A11AAAAAAAAAA1AA1
IIA1A1A111111111IIIIIIII2I22222I22AAAAAAAAAA1A1A11AAAAAAAAAA1AA1
IIA1A1A11111111A1122I2II2I22222I22AAAAAAAAAA1A1A11AAAAAAAAAA1AA1
IIA1A1A1A111111A1122I2II2I22222I22AAAAAAAAAA1A1A11AAAAAAAAAA1AA1
IIA1A1A1A111111A1122I2IA1122222I22AAAAAAAAAA1A1A11AAAAAAAAAA1AA1
IIA1A1A1A111111A1122I2IA1A11222222AAAAAAAAAA1A1A11AAAAAAAAAA1AA1
IIA1A1A1A111111A1122I2IA1A11A11222AAAAAAAAAA1A1A11AAAAAAAAAA1AA1
IIA1A1A1A111111A1122I2IAAA11A11222AAAAAAAAAA1A1A11AAAAAAAAAA1AA1
IIA1A1AAA111111A1122I2IAAA11A11222AAAAAAAAAA1A1A11AAAAAAAAAA1AA1
IIA1A1AAA111111A1122IA1AAA11A11222AAAAAAAAAA1A1A11AAAAAAAAAA1AA1
IIA1A1AAA111111A1122IA1AAA11A112A1AAAAAAAAAA1A1A11AAAAAAAAAA1AA1
IIA1A1AAA111111A1122IA1AAA1AA112A1AAAAAAAAAA1A1A11AAAAAAAAAA1AA1
IIA1A1AAA111111A1122IA1AAA1AAA11A1AAAAAAAAAA1A1A11AAAAAAAAAA1AA1
IIA1A1AAAA11111A1122IA1AAA1AAA11A1AAAAAAAAAA1A1A11AAAAAAAAAA1AA1
IIA1A1AAAA11111A1122IA1AAA1AAA11AAAAAAAAAAAA1A1A11AAAAAAAAAA1AA1
IIA1A1AAAA11111A1122AA1AAA1AAA11AAAAAAAAAAAA1A1A11AAAAAAAAAA1AA1
IIA1A1AAAA11111A112AAA1AAA1AAA11AAAAAAAAAAAA1A1A11AAAAAAAAAA1AA1
IIA1A1AAAA11111A112AAA1AAA1AAAA1AAAAAAAAAAAA1A1A11AAAAAAAAAA1AA1
IIA1A1AAAA11111A112AAA1AAAAAAAA1AAAAAAAAAAAA1A1A11AAAAAAAAAA1AA1
IIA1AAAAAA11111A112AAA1AAAAAAAA1AAAAAAAAAAAA1A1A11AAAAAAAAAA1AA1
IIA1AAAAAA11111A112AAA1AAAAAAAAAAAAAAAAAAAAA1A1A11AAAAAAAAAA1AA1
IIA1AAAAAA11111A112AAAAAAAAAAAAAAAAAAAAAAAAA1A1A11AAAAAAAAAA1AA1
IIA1AAAAAA1A111A112AAAAAAAAAAAAAAAAAAAAAAAAA1A1A11AAAAAAAAAA1AA1
IIA1AAAAAA1A1A1A112AAAAAAAAAAAAAAAAAAAAAAAAA1A1A11AAAAAAAAAA1AA1
IIA1AAAAAA1A1A1A112AAAAAAAAAAAAAAAAAAAAAAAAA1A1A11AAAAAAAAAA1AAA
IIA1AAAAAA1A1A1A112AAAAAAAAAAAAAAAAAAAAAAAAA1A1A1AAAAAAAAAAA1AAA
2AA1AAAAAA1A1A1A112AAAAAAAAAAAAAAAAAAAAAAAAA1A1A1AAAAAAAAAAA1AAA
2AAAAAAAAA1A1A1A112AAAAAAAAAAAAAAAAAAAAAAAAA1A1A1AAAAAAAAAAA1AAA
2AAAAAAAAA1A1A1A111AAAAAAAAAAAAAAAAAAAAAAAAA1A1A1AAAAAAAAAAA1AAA
IIAIIIIIIIIIIIIIIIIIIIIIIIIIIIIIIIIIIIIIIIIIIIIIIIIIIIIIIIIIIIII
IIAIIIIIIIIIIIIIIIIIIIIIIIIIIIIIIIIIIA2IIIIIIIIIIIIIIIIIIIIIIIII
IIAIIIIIIIIIIIIIIIIIIIIIIIIIIIIIIIIIIAA2IIIIIIIIIIIIIIIIIIIIIIII
IIAIIIIIIIIIIIIIIIIIIIIIIIIIIIIIIIA2IAA2IIIIIIIIIIIIIIIIIIIIIIII
IIAIIIIIIIIIIIIIIIIIIIIIIIIIIIIIIIA2IAA2IIIA2IIIIIIIIIIIIIIIIIII
IIAIIIIIIIIIIIIIIIIIIIIIIIIIIIIIIIA2AAA2IIIA2IIIIIIIIIIIIIIIIIII
IIAIIIIIIIIIIIIIIIIIIIIIIIIIIIIIIIA2AAA2IIIA2IIIIIIIIA2IIIIIIIII
IIAIIIIIIIIIIIIIIIIIIIIIIIIIIIIIIIA2AAA2IIIA2IIIIIIIIA2IIIIIIIA2
IIAIIIIIIIIIIIIIIIIIIIIIIIIIIIIIIIA2AAAA2IIA2IIIIIIIIA2IIIIIIIA2
IIAIIIIIIIIIIIIIIIIIIIIIIIIIIIIIIIA2AAAA2IIA2IIIIIIIIA2IIIIA2IA2
IIAIIIIIIIIIIIIIIIIIIIIIIIIIIIIIIIA2AAAA2IIA2IIIIIIIIA2IIA2A2IA2
IIAIIIIIIIIIIIIIIIIIIIIIIIIIIIIIIIA2AAAA2IAA2IIIIIIIIA2IIA2A2IA2
IIA11111111111111IIIIIIIIIIIIIIIIIA2AAAA2IAA2IIIIIIIIA2IIA2A2IA2
IIA11111111111111IIIIIIIIIIIIIIIIIA1AAAA11AA1111111IIA2IIA2A2IA2
IIA11111111111111IIIIIIIIIIIIIIIIIA1AAAA11AA111111111A2IIA2A2IA2
IIA11111111111111IIIIIIIIIIIIIIIIIA1AAAA11AA111111111A2IAA1A11A1
IIA11111111111111IIIIIIIIIIIIIIIIIA1AAAA11AA111111111A11AA1A11A1
IIA11111111111111IIIIIIIIIIIIIIIIIA1AAAA11AA1111111A1A11AA1A11A1
IIA11111111111111IIIIIIIIIIIIIIIIIA1AAAA11AA1111111A1A1AAA1A11A1
IIA11111111111111IIIIIIIIIIIIIIIIIA1AAAA11AA1A11111A1A1AAA1A11A1
IIA11111111111111IIIIIIIIIIIIIIIIIA1AAAA11AA1A11111A1A1AAAAA11A1
IIA11111111111111IIIIIIIIIIIIIIIIIAAAAAA11AA1A11111A1A1AAAAA11A1
IIA11111111111111IIIIIIIIIIIIIIIIIAAAAAA11AA1A1111AA1A1AAAAA11A1
IIA11111111111111IIIIIIIIIIIIIIIIIAAAAAA1AAA1A1111AA1A1AAAAA11A1
IIA11111111111111IIIIIIIIIIIIIIIIIAAAAAA1AAA1A1111AA1A1AAAAA1AA1
IIA11111111111111IIIIIIIIIIIIIIIIIAAAAAA1AAA1A1111AA1AAAAAAA1AA1
IIA11111111111111IIIIIIIIIIIIIIIIIAAAAAA1AAA1A1111AAAAAAAAAA1AA1
IIA11111111111111IIIIIIIIIIIIIIIIIAAAAAA1AAA1A1A11AAAAAAAAAA1AA1
IIA11111111111111IIIIIIIIIIIIIIIIIAAAAAAAAAA1A1A11AAAAAAAAAA1AA1
IIA1A111111111111IIIIIIIIIIIIIIIIIAAAAAAAAAA1A1A11AAAAAAAAAA1AA1
IIA1A1A1111111111IIIIIIIIIIIIIIIIIAAAAAAAAAA1A1A11AAAAAAAAAA1AA1
IIA1A1A11111111A1122I2IIIIIIIIIIIIAAAAAAAAAA1A1A11AAAAAAAAAA1AA1
IIA1A1A1A111111A1122I2IIIIIIIIIIIIAAAAAAAAAA1A1A11AAAAAAAAAA1AA1
IIA1A1A1A111111A1122I2IA1122I2IIIIAAAAAAAAAA1A1A11AAAAAAAAAA1AA1
IIA1A1A1A111111A1122I2IA1A1122I2IIAAAAAAAAAA1A1A11AAAAAAAAAA1AA1
IIA1A1A1A111111A1122I2IA1A11A1122IAAAAAAAAAA1A1A11AAAAAAAAAA1AA1
IIA1A1A1A111111A1122I2IAAA11A1122IAAAAAAAAAA1A1A11AAAAAAAAAA1AA1
IIA1A1AAA111111A1122I2IAAA11A1122IAAAAAAAAAA1A1A11AAAAAAAAAA1AA1
IIA1A1AAA111111A1122IA1AAA11A1122IAAAAAAAAAA1A1A11AAAAAAAAAA1AA1
IIA1A1AAA111111A1122IA1AAA11A112A1AAAAAAAAAA1A1A11AAAAAAAAAA1AA1
IIA1A1AAA111111A1122IA1AAA1AA112A1AAAAAAAAAA1A1A11AAAAAAAAAA1AA1
IIA1A1AAA111111A1122IA1AAA1AAA11A1AAAAAAAAAA1A1A11AAAAAAAAAA1AA1
IIA1A1AAAA11111A1122IA1AAA1AAA11A1AAAAAAAAAA1A1A11AAAAAAAAAA1AA1
IIA1A1AAAA11111A1122IA1AAA1AAA11AAAAAAAAAAAA1A1A11AAAAAAAAAA1AA1
IIA1A1AAAA11111A1122AA1AAA1AAA11AAAAAAAAAAAA1A1A11AAAAAAAAAA1AA1
IIA1A1AAAA11111A112AAA1AAA1AAA11AAAAAAAAAAAA1A1A11AAAAAAAAAA1AA1
IIA1A1AAAA11111A112AAA1AAA1AAAA1AAAAAAAAAAAA1A1A11AAAAAAAAAA1AA1
IIA1A1AAAA11111A112AAA1AAAAAAAA1AAAAAAAAAAAA1A1A11AAAAAAAAAA1AA1
IIA1AAAAAA11111A112AAA1AAAAAAAA1AAAAAAAAAAAA1A1A11AAAAAAAAAA1AA1
IIA1AAAAAA11111A112AAA1AAAAAAAAAAAAAAAAAAAAA1A1A11AAAAAAAAAA1AA1
IIA1AAAAAA11111A112AAAAAAAAAAAAAAAAAAAAAAAAA1A1A11AAAAAAAAAA1AA1
IIA1AAAAAA1A111A112AAAAAAAAAAAAAAAAAAAAAAAAA1A1A11AAAAAAAAAA1AA1
IIA1AAAAAA1A1A1A112AAAAAAAAAAAAAAAAAAAAAAAAA1A1A11AAAAAAAAAA1AA1
IIA1AAAAAA1A1A1A112AAAAAAAAAAAAAAAAAAAAAAAAA1A1A11AAAAAAAAAA1AAA
IIA1AAAAAA1A1A1A112AAAAAAAAAAAAAAAAAAAAAAAAA1A1A1AAAAAAAAAAA1AAA
IAA1AAAAAA1A1A1A112AAAAAAAAAAAAAAAAAAAAAAAAA1A1A1AAAAAAAAAAA1AAA
IAAAAAAAAA1A1A1A112AAAAAAAAAAAAAAAAAAAAAAAAA1A1A1AAAAAAAAAAA1AAA
IIIIIIIIIIIIIIIIIIII2IIIIIIIIIIIIIAI2IIIIIIIIIIIIIIIIIIIIIIIIIII
IIIIIIIIIIIIIIIIIIII2I2IIIIIIIIIIIAIAI2IIIIIIIIIIIIIIIIIIIIIIIII
IIIIIIIIIIIIIIIIIIII2I2IIIIIIII2IIAIAI2IIIIIIAI2IIIIIIIIIIIIIIII
IIIIIIIIIIIIIIIIIIII2I2IIIIIIII2IIAIAI22IIIIIAI2IIIIIAI2IIIIIIII
IIIIIIIIIIIIIIIIIIII2I2IIIIIIII2IIAIAI22IIIIIAI2IIIIIAI2IIIAI2II
IIIIIIIIIIIIIIIIIIII2I2IIIIIIII2IIAIAI22I2IIIAI2IIIIIAIAI2IAI2II
IIIIIIIIIIIIIIIIIIII2I2IIIIIIII2IIAIAI2AI2IIIAI2IIIIIAIAI2IAI2II
IIIIIIIIIIIIIIIIIIII2I2IIIIIIII2IIAIAI2AI2IIIAI2IIIIIAIAIAIAI2II
IIIIIIIIIIIIIIIIIIII2I2IIIIIIII2IIAIAI2AI2IIIAI2IIIIIAIAIAAA22II
IIIIIIIIIIIIIIIIIIII2I2IIIIIIII2IIAIAI2AI2IIIAI2IIIIIAIAAAAA22II
IIIIIIIIIIIIIIIIIIII2I2IIIIIIII2IIAIAI2AI2IAIAI2IIIIIAIAAAAA22II
IIIIIIIIIIIIIIIIIIII2I2IIIIIIII2IIAAA22AI2IAIAI2IIIIIAIAAAAA22II
IIIIIIIIIIIIIIIIIIII2I2IIIIIIII2IIAAA2AA22IAIAI2IIIIIAIAAAAA22II
IIIIIIIIIIIIIIIIIIII2I2IIIIIIII2IIAAA2AA22IAIAI2IIAI2AIAAAAA22II
IIIIIIIIIIIIIIIIIIII2I2IIIIIIII2IIAAA2AA2AIAIAI2IIAI2AIAAAAA22II
IIIIIIIIIIIIIIIIIIII2I2IIIIIIII2IIAAA2AA2AAA2AI2IIAI2AIAAAAA22II
IIIIIIIIIIIIIIIIIIII2I2IIIIIIII2IIAAAAAA2AAA2AI2IIAI2AIAAAAA22II
IIIIIIIIIIIIIIIIIIII2I2IIIIIIII2IIAAAAAA2AAA2AI2IIAI2AIAAAAA2AI2
IIIIIIIIIIIIIIIIIIII2I2IIIIIIII2IIAAAAAA2AAA2AI2IIAI2AAAAAAA2AI2
IIIIIIIIIIIIIIIIIIII2I2IIIIIIII2IIAAAAAA2AAA2AI2IIAA2AAAAAAA2AI2
IIIIIIIIIIIIIIIIIIII2I2IIIIIIII2IIAAAAAA2AAA2AI2IIAAAAAAAAAA2AI2
IIIIIIIIIIIIIIIIIIII2I2IIIIIIII2IIAAAAAA2AAA2AIAI2AAAAAAAAAA2AI2
IIIIIIIIIIIIIIIIIIII2I2IIIIIIII2IIAAAAAAAAAA2AIAI2AAAAAAAAAA2AI2
IIIIAI2IIIIIIIIIIIII2I2IIIIIIII2IIAAAAAAAAAA2AIAI2AAAAAAAAAA2AI2
IIIIAIAI2IIIIIIIIIII2I2IIIIIIII2IIAAAAAAAAAA2AIAI2AAAAAAAAAA2AI2
IIIIAIAI2IIIIIIAI2II2I2IIIIIIII2IIAAAAAAAAAA2AIAI2AAAAAAAAAA2AI2
IIIIAIAIAI2IIIIAI2II2I2IIIIIIII2IIAAAAAAAAAA2AIAI2AAAAAAAAAA2AI2
IIIIAIAIAI2IIIIAI2II2I2AI2IIIII2IIAAAAAAAAAA2AIAI2AAAAAAAAAA2AI2
IIIIAIAIAI2IIIIAI2II2I2AIAI2III2IIAAAAAAAAAA2AIAI2AAAAAAAAAA2AI2
IIIIAIAIAI2IIIIAI2II2I2AIAI2AI22IIAAAAAAAAAA2AIAI2AAAAAAAAAA2AI2
IIIIAIAIAI2IIIIAI2II2I2AAA22AI22IIAAAAAAAAAA2AIAI2AAAAAAAAAA2AI2
IIIIAIAAA22IIIIAI2II2I2AAA22AI22IIAAAAAAAAAA2AIAI2AAAAAAAAAA2AI2
IIIIAIAAA22IIIIAI2II2A2AAA22AI22IIAAAAAAAAAA2AIAI2AAAAAAAAAA2AI2
IIIIAIAAA22IIIIAI2II2A2AAA22AI22AIAAAAAAAAAA2AIAI2AAAAAAAAAA2AI2
IIIIAIAAA22IIIIAI2II2A2AAA2AA222AIAAAAAAAAAA2AIAI2AAAAAAAAAA2AI2
IIIIAIAAA22IIIIAI2II2A2AAA2AAA22AIAAAAAAAAAA2AIAI2AAAAAAAAAA2AI2
IIIIAIAAAA22IIIAI2II2A2AAA2AAA22AIAAAAAAAAAA2AIAI2AAAAAAAAAA2AI2
IIIIAIAAAA22IIIAI2II2A2AAA2AAA22AAAAAAAAAAAA2AIAI2AAAAAAAAAA2AI2
IIIIAIAAAA22IIIAI2IIAA2AAA2AAA22AAAAAAAAAAAA2AIAI2AAAAAAAAAA2AI2
IIIIAIAAAA22IIIAI2IAAA2AAA2AAA22AAAAAAAAAAAA2AIAI2AAAAAAAAAA2AI2
IIIIAIAAAA22IIIAI2IAAA2AAA2AAAA2AAAAAAAAAAAA2AIAI2AAAAAAAAAA2AI2
IIIIAIAAAA22IIIAI2IAAA2AAAAAAAA2AAAAAAAAAAAA2AIAI2AAAAAAAAAA2AI2
IIIIAAAAAA22IIIAI2IAAA2AAAAAAAA2AAAAAAAAAAAA2AIAI2AAAAAAAAAA2AI2
IIIIAAAAAA22IIIAI2IAAA2AAAAAAAAAAAAAAAAAAAAA2AIAI2AAAAAAAAAA2AI2
IIIIAAAAAA22IIIAI2IAAAAAAAAAAAAAAAAAAAAAAAAA2AIAI2AAAAAAAAAA2AI2
IIIIAAAAAA2AI2IAI2IAAAAAAAAAAAAAAAAAAAAAAAAA2AIAI2AAAAAAAAAA2AI2
IIIIAAAAAA2AIAIAI2IAAAAAAAAAAAAAAAAAAAAAAAAA2AIAI2AAAAAAAAAA2AI2
IIIIAAAAAA2AIAIAI2IAAAAAAAAAAAAAAAAAAAAAAAAA2AIAI2AAAAAAAAAA2AIA
IIIIAAAAAA2AIAIAI2IAAAAAAAAAAAAAAAAAAAAAAAAA2AIAIAAAAAAAAAAA2AIA
IIIIAAAAAA2AIAIAI2IAAAAAAAAAAAAAAAAAAAAAAAAA2AIAIAAAAAAAAAAA2AAA
IIAIAAAAAA2AIAIAI2IAAAAAAAAAAAAAAAAAAAAAAAAA2AIAIAAAAAAAAAAA2AAA
IIA1AAAAAA1A2A2A22IAAAAAAAAAAAAAAAAAAAAAAAAA2AIAIAAAAAAAAAAA2AAA
IAA1AAAAAA1A2A2A22IAAAAAAAAAAAAAAAAAAAAAAAAA2AIAIAAAAAAAAAAA2AAA
IAAAAAAAAA1A2A2A22IAAAAAAAAAAAAAAAAAAAAAAAAA2AIAIAAAAAAAAAAA2AAA
2AAAAAAAAA1A2A2A22IAAAAAAAAAAAAAAAAAAAAAAAAA2AIAIAAAAAAAAAAA2AAA
2AAAAAAAAA1A2A2A22IAAAAAAAAAAAAAAAAAAAAAAAAA1A1A1AAAAAAAAAAA2AAA
2AAAAAAAAA1A2A2A22IAAAAAAAAAAAAAAAAAAAAAAAAA1A1A1AAAAAAAAAAA1AAA
2AAAAAAAAA1A2A2A122AAAAAAAAAAAAAAAAAAAAAAAAA1A1A1AAAAAAAAAAA1AAA
2AAAAAAAAA1A1A2A122AAAAAAAAAAAAAAAAAAAAAAAAA1A1A1AAAAAAAAAAA1AAA
2AAAAAAAAA1A1A1A122AAAAAAAAAAAAAAAAAAAAAAAAA1A1A1AAAAAAAAAAA1AAA
2AAAAAAAAA1A1A1A111AAAAAAAAAAAAAAAAAAAAAAAAA1A1A1AAAAAAAAAAA1AAA
IIAI1IIIIIIIIIIIIIIIIIIIIIIIIIIIIIIIIIIIIIIIIIIIIIIIIIIIIIIIIIII
IIAI1IIIIIIIIIIIIIIIIIIIIIIIIIIIIIIIIAIIIIIIIIIIIIIIIIIIIIIIIIII
IIAI1IIIIIIIIIIIIIIIIIIIIIIIIIIIIIIIIAAIIIIIIIIIIIIIIIIIIIIIIIII
IIAI1IIIIIIIIIIIIIIIIIIIIIIIIIIIIIAIIAAIIIIIIIIIIIIIIIIIIIIIIIII
IIAI1IIIIIIIIIIIIIIIIIIIIIIIIIIIIIAIIAAIIIIAIIIIIIIIIIIIIIIIIIII
IIAI1IIIIIIIIIIIIIIIIIIIIIIIIIIIIIAIAAAIIIIAIIIIIIIIIIIIIIIIIIII
IIAI1IIIIIIIIIIIIIIIIIIIIIIIIIIIIIAIAAAAIIIAIIIIIIIIIIIIIIIIIIII
IIAI1IIIIIIIIIIIIIIIIIIIIIIIIIIIIIAIAAAAIIIAIIIIIIIIIAIIIIIIIIII
IIAI1IIIIIIIIIIIIIIIIIIIIIIIIIIIIIAIAAAAIIIAIIIIIIIIIAIIIIIIIIAI
IIAI1IIIIIIIIIIIIIIIIIIIIIIIIIIIIIAIAAAAIIIAIIIIIIIIIAIIIIIAIIAI
IIAI1IIIIIIIIIIIIIIIIIIIIIIIIIIIIIAIAAAAIIIAIIIIIIIIIAIIIAIAIIAI
IIAI1IIIIIIIIIIIIIIIIIIIIIIIIIIIIIAIAAAAIIAAIIIIIIIIIAIIIAIAIIAI
IIA111111111111111IIIIIIIIIIIIIIIIAIAAAAIIAAIIIIIIIIIAIIIAIAIIAI
IIA111111111111111IIIIIIIIIIIIIIIIA1AAAA11AA111111IIIAIIIAIAIIAI
IIA111111111111111IIIIIIIIIIIIIIIIA1AAAA11AA111111111AIIIAIAIIAI
IIA111111111111111IIIIIIIIIIIIIIIIA1AAAA11AA111111111AIIAA1A11A1
IIA111111111111111IIIIIIIIIIIIIIIIA1AAAA11AA111111111A11AA1A11A1
IIA111111111111111IIIIIIIIIIIIIIIIA1AAAA11AA1111111A1A11AA1A11A1
IIA111111111111111IIIIIIIIIIIIIIIIA1AAAA11AA1111111A1A1AAA1A11A1
IIA111111111111111IIIIIIIIIIIIIIIIA1AAAA11AA1A11111A1A1AAA1A11A1
IIA111111111111111IIIIIIIIIIIIIIIIA1AAAA11AA1A11111A1A1AAAAA11A1
IIA111111111111111IIIIIIIIIIIIIIIIAAAAAA11AA1A11111A1A1AAAAA11A1
IIA111111111111111IIIIIIIIIIIIIIIIAAAAAA11AA1A1111AA1A1AAAAA11A1
IIA111111111111111IIIIIIIIIIIIIIIIAAAAAA1AAA1A1111AA1A1AAAAA11A1
IIA111111111111111IIIIIIIIIIIIIIIIAAAAAA1AAA1A1111AA1A1AAAAA1AA1
IIA111111111111111IIIIIIIIIIIIIIIIAAAAAA1AAA1A1111AA1AAAAAAA1AA1
IIA111111111111111IIIIIIIIIIIIIIIIAAAAAA1AAA1A1111AAAAAAAAAA1AA1
IIA111111111111111IIIIIIIIIIIIIIIIAAAAAA1AAA1A1A11AAAAAAAAAA1AA1
IIA111111111111111IIIIIIIIIIIIIIIIAAAAAAAAAA1A1A11AAAAAAAAAA1AA1
IIA1A1111111111111IIIIIIIIIIIIIIIIAAAAAAAAAA1A1A11AAAAAAAAAA1AA1
IIA1A1A11111111111IIIIIIIIIIIIIIIIAAAAAAAAAA1A1A11AAAAAAAAAA1AA1
IIA1A1A11111111A112IIIIIIIIIIIIIIIAAAAAAAAAA1A1A11AAAAAAAAAA1AA1
IIA1A1A1A111111A112IIIIIIIIIIIIIIIAAAAAAAAAA1A1A11AAAAAAAAAA1AA1
IIA1A1A1A111111A112IIIIA122IIIIIIIAAAAAAAAAA1A1A11AAAAAAAAAA1AA1
IIA1A1A1A111111A112IIIIA1A122IIIIIAAAAAAAAAA1A1A11AAAAAAAAAA1AA1
IIA1A1A1A111111A112IIIIA1A12A122IIAAAAAAAAAA1A1A11AAAAAAAAAA1AA1
IIA1A1A1A111111A112IIIIAAA12A122IIAAAAAAAAAA1A1A11AAAAAAAAAA1AA1
IIA1A1AAA111111A112IIIIAAA12A122IIAAAAAAAAAA1A1A11AAAAAAAAAA1AA1
IIA1A1AAA111111A112IIA1AAA12A122IIAAAAAAAAAA1A1A11AAAAAAAAAA1AA1
IIA1A1AAA111111A112IIA1AAA12A122A1AAAAAAAAAA1A1A11AAAAAAAAAA1AA1
IIA1A1AAA111111A112IIA1AAA1AA122A1AAAAAAAAAA1A1A11AAAAAAAAAA1AA1
IIA1A1AAA111111A112IIA1AAA1AAA12A1AAAAAAAAAA1A1A11AAAAAAAAAA1AA1
IIA1A1AAAA11111A112IIA1AAA1AAA12A1AAAAAAAAAA1A1A11AAAAAAAAAA1AA1
IIA1A1AAAA11111A112IIA1AAA1AAA12AAAAAAAAAAAA1A1A11AAAAAAAAAA1AA1
IIA1A1AAAA11111A112IAA1AAA1AAA12AAAAAAAAAAAA1A1A11AAAAAAAAAA1AA1
IIA1A1AAAA11111A112AAA1AAA1AAA12AAAAAAAAAAAA1A1A11AAAAAAAAAA1AA1
IIA1A1AAAA11111A112AAA1AAA1AAAA1AAAAAAAAAAAA1A1A11AAAAAAAAAA1AA1
IIA1A1AAAA11111A112AAA1AAAAAAAA1AAAAAAAAAAAA1A1A11AAAAAAAAAA1AA1
IIA1AAAAAA11111A112AAA1AAAAAAAA1AAAAAAAAAAAA1A1A11AAAAAAAAAA1AA1
IIA1AAAAAA11111A112AAA1AAAAAAAAAAAAAAAAAAAAA1A1A11AAAAAAAAAA1AA1
IIA1AAAAAA11111A112AAAAAAAAAAAAAAAAAAAAAAAAA1A1A11AAAAAAAAAA1AA1
IIA1AAAAAA1A111A112AAAAAAAAAAAAAAAAAAAAAAAAA1A1A11AAAAAAAAAA1AA1
IIA1AAAAAA1A1A1A112AAAAAAAAAAAAAAAAAAAAAAAAA1A1A11AAAAAAAAAA1AA1
IIA1AAAAAA1A1A1A112AAAAAAAAAAAAAAAAAAAAAAAAA1A1A11AAAAAAAAAA1AAA
IIA1AAAAAA1A1A1A112AAAAAAAAAAAAAAAAAAAAAAAAA1A1A1AAAAAAAAAAA1AAA
IAA1AAAAAA1A1A1A112AAAAAAAAAAAAAAAAAAAAAAAAA1A1A1AAAAAAAAAAA1AAA
IAAAAAAAAA1A1A1A112AAAAAAAAAAAAAAAAAAAAAAAAA1A1A1AAAAAAAAAAA1AAA
IIIIIIIIIIIIIIIIIIII2III2IIIIIIIIIAI2IIIIIIIIIIIIIIIIIIIIIIIIIII
IIIIIIIIIIIIIIIIIIII2I2I2I2IIIIIIIAIAI2IIIIIIIIIIIIIIIIIIIIIIIII
IIIIIIIIIIIIIIIIIIII2I2I2I2IIII2IIA2AI2IIIIIIAI2IIIIIIIIIIIIIIII
IIIIIIIIIIIIIIIIIIII2I2I2I2IIII2IIA2AI22III2IAI2IIIIIAI2IIIIIIII
IIIIIIIIIIIIIIIIIIII2I2I2I2IIII2IIA2AI22III2IAI2I2IIIAI2IIIAI2II
IIIIIIIIIIIIIIIIIIII2I2I2I2IIII2IIA2AI22I2I2IAI2I2IIIAIAI2IAI2II
IIIIIIIIIIIIIIIIIIII2I2I222II2I2IIA2AI2AI2I2IAI2I2IIIAIAI2IAI2II
IIIIIIIIIIIIIIIIIIII2I2I222II2I2IIA2AI2AI2I2IAI2I2IIIAIAIAIAI2II
IIIIIIIIIIIIIIIIIIII2I2I222II2I2IIA2AI2AI2I22AI222IIIAIAIAAA22II
IIIIIIIIIIIIIIIIIIII2I2I222II2I2IIA2AI2AI2222A2222IIIAIAAAAA22II
IIIIIIIIIIIIIIIIIIII2I2I222II2I2I2A2AI2AI22A2A2222IIIAIAAAAA22II
IIIIIIIIIIIIIIIIIIII222I222II2I2I2AAA22AI22A2A2222IIIAIAAAAA22II
IIIIIIIIIIIIIIIIIIII222I222I22I2I2AAA2AA222A2A2222IIIAIAAAAA22II
IIIIIIIIIIIIIIIIIIII222I222I22I2I2AAA2AA222A2A2222AI2AIAAAAA22II
IIIIIIIIIIIIIIIIIIII222I222222I2I2AAA2AA2A2A2A2222AI2AIAAAAA22II
IIIIIIIIIIIIIIIIIIII222I222222I222AAA2AA2AAA2A2222AI2AIAAAAA22II
IIIIIIIIIIIIIIIIIIII2222222222I222AAAAAA2AAA2A2222AI2AIAAAAA22II
IIIIIIIIIIIIIIIIIIII2222222222I222AAAAAA2AAA2A2222A22AIAAAAA2AI2
IIIIIIIIIIIIIIIIIIII2222222222I222AAAAAA2AAA2A2222A22AAAAAAA2AI2
IIIIIIIIIIIIIIIIIIII2222222222I222AAAAAA2AAA2A2222AA2AAAAAAA2AI2
IIIIIIIIIIIIIIIIIIII2222222222I222AAAAAA2AAA2A2222AAAAAAAAAA2AI2
IIIIIIIIIIIIIIIIIIII2222222222I222AAAAAA2AAA2A2A22AAAAAAAAAA2AI2
IIIIIIIIIIIIIIIIIIII22222222222222AAAAAAAAAA2A2A22AAAAAAAAAA2AI2
IIIIAI2IIIIIIIIIIIII22222222222222AAAAAAAAAA2A2A22AAAAAAAAAA2AI2
IIIIAIAI2I2IIIIIIIII22222222222222AAAAAAAAAA2A2A22AAAAAAAAAA2AI2
IIIIA2A22I2IIIIAI2I222222222222222AAAAAAAAAA2A2A22AAAAAAAAAA2AI2
2IIIA2A2AI2I2IIAI2I222222222222222AAAAAAAAAA2A2A22AAAAAAAAAA2AI2
2IIIA2A2AI2I22IAI2I2222A2222222222AAAAAAAAAA2A2A22AAAAAAAAAA2AI2
2IIIA2A2AI2I22IAI2I2222A2A22222222AAAAAAAAAA2A2A22AAAAAAAAAA2AI2
2IIIA2A2AI2I22IAI222222A2A22A22222AAAAAAAAAA2A2A22AAAAAAAAAA2AI2
2IIIA2A2AI2I222A2222222AAA22A22222AAAAAAAAAA2A2A22AAAAAAAAAA2AI2
2IIIA2AAA222222A2222222AAA22A22222AAAAAAAAAA2A2A22AAAAAAAAAA2AI2
2IIIA2AAA222222A22222A2AAA22A22222AAAAAAAAAA2A2A22AAAAAAAAAA2AI2
2IIIA2AAA222222A22222A2AAA22A222A2AAAAAAAAAA2A2A22AAAAAAAAAA2AI2
2IIIA2AAA222222A22222A2AAA2AA222A2AAAAAAAAAA2A2A22AAAAAAAAAA2AI2
2IIIA2AAA222222A22222A2AAA2AAA22A2AAAAAAAAAA2A2A22AAAAAAAAAA2AI2
22IIA2AAAA22222A22222A2AAA2AAA22A2AAAAAAAAAA2A2A22AAAAAAAAAA2AI2
22IIA2AAAA22222A22222A2AAA2AAA22AAAAAAAAAAAA2A2A22AAAAAAAAAA2AI2
22IIA2AAAA22222A2222AA2AAA2AAA22AAAAAAAAAAAA2A2A22AAAAAAAAAA2AI2
22IIA2AAAA22222A222AAA2AAA2AAA22AAAAAAAAAAAA2A2A22AAAAAAAAAA2AI2
22IIA2AAAA22222A222AAA2AAA2AAAA2AAAAAAAAAAAA2A2A22AAAAAAAAAA2AI2
22IIA2AAAA22222A222AAA2AAAAAAAA2AAAAAAAAAAAA2A2A22AAAAAAAAAA2AI2
22IIAAAAAA22222A222AAA2AAAAAAAA2AAAAAAAAAAAA2A2A22AAAAAAAAAA2AI2
22IIAAAAAA22222A222AAA2AAAAAAAAAAAAAAAAAAAAA2A2A22AAAAAAAAAA2AI2
22IIAAAAAA22222A222AAAAAAAAAAAAAAAAAAAAAAAAA2A2A22AAAAAAAAAA2AI2
22I2AAAAAA2A222A222AAAAAAAAAAAAAAAAAAAAAAAAA2A2A22AAAAAAAAAA2AI2
22I2AAAAAA2A2A2A222AAAAAAAAAAAAAAAAAAAAAAAAA2A2A22AAAAAAAAAA2AI2
22I2AAAAAA2A2A2A222AAAAAAAAAAAAAAAAAAAAAAAAA2A2A22AAAAAAAAAA2AIA
22I2AAAAAA2A2A2A222AAAAAAAAAAAAAAAAAAAAAAAAA2A2A2AAAAAAAAAAA2AIA
22I2AAAAAA2A2A2A222AAAAAAAAAAAAAAAAAAAAAAAAA2A2A2AAAAAAAAAAA2A2A
22I2AAAAAA2A2A2A222AAAAAAAAAAAAAAAAAAAAAAAAA2A2A2AAAAAAAAAAA2AAA
22A2AAAAAA2A2A2A222AAAAAAAAAAAAAAAAAAAAAAAAA2A2A2AAAAAAAAAAA2AAA
22A1AAAAAA1A1A1A111AAAAAAAAAAAAAAAAAAAAAAAAA2A2A2AAAAAAAAAAA2AAA
2AIIIIIIIIIIIIIIIIIIIIIIIIIIIIIIIIIIIIIIIIIIIIIIIIIIIIIIIIIIIIII
2A2AIIIIIIIIIIIIIIIIIIIIIIIIIIIIIIIIIIIIIIIIIIIIIIIIIIIIIIIIIIII
2AAA1IIIIIIIIIIIIIIIIIIIIIIIIIIIIIIIIIIIIIIIIIIIIIIIIIIIIIIIIIII
2AAA1IIIIIIIIIIIIIIIIII2III2IIIIIIIIIAI1IIIIIIIIIIIIIIIIIIIIIIII
2AAA1IIIIIIIIIIIIIIIIII22II22IIIIIIIIAA11IIIIIIIIIIIIIIIIIIIIIII
2AAA1IIIIIIIIIIIIIII2II22II22IIIIIAI1AA11IIIIIIIIIIIIIIIIIIIIIII
2AAA1IIIIIIIIIIIIIII2II22II22IIIIIAI1AA11IIAI1IIIIIIIIIIIIIIIIII
2AAA1IIIIIIIIIIIIIII2II22II22IIIIIAIAAA11IIAI1IIIIIIIIIIIIIIIIII
2AAA1IIIIIIIIIIIIIII2II22II22IIIIIAIAAA11IIAI1IIIIIIIAIIIIIIIIII
2AAA1IIIIIIIIIIIIIII2II22II22IIIIIAIAAA11IIAI1IIIIIIIAIIIIIIIIAI
2AAA1IIIIIIIIIIIIIII2II22II22IIIIIAIAAAA1IIAI1IIIIIIIAIIIIIIIIAI
2AAA1IIIIIIIIIIIIIII2II22II22IIIIIAIAAAA1IIAI1IIIIIIIAIIIIIAI1AI
2AAA1IIIIIIIIIIIIIII2II22II22IIIIIAIAAAA1IIAI1IIIIIIIAI1IIIAI1AI
2AAA1IIIIIIIIIIIIIII2II22II22IIIIIAIAAAA1IIAI1I2IIIIIAI1IAIAI1AI
2AAA1IIIIIIIIIIIIIII2II22II22III2IAIAAAA1IAA11I2IIIIIAI1IAIAI1AI
2AAA1IIIIIIIIIIIIIII2I222I222III2IAIAAAA1IAA11I2IIIIIAI1IAIAI1AI
2AAA1IIIIIIIIIIIIIII2I222I222III2IA1AAAA11AA1111111IIAI1IAIAI1AI
2AAA1IIIIIIIIIIIIIII2I222I222III2IA1AAAA11AA111111111AI1IAIAI1AI
2AAA1IIIIIIIIIIIIIII2I222I222III2IA1AAAA11AA111111111AI1AA1A11A1
2AAA1IIIIIIIIIIIIIII2I222I222III2IA1AAAA11AA111111111A11AA1A11A1
2AAA1IIIIIIIIIIIIIII2I222I222III2IA1AAAA11AA1111111A1A11AA1A11A1
2AAA1IIIIIIIIIIIIIII2I222I222III2IA1AAAA11AA1111111A1A1AAA1A11A1
2AAA1IIIIIIIIIIIIIII2I222I222III2IA1AAAA11AA1A11111A1A1AAA1A11A1
2AAA1IIIIIIIIIIIIIII2I222I222III2IA1AAAA11AA1A11111A1A1AAAAA11A1
2AAA1IIIIIIIIIIIIIII2I222I222III2IAAAAAA11AA1A11111A1A1AAAAA11A1
2AAA1IIIIIIIIIIIIIII2I222I222III2IAAAAAA11AA1A1111AA1A1AAAAA11A1
2AAA1IIIIIIIIIIIIIII2I222I222III2IAAAAAA1AAA1A1111AA1A1AAAAA11A1
2AAA1IIIIIIIIIIIIIII2I222I222III2IAAAAAA1AAA1A1111AA1A1AAAAA1AA1
2AAA1IIIIIIIIIIIIIII2I222I222III2IAAAAAA1AAA1A1111AA1AAAAAAA1AA1
2AAA1IIIIIIIIIIIIIII2I222I222III2IAAAAAA1AAA1A1111AAAAAAAAAA1AA1
2AAA1IIIIIIIIIIIIIII2I222I222III2IAAAAAA1AAA1A1A11AAAAAAAAAA1AA1
2AAA1IIIIIIIIIIIIIII2I222I222III2IAAAAAAAAAA1A1A11AAAAAAAAAA1AA1
2AAAA1222IIIIIIIIIII2I222I222III2IAAAAAAAAAA1A1A11AAAAAAAAAA1AA1
2AAAA1A1222IIIIIIIII2I222I222III2IAAAAAAAAAA1A1A11AAAAAAAAAA1AA1
2AAAA1A1222IIIIA12222I222I222III2IAAAAAAAAAA1A1A11AAAAAAAAAA1AA1
2AAAA1A1A1222IIA12222I222I222III2IAAAAAAAAAA1A1A11AAAAAAAAAA1AA1
2AAAA1A1A1222IIA12222I2A12222III2IAAAAAAAAAA1A1A11AAAAAAAAAA1AA1
2AAAA1A1A1222IIA12222I2A1A1222II2IAAAAAAAAAA1A1A11AAAAAAAAAA1AA1
2AAAA1A1A1222IIA12222I2A1A12A1222IAAAAAAAAAA1A1A11AAAAAAAAAA1AA1
2AAAA1A1A1222IIA12222I2AAA12A1222IAAAAAAAAAA1A1A11AAAAAAAAAA1AA1
2AAAA1AAA1222IIA12222I2AAA12A1222IAAAAAAAAAA1A1A11AAAAAAAAAA1AA1
2AAAA1AAA1222IIA12222A1AAA12A1222IAAAAAAAAAA1A1A11AAAAAAAAAA1AA1
2AAAA1AAA1222IIA12222A1AAA12A122A1AAAAAAAAAA1A1A11AAAAAAAAAA1AA1
2AAAA1AAA1222IIA12222A1AAA1AA122A1AAAAAAAAAA1A1A11AAAAAAAAAA1AA1
2AAAA1AAA1222IIA12222A1AAA1AAA12A1AAAAAAAAAA1A1A11AAAAAAAAAA1AA1
2AAAA1AAAA1222IA12222A1AAA1AAA12A1AAAAAAAAAA1A1A11AAAAAAAAAA1AA1
2AAAA1AAAA1222IA12222A1AAA1AAA12AAAAAAAAAAAA1A1A11AAAAAAAAAA1AA1
2AAAA1AAAA1222IA1222AA1AAA1AAA12AAAAAAAAAAAA1A1A11AAAAAAAAAA1AA1
2AAAA1AAAA1222IA122AAA1AAA1AAA12AAAAAAAAAAAA1A1A11AAAAAAAAAA1AA1
2AAAA1AAAA1222IA122AAA1AAA1AAAA1AAAAAAAAAAAA1A1A11AAAAAAAAAA1AA1
2AAAA1AAAA1222IA122AAA1AAAAAAAA1AAAAAAAAAAAA1A1A11AAAAAAAAAA1AA1
2AAAAAAAAA1222IA122AAA1AAAAAAAA1AAAAAAAAAAAA1A1A11AAAAAAAAAA1AA1
2AAAAAAAAA1222IA122AAA1AAAAAAAAAAAAAAAAAAAAA1A1A11AAAAAAAAAA1AA1
2AAAAAAAAA1222IA122AAAAAAAAAAAAAAAAAAAAAAAAA1A1A11AAAAAAAAAA1AA1
2AAAAAAAAA1A122A122AAAAAAAAAAAAAAAAAAAAAAAAA1A1A11AAAAAAAAAA1AA1
2AAAAAAAAA1A1A1A122AAAAAAAAAAAAAAAAAAAAAAAAA1A1A11AAAAAAAAAA1AA1
2AAAAAAAAA1A1A1A122AAAAAAAAAAAAAAAAAAAAAAAAA1A1A11AAAAAAAAAA1AAA
2AAAAAAAAA1A1A1A122AAAAAAAAAAAAAAAAAAAAAAAAA1A1A1AAAAAAAAAAA1AAA
2AIIIIIIIIIIIIIIIIIIIIIIIIIIIIIIIIIIIIIIIIIIIIIIIIIIIIIIIIIIIIII
2A2AIIIIIIIIIIIIIIIIIIIIIIIIIIIIIIIIIIIIIIIIIIIIIIIIIIIIIIIIIIII
2A2AIIIIIIIIIIIIIIIIIIII2IIIIIIIIIAI1IIIIIIIIIIIIIIIIIIIIIIIIIII
2A2AIIIIIIIIIIIIIIIIIIII2I2IIIIIIIAIAI1IIIIIIIIIIIIIIIIIIIIIIIII
2A2AIIIIIIIIIIIIIIIIIIII2I2IIIIIIIA2AI1IIIIIIAI1IIIIIIIIIIIIIIII
2A2AIIIIIIIIIIIIIIIIIIII2I2IIIIIIIA2AI1IIII2IAI1IIIIIAI1IIIIIIII
2A2AIIIIIIIIIIIIIIIIIIII2I2IIIIIIIA2AI1IIII2IAI1I2IIIAI1IIIAI1II
2A2AIIIIIIIIIIIIIIIIIIII2I2IIIIIIIA2AI1IIII2IAI1I2IIIAIAI1IAI1II
2A2AIIIIIIIIIIIIIIIIIIII2I2II2IIIIA2AI1AI1I2IAI1I2IIIAIAI1IAI1II
2A2AIIIIIIIIIIIIIIIIIIII2I2II2IIIIA2AI1AI1I2IAI1I2IIIAIAIAIAI1II
2A2AIIIIIIIIIIIIIIIIIIII2I2II2IIIIA2AI1AI1I2IAI122IIIAIAIAAA11II
2A2AIIIIIIIIIIIIIIIIIIII2I2II2IIIIA2AI1AI1I2IA2122IIIAIAAAAA11II
2A2AIIIIIIIIIIIIIIIIIIII2I2II2III2A2AI1AI1IAIA2122IIIAIAAAAA11II
2A2AIIIIIIIIIIIIIIIIIIII222II2III2AAA11AI1IAIA2122IIIAIAAAAA11II
2A2AIIIIIIIIIIIIIIIIIIII222I22III2AAA1AA11IAIA2122IIIAIAAAAA11II
2A2AIIIIIIIIIIIIIIIIIIII222I22III2AAA1AA11IAIA2122AI1AIAAAAA11II
2A2AIIIIIIIIIIIIIIIIIIII222I22I2I2AAA1AA1AIAIA2122AI1AIAAAAA11II
2A2AIIIIIIIIIIIIIIIIIIII222I22I222AAA1AA1AAA1A2122AI1AIAAAAA11II
2A2AIIIIIIIIIIIIIIIIIIII222222I222AAAAAA1AAA1A2122AI1AIAAAAA11II
2A2AIIIIIIIIIIIIIIIIIIII222222I222AAAAAA1AAA1A2122A21AIAAAAA1AI1
2A2AIIIIIIIIIIIIIIIIIIII222222I222AAAAAA1AAA1A2122A21AAAAAAA1AI1
2A2AIIIIIIIIIIIIIIIIIIII222222I222AAAAAA1AAA1A2122AA1AAAAAAA1AI1
2A2AIIIIIIIIIIIIIIIIIIII222222I222AAAAAA1AAA1A2122AAAAAAAAAA1AI1
2A2AIIIIIIIIIIIIIIIIIIII222222I222AAAAAA1AAA1A2A21AAAAAAAAAA1AI1
2A2AIIIIIIIIIIIIIIIIIIII2222222222AAAAAAAAAA1A2A21AAAAAAAAAA1AI1
2A2AAI1IIIIIIIIIIIIIIIII2222222222AAAAAAAAAA1A2A21AAAAAAAAAA1AI1
2A2AAIAI1IIIIIIIIIIIIIII2222222222AAAAAAAAAA1A2A21AAAAAAAAAA1AI1
2A2AA2AI1IIIIIIAI1IIIIII2222222222AAAAAAAAAA1A2A21AAAAAAAAAA1AI1
2A2AA2AIAI1IIIIAI1IIIIII2222222222AAAAAAAAAA1A2A21AAAAAAAAAA1AI1
2A2AA2AIAI1II2IAI1IIIIIA2122222222AAAAAAAAAA1A2A21AAAAAAAAAA1AI1
2A2AA2AIAI1II2IAI1IIIIIA2A21222222AAAAAAAAAA1A2A21AAAAAAAAAA1AI1
2A2AA2AIAI1II2IAI12IIIIA2A21A21222AAAAAAAAAA1A2A21AAAAAAAAAA1AI1
2A2AA2AIAI1II22AI12IIIIAAA11A21222AAAAAAAAAA1A2A21AAAAAAAAAA1AI1
2A2AA2AAA11II22AI12IIIIAAA11A21222AAAAAAAAAA1A2A21AAAAAAAAAA1AI1
2A2AA2AAA112I22AI12IIAIAAA11A21222AAAAAAAAAA1A2A21AAAAAAAAAA1AI1
2A2AA2AAA112I22AI12IIA2AAA11A212A2AAAAAAAAAA1A2A21AAAAAAAAAA1AI1
2A2AA2AAA112I22AI12IIA2AAA1AA112A2AAAAAAAAAA1A2A21AAAAAAAAAA1AI1
2A2AA2AAA112I22AI122IA2AAA1AAA11A2AAAAAAAAAA1A2A21AAAAAAAAAA1AI1
2A2AA2AAAA11I22AI122IA2AAA1AAA11A2AAAAAAAAAA1A2A21AAAAAAAAAA1AI1
2A2AA2AAAA11I22AI122IA2AAA1AAA11AAAAAAAAAAAA1A2A21AAAAAAAAAA1AI1
2A2AA2AAAA11I22AI122AA1AAA1AAA11AAAAAAAAAAAA1A2A21AAAAAAAAAA1AI1
2A2AA2AAAA11I22AI12AAA1AAA1AAA11AAAAAAAAAAAA1A2A21AAAAAAAAAA1AI1
2A2AA2AAAA11I22AI12AAA1AAA1AAAA1AAAAAAAAAAAA1A2A21AAAAAAAAAA1AI1
2A2AA2AAAA11I22A212AAA1AAAAAAAA1AAAAAAAAAAAA1A2A21AAAAAAAAAA1AI1
2A2AAAAAAA11I22A212AAA1AAAAAAAA1AAAAAAAAAAAA1A2A21AAAAAAAAAA1AI1
2A2AAAAAAA11I22A212AAA1AAAAAAAAAAAAAAAAAAAAA1A2A21AAAAAAAAAA1AI1
2A2AAAAAAA11222A212AAAAAAAAAAAAAAAAAAAAAAAAA1A2A21AAAAAAAAAA1AI1
2A2AAAAAAA1A212A212AAAAAAAAAAAAAAAAAAAAAAAAA1A2A21AAAAAAAAAA1AI1
2A2AAAAAAA1A2A2A212AAAAAAAAAAAAAAAAAAAAAAAAA1A2A21AAAAAAAAAA1AI1
2A2AAAAAAA1A2A2A212AAAAAAAAAAAAAAAAAAAAAAAAA1A2A21AAAAAAAAAA1AIA
2A2AAAAAAA1A2A2A212AAAAAAAAAAAAAAAAAAAAAAAAA1A2A2AAAAAAAAAAA1AIA
2A2AAAAAAA1A2A2A212AAAAAAAAAAAAAAAAAAAAAAAAA1A2A2AAAAAAAAAAA1AAA
2AAAAAAAAA1A2A2A212AAAAAAAAAAAAAAAAAAAAAAAAA1A2A2AAAAAAAAAAA1AAA
I2AIIII2IIIIIIIIIIIIIIIIIIIIIIIIIIIIIIIIIIIIIIIIIIIIIIIIIIIIIIII
I2AIIII2IIIIIIIIIIIIIIIIIIIIIIIIIIII2AIIII2IIIIIIIIIIIIIIIIIIIII
I2AIIII2IIIIIIIIIIIIIIIIIIIIIIIIIIII2AAIII22IIIIIIIIIIIIIIIIIIII
I2AIIII2IIIIIIIIIIIIIIIIIIIIIIIIIIII2AAIII2AIIII2IIIIIIIIIIIIIII
I2AIIII2IIIIIIIIIIIIIIIIIIIIIIIII2AI2AA2II2AIIII2IIIIIIIIIIIIIII
I2AIIII2IIIIIIIIIIIIIIIIIIIIIIIII2A2AAA2I22AIIII2IIIIIIIIIIIIIII
I2AIIII2IIIIIIIIIIIIIIIIIIIIIIIII2A2AAA2I22AIIII2III2AIIII2IIIII
I2AIIII2IIIIIIIIIIIIIIIIIIIIIIIII2A2AAA2I22AIIII2III2AIIII2II2AI
I2AIIII2IIIIIIIIIIIIIIIIIIIIIIIII2A2AAAAI22A2III2III2AIIII2II2AI
I2AIIII2IIIIIIIIIIIIIIIIIIIIIIIII2A2AAAAI22A2III2III2AIIII2AI2AI
I2AIIII2IIIIIIIIIIIIIIIIIIIIIIIII2A2AAAAI22A2III2III2AII2A2AI2AI
I2AIIII2IIIIIIIIIIIIIIIIIIIIIIIII2A2AAAAI2AA2II22III2AII2A2AI2AI
I2A11111111111111IIIIIIIIIIIIIIII2A2AAAAI2AA2II22III2AII2A2AI2AI
I2A11111111111111IIIIIIIIIIIIIIII2A2AAAA11AA111111111AII2A2AI2AI
I2A11111111111111IIIIIIIIIIIIIIII2A1AAAA11AA111111111AII2A2AI2AI
I2A11111111111111IIIIIIIIIIIIIIII2A1AAAA11AA111111111AIIAA1A11A1
I2A11111111111111IIIIIIIIIIIIIIII2A1AAAA11AA111111111A11AA1A11A1
I2A11111111111111IIIIIIIIIIIIIIII2A1AAAA11AA1111111A1A11AA1A11A1
I2A11111111111111IIIIIIIIIIIIIIII2A1AAAA11AA1111111A1A1AAA1A11A1
I2A11111111111111IIIIIIIIIIIIIIII2A1AAAA11AA1A11111A1A1AAA1A11A1
I2A11111111111111IIIIIIIIIIIIIIII2A1AAAA11AA1A11111A1A1AAAAA11A1
I2A11111111111111IIIIIIIIIIIIIIII2AAAAAA11AA1A11111A1A1AAAAA11A1
I2A11111111111111IIIIIIIIIIIIIIII2AAAAAA11AA1A1111AA1A1AAAAA11A1
I2A11111111111111IIIIIIIIIIIIIIII2AAAAAA1AAA1A1111AA1A1AAAAA11A1
I2A11111111111111IIIIIIIIIIIIIIII2AAAAAA1AAA1A1111AA1A1AAAAA1AA1
I2A11111111111111IIIIIIIIIIIIIIII2AAAAAA1AAA1A1111AA1AAAAAAA1AA1
I2A11111111111111IIIIIIIIIIIIIIII2AAAAAA1AAA1A1111AAAAAAAAAA1AA1
I2A11111111111111IIIIIIIIIIIIIIII2AAAAAA1AAA1A1A11AAAAAAAAAA1AA1
I2A11111111111111IIIIIIIIIIIIIIII2AAAAAAAAAA1A1A11AAAAAAAAAA1AA1
I2A1A111111111111IIIIIIIIIIIIIIII2AAAAAAAAAA1A1A11AAAAAAAAAA1AA1
I2A1A1A1111111111IIIIIIIIIIIIIIII2AAAAAAAAAA1A1A11AAAAAAAAAA1AA1
I2A1A1A11111111A122IIIIIIIIIIIIII2AAAAAAAAAA1A1A11AAAAAAAAAA1AA1
I2A1A1A1A111111A122IIIIIIIIIIIIII2AAAAAAAAAA1A1A11AAAAAAAAAA1AA1
I2A1A1A1A111111A122IIIIA122IIIIII2AAAAAAAAAA1A1A11AAAAAAAAAA1AA1
I2A1A1A1A111111A122IIIIA1A122IIII2AAAAAAAAAA1A1A11AAAAAAAAAA1AA1
I2A1A1A1A111111A122IIIIA1A12A122I2AAAAAAAAAA1A1A11AAAAAAAAAA1AA1
I2A1A1A1A111111A122IIIIAAA12A122I2AAAAAAAAAA1A1A11AAAAAAAAAA1AA1
I2A1A1AAA111111A122IIIIAAA12A122I2AAAAAAAAAA1A1A11AAAAAAAAAA1AA1
I2A1A1AAA111111A122IIA1AAA12A122I2AAAAAAAAAA1A1A11AAAAAAAAAA1AA1
I2A1A1AAA111111A122IIA1AAA12A122A1AAAAAAAAAA1A1A11AAAAAAAAAA1AA1
I2A1A1AAA111111A122IIA1AAA1AA122A1AAAAAAAAAA1A1A11AAAAAAAAAA1AA1
I2A1A1AAA111111A122IIA1AAA1AAA12A1AAAAAAAAAA1A1A11AAAAAAAAAA1AA1
I2A1A1AAAA11111A122IIA1AAA1AAA12A1AAAAAAAAAA1A1A11AAAAAAAAAA1AA1
I2A1A1AAAA11111A122IIA1AAA1AAA12AAAAAAAAAAAA1A1A11AAAAAAAAAA1AA1
I2A1A1AAAA11111A122IAA1AAA1AAA12AAAAAAAAAAAA1A1A11AAAAAAAAAA1AA1
I2A1A1AAAA11111A122AAA1AAA1AAA12AAAAAAAAAAAA1A1A11AAAAAAAAAA1AA1
I2A1A1AAAA11111A122AAA1AAA1AAAA1AAAAAAAAAAAA1A1A11AAAAAAAAAA1AA1
I2A1A1AAAA11111A122AAA1AAAAAAAA1AAAAAAAAAAAA1A1A11AAAAAAAAAA1AA1
I2A1AAAAAA11111A122AAA1AAAAAAAA1AAAAAAAAAAAA1A1A11AAAAAAAAAA1AA1
I2A1AAAAAA11111A122AAA1AAAAAAAAAAAAAAAAAAAAA1A1A11AAAAAAAAAA1AA1
I2A1AAAAAA11111A122AAAAAAAAAAAAAAAAAAAAAAAAA1A1A11AAAAAAAAAA1AA1
I2A1AAAAAA1A111A122AAAAAAAAAAAAAAAAAAAAAAAAA1A1A11AAAAAAAAAA1AA1
I2A1AAAAAA1A1A1A122AAAAAAAAAAAAAAAAAAAAAAAAA1A1A11AAAAAAAAAA1AA1
I2A1AAAAAA1A1A1A122AAAAAAAAAAAAAAAAAAAAAAAAA1A1A11AAAAAAAAAA1AAA
I2A1AAAAAA1A1A1A122AAAAAAAAAAAAAAAAAAAAAAAAA1A1A1AAAAAAAAAAA1AAA
IAA1AAAAAA1A1A1A122AAAAAAAAAAAAAAAAAAAAAAAAA1A1A1AAAAAAAAAAA1AAA
IAAAAAAAAA1A1A1A122AAAAAAAAAAAAAAAAAAAAAAAAA1A1A1AAAAAAAAAAA1AAA
IIIIIIIIIIIIIIII2IIIIIIIIIIIII2II2AIIIIIIIIIIIIIIIIIIIIIIIIIIIII
IIIIIIIIIIIIIIII2I2IIIIIIIIIII2I22A2AIIIIIIIIIIIIIIIIIIIIIIIIIII
IIIIIIIIIIIIIIII2I2IIIIIIII2II2I22A2AIIII2II2AIIIIIIIIIIIIIIIIII
IIIIIIIIIIIIIIII2I2IIIIIIII2II2I22A2AIIII2II2AIII2II2AIIIIIIIIII
IIIIIIIIIIIIIIII2I2IIIIIIII2II2I22A2AIIII2II2AIII2II2AI2II2AIIII
IIIIIIIIIIIIIIII2I2IIIIIIII2II2I22A2A2III2II2AIII2I22A2AII2AIIII
IIIIIIIIIIIIIIII2I2II2IIIII2II2I22A2A22AI2II2AIII2I22A2AII2AIIII
IIIIIIIIIIIIIIII2I2II2IIIII2II2I22A2A22AI2II2AIII2I22A2A2A2AIIII
IIIIIIIIIIIIIIII2I2II2IIIII2II2I22A2A22A22II2AIII2I22A2A2AAAIIII
IIIIIIIIIIIIIIII2I2II2IIIII2II2I22A2A22A22II2AIII2I22A2AAAAAIIII
IIIIIIIIIIIIIIII2I2II2III2I2II2I22A2A22A222A2AIII2I22A2AAAAAIIII
IIIIIIIIIIIIIIII222II2III2I2II2222AAA22A222A2AIII2I22A2AAAAAIIII
IIIIIIIIIIIIIIII222I22III2I2II2222AAA2AA222A2AIII2I22A2AAAAAIIII
IIIIIIIIIIIIIIII222I22III2I2II2222AAA2AA222A2A2II2A22A2AAAAAIIII
IIIIIIIIIIIIIIII222I22I2I2I2II2222AAA2AA2A2A2A2II2A22A2AAAAAIIII
IIIIIIIIIIIIIIII222I22I222I2II2222AAA2AA2AAA2A2II2A22A2AAAAAIIII
IIIIIIIIIIIIIIII222222I222I2II2222AAAAAA2AAA2A2II2A22A2AAAAAIIII
IIIIIIIIIIIIIIII222222I222I2II2222AAAAAA2AAA2A2II2A22A2AAAAA2AII
IIIIIIIIIIIIIIII222222I222I2II2222AAAAAA2AAA2A2II2A22AAAAAAA2AII
IIIIIIIIIIIIIIII222222I222I2II2222AAAAAA2AAA2A22I2AA2AAAAAAA2AII
IIIIIIIIIIIIIIII222222I222I2II2222AAAAAA2AAA2A2222AAAAAAAAAA2AII
IIIIIIIIIIIIIIII222222I222I2I22222AAAAAA2AAA2A2A22AAAAAAAAAA2AII
IIIIIIIIIIIIIIII2222222222I2I22222AAAAAAAAAA2A2A22AAAAAAAAAA2AII
2II2AIIIIIIIIIII2222222222I2I22222AAAAAAAAAA2A2A22AAAAAAAAAA2AII
2I22A2AIIIIIIIII2222222222I2I22222AAAAAAAAAA2A2A22AAAAAAAAAA2AII
2I22A2AIIII2II2A2222222222I2I22222AAAAAAAAAA2A2A22AAAAAAAAAA2AII
2I22A2A2AII2II2A2222222222I2I22222AAAAAAAAAA2A2A22AAAAAAAAAA2AII
2I22A2A2AII2II2A2222222A22I2I22222AAAAAAAAAA2A2A22AAAAAAAAAA2AII
2I22A2A2AII2II2A2222222A2AI2I22222AAAAAAAAAA2A2A22AAAAAAAAAA2AII
2I22A2A2AI22II2A2222222A2AI2A22222AAAAAAAAAA2A2A22AAAAAAAAAA2AII
2I22A2A2AI22II2A2222222AAAI2A22222AAAAAAAAAA2A2A22AAAAAAAAAA2AII
2I22A2AAAI22II2A2222222AAAI2A22222AAAAAAAAAA2A2A22AAAAAAAAAA2AII
2I22A2AAAI22II2A22222A2AAAI2A22222AAAAAAAAAA2A2A22AAAAAAAAAA2AII
2I22A2AAAI22II2A22222A2AAAI2A222A2AAAAAAAAAA2A2A22AAAAAAAAAA2AII
2I22A2AAA222II2A22222A2AAA2AA222A2AAAAAAAAAA2A2A22AAAAAAAAAA2AII
2I22A2AAA222II2A22222A2AAA2AAA22A2AAAAAAAAAA2A2A22AAAAAAAAAA2AII
2I22A2AAAA22II2A22222A2AAA2AAA22A2AAAAAAAAAA2A2A22AAAAAAAAAA2AII
2I22A2AAAA22II2A22222A2AAA2AAA22AAAAAAAAAAAA2A2A22AAAAAAAAAA2AII
2I22A2AAAA22II2A2222AA2AAA2AAA22AAAAAAAAAAAA2A2A22AAAAAAAAAA2AII
2222A2AAAA22II2A222AAA2AAA2AAA22AAAAAAAAAAAA2A2A22AAAAAAAAAA2AII
2222A2AAAA222I2A222AAA2AAA2AAAA2AAAAAAAAAAAA2A2A22AAAAAAAAAA2AII
2222A2AAAA222I2A222AAA2AAAAAAAA2AAAAAAAAAAAA2A2A22AAAAAAAAAA2AII
2222AAAAAA222I2A222AAA2AAAAAAAA2AAAAAAAAAAAA2A2A22AAAAAAAAAA2AII
2222AAAAAA22222A222AAA2AAAAAAAAAAAAAAAAAAAAA2A2A22AAAAAAAAAA2AII
2222AAAAAA22222A222AAAAAAAAAAAAAAAAAAAAAAAAA2A2A22AAAAAAAAAA2AII
2222AAAAAA2A222A222AAAAAAAAAAAAAAAAAAAAAAAAA2A2A22AAAAAAAAAA2AII
2222AAAAAA2A2A2A222AAAAAAAAAAAAAAAAAAAAAAAAA2A2A22AAAAAAAAAA2AII
2222AAAAAA2A2A2A222AAAAAAAAAAAAAAAAAAAAAAAAA2A2A22AAAAAAAAAA2A2A
2222AAAAAA2A2A2A222AAAAAAAAAAAAAAAAAAAAAAAAA2A2A2AAAAAAAAAAA2A2A
2222AAAAAA2A2A2A222AAAAAAAAAAAAAAAAAAAAAAAAA2A2A2AAAAAAAAAAA2AAA
22A2AAAAAA2A2A2A222AAAAAAAAAAAAAAAAAAAAAAAAA2A2A2AAAAAAAAAAA2AAA
22A1AAAAAA1A1A1A112AAAAAAAAAAAAAAAAAAAAAAAAA2A2A2AAAAAAAAAAA2AAA
2AA1AAAAAA1A1A1A112AAAAAAAAAAAAAAAAAAAAAAAAA2A2A2AAAAAAAAAAA2AAA
2AAAAAAAAA1A1A1A112AAAAAAAAAAAAAAAAAAAAAAAAA2A2A2AAAAAAAAAAA2AAA
2AAAAAAAAA1A1A1A112AAAAAAAAAAAAAAAAAAAAAAAAA1A1A1AAAAAAAAAAA2AAA
2AAAAAAAAA1A1A1A112AAAAAAAAAAAAAAAAAAAAAAAAA1A1A1AAAAAAAAAAA1AAA
IIAIIIIIIIIIIIIIIIIIIIIIIIIIIIIIIIIIIIIIIIIIIIIIIIIIIIIIIIIIIIII
IIAIIIIIIIIIIIIIIIIIIIIIIIIIIIIIIIIIIAIIIIIIIIIIIIIIIIIIIIIIIIII
IIAIIIIIIIIIIIIIIIIIIIIIIIIIIIIIIIIIIAAIIIIIIIIIIIIIIIIIIIIIIIII
IIAIIIIIIIIIIIIIIIIIIIIIIIIIIIIIIIAIIAAIIIIIIIIIIIIIIIIIIIIIIIII
IIAIIIIIIIIIIIIIIIIIIIIIIIIIIIIIIIAIIAAIIIIAIIIIIIIIIIIIIIIIIIII
IIAIIIIIIIIIIIIIIIIIIIIIIIIIIIIIIIAIAAAIIIIAIIIIIIIIIIIIIIIIIIII
IIAIIIIIIIIIIIIIIIIIIIIIIIIIIIIIIIAIAAAIIIIAIIIIIIIIIAIIIIIIIIII
IIAIIIIIIIIIIIIIIIIIIIIIIIIIIIIIIIAIAAAIIIIAIIIIIIIIIAIIIIIIIIAI
IIAIIIIIIIIIIIIIIIIIIIIIIIIIIIIIIIAIAAAAIIIAIIIIIIIIIAIIIIIIIIAI
IIAIIIIIIIIIIIIIIIIIIIIIIIIIIIIIIIAIAAAAIIIAIIIIIIIIIAIIIIIAIIAI
IIAIIIIIIIIIIIIIIIIIIIIIIIIIIIIIIIAIAAAAIIIAIIIIIIIIIAIIIAIAIIAI
IIAIIIIIIIIIIIIIIIIIIIIIIIIIIIIIIIAIAAAAIIAAIIIIIIIIIAIIIAIAIIAI
IIA111111111111IIIIIIIIIIIIIIIIIIIAIAAAAIIAAIIIIIIIIIAIIIAIAIIAI
IIA111111111111IIIIIIIIIIIIIIIIIIIA1AAAA11AA1111122IIAIIIAIAIIAI
IIA111111111111IIIIIIIIIIIIIIIIIIIA1AAAA11AA111111112AIIIAIAIIAI
IIA111111111111IIIIIIIIIIIIIIIIIIIA1AAAA11AA111111112AIIAA1A11A1
IIA111111111111IIIIIIIIIIIIIIIIIIIA1AAAA11AA111111112A11AA1A11A1
IIA111111111111IIIIIIIIIIIIIIIIIIIA1AAAA11AA1111111A1A11AA1A11A1
IIA111111111111IIIIIIIIIIIIIIIIIIIA1AAAA11AA1111111A1A1AAA1A11A1
IIA111111111111IIIIIIIIIIIIIIIIIIIA1AAAA11AA1A11111A1A1AAA1A11A1
IIA111111111111IIIIIIIIIIIIIIIIIIIA1AAAA11AA1A11111A1A1AAAAA11A1
IIA111111111111IIIIIIIIIIIIIIIIIIIAAAAAA11AA1A11111A1A1AAAAA11A1
IIA111111111111IIIIIIIIIIIIIIIIIIIAAAAAA11AA1A1111AA1A1AAAAA11A1
IIA111111111111IIIIIIIIIIIIIIIIIIIAAAAAA1AAA1A1111AA1A1AAAAA11A1
IIA111111111111IIIIIIIIIIIIIIIIIIIAAAAAA1AAA1A1111AA1A1AAAAA1AA1
IIA111111111111IIIIIIIIIIIIIIIIIIIAAAAAA1AAA1A1111AA1AAAAAAA1AA1
IIA111111111111IIIIIIIIIIIIIIIIIIIAAAAAA1AAA1A1111AAAAAAAAAA1AA1
IIA111111111111IIIIIIIIIIIIIIIIIIIAAAAAA1AAA1A1A11AAAAAAAAAA1AA1
IIA111111111111IIIIIIIIIIIIIIIIIIIAAAAAAAAAA1A1A11AAAAAAAAAA1AA1
IIA1A1111111111IIIIIIIIIIIIIIIIIIIAAAAAAAAAA1A1A11AAAAAAAAAA1AA1
IIA1A1A11111111IIIIIIIIIIIIIIIIIIIAAAAAAAAAA1A1A11AAAAAAAAAA1AA1
IIA1A1A11111111A12IIIIIIIIIIIIIIIIAAAAAAAAAA1A1A11AAAAAAAAAA1AA1
IIA1A1A1A111111A12IIIIIIIIIIIIIIIIAAAAAAAAAA1A1A11AAAAAAAAAA1AA1
IIA1A1A1A111111A12IIIIIA12IIIIIIIIAAAAAAAAAA1A1A11AAAAAAAAAA1AA1
IIA1A1A1A111111A12IIIIIA1A12IIIIIIAAAAAAAAAA1A1A11AAAAAAAAAA1AA1
IIA1A1A1A111111A12IIIIIA1A12A12IIIAAAAAAAAAA1A1A11AAAAAAAAAA1AA1
IIA1A1A1A111111A12IIIIIAAA12A12IIIAAAAAAAAAA1A1A11AAAAAAAAAA1AA1
IIA1A1AAA111111A12IIIIIAAA12A12IIIAAAAAAAAAA1A1A11AAAAAAAAAA1AA1
IIA1A1AAA111111A12IIIA1AAA12A12IIIAAAAAAAAAA1A1A11AAAAAAAAAA1AA1
IIA1A1AAA111111A12IIIA1AAA12A12IA1AAAAAAAAAA1A1A11AAAAAAAAAA1AA1
IIA1A1AAA111111A12IIIA1AAA1AA12IA1AAAAAAAAAA1A1A11AAAAAAAAAA1AA1
IIA1A1AAA111111A12IIIA1AAA1AAA12A1AAAAAAAAAA1A1A11AAAAAAAAAA1AA1
IIA1A1AAAA11111A12IIIA1AAA1AAA12A1AAAAAAAAAA1A1A11AAAAAAAAAA1AA1
IIA1A1AAAA11111A12IIIA1AAA1AAA12AAAAAAAAAAAA1A1A11AAAAAAAAAA1AA1
IIA1A1AAAA11111A12IIAA1AAA1AAA12AAAAAAAAAAAA1A1A11AAAAAAAAAA1AA1
IIA1A1AAAA11111A12IAAA1AAA1AAA12AAAAAAAAAAAA1A1A11AAAAAAAAAA1AA1
IIA1A1AAAA11111A12IAAA1AAA1AAAA1AAAAAAAAAAAA1A1A11AAAAAAAAAA1AA1
IIA1A1AAAA11111A12IAAA1AAAAAAAA1AAAAAAAAAAAA1A1A11AAAAAAAAAA1AA1
IIA1AAAAAA11111A12IAAA1AAAAAAAA1AAAAAAAAAAAA1A1A11AAAAAAAAAA1AA1
IIA1AAAAAA11111A12IAAA1AAAAAAAAAAAAAAAAAAAAA1A1A11AAAAAAAAAA1AA1
IIA1AAAAAA11111A12IAAAAAAAAAAAAAAAAAAAAAAAAA1A1A11AAAAAAAAAA1AA1
IIA1AAAAAA1A111A12IAAAAAAAAAAAAAAAAAAAAAAAAA1A1A11AAAAAAAAAA1AA1
IIA1AAAAAA1A1A1A12IAAAAAAAAAAAAAAAAAAAAAAAAA1A1A11AAAAAAAAAA1AA1
IIA1AAAAAA1A1A1A12IAAAAAAAAAAAAAAAAAAAAAAAAA1A1A11AAAAAAAAAA1AAA
IIA1AAAAAA1A1A1A12IAAAAAAAAAAAAAAAAAAAAAAAAA1A1A1AAAAAAAAAAA1AAA
IAA1AAAAAA1A1A1A12IAAAAAAAAAAAAAAAAAAAAAAAAA1A1A1AAAAAAAAAAA1AAA
IAAAAAAAAA1A1A1A12IAAAAAAAAAAAAAAAAAAAAAAAAA1A1A1AAAAAAAAAAA1AAA
II2IIIIIIIIIIIIIIIII2III2IIIIIIIIIAI2IIIIIIIIIIIIIIIIIIIIIIIIIII
II2I2IIIIIIIIIIIIIII2I2I2I2IIIIIIIAIAI2IIIIIIIIIIIIIIIIIIIIIIIII
II2I2IIIIIIII2IIIIII2I2I2I2IIII2IIA2AI2IIIIIIAI2IIIIIIIIIIIIIIII
II2I2IIIIIIII2IIIIII222I2I2IIII2IIA2AI22III2IAI2IIIIIAI2IIIIIIII
II2I2IIIIIIII2IIIIII222I2I22III2IIA2AI22III2IAI2I2IIIAI2IIIAI2II
II2I2IIIIIIII2IIIIII22222I22III2IIA2AI22I2I2IAI2I2IIIAIAI2IAI2II
II2I2IIIIIIII2IIIIII22222222III2IIA2AI2AI2I2IAI2I2IIIAIAI2IAI2II
II2I2IIIIIIII2IIIIII22222222III2IIA2AI2AI2I2IAI2I2IIIAIAIAIAI2II
II2I2IIIIIIII2IIIIII22222222III2IIA2AI2AI2I22AI222IIIAIAIAAA22II
II2I2IIIIIIII2IIIIII22222222III2IIA2AI2AI2222A2222IIIAIAAAAA22II
II2I2IIIIII2I2IIIIII22222222I2I2I2A2AI2AI22A2A2222IIIAIAAAAA22II
II222IIIIII2I2IIIIII22222222I2I2I2AAA22AI22A2A2222IIIAIAAAAA22II
II222I2IIII2I2IIIIII2222222222I2I2AAA2AA222A2A2222IIIAIAAAAA22II
II222I2IIII2I2IIII2I2222222222I2I2AAA2AA222A2A2222AI2AIAAAAA22II
II222I2II2I2I2IIII2I2222222222I2I2AAA2AA2A2A2A2222AI2AIAAAAA22II
II222I2II222I2IIII2I2222222222I222AAA2AA2AAA2A2222AI2AIAAAAA22II
II222I22I222I2IIII2I2222222222I222AAA2AA2AAA2A2222AI2AIAAAAA22II
II222222I222I2IIII2I2222222222I222AAAAAA2AAA2A2222AI2AIAAAAA22II
II222222I222I2IIII2I2222222222I222AAAAAA2AAA2A2222A22AIAAAAA2AI2
II222222I222I2IIII2I2222222222I222AAAAAA2AAA2A2222A22AAAAAAA2AI2
II222222I222I2IIII2I2222222222I222AAAAAA2AAA2A2222AA2AAAAAAA2AI2
II222222I222I2IIII2I2222222222I222AAAAAA2AAA2A2222AA1AAAAAAA2AI2
II222222I222I2IIII2I2222222222I222AAAAAA2AAA2A2222AA1AAAAAAA2A22
II222222I222I2IIII2I2222222222I222AAAAAA2AAA2A2222AA1AAAAAAA1A22
II222222I222I2IIII2I2222222222I222AAAAAA2AAA2A2122AA1AAAAAAA1A22
II222222I222I2IIII2I2222222222I222AAAAAA1AAA2A2122AA1AAAAAAA1A22
II222222I222I2IIII2I2222222222I222AAAAAA1AAA2A2122AAAAAAAAAA1A22
II222222I222I2IIII2I2222222222I222AAAAAA1AAA2A2A21AAAAAAAAAA1A22
II222222I222I2IIII2I2222222222I222AAAAAAAAAA2A2A21AAAAAAAAAA1A22
II22A2122222I2IIII2I2222222222I222AAAAAAAAAA2A2A21AAAAAAAAAA1A22
II22A2A21222I2IIII2I2222222222I222AAAAAAAAAA2A2A21AAAAAAAAAA1A22
II22A2A21222I2IAI1222222222222I222AAAAAAAAAA2A2A21AAAAAAAAAA1A22
II22A2A2A21222IAI1222222222222I222AAAAAAAAAA2A2A21AAAAAAAAAA1A22
II22A2A2A21222IAI122222A212222I222AAAAAAAAAA2A2A21AAAAAAAAAA1A22
II22A2A2A21222IAI122222A2A21222222AAAAAAAAAA2A2A21AAAAAAAAAA1A22
II22A2A2A21222IAI122222A2A21A21222AAAAAAAAAA2A2A21AAAAAAAAAA1A22
II22A2A2A21222IAI122222AAA11A21222AAAAAAAAAA2A2A21AAAAAAAAAA1A22
II22A2AAA11222IAI122222AAA11A21222AAAAAAAAAA2A2A21AAAAAAAAAA1A22
II22A2AAA11222IAI1222A2AAA11A21222AAAAAAAAAA2A2A21AAAAAAAAAA1A22
II22A2AAA11222IAI1222A2AAA11A212A2AAAAAAAAAA2A2A21AAAAAAAAAA1A22
II22A2AAA11222IAI1222A2AAA1AA112A2AAAAAAAAAA2A2A21AAAAAAAAAA1A22
II22A2AAA11222IAI1222A2AAA1AAA11A2AAAAAAAAAA2A2A21AAAAAAAAAA1A22
II22A2AAAA11222AI1222A2AAA1AAA11A2AAAAAAAAAA2A2A21AAAAAAAAAA1A22
II22A2AAAA11222AI1222A2AAA1AAA11AAAAAAAAAAAA2A2A21AAAAAAAAAA1A22
II22A2AAAA11222AI122AA1AAA1AAA11AAAAAAAAAAAA2A2A21AAAAAAAAAA1A22
II22A2AAAA11222AI12AAA1AAA1AAA11AAAAAAAAAAAA2A2A21AAAAAAAAAA1A22
II22A2AAAA11222AI12AAA1AAA1AAAA1AAAAAAAAAAAA2A2A21AAAAAAAAAA1A22
II22A2AAAA11222AI12AAA1AAAAAAAA1AAAAAAAAAAAA2A2A21AAAAAAAAAA1A22
II22AAAAAA11222AI12AAA1AAAAAAAA1AAAAAAAAAAAA2A2A21AAAAAAAAAA1A22
II22AAAAAA11222AI12AAA1AAAAAAAAAAAAAAAAAAAAA2A2A21AAAAAAAAAA1A22
II22AAAAAA11222AI12AAAAAAAAAAAAAAAAAAAAAAAAA2A2A21AAAAAAAAAA1A22
II22AAAAAA1A212A212AAAAAAAAAAAAAAAAAAAAAAAAA2A2A21AAAAAAAAAA1A22
II22AAAAAA1A2A2A212AAAAAAAAAAAAAAAAAAAAAAAAA2A2A21AAAAAAAAAA1A22
II22AAAAAA1A2A2A212AAAAAAAAAAAAAAAAAAAAAAAAA2A2A21AAAAAAAAAA1A2A
II22AAAAAA1A2A2A212AAAAAAAAAAAAAAAAAAAAAAAAA2A2A2AAAAAAAAAAA1A2A
II22AAAAAA1A2A2A212AAAAAAAAAAAAAAAAAAAAAAAAA2A2A2AAAAAAAAAAA1AAA
II22AAAAAA1A2A2A212AAAAAAAAAAAAAAAAAAAAAAAAA1A2A2AAAAAAAAAAA1AAA
IIA2AAAAAA1A2A2A212AAAAAAAAAAAAAAAAAAAAAAAAA1A2A2AAAAAAAAAAA1AAA
IIA1AAAAAA1A1A1A112AAAAAAAAAAAAAAAAAAAAAAAAA1A2A2AAAAAAAAAAA1AAA
IAA1AAAAAA1A1A1A112AAAAAAAAAAAAAAAAAAAAAAAAA1A2A2AAAAAAAAAAA1AAA
IAAAAAAAAA1A1A1A112AAAAAAAAAAAAAAAAAAAAAAAAA1A2A2AAAAAAAAAAA1AAA
IIIIIIIIIIIIIIIIIIIIIIIIIIIIIIIIIIIIIA11111111111111IIIIIIIIIIII
IIIIIIIIIIIIIIIIIIIIIIIIIIIIIIIIIIAIIA11111111111111IIIIIIIIIIII
IIIIIIIIIIIIIIIIIIIIIIIIIIIIIIIIIIAIAA11111111111111IIIIIIIIIIII
IIIIIIIIIIIIIIIIIIIIIIIIIIIIIIIIIIAIAA11111111111111IIIIA1IIIIII
IIIIIIIIIIIIIIIIIIIIIIIIIIIIIIIIIIAIAA11111111111111IIIIAA111111
IIIIIIIIIIIIIIIIIIIIIIIIIIIIIIIIIIAIAA111111111111111IIIAA111111
IIIIIIIIIIIIIIIIIIIIIIIIIIIIIIIIIIAIAA111111111111111A11AA111111
IIIIIIIIIIIIIIIIIIIIIIIIIIIIIIIIIIAIAA111111111111111A11AA1111A1
IIIIIIIIIIIIIIIIIIIIIIIIIIIIIIIIIIA1AA111111111111111A11AA1111A1
IIIIIIIIIIIIIIIIIIIIIIIIIIIIIIIIIIA1AA1111111111111A1A11AA1111A1
IIIIIIIIIIIIIIIIIIIIIIIIIIIIIIIIIIA1AA11111A1111111A1A11AA1111A1
IIIIIIIIIIIIIIIIIIIIIIIIIIIIIIIIIIA1AA11111A1111111A1A11AA1A11A1
IIIIIIIIIIIIIIIIIIIIIIIIIIIIIIIIIIA1AA11111A1111111A1A1AAA1A11A1
IIIIIIIIIIIIIIIIIIIIIIIIIIIIIIIIIIA1AA1A111A1111111A1A1AAA1A11A1
IIIIIIIIIIIIIIIIIIIIIIIIIIIIIIIIIIA1AA1A111A1A11111A1A1AAA1A11A1
IIIIIIIIIIIIIIIIIIIIIIIIIIIIIIIIIIA1AA1A111A1A11111A1A1AAAAA11A1
IIIIIIIIIIIIIIIIIIIIIIIIIIIIIIIIIIAAAA1A111A1A11111A1A1AAAAA11A1
IIIIIIIIIIIIIIIIIIIIIIIIIIIIIIIIIIAAAAAA111A1A11111A1A1AAAAA11A1
IIIIIIIIIIIIIIIIIIIIIIIIIIIIIIIIIIAAAAAA111A1A1111AA1A1AAAAA11A1
IIIIIIIIIIIIIIIIIIIIIIIIIIIIIIIIIIAAAAAA1A1A1A1111AA1A1AAAAA11A1
IIIIIIIIIIIIIIIIIIIIIIIIIIIIIIIIIIAAAAAA1AAA1A1111AA1A1AAAAA11A1
IIIIIIIIIIIIIIIIIIIIIIIIIIIIIIIIIIAAAAAA1AAA1A1111AA1A1AAAAA1AA1
IIIIIIIIIIIIIIIIIIIIIIIIIIIIIIIIIIAAAAAA1AAA1A1111AA1AAAAAAA1AA1
IIIIIIIIIIIIIIIIIIIIIIIIIIIIIIIIIIAAAAAA1AAA1A1111AAAAAAAAAA1AA1
IIIIIIIIIIIIIIIIIIIIIIIIIIIIIIIIIIAAAAAA1AAA1A1A11AAAAAAAAAA1AA1
IIIIIIIIIIIIIIIIIIIIIIIIIIIIIIIIIIAAAAAAAAAA1A1A11AAAAAAAAAA1AA1
IIIIA12IIIIIIIIIIIIIIIIIIIIIIIIIIIAAAAAAAAAA1A1A11AAAAAAAAAA1AA1
IIIIA1A12IIIIIIIIIIIIIIIIIIIIIIIIIAAAAAAAAAA1A1A11AAAAAAAAAA1AA1
IIIIA1A12IIIIIIA12IIIIIIIIIIIIIIIIAAAAAAAAAA1A1A11AAAAAAAAAA1AA1
IIIIA1A1A12IIIIA12IIIIIIIIIIIIIIIIAAAAAAAAAA1A1A11AAAAAAAAAA1AA1
IIIIA1A1A12IIIIA12IIIIIA12IIIIIIIIAAAAAAAAAA1A1A11AAAAAAAAAA1AA1
IIIIA1A1A12IIIIA12IIIIIA1A12IIIIIIAAAAAAAAAA1A1A11AAAAAAAAAA1AA1
IIIIA1A1A12IIIIA12IIIIIA1A12A12IIIAAAAAAAAAA1A1A11AAAAAAAAAA1AA1
IIIIA1A1A12IIIIA12IIIIIAAA12A12IIIAAAAAAAAAA1A1A11AAAAAAAAAA1AA1
IIIIA1AAA12IIIIA12IIIIIAAA12A12IIIAAAAAAAAAA1A1A11AAAAAAAAAA1AA1
IIIIA1AAA12IIIIA12IIIA1AAA12A12IIIAAAAAAAAAA1A1A11AAAAAAAAAA1AA1
IIIIA1AAA12IIIIA12IIIA1AAA12A12IA1AAAAAAAAAA1A1A11AAAAAAAAAA1AA1
IIIIA1AAA12IIIIA12IIIA1AAA1AA12IA1AAAAAAAAAA1A1A11AAAAAAAAAA1AA1
IIIIA1AAA12IIIIA12IIIA1AAA1AAA12A1AAAAAAAAAA1A1A11AAAAAAAAAA1AA1
IIIIA1AAAA12IIIA12IIIA1AAA1AAA12A1AAAAAAAAAA1A1A11AAAAAAAAAA1AA1
IIIIA1AAAA12IIIA12IIIA1AAA1AAA12AAAAAAAAAAAA1A1A11AAAAAAAAAA1AA1
IIIIA1AAAA12IIIA12IIAA1AAA1AAA12AAAAAAAAAAAA1A1A11AAAAAAAAAA1AA1
IIIIA1AAAA12IIIA12IAAA1AAA1AAA12AAAAAAAAAAAA1A1A11AAAAAAAAAA1AA1
IIIIA1AAAA12IIIA12IAAA1AAA1AAAA1AAAAAAAAAAAA1A1A11AAAAAAAAAA1AA1
IIIIA1AAAA12IIIA12IAAA1AAAAAAAA1AAAAAAAAAAAA1A1A11AAAAAAAAAA1AA1
IIIIAAAAAA12IIIA12IAAA1AAAAAAAA1AAAAAAAAAAAA1A1A11AAAAAAAAAA1AA1
IIIIAAAAAA12IIIA12IAAA1AAAAAAAAAAAAAAAAAAAAA1A1A11AAAAAAAAAA1AA1
IIIIAAAAAA12IIIA12IAAAAAAAAAAAAAAAAAAAAAAAAA1A1A11AAAAAAAAAA1AA1
IIIIAAAAAA1A12IA12IAAAAAAAAAAAAAAAAAAAAAAAAA1A1A11AAAAAAAAAA1AA1
IIIIAAAAAA1A1A1A12IAAAAAAAAAAAAAAAAAAAAAAAAA1A1A11AAAAAAAAAA1AA1
IIIIAAAAAA1A1A1A12IAAAAAAAAAAAAAAAAAAAAAAAAA1A1A11AAAAAAAAAA1AAA
IIIIAAAAAA1A1A1A12IAAAAAAAAAAAAAAAAAAAAAAAAA1A1A1AAAAAAAAAAA1AAA
IIAIAAAAAA1A1A1A12IAAAAAAAAAAAAAAAAAAAAAAAAA1A1A1AAAAAAAAAAA1AAA
IIA1AAAAAA1A1A1A11IAAAAAAAAAAAAAAAAAAAAAAAAA1A1A1AAAAAAAAAAA1AAA
IA122IIIIIIIIIIIIIIIIIIIIIIIIIIIIIIIIIIIIIIIIIIIIIIIIIIIIIIIIIII
IA1A22II2IIIIIIIIIIIIIIIIIIIIIIIIIIIIIIIIIIIIIIIIIIIIIIIIIIIIIII
IA1A22II2IIIIIIIIIII2III2IIIIIIIIIAI2II2IIIIIIIIIIIIIIIIIIIIIIII
IA1A22II2IIIIIIIIIII2I2I2I2IIIIIIIAIAI22I2IIIIIIIIIIIIIIIIIIIIII
IA1A22II2IIIIIIIIIII2I2I2I2IIII2IIA2AI22I2IIIAI2II2IIIIIIIIIIIII
IA1A22II2IIIIIIIIIII2I2I2I2IIII2IIA2AI22I2I2IAI2II2IIAI2II2IIIII
IA1A22II2IIIIIIIIIII2I2I2I2IIII2IIA2AI22I2I2IAI2I22IIAI2II2AI2II
IA1A22II2IIIIIIIIIII2I2I2I2IIII2IIA2AI22I2I2IAI2I22IIAIAI22A22II
IA1A22II2IIIIIIIIIII2I2I222II2I2IIA2AI2AI2I22AI2I22IIAIAI22A22II
IA1A22II2IIIIIIIIIII2I2I222II2I2IIA2AI2AI2I22AI2I22IIAIAIA2A222I
IA1A22II2IIIIIIIIIII2I2I222II2I2IIA2AI2AI2I22AI2222IIAIAIAAA2222
IA1A22II2IIIIIIIIIII2I2I222II2I2IIA2AI2AI2222A22222IIAIAAAAA2222
IA1A22II2IIIIIIIIIII2I2I222II2I2I2A2AI2AI22A2A22222IIAIAAAAA2222
IA1A22II2IIIIIIIIIII222I222II2I2I2AAA22AI22A2A22222IIAIAAAAA2222
IA1A22II2IIIIIIIIIII222I222I22I2I2AAA2AA222A2A22222IIAIAAAAA2222
IA1A22II2IIIIIIIIIII222I222I22I2I2AAA2AA222A2A2222AI2AIAAAAA2222
IA1A22II2IIIIIIIIIII222I222222I2I2AAA2AA2A2A2A2222AI2AIAAAAA2222
IA1A22II2IIIIIIIIIII222I222222I222AAA2AA2AAA2A2222AI2AIAAAAA2222
IA1A22II2IIIIIIIIIII2222222222I222AAAAAA2AAA2A2222AI2AIAAAAA2222
IA1A22II2IIIIIIIIIII2222222222I222AAAAAA2AAA2A2222A22AIAAAAA2A22
IA1A22II2IIIIIIIIIII2222222222I222AAAAAA2AAA2A2222A22AAAAAAA2A22
IA1A22II2IIIIIIIIIII2222222222I222AAAAAA2AAA2A2222AA2AAAAAAA2A22
IA1A22II2IIIIIIIIIII2222222222I222AAAAAA2AAA2A2222AAAAAAAAAA2A22
IA1A22II2IIIIIIIIIII2222222222I222AAAAAA2AAA2A2A22AAAAAAAAAA2A22
IA1A22II2IIIIIIIIIII22222222222222AAAAAAAAAA2A2A22AAAAAAAAAA2A22
IA1AA22I22IIIIIIIIII22222222222222AAAAAAAAAA2A2A22AAAAAAAAAA2A22
IA1AA2AI22I2IIIIIIII22222222222222AAAAAAAAAA2A2A22AAAAAAAAAA2A22
IA1AA2AI22I2IIIAI2II22222222222222AAAAAAAAAA2A2A22AAAAAAAAAA2A22
IA1AA2AIA222I2IAI2II22222222222222AAAAAAAAAA2A2A22AAAAAAAAAA2A22
IA1AA2AIA222I2IAI2II222A2222222222AAAAAAAAAA2A2A22AAAAAAAAAA2A22
IA1AA2AIA222I2IAI2II222A2A22222222AAAAAAAAAA2A2A22AAAAAAAAAA2A22
IA1AA2AIA222I2IAI22I222A2A22A22222AAAAAAAAAA2A2A22AAAAAAAAAA2A22
IA1AA2AIA222I22AI22I222AAA22A22222AAAAAAAAAA2A2A22AAAAAAAAAA2A22
IA1AA2AAA222I22AI22I222AAA22A22222AAAAAAAAAA2A2A22AAAAAAAAAA2A22
IA1AA2AAA222I22AI22I2A2AAA22A22222AAAAAAAAAA2A2A22AAAAAAAAAA2A22
IA1AA2AAA222I22AI22I2A2AAA22A222A2AAAAAAAAAA2A2A22AAAAAAAAAA2A22
IA1AA2AAA222I22AI22I2A2AAA2AA222A2AAAAAAAAAA2A2A22AAAAAAAAAA2A22
IA1AA2AAA222I22AI2222A2AAA2AAA22A2AAAAAAAAAA2A2A22AAAAAAAAAA2A22
IA1AA2AAAA22I22AI2222A2AAA2AAA22A2AAAAAAAAAA2A2A22AAAAAAAAAA2A22
IA1AA2AAAA22I22AI2222A2AAA2AAA22AAAAAAAAAAAA2A2A22AAAAAAAAAA2A22
IA1AA2AAAA22I22AI222AA2AAA2AAA22AAAAAAAAAAAA2A2A22AAAAAAAAAA2A22
IA1AA2AAAA22I22AI22AAA2AAA2AAA22AAAAAAAAAAAA2A2A22AAAAAAAAAA2A22
IA1AA2AAAA22I22AI22AAA2AAA2AAAA2AAAAAAAAAAAA2A2A22AAAAAAAAAA2A22
IA1AA2AAAA22I22A222AAA2AAAAAAAA2AAAAAAAAAAAA2A2A22AAAAAAAAAA2A22
IA1AAAAAAA22I22A222AAA2AAAAAAAA2AAAAAAAAAAAA2A2A22AAAAAAAAAA2A22
IA1AAAAAAA22I22A222AAA2AAAAAAAAAAAAAAAAAAAAA2A2A22AAAAAAAAAA2A22
IA1AAAAAAA22222A222AAAAAAAAAAAAAAAAAAAAAAAAA2A2A22AAAAAAAAAA2A22
IA1AAAAAAA2A222A222AAAAAAAAAAAAAAAAAAAAAAAAA2A2A22AAAAAAAAAA2A22
IA1AAAAAAA2A2A2A222AAAAAAAAAAAAAAAAAAAAAAAAA2A2A22AAAAAAAAAA2A22
IA1AAAAAAA2A2A2A222AAAAAAAAAAAAAAAAAAAAAAAAA2A2A22AAAAAAAAAA2A2A
IA1AAAAAAA2A2A2A222AAAAAAAAAAAAAAAAAAAAAAAAA2A2A2AAAAAAAAAAA2A2A
IA1AAAAAAA2A2A2A222AAAAAAAAAAAAAAAAAAAAAAAAA2A2A2AAAAAAAAAAA2AAA
IAAAAAAAAA2A2A2A222AAAAAAAAAAAAAAAAAAAAAAAAA2A2A2AAAAAAAAAAA2AAA
IIAI1IIIIIIIIIIIIIIIIIIIIIIIIIIIIIIIIIIIIIIIIIIIIIIIIIIIIIIIIIII
IIAI1IIIIIIIIIIIIIIIIIIIIIIIIIIIIIIIIAIIIIIIIIIIIIIIIIIIIIIIIIII
IIAI1IIIIIIIIIIIIIIIIIIIIIIIIIIIIIIIIAAIIIIIIIIIIIIIIIIIIIIIIIII
IIAI1IIIIIIIIIIIIIIIIIIIIIIIIIIIIIAIIAAIIIIIIIIIIIIIIIIIIIIIIIII
IIAI1IIIIIIIIIIIIIIIIIIIIIIIIIIIIIAIIAAIIIIAIIIIIIIIIIIIIIIIIIII
IIAI1IIIIIIIIIIIIIIIIIIIIIIIIIIIIIAIAAAIIIIAIIIIIIIIIIIIIIIIIIII
IIAI1IIIIIIIIIIIIIIIIIIIIIIIIIIIIIAIAAAIIIIAIIIIIIIIIAIIIIIIIIII
IIAI1IIIIIIIIIIIIIIIIIIIIIIIIIIIIIAIAAAIIIIAIIIIIIIIIAIIIIIIIIAI
IIAI1IIIIIIIIIIIIIIIIIIIIIIIIIIIIIAIAAAAIIIAIIIIIIIIIAIIIIIIIIAI
IIAI1IIIIIIIIIIIIIIIIIIIIIIIIIIIIIAIAAAAIIIAIIIIIIIIIAIIIIIAIIAI
IIAI1IIIIIIIIIIIIIIIIIIIIIIIIIIIIIAIAAAAIIIAIIIIIIIIIAIIIAIAIIAI
IIAI1IIIIIIIIIIIIIIIIIIIIIIIIIIIIIAIAAAAIIAAIIIIIIIIIAIIIAIAIIAI
IIA11111111111111IIIIIIIIIIIIIIIIIAIAAAAIIAAIIIIIIIIIAIIIAIAIIAI
IIA11111111111111IIIIIIIIIIIIIIIIIA1AAAA11AA1111111IIAIIIAIAIIAI
IIA11111111111111IIIIIIIIIIIIIIIIIA1AAAA11AA111111111AIIIAIAIIAI
IIA11111111111111IIIIIIIIIIIIIIIIIA1AAAA11AA111111111AIIAA1A11A1
IIA11111111111111IIIIIIIIIIIIIIIIIA1AAAA11AA111111111A11AA1A11A1
IIA11111111111111IIIIIIIIIIIIIIIIIA1AAAA11AA1111111A1A11AA1A11A1
IIA11111111111111IIIIIIIIIIIIIIIIIA1AAAA11AA1111111A1A1AAA1A11A1
IIA11111111111111IIIIIIIIIIIIIIIIIA1AAAA11AA1A11111A1A1AAA1A11A1
IIA11111111111111IIIIIIIIIIIIIIIIIA1AAAA11AA1A11111A1A1AAAAA11A1
IIA11111111111111IIIIIIIIIIIIIIIIIAAAAAA11AA1A11111A1A1AAAAA11A1
IIA11111111111111IIIIIIIIIIIIIIIIIAAAAAA11AA1A1111AA1A1AAAAA11A1
IIA11111111111111IIIIIIIIIIIIIIIIIAAAAAA1AAA1A1111AA1A1AAAAA11A1
IIA11111111111111IIIIIIIIIIIIIIIIIAAAAAA1AAA1A1111AA1A1AAAAA1AA1
IIA11111111111111IIIIIIIIIIIIIIIIIAAAAAA1AAA1A1111AA1AAAAAAA1AA1
IIA11111111111111IIIIIIIIIIIIIIIIIAAAAAA1AAA1A1111AAAAAAAAAA1AA1
IIA11111111111111IIIIIIIIIIIIIIIIIAAAAAA1AAA1A1A11AAAAAAAAAA1AA1
IIA11111111111111IIIIIIIIIIIIIIIIIAAAAAAAAAA1A1A11AAAAAAAAAA1AA1
IIA1A111111111111IIIIIIIIIIIIIIIIIAAAAAAAAAA1A1A11AAAAAAAAAA1AA1
IIA1A1A1111111111IIIIIIIIIIIIIIIIIAAAAAAAAAA1A1A11AAAAAAAAAA1AA1
IIA1A1A11111111A122IIIIIIIIIIIIIIIAAAAAAAAAA1A1A11AAAAAAAAAA1AA1
IIA1A1A1A111111A122IIIIIIIIIIIIIIIAAAAAAAAAA1A1A11AAAAAAAAAA1AA1
IIA1A1A1A111111A122IIIIA122IIIIIIIAAAAAAAAAA1A1A11AAAAAAAAAA1AA1
IIA1A1A1A111111A122IIIIA1A122IIIIIAAAAAAAAAA1A1A11AAAAAAAAAA1AA1
IIA1A1A1A111111A122IIIIA1A12A122IIAAAAAAAAAA1A1A11AAAAAAAAAA1AA1
IIA1A1A1A111111A122IIIIAAA12A122IIAAAAAAAAAA1A1A11AAAAAAAAAA1AA1
IIA1A1AAA111111A122IIIIAAA12A122IIAAAAAAAAAA1A1A11AAAAAAAAAA1AA1
IIA1A1AAA111111A122IIA1AAA12A122IIAAAAAAAAAA1A1A11AAAAAAAAAA1AA1
IIA1A1AAA111111A122IIA1AAA12A122A1AAAAAAAAAA1A1A11AAAAAAAAAA1AA1
IIA1A1AAA111111A122IIA1AAA1AA122A1AAAAAAAAAA1A1A11AAAAAAAAAA1AA1
IIA1A1AAA111111A122IIA1AAA1AAA12A1AAAAAAAAAA1A1A11AAAAAAAAAA1AA1
IIA1A1AAAA11111A122IIA1AAA1AAA12A1AAAAAAAAAA1A1A11AAAAAAAAAA1AA1
IIA1A1AAAA11111A122IIA1AAA1AAA12AAAAAAAAAAAA1A1A11AAAAAAAAAA1AA1
IIA1A1AAAA11111A122IAA1AAA1AAA12AAAAAAAAAAAA1A1A11AAAAAAAAAA1AA1
IIA1A1AAAA11111A122AAA1AAA1AAA12AAAAAAAAAAAA1A1A11AAAAAAAAAA1AA1
IIA1A1AAAA11111A122AAA1AAA1AAAA1AAAAAAAAAAAA1A1A11AAAAAAAAAA1AA1
IIA1A1AAAA11111A122AAA1AAAAAAAA1AAAAAAAAAAAA1A1A11AAAAAAAAAA1AA1
IIA1AAAAAA11111A122AAA1AAAAAAAA1AAAAAAAAAAAA1A1A11AAAAAAAAAA1AA1
IIA1AAAAAA11111A122AAA1AAAAAAAAAAAAAAAAAAAAA1A1A11AAAAAAAAAA1AA1
IIA1AAAAAA11111A122AAAAAAAAAAAAAAAAAAAAAAAAA1A1A11AAAAAAAAAA1AA1
IIA1AAAAAA1A111A122AAAAAAAAAAAAAAAAAAAAAAAAA1A1A11AAAAAAAAAA1AA1
IIA1AAAAAA1A1A1A122AAAAAAAAAAAAAAAAAAAAAAAAA1A1A11AAAAAAAAAA1AA1
IIA1AAAAAA1A1A1A122AAAAAAAAAAAAAAAAAAAAAAAAA1A1A11AAAAAAAAAA1AAA
IIA1AAAAAA1A1A1A122AAAAAAAAAAAAAAAAAAAAAAAAA1A1A1AAAAAAAAAAA1AAA
IAA1AAAAAA1A1A1A122AAAAAAAAAAAAAAAAAAAAAAAAA1A1A1AAAAAAAAAAA1AAA
IAAAAAAAAA1A1A1A122AAAAAAAAAAAAAAAAAAAAAAAAA1A1A1AAAAAAAAAAA1AAA
IIIIIIIIIIIIIIIIIIII2IIIIIIIIIIIIIAI2I2IIIIIIIIIIIIIIIIIIIIIIIII
IIIIIIIIIIIIIIIIIIII2I2IIIIIIIIIIIAIAI2I2IIIIIIIIIIIIIIIIIIIIIII
IIIIIIIIIIIIIIIIIIII2I2IIIIIIII2IIAIAI2I2IIIIAI2I2IIIIIIIIIIIIII
IIIIIIIIIIIIIIIIIIII2I2IIIIIIII2IIAIAI222IIIIAI2I2IIIAI2I2IIIIII
IIIIIIIIIIIIIIIIIIII2I2IIIIIIII2IIAIAI222IIIIAI2I2IIIAI2I2IAI2I2
IIIIIIIIIIIIIIIIIIII2I2IIIIIIII2IIAIAI2222IIIAI2I2IIIAIAI2IAI2I2
IIIIIIIIIIIIIIIIIIII2I2II2IIIII2IIAIAI2A22I2IAI2I2IIIAIAI2IAI2I2
IIIIIIIIIIIIIIIIIIII2I2II2IIIII2IIAIAI2A22I2IAI2I2IIIAIAIAIAI2I2
IIIIIIIIIIIIIIIIIIII2I2II2IIIII2IIAIAI2A22I22AI2I2IIIAIAIAAA2222
IIIIIIIIIIIIIIIIIIII2I2II2IIIII2IIAIAI2A22222AI2I2IIIAIAAAAA2222
IIIIIIIIIIIIIIIIIIII2I2II2III2I2IIAIAI2A222A2AI2I2IIIAIAAAAA2222
[...]
IAIA11111111111111I1IIIIIIIIIIIIIIAAA2AA2AIA2A2222AI2A2AAAAA2222
IAIA11111111111111I1IIIIIIIIIIIIIIAAA2AA2AAA2A2222AI2A2AAAAA2222
IAIA11111111111111I1IIIIIIIIIIIIIIAAAAAA2AAA2A2222AI2A2AAAAA2222
IAIA11111111111111I1IIIIIIIIIIIIIIAAAAAA2AAA2A2222AI2A2AAAAA2A22
IAIA11111111111111I1IIIIIIIIIIIIIIAAAAAA2AAA2A2222AI2AAAAAAA2A22
IAIA11111111111111I1IIIIIIIIIIIIIIAAAAAA2AAA2A2222AA2AAAAAAA2A22
IAIA11111111111111I1IIIIIIIIIIIIIIAAAAAA2AAA2A2222AAAAAAAAAA2A22
IAIA11111111111111I1IIIIIIIIIIIIIIAAAAAA2AAA2A2A22AAAAAAAAAA2A22
IAIA11111111111111I1IIIIIIIIIIIIIIAAAAAAAAAA2A2A22AAAAAAAAAA2A22
IAIAA1111111111111I1IIIIIIIIIIIIIIAAAAAAAAAA2A2A22AAAAAAAAAA2A22
IAIAA1A11111111111I1IIIIIIIIIIIIIIAAAAAAAAAA2A2A22AAAAAAAAAA2A22
IAIAA1A1A111111111I1IIIIIIIIIIIIIIAAAAAAAAAA2A2A22AAAAAAAAAA2A22
IAIAA1A1A111111A11I12IIIII2IIIIIIIAAAAAAAAAA2A2A22AAAAAAAAAA2A22
IAIAA1A1A111111A11I12IIAI22I2IIIIIAAAAAAAAAA2A2A22AAAAAAAAAA2A22
IAIAA1A1A111111A11I12IIAIA222I2IIIAAAAAAAAAA2A2A22AAAAAAAAAA2A22
IAIAA1A1A111111A11I12IIAIA22AI2II2AAAAAAAAAA2A2A22AAAAAAAAAA2A22
IAIAA1A1A111111A11I12IIAAA22A22II2AAAAAAAAAA2A2A22AAAAAAAAAA2A22
IAIAA1AAA111111A11212IIAAA22A22II2AAAAAAAAAA2A2A22AAAAAAAAAA2A22
IAIAA1AAA111111A11212AIAAA22A22I22AAAAAAAAAA2A2A22AAAAAAAAAA2A22
IAIAA1AAA111111A11212AIAAA22A22IA2AAAAAAAAAA2A2A22AAAAAAAAAA2A22
IAIAA1AAA111111A11212AIAAA2AA22IA2AAAAAAAAAA2A2A22AAAAAAAAAA2A22
IAIAA1AAA111111A11212AIAAA2AAA22A2AAAAAAAAAA2A2A22AAAAAAAAAA2A22
IAIAA1AAAA11111A11212AIAAA2AAA22A2AAAAAAAAAA2A2A22AAAAAAAAAA2A22
IAIAA1AAAA11111A11212AIAAA2AAA22AAAAAAAAAAAA2A2A22AAAAAAAAAA2A22
IAIAA1AAAA11111A1121AA2AAA2AAA22AAAAAAAAAAAA2A2A22AAAAAAAAAA2A22
IAIAA1AAAA11111A112AAA2AAA2AAA22AAAAAAAAAAAA2A2A22AAAAAAAAAA2A22
IAIAA1AAAA11111A112AAA2AAA2AAAA2AAAAAAAAAAAA2A2A22AAAAAAAAAA2A22
IAIAA1AAAA11111A112AAA2AAAAAAAA2AAAAAAAAAAAA2A2A22AAAAAAAAAA2A22
IAIAAAAAAA11111A112AAA2AAAAAAAA2AAAAAAAAAAAA2A2A22AAAAAAAAAA2A22
IAIAAAAAAA11111A112AAA2AAAAAAAAAAAAAAAAAAAAA2A2A22AAAAAAAAAA2A22
IAIAAAAAAA11111A112AAAAAAAAAAAAAAAAAAAAAAAAA2A2A22AAAAAAAAAA2A22
IAIAAAAAAA1A111A112AAAAAAAAAAAAAAAAAAAAAAAAA2A2A22AAAAAAAAAA2A22
IAIAAAAAAA1A1A1A112AAAAAAAAAAAAAAAAAAAAAAAAA2A2A22AAAAAAAAAA2A22
IAIAAAAAAA1A1A1A112AAAAAAAAAAAAAAAAAAAAAAAAA2A2A22AAAAAAAAAA2A2A
IAIAAAAAAA1A1A1A112AAAAAAAAAAAAAAAAAAAAAAAAA2A2A2AAAAAAAAAAA2A2A
IAIAAAAAAA1A1A1A112AAAAAAAAAAAAAAAAAAAAAAAAA2A2A2AAAAAAAAAAA2AAA
IAAAAAAAAA1A1A1A112AAAAAAAAAAAAAAAAAAAAAAAAA2A2A2AAAAAAAAAAA2AAA
IIAIIIIIIIIIIIIIIIIIIIIIIIIIIIIIIIIIIIIIIIIIIIIIIIIIIIIIIIIIIIII
IIAIIIIIIIIIIIIIIIIIIIIIIIIIIIIIIIIIIIA1IIII2IIIIIIIIIIIIIIIIIII
IIAIIIIIIIIIIIIIIIIIIIIIIIIIIIIIIIIIIIA1IIIA1IIII2IIIIIIIIIIIIII
IIAIIIIIIIIIIIIIIIIIIIIIIIIIIIIIIIIIIIA1IIIA1IIII2IIIA1IIII2IIII
IIAIIIIIIIIIIIIIIIIIIIIIIIIIIIIIIIIIIIA1IIIA1IIII2IIIA1IIII2IIA1
IIAIIIIIIIIIIIIIIIIIIIIIIIIIIIIIIIIIIAA1IIIA1IIII2IIIA1IIII2IIA1
IIAIIIIIIIIIIIIIIIIIIIIIIIIIIIIIIIA1IAA12IIA1IIII2IIIA1IIII2IIA1
IIAIIIIIIIIIIIIIIIIIIIIIIIIIIIIIIIA1IAA12IIA1IIII2IIIA1IIAI2IIA1
IIAIIIIIIIIIIIIIIIIIIIIIIIIIIIIIIIA1IAA12IIA1IIII2IIIA1IIAIAIIA1
IIAIIIIIIIIIIIIIIIIIIIIIIIIIIIIIIIA1AAA12IIA1IIII2IIIA1IIAIAIIA1
IIAIIIIIIIIIIIIIIIIIIIIIIIIIIIIIIIA1AAAA2IIA1IIII2IIIA1IIAIAIIA1
IIAIIIIIIIIIIIIIIIIIIIIIIIIIIIIIIIA1AAAA2IAA1IIII2IIIA1IIAIAIIA1
IIA111111I1IIIIIIIIIIIIIIIIIIIIIIIA1AAAA2IAA1IIII2IIIA1IIAIAIIA1
IIA111111I1IIIIIIIIIIIIIIIIIIIIIIIA1AAAA11AA1II1I11I1A1IIAIAIIA1
IIA111111I1IIIIIIIIIIIIIIIIIIIIIIIA1AAAA11AA1111I11I1A11IAIAIIA1
IIA111111I1IIIIIIIIIIIIIIIIIIIIIIIA1AAAA11AA1111I1111A11IAIAIIA1
IIA111111I1IIIIIIIIIIIIIIIIIIIIIIIA1AAAA11AA1111I1111A11AAIAI1A1
IIA111111I1IIIIIIIIIIIIIIIIIIIIIIIA1AAAA11AA1111I1111A11AA1A11A1
IIA111111I1IIIIIIIIIIIIIIIIIIIIIIIA1AAAA11AA1111I11A1A11AA1A11A1
IIA111111I1IIIIIIIIIIIIIIIIIIIIIIIA1AAAA11AA1111111A1A11AA1A11A1
IIA111111I1IIIIIIIIIIIIIIIIIIIIIIIA1AAAA11AA1111111A1A1AAA1A11A1
IIA111111I1IIIIIIIIIIIIIIIIIIIIIIIA1AAAA11AA1A11111A1A1AAA1A11A1
IIA111111I1IIIIIIIIIIIIIIIIIIIIIIIA1AAAA11AA1A11111A1A1AAAAA11A1
IIA111111I1IIIIIIIIIIIIIIIIIIIIIIIAAAAAA11AA1A11111A1A1AAAAA11A1
IIA111111I1IIIIIIIIIIIIIIIIIIIIIIIAAAAAA11AA1A1111AA1A1AAAAA11A1
IIA111111I1IIIIIIIIIIIIIIIIIIIIIIIAAAAAA1AAA1A1111AA1A1AAAAA11A1
IIA111111I1IIIIIIIIIIIIIIIIIIIIIIIAAAAAA1AAA1A1111AA1A1AAAAA1AA1
IIA111111I1IIIIIIIIIIIIIIIIIIIIIIIAAAAAA1AAA1A1111AA1AAAAAAA1AA1
IIA111111I1IIIIIIIIIIIIIIIIIIIIIIIAAAAAA1AAA1A1111AAAAAAAAAA1AA1
IIA111111I1IIIIIIIIIIIIIIIIIIIIIIIAAAAAA1AAA1A1A11AAAAAAAAAA1AA1
IIA111111I1IIIIIIIIIIIIIIIIIIIIIIIAAAAAAAAAA1A1A11AAAAAAAAAA1AA1
IIA111A1111I1IIIIIIIIIIIIIIIIIIIIIAAAAAAAAAA1A1A11AAAAAAAAAA1AA1
IIA1A1A1111I1IIIIIIIIIIIIIIIIIIIIIAAAAAAAAAA1A1A11AAAAAAAAAA1AA1
IIA1A1A1111I11IIIIIIIIIIIIIIIIIIIIAAAAAAAAAA1A1A11AAAAAAAAAA1AA1
IIA1A1A1A11I11IIIIIIIIIIIIIIIIIIIIAAAAAAAAAA1A1A11AAAAAAAAAA1AA1
IIA1A1A1A11I11IAIIIIIIIIIIIIIIIIIIAAAAAAAAAA1A1A11AAAAAAAAAA1AA1
IIA1A1A1A111111A111IIIIIIIIIIIIIIIAAAAAAAAAA1A1A11AAAAAAAAAA1AA1
IIA1A1A1A111111A11111I1IIIIIIIIIIIAAAAAAAAAA1A1A11AAAAAAAAAA1AA1
IIA1A1A1A111111A11111I1A1I11IIIIIIAAAAAAAAAA1A1A11AAAAAAAAAA1AA1
IIA1A1A1A111111A11111I1A1I11I1I111AAAAAAAAAA1A1A11AAAAAAAAAA1AA1
IIA1A1A1A111111A11111I1A1A1111I111AAAAAAAAAA1A1A11AAAAAAAAAA1AA1
IIA1A1A1A111111A1111111A1A1111I111AAAAAAAAAA1A1A11AAAAAAAAAA1AA1
IIA1A1A1A111111A1111111A1A11A1I111AAAAAAAAAA1A1A11AAAAAAAAAA1AA1
IIA1A1A1A111111A1111111AAA11A11111AAAAAAAAAA1A1A11AAAAAAAAAA1AA1
IIA1A1AAA111111A1111111AAA11A11111AAAAAAAAAA1A1A11AAAAAAAAAA1AA1
IIA1A1AAA111111A11111A1AAA11A11111AAAAAAAAAA1A1A11AAAAAAAAAA1AA1
IIA1A1AAA111111A11111A1AAA11A111A1AAAAAAAAAA1A1A11AAAAAAAAAA1AA1
IIA1A1AAA111111A11111A1AAA1AA111A1AAAAAAAAAA1A1A11AAAAAAAAAA1AA1
IIA1A1AAA111111A11111A1AAA1AAA11A1AAAAAAAAAA1A1A11AAAAAAAAAA1AA1
IIA1A1AAAA11111A11111A1AAA1AAA11A1AAAAAAAAAA1A1A11AAAAAAAAAA1AA1
IIA1A1AAAA11111A11111A1AAA1AAA11AAAAAAAAAAAA1A1A11AAAAAAAAAA1AA1
IIA1A1AAAA11111A1111AA1AAA1AAA11AAAAAAAAAAAA1A1A11AAAAAAAAAA1AA1
IIA1A1AAAA11111A111AAA1AAA1AAA11AAAAAAAAAAAA1A1A11AAAAAAAAAA1AA1
IIA1A1AAAA11111A111AAA1AAA1AAAA1AAAAAAAAAAAA1A1A11AAAAAAAAAA1AA1
IIA1A1AAAA11111A111AAA1AAAAAAAA1AAAAAAAAAAAA1A1A11AAAAAAAAAA1AA1
IIA1AAAAAA11111A111AAA1AAAAAAAA1AAAAAAAAAAAA1A1A11AAAAAAAAAA1AA1
IIA1AAAAAA11111A111AAA1AAAAAAAAAAAAAAAAAAAAA1A1A11AAAAAAAAAA1AA1
IIA1AAAAAA11111A111AAAAAAAAAAAAAAAAAAAAAAAAA1A1A11AAAAAAAAAA1AA1
IIA1AAAAAA1A111A111AAAAAAAAAAAAAAAAAAAAAAAAA1A1A11AAAAAAAAAA1AA1
IIA1AAAAAA1A1A1A111AAAAAAAAAAAAAAAAAAAAAAAAA1A1A11AAAAAAAAAA1AA1
IIA1AAAAAA1A1A1A111AAAAAAAAAAAAAAAAAAAAAAAAA1A1A11AAAAAAAAAA1AAA
IIA1AAAAAA1A1A1A111AAAAAAAAAAAAAAAAAAAAAAAAA1A1A1AAAAAAAAAAA1AAA
IAA1AAAAAA1A1A1A111AAAAAAAAAAAAAAAAAAAAAAAAA1A1A1AAAAAAAAAAA1AAA
IAAAAAAAAA1A1A1A111AAAAAAAAAAAAAAAAAAAAAAAAA1A1A1AAAAAAAAAAA1AAA
IIII2IIIIIIIIIIIIIIIIIIIIIIIIIIII2AIIIIIIIIIIIIIIIIIIIIIIIIIIIII
IIII2I2IIIIIIIIIIIIIIIIIIIIIIIIII2A2AIIIIIIIIIIIIIIIIIIIIIIIIIII
IIII2I2IIIIIIII2IIIIIIIIIIIIIIIII2A2AIIIIIII2AIIIIIIIIIIIIIIIIII
IIII2I2IIIIIIII2IIIIIIIIIIIII2III2A2AIIIIIII2AIIIIIIIIIIII2AIIII
IIII2I2IIIIIIII2IIIIIIIII2III2III2A2AIIIIIII2AIIIIIIII2AII2AIIII
IIII2I2IIIIIIII2IIIIIII2I2III2III2A2AIIIIIII2AIIIIII2A2AII2AIIII
IIII2I2IIIIIIII2IIIIIII2I2I2I2III2A2AIIIIIII2AIIIIII2A2A2A2AIIII
IIII2I2II2IIIII2IIIIIII2I2I2I2III2A2AI2AIIII2AIIIIII2A2A2A2AIIII
IIII2I2II2IIIII2IIIIIII2I2I222III2A2AI2AIIII2AIIIIII2A2A2AAAIIII
IIII2I2II2IIIII2IIIIIII2I22222III2A2AI2AIIII2AIIIIII2A2AAAAAIIII
IIII222II2IIIII2IIIIIII2I22222III2AAAI2AIIII2AIIIIII2A2AAAAAIIII
IIII222II2III2I2IIIIIII2I22222III2AAAI2AII2A2AIIIIII2A2AAAAAIIII
IIII222I22III2I2IIIIIII2I22222III2AAA2AAII2A2AIIIIII2A2AAAAAIIII
IIII222I22III2I2IIII2II2I22222III2AAA2AAII2A2AIII2AI2A2AAAAAIIII
IIII222I22I2I2I2IIII2II2I22222III2AAA2AA2A2A2AIII2AI2A2AAAAAIIII
IIII222I22I222I2IIII2II2I22222III2AAA2AA2AAA2AIII2AI2A2AAAAAIIII
IIII222222I222I2IIII2II2I22222III2AAAAAA2AAA2AIII2AI2A2AAAAAIIII
IIII222222I222I2IIII2II2I22222I2I2AAAAAA2AAA2AIII2AI2A2AAAAA2AII
IIII222222I222I2IIII2II2222222I2I2AAAAAA2AAA2AIII2AI2AAAAAAA2AII
IIII222222I222I2IIII22I2222222I2I2AAAAAA2AAA2AIII2AA2AAAAAAA2AII
IIII222222I222I2IIII2222222222I2I2AAAAAA2AAA2AIII2AAAAAAAAAA2AII
IIII222222I222I2I2II2222222222I2I2AAAAAA2AAA2A2AI2AAAAAAAAAA2AII
IIII2222222222I2I2II2222222222I2I2AAAAAAAAAA2A2AI2AAAAAAAAAA2AII
IIII22A2222222I2I2II2222222222I2I2AAAAAAAAAA2A2AI2AAAAAAAAAA2AII
III2A2A2222222I2I2II2222222222I2I2AAAAAAAAAA2A2AI2AAAAAAAAAA2AII
III2A2A2A22222I2I2II2222222222I2I2AAAAAAAAAA2A2AI2AAAAAAAAAA2AII
III2A2A2A222222AI2II2222222222I2I2AAAAAAAAAA2A2AI2AAAAAAAAAA2AII
III2A2A2A222222AI2II222A222222I2I2AAAAAAAAAA2A2AI2AAAAAAAAAA2AII
III2A2A2A222222AI2II222A2A2222I2I2AAAAAAAAAA2A2AI2AAAAAAAAAA2AII
III2A2A2A222222AI2II222A2A22A2I2I2AAAAAAAAAA2A2AI2AAAAAAAAAA2AII
III2A2A2A222222AI2II222AAA22A2I2I2AAAAAAAAAA2A2AI2AAAAAAAAAA2AII
III2A2AAA222222AI2II222AAA22A2I2I2AAAAAAAAAA2A2AI2AAAAAAAAAA2AII
III2A2AAA222222AI2II2A2AAA22A2I2I2AAAAAAAAAA2A2AI2AAAAAAAAAA2AII
II22A2AAA222222AI2II2A2AAA22A2I2A2AAAAAAAAAA2A2AI2AAAAAAAAAA2AII
II22A2AAA222222AI2II2A2AAA2AA2I2A2AAAAAAAAAA2A2AI2AAAAAAAAAA2AII
II22A2AAA222222AI2II2A2AAA2AAAI2A2AAAAAAAAAA2A2AI2AAAAAAAAAA2AII
II22A2AAAA22222AI2II2A2AAA2AAAI2A2AAAAAAAAAA2A2AI2AAAAAAAAAA2AII
II22A2AAAA22222AI2II2A2AAA2AAAI2AAAAAAAAAAAA2A2AI2AAAAAAAAAA2AII
II22A2AAAA22222AI2I2AA2AAA2AAAI2AAAAAAAAAAAA2A2AI2AAAAAAAAAA2AII
II22A2AAAA22222AI22AAA2AAA2AAAI2AAAAAAAAAAAA2A2AI2AAAAAAAAAA2AII
2I22A2AAAA22222AI22AAA2AAA2AAAA2AAAAAAAAAAAA2A2AI2AAAAAAAAAA2AII
2I22A2AAAA22222AI22AAA2AAAAAAAA2AAAAAAAAAAAA2A2AI2AAAAAAAAAA2AII
2I22AAAAAA22222AI22AAA2AAAAAAAA2AAAAAAAAAAAA2A2AI2AAAAAAAAAA2AII
2222AAAAAA22222AI22AAA2AAAAAAAAAAAAAAAAAAAAA2A2AI2AAAAAAAAAA2AII
2222AAAAAA22222AI22AAAAAAAAAAAAAAAAAAAAAAAAA2A2AI2AAAAAAAAAA2AII
2222AAAAAA2A222AI22AAAAAAAAAAAAAAAAAAAAAAAAA2A2AI2AAAAAAAAAA2AII
2222AAAAAA2A2A2AI22AAAAAAAAAAAAAAAAAAAAAAAAA2A2AI2AAAAAAAAAA2AII
2222AAAAAA2A2A2AI22AAAAAAAAAAAAAAAAAAAAAAAAA2A2AI2AAAAAAAAAA2A2A
2222AAAAAA2A2A2AI22AAAAAAAAAAAAAAAAAAAAAAAAA2A2A2AAAAAAAAAAA2A2A
2222AAAAAA2A2A2AI22AAAAAAAAAAAAAAAAAAAAAAAAA2A2A2AAAAAAAAAAA2AAA
22A2AAAAAA2A2A2AI22AAAAAAAAAAAAAAAAAAAAAAAAA2A2A2AAAAAAAAAAA2AAA
22A1AAAAAA1A2A2AI22AAAAAAAAAAAAAAAAAAAAAAAAA2A2A2AAAAAAAAAAA2AAA
2AA1AAAAAA1A2A2AI22AAAAAAAAAAAAAAAAAAAAAAAAA2A2A2AAAAAAAAAAA2AAA
2AAAAAAAAA1A2A2AI22AAAAAAAAAAAAAAAAAAAAAAAAA2A2A2AAAAAAAAAAA2AAA
2AAAAAAAAA1A2A2AI22AAAAAAAAAAAAAAAAAAAAAAAAA1A2A2AAAAAAAAAAA2AAA
2AAAAAAAAA1A2A2AI22AAAAAAAAAAAAAAAAAAAAAAAAA1A2A2AAAAAAAAAAA1AAA
2AAAAAAAAA1A2A2AI22AAAAAAAAAAAAAAAAAAAAAAAAA1A1A2AAAAAAAAAAA1AAA
2AAAAAAAAA1A2A2AI22AAAAAAAAAAAAAAAAAAAAAAAAA1A1A1AAAAAAAAAAA1AAA
2AAAAAAAAA1A1A2AI22AAAAAAAAAAAAAAAAAAAAAAAAA1A1A1AAAAAAAAAAA1AAA
2AAAAAAAAA1A1A1AI22AAAAAAAAAAAAAAAAAAAAAAAAA1A1A1AAAAAAAAAAA1AAA
2AAAAAAAAA1A1A1A111AAAAAAAAAAAAAAAAAAAAAAAAA1A1A1AAAAAAAAAAA1AAA
IIAIIIIIIIIIIIIIIIIIIIIIIIIIIIIIIIIIIIIIIIIIIIIIIIIIIIIIIIIIIIII
IIAIIIIIIIIIIIIIIIIIIIIIII2I2IIIIIIIIIAIIII21IIIIIIIIIIIIIIIIIII
IIAIIIIIIIIIIIIIIIIIIIIIII2I2II2I2IIIIAIIIIA1III21IIIIIIIIIIIIII
IIAIIIIIIIIIIIIIIIIIIIIIII2I2II2I2IIIIAII2IA1III21IIIAIIII21IIII
IIAIIIIIIIIIIIIIIIIIIIIIII2I2II2I2IIIIAII2IA1III21IIIAIIII21IIAI
IIAIIIIIIIIIIIIIIIIIIIIIII2I2II2I2IIIAAII2IA1III21IIIAIIII21IIAI
IIAIIIIIIIIIIIIIIIIIIIIIII2I2II2I2AIIAAII2IA1III21IIIAIIII21IIAI
IIAIIIIIIIIIIIIIIIIIIIIIII2I2II2I2AIIAAII2IA1III21IIIAIIIA21IIAI
IIAIIIIIIIIIIIIIIIIIIIIIII2I2II2I2AIIAAII2IA1III21IIIAIIIA2AIIAI
IIAIIIIIIIIIIIIIIIIIIIIIII2I2II2I2AIAAAII2IA1III21IIIAIIIA2AIIAI
IIAIIIIIIIIIIIIIIIIIIIIIII2I2II2I2AIAAAAI2IA1III21IIIAIIIA2AIIAI
IIAIIIIIIIIIIIIIIIIIIIIIII2I2II2I2AIAAAAI2AA1III21IIIAIIIA2AIIAI
IIA11IIIIIIIIIIIIIIIIIIIII2I2II2I2AIAAAAI2AA1III21IIIAIIIA2AIIAI
IIA11IIIIIIIIIIIIIIIIIIIII2I2II2I2A1AAAA11AA1II1111IIAIIIA2AIIAI
IIA11IIIIIIIIIIIIIIIIIIIII2I2II2I2A1AAAA11AA111111111AIIIA2AIIAI
IIA11IIIIIIIIIIIIIIIIIIIII2I2II2I2A1AAAA11AA111111111AIIAA2A11A1
IIA11IIIIIIIIIIIIIIIIIIIII2I2II2I2A1AAAA11AA111111111AIIAA1A11A1
IIA11IIIIIIIIIIIIIIIIIIIII2I2II2I2A1AAAA11AA111111111A1IAA1A11A1
IIA11IIIIIIIIIIIIIIIIIIIII2I2II2I2A1AAAA11AA1111111A1A11AA1A11A1
IIA11IIIIIIIIIIIIIIIIIIIII2I2II2I2A1AAAA11AA1111111A1A1AAA1A11A1
IIA11IIIIIIIIIIIIIIIIIIIII2I2II2I2A1AAAA11AA1A11111A1A1AAA1A11A1
IIA11IIIIIIIIIIIIIIIIIIIII2I2II2I2A1AAAA11AA1A11111A1A1AAAAA11A1
IIA11IIIIIIIIIIIIIIIIIIIII2I2II2I2AAAAAA11AA1A11111A1A1AAAAA11A1
IIA11IIIIIIIIIIIIIIIIIIIII2I2II2I2AAAAAA11AA1A1111AA1A1AAAAA11A1
IIA11IIIIIIIIIIIIIIIIIIIII2I2II2I2AAAAAA1AAA1A1111AA1A1AAAAA11A1
IIA11IIIIIIIIIIIIIIIIIIIII2I2II2I2AAAAAA1AAA1A1111AA1A1AAAAA1AA1
IIA11IIIIIIIIIIIIIIIIIIIII2I2II2I2AAAAAA1AAA1A1111AA1AAAAAAA1AA1
IIA11IIIIIIIIIIIIIIIIIIIII2I2II2I2AAAAAA1AAA1A1111AAAAAAAAAA1AA1
IIA11IIIIIIIIIIIIIIIIIIIII2I2II2I2AAAAAA1AAA1A1A11AAAAAAAAAA1AA1
IIA11IIIIIIIIIIIIIIIIIIIII2I2II2I2AAAAAAAAAA1A1A11AAAAAAAAAA1AA1
IIA11IAIIIIIIIIIIIIIIIIIII2I2II2I2AAAAAAAAAA1A1A11AAAAAAAAAA1AA1
IIA1AIAIIIIIIIIIIIIIIIIIII2I2II2I2AAAAAAAAAA1A1A11AAAAAAAAAA1AA1
IIA1A1AIIIIIIIIIIIIIIIIIII2I2II2I2AAAAAAAAAA1A1A11AAAAAAAAAA1AA1
IIA1A1AIAIIIIIIIIIIIIIIIII2I2II2I2AAAAAAAAAA1A1A11AAAAAAAAAA1AA1
IIA1A1AIAIIIIIIAIIIIIIIIII2I2II2I2AAAAAAAAAA1A1A11AAAAAAAAAA1AA1
IIA1A1AIA1111IIAIIIIIIIIII2I2II2I2AAAAAAAAAA1A1A11AAAAAAAAAA1AA1
IIA1A1A1A1111IIAIIIIIIIIII2I2II2I2AAAAAAAAAA1A1A11AAAAAAAAAA1AA1
IIA1A1A1A111111A1IIIIIIIII2I2II2I2AAAAAAAAAA1A1A11AAAAAAAAAA1AA1
IIA1A1A1A111111A1IIIIIIA111111I2I2AAAAAAAAAA1A1A11AAAAAAAAAA1AA1
IIA1A1A1A111111A111111IA111111I2I2AAAAAAAAAA1A1A11AAAAAAAAAA1AA1
IIA1A1A1A111111A111111IA1111111111AAAAAAAAAA1A1A11AAAAAAAAAA1AA1
IIA1A1A1A111111A111111IA1A11111111AAAAAAAAAA1A1A11AAAAAAAAAA1AA1
IIA1A1A1A111111A1111111A1A11111111AAAAAAAAAA1A1A11AAAAAAAAAA1AA1
IIA1A1A1A111111A1111111A1A11A11111AAAAAAAAAA1A1A11AAAAAAAAAA1AA1
IIA1A1A1A111111A1111111AAA11A11111AAAAAAAAAA1A1A11AAAAAAAAAA1AA1
IIA1A1AAA111111A1111111AAA11A11111AAAAAAAAAA1A1A11AAAAAAAAAA1AA1
IIA1A1AAA111111A11111A1AAA11A11111AAAAAAAAAA1A1A11AAAAAAAAAA1AA1
IIA1A1AAA111111A11111A1AAA11A111A1AAAAAAAAAA1A1A11AAAAAAAAAA1AA1
IIA1A1AAA111111A11111A1AAA1AA111A1AAAAAAAAAA1A1A11AAAAAAAAAA1AA1
IIA1A1AAA111111A11111A1AAA1AAA11A1AAAAAAAAAA1A1A11AAAAAAAAAA1AA1
IIA1A1AAAA11111A11111A1AAA1AAA11A1AAAAAAAAAA1A1A11AAAAAAAAAA1AA1
IIA1A1AAAA11111A11111A1AAA1AAA11AAAAAAAAAAAA1A1A11AAAAAAAAAA1AA1
IIA1A1AAAA11111A1111AA1AAA1AAA11AAAAAAAAAAAA1A1A11AAAAAAAAAA1AA1
IIA1A1AAAA11111A111AAA1AAA1AAA11AAAAAAAAAAAA1A1A11AAAAAAAAAA1AA1
IIA1A1AAAA11111A111AAA1AAA1AAAA1AAAAAAAAAAAA1A1A11AAAAAAAAAA1AA1
IIA1A1AAAA11111A111AAA1AAAAAAAA1AAAAAAAAAAAA1A1A11AAAAAAAAAA1AA1
IIA1AAAAAA11111A111AAA1AAAAAAAA1AAAAAAAAAAAA1A1A11AAAAAAAAAA1AA1
IIA1AAAAAA11111A111AAA1AAAAAAAAAAAAAAAAAAAAA1A1A11AAAAAAAAAA1AA1
IIA1AAAAAA11111A111AAAAAAAAAAAAAAAAAAAAAAAAA1A1A11AAAAAAAAAA1AA1
IIA1AAAAAA1A111A111AAAAAAAAAAAAAAAAAAAAAAAAA1A1A11AAAAAAAAAA1AA1
IIA1AAAAAA1A1A1A111AAAAAAAAAAAAAAAAAAAAAAAAA1A1A11AAAAAAAAAA1AA1
IIA1AAAAAA1A1A1A111AAAAAAAAAAAAAAAAAAAAAAAAA1A1A11AAAAAAAAAA1AAA
IIA1AAAAAA1A1A1A111AAAAAAAAAAAAAAAAAAAAAAAAA1A1A1AAAAAAAAAAA1AAA
IAA1AAAAAA1A1A1A111AAAAAAAAAAAAAAAAAAAAAAAAA1A1A1AAAAAAAAAAA1AAA
IAAAAAAAAA1A1A1A111AAAAAAAAAAAAAAAAAAAAAAAAA1A1A1AAAAAAAAAAA1AAA
IIIIIIIIIIIIIIIIIIIIIIIIIIIIIIIIIIAI2IIIIIIIIIIIIIIIIIIIIIIIIIII
IIIIIIIIIIIIIIIIIIIIIIIIIIIIIIIIIIAIAI2IIIIIIIIIIIIIIIIIIIIIIIII
IIIIIIIIIIIIIIIIIIIIIIIIIIIIIIIIIIAIAI2IIIIIIAI2IIIIIIIIIIIIIIII
IIIIIIIIIIIIIIIIIIIIIIIIIIIIIIIIIIAIAI2IIIIIIAI2IIIIIIIIIIIAI2II
IIIIIIIIIIIIIIIIIIIIIIIIIIIIIIIIIIAIAI2IIIIIIAI2IIIIIIIAI2IAI2II
IIIIIIIIIIIIIIIIIIIIIIIIIIIIIIIIIIAIAI2IIIIIIAI2IIIIIAIAI2IAI2II
IIIIIIIIIIIIIIIIIIIIIIIIIIIIIIIIIIAIAI2IIIIIIAI2IIIIIAIAIAIAI2II
IIIIIIIIIIIIIIIIIIIIIIIIIIIIIIIIIIAIAI2AI2IIIAI2IIIIIAIAIAIAI2II
IIIIIIIIIIIIIIIIIIIIIIIIIIIIIIIIIIAIAI2AI2IIIAI2IIIIIAIAIAAA22II
IIIIIIIIIIIIIIIIIIIIIIIIIIIIIIIIIIAIAI2AI2IIIAI2IIIIIAIAAAAA22II
IIIIIIIIIIIIIIIIIIIIIIIIIIIIIIIIIIAAA22AI2IIIAI2IIIIIAIAAAAA22II
IIIIIIIIIIIIIIIIIIIIIIIIIIIIIIIIIIAAA22AI2IAIAI2IIIIIAIAAAAA22II
IIIIIIIIIIIIIIIIIIIIIIIIIIIIIIIIIIAAA2AA22IAIAI2IIIIIAIAAAAA22II
IIIIIIIIIIIIIIIIIIIIIIIIIIIIIIIIIIAAA2AA22IAIAI2IIAI2AIAAAAA22II
IIIIIIIIIIIIIIIIIIIIIIIIIIIIIIIIIIAAA2AA2AIAIAI2IIAI2AIAAAAA22II
IIIIIIIIIIIIIIIIIIIIIIIIIIIIIIIIIIAAA2AA2AAA2AI2IIAI2AIAAAAA22II
IIIIIIIIIIIIIIIIIIIIIIIIIIIIIIIIIIAAAAAA2AAA2AI2IIAI2AIAAAAA22II
IIIIIIIIIIIIIIIIIIIIIIIIIIIIIIIIIIAAAAAA2AAA2AI2IIAI2AIAAAAA2AI2
IIIIIIIIIIIIIIIIIIIIIIIIIIIIIIIIIIAAAAAA2AAA2AI2IIAI2AAAAAAA2AI2
IIIIIIIIIIIIIIIIIIIIIIIIIIIIIIIIIIAAAAAA2AAA2AI2IIAA2AAAAAAA2AI2
IIIIIIIIIIIIIIIIIIIIIIIIIIIIIIIIIIAAAAAA2AAA2AI2IIAAAAAAAAAA2AI2
IIIIIIIIIIIIIIIIIIIIIIIIIIIIIIIIIIAAAAAA2AAA2AIAI2AAAAAAAAAA2AI2
IIIIIIIIIIIIIIIIIIIIIIIIIIIIIIIIIIAAAAAAAAAA2AIAI2AAAAAAAAAA2AI2
IIIIIIAI2IIIIIIIIIIIIIIIIIIIIIIIIIAAAAAAAAAA2AIAI2AAAAAAAAAA2AI2
IIIIAIAI2IIIIIIIIIIIIIIIIIIIIIIIIIAAAAAAAAAA2AIAI2AAAAAAAAAA2AI2
IIIIAIAIAI2IIIIIIIIIIIIIIIIIIIIIIIAAAAAAAAAA2AIAI2AAAAAAAAAA2AI2
IIIIAIAIAI2IIIIAI2IIIIIIIIIIIIIIIIAAAAAAAAAA2AIAI2AAAAAAAAAA2AI2
IIIIAIAIAI2IIIIAI2IIIIIAI2IIIIIIIIAAAAAAAAAA2AIAI2AAAAAAAAAA2AI2
IIIIAIAIAI2IIIIAI2IIIIIAIAI2IIIIIIAAAAAAAAAA2AIAI2AAAAAAAAAA2AI2
IIIIAIAIAI2IIIIAI2IIIIIAIAI2AI2IIIAAAAAAAAAA2AIAI2AAAAAAAAAA2AI2
IIIIAIAIAI2IIIIAI2IIIIIAAA22AI2IIIAAAAAAAAAA2AIAI2AAAAAAAAAA2AI2
IIIIAIAAA22IIIIAI2IIIIIAAA22AI2IIIAAAAAAAAAA2AIAI2AAAAAAAAAA2AI2
IIIIAIAAA22IIIIAI2IIIAIAAA22AI2IIIAAAAAAAAAA2AIAI2AAAAAAAAAA2AI2
IIIIAIAAA22IIIIAI2IIIAIAAA22AI2IAIAAAAAAAAAA2AIAI2AAAAAAAAAA2AI2
IIIIAIAAA22IIIIAI2IIIAIAAA2AA22IAIAAAAAAAAAA2AIAI2AAAAAAAAAA2AI2
IIIIAIAAA22IIIIAI2IIIAIAAA2AAA22AIAAAAAAAAAA2AIAI2AAAAAAAAAA2AI2
IIIIAIAAAA22IIIAI2IIIAIAAA2AAA22AIAAAAAAAAAA2AIAI2AAAAAAAAAA2AI2
IIIIAIAAAA22IIIAI2IIIAIAAA2AAA22AAAAAAAAAAAA2AIAI2AAAAAAAAAA2AI2
IIIIAIAAAA22IIIAI2IIAA2AAA2AAA22AAAAAAAAAAAA2AIAI2AAAAAAAAAA2AI2
IIIIAIAAAA22IIIAI2IAAA2AAA2AAA22AAAAAAAAAAAA2AIAI2AAAAAAAAAA2AI2
IIIIAIAAAA22IIIAI2IAAA2AAA2AAAA2AAAAAAAAAAAA2AIAI2AAAAAAAAAA2AI2
IIIIAIAAAA22IIIAI2IAAA2AAAAAAAA2AAAAAAAAAAAA2AIAI2AAAAAAAAAA2AI2
IIIIAAAAAA22IIIAI2IAAA2AAAAAAAA2AAAAAAAAAAAA2AIAI2AAAAAAAAAA2AI2
IIIIAAAAAA22IIIAI2IAAA2AAAAAAAAAAAAAAAAAAAAA2AIAI2AAAAAAAAAA2AI2
IIIIAAAAAA22IIIAI2IAAAAAAAAAAAAAAAAAAAAAAAAA2AIAI2AAAAAAAAAA2AI2
IIIIAAAAAA2AI2IAI2IAAAAAAAAAAAAAAAAAAAAAAAAA2AIAI2AAAAAAAAAA2AI2
IIIIAAAAAA2AIAIAI2IAAAAAAAAAAAAAAAAAAAAAAAAA2AIAI2AAAAAAAAAA2AI2
IIIIAAAAAA2AIAIAI2IAAAAAAAAAAAAAAAAAAAAAAAAA2AIAI2AAAAAAAAAA2AIA
IIIIAAAAAA2AIAIAI2IAAAAAAAAAAAAAAAAAAAAAAAAA2AIAIAAAAAAAAAAA2AIA
IIIIAAAAAA2AIAIAI2IAAAAAAAAAAAAAAAAAAAAAAAAA2AIAIAAAAAAAAAAA2AAA
IIA2AAAAAA2AIAIAI2IAAAAAAAAAAAAAAAAAAAAAAAAA2AIAIAAAAAAAAAAA2AAA
IIA1AAAAAA1A1A1A111AAAAAAAAAAAAAAAAAAAAAAAAA2AIAIAAAAAAAAAAA2AAA
IAA1AAAAAA1A1A1A111AAAAAAAAAAAAAAAAAAAAAAAAA2AIAIAAAAAAAAAAA2AAA
IAAAAAAAAA1A1A1A111AAAAAAAAAAAAAAAAAAAAAAAAA2AIAIAAAAAAAAAAA2AAA
[MLOP] Prefetch Degree Mean: 8.66571
[MLOP] Prefetch Degree SD: 5.65552
[MLOP] Max Score Left Mean (%): 37.1032
[MLOP] Max Score Left SD (%): 14.4617
[MLOP] Max Score Right Mean (%): 66.0887
[MLOP] Max Score Right SD (%): 23.3136

DRAM Statistics
 CHANNEL 0
 RQ ROW_BUFFER_HIT:    2574094  ROW_BUFFER_MISS:    2149918
 DBUS_CONGESTED:       3725
 WQ ROW_BUFFER_HIT:     489409  ROW_BUFFER_MISS:    2273325  FULL:      23363

 AVG_CONGESTED_CYCLE: 3
 All warmup complete: 2
Channel 0 Bank busy for read cycles: 0
Channel 0 Bank busy for write cycles: 0
Channel 0
Rank 0
0banks busy for read cycles: 152790100
0banks busy for write cycles: 232951
1banks busy for read cycles: 28360477
1banks busy for write cycles: 27728084
2banks busy for read cycles: 13589616
2banks busy for write cycles: 13165482
3banks busy for read cycles: 17142855
3banks busy for write cycles: 8427371
4banks busy for read cycles: 6677424
4banks busy for write cycles: 6499886
5banks busy for read cycles: 6139259
5banks busy for write cycles: 5601155
6banks busy for read cycles: 7037785
6banks busy for write cycles: 5391295
7banks busy for read cycles: 9597986
7banks busy for write cycles: 7288519
8banks busy for read cycles: 23114987
8banks busy for write cycles: 29978420

CPU 0 Branch Prediction Accuracy: 99.9482% MPKI: 0.079205 Average ROB Occupancy at Mispredict: 106.743
Branch types
NOT_BRANCH: 169447800 84.7239%
BRANCH_DIRECT_JUMP: 1661224 0.830612%
BRANCH_INDIRECT: 9989440 4.99472%
BRANCH_CONDITIONAL: 12053307 6.02665%
BRANCH_DIRECT_CALL: 2827619 1.41381%
BRANCH_INDIRECT_CALL: 596257 0.298129%
BRANCH_RETURN: 3424000 1.712%
BRANCH_OTHER: 0 0%

DRAM PAGES: 1048576
Allocated PAGES: 8817
