
*** ChampSim Multicore Out-of-Order Simulator ***

Warmup Instructions: 50000000
Simulation Instructions: 200000000
Number of CPUs: 1
LLC sets: 2048
LLC ways: 16
Off-chip DRAM Size: 4096 MB Channels: 1 Width: 64-bit Data Rate: 6400 MT/s
CPU 0 runs traces/spec2k17/srv_51.champsimtrace.xz
.xz
BTB has LRU replacement policy
ITLB has LRU replacement policy
DTLB has LRU replacement policy
STLB has LRU replacement policy
L1I has LRU replacement policy
L1D has LRU replacement policy
Initialize SRRIP state for L2C
Initialize DRRIP state for LLC
Heartbeat CPU 0 instructions: 10000001 cycles: 2884776 heartbeat IPC: 3.46647 cumulative IPC: 3.46647 (Simulation time: 0 hr 0 min 36 sec) 
Heartbeat CPU 0 instructions: 20000003 cycles: 5691246 heartbeat IPC: 3.5632 cumulative IPC: 3.51417 (Simulation time: 0 hr 1 min 18 sec) 
Heartbeat CPU 0 instructions: 30000003 cycles: 8570573 heartbeat IPC: 3.47303 cumulative IPC: 3.50035 (Simulation time: 0 hr 2 min 2 sec) 
*** Reached end of trace for Core: 0 Repeating trace: traces/spec2k17/srv_51.champsimtrace.xz
Heartbeat CPU 0 instructions: 40000002 cycles: 11446559 heartbeat IPC: 3.47707 cumulative IPC: 3.4945 (Simulation time: 0 hr 2 min 43 sec) 
Heartbeat CPU 0 instructions: 50000001 cycles: 14252831 heartbeat IPC: 3.56345 cumulative IPC: 3.50807 (Simulation time: 0 hr 3 min 20 sec) 

Warmup complete CPU 0 instructions: 50000001 cycles: 14252831 (Simulation time: 0 hr 3 min 20 sec) 

Heartbeat CPU 0 instructions: 60000000 cycles: 40653476 heartbeat IPC: 0.378779 cumulative IPC: 0.378779 (Simulation time: 0 hr 4 min 20 sec) 
*** Reached end of trace for Core: 0 Repeating trace: traces/spec2k17/srv_51.champsimtrace.xz
Heartbeat CPU 0 instructions: 70000002 cycles: 68771505 heartbeat IPC: 0.355644 cumulative IPC: 0.366847 (Simulation time: 0 hr 5 min 20 sec) 
Heartbeat CPU 0 instructions: 80000001 cycles: 85906142 heartbeat IPC: 0.583613 cumulative IPC: 0.418683 (Simulation time: 0 hr 6 min 10 sec) 
Heartbeat CPU 0 instructions: 90000001 cycles: 113941990 heartbeat IPC: 0.356686 cumulative IPC: 0.401247 (Simulation time: 0 hr 7 min 4 sec) 
*** Reached end of trace for Core: 0 Repeating trace: traces/spec2k17/srv_51.champsimtrace.xz
Heartbeat CPU 0 instructions: 100000001 cycles: 141060630 heartbeat IPC: 0.36875 cumulative IPC: 0.394298 (Simulation time: 0 hr 8 min 4 sec) 
Heartbeat CPU 0 instructions: 110000000 cycles: 158762248 heartbeat IPC: 0.56492 cumulative IPC: 0.415198 (Simulation time: 0 hr 8 min 53 sec) 
Heartbeat CPU 0 instructions: 120000000 cycles: 185928636 heartbeat IPC: 0.368102 cumulative IPC: 0.407745 (Simulation time: 0 hr 9 min 47 sec) 
*** Reached end of trace for Core: 0 Repeating trace: traces/spec2k17/srv_51.champsimtrace.xz
Heartbeat CPU 0 instructions: 130000000 cycles: 213242987 heartbeat IPC: 0.366108 cumulative IPC: 0.40203 (Simulation time: 0 hr 10 min 42 sec) 
Heartbeat CPU 0 instructions: 140000000 cycles: 232743520 heartbeat IPC: 0.512806 cumulative IPC: 0.411917 (Simulation time: 0 hr 11 min 46 sec) 
Heartbeat CPU 0 instructions: 150000000 cycles: 257368183 heartbeat IPC: 0.406097 cumulative IPC: 0.411327 (Simulation time: 0 hr 12 min 44 sec) 
*** Reached end of trace for Core: 0 Repeating trace: traces/spec2k17/srv_51.champsimtrace.xz
Heartbeat CPU 0 instructions: 160000003 cycles: 285932423 heartbeat IPC: 0.350088 cumulative IPC: 0.404889 (Simulation time: 0 hr 13 min 55 sec) 
Heartbeat CPU 0 instructions: 170000001 cycles: 306250965 heartbeat IPC: 0.492161 cumulative IPC: 0.410962 (Simulation time: 0 hr 14 min 45 sec) 
Heartbeat CPU 0 instructions: 180000002 cycles: 330912091 heartbeat IPC: 0.405497 cumulative IPC: 0.410536 (Simulation time: 0 hr 15 min 41 sec) 
*** Reached end of trace for Core: 0 Repeating trace: traces/spec2k17/srv_51.champsimtrace.xz
Heartbeat CPU 0 instructions: 190000001 cycles: 357647295 heartbeat IPC: 0.374039 cumulative IPC: 0.407694 (Simulation time: 0 hr 16 min 57 sec) 
Heartbeat CPU 0 instructions: 200000001 cycles: 380038582 heartbeat IPC: 0.446602 cumulative IPC: 0.410076 (Simulation time: 0 hr 17 min 48 sec) 
Heartbeat CPU 0 instructions: 210000002 cycles: 404267545 heartbeat IPC: 0.412729 cumulative IPC: 0.410241 (Simulation time: 0 hr 18 min 46 sec) 
*** Reached end of trace for Core: 0 Repeating trace: traces/spec2k17/srv_51.champsimtrace.xz
Heartbeat CPU 0 instructions: 220000000 cycles: 428946821 heartbeat IPC: 0.405198 cumulative IPC: 0.409941 (Simulation time: 0 hr 19 min 49 sec) 
Heartbeat CPU 0 instructions: 230000002 cycles: 453741902 heartbeat IPC: 0.403306 cumulative IPC: 0.409566 (Simulation time: 0 hr 20 min 47 sec) 
Heartbeat CPU 0 instructions: 240000001 cycles: 477684653 heartbeat IPC: 0.417663 cumulative IPC: 0.409985 (Simulation time: 0 hr 21 min 36 sec) 
*** Reached end of trace for Core: 0 Repeating trace: traces/spec2k17/srv_51.champsimtrace.xz
Heartbeat CPU 0 instructions: 250000003 cycles: 501803203 heartbeat IPC: 0.414619 cumulative IPC: 0.410214 (Simulation time: 0 hr 22 min 38 sec) 
Finished CPU 0 instructions: 200000002 cycles: 487550372 cumulative IPC: 0.410214 (Simulation time: 0 hr 22 min 38 sec) 

ChampSim completed all CPUs

Region of Interest Statistics

CPU 0 cumulative IPC: 0.410214 instructions: 200000002 cycles: 487550372
ITLB TOTAL     ACCESS:   34145811  HIT:   33254824  MISS:     890987  HIT %:    97.3906  MISS %:    2.60936   MPKI: 4.45493
ITLB LOAD TRANSLATION ACCESS:   34145811  HIT:   33254824  MISS:     890987  HIT %:    97.3906  MISS %:    2.60936   MPKI: 4.45493
ITLB PREFETCH  REQUESTED:          0  ISSUED:          0  USEFUL:          0  USELESS:          0
ITLB USEFUL LOAD PREFETCHES:          0 PREFETCH ISSUED TO LOWER LEVEL:          0  ACCURACY: -nan
ITLB TIMELY PREFETCHES:          0 LATE PREFETCHES: 0 DROPPED PREFETCHES: 0
ITLB PREFETCHES SAME FILL-ORIGIN LEVEL: 0 DIFFERENT FILL-ORIGIN LEVEL: 0
ITLB AVERAGE MISS LATENCY: 10.2888 cycles
ITLB RQ	ACCESS:   39344050	FORWARD:          0	MERGED:    4956868	TO_CACHE:   34387182

DTLB TOTAL     ACCESS:   42144622  HIT:   41097139  MISS:    1047483  HIT %:    97.5146  MISS %:    2.48545   MPKI: 5.23741
DTLB LOAD TRANSLATION ACCESS:   42144622  HIT:   41097139  MISS:    1047483  HIT %:    97.5146  MISS %:    2.48545   MPKI: 5.23741
DTLB PREFETCH  REQUESTED:          0  ISSUED:          0  USEFUL:          0  USELESS:          0
DTLB USEFUL LOAD PREFETCHES:          0 PREFETCH ISSUED TO LOWER LEVEL:          0  ACCURACY: -nan
DTLB TIMELY PREFETCHES:          0 LATE PREFETCHES: 0 DROPPED PREFETCHES: 0
DTLB PREFETCHES SAME FILL-ORIGIN LEVEL: 0 DIFFERENT FILL-ORIGIN LEVEL: 0
DTLB AVERAGE MISS LATENCY: 16.3748 cycles
DTLB RQ	ACCESS:   55171603	FORWARD:          0	MERGED:   12959046	TO_CACHE:   42212557

STLB TOTAL     ACCESS:    2670732  HIT:    2586262  MISS:      84470  HIT %:    96.8372  MISS %:     3.1628   MPKI: 0.42235
STLB LOAD TRANSLATION ACCESS:    1938470  HIT:    1854000  MISS:      84470  HIT %:    95.6424  MISS %:    4.35756   MPKI: 0.42235
STLB TRANSLATION FROM L1D PREFETCHER ACCESS:     732262  HIT:     732262  MISS:          0  HIT %:        100  MISS %:          0   MPKI: 0
STLB PREFETCH  REQUESTED:          0  ISSUED:          0  USEFUL:          0  USELESS:          0
STLB USEFUL LOAD PREFETCHES:          0 PREFETCH ISSUED TO LOWER LEVEL:          0  ACCURACY: -nan
STLB TIMELY PREFETCHES:          0 LATE PREFETCHES: 0 DROPPED PREFETCHES: 0
STLB PREFETCHES SAME FILL-ORIGIN LEVEL: 0 DIFFERENT FILL-ORIGIN LEVEL: 0
STLB AVERAGE MISS LATENCY: 104.938 cycles
STLB RQ	ACCESS:    3463858	FORWARD:          0	MERGED:     793126	TO_CACHE:    2670732

STLB Hit, L1D data hit: 0
STLB Hit, L2C data hit: 0
STLB Hit, LLC data hit: 0
STLB Hit, LLC data miss: 0
STLB STLB hints to L2: 0
L1D TOTAL     ACCESS:   55154728  HIT:   51899461  MISS:    3255267  HIT %:    94.0979  MISS %:    5.90206   MPKI: 16.2763
L1D LOAD      ACCESS:   34143512  HIT:   32476715  MISS:    1666797  HIT %:    95.1183  MISS %:    4.88174   MPKI: 8.33398
L1D RFO       ACCESS:   20027766  HIT:   19305644  MISS:     722122  HIT %:    96.3944  MISS %:     3.6056   MPKI: 3.61061
L1D PREFETCH  ACCESS:     983450  HIT:     117102  MISS:     866348  HIT %:    11.9073  MISS %:    88.0927   MPKI: 4.33174
AGUS PREFETCH L1 MISS: 0
L1D PREFETCH  REQUESTED:    3058720  ISSUED:    3058720  USEFUL:     150547  USELESS:     715920
L1D USEFUL LOAD PREFETCHES:     150547 PREFETCH ISSUED TO LOWER LEVEL:    1370895  ACCURACY: 10.9817
L1D TIMELY PREFETCHES:     150547 LATE PREFETCHES: 15236 DROPPED PREFETCHES: 0
L1D PREFETCHES SAME FILL-ORIGIN LEVEL: 884297 DIFFERENT FILL-ORIGIN LEVEL: 486598
L1D AVERAGE MISS LATENCY: 1.42123e+06 cycles
L1D RQ	ACCESS:   46110436	FORWARD:          0	MERGED:   11569426	TO_CACHE:   34244988
L1D WQ	ACCESS:   21239484	FORWARD:     296727	MERGED:     312869	TO_CACHE:   20926615
L1D PQ	ACCESS:    1533332	FORWARD:          0	MERGED:       7239	TO_CACHE:    1525388

L1D UNIQUE REGIONS ACCESSED: 0
L1D REGIONS CONFLICTS: 0
L1D Cross Page Prefetch Requests: 0
L1D Same Page Prefetch Requests: 1843519
L1D ROI Sum of L1D PQ occupancy: 21060533
L1D PREFETCHES PUSHED FROM L2C: 0
L1I TOTAL     ACCESS:   38619311  HIT:   33875206  MISS:    4744105  HIT %:    87.7157  MISS %:    12.2843   MPKI: 23.7205
L1I LOAD      ACCESS:   38619311  HIT:   33875206  MISS:    4744105  HIT %:    87.7157  MISS %:    12.2843   MPKI: 23.7205
L1I PREFETCH  REQUESTED:          0  ISSUED:          0  USEFUL:          0  USELESS:          0
L1I USEFUL LOAD PREFETCHES:          0 PREFETCH ISSUED TO LOWER LEVEL:          0  ACCURACY: -nan
L1I TIMELY PREFETCHES:          0 LATE PREFETCHES: 0 DROPPED PREFETCHES: 0
L1I PREFETCHES SAME FILL-ORIGIN LEVEL: 0 DIFFERENT FILL-ORIGIN LEVEL: 0
L1I AVERAGE MISS LATENCY: 26.1502 cycles
L1I RQ	ACCESS:   59219309	FORWARD:          0	MERGED:   19875259	TO_CACHE:   39344050

BTB TOTAL     ACCESS:   30738842  HIT:   24217545  MISS:    6521297  HIT %:    78.7848  MISS %:    21.2152   MPKI: 32.6065
BTB BRANCH_DIRECT_JUMP	ACCESS:    3651900  HIT:    3183732  MISS:     468168
BTB BRANCH_INDIRECT	ACCESS:   11989101  HIT:    9519360  MISS:    2469741
BTB BRANCH_CONDITIONAL	ACCESS:    8587084  HIT:    8036020  MISS:     551064
BTB BRANCH_DIRECT_CALL	ACCESS:    2662247  HIT:    1824351  MISS:     837896
BTB BRANCH_INDIRECT_CALL	ACCESS:     593188  HIT:     320085  MISS:     273103
BTB BRANCH_RETURN	ACCESS:    3255322  HIT:    1333997  MISS:    1921325
BTB BRANCH_OTHER ACCESS:          0  HIT:          0  MISS:          0

L2C TOTAL     ACCESS:    9879006  HIT:    5848966  MISS:    4030040  HIT %:     59.206  MISS %:     40.794   MPKI: 20.1502
L2C LOAD      ACCESS:    6395632  HIT:    3995493  MISS:    2400139  HIT %:    62.4722  MISS %:    37.5278   MPKI: 12.0007
L2C DATA LOAD MPKI: 3.29591
L2C INSTRUCTION LOAD MPKI: 8.70478
L2C RFO       ACCESS:     719374  HIT:     375301  MISS:     344073  HIT %:    52.1705  MISS %:    47.8295   MPKI: 1.72036
L2C PREFETCH  ACCESS:    1357032  HIT:     205812  MISS:    1151220  HIT %:    15.1663  MISS %:    84.8337   MPKI: 5.7561
AGUS PREFETCH L1 MISS: 0
L2C DATA PREFETCH MPKI: 5.7561
L2C INSTRUCTION PREFETCH MPKI: 0
L2C WRITEBACK ACCESS:    1274010  HIT:    1215340  MISS:      58670  HIT %:    95.3949  MISS %:    4.60514   MPKI: 0.29335
L2C LOAD TRANSLATION ACCESS:     132958  HIT:      57020  MISS:      75938  HIT %:    42.8857  MISS %:    57.1143   MPKI: 0.37969
L2C PREFETCH  REQUESTED:          0  ISSUED:          0  USEFUL:     135897  USELESS:    1014743
L2C USEFUL LOAD PREFETCHES:     135897 PREFETCH ISSUED TO LOWER LEVEL:    1159748  ACCURACY: 11.7178
L2C TIMELY PREFETCHES:     135897 LATE PREFETCHES: 8528 DROPPED PREFETCHES: 0
L2C PREFETCHES SAME FILL-ORIGIN LEVEL: 434084 DIFFERENT FILL-ORIGIN LEVEL: 0
L2C AVERAGE MISS LATENCY: 63.9928 cycles
L2C RQ	ACCESS:    7248033	FORWARD:          0	MERGED:          0	TO_CACHE:    7247964
L2C WQ	ACCESS:    1274010	FORWARD:         70	MERGED:          0	TO_CACHE:    1274010
L2C PQ	ACCESS:    1370895	FORWARD:          0	MERGED:         12	TO_CACHE:    1370882

L2C Instructions Evicting Data 835427
L2C Translations Evicting Data 48402
L2C Data Evicting Data 1297519
L2C Instructions Evicting Instructions 879306
L2C Translations Evicting Instructions 25653
L2C Data Evicting Instructions 810264
L2C Instructions Evicting Translations 26223
L2C Translations Evicting Translations 1883
L2C Data Evicting Translations 46693
L2C Dense regions hint from L2: 0
PSCL5 TOTAL     ACCESS:      84470  HIT:      84470  MISS:          0  HIT %:        100  MISS %:          0   MPKI: 0
PSCL5 LOAD TRANSLATION ACCESS:      84470  HIT:      84470  MISS:          0  HIT %:        100  MISS %:          0   MPKI: 0
PSCL5 PREFETCH  REQUESTED:          0  ISSUED:          0  USEFUL:          0  USELESS:          0
PSCL5 USEFUL LOAD PREFETCHES:          0 PREFETCH ISSUED TO LOWER LEVEL:          0  ACCURACY: -nan
PSCL5 TIMELY PREFETCHES:          0 LATE PREFETCHES: 0 DROPPED PREFETCHES: 0
PSCL5 PREFETCHES SAME FILL-ORIGIN LEVEL: 0 DIFFERENT FILL-ORIGIN LEVEL: 0

PSCL4 TOTAL     ACCESS:      83871  HIT:      83448  MISS:        423  HIT %:    99.4957  MISS %:   0.504346   MPKI: 0.002115
PSCL4 LOAD TRANSLATION ACCESS:      83871  HIT:      83448  MISS:        423  HIT %:    99.4957  MISS %:   0.504346   MPKI: 0.002115
PSCL4 PREFETCH  REQUESTED:          0  ISSUED:          0  USEFUL:          0  USELESS:          0
PSCL4 USEFUL LOAD PREFETCHES:          0 PREFETCH ISSUED TO LOWER LEVEL:          0  ACCURACY: -nan
PSCL4 TIMELY PREFETCHES:          0 LATE PREFETCHES: 0 DROPPED PREFETCHES: 0
PSCL4 PREFETCHES SAME FILL-ORIGIN LEVEL: 0 DIFFERENT FILL-ORIGIN LEVEL: 0

PSCL3 TOTAL     ACCESS:      78594  HIT:      65374  MISS:      13220  HIT %:    83.1794  MISS %:    16.8206   MPKI: 0.0661
PSCL3 LOAD TRANSLATION ACCESS:      78594  HIT:      65374  MISS:      13220  HIT %:    83.1794  MISS %:    16.8206   MPKI: 0.0661
PSCL3 PREFETCH  REQUESTED:          0  ISSUED:          0  USEFUL:          0  USELESS:          0
PSCL3 USEFUL LOAD PREFETCHES:          0 PREFETCH ISSUED TO LOWER LEVEL:          0  ACCURACY: -nan
PSCL3 TIMELY PREFETCHES:          0 LATE PREFETCHES: 0 DROPPED PREFETCHES: 0
PSCL3 PREFETCHES SAME FILL-ORIGIN LEVEL: 0 DIFFERENT FILL-ORIGIN LEVEL: 0

PSCL2 TOTAL     ACCESS:      84470  HIT:      49625  MISS:      34845  HIT %:    58.7487  MISS %:    41.2513   MPKI: 0.174225
PSCL2 LOAD TRANSLATION ACCESS:      84470  HIT:      49625  MISS:      34845  HIT %:    58.7487  MISS %:    41.2513   MPKI: 0.174225
PSCL2 PREFETCH  REQUESTED:          0  ISSUED:          0  USEFUL:          0  USELESS:          0
PSCL2 USEFUL LOAD PREFETCHES:          0 PREFETCH ISSUED TO LOWER LEVEL:          0  ACCURACY: -nan
PSCL2 TIMELY PREFETCHES:          0 LATE PREFETCHES: 0 DROPPED PREFETCHES: 0
PSCL2 PREFETCHES SAME FILL-ORIGIN LEVEL: 0 DIFFERENT FILL-ORIGIN LEVEL: 0

LLC TOTAL     ACCESS:    4609180  HIT:    3747109  MISS:     862071  HIT %:    81.2967  MISS %:    18.7033   MPKI: 4.31035
LLC LOAD      ACCESS:    2392947  HIT:    2186706  MISS:     206241  HIT %:    91.3813  MISS %:     8.6187   MPKI: 1.0312
LLC RFO       ACCESS:     342732  HIT:     185423  MISS:     157309  HIT %:    54.1015  MISS %:    45.8985   MPKI: 0.786545
LLC PREFETCH  ACCESS:    1159747  HIT:     697274  MISS:     462473  HIT %:    60.1229  MISS %:    39.8771   MPKI: 2.31236
AGUS PREFETCH L1 MISS: 0
LLC WRITEBACK ACCESS:     637816  HIT:     627036  MISS:      10780  HIT %:    98.3099  MISS %:    1.69014   MPKI: 0.0539
LLC LOAD TRANSLATION ACCESS:      75938  HIT:      50670  MISS:      25268  HIT %:    66.7255  MISS %:    33.2745   MPKI: 0.12634
LLC PREFETCH  REQUESTED:          0  ISSUED:          0  USEFUL:      30237  USELESS:     428964
LLC USEFUL LOAD PREFETCHES:      30237 PREFETCH ISSUED TO LOWER LEVEL:     462473  ACCURACY: 6.53811
LLC TIMELY PREFETCHES:      30237 LATE PREFETCHES: 0 DROPPED PREFETCHES: 0
LLC PREFETCHES SAME FILL-ORIGIN LEVEL: 0 DIFFERENT FILL-ORIGIN LEVEL: 0
LLC AVERAGE MISS LATENCY: 161.467 cycles
LLC RQ	ACCESS:    2811622	FORWARD:          0	MERGED:          0	TO_CACHE:    2811617
LLC WQ	ACCESS:     637816	FORWARD:          6	MERGED:          0	TO_CACHE:     637816
LLC PQ	ACCESS:    1159748	FORWARD:          0	MERGED:          0	TO_CACHE:    1159747

LLC Dense regions hint to LLC: 0

RAW hits: 2268644
Loads Generated: 48379080
Loads sent to L1D: 46110436
Stores Generated: 21239482
Stores sent to L1D: 21239484
Major fault: 0 Minor fault: 6400
Allocated PAGES: 6400
=== CPU 0 L1D Prefetcher Statistics ===
[MLOP] History of tracked zone:
IIIIIIIIIIIIIIIIIIIIIIIIIIIIIIIIIIIIIIIIIIIIIIIIIIIIIIIIIIIIIIII
IIIIIIIIIIIIIIIIIIIIIIIIIIIIIIIIIIIIIIIIIIIIIIIIIIIIIIIIIIIIIIIA
IIIIIIIIIIIIIIIIIIIIIIIIIIIIIIIIIIIIIIIIIIIIIIIIIIIIIIIIIIIIII2A
IIIIIIIIIIIIIIIIIIIIIIIIIIIIIIIIIIIIIIIIIIIIIIIIIIIIIIIIIIIIIIIA
IIIIIIIIIIIIIIIIIIIIIIIIIIIIIIIIIIIIIIIIIIIIIIIIIIIIIIIIIIIIII2A
IIIIIIIIIIIIIIIIIIIIIIIIIIIIIIIIIIIIIIIIIIIIIIIIIIIIIIIIIIIIIIIA
IIIIIIIIIIIIIIIIIIIIIIIIIIIIIIIIIIIIIIIIIIIIIIIIIIIIIIIIIIIIII2A
IIIIIIIIIIIIIIIIIIIIIIIIIIIIIIIIIIIIIIIIIIIIIIIIIIIIIIIIIIIIIIIA
IIIIIIIIIIIIIIIIIIIIIIIIIIIIIIIIIIIIIIIIIIIIIIIIIIIIIIIIIIIIII2A
IIIIIIIIIIIIIIIIIIIIIIIIIIIIIIIIIIIIIIIIIIIIIIIIIIIIIIIIIIIIIIIA
IIIIIIIIIIIIIIIIIIIIIIIIIIIIIIIIIIIIIIIIIIIIIIIIIIIIIIIIIIIIII2A
IIIIIIIIIIIIIIIIIIIIIIIIIIIIIIIIIIIIIIIIIIIIIIIIIIIIIIIIIIIIIIIA
IIIIIIIIIIIIIIIIIIIIIIIIIIIIIIIIIIIIIIIIIIIIIIIIIIIIIIIIIIIIII2A
IIIIIIIIIIIIIIIIIIIIIIIIIIIIIIIIIIIIIIIIIIIIIIIIIIIIIIIIIIIIIIIA
IIIIIIIIIIIIIIIIIIIIIIIIIIIIIIIIIIIIIIIIIIIIIIIIIIIIIIIIIIIIII2A
IIIIIIIIIIIIIIIIIIIIIIIIIIIIIIIIIIIIIIIIIIIIIIIIIIIIIIIIIIIIIIIA
IIIIIIIIIIIIIIIIIIIIIIIIIIIIIIIIIIIIIIIIIIIIIIIIIIIIIIIIIIIIII2A
IIIIIIIIIIIIIIIIIIIIIIIIIIIIIIIIIIIIIIIIIIIIIIIIIIIIIIIIIIIIIIIA
IIIIIIIIIIIIIIIIIIIIIIIIIIIIIIIIIIIIIIIIIIIIIIIIIIIIIIIIIIIIII2A
IIIIIIIIIIIIIIIIIIIIIIIIIIIIIIIIIIIIIIIIIIIIIIIIIIIIIIIIIIIIIIIA
IIIIIIIIIIIIIIIIIIIIIIIIIIIIIIIIIIIIIIIIIIIIIIIIIIIIIIIIIIIIII2A
IIIIIIIIIIIIIIIIIIIIIIIIIIIIIIIIIIIIIIIIIIIIIIIIIIIIIIIIIIIIIIIA
IIIIIIIIIIIIIIIIIIIIIIIIIIIIIIIIIIIIIIIIIIIIIIIIIIIIIIIIIIIIII2A
IIIIIIIIIIIIIIIIIIIIIIIIIIIIIIIIIIIIIIIIIIIIIIIIIIIIIIIIIIIIIIIA
IIIIIIIIIIIIIIIIIIIIIIIIIIIIIIIIIIIIIIIIIIIIIIIIIIIIIIIIIIIIII2A
IIIIIIIIIIIIIIIIIIIIIIIIIIIIIIIIIIIIIIIIIIIIIIIIIIIIIIIIIIIIIIIA
IIIIIIIIIIIIIIIIIIIIIIIIIIIIIIIIIIIIIIIIIIIIIIIIIIIIIIIIIIIIII2A
IIIIIIIIIIIIIIIIIIIIIIIIIIIIIIIIIIIIIIIIIIIIIIIIIIIIIIIIIIIIIIIA
IIIIIIIIIIIIIIIIIIIIIIIIIIIIIIIIIIIIIIIIIIIIIIIIIIIIIIIIIIIIII2A
IIIIIIIIIIIIIIIIIIIIIIIIIIIIIIIIIIIIIIIIIIIIIIIIIIIIIIIIIIIIIIIA
IIIIIIIIIIIIIIIIIIIIIIIIIIIIIIIIIIIIIIIIIIIIIIIIIIIIIIIIIIIIII2A
IIIIIIIIIIIIIIIIIIIIIIIIIIIIIIIIIIIIIIIIIIIIIIIIIIIIIIIIIIIIIIIA
IIIIIIIIIIIIIIIIIIIIIIIIIIIIIIIIIIIIIIIIIIIIIIIIIIIIIIIIIIIIII2A
IIIIIIIIIIIIIIIIIIIIIIIIIIIIIIIIIIIIIIIIIIIIIIIIIIIIIIIIIIIIIIIA
IIIIIIIIIIIIIIIIIIIIIIIIIIIIIIIIIIIIIIIIIIIIIIIIIIIIIIIIIIIIII2A
IIIIIIIIIIIIIIIIIIIIIIIIIIIIIIIIIIIIIIIIIIIIIIIIIIIIIIIIIIIIIIIA
IIIIIIIIIIIIIIIIIIIIIIIIIIIIIIIIIIIIIIIIIIIIIIIIIIIIIIIIIIIIII2A
IIIIIIIIIIIIIIIIIIIIIIIIIIIIIIIIIIIIIIIIIIIIIIIIIIIIIIIIIIIIIIIA
IIIIIIIIIIIIIIIIIIIIIIIIIIIIIIIIIIIIIIIIIIIIIIIIIIIIIIIIIIIIII2A
IIIIIIIIIIIIIIIIIIIIIIIIIIIIIIIIIIIIIIIIIIIIIIIIIIIIIIIIIIIIIIIA
IIIIIIIIIIIIIIIIIIIIIIIIIIIIIIIIIIIIIIIIIIIIIIIIIIIIIIIIIIIIII2A
IIIIIIIIIIIIIIIIIIIIIIIIIIIIIIIIIIIIIIIIIIIIIIIIIIIIIIIIIIIIIIIA
IIIIIIIIIIIIIIIIIIIIIIIIIIIIIIIIIIIIIIIIIIIIIIIIIIIIIIIIIIIIII2A
IIIIIIIIIIIIIIIIIIIIIIIIIIIIIIIIIIIIIIIIIIIIIIIIIIIIIIIIIIIIIIIA
IIIIIIIIIIIIIIIIIIIIIIIIIIIIIIIIIIIIIIIIIIIIIIIIIIIIIIIIIIIIII2A
IIIIIIIIIIIIIIIIIIIIIIIIIIIIIIIIIIIIIIIIIIIIIIIIIIIIIIIIIIIIIIIA
IIIIIIIIIIIIIIIIIIIIIIIIIIIIIIIIIIIIIIIIIIIIIIIIIIIIIIIIIIIIII2A
IIIIIIIIIIIIIIIIIIIIIIIIIIIIIIIIIIIIIIIIIIIIIIIIIIIIIIIIIIIIIIIA
IIIIIIIIIIIIIIIIIIIIIIIIIIIIIIIIIIIIIIIIIIIIIIIIIIIIIIIIIIIIII2A
IIIIIIIIIIIIIIIIIIIIIIIIIIIIIIIIIIIIIIIIIIIIIIIIIIIIIIIIIIIIIIIA
IIIIIIIIIIIIIIIIIIIIIIIIIIIIIIIIIIIIIIIIIIIIIIIIIIIIIIIIIIIIII2A
IIIIIIIIIIIIIIIIIIIIIIIIIIIIIIIIIIIIIIIIIIIIIIIIIIIIIIIIIIIIIIIA
IIIIIIIIIIIIIIIIIIIIIIIIIIIIIIIIIIIIIIIIIIIIIIIIIIIIIIIIIIIIII2A
IIIIIIIIIIIIIIIIIIIIIIIIIIIIIIIIIIIIIIIIIIIIIIIIIIIIIIIIIIIIIIIA
IIIIIIIIIIIIIIIIIIIIIIIIIIIIIIIIIIIIIIIIIIIIIIIIIIIIIIIIIIIIII2A
IIIIIIIIIIIIIIIIIIIIIIIIIIIIIIIIIIIIIIIIIIIIIIIIIIIIIIIIIIIIIIIA
IIIIIIIIIIIIIIIIIIIIIIIIIIIIIIIIIIIIIIIIIIIIIIIIIIIIIIIIIIIIII2A
IIIIIIIIIIIIIIIIIIIIIIIIIIIIIIIIIIIIIIIIIIIIIIIIIIIIIIIIIIIIIIIA
[MLOP] Prefetch Degree Mean: 2.24751
[MLOP] Prefetch Degree SD: 3.49987
[MLOP] Max Score Left Mean (%): 13.1277
[MLOP] Max Score Left SD (%): 10.5865
[MLOP] Max Score Right Mean (%): 40.4362
[MLOP] Max Score Right SD (%): 11.3317

DRAM Statistics
 CHANNEL 0
 RQ ROW_BUFFER_HIT:     273176  ROW_BUFFER_MISS:     578099
 DBUS_CONGESTED:        595
 WQ ROW_BUFFER_HIT:      44590  ROW_BUFFER_MISS:     267316  FULL:          0

 AVG_CONGESTED_CYCLE: 4
 All warmup complete: 2
Channel 0 Bank busy for read cycles: 0
Channel 0 Bank busy for write cycles: 0
Channel 0
Rank 0
0banks busy for read cycles: 409924936
0banks busy for write cycles: 110052
1banks busy for read cycles: 29247172
1banks busy for write cycles: 14434206
2banks busy for read cycles: 11062130
2banks busy for write cycles: 5107925
3banks busy for read cycles: 3962129
3banks busy for write cycles: 2404405
4banks busy for read cycles: 1946051
4banks busy for write cycles: 1377069
5banks busy for read cycles: 1096627
5banks busy for write cycles: 930319
6banks busy for read cycles: 961985
6banks busy for write cycles: 678001
7banks busy for read cycles: 1013788
7banks busy for write cycles: 631807
8banks busy for read cycles: 1388058
8banks busy for write cycles: 1273713

CPU 0 Branch Prediction Accuracy: 99.6854% MPKI: 0.56232 Average ROB Occupancy at Mispredict: 36.0256
Branch types
NOT_BRANCH: 164252984 82.1265%
BRANCH_DIRECT_JUMP: 3651900 1.82595%
BRANCH_INDIRECT: 11989101 5.99455%
BRANCH_CONDITIONAL: 13594936 6.79747%
BRANCH_DIRECT_CALL: 2662247 1.33112%
BRANCH_INDIRECT_CALL: 593188 0.296594%
BRANCH_RETURN: 3255322 1.62766%
BRANCH_OTHER: 0 0%

DRAM PAGES: 1048576
Allocated PAGES: 6400
