
*** ChampSim Multicore Out-of-Order Simulator ***

Warmup Instructions: 50000000
Simulation Instructions: 200000000
Number of CPUs: 1
LLC sets: 2048
LLC ways: 16
Off-chip DRAM Size: 4096 MB Channels: 1 Width: 64-bit Data Rate: 6400 MT/s
CPU 0 runs traces/spec2k17/srv_15.champsimtrace.xz
.xz
BTB has LRU replacement policy
ITLB has LRU replacement policy
DTLB has LRU replacement policy
STLB has LRU replacement policy
L1I has LRU replacement policy
L1D has LRU replacement policy
Initialize SRRIP state for L2C
Initialize DRRIP state for LLC
Heartbeat CPU 0 instructions: 10000002 cycles: 2862810 heartbeat IPC: 3.49307 cumulative IPC: 3.49307 (Simulation time: 0 hr 0 min 37 sec) 
Heartbeat CPU 0 instructions: 20000001 cycles: 5716232 heartbeat IPC: 3.50456 cumulative IPC: 3.49881 (Simulation time: 0 hr 1 min 15 sec) 
Heartbeat CPU 0 instructions: 30000000 cycles: 8569590 heartbeat IPC: 3.50464 cumulative IPC: 3.50075 (Simulation time: 0 hr 1 min 47 sec) 
*** Reached end of trace for Core: 0 Repeating trace: traces/spec2k17/srv_15.champsimtrace.xz
Heartbeat CPU 0 instructions: 40000000 cycles: 11425502 heartbeat IPC: 3.50151 cumulative IPC: 3.50094 (Simulation time: 0 hr 2 min 26 sec) 
Heartbeat CPU 0 instructions: 50000001 cycles: 14278214 heartbeat IPC: 3.50544 cumulative IPC: 3.50184 (Simulation time: 0 hr 3 min 3 sec) 

Warmup complete CPU 0 instructions: 50000001 cycles: 14278214 (Simulation time: 0 hr 3 min 3 sec) 

Heartbeat CPU 0 instructions: 60000000 cycles: 46822470 heartbeat IPC: 0.307274 cumulative IPC: 0.307274 (Simulation time: 0 hr 4 min 0 sec) 
*** Reached end of trace for Core: 0 Repeating trace: traces/spec2k17/srv_15.champsimtrace.xz
Heartbeat CPU 0 instructions: 70000000 cycles: 79369648 heartbeat IPC: 0.307246 cumulative IPC: 0.30726 (Simulation time: 0 hr 4 min 55 sec) 
Heartbeat CPU 0 instructions: 80000001 cycles: 112120907 heartbeat IPC: 0.305332 cumulative IPC: 0.306615 (Simulation time: 0 hr 5 min 59 sec) 
Heartbeat CPU 0 instructions: 90000001 cycles: 144434896 heartbeat IPC: 0.309464 cumulative IPC: 0.307322 (Simulation time: 0 hr 6 min 51 sec) 
*** Reached end of trace for Core: 0 Repeating trace: traces/spec2k17/srv_15.champsimtrace.xz
Heartbeat CPU 0 instructions: 100000002 cycles: 177224709 heartbeat IPC: 0.304973 cumulative IPC: 0.306849 (Simulation time: 0 hr 7 min 45 sec) 
Heartbeat CPU 0 instructions: 110000000 cycles: 209830920 heartbeat IPC: 0.30669 cumulative IPC: 0.306823 (Simulation time: 0 hr 8 min 45 sec) 
Heartbeat CPU 0 instructions: 120000001 cycles: 242254114 heartbeat IPC: 0.308421 cumulative IPC: 0.30705 (Simulation time: 0 hr 9 min 40 sec) 
*** Reached end of trace for Core: 0 Repeating trace: traces/spec2k17/srv_15.champsimtrace.xz
Heartbeat CPU 0 instructions: 130000001 cycles: 275027039 heartbeat IPC: 0.30513 cumulative IPC: 0.306809 (Simulation time: 0 hr 10 min 36 sec) 
Heartbeat CPU 0 instructions: 140000000 cycles: 307407407 heartbeat IPC: 0.308829 cumulative IPC: 0.307032 (Simulation time: 0 hr 11 min 37 sec) 
Heartbeat CPU 0 instructions: 150000003 cycles: 339867792 heartbeat IPC: 0.308068 cumulative IPC: 0.307135 (Simulation time: 0 hr 12 min 31 sec) 
*** Reached end of trace for Core: 0 Repeating trace: traces/spec2k17/srv_15.champsimtrace.xz
Heartbeat CPU 0 instructions: 160000000 cycles: 372628665 heartbeat IPC: 0.305242 cumulative IPC: 0.306962 (Simulation time: 0 hr 13 min 27 sec) 
Heartbeat CPU 0 instructions: 170000002 cycles: 405054053 heartbeat IPC: 0.3084 cumulative IPC: 0.307081 (Simulation time: 0 hr 14 min 25 sec) 
Heartbeat CPU 0 instructions: 180000000 cycles: 437650239 heartbeat IPC: 0.306784 cumulative IPC: 0.307059 (Simulation time: 0 hr 15 min 20 sec) 
*** Reached end of trace for Core: 0 Repeating trace: traces/spec2k17/srv_15.champsimtrace.xz
Heartbeat CPU 0 instructions: 190000003 cycles: 470157270 heartbeat IPC: 0.307626 cumulative IPC: 0.307099 (Simulation time: 0 hr 16 min 21 sec) 
Heartbeat CPU 0 instructions: 200000001 cycles: 502743664 heartbeat IPC: 0.306876 cumulative IPC: 0.307084 (Simulation time: 0 hr 17 min 8 sec) 
Heartbeat CPU 0 instructions: 210000001 cycles: 535245128 heartbeat IPC: 0.307678 cumulative IPC: 0.307121 (Simulation time: 0 hr 18 min 6 sec) 
*** Reached end of trace for Core: 0 Repeating trace: traces/spec2k17/srv_15.champsimtrace.xz
Heartbeat CPU 0 instructions: 220000000 cycles: 567660466 heartbeat IPC: 0.308496 cumulative IPC: 0.307202 (Simulation time: 0 hr 18 min 55 sec) 
Heartbeat CPU 0 instructions: 230000001 cycles: 600267766 heartbeat IPC: 0.30668 cumulative IPC: 0.307173 (Simulation time: 0 hr 19 min 53 sec) 
Heartbeat CPU 0 instructions: 240000001 cycles: 632760404 heartbeat IPC: 0.307762 cumulative IPC: 0.307204 (Simulation time: 0 hr 20 min 49 sec) 
Heartbeat CPU 0 instructions: 250000000 cycles: 665231248 heartbeat IPC: 0.307969 cumulative IPC: 0.307242 (Simulation time: 0 hr 21 min 53 sec) 
Finished CPU 0 instructions: 200000000 cycles: 650953035 cumulative IPC: 0.307242 (Simulation time: 0 hr 21 min 53 sec) 

ChampSim completed all CPUs

Region of Interest Statistics

CPU 0 cumulative IPC: 0.307242 instructions: 200000000 cycles: 650953035
ITLB TOTAL     ACCESS:   35738345  HIT:   33483962  MISS:    2254383  HIT %:     93.692  MISS %:    6.30802   MPKI: 11.2719
ITLB LOAD TRANSLATION ACCESS:   35738345  HIT:   33483962  MISS:    2254383  HIT %:     93.692  MISS %:    6.30802   MPKI: 11.2719
ITLB PREFETCH  REQUESTED:          0  ISSUED:          0  USEFUL:          0  USELESS:          0
ITLB USEFUL LOAD PREFETCHES:          0 PREFETCH ISSUED TO LOWER LEVEL:          0  ACCURACY: -nan
ITLB TIMELY PREFETCHES:          0 LATE PREFETCHES: 0 DROPPED PREFETCHES: 0
ITLB PREFETCHES SAME FILL-ORIGIN LEVEL: 0 DIFFERENT FILL-ORIGIN LEVEL: 0
ITLB AVERAGE MISS LATENCY: 9.24726 cycles
ITLB RQ	ACCESS:   41981949	FORWARD:          0	MERGED:    5698035	TO_CACHE:   36283914

DTLB TOTAL     ACCESS:   45704528  HIT:   43665666  MISS:    2038862  HIT %:     95.539  MISS %:    4.46096   MPKI: 10.1943
DTLB LOAD TRANSLATION ACCESS:   45704528  HIT:   43665666  MISS:    2038862  HIT %:     95.539  MISS %:    4.46096   MPKI: 10.1943
DTLB PREFETCH  REQUESTED:          0  ISSUED:          0  USEFUL:          0  USELESS:          0
DTLB USEFUL LOAD PREFETCHES:          0 PREFETCH ISSUED TO LOWER LEVEL:          0  ACCURACY: -nan
DTLB TIMELY PREFETCHES:          0 LATE PREFETCHES: 0 DROPPED PREFETCHES: 0
DTLB PREFETCHES SAME FILL-ORIGIN LEVEL: 0 DIFFERENT FILL-ORIGIN LEVEL: 0
DTLB AVERAGE MISS LATENCY: 9.2766 cycles
DTLB RQ	ACCESS:   60515147	FORWARD:          0	MERGED:   14748708	TO_CACHE:   45766439

STLB TOTAL     ACCESS:    5107203  HIT:    5078214  MISS:      28989  HIT %:    99.4324  MISS %:    0.56761   MPKI: 0.144945
STLB LOAD TRANSLATION ACCESS:    4293245  HIT:    4264256  MISS:      28989  HIT %:    99.3248  MISS %:   0.675224   MPKI: 0.144945
STLB TRANSLATION FROM L1D PREFETCHER ACCESS:     813958  HIT:     813958  MISS:          0  HIT %:        100  MISS %:          0   MPKI: 0
STLB PREFETCH  REQUESTED:          0  ISSUED:          0  USEFUL:          0  USELESS:          0
STLB USEFUL LOAD PREFETCHES:          0 PREFETCH ISSUED TO LOWER LEVEL:          0  ACCURACY: -nan
STLB TIMELY PREFETCHES:          0 LATE PREFETCHES: 0 DROPPED PREFETCHES: 0
STLB PREFETCHES SAME FILL-ORIGIN LEVEL: 0 DIFFERENT FILL-ORIGIN LEVEL: 0
STLB AVERAGE MISS LATENCY: 37.7293 cycles
STLB RQ	ACCESS:    7500892	FORWARD:          0	MERGED:    2393689	TO_CACHE:    5107203

STLB Hit, L1D data hit: 0
STLB Hit, L2C data hit: 0
STLB Hit, LLC data hit: 0
STLB Hit, LLC data miss: 0
STLB STLB hints to L2: 0
L1D TOTAL     ACCESS:   61061435  HIT:   53499662  MISS:    7561773  HIT %:    87.6161  MISS %:    12.3839   MPKI: 37.8089
L1D LOAD      ACCESS:   33950496  HIT:   29882016  MISS:    4068480  HIT %:    88.0164  MISS %:    11.9836   MPKI: 20.3424
L1D RFO       ACCESS:   24697658  HIT:   23530045  MISS:    1167613  HIT %:    95.2724  MISS %:    4.72763   MPKI: 5.83807
L1D PREFETCH  ACCESS:    2413281  HIT:      87601  MISS:    2325680  HIT %:    3.62995  MISS %:      96.37   MPKI: 11.6284
AGUS PREFETCH L1 MISS: 0
L1D PREFETCH  REQUESTED:    6422133  ISSUED:    6422133  USEFUL:     496237  USELESS:    1829324
L1D USEFUL LOAD PREFETCHES:     496237 PREFETCH ISSUED TO LOWER LEVEL:    3092628  ACCURACY: 16.0458
L1D TIMELY PREFETCHES:     496237 LATE PREFETCHES: 37512 DROPPED PREFETCHES: 0
L1D PREFETCHES SAME FILL-ORIGIN LEVEL: 2363786 DIFFERENT FILL-ORIGIN LEVEL: 728842
L1D AVERAGE MISS LATENCY: 1.59243e+06 cycles
L1D RQ	ACCESS:   46481432	FORWARD:          0	MERGED:   12089642	TO_CACHE:   34071764
L1D WQ	ACCESS:   26586297	FORWARD:     320065	MERGED:     142914	TO_CACHE:   26443383
L1D PQ	ACCESS:    3214486	FORWARD:          0	MERGED:       6800	TO_CACHE:    3207647

L1D UNIQUE REGIONS ACCESSED: 0
L1D REGIONS CONFLICTS: 0
L1D Cross Page Prefetch Requests: 0
L1D Same Page Prefetch Requests: 4014926
L1D ROI Sum of L1D PQ occupancy: 45757753
L1D PREFETCHES PUSHED FROM L2C: 0
L1I TOTAL     ACCESS:   40234760  HIT:   28790883  MISS:   11443877  HIT %:    71.5572  MISS %:    28.4428   MPKI: 57.2194
L1I LOAD      ACCESS:   40234760  HIT:   28790883  MISS:   11443877  HIT %:    71.5572  MISS %:    28.4428   MPKI: 57.2194
L1I PREFETCH  REQUESTED:          0  ISSUED:          0  USEFUL:          0  USELESS:          0
L1I USEFUL LOAD PREFETCHES:          0 PREFETCH ISSUED TO LOWER LEVEL:          0  ACCURACY: -nan
L1I TIMELY PREFETCHES:          0 LATE PREFETCHES: 0 DROPPED PREFETCHES: 0
L1I PREFETCHES SAME FILL-ORIGIN LEVEL: 0 DIFFERENT FILL-ORIGIN LEVEL: 0
L1I AVERAGE MISS LATENCY: 16.7005 cycles
L1I RQ	ACCESS:   58645342	FORWARD:          0	MERGED:   16663393	TO_CACHE:   41981949

BTB TOTAL     ACCESS:   30711821  HIT:   18461256  MISS:   12250565  HIT %:    60.1112  MISS %:    39.8888   MPKI: 61.2528
BTB BRANCH_DIRECT_JUMP	ACCESS:    1879118  HIT:    1082631  MISS:     796487
BTB BRANCH_INDIRECT	ACCESS:   12151413  HIT:    7482073  MISS:    4669340
BTB BRANCH_CONDITIONAL	ACCESS:    7502010  HIT:    6260751  MISS:    1241259
BTB BRANCH_DIRECT_CALL	ACCESS:    3871933  HIT:    1894091  MISS:    1977842
BTB BRANCH_INDIRECT_CALL	ACCESS:     717697  HIT:     351527  MISS:     366170
BTB BRANCH_RETURN	ACCESS:    4589650  HIT:    1390183  MISS:    3199467
BTB BRANCH_OTHER ACCESS:          0  HIT:          0  MISS:          0

L2C TOTAL     ACCESS:   22144010  HIT:   19702487  MISS:    2441523  HIT %:    88.9743  MISS %:    11.0257   MPKI: 12.2076
L2C LOAD      ACCESS:   15474833  HIT:   14137964  MISS:    1336869  HIT %:     91.361  MISS %:    8.63899   MPKI: 6.68435
L2C DATA LOAD MPKI: 1.74524
L2C INSTRUCTION LOAD MPKI: 4.93911
L2C RFO       ACCESS:    1167006  HIT:    1071084  MISS:      95922  HIT %:    91.7805  MISS %:     8.2195   MPKI: 0.47961
L2C PREFETCH  ACCESS:    3075765  HIT:    2108908  MISS:     966857  HIT %:    68.5653  MISS %:    31.4347   MPKI: 4.83429
AGUS PREFETCH L1 MISS: 0
L2C DATA PREFETCH MPKI: 4.83429
L2C INSTRUCTION PREFETCH MPKI: 0
L2C WRITEBACK ACCESS:    2396199  HIT:    2369738  MISS:      26461  HIT %:    98.8957  MISS %:    1.10429   MPKI: 0.132305
L2C LOAD TRANSLATION ACCESS:      30207  HIT:      14793  MISS:      15414  HIT %:    48.9721  MISS %:    51.0279   MPKI: 0.07707
L2C PREFETCH  REQUESTED:          0  ISSUED:          0  USEFUL:      37101  USELESS:     929384
L2C USEFUL LOAD PREFETCHES:      37101 PREFETCH ISSUED TO LOWER LEVEL:     975637  ACCURACY: 3.80275
L2C TIMELY PREFETCHES:      37101 LATE PREFETCHES: 8780 DROPPED PREFETCHES: 0
L2C PREFETCHES SAME FILL-ORIGIN LEVEL: 227800 DIFFERENT FILL-ORIGIN LEVEL: 0
L2C AVERAGE MISS LATENCY: 33.7875 cycles
L2C RQ	ACCESS:   16672072	FORWARD:          0	MERGED:          0	TO_CACHE:   16672047
L2C WQ	ACCESS:    2396199	FORWARD:         25	MERGED:          0	TO_CACHE:    2396199
L2C PQ	ACCESS:    3092628	FORWARD:          0	MERGED:        173	TO_CACHE:    3092455

L2C Instructions Evicting Data 512907
L2C Translations Evicting Data 10880
L2C Data Evicting Data 902875
L2C Instructions Evicting Instructions 470372
L2C Translations Evicting Instructions 4420
L2C Data Evicting Instructions 498284
L2C Instructions Evicting Translations 4543
L2C Translations Evicting Translations 114
L2C Data Evicting Translations 10667
L2C Dense regions hint from L2: 0
PSCL5 TOTAL     ACCESS:      28989  HIT:      28989  MISS:          0  HIT %:        100  MISS %:          0   MPKI: 0
PSCL5 LOAD TRANSLATION ACCESS:      28989  HIT:      28989  MISS:          0  HIT %:        100  MISS %:          0   MPKI: 0
PSCL5 PREFETCH  REQUESTED:          0  ISSUED:          0  USEFUL:          0  USELESS:          0
PSCL5 USEFUL LOAD PREFETCHES:          0 PREFETCH ISSUED TO LOWER LEVEL:          0  ACCURACY: -nan
PSCL5 TIMELY PREFETCHES:          0 LATE PREFETCHES: 0 DROPPED PREFETCHES: 0
PSCL5 PREFETCHES SAME FILL-ORIGIN LEVEL: 0 DIFFERENT FILL-ORIGIN LEVEL: 0

PSCL4 TOTAL     ACCESS:      25370  HIT:      25245  MISS:        125  HIT %:    99.5073  MISS %:   0.492708   MPKI: 0.000625
PSCL4 LOAD TRANSLATION ACCESS:      25370  HIT:      25245  MISS:        125  HIT %:    99.5073  MISS %:   0.492708   MPKI: 0.000625
PSCL4 PREFETCH  REQUESTED:          0  ISSUED:          0  USEFUL:          0  USELESS:          0
PSCL4 USEFUL LOAD PREFETCHES:          0 PREFETCH ISSUED TO LOWER LEVEL:          0  ACCURACY: -nan
PSCL4 TIMELY PREFETCHES:          0 LATE PREFETCHES: 0 DROPPED PREFETCHES: 0
PSCL4 PREFETCHES SAME FILL-ORIGIN LEVEL: 0 DIFFERENT FILL-ORIGIN LEVEL: 0

PSCL3 TOTAL     ACCESS:      26915  HIT:      26790  MISS:        125  HIT %:    99.5356  MISS %:   0.464425   MPKI: 0.000625
PSCL3 LOAD TRANSLATION ACCESS:      26915  HIT:      26790  MISS:        125  HIT %:    99.5356  MISS %:   0.464425   MPKI: 0.000625
PSCL3 PREFETCH  REQUESTED:          0  ISSUED:          0  USEFUL:          0  USELESS:          0
PSCL3 USEFUL LOAD PREFETCHES:          0 PREFETCH ISSUED TO LOWER LEVEL:          0  ACCURACY: -nan
PSCL3 TIMELY PREFETCHES:          0 LATE PREFETCHES: 0 DROPPED PREFETCHES: 0
PSCL3 PREFETCHES SAME FILL-ORIGIN LEVEL: 0 DIFFERENT FILL-ORIGIN LEVEL: 0

PSCL2 TOTAL     ACCESS:      28989  HIT:      28021  MISS:        968  HIT %:    96.6608  MISS %:     3.3392   MPKI: 0.00484
PSCL2 LOAD TRANSLATION ACCESS:      28989  HIT:      28021  MISS:        968  HIT %:    96.6608  MISS %:     3.3392   MPKI: 0.00484
PSCL2 PREFETCH  REQUESTED:          0  ISSUED:          0  USEFUL:          0  USELESS:          0
PSCL2 USEFUL LOAD PREFETCHES:          0 PREFETCH ISSUED TO LOWER LEVEL:          0  ACCURACY: -nan
PSCL2 TIMELY PREFETCHES:          0 LATE PREFETCHES: 0 DROPPED PREFETCHES: 0
PSCL2 PREFETCHES SAME FILL-ORIGIN LEVEL: 0 DIFFERENT FILL-ORIGIN LEVEL: 0

LLC TOTAL     ACCESS:    2576871  HIT:    2504404  MISS:      72467  HIT %:    97.1878  MISS %:    2.81221   MPKI: 0.362335
LLC LOAD      ACCESS:    1328172  HIT:    1319195  MISS:       8977  HIT %:    99.3241  MISS %:   0.675891   MPKI: 0.044885
LLC RFO       ACCESS:      95828  HIT:      92057  MISS:       3771  HIT %:    96.0648  MISS %:    3.93518   MPKI: 0.018855
LLC PREFETCH  ACCESS:     975637  HIT:     916907  MISS:      58730  HIT %:    93.9803  MISS %:    6.01966   MPKI: 0.29365
AGUS PREFETCH L1 MISS: 0
LLC WRITEBACK ACCESS:     161820  HIT:     161207  MISS:        613  HIT %:    99.6212  MISS %:   0.378816   MPKI: 0.003065
LLC LOAD TRANSLATION ACCESS:      15414  HIT:      15038  MISS:        376  HIT %:    97.5607  MISS %:    2.43934   MPKI: 0.00188
LLC PREFETCH  REQUESTED:          0  ISSUED:          0  USEFUL:       2686  USELESS:      55921
LLC USEFUL LOAD PREFETCHES:       2686 PREFETCH ISSUED TO LOWER LEVEL:      58730  ACCURACY: 4.57347
LLC TIMELY PREFETCHES:       2686 LATE PREFETCHES: 0 DROPPED PREFETCHES: 0
LLC PREFETCHES SAME FILL-ORIGIN LEVEL: 0 DIFFERENT FILL-ORIGIN LEVEL: 0
LLC AVERAGE MISS LATENCY: 138.303 cycles
LLC RQ	ACCESS:    1439426	FORWARD:          0	MERGED:          0	TO_CACHE:    1439415
LLC WQ	ACCESS:     161820	FORWARD:         11	MERGED:          0	TO_CACHE:     161820
LLC PQ	ACCESS:     975637	FORWARD:          0	MERGED:          0	TO_CACHE:     975637

LLC Dense regions hint to LLC: 0

RAW hits: 1487474
Loads Generated: 47968906
Loads sent to L1D: 46481432
Stores Generated: 26586297
Stores sent to L1D: 26586297
Major fault: 0 Minor fault: 1825
Allocated PAGES: 1825
=== CPU 0 L1D Prefetcher Statistics ===
[MLOP] History of tracked zone:
IIIIIIIIIIIIIIIIIIIIIIIIIIIIIIIIIIIIIIIIIIIIIIIIIIIIIIIIIIIIIIII
AIIIIIIIIIIIIIIIIIIIIIIIIIIIIIIIIIIIIIIIIIIIIIIIIIIIIIIIIIIIIIII
AIIIAIIIIIIIIIIIIIIIIIIIIIIIIIIIIIIIIIIIIIIIIIIIIIIIIIIIIIIIIIII
AIIIAIIAIIIIIIIIIIIIIIIIIIIIIIIIIIIIIIIIIIIIIIIIIIIIIIIIIIIIIIII
IIIIA2IIIIIIIIIIIIIIIIIIIIIIIIIIIIIIIIIIIIIIIIIIIIIIIIIIIIIIIIII
IIIIA1111111111111IIIIIIIIIIIIIIIIIIIIIIIIIIIIIIIIIIIIIIIIIIIIII
AIIIIIIIIIIIIIIIIIIIIIIIIIIIIIIIIIIIIIIIIIIIIIIIIIIIIIIIIIIIIIII
A1IIIIIIIIIIIIIIIIIIIIIIIIIIIIIIIIIIIIIIIIIIIIIIIIIIIIIIIIIIIIII
A1IIA1111111111111IIIIIIIIIIIIIIIIIIIIIIIIIIIIIIIIIIIIIIIIIIIIII
A1IIA11A1111111111111IIIIIIIIIIIIIIIIIIIIIIIIIIIIIIIIIIIIIIIIIII
IIIIAI1I1I11122222222IIIIIIIIIIIIIIIIIIIIIIIIIIIIIIIIIIIIIIIIIII
IIIIA11I1I11122222222IIIIIIIIIIIIIIIIIIIIIIIIIIIIIIIIIIIIIIIIIII
IIIIA11I1I11121222222IIIIIIIIIIIIIIIIIIIIIIIIIIIIIIIIIIIIIIIIIII
IIIIA11I1I11111222222IIIIIIIIIIIIIIIIIIIIIIIIIIIIIIIIIIIIIIIIIII
AI1IA1111I11111222222IIIIIIIIIIIIIIIIIIIIIIIIIIIIIIIIIIIIIIIIIII
AI1IA11A1111111222222222IIIIIIIIIIIIIIIIIIIIIIIIIIIIIIIIIIIIIIII
IIIIAI1I1I11I22222222IIIIIIIIIIIIIIIIIIIIIIIIIIIIIIIIIIIIIIIIIII
IIIIA11I1I11I22222222IIIIIIIIIIIIIIIIIIIIIIIIIIIIIIIIIIIIIIIIIII
IIIIA11I1I11121222222IIIIIIIIIIIIIIIIIIIIIIIIIIIIIIIIIIIIIIIIIII
IIIIAI1I1I111I1222222IIIIIIIIIIIIIIIIIIIIIIIIIIIIIIIIIIIIIIIIIII
IIIIA11I1I111I1222222IIIIIIIIIIIIIIIIIIIIIIIIIIIIIIIIIIIIIIIIIII
IIIIA11I1I11111222222IIIIIIIIIIIIIIIIIIIIIIIIIIIIIIIIIIIIIIIIIII
IIIIAI1I1I2222IIIIIIIIIIIIIIIIIIIIIIIIIIIIIIIIIIIIIIIIIIIIIIIIII
IIIIA11I1I2222IIIIIIIIIIIIIIIIIIIIIIIIIIIIIIIIIIIIIIIIIIIIIIIIII
IIIIA11I1I1122222222IIIIIIIIIIIIIIIIIIIIIIIIIIIIIIIIIIIIIIIIIIII
IIIIAI1I1I222I2IIIIIIIIIIIIIIIIIIIIIIIIIIIIIIIIIIIIIIIIIIIIIIIII
IIIIA11I1I222I2IIIIIIIIIIIIIIIIIIIIIIIIIIIIIIIIIIIIIIIIIIIIIIIII
IIIIA1IIIIIIIIIIIIIIIIIIIIIIIIIIIIIIIIIIIIIIIIIIIIIIIIIIIIIIIIII
IIIIAI1I11212I222IIIIIIIIIIIIIIIIIIIIIIIIIIIIIIIIIIIIIIIIIIIIIII
AI1IA11111212I222IIIIIIIIIIIIIIIIIIIIIIIIIIIIIIIIIIIIIIIIIIIIIII
AI1IA11A112112122222IIIIIIIIIIIIIIIIIIIIIIIIIIIIIIIIIIIIIIIIIIII
IIIIAI1I11212I222IIIIIIIIIIIIIIIIIIIIIIIIIIIIIIIIIIIIIIIIIIIIIII
IIIIA11I11212I222IIIIIIIIIIIIIIIIIIIIIIIIIIIIIIIIIIIIIIIIIIIIIII
IIIIA11I11111I222222IIIIIIIIIIIIIIIIIIIIIIIIIIIIIIIIIIIIIIIIIIII
IIIIA11I1111111222222IIIIIIIIIIIIIIIIIIIIIIIIIIIIIIIIIIIIIIIIIII
IIIIAI1I1I11111I22222IIIIIIIIIIIIIIIIIIIIIIIIIIIIIIIIIIIIIIIIIII
IIIIA11I1I11111I22222IIIIIIIIIIIIIIIIIIIIIIIIIIIIIIIIIIIIIIIIIII
IIIIA11I1I11111222222IIIIIIIIIIIIIIIIIIIIIIIIIIIIIIIIIIIIIIIIIII
IIIIA11I1I11111111222IIIIIIIIIIIIIIIIIIIIIIIIIIIIIIIIIIIIIIIIIII
AI1I1I1112222IIIIIIIIIIIIIIIIIIIIIIIIIIIIIIIIIIIIIIIIIIIIIIIIIII
AI1I1I11122222222IIIIIIIIIIIIIIIIIIIIIIIIIIIIIIIIIIIIIIIIIIIIIII
AI1IAI111211122222222IIIIIIIIIIIIIIIIIIIIIIIIIIIIIIIIIIIIIIIIIII
AI1IAI1A1111111122222222IIIIIIIIIIIIIIIIIIIIIIIIIIIIIIIIIIIIIIII
IIIIAI1I1I11122222222IIIIIIIIIIIIIIIIIIIIIIIIIIIIIIIIIIIIIIIIIII
IIIIA11I1I11122222222IIIIIIIIIIIIIIIIIIIIIIIIIIIIIIIIIIIIIIIIIII
IIIIA1121I11122222222IIIIIIIIIIIIIIIIIIIIIIIIIIIIIIIIIIIIIIIIIII
IIIIA1121I11111112222IIIIIIIIIIIIIIIIIIIIIIIIIIIIIIIIIIIIIIIIIII
IIIIA1111I11111112222IIIIIIIIIIIIIIIIIIIIIIIIIIIIIIIIIIIIIIIIIII
AI111I11112IIIIIIIIIIIIIIIIIIIIIIIIIIIIIIIIIIIIIIIIIIIIIIIIIIIII
AI111I1111222222IIIIIIIIIIIIIIIIIIIIIIIIIIIIIIIIIIIIIIIIIIIIIIII
AI11AI111111112222222IIIIIIIIIIIIIIIIIIIIIIIIIIIIIIIIIIIIIIIIIII
AI11AI1A1111111112222222IIIIIIIIIIIIIIIIIIIIIIIIIIIIIIIIIIIIIIII
IIIIAI111I11112222222IIIIIIIIIIIIIIIIIIIIIIIIIIIIIIIIIIIIIIIIIII
A2IIIIIIIIIIIIIIIIIIIIIIIIIIIIIIIIIIIIIIIIIIIIIIIIIIIIIIIIIIIIII
A2IIA2IIIIIIIIIIIIIIIIIIIIIIIIIIIIIIIIIIIIIIIIIIIIIIIIIIIIIIIIII
A2IIA2IA2IIIIIIIIIIIIIIIIIIIIIIIIIIIIIIIIIIIIIIIIIIIIIIIIIIIIIII
IIIIA2IIIIIIIIIIIIIIIIIIIIIIIIIIIIIIIIIIIIIIIIIIIIIIIIIIIIIIIIII
IIIIA11I111111111112IIIIIIIIIIIIIIIIIIIIIIIIIIIIIIIIIIIIIIIIIIII
A11IIIIIIIIIIIIIIIIIIIIIIIIIIIIIIIIIIIIIIIIIIIIIIIIIIIIIIIIIIIII
A11I11IIIIIIIIIIIIIIIIIIIIIIIIIIIIIIIIIIIIIIIIIIIIIIIIIIIIIIIIII
A11IA11I111111111112IIIIIIIIIIIIIIIIIIIIIIIIIIIIIIIIIIIIIIIIIIII
A11IA11A111111111111112IIIIIIIIIIIIIIIIIIIIIIIIIIIIIIIIIIIIIIIII
A11IA11A1111111111111122IIIIIIIIIIIIIIIIIIIIIIIIIIIIIIIIIIIIIIII
IIIIA1111111111112IIIIIIIIIIIIIIIIIIIIIIIIIIIIIIIIIIIIIIIIIIIIII
A2IIA1111111111112IIIIIIIIIIIIIIIIIIIIIIIIIIIIIIIIIIIIIIIIIIIIII
A2IIA11A1111111112IIIIIIIIIIIIIIIIIIIIIIIIIIIIIIIIIIIIIIIIIIIIII
A2IIA11A11111111122IIIIIIIIIIIIIIIIIIIIIIIIIIIIIIIIIIIIIIIIIIIII
IIIIA11I1I12I222222IIIIIIIIIIIIIIIIIIIIIIIIIIIIIIIIIIIIIIIIIIIII
IIIIA11I1I11111111222IIIIIIIIIIIIIIIIIIIIIIIIIIIIIIIIIIIIIIIIIII
A1IIA11I1I11111111222IIIIIIIIIIIIIIIIIIIIIIIIIIIIIIIIIIIIIIIIIII
A1IIA11A1111111111222IIIIIIIIIIIIIIIIIIIIIIIIIIIIIIIIIIIIIIIIIII
IIIIAI1I1I222I2I2IIIIIIIIIIIIIIIIIIIIIIIIIIIIIIIIIIIIIIIIIIIIIII
IIIIA1121I222I2I2IIIIIIIIIIIIIIIIIIIIIIIIIIIIIIIIIIIIIIIIIIIIIII
IIIIA1121I11111222222IIIIIIIIIIIIIIIIIIIIIIIIIIIIIIIIIIIIIIIIIII
AI1IA1111111111222222IIIIIIIIIIIIIIIIIIIIIIIIIIIIIIIIIIIIIIIIIII
AI1IA11A1111111111222222IIIIIIIIIIIIIIIIIIIIIIIIIIIIIIIIIIIIIIII
A1IIIIIIIIIIIIIIIIIIIIIIIIIIIIIIIIIIIIIIIIIIIIIIIIIIIIIIIIIIIIII
A1IIA1IIIIIIIIIIIIIIIIIIIIIIIIIIIIIIIIIIIIIIIIIIIIIIIIIIIIIIIIII
A1IIA1IA1IIIIIIIIIIIIIIIIIIIIIIIIIIIIIIIIIIIIIIIIIIIIIIIIIIIIIII
IIIIA1IIIIIIIIIIIIIIIIIIIIIIIIIIIIIIIIIIIIIIIIIIIIIIIIIIIIIIIIII
IIIIA11I222222IIIIIIIIIIIIIIIIIIIIIIIIIIIIIIIIIIIIIIIIIIIIIIIIII
IIIIAI1I222222IIIIIIIIIIIIIIIIIIIIIIIIIIIIIIIIIIIIIIIIIIIIIIIIII
AI1IA212222222IIIIIIIIIIIIIIIIIIIIIIIIIIIIIIIIIIIIIIIIIIIIIIIIII
AI1IA21A212222222IIIIIIIIIIIIIIIIIIIIIIIIIIIIIIIIIIIIIIIIIIIIIII
A1I22IIIIIIIIIIIIIIIIIIIIIIIIIIIIIIIIIIIIIIIIIIIIIIIIIIIIIIIIIII
A1I2A1I22IIIIIIIIIIIIIIIIIIIIIIIIIIIIIIIIIIIIIIIIIIIIIIIIIIIIIII
A1I2A1IA1I22IIIIIIIIIIIIIIIIIIIIIIIIIIIIIIIIIIIIIIIIIIIIIIIIIIII
A1I2A11A11111I222222IIIIIIIIIIIIIIIIIIIIIIIIIIIIIIIIIIIIIIIIIIII
AI1I1I1112222IIIIIIIIIIIIIIIIIIIIIIIIIIIIIIIIIIIIIIIIIIIIIIIIIII
AI1I1I1112222222IIIIIIIIIIIIIIIIIIIIIIIIIIIIIIIIIIIIIIIIIIIIIIII
AI1IAI111211122222222IIIIIIIIIIIIIIIIIIIIIIIIIIIIIIIIIIIIIIIIIII
AI1IAI1A1111111122222222IIIIIIIIIIIIIIIIIIIIIIIIIIIIIIIIIIIIIIII
IIIIAI1I1I11122222222IIIIIIIIIIIIIIIIIIIIIIIIIIIIIIIIIIIIIIIIIII
IIIIA11I1I11122222222IIIIIIIIIIIIIIIIIIIIIIIIIIIIIIIIIIIIIIIIIII
AI1IA1111I11122222222IIIIIIIIIIIIIIIIIIIIIIIIIIIIIIIIIIIIIIIIIII
AI1IA11A1111121222222IIIIIIIIIIIIIIIIIIIIIIIIIIIIIIIIIIIIIIIIIII
IIIIAI1I1I21II222IIIIIIIIIIIIIIIIIIIIIIIIIIIIIIIIIIIIIIIIIIIIIII
IIIIA11I1I21II222IIIIIIIIIIIIIIIIIIIIIIIIIIIIIIIIIIIIIIIIIIIIIII
IIIIA11I1I112I222222IIIIIIIIIIIIIIIIIIIIIIIIIIIIIIIIIIIIIIIIIIII
IIIIA1121I112I222222IIIIIIIIIIIIIIIIIIIIIIIIIIIIIIIIIIIIIIIIIIII
IIIIA1121I111I2122222IIIIIIIIIIIIIIIIIIIIIIIIIIIIIIIIIIIIIIIIIII
IIIIA1121I11111112222IIIIIIIIIIIIIIIIIIIIIIIIIIIIIIIIIIIIIIIIIII
A11I1I11IIIIIIIIIIIIIIIIIIIIIIIIIIIIIIIIIIIIIIIIIIIIIIIIIIIIIIII
A11I1I1111111IIIIIIIIIIIIIIIIIIIIIIIIIIIIIIIIIIIIIIIIIIIIIIIIIII
A11IA1111111111112222IIIIIIIIIIIIIIIIIIIIIIIIIIIIIIIIIIIIIIIIIII
A11IA11A1111111111112222IIIIIIIIIIIIIIIIIIIIIIIIIIIIIIIIIIIIIIII
IIIIA2IIIIIIIIIIIIIIIIIIIIIIIIIIIIIIIIIIIIIIIIIIIIIIIIIIIIIIIIII
IIIIA11I1I11111112222IIIIIIIIIIIIIIIIIIIIIIIIIIIIIIIIIIIIIIIIIII
A11I1I1IIIIIIIIIIIIIIIIIIIIIIIIIIIIIIIIIIIIIIIIIIIIIIIIIIIIIIIII
A11I1I1111111222IIIIIIIIIIIIIIIIIIIIIIIIIIIIIIIIIIIIIIIIIIIIIIII
A11IA1111111111112222IIIIIIIIIIIIIIIIIIIIIIIIIIIIIIIIIIIIIIIIIII
A11IA11A1111111111112222IIIIIIIIIIIIIIIIIIIIIIIIIIIIIIIIIIIIIIII
IIIIA11I1I11111112222IIIIIIIIIIIIIIIIIIIIIIIIIIIIIIIIIIIIIIIIIII
IIIIA11I1111111111111IIIIIIIIIIIIIIIIIIIIIIIIIIIIIIIIIIIIIIIIIII
A11IA11I1111111111111IIIIIIIIIIIIIIIIIIIIIIIIIIIIIIIIIIIIIIIIIII
A11IA1111111111111111IIIIIIIIIIIIIIIIIIIIIIIIIIIIIIIIIIIIIIIIIII
A11IA11A111111111111112IIIIIIIIIIIIIIIIIIIIIIIIIIIIIIIIIIIIIIIII
IIIIA2IIIIIIIIIIIIIIIIIIIIIIIIIIIIIIIIIIIIIIIIIIIIIIIIIIIIIIIIII
IIIIA11111111111112IIIIIIIIIIIIIIIIIIIIIIIIIIIIIIIIIIIIIIIIIIIII
IIIIA1111111111111222IIIIIIIIIIIIIIIIIIIIIIIIIIIIIIIIIIIIIIIIIII
A2IIIIIIIIIIIIIIIIIIIIIIIIIIIIIIIIIIIIIIIIIIIIIIIIIIIIIIIIIIIIII
A2IIA2IIIIIIIIIIIIIIIIIIIIIIIIIIIIIIIIIIIIIIIIIIIIIIIIIIIIIIIIII
A2IIA2IA2IIIIIIIIIIIIIIIIIIIIIIIIIIIIIIIIIIIIIIIIIIIIIIIIIIIIIII
IIIIA11I2I22IIIIIIIIIIIIIIIIIIIIIIIIIIIIIIIIIIIIIIIIIIIIIIIIIIII
IIIIA1122222IIIIIIIIIIIIIIIIIIIIIIIIIIIIIIIIIIIIIIIIIIIIIIIIIIII
IIIIA1121212222222IIIIIIIIIIIIIIIIIIIIIIIIIIIIIIIIIIIIIIIIIIIIII
IIIIA1I2IIIIIIIIIIIIIIIIIIIIIIIIIIIIIIIIIIIIIIIIIIIIIIIIIIIIIIII
A1I2A1I2IIIIIIIIIIIIIIIIIIIIIIIIIIIIIIIIIIIIIIIIIIIIIIIIIIIIIIII
A1I2A1IA1I2IIIIIIIIIIIIIIIIIIIIIIIIIIIIIIIIIIIIIIIIIIIIIIIIIIIII
IIIIAI1I11122I222IIIIIIIIIIIIIIIIIIIIIIIIIIIIIIIIIIIIIIIIIIIIIII
IIIIA11I11122I222IIIIIIIIIIIIIIIIIIIIIIIIIIIIIIIIIIIIIIIIIIIIIII
A1IIIIIIIIIIIIIIIIIIIIIIIIIIIIIIIIIIIIIIIIIIIIIIIIIIIIIIIIIIIIII
A1IIA1IIIIIIIIIIIIIIIIIIIIIIIIIIIIIIIIIIIIIIIIIIIIIIIIIIIIIIIIII
A1IIA1IA1IIIIIIIIIIIIIIIIIIIIIIIIIIIIIIIIIIIIIIIIIIIIIIIIIIIIIII
A1IIIIIIIIIIIIIIIIIIIIIIIIIIIIIIIIIIIIIIIIIIIIIIIIIIIIIIIIIIIIII
A1IIA1IIIIIIIIIIIIIIIIIIIIIIIIIIIIIIIIIIIIIIIIIIIIIIIIIIIIIIIIII
A1IIA1IA1IIIIIIIIIIIIIIIIIIIIIIIIIIIIIIIIIIIIIIIIIIIIIIIIIIIIIII
A1IIA12A1I2IIIIIIIIIIIIIIIIIIIIIIIIIIIIIIIIIIIIIIIIIIIIIIIIIIIII
A1IIA11A111111111111IIIIIIIIIIIIIIIIIIIIIIIIIIIIIIIIIIIIIIIIIIII
A11IA11A111111111111IIIIIIIIIIIIIIIIIIIIIIIIIIIIIIIIIIIIIIIIIIII
A11IA11A111111111111111IIIIIIIIIIIIIIIIIIIIIIIIIIIIIIIIIIIIIIIII
IIIIA11I111111111111IIIIIIIIIIIIIIIIIIIIIIIIIIIIIIIIIIIIIIIIIIII
IIIIA11I1111111111111IIIIIIIIIIIIIIIIIIIIIIIIIIIIIIIIIIIIIIIIIII
IIIIA11I1I111II112222IIIIIIIIIIIIIIIIIIIIIIIIIIIIIIIIIIIIIIIIIII
IIIIA11I1I111I1112222IIIIIIIIIIIIIIIIIIIIIIIIIIIIIIIIIIIIIIIIIII
IIIIA11I1111111112I2IIIIIIIIIIIIIIIIIIIIIIIIIIIIIIIIIIIIIIIIIIII
A11IIIIIIIIIIIIIIIIIIIIIIIIIIIIIIIIIIIIIIIIIIIIIIIIIIIIIIIIIIIII
A11I1111111IIIIIIIIIIIIIIIIIIIIIIIIIIIIIIIIIIIIIIIIIIIIIIIIIIIII
A11IA1111111111112I2IIIIIIIIIIIIIIIIIIIIIIIIIIIIIIIIIIIIIIIIIIII
A11IA11A1111111111112I2IIIIIIIIIIIIIIIIIIIIIIIIIIIIIIIIIIIIIIIII
IIIIA2IIIIIIIIIIIIIIIIIIIIIIIIIIIIIIIIIIIIIIIIIIIIIIIIIIIIIIIIII
IIIIA11111111111112IIIIIIIIIIIIIIIIIIIIIIIIIIIIIIIIIIIIIIIIIIIII
A1111IIIIIIIIIIIIIIIIIIIIIIIIIIIIIIIIIIIIIIIIIIIIIIIIIIIIIIIIIII
A111111111111122IIIIIIIIIIIIIIIIIIIIIIIIIIIIIIIIIIIIIIIIIIIIIIII
A111A111111111111122IIIIIIIIIIIIIIIIIIIIIIIIIIIIIIIIIIIIIIIIIIII
A111A11A111111111111122IIIIIIIIIIIIIIIIIIIIIIIIIIIIIIIIIIIIIIIII
IIIIA1IIIIIIIIIIIIIIIIIIIIIIIIIIIIIIIIIIIIIIIIIIIIIIIIIIIIIIIIII
IIIIA11I1II1II1222222IIIIIIIIIIIIIIIIIIIIIIIIIIIIIIIIIIIIIIIIIII
IIIIA11I1I11II1222222IIIIIIIIIIIIIIIIIIIIIIIIIIIIIIIIIIIIIIIIIII
IIIIA1121I11II1222222IIIIIIIIIIIIIIIIIIIIIIIIIIIIIIIIIIIIIIIIIII
IIIIA1121I112I1222222IIIIIIIIIIIIIIIIIIIIIIIIIIIIIIIIIIIIIIIIIII
AI1IA1121I11221222222IIIIIIIIIIIIIIIIIIIIIIIIIIIIIIIIIIIIIIIIIII
AI1IA11A1I11221222222IIIIIIIIIIIIIIIIIIIIIIIIIIIIIIIIIIIIIIIIIII
IIIIA1IIIIIIIIIIIIIIIIIIIIIIIIIIIIIIIIIIIIIIIIIIIIIIIIIIIIIIIIII
IIIIA11I1I222IIIIIIIIIIIIIIIIIIIIIIIIIIIIIIIIIIIIIIIIIIIIIIIIIII
IIIIA1IIIIIIIIIIIIIIIIIIIIIIIIIIIIIIIIIIIIIIIIIIIIIIIIIIIIIIIIII
IIIIA11I1I11II2222I22IIIIIIIIIIIIIIIIIIIIIIIIIIIIIIIIIIIIIIIIIII
IIIIA11I1I112I2222I22IIIIIIIIIIIIIIIIIIIIIIIIIIIIIIIIIIIIIIIIIII
IIIIA11I1I11111111111IIIIIIIIIIIIIIIIIIIIIIIIIIIIIIIIIIIIIIIIIII
IIIIA11I1I11111111112IIIIIIIIIIIIIIIIIIIIIIIIIIIIIIIIIIIIIIIIIII
IIIIA11I1211111111112IIIIIIIIIIIIIIIIIIIIIIIIIIIIIIIIIIIIIIIIIII
IIIIA1IIIIIIIIIIIIIIIIIIIIIIIIIIIIIIIIIIIIIIIIIIIIIIIIIIIIIIIIII
IIIIA11I11122I2I22IIIIIIIIIIIIIIIIIIIIIIIIIIIIIIIIIIIIIIIIIIIIII
IIIIAI1I11122I2I22IIIIIIIIIIIIIIIIIIIIIIIIIIIIIIIIIIIIIIIIIIIIII
IIIIA1IIIIIIIIIIIIIIIIIIIIIIIIIIIIIIIIIIIIIIIIIIIIIIIIIIIIIIIIII
A1IIA1IIIIIIIIIIIIIIIIIIIIIIIIIIIIIIIIIIIIIIIIIIIIIIIIIIIIIIIIII
A1IIA1IA1IIIIIIIIIIIIIIIIIIIIIIIIIIIIIIIIIIIIIIIIIIIIIIIIIIIIIII
IIIIA1IIIIIIIIIIIIIIIIIIIIIIIIIIIIIIIIIIIIIIIIIIIIIIIIIIIIIIIIII
IIIIA11I1I22222IIIIIIIIIIIIIIIIIIIIIIIIIIIIIIIIIIIIIIIIIIIIIIIII
IIIIA11I1I11112222222IIIIIIIIIIIIIIIIIIIIIIIIIIIIIIIIIIIIIIIIIII
IIIIA1IIIIIIIIIIIIIIIIIIIIIIIIIIIIIIIIIIIIIIIIIIIIIIIIIIIIIIIIII
IIIIA11I1I11222222222IIIIIIIIIIIIIIIIIIIIIIIIIIIIIIIIIIIIIIIIIII
IIIIA11I1I11122222222IIIIIIIIIIIIIIIIIIIIIIIIIIIIIIIIIIIIIIIIIII
IIIIA11I1I11111222222IIIIIIIIIIIIIIIIIIIIIIIIIIIIIIIIIIIIIIIIIII
A1IIIIIIIIIIIIIIIIIIIIIIIIIIIIIIIIIIIIIIIIIIIIIIIIIIIIIIIIIIIIII
A1IIA1IIIIIIIIIIIIIIIIIIIIIIIIIIIIIIIIIIIIIIIIIIIIIIIIIIIIIIIIII
A1IIA1IA1IIIIIIIIIIIIIIIIIIIIIIIIIIIIIIIIIIIIIIIIIIIIIIIIIIIIIII
IIIIA1IIIIIIIIIIIIIIIIIIIIIIIIIIIIIIIIIIIIIIIIIIIIIIIIIIIIIIIIII
IIIIA11I1I1222222222IIIIIIIIIIIIIIIIIIIIIIIIIIIIIIIIIIIIIIIIIIII
IIIIA11I1I11222222222IIIIIIIIIIIIIIIIIIIIIIIIIIIIIIIIIIIIIIIIIII
IIIIA1121I11222222222IIIIIIIIIIIIIIIIIIIIIIIIIIIIIIIIIIIIIIIIIII
IIIIA1121I11111112222IIIIIIIIIIIIIIIIIIIIIIIIIIIIIIIIIIIIIIIIIII
AI1I1I1112IIIIIIIIIIIIIIIIIIIIIIIIIIIIIIIIIIIIIIIIIIIIIIIIIIIIII
AI1I1I11122222222IIIIIIIIIIIIIIIIIIIIIIIIIIIIIIIIIIIIIIIIIIIIIII
AI1IAI111211122222222IIIIIIIIIIIIIIIIIIIIIIIIIIIIIIIIIIIIIIIIIII
AI1IAI1A1111111122222222IIIIIIIIIIIIIIIIIIIIIIIIIIIIIIIIIIIIIIII
IIIIAI1I1I11122222222IIIIIIIIIIIIIIIIIIIIIIIIIIIIIIIIIIIIIIIIIII
AI1I1I1112IIIIIIIIIIIIIIIIIIIIIIIIIIIIIIIIIIIIIIIIIIIIIIIIIIIIII
AI1I1I11122222222IIIIIIIIIIIIIIIIIIIIIIIIIIIIIIIIIIIIIIIIIIIIIII
AI1IAI111211122222222IIIIIIIIIIIIIIIIIIIIIIIIIIIIIIIIIIIIIIIIIII
AI1IAI1A1111111122222222IIIIIIIIIIIIIIIIIIIIIIIIIIIIIIIIIIIIIIII
IIIIAI1I1I11122222222IIIIIIIIIIIIIIIIIIIIIIIIIIIIIIIIIIIIIIIIIII
IIIIA11I1I11122222222IIIIIIIIIIIIIIIIIIIIIIIIIIIIIIIIIIIIIIIIIII
A1IIIIIIIIIIIIIIIIIIIIIIIIIIIIIIIIIIIIIIIIIIIIIIIIIIIIIIIIIIIIII
A1IIA1IIIIIIIIIIIIIIIIIIIIIIIIIIIIIIIIIIIIIIIIIIIIIIIIIIIIIIIIII
A1IIA1IA1IIIIIIIIIIIIIIIIIIIIIIIIIIIIIIIIIIIIIIIIIIIIIIIIIIIIIII
A1IIA11A1I22IIIIIIIIIIIIIIIIIIIIIIIIIIIIIIIIIIIIIIIIIIIIIIIIIIII
A1IIA11A1222IIIIIIIIIIIIIIIIIIIIIIIIIIIIIIIIIIIIIIIIIIIIIIIIIIII
A1IIA11A12222IIIIIIIIIIIIIIIIIIIIIIIIIIIIIIIIIIIIIIIIIIIIIIIIIII
A1IIA11A1212222222IIIIIIIIIIIIIIIIIIIIIIIIIIIIIIIIIIIIIIIIIIIIII
A1IIA11A1112222222IIIIIIIIIIIIIIIIIIIIIIIIIIIIIIIIIIIIIIIIIIIIII
IIIIAI1I11122I2222IIIIIIIIIIIIIIIIIIIIIIIIIIIIIIIIIIIIIIIIIIIIII
IIIIA11I11122I2222IIIIIIIIIIIIIIIIIIIIIIIIIIIIIIIIIIIIIIIIIIIIII
A1IIA11I11122I2222IIIIIIIIIIIIIIIIIIIIIIIIIIIIIIIIIIIIIIIIIIIIII
A1IIA11A11122I2222IIIIIIIIIIIIIIIIIIIIIIIIIIIIIIIIIIIIIIIIIIIIII
IIIIAI1I1I112I2222222IIIIIIIIIIIIIIIIIIIIIIIIIIIIIIIIIIIIIIIIIII
IIIIA11I1I112I2222222IIIIIIIIIIIIIIIIIIIIIIIIIIIIIIIIIIIIIIIIIII
IIIIA11I1I111I2222222IIIIIIIIIIIIIIIIIIIIIIIIIIIIIIIIIIIIIIIIIII
AI1IA1111I11122222222IIIIIIIIIIIIIIIIIIIIIIIIIIIIIIIIIIIIIIIIIII
AI1IA11A1111111222222222IIIIIIIIIIIIIIIIIIIIIIIIIIIIIIIIIIIIIIII
IIIIAI1I1I112I2I22222IIIIIIIIIIIIIIIIIIIIIIIIIIIIIIIIIIIIIIIIIII
IIIIA11I1I112I2I22222IIIIIIIIIIIIIIIIIIIIIIIIIIIIIIIIIIIIIIIIIII
IIIIA11I1I112I2222222IIIIIIIIIIIIIIIIIIIIIIIIIIIIIIIIIIIIIIIIIII
AI1IA1111I11222222222IIIIIIIIIIIIIIIIIIIIIIIIIIIIIIIIIIIIIIIIIII
AI1IA11A1111211222222222IIIIIIIIIIIIIIIIIIIIIIIIIIIIIIIIIIIIIIII
A1I2IIIIIIIIIIIIIIIIIIIIIIIIIIIIIIIIIIIIIIIIIIIIIIIIIIIIIIIIIIII
A1I2A1I2IIIIIIIIIIIIIIIIIIIIIIIIIIIIIIIIIIIIIIIIIIIIIIIIIIIIIIII
A1I2A1IA1I2IIIIIIIIIIIIIIIIIIIIIIIIIIIIIIIIIIIIIIIIIIIIIIIIIIIII
IIIIAI1I1I22IIIIIIIIIIIIIIIIIIIIIIIIIIIIIIIIIIIIIIIIIIIIIIIIIIII
AI1IAI121I22IIIIIIIIIIIIIIIIIIIIIIIIIIIIIIIIIIIIIIIIIIIIIIIIIIII
AI1IAI1A1121I22IIIIIIIIIIIIIIIIIIIIIIIIIIIIIIIIIIIIIIIIIIIIIIIII
A1IIIIIIIIIIIIIIIIIIIIIIIIIIIIIIIIIIIIIIIIIIIIIIIIIIIIIIIIIIIIII
A1IIA1IIIIIIIIIIIIIIIIIIIIIIIIIIIIIIIIIIIIIIIIIIIIIIIIIIIIIIIIII
A1IIA1IA1IIIIIIIIIIIIIIIIIIIIIIIIIIIIIIIIIIIIIIIIIIIIIIIIIIIIIII
A1IIA11A1I122I2222IIIIIIIIIIIIIIIIIIIIIIIIIIIIIIIIIIIIIIIIIIIIII
AI1I1I1111IIIIIIIIIIIIIIIIIIIIIIIIIIIIIIIIIIIIIIIIIIIIIIIIIIIIII
AI1I1I11112222222IIIIIIIIIIIIIIIIIIIIIIIIIIIIIIIIIIIIIIIIIIIIIII
AI1IAI111111112222222IIIIIIIIIIIIIIIIIIIIIIIIIIIIIIIIIIIIIIIIIII
AI1IAI1A1111111112222222IIIIIIIIIIIIIIIIIIIIIIIIIIIIIIIIIIIIIIII
IIIIAI1I1I11112222222IIIIIIIIIIIIIIIIIIIIIIIIIIIIIIIIIIIIIIIIIII
IIIIA11I1I11112222222IIIIIIIIIIIIIIIIIIIIIIIIIIIIIIIIIIIIIIIIIII
AI1IA1121211112222222IIIIIIIIIIIIIIIIIIIIIIIIIIIIIIIIIIIIIIIIIII
AI1IA11A1111112222222IIIIIIIIIIIIIIIIIIIIIIIIIIIIIIIIIIIIIIIIIII
IIIIAI1I1I22222IIIIIIIIIIIIIIIIIIIIIIIIIIIIIIIIIIIIIIIIIIIIIIIII
IIIIA11I1I22222IIIIIIIIIIIIIIIIIIIIIIIIIIIIIIIIIIIIIIIIIIIIIIIII
IIIIA11I1I1112111I11I2IIIIIIIIIIIIIIIIIIIIIIIIIIIIIIIIIIIIIIIIII
IIIIA1111I1112111I11I2IIIIIIIIIIIIIIIIIIIIIIIIIIIIIIIIIIIIIIIIII
A2IIIIIIIIIIIIIIIIIIIIIIIIIIIIIIIIIIIIIIIIIIIIIIIIIIIIIIIIIIIIII
A2IIA2IIIIIIIIIIIIIIIIIIIIIIIIIIIIIIIIIIIIIIIIIIIIIIIIIIIIIIIIII
A2IIA2IA2IIIIIIIIIIIIIIIIIIIIIIIIIIIIIIIIIIIIIIIIIIIIIIIIIIIIIII
A2IIA21A2I222IIIIIIIIIIIIIIIIIIIIIIIIIIIIIIIIIIIIIIIIIIIIIIIIIII
A2IIA21A211211I12II2I2IIIIIIIIIIIIIIIIIIIIIIIIIIIIIIIIIIIIIIIIII
A2IIA21A211111111I22I2IIIIIIIIIIIIIIIIIIIIIIIIIIIIIIIIIIIIIIIIII
IIIIAI11II111I111I22I2IIIIIIIIIIIIIIIIIIIIIIIIIIIIIIIIIIIIIIIIII
IIIIA211II111I111I22I2IIIIIIIIIIIIIIIIIIIIIIIIIIIIIIIIIIIIIIIIII
IIIIA2111I111I111I22I2IIIIIIIIIIIIIIIIIIIIIIIIIIIIIIIIIIIIIIIIII
AI11I1111I111I11I1IIIIIIIIIIIIIIIIIIIIIIIIIIIIIIIIIIIIIIIIIIIIII
AI11A11111111I111111I1IIIIIIIIIIIIIIIIIIIIIIIIIIIIIIIIIIIIIIIIII
AI11A11A111111111111I11I1IIIIIIIIIIIIIIIIIIIIIIIIIIIIIIIIIIIIIII
IIIIAI11I1111I111I11I1IIIIIIIIIIIIIIIIIIIIIIIIIIIIIIIIIIIIIIIIII
IIIIA111I1111I111I11I1IIIIIIIIIIIIIIIIIIIIIIIIIIIIIIIIIIIIIIIIII
IIIIA111111111111I11I1IIIIIIIIIIIIIIIIIIIIIIIIIIIIIIIIIIIIIIIIII
IIIIA111111111111I11I11IIIIIIIIIIIIIIIIIIIIIIIIIIIIIIIIIIIIIIIII
A1IIA111111111111I11I11IIIIIIIIIIIIIIIIIIIIIIIIIIIIIIIIIIIIIIIII
A1IIA11A111111111I11I11IIIIIIIIIIIIIIIIIIIIIIIIIIIIIIIIIIIIIIIII
IIIIAI1I1111I1112I22I2IIIIIIIIIIIIIIIIIIIIIIIIIIIIIIIIIIIIIIIIII
IIIIA11I1111I1112I22I2IIIIIIIIIIIIIIIIIIIIIIIIIIIIIIIIIIIIIIIIII
IIIIA11I111111111I22I2IIIIIIIIIIIIIIIIIIIIIIIIIIIIIIIIIIIIIIIIII
AI1I1I1I11II1I22I2IIIIIIIIIIIIIIIIIIIIIIIIIIIIIIIIIIIIIIIIIIIIII
AI1IAI1I111I11221222I2IIIIIIIIIIIIIIIIIIIIIIIIIIIIIIIIIIIIIIIIII
AI1IAI1A111111211221I22I2IIIIIIIIIIIIIIIIIIIIIIIIIIIIIIIIIIIIIII
IIIIAI1I1I1I11II1I22I2IIIIIIIIIIIIIIIIIIIIIIIIIIIIIIIIIIIIIIIIII
IIIIA11I1I1I11II1I22I2IIIIIIIIIIIIIIIIIIIIIIIIIIIIIIIIIIIIIIIIII
IIIIA1111I1I111I1I11I1IIIIIIIIIIIIIIIIIIIIIIIIIIIIIIIIIIIIIIIIII
IIIIA1IIIIIIIIIIIIIIIIIIIIIIIIIIIIIIIIIIIIIIIIIIIIIIIIIIIIIIIIII
AI1IA11111111I11I1IIIIIIIIIIIIIIIIIIIIIIIIIIIIIIIIIIIIIIIIIIIIII
AI1IA111111111111111I1IIIIIIIIIIIIIIIIIIIIIIIIIIIIIIIIIIIIIIIIII
AI1IA11A111111111111I11I1IIIIIIIIIIIIIIIIIIIIIIIIIIIIIIIIIIIIIII
IIIIAI1I1I1111111I11I1IIIIIIIIIIIIIIIIIIIIIIIIIIIIIIIIIIIIIIIIII
IIIIA11I1I1111111I11I1IIIIIIIIIIIIIIIIIIIIIIIIIIIIIIIIIIIIIIIIII
AI1I1I1I11II2II2I2IIIIIIIIIIIIIIIIIIIIIIIIIIIIIIIIIIIIIIIIIIIIII
AI1IAI1I111I11I222I2I2IIIIIIIIIIIIIIIIIIIIIIIIIIIIIIIIIIIIIIIIII
AI1IAI1A111111I112I2I22I2IIIIIIIIIIIIIIIIIIIIIIIIIIIIIIIIIIIIIII
AI1I1I1I11II2II2I2IIIIIIIIIIIIIIIIIIIIIIIIIIIIIIIIIIIIIIIIIIIIII
AI1IAI1I111I11I222I2I2IIIIIIIIIIIIIIIIIIIIIIIIIIIIIIIIIIIIIIIIII
AI1IAI1A111111I112I2I22I2IIIIIIIIIIIIIIIIIIIIIIIIIIIIIIIIIIIIIII
AI1IA11A111111I112I2I22I2IIIIIIIIIIIIIIIIIIIIIIIIIIIIIIIIIIIIIII
AI1IA11A1111112112I2I22I2IIIIIIIIIIIIIIIIIIIIIIIIIIIIIIIIIIIIIII
AI1IA11A111111111222I22I2IIIIIIIIIIIIIIIIIIIIIIIIIIIIIIIIIIIIIII
AI1IA11A111111111121I22I2IIIIIIIIIIIIIIIIIIIIIIIIIIIIIIIIIIIIIII
IIIIAI1I1I111I1I1I22I2IIIIIIIIIIIIIIIIIIIIIIIIIIIIIIIIIIIIIIIIII
IIIIA11I1I111I1I1I22I2IIIIIIIIIIIIIIIIIIIIIIIIIIIIIIIIIIIIIIIIII
IIIIA11I1I11111I1I22I2IIIIIIIIIIIIIIIIIIIIIIIIIIIIIIIIIIIIIIIIII
IIIIAI1I1I1I11II1II2I2IIIIIIIIIIIIIIIIIIIIIIIIIIIIIIIIIIIIIIIIII
IIIIA21I1I1I11II1II2I2IIIIIIIIIIIIIIIIIIIIIIIIIIIIIIIIIIIIIIIIII
IIIIA21I1I1111221II2I2IIIIIIIIIIIIIIIIIIIIIIIIIIIIIIIIIIIIIIIIII
IIIIAI1I1I111I222IIIIIIIIIIIIIIIIIIIIIIIIIIIIIIIIIIIIIIIIIIIIIII
IIIIA21I1I111I222IIIIIIIIIIIIIIIIIIIIIIIIIIIIIIIIIIIIIIIIIIIIIII
IIIIA21I1I111I112I22I2IIIIIIIIIIIIIIIIIIIIIIIIIIIIIIIIIIIIIIIIII
IIIIAI1I1I111I112I22I2IIIIIIIIIIIIIIIIIIIIIIIIIIIIIIIIIIIIIIIIII
IIIIA21I1I111I112I22I2IIIIIIIIIIIIIIIIIIIIIIIIIIIIIIIIIIIIIIIIII
IIIIA21I1I111I112I22I22IIIIIIIIIIIIIIIIIIIIIIIIIIIIIIIIIIIIIIIII
AI1I1I111II12I22I22IIIIIIIIIIIIIIIIIIIIIIIIIIIIIIIIIIIIIIIIIIIII
AI1IAI111I111I212222I22IIIIIIIIIIIIIIIIIIIIIIIIIIIIIIIIIIIIIIIII
AI1IAI1A111111112212I22I22IIIIIIIIIIIIIIIIIIIIIIIIIIIIIIIIIIIIII
IIIIAI1I1I111II12I22I22IIIIIIIIIIIIIIIIIIIIIIIIIIIIIIIIIIIIIIIII
AI1I1I111II12I22I22IIIIIIIIIIIIIIIIIIIIIIIIIIIIIIIIIIIIIIIIIIIII
AI1IAI111I111I212222I22IIIIIIIIIIIIIIIIIIIIIIIIIIIIIIIIIIIIIIIII
AI1IAI1A111111112212I22I22IIIIIIIIIIIIIIIIIIIIIIIIIIIIIIIIIIIIII
AI1IA11A111111112212I22I22IIIIIIIIIIIIIIIIIIIIIIIIIIIIIIIIIIIIII
AI1IA11A111111111211I12I22IIIIIIIIIIIIIIIIIIIIIIIIIIIIIIIIIIIIII
IIIIAI11II1I11I11I12I2IIIIIIIIIIIIIIIIIIIIIIIIIIIIIIIIIIIIIIIIII
IIIIA211II1I11I11I12I2IIIIIIIIIIIIIIIIIIIIIIIIIIIIIIIIIIIIIIIIII
IIIIA211I11I11111I11I11IIIIIIIIIIIIIIIIIIIIIIIIIIIIIIIIIIIIIIIII
IIIIA211111111111I11I11IIIIIIIIIIIIIIIIIIIIIIIIIIIIIIIIIIIIIIIII
IIIIA111111111111I11I11IIIIIIIIIIIIIIIIIIIIIIIIIIIIIIIIIIIIIIIII
AI1IA111111111111111I11IIIIIIIIIIIIIIIIIIIIIIIIIIIIIIIIIIIIIIIII
AI1IA11A111111111111I11I1IIIIIIIIIIIIIIIIIIIIIIIIIIIIIIIIIIIIIII
IIIIAI1I1I1111I11I11I1IIIIIIIIIIIIIIIIIIIIIIIIIIIIIIIIIIIIIIIIII
IIIIA11I1I1111I11I11I1IIIIIIIIIIIIIIIIIIIIIIIIIIIIIIIIIIIIIIIIII
IIIIA11I1I1111111I11I1IIIIIIIIIIIIIIIIIIIIIIIIIIIIIIIIIIIIIIIIII
IIIIAI1I1I111I111I11I1IIIIIIIIIIIIIIIIIIIIIIIIIIIIIIIIIIIIIIIIII
IIIIA11I1I111I111I11I1IIIIIIIIIIIIIIIIIIIIIIIIIIIIIIIIIIIIIIIIII
IIIIA11I1I1111111111I1IIIIIIIIIIIIIIIIIIIIIIIIIIIIIIIIIIIIIIIIII
IIIIA11I1I1111111111I12IIIIIIIIIIIIIIIIIIIIIIIIIIIIIIIIIIIIIIIII
IIIIA1IIIIIIIIIIIIIIIIIIIIIIIIIIIIIIIIIIIIIIIIIIIIIIIIIIIIIIIIII
IIIIA11I1I1I1I111111I1IIIIIIIIIIIIIIIIIIIIIIIIIIIIIIIIIIIIIIIIII
IIIIA11I111I11111111I1IIIIIIIIIIIIIIIIIIIIIIIIIIIIIIIIIIIIIIIIII
IIIIA1IIIIIIIIIIIIIIIIIIIIIIIIIIIIIIIIIIIIIIIIIIIIIIIIIIIIIIIIII
IIIIA11I111I11I11I1111IIIIIIIIIIIIIIIIIIIIIIIIIIIIIIIIIIIIIIIIII
IIIIAI1I111I11I11I1111IIIIIIIIIIIIIIIIIIIIIIIIIIIIIIIIIIIIIIIIII
A1IIAI1I111I11I11I1111IIIIIIIIIIIIIIIIIIIIIIIIIIIIIIIIIIIIIIIIII
A1IIA11I111I11I11I1111IIIIIIIIIIIIIIIIIIIIIIIIIIIIIIIIIIIIIIIIII
A1IIA11A111I11I11I1111IIIIIIIIIIIIIIIIIIIIIIIIIIIIIIIIIIIIIIIIII
IIIIA1IIIIIIIIIIIIIIIIIIIIIIIIIIIIIIIIIIIIIIIIIIIIIIIIIIIIIIIIII
IIIIA11I1111I2222II2IIIIIIIIIIIIIIIIIIIIIIIIIIIIIIIIIIIIIIIIIIII
IIIIA11I111112111II2II2IIIIIIIIIIIIIIIIIIIIIIIIIIIIIIIIIIIIIIIII
IIIIAI1I1I111I111II2II2IIIIIIIIIIIIIIIIIIIIIIIIIIIIIIIIIIIIIIIII
IIIIA11I1I111I111II2II2IIIIIIIIIIIIIIIIIIIIIIIIIIIIIIIIIIIIIIIII
IIIIA11I1I1111111I22I22IIIIIIIIIIIIIIIIIIIIIIIIIIIIIIIIIIIIIIIII
IIIIA1111I1111111I11I11IIIIIIIIIIIIIIIIIIIIIIIIIIIIIIIIIIIIIIIII
AI1I1I1I1I111II1I1IIIIIIIIIIIIIIIIIIIIIIIIIIIIIIIIIIIIIIIIIIIIII
AI1IAI1I1I111I1111I1I1IIIIIIIIIIIIIIIIIIIIIIIIIIIIIIIIIIIIIIIIII
AI1IAI1A111111111111I11I1IIIIIIIIIIIIIIIIIIIIIIIIIIIIIIIIIIIIIII
IIIIA2IIIIIIIIIIIIIIIIIIIIIIIIIIIIIIIIIIIIIIIIIIIIIIIIIIIIIIIIII
IIIIA211I11111I11I11I1IIIIIIIIIIIIIIIIIIIIIIIIIIIIIIIIIIIIIIIIII
IIIIA211111111I11I11I1IIIIIIIIIIIIIIIIIIIIIIIIIIIIIIIIIIIIIIIIII
IIIIA211111111111I11I12IIIIIIIIIIIIIIIIIIIIIIIIIIIIIIIIIIIIIIIII
IIIIA211111111111I11I11IIIIIIIIIIIIIIIIIIIIIIIIIIIIIIIIIIIIIIIII
A2IIIIIIIIIIIIIIIIIIIIIIIIIIIIIIIIIIIIIIIIIIIIIIIIIIIIIIIIIIIIII
A2IIA2IIIIIIIIIIIIIIIIIIIIIIIIIIIIIIIIIIIIIIIIIIIIIIIIIIIIIIIIII
A2IIA2IA2IIIIIIIIIIIIIIIIIIIIIIIIIIIIIIIIIIIIIIIIIIIIIIIIIIIIIII
IIIIA2IIIIIIIIIIIIIIIIIIIIIIIIIIIIIIIIIIIIIIIIIIIIIIIIIIIIIIIIII
AI11I1111II11II2I2IIIIIIIIIIIIIIIIIIIIIIIIIIIIIIIIIIIIIIIIIIIIII
AI11A11111111II112I2I2IIIIIIIIIIIIIIIIIIIIIIIIIIIIIIIIIIIIIIIIII
AI11A11A111111111211I22I2IIIIIIIIIIIIIIIIIIIIIIIIIIIIIIIIIIIIIII
IIIIAI11I1111II11II2I2IIIIIIIIIIIIIIIIIIIIIIIIIIIIIIIIIIIIIIIIII
AI11I1111II11II2I2IIIIIIIIIIIIIIIIIIIIIIIIIIIIIIIIIIIIIIIIIIIIII
AI11A11111111II112I2I2IIIIIIIIIIIIIIIIIIIIIIIIIIIIIIIIIIIIIIIIII
AI11A11A111111111211I22I2IIIIIIIIIIIIIIIIIIIIIIIIIIIIIIIIIIIIIII
AI11A11A111111111211I11I2IIIIIIIIIIIIIIIIIIIIIIIIIIIIIIIIIIIIIII
IIIIAI11II1I11I11I11I11IIIIIIIIIIIIIIIIIIIIIIIIIIIIIIIIIIIIIIIII
AI11AI11111111111111I11IIIIIIIIIIIIIIIIIIIIIIIIIIIIIIIIIIIIIIIII
AI11AI1A111111111111I11I11IIIIIIIIIIIIIIIIIIIIIIIIIIIIIIIIIIIIII
IIIIA1IIIIIIIIIIIIIIIIIIIIIIIIIIIIIIIIIIIIIIIIIIIIIIIIIIIIIIIIII
IIIIA11I1I1II1I11II2I2IIIIIIIIIIIIIIIIIIIIIIIIIIIIIIIIIIIIIIIIII
IIIIA11I1I1111111I11I1IIIIIIIIIIIIIIIIIIIIIIIIIIIIIIIIIIIIIIIIII
IIIIA1111I1111111I11I11IIIIIIIIIIIIIIIIIIIIIIIIIIIIIIIIIIIIIIIII
AI11A111111111111111I11IIIIIIIIIIIIIIIIIIIIIIIIIIIIIIIIIIIIIIIII
AI11A11A111111111111I11IIIIIIIIIIIIIIIIIIIIIIIIIIIIIIIIIIIIIIIII
IIIIA2IIIIIIIIIIIIIIIIIIIIIIIIIIIIIIIIIIIIIIIIIIIIIIIIIIIIIIIIII
IIIIA211I1I11II22I22IIIIIIIIIIIIIIIIIIIIIIIIIIIIIIIIIIIIIIIIIIII
A2IIA211I1I11II22I22IIIIIIIIIIIIIIIIIIIIIIIIIIIIIIIIIIIIIIIIIIII
A2IIA21A21I11II22I22IIIIIIIIIIIIIIIIIIIIIIIIIIIIIIIIIIIIIIIIIIII
A2IIA21A21111I222I22IIIIIIIIIIIIIIIIIIIIIIIIIIIIIIIIIIIIIIIIIIII
AI11I1111I222II2IIIIIIIIIIIIIIIIIIIIIIIIIIIIIIIIIIIIIIIIIIIIIIII
AI11A11111111I222II2IIIIIIIIIIIIIIIIIIIIIIIIIIIIIIIIIIIIIIIIIIII
AI11A11A111111112222II2IIIIIIIIIIIIIIIIIIIIIIIIIIIIIIIIIIIIIIIII
IIIIAI11I1111I222II2IIIIIIIIIIIIIIIIIIIIIIIIIIIIIIIIIIIIIIIIIIII
IIIIA2IIIIIIIIIIIIIIIIIIIIIIIIIIIIIIIIIIIIIIIIIIIIIIIIIIIIIIIIII
AI11A2111I111I11I2IIIIIIIIIIIIIIIIIIIIIIIIIIIIIIIIIIIIIIIIIIIIII
AI11A2111I111I111211I2IIIIIIIIIIIIIIIIIIIIIIIIIIIIIIIIIIIIIIIIII
AI11A21A111111111111I11I2IIIIIIIIIIIIIIIIIIIIIIIIIIIIIIIIIIIIIII
AI11II111I111I11I2IIIIIIIIIIIIIIIIIIIIIIIIIIIIIIIIIIIIIIIIIIIIII
AI11AI111I111I111211I2IIIIIIIIIIIIIIIIIIIIIIIIIIIIIIIIIIIIIIIIII
AI11AI1A111111111111I11I2IIIIIIIIIIIIIIIIIIIIIIIIIIIIIIIIIIIIIII
AI11A21A111111111111I11I2IIIIIIIIIIIIIIIIIIIIIIIIIIIIIIIIIIIIIII
AI111I111I111I11I1IIIIIIIIIIIIIIIIIIIIIIIIIIIIIIIIIIIIIIIIIIIIII
AI11AI111I111I111111I1IIIIIIIIIIIIIIIIIIIIIIIIIIIIIIIIIIIIIIIIII
AI11AI1A111111111111I11I1IIIIIIIIIIIIIIIIIIIIIIIIIIIIIIIIIIIIIII
IIIIAI111I111I111I11I1IIIIIIIIIIIIIIIIIIIIIIIIIIIIIIIIIIIIIIIIII
IIIIA1111I111I111I11I1IIIIIIIIIIIIIIIIIIIIIIIIIIIIIIIIIIIIIIIIII
AI1IA1111I111I111211I1IIIIIIIIIIIIIIIIIIIIIIIIIIIIIIIIIIIIIIIIII
AI1IA11A111111111111I12I2IIIIIIIIIIIIIIIIIIIIIIIIIIIIIIIIIIIIIII
IIIIAI1I1I11II112II2I2IIIIIIIIIIIIIIIIIIIIIIIIIIIIIIIIIIIIIIIIII
IIIIA11I1I11II112II2I2IIIIIIIIIIIIIIIIIIIIIIIIIIIIIIIIIIIIIIIIII
IIIIA11I1I11II112I22I2IIIIIIIIIIIIIIIIIIIIIIIIIIIIIIIIIIIIIIIIII
IIIIA11I1I111I112I22I2IIIIIIIIIIIIIIIIIIIIIIIIIIIIIIIIIIIIIIIIII
IIIIA1111I1111112I22I2IIIIIIIIIIIIIIIIIIIIIIIIIIIIIIIIIIIIIIIIII
AI11II1I1I111I11II1IIIIIIIIIIIIIIIIIIIIIIIIIIIIIIIIIIIIIIIIIIIII
AI11AI111I111I111I11II1IIIIIIIIIIIIIIIIIIIIIIIIIIIIIIIIIIIIIIIII
AI11AI1A111111111111I11II1IIIIIIIIIIIIIIIIIIIIIIIIIIIIIIIIIIIIII
AI11A11A111111111111I11II1IIIIIIIIIIIIIIIIIIIIIIIIIIIIIIIIIIIIII
IIIIAI1I1I111I111I22I2IIIIIIIIIIIIIIIIIIIIIIIIIIIIIIIIIIIIIIIIII
IIIIA21I1I111I111I22I2IIIIIIIIIIIIIIIIIIIIIIIIIIIIIIIIIIIIIIIIII
AI11I1111I111111I1IIIIIIIIIIIIIIIIIIIIIIIIIIIIIIIIIIIIIIIIIIIIII
AI11A111111111111111I1IIIIIIIIIIIIIIIIIIIIIIIIIIIIIIIIIIIIIIIIII
AI11A11A111111111111111I1IIIIIIIIIIIIIIIIIIIIIIIIIIIIIIIIIIIIIII
IIIIAI11I1111I111111I1IIIIIIIIIIIIIIIIIIIIIIIIIIIIIIIIIIIIIIIIII
IIIIA111I1111I111111I1IIIIIIIIIIIIIIIIIIIIIIIIIIIIIIIIIIIIIIIIII
IIIIA111111111111111I1IIIIIIIIIIIIIIIIIIIIIIIIIIIIIIIIIIIIIIIIII
IIIIA111111111111111I11IIIIIIIIIIIIIIIIIIIIIIIIIIIIIIIIIIIIIIIII
A1IIA111111111111111I11IIIIIIIIIIIIIIIIIIIIIIIIIIIIIIIIIIIIIIIII
A1IIA11A111111111111I11IIIIIIIIIIIIIIIIIIIIIIIIIIIIIIIIIIIIIIIII
IIIIAI1I1I11II112II2I2IIIIIIIIIIIIIIIIIIIIIIIIIIIIIIIIIIIIIIIIII
IIIIA11I1I11II112II2I2IIIIIIIIIIIIIIIIIIIIIIIIIIIIIIIIIIIIIIIIII
IIIIA11I1I111I111I11I1IIIIIIIIIIIIIIIIIIIIIIIIIIIIIIIIIIIIIIIIII
AI1I1I1I1II11I11I1IIIIIIIIIIIIIIIIIIIIIIIIIIIIIIIIIIIIIIIIIIIIII
AI1IAI1I1I111I111111I1IIIIIIIIIIIIIIIIIIIIIIIIIIIIIIIIIIIIIIIIII
AI1IAI1A111111111111I11I1IIIIIIIIIIIIIIIIIIIIIIIIIIIIIIIIIIIIIII
IIIIAI1I1I1I1II11I11I1IIIIIIIIIIIIIIIIIIIIIIIIIIIIIIIIIIIIIIIIII
IIIIA11I1I1I1II11I11I1IIIIIIIIIIIIIIIIIIIIIIIIIIIIIIIIIIIIIIIIII
IIIIA11I1I1I1I111I11I11IIIIIIIIIIIIIIIIIIIIIIIIIIIIIIIIIIIIIIIII
IIIIA1IIIIIIIIIIIIIIIIIIIIIIIIIIIIIIIIIIIIIIIIIIIIIIIIIIIIIIIIII
AI1IA11I11I11I22I2IIIIIIIIIIIIIIIIIIIIIIIIIIIIIIIIIIIIIIIIIIIIII
AI1IA11I111111211222I2IIIIIIIIIIIIIIIIIIIIIIIIIIIIIIIIIIIIIIIIII
AI1IA11A111111211211I22I2IIIIIIIIIIIIIIIIIIIIIIIIIIIIIIIIIIIIIII
IIIIAI1I1I1I11I11I22I2IIIIIIIIIIIIIIIIIIIIIIIIIIIIIIIIIIIIIIIIII
IIIIA1IIIIIIIIIIIIIIIIIIIIIIIIIIIIIIIIIIIIIIIIIIIIIIIIIIIIIIIIII
IIIIA11I1I1I11I11I22I2IIIIIIIIIIIIIIIIIIIIIIIIIIIIIIIIIIIIIIIIII
AI1I1I1I11I11I22I2IIIIIIIIIIIIIIIIIIIIIIIIIIIIIIIIIIIIIIIIIIIIII
AI1IAI1I111111211222I2IIIIIIIIIIIIIIIIIIIIIIIIIIIIIIIIIIIIIIIIII
AI1IAI1A111111211211I22I2IIIIIIIIIIIIIIIIIIIIIIIIIIIIIIIIIIIIIII
AI1I1I1I11I11I22I2IIIIIIIIIIIIIIIIIIIIIIIIIIIIIIIIIIIIIIIIIIIIII
AI1IAI1I111111211222I2IIIIIIIIIIIIIIIIIIIIIIIIIIIIIIIIIIIIIIIIII
AI1IAI1A111111211211I22I2IIIIIIIIIIIIIIIIIIIIIIIIIIIIIIIIIIIIIII
AI1IA21A111111211211I22I2IIIIIIIIIIIIIIIIIIIIIIIIIIIIIIIIIIIIIII
AI1IA21A111111111211I22I2IIIIIIIIIIIIIIIIIIIIIIIIIIIIIIIIIIIIIII
AI1IA11A111111111211I22I2IIIIIIIIIIIIIIIIIIIIIIIIIIIIIIIIIIIIIII
AI1IA11A111111111111I22I2IIIIIIIIIIIIIIIIIIIIIIIIIIIIIIIIIIIIIII
IIIIAI1I11111I112I22I2IIIIIIIIIIIIIIIIIIIIIIIIIIIIIIIIIIIIIIIIII
IIIIA11I11111I112I22I2IIIIIIIIIIIIIIIIIIIIIIIIIIIIIIIIIIIIIIIIII
IIIIA11I111111112I22I2IIIIIIIIIIIIIIIIIIIIIIIIIIIIIIIIIIIIIIIIII
IIIIAI1I1I1111I12II2I2IIIIIIIIIIIIIIIIIIIIIIIIIIIIIIIIIIIIIIIIII
IIIIA21I1I1111I12II2I2IIIIIIIIIIIIIIIIIIIIIIIIIIIIIIIIIIIIIIIIII
IIIIA21I111111I11I11I22IIIIIIIIIIIIIIIIIIIIIIIIIIIIIIIIIIIIIIIII
IIIIAI1I11111II11I11I22IIIIIIIIIIIIIIIIIIIIIIIIIIIIIIIIIIIIIIIII
IIIIA21I11111II11I11I22IIIIIIIIIIIIIIIIIIIIIIIIIIIIIIIIIIIIIIIII
IIIIAI1I1I122II22IIIIIIIIIIIIIIIIIIIIIIIIIIIIIIIIIIIIIIIIIIIIIII
IIIIA21I1I122II22IIIIIIIIIIIIIIIIIIIIIIIIIIIIIIIIIIIIIIIIIIIIIII
IIIIA21I1I1111I11I11I11IIIIIIIIIIIIIIIIIIIIIIIIIIIIIIIIIIIIIIIII
AI1I1I1111I11I11I11IIIIIIIIIIIIIIIIIIIIIIIIIIIIIIIIIIIIIIIIIIIII
AI1IAI11111111111111I11IIIIIIIIIIIIIIIIIIIIIIIIIIIIIIIIIIIIIIIII
AI1IAI1A111111111111I11I11IIIIIIIIIIIIIIIIIIIIIIIIIIIIIIIIIIIIII
IIIIAI1I1I1111I11I11I11IIIIIIIIIIIIIIIIIIIIIIIIIIIIIIIIIIIIIIIII
A1IIIIIIIIIIIIIIIIIIIIIIIIIIIIIIIIIIIIIIIIIIIIIIIIIIIIIIIIIIIIII
A1IIA1IIIIIIIIIIIIIIIIIIIIIIIIIIIIIIIIIIIIIIIIIIIIIIIIIIIIIIIIII
A1IIA1IA1IIIIIIIIIIIIIIIIIIIIIIIIIIIIIIIIIIIIIIIIIIIIIIIIIIIIIII
A1IIA11A1I1111II1I11I1IIIIIIIIIIIIIIIIIIIIIIIIIIIIIIIIIIIIIIIIII
A1IIA11A111111111111I1IIIIIIIIIIIIIIIIIIIIIIIIIIIIIIIIIIIIIIIIII
IIIIAI1I1I111I111I11I1IIIIIIIIIIIIIIIIIIIIIIIIIIIIIIIIIIIIIIIIII
IIIIA11I1I111I111I11I1IIIIIIIIIIIIIIIIIIIIIIIIIIIIIIIIIIIIIIIIII
IIIIA11I1I111111111111IIIIIIIIIIIIIIIIIIIIIIIIIIIIIIIIIIIIIIIIII
AI1IA1111I111111111111IIIIIIIIIIIIIIIIIIIIIIIIIIIIIIIIIIIIIIIIII
AI1IA11A111111111111111I1IIIIIIIIIIIIIIIIIIIIIIIIIIIIIIIIIIIIIII
IIIIAI1I1I111I111I11I1IIIIIIIIIIIIIIIIIIIIIIIIIIIIIIIIIIIIIIIIII
IIIIA11I1I111I111I11I1IIIIIIIIIIIIIIIIIIIIIIIIIIIIIIIIIIIIIIIIII
IIIIA1111I111I111I11I1IIIIIIIIIIIIIIIIIIIIIIIIIIIIIIIIIIIIIIIIII
IIIIAI111I111I111I11I1IIIIIIIIIIIIIIIIIIIIIIIIIIIIIIIIIIIIIIIIII
IIIIA2111I111I111I11I1IIIIIIIIIIIIIIIIIIIIIIIIIIIIIIIIIIIIIIIIII
IIIIA2111I1111111I11I11IIIIIIIIIIIIIIIIIIIIIIIIIIIIIIIIIIIIIIIII
IIIIA1IIIIIIIIIIIIIIIIIIIIIIIIIIIIIIIIIIIIIIIIIIIIIIIIIIIIIIIIII
IIIIA11I1I1I11111I11I1IIIIIIIIIIIIIIIIIIIIIIIIIIIIIIIIIIIIIIIIII
IIIIA1111I1111111I11I11IIIIIIIIIIIIIIIIIIIIIIIIIIIIIIIIIIIIIIIII
IIIIA1IIIIIIIIIIIIIIIIIIIIIIIIIIIIIIIIIIIIIIIIIIIIIIIIIIIIIIIIII
IIIIAI1I1I1I1II12I2222IIIIIIIIIIIIIIIIIIIIIIIIIIIIIIIIIIIIIIIIII
IIIIA2IIIIIIIIIIIIIIIIIIIIIIIIIIIIIIIIIIIIIIIIIIIIIIIIIIIIIIIIII
A2IIA2IIIIIIIIIIIIIIIIIIIIIIIIIIIIIIIIIIIIIIIIIIIIIIIIIIIIIIIIII
A2IIA2IA2IIIIIIIIIIIIIIIIIIIIIIIIIIIIIIIIIIIIIIIIIIIIIIIIIIIIIII
IIIIAI11I11I22222II2IIIIIIIIIIIIIIIIIIIIIIIIIIIIIIIIIIIIIIIIIIII
IIIIA211I11I22222II2IIIIIIIIIIIIIIIIIIIIIIIIIIIIIIIIIIIIIIIIIIII
IIIIA211111I12111I11I11IIIIIIIIIIIIIIIIIIIIIIIIIIIIIIIIIIIIIIIII
IIIIA1IIIIIIIIIIIIIIIIIIIIIIIIIIIIIIIIIIIIIIIIIIIIIIIIIIIIIIIIII
IIIIA11I111I11I11I11I1IIIIIIIIIIIIIIIIIIIIIIIIIIIIIIIIIIIIIIIIII
IIIIA11I111I11111I11I1IIIIIIIIIIIIIIIIIIIIIIIIIIIIIIIIIIIIIIIIII
IIIIA111111I11111I11I1IIIIIIIIIIIIIIIIIIIIIIIIIIIIIIIIIIIIIIIIII
AI111I1I11111I12I2IIIIIIIIIIIIIIIIIIIIIIIIIIIIIIIIIIIIIIIIIIIIII
AI11A21I11111I12I2IIIIIIIIIIIIIIIIIIIIIIIIIIIIIIIIIIIIIIIIIIIIII
AI11A21A11111I12I2IIIIIIIIIIIIIIIIIIIIIIIIIIIIIIIIIIIIIIIIIIIIII
IIIIA2IIIIIIIIIIIIIIIIIIIIIIIIIIIIIIIIIIIIIIIIIIIIIIIIIIIIIIIIII
IIIIA211I11II1I11II2I2IIIIIIIIIIIIIIIIIIIIIIIIIIIIIIIIIIIIIIIIII
IIIIA211111111111I11I1IIIIIIIIIIIIIIIIIIIIIIIIIIIIIIIIIIIIIIIIII
IIIIA211111111111I11I11IIIIIIIIIIIIIIIIIIIIIIIIIIIIIIIIIIIIIIIII
A2IIIIIIIIIIIIIIIIIIIIIIIIIIIIIIIIIIIIIIIIIIIIIIIIIIIIIIIIIIIIII
A2IIA2IIIIIIIIIIIIIIIIIIIIIIIIIIIIIIIIIIIIIIIIIIIIIIIIIIIIIIIIII
A2IIA2IA2IIIIIIIIIIIIIIIIIIIIIIIIIIIIIIIIIIIIIIIIIIIIIIIIIIIIIII
IIIIA2IIIIIIIIIIIIIIIIIIIIIIIIIIIIIIIIIIIIIIIIIIIIIIIIIIIIIIIIII
AI11I11111I11II2I2IIIIIIIIIIIIIIIIIIIIIIIIIIIIIIIIIIIIIIIIIIIIII
AI11A111111111I112I2I2IIIIIIIIIIIIIIIIIIIIIIIIIIIIIIIIIIIIIIIIII
AI11A11A111111111211I22I2IIIIIIIIIIIIIIIIIIIIIIIIIIIIIIIIIIIIIII
IIIIAI11I11111I11II2I2IIIIIIIIIIIIIIIIIIIIIIIIIIIIIIIIIIIIIIIIII
AI11I11111I11II2I2IIIIIIIIIIIIIIIIIIIIIIIIIIIIIIIIIIIIIIIIIIIIII
AI11A111111111I112I2I2IIIIIIIIIIIIIIIIIIIIIIIIIIIIIIIIIIIIIIIIII
AI11A11A111111111211I22I2IIIIIIIIIIIIIIIIIIIIIIIIIIIIIIIIIIIIIII
AI11A11A111111111211I22I22IIIIIIIIIIIIIIIIIIIIIIIIIIIIIIIIIIIIII
AI11A11A111111111211I12I22IIIIIIIIIIIIIIIIIIIIIIIIIIIIIIIIIIIIII
IIIIAI11II1111111I11I1IIIIIIIIIIIIIIIIIIIIIIIIIIIIIIIIIIIIIIIIII
AI11AI11111111111111I1IIIIIIIIIIIIIIIIIIIIIIIIIIIIIIIIIIIIIIIIII
AI11AI1A111111111111I11I1IIIIIIIIIIIIIIIIIIIIIIIIIIIIIIIIIIIIIII
IIIIA1IIIIIIIIIIIIIIIIIIIIIIIIIIIIIIIIIIIIIIIIIIIIIIIIIIIIIIIIII
IIIIA11I111111I11I12I2IIIIIIIIIIIIIIIIIIIIIIIIIIIIIIIIIIIIIIIIII
IIIIA111111111111I12I2IIIIIIIIIIIIIIIIIIIIIIIIIIIIIIIIIIIIIIIIII
AI11A111111111111212I2IIIIIIIIIIIIIIIIIIIIIIIIIIIIIIIIIIIIIIIIII
AI11A11A111111111111I12I2IIIIIIIIIIIIIIIIIIIIIIIIIIIIIIIIIIIIIII
IIIIAI11II1I11111I12I2IIIIIIIIIIIIIIIIIIIIIIIIIIIIIIIIIIIIIIIIII
IIIIA211II1I11111I12I2IIIIIIIIIIIIIIIIIIIIIIIIIIIIIIIIIIIIIIIIII
IIIIA211111111111I12I2IIIIIIIIIIIIIIIIIIIIIIIIIIIIIIIIIIIIIIIIII
AI1IA111111111111212I2IIIIIIIIIIIIIIIIIIIIIIIIIIIIIIIIIIIIIIIIII
AI1IA11A111111111111I12I2IIIIIIIIIIIIIIIIIIIIIIIIIIIIIIIIIIIIIII
AI11I11111111II2I2IIIIIIIIIIIIIIIIIIIIIIIIIIIIIIIIIIIIIIIIIIIIII
AI11A1111111111112I2I2IIIIIIIIIIIIIIIIIIIIIIIIIIIIIIIIIIIIIIIIII
AI11A11A111111111111I22I2IIIIIIIIIIIIIIIIIIIIIIIIIIIIIIIIIIIIIII
IIIIAI11I11111111II2I2IIIIIIIIIIIIIIIIIIIIIIIIIIIIIIIIIIIIIIIIII
A2IIAI11I11111111II2I2IIIIIIIIIIIIIIIIIIIIIIIIIIIIIIIIIIIIIIIIII
A2IIA211I11111111II2I2IIIIIIIIIIIIIIIIIIIIIIIIIIIIIIIIIIIIIIIIII
A2IIA21A211111111II2I2IIIIIIIIIIIIIIIIIIIIIIIIIIIIIIIIIIIIIIIIII
A2IIIIIIIIIIIIIIIIIIIIIIIIIIIIIIIIIIIIIIIIIIIIIIIIIIIIIIIIIIIIII
A2IIA2IIIIIIIIIIIIIIIIIIIIIIIIIIIIIIIIIIIIIIIIIIIIIIIIIIIIIIIIII
A2IIA2IA2IIIIIIIIIIIIIIIIIIIIIIIIIIIIIIIIIIIIIIIIIIIIIIIIIIIIIII
A2IIA21A2II111I22I22I2IIIIIIIIIIIIIIIIIIIIIIIIIIIIIIIIIIIIIIIIII
A2IIA21A2I1111111I11I11IIIIIIIIIIIIIIIIIIIIIIIIIIIIIIIIIIIIIIIII
AI11II1I1I111I11I11IIIIIIIIIIIIIIIIIIIIIIIIIIIIIIIIIIIIIIIIIIIII
AI11AI111I111I111111I11IIIIIIIIIIIIIIIIIIIIIIIIIIIIIIIIIIIIIIIII
AI11AI1A111111111111I11I11IIIIIIIIIIIIIIIIIIIIIIIIIIIIIIIIIIIIII
IIIIAI11II1I1I111I11I11IIIIIIIIIIIIIIIIIIIIIIIIIIIIIIIIIIIIIIIII
IIIIA111II1I1I111I11I11IIIIIIIIIIIIIIIIIIIIIIIIIIIIIIIIIIIIIIIII
IIIIA111II111I111I11I11IIIIIIIIIIIIIIIIIIIIIIIIIIIIIIIIIIIIIIIII
AI11A1111I111I111I11I11IIIIIIIIIIIIIIIIIIIIIIIIIIIIIIIIIIIIIIIII
AI11A11A111111111111I11II2IIIIIIIIIIIIIIIIIIIIIIIIIIIIIIIIIIIIII
IIIIAI11II111I111II2II2IIIIIIIIIIIIIIIIIIIIIIIIIIIIIIIIIIIIIIIII
IIIIA111II111I111II2II2IIIIIIIIIIIIIIIIIIIIIIIIIIIIIIIIIIIIIIIII
IIIIA1111I111I111II2I22IIIIIIIIIIIIIIIIIIIIIIIIIIIIIIIIIIIIIIIII
IIIIA1111I111I111I22I22IIIIIIIIIIIIIIIIIIIIIIIIIIIIIIIIIIIIIIIII
A2IIIIIIIIIIIIIIIIIIIIIIIIIIIIIIIIIIIIIIIIIIIIIIIIIIIIIIIIIIIIII
A2IIA2IIIIIIIIIIIIIIIIIIIIIIIIIIIIIIIIIIIIIIIIIIIIIIIIIIIIIIIIII
A2IIA2IA2IIIIIIIIIIIIIIIIIIIIIIIIIIIIIIIIIIIIIIIIIIIIIIIIIIIIIII
A2IIA21A211111I11I12I2IIIIIIIIIIIIIIIIIIIIIIIIIIIIIIIIIIIIIIIIII
A2IIA11A211111I11I12I2IIIIIIIIIIIIIIIIIIIIIIIIIIIIIIIIIIIIIIIIII
A2IIA11A111111111I12I2IIIIIIIIIIIIIIIIIIIIIIIIIIIIIIIIIIIIIIIIII
IIIIAI1I1I1I1I1I2II2I2IIIIIIIIIIIIIIIIIIIIIIIIIIIIIIIIIIIIIIIIII
IIIIA21I1I1I1I1I2II2I2IIIIIIIIIIIIIIIIIIIIIIIIIIIIIIIIIIIIIIIIII
IIIIA21I11111I111I11I1IIIIIIIIIIIIIIIIIIIIIIIIIIIIIIIIIIIIIIIIII
A1IIIIIIIIIIIIIIIIIIIIIIIIIIIIIIIIIIIIIIIIIIIIIIIIIIIIIIIIIIIIII
A1IIA1IIIIIIIIIIIIIIIIIIIIIIIIIIIIIIIIIIIIIIIIIIIIIIIIIIIIIIIIII
A1IIA1IA1IIIIIIIIIIIIIIIIIIIIIIIIIIIIIIIIIIIIIIIIIIIIIIIIIIIIIII
IIIIA1IIIIIIIIIIIIIIIIIIIIIIIIIIIIIIIIIIIIIIIIIIIIIIIIIIIIIIIIII
IIIIA111I11111II1I22I2IIIIIIIIIIIIIIIIIIIIIIIIIIIIIIIIIIIIIIIIII
IIIIA111111111221I22I2IIIIIIIIIIIIIIIIIIIIIIIIIIIIIIIIIIIIIIIIII
IIIIA111111111111I22I2IIIIIIIIIIIIIIIIIIIIIIIIIIIIIIIIIIIIIIIIII
IIIIA111111111111I21I1IIIIIIIIIIIIIIIIIIIIIIIIIIIIIIIIIIIIIIIIII
AI11A111111111111221I1IIIIIIIIIIIIIIIIIIIIIIIIIIIIIIIIIIIIIIIIII
AI11A11A111111111211I12I2IIIIIIIIIIIIIIIIIIIIIIIIIIIIIIIIIIIIIII
IIIIAI11I11I11I12I22I2IIIIIIIIIIIIIIIIIIIIIIIIIIIIIIIIIIIIIIIIII
IIIIA211I11I11I12I22I2IIIIIIIIIIIIIIIIIIIIIIIIIIIIIIIIIIIIIIIIII
IIIIA211I11I11I11I21I1IIIIIIIIIIIIIIIIIIIIIIIIIIIIIIIIIIIIIIIIII
AI11II1II1I11II1I1IIIIIIIIIIIIIIIIIIIIIIIIIIIIIIIIIIIIIIIIIIIIII
AI11AI11I11111I111I1I1IIIIIIIIIIIIIIIIIIIIIIIIIIIIIIIIIIIIIIIIII
AI11AI1AI11111I11111I11I1IIIIIIIIIIIIIIIIIIIIIIIIIIIIIIIIIIIIIII
IIIIAI11II1II1I11II1I1IIIIIIIIIIIIIIIIIIIIIIIIIIIIIIIIIIIIIIIIII
IIIIA111II1II1I11II1I1IIIIIIIIIIIIIIIIIIIIIIIIIIIIIIIIIIIIIIIIII
IIIIA111II1111111I11111IIIIIIIIIIIIIIIIIIIIIIIIIIIIIIIIIIIIIIIII
IIIIA1IIIIIIIIIIIIIIIIIIIIIIIIIIIIIIIIIIIIIIIIIIIIIIIIIIIIIIIIII
AI1IA11I11111I11I1IIIIIIIIIIIIIIIIIIIIIIIIIIIIIIIIIIIIIIIIIIIIII
AI1IA11I111111111111I1IIIIIIIIIIIIIIIIIIIIIIIIIIIIIIIIIIIIIIIIII
AI1IA11A111111111111I11I1IIIIIIIIIIIIIIIIIIIIIIIIIIIIIIIIIIIIIII
IIIIAI1I1I1I11111I11I1IIIIIIIIIIIIIIIIIIIIIIIIIIIIIIIIIIIIIIIIII
IIIIA11I1I1I11111I11I1IIIIIIIIIIIIIIIIIIIIIIIIIIIIIIIIIIIIIIIIII
AI1I1I111II11II2I2IIIIIIIIIIIIIIIIIIIIIIIIIIIIIIIIIIIIIIIIIIIIII
AI1IAI111I111II112I2I2IIIIIIIIIIIIIIIIIIIIIIIIIIIIIIIIIIIIIIIIII
AI1IAI1A111111111211I22I2IIIIIIIIIIIIIIIIIIIIIIIIIIIIIIIIIIIIIII
AI1I1I111II11II2I2IIIIIIIIIIIIIIIIIIIIIIIIIIIIIIIIIIIIIIIIIIIIII
AI1IAI111I111II112I2I2IIIIIIIIIIIIIIIIIIIIIIIIIIIIIIIIIIIIIIIIII
AI1IAI1A111111111211I22I2IIIIIIIIIIIIIIIIIIIIIIIIIIIIIIIIIIIIIII
AI1IA11A111111111211I22I2IIIIIIIIIIIIIIIIIIIIIIIIIIIIIIIIIIIIIII
A11IA11A111111111211I22I2IIIIIIIIIIIIIIIIIIIIIIIIIIIIIIIIIIIIIII
IIIIAI1I1I1122I22II2IIIIIIIIIIIIIIIIIIIIIIIIIIIIIIIIIIIIIIIIIIII
IIIIA21I1I1122I22II2IIIIIIIIIIIIIIIIIIIIIIIIIIIIIIIIIIIIIIIIIIII
IIIIA21I1I1112I11I22I2IIIIIIIIIIIIIIIIIIIIIIIIIIIIIIIIIIIIIIIIII
IIIIAI1I1I111II11I22I2IIIIIIIIIIIIIIIIIIIIIIIIIIIIIIIIIIIIIIIIII
IIIIA21I1I111II11I22I2IIIIIIIIIIIIIIIIIIIIIIIIIIIIIIIIIIIIIIIIII
IIIIA21I1I111I111I22I2IIIIIIIIIIIIIIIIIIIIIIIIIIIIIIIIIIIIIIIIII
IIIIAI1I1I111I112II2IIIIIIIIIIIIIIIIIIIIIIIIIIIIIIIIIIIIIIIIIIII
IIIIA21I1I111I112II2IIIIIIIIIIIIIIIIIIIIIIIIIIIIIIIIIIIIIIIIIIII
IIIIA21I1I111I111II2II2IIIIIIIIIIIIIIIIIIIIIIIIIIIIIIIIIIIIIIIII
IIIIAI1I1I111II11II2II2IIIIIIIIIIIIIIIIIIIIIIIIIIIIIIIIIIIIIIIII
IIIIA11I1I111II11II2II2IIIIIIIIIIIIIIIIIIIIIIIIIIIIIIIIIIIIIIIII
IIIIA11I1I111II11II1I12IIIIIIIIIIIIIIIIIIIIIIIIIIIIIIIIIIIIIIIII
AI1I1I111II11II1I1IIIIIIIIIIIIIIIIIIIIIIIIIIIIIIIIIIIIIIIIIIIIII
AI1IAI111I111II111I1I1IIIIIIIIIIIIIIIIIIIIIIIIIIIIIIIIIIIIIIIIII
AI1IAI1A111111111111I11I1IIIIIIIIIIIIIIIIIIIIIIIIIIIIIIIIIIIIIII
IIIIAI1I1I111II11II1I1IIIIIIIIIIIIIIIIIIIIIIIIIIIIIIIIIIIIIIIIII
AI1I1I111II11II1I1IIIIIIIIIIIIIIIIIIIIIIIIIIIIIIIIIIIIIIIIIIIIII
AI1IAI111I111II111I1I1IIIIIIIIIIIIIIIIIIIIIIIIIIIIIIIIIIIIIIIIII
AI1IAI1A111111111111I11I1IIIIIIIIIIIIIIIIIIIIIIIIIIIIIIIIIIIIIII
AI1IA11A111111111111I11I1IIIIIIIIIIIIIIIIIIIIIIIIIIIIIIIIIIIIIII
IIIIAI111I1I11I11I11I1IIIIIIIIIIIIIIIIIIIIIIIIIIIIIIIIIIIIIIIIII
IIIIA2111I1I11I11I11I1IIIIIIIIIIIIIIIIIIIIIIIIIIIIIIIIIIIIIIIIII
IIIIA2111I1I11111I11I1IIIIIIIIIIIIIIIIIIIIIIIIIIIIIIIIIIIIIIIIII
IIIIA2111I1111111I11I11IIIIIIIIIIIIIIIIIIIIIIIIIIIIIIIIIIIIIIIII
IIIIA1111I1111111I11I11IIIIIIIIIIIIIIIIIIIIIIIIIIIIIIIIIIIIIIIII
AI1IA111111111111111I11IIIIIIIIIIIIIIIIIIIIIIIIIIIIIIIIIIIIIIIII
AI1IA11A111111111111I11I1IIIIIIIIIIIIIIIIIIIIIIIIIIIIIIIIIIIIIII
IIIIAI1I1I1111111I11I1IIIIIIIIIIIIIIIIIIIIIIIIIIIIIIIIIIIIIIIIII
IIIIA11I1I1111111I11I1IIIIIIIIIIIIIIIIIIIIIIIIIIIIIIIIIIIIIIIIII
IIIIA11I1I1111111I11I11IIIIIIIIIIIIIIIIIIIIIIIIIIIIIIIIIIIIIIIII
IIIIAI1I1I1II1II1I11I11IIIIIIIIIIIIIIIIIIIIIIIIIIIIIIIIIIIIIIIII
IIIIA11I1I1II1II1I11I11IIIIIIIIIIIIIIIIIIIIIIIIIIIIIIIIIIIIIIIII
IIIIA11I1I1I111I1I11I11IIIIIIIIIIIIIIIIIIIIIIIIIIIIIIIIIIIIIIIII
IIIIA11I1I1111111I11I11IIIIIIIIIIIIIIIIIIIIIIIIIIIIIIIIIIIIIIIII
IIIIA2IIIIIIIIIIIIIIIIIIIIIIIIIIIIIIIIIIIIIIIIIIIIIIIIIIIIIIIIII
IIIIA2111I1I11I11I11I11IIIIIIIIIIIIIIIIIIIIIIIIIIIIIIIIIIIIIIIII
IIIIA211111I11I11I11I11IIIIIIIIIIIIIIIIIIIIIIIIIIIIIIIIIIIIIIIII
IIIIAII1111I11I11I11I1IIIIIIIIIIIIIIIIIIIIIIIIIIIIIIIIIIIIIIIIII
IIIIA1I1111I11I11I11I1IIIIIIIIIIIIIIIIIIIIIIIIIIIIIIIIIIIIIIIIII
IIIIAI1I111111I11I11I1IIIIIIIIIIIIIIIIIIIIIIIIIIIIIIIIIIIIIIIIII
AI1IA111111111111111I1IIIIIIIIIIIIIIIIIIIIIIIIIIIIIIIIIIIIIIIIII
AI1IA11A111111111111I11I1IIIIIIIIIIIIIIIIIIIIIIIIIIIIIIIIIIIIIII
IIIIAI1I111111I11I11I1IIIIIIIIIIIIIIIIIIIIIIIIIIIIIIIIIIIIIIIIII
IIIIA11I111111I11I11I1IIIIIIIIIIIIIIIIIIIIIIIIIIIIIIIIIIIIIIIIII
IIIIA111111111111I11I12IIIIIIIIIIIIIIIIIIIIIIIIIIIIIIIIIIIIIIIII
IIIIAI11I1111I111I12II2IIIIIIIIIIIIIIIIIIIIIIIIIIIIIIIIIIIIIIIII
IIIIA211I1111I111I12II2IIIIIIIIIIIIIIIIIIIIIIIIIIIIIIIIIIIIIIIII
IIIIA211I11111111I11I11IIIIIIIIIIIIIIIIIIIIIIIIIIIIIIIIIIIIIIIII
AI11I11I11I11I11I1IIIIIIIIIIIIIIIIIIIIIIIIIIIIIIIIIIIIIIIIIIIIII
AI11A111111111111111I1IIIIIIIIIIIIIIIIIIIIIIIIIIIIIIIIIIIIIIIIII
AI11A11A111111111111I11I1IIIIIIIIIIIIIIIIIIIIIIIIIIIIIIIIIIIIIII
IIIIAI11I11I11I11I11I1IIIIIIIIIIIIIIIIIIIIIIIIIIIIIIIIIIIIIIIIII
IIIIA211I11I11I11I11I1IIIIIIIIIIIIIIIIIIIIIIIIIIIIIIIIIIIIIIIIII
IIIIA211111I11111I11I1IIIIIIIIIIIIIIIIIIIIIIIIIIIIIIIIIIIIIIIIII
IIIIA211111111111I11I1IIIIIIIIIIIIIIIIIIIIIIIIIIIIIIIIIIIIIIIIII
IIIIA211111111111I11I12IIIIIIIIIIIIIIIIIIIIIIIIIIIIIIIIIIIIIIIII
AI1I1I1I11I11I12I2IIIIIIIIIIIIIIIIIIIIIIIIIIIIIIIIIIIIIIIIIIIIII
AI1IAI1I111111111212I2IIIIIIIIIIIIIIIIIIIIIIIIIIIIIIIIIIIIIIIIII
AI1IAI1A111111111211I12I2IIIIIIIIIIIIIIIIIIIIIIIIIIIIIIIIIIIIIII
IIIIAI1I1I1I11I11I12I2IIIIIIIIIIIIIIIIIIIIIIIIIIIIIIIIIIIIIIIIII
AI1I1I1I11I11I12I2IIIIIIIIIIIIIIIIIIIIIIIIIIIIIIIIIIIIIIIIIIIIII
AI1IAI1I111111111212I2IIIIIIIIIIIIIIIIIIIIIIIIIIIIIIIIIIIIIIIIII
AI1IAI1A111111111211I12I2IIIIIIIIIIIIIIIIIIIIIIIIIIIIIIIIIIIIIII
IIIIA2IIIIIIIIIIIIIIIIIIIIIIIIIIIIIIIIIIIIIIIIIIIIIIIIIIIIIIIIII
IIIIA211I11111I11II1I2IIIIIIIIIIIIIIIIIIIIIIIIIIIIIIIIIIIIIIIIII
AI11I11111I11II1I2IIIIIIIIIIIIIIIIIIIIIIIIIIIIIIIIIIIIIIIIIIIIII
AI11A111111111I112I1I2IIIIIIIIIIIIIIIIIIIIIIIIIIIIIIIIIIIIIIIIII
AI11A11A111111111211I21I2IIIIIIIIIIIIIIIIIIIIIIIIIIIIIIIIIIIIIII
AI11A11A111111111111I21I2IIIIIIIIIIIIIIIIIIIIIIIIIIIIIIIIIIIIIII
AI11A11A111111111111I11I2IIIIIIIIIIIIIIIIIIIIIIIIIIIIIIIIIIIIIII
AI11A11A111111111111I11I11IIIIIIIIIIIIIIIIIIIIIIIIIIIIIIIIIIIIII
IIIIAI11I11I11II2I22I2IIIIIIIIIIIIIIIIIIIIIIIIIIIIIIIIIIIIIIIIII
IIIIA211I11I11II2I22I2IIIIIIIIIIIIIIIIIIIIIIIIIIIIIIIIIIIIIIIIII
AI11A211111111112112I2IIIIIIIIIIIIIIIIIIIIIIIIIIIIIIIIIIIIIIIIII
AI11A211111111111111I11IIIIIIIIIIIIIIIIIIIIIIIIIIIIIIIIIIIIIIIII
AI11A21A111111111111I11I11IIIIIIIIIIIIIIIIIIIIIIIIIIIIIIIIIIIIII
IIIIAI11II1I11111I11I11IIIIIIIIIIIIIIIIIIIIIIIIIIIIIIIIIIIIIIIII
IIIIA111II1I11111I11I11IIIIIIIIIIIIIIIIIIIIIIIIIIIIIIIIIIIIIIIII
IIIIA1111I1I11111I11I11IIIIIIIIIIIIIIIIIIIIIIIIIIIIIIIIIIIIIIIII
IIIIA1111I1111111I11I11IIIIIIIIIIIIIIIIIIIIIIIIIIIIIIIIIIIIIIIII
AI11A111111111111111I11IIIIIIIIIIIIIIIIIIIIIIIIIIIIIIIIIIIIIIIII
AI11A11A111111111111I11I1IIIIIIIIIIIIIIIIIIIIIIIIIIIIIIIIIIIIIII
IIIIAI11II1I11I11I11I1IIIIIIIIIIIIIIIIIIIIIIIIIIIIIIIIIIIIIIIIII
IIIIA211II1I11I11I11I1IIIIIIIIIIIIIIIIIIIIIIIIIIIIIIIIIIIIIIIIII
IIIIA2111I1111111I11I1IIIIIIIIIIIIIIIIIIIIIIIIIIIIIIIIIIIIIIIIII
AI1IA2111I1111111211I1IIIIIIIIIIIIIIIIIIIIIIIIIIIIIIIIIIIIIIIIII
AI1IA21A111111111111I12I2IIIIIIIIIIIIIIIIIIIIIIIIIIIIIIIIIIIIIII
AI1I1I111I111I12I2IIIIIIIIIIIIIIIIIIIIIIIIIIIIIIIIIIIIIIIIIIIIII
A21I1I111I111I12I2IIIIIIIIIIIIIIIIIIIIIIIIIIIIIIIIIIIIIIIIIIIIII
A21IA2111I111I12I2IIIIIIIIIIIIIIIIIIIIIIIIIIIIIIIIIIIIIIIIIIIIII
A21IA21A1I111I12I2IIIIIIIIIIIIIIIIIIIIIIIIIIIIIIIIIIIIIIIIIIIIII
IIIIAI11II1I12II2I22IIIIIIIIIIIIIIIIIIIIIIIIIIIIIIIIIIIIIIIIIIII
AI11AI11121I12222I22IIIIIIIIIIIIIIIIIIIIIIIIIIIIIIIIIIIIIIIIIIII
AI11AI1A111I11212I22I22IIIIIIIIIIIIIIIIIIIIIIIIIIIIIIIIIIIIIIIII
AI11II1I12II2I22IIIIIIIIIIIIIIIIIIIIIIIIIIIIIIIIIIIIIIIIIIIIIIII
AI11AI11121I12222I22IIIIIIIIIIIIIIIIIIIIIIIIIIIIIIIIIIIIIIIIIIII
AI11AI1A111I11212I22I22IIIIIIIIIIIIIIIIIIIIIIIIIIIIIIIIIIIIIIIII
AI11A21A111I11212I22I22IIIIIIIIIIIIIIIIIIIIIIIIIIIIIIIIIIIIIIIII
AI11A21A111I11111I11I22IIIIIIIIIIIIIIIIIIIIIIIIIIIIIIIIIIIIIIIII
A2IIIIIIIIIIIIIIIIIIIIIIIIIIIIIIIIIIIIIIIIIIIIIIIIIIIIIIIIIIIIII
A2IIA2IIIIIIIIIIIIIIIIIIIIIIIIIIIIIIIIIIIIIIIIIIIIIIIIIIIIIIIIII
A2IIA2IA2IIIIIIIIIIIIIIIIIIIIIIIIIIIIIIIIIIIIIIIIIIIIIIIIIIIIIII
IIIIA2IIIIIIIIIIIIIIIIIIIIIIIIIIIIIIIIIIIIIIIIIIIIIIIIIIIIIIIIII
IIIIA211I11I11I11I22I2IIIIIIIIIIIIIIIIIIIIIIIIIIIIIIIIIIIIIIIIII
IIIIA211I11111111I22I2IIIIIIIIIIIIIIIIIIIIIIIIIIIIIIIIIIIIIIIIII
A2IIA211I11111111I22I2IIIIIIIIIIIIIIIIIIIIIIIIIIIIIIIIIIIIIIIIII
A2IIA21A211111111I22I2IIIIIIIIIIIIIIIIIIIIIIIIIIIIIIIIIIIIIIIIII
IIIIA2IIIIIIIIIIIIIIIIIIIIIIIIIIIIIIIIIIIIIIIIIIIIIIIIIIIIIIIIII
IIIIA211I11I11I22II2IIIIIIIIIIIIIIIIIIIIIIIIIIIIIIIIIIIIIIIIIIII
IIIIA211111111112II2I2IIIIIIIIIIIIIIIIIIIIIIIIIIIIIIIIIIIIIIIIII
IIIIA211111111111II1I1IIIIIIIIIIIIIIIIIIIIIIIIIIIIIIIIIIIIIIIIII
IIIIA211111111111I21I12IIIIIIIIIIIIIIIIIIIIIIIIIIIIIIIIIIIIIIIII
AI1I1I111I111I22I22IIIIIIIIIIIIIIIIIIIIIIIIIIIIIIIIIIIIIIIIIIIII
AI1IAI111I111I111222I22IIIIIIIIIIIIIIIIIIIIIIIIIIIIIIIIIIIIIIIII
AI1IAI1A111111111111I22I22IIIIIIIIIIIIIIIIIIIIIIIIIIIIIIIIIIIIII
AI1IA21A111111111111I22I22IIIIIIIIIIIIIIIIIIIIIIIIIIIIIIIIIIIIII
IIIIAI1I1I1III112II2I2IIIIIIIIIIIIIIIIIIIIIIIIIIIIIIIIIIIIIIIIII
IIIIA21I1I1III112II2I2IIIIIIIIIIIIIIIIIIIIIIIIIIIIIIIIIIIIIIIIII
IIIIA2111I111I111I11I1IIIIIIIIIIIIIIIIIIIIIIIIIIIIIIIIIIIIIIIIII
AI11II111I111I11I1IIIIIIIIIIIIIIIIIIIIIIIIIIIIIIIIIIIIIIIIIIIIII
AI11AI111I111I111111I1IIIIIIIIIIIIIIIIIIIIIIIIIIIIIIIIIIIIIIIIII
AI11AI1A111111111111I11I1IIIIIIIIIIIIIIIIIIIIIIIIIIIIIIIIIIIIIII
IIIIA1IIIIIIIIIIIIIIIIIIIIIIIIIIIIIIIIIIIIIIIIIIIIIIIIIIIIIIIIII
IIIIA11I11I111I11I11I1IIIIIIIIIIIIIIIIIIIIIIIIIIIIIIIIIIIIIIIIII
IIIIA11I111111I11I11I1IIIIIIIIIIIIIIIIIIIIIIIIIIIIIIIIIIIIIIIIII
IIIIA111111111111I11I1IIIIIIIIIIIIIIIIIIIIIIIIIIIIIIIIIIIIIIIIII
IIIIA111111111111I11I12IIIIIIIIIIIIIIIIIIIIIIIIIIIIIIIIIIIIIIIII
AI11A111111111111211I12IIIIIIIIIIIIIIIIIIIIIIIIIIIIIIIIIIIIIIIII
AI11A11A111111111111I12I22IIIIIIIIIIIIIIIIIIIIIIIIIIIIIIIIIIIIII
IIIIA1IIIIIIIIIIIIIIIIIIIIIIIIIIIIIIIIIIIIIIIIIIIIIIIIIIIIIIIIII
IIIIA11I1I1I11II1I11I1IIIIIIIIIIIIIIIIIIIIIIIIIIIIIIIIIIIIIIIIII
AI1III1II1II1II111IIIIIIIIIIIIIIIIIIIIIIIIIIIIIIIIIIIIIIIIIIIIII
AI1IAI1II11I11I111I111IIIIIIIIIIIIIIIIIIIIIIIIIIIIIIIIIIIIIIIIII
AI1IAI1AI11I11I111I111111IIIIIIIIIIIIIIIIIIIIIIIIIIIIIIIIIIIIIII
IIIIAI1III1II1II1II111IIIIIIIIIIIIIIIIIIIIIIIIIIIIIIIIIIIIIIIIII
IIIIA11III1II1II1II111IIIIIIIIIIIIIIIIIIIIIIIIIIIIIIIIIIIIIIIIII
IIIIA11I1I1I11111I1111IIIIIIIIIIIIIIIIIIIIIIIIIIIIIIIIIIIIIIIIII
IIIIAI1I1I1I11111I11I1IIIIIIIIIIIIIIIIIIIIIIIIIIIIIIIIIIIIIIIIII
A1IIAI1I1I1I11111I11I1IIIIIIIIIIIIIIIIIIIIIIIIIIIIIIIIIIIIIIIIII
A1IIA11I1I1I11111I11I1IIIIIIIIIIIIIIIIIIIIIIIIIIIIIIIIIIIIIIIIII
A1IIA11A1I1I11111I11I1IIIIIIIIIIIIIIIIIIIIIIIIIIIIIIIIIIIIIIIIII
IIIIAI1I1I1112I22II2IIIIIIIIIIIIIIIIIIIIIIIIIIIIIIIIIIIIIIIIIIII
IIIIA21I1I1112I22II2IIIIIIIIIIIIIIIIIIIIIIIIIIIIIIIIIIIIIIIIIIII
A2IIIIIIIIIIIIIIIIIIIIIIIIIIIIIIIIIIIIIIIIIIIIIIIIIIIIIIIIIIIIII
A2IIA2IIIIIIIIIIIIIIIIIIIIIIIIIIIIIIIIIIIIIIIIIIIIIIIIIIIIIIIIII
A2IIA2IA2IIIIIIIIIIIIIIIIIIIIIIIIIIIIIIIIIIIIIIIIIIIIIIIIIIIIIII
A2IIIIIIIIIIIIIIIIIIIIIIIIIIIIIIIIIIIIIIIIIIIIIIIIIIIIIIIIIIIIII
A2IIA2IIIIIIIIIIIIIIIIIIIIIIIIIIIIIIIIIIIIIIIIIIIIIIIIIIIIIIIIII
A2IIA2IA2IIIIIIIIIIIIIIIIIIIIIIIIIIIIIIIIIIIIIIIIIIIIIIIIIIIIIII
A2IIA21A22222IIIIIIIIIIIIIIIIIIIIIIIIIIIIIIIIIIIIIIIIIIIIIIIIIII
A2IIA21A211111I11I11I11IIIIIIIIIIIIIIIIIIIIIIIIIIIIIIIIIIIIIIIII
A2I1A11A111111111111I11IIIIIIIIIIIIIIIIIIIIIIIIIIIIIIIIIIIIIIIII
A2I1A11A111111111111I11I11IIIIIIIIIIIIIIIIIIIIIIIIIIIIIIIIIIIIII
IIIIAII1I11111I11I11I11IIIIIIIIIIIIIIIIIIIIIIIIIIIIIIIIIIIIIIIII
IIIIA1I1I11111I11I11I11IIIIIIIIIIIIIIIIIIIIIIIIIIIIIIIIIIIIIIIII
IIIIA111111111I11I11I11IIIIIIIIIIIIIIIIIIIIIIIIIIIIIIIIIIIIIIIII
IIIIA1IIIIIIIIIIIIIIIIIIIIIIIIIIIIIIIIIIIIIIIIIIIIIIIIIIIIIIIIII
IIIIA11I1I11I1112II2I2IIIIIIIIIIIIIIIIIIIIIIIIIIIIIIIIIIIIIIIIII
IIIIA2IIIIIIIIIIIIIIIIIIIIIIIIIIIIIIIIIIIIIIIIIIIIIIIIIIIIIIIIII
IIIIA21I1I111II22II2IIIIIIIIIIIIIIIIIIIIIIIIIIIIIIIIIIIIIIIIIIII
IIIIA1IIIIIIIIIIIIIIIIIIIIIIIIIIIIIIIIIIIIIIIIIIIIIIIIIIIIIIIIII
IIIIA11I1I11I1I12II2I2IIIIIIIIIIIIIIIIIIIIIIIIIIIIIIIIIIIIIIIIII
AI1I1I11I1I12II2I2IIIIIIIIIIIIIIIIIIIIIIIIIIIIIIIIIIIIIIIIIIIIII
AI1IAI11111121I122I2I2IIIIIIIIIIIIIIIIIIIIIIIIIIIIIIIIIIIIIIIIII
AI1IAI1A111121111212I22I2IIIIIIIIIIIIIIIIIIIIIIIIIIIIIIIIIIIIIII
IIIIAI1I1I11I1I12II2I2IIIIIIIIIIIIIIIIIIIIIIIIIIIIIIIIIIIIIIIIII
IIIIA2IIIIIIIIIIIIIIIIIIIIIIIIIIIIIIIIIIIIIIIIIIIIIIIIIIIIIIIIII
A2IIIIIIIIIIIIIIIIIIIIIIIIIIIIIIIIIIIIIIIIIIIIIIIIIIIIIIIIIIIIII
A2IIA2IIIIIIIIIIIIIIIIIIIIIIIIIIIIIIIIIIIIIIIIIIIIIIIIIIIIIIIIII
A2IIA2IA2IIIIIIIIIIIIIIIIIIIIIIIIIIIIIIIIIIIIIIIIIIIIIIIIIIIIIII
A2IIA21A2I111II22I22IIIIIIIIIIIIIIIIIIIIIIIIIIIIIIIIIIIIIIIIIIII
A2IIA21A1I111I111I11I1IIIIIIIIIIIIIIIIIIIIIIIIIIIIIIIIIIIIIIIIII
A2IIA21A1I1111111I11I1IIIIIIIIIIIIIIIIIIIIIIIIIIIIIIIIIIIIIIIIII
IIIIAI11II1111I11I11I1IIIIIIIIIIIIIIIIIIIIIIIIIIIIIIIIIIIIIIIIII
IIIIA211II1111I11I11I1IIIIIIIIIIIIIIIIIIIIIIIIIIIIIIIIIIIIIIIIII
IIIIA2111I1111111I11I1IIIIIIIIIIIIIIIIIIIIIIIIIIIIIIIIIIIIIIIIII
AI1IA2111I1111111211I1IIIIIIIIIIIIIIIIIIIIIIIIIIIIIIIIIIIIIIIIII
AI1IA21A111111111111I12I2IIIIIIIIIIIIIIIIIIIIIIIIIIIIIIIIIIIIIII
IIIIAI1I1I111I112I22I2IIIIIIIIIIIIIIIIIIIIIIIIIIIIIIIIIIIIIIIIII
IIIIA21I1I111I112I22I2IIIIIIIIIIIIIIIIIIIIIIIIIIIIIIIIIIIIIIIIII
IIIIA2111I111I111I11I22IIIIIIIIIIIIIIIIIIIIIIIIIIIIIIIIIIIIIIIII
IIIIAI11II111I111I11II2IIIIIIIIIIIIIIIIIIIIIIIIIIIIIIIIIIIIIIIII
IIIIA211II111I111I11II2IIIIIIIIIIIIIIIIIIIIIIIIIIIIIIIIIIIIIIIII
IIIIA2111I1111111I11I22IIIIIIIIIIIIIIIIIIIIIIIIIIIIIIIIIIIIIIIII
IIIIA2111I1111111111I22IIIIIIIIIIIIIIIIIIIIIIIIIIIIIIIIIIIIIIIII
IIIIA2111I1111111111I12IIIIIIIIIIIIIIIIIIIIIIIIIIIIIIIIIIIIIIIII
IIIIA1111I1111111111I12IIIIIIIIIIIIIIIIIIIIIIIIIIIIIIIIIIIIIIIII
IIIIA1IIIIIIIIIIIIIIIIIIIIIIIIIIIIIIIIIIIIIIIIIIIIIIIIIIIIIIIIII
IIIIA11I1I1II11I111111IIIIIIIIIIIIIIIIIIIIIIIIIIIIIIIIIIIIIIIIII
IIIIA1111I1I1111111111IIIIIIIIIIIIIIIIIIIIIIIIIIIIIIIIIIIIIIIIII
IIIIA1IIIIIIIIIIIIIIIIIIIIIIIIIIIIIIIIIIIIIIIIIIIIIIIIIIIIIIIIII
IIIIAI1I1I11I1112I22I2IIIIIIIIIIIIIIIIIIIIIIIIIIIIIIIIIIIIIIIIII
IIIIA21I1I11I1112I22I2IIIIIIIIIIIIIIIIIIIIIIIIIIIIIIIIIIIIIIIIII
IIIIA2IIIIIIIIIIIIIIIIIIIIIIIIIIIIIIIIIIIIIIIIIIIIIIIIIIIIIIIIII
AI11A11I11I11I22I2IIIIIIIIIIIIIIIIIIIIIIIIIIIIIIIIIIIIIIIIIIIIII
AI11A111111111211222I2IIIIIIIIIIIIIIIIIIIIIIIIIIIIIIIIIIIIIIIIII
AI11A11A111111211211I22I2IIIIIIIIIIIIIIIIIIIIIIIIIIIIIIIIIIIIIII
IIIIAI11I11I11I11I22I2IIIIIIIIIIIIIIIIIIIIIIIIIIIIIIIIIIIIIIIIII
IIIIA211I11I11I11I22I2IIIIIIIIIIIIIIIIIIIIIIIIIIIIIIIIIIIIIIIIII
IIIIA211111111111I22I2IIIIIIIIIIIIIIIIIIIIIIIIIIIIIIIIIIIIIIIIII
IIIIA2IIIIIIIIIIIIIIIIIIIIIIIIIIIIIIIIIIIIIIIIIIIIIIIIIIIIIIIIII
IIIIA211II1I11I12II2I2IIIIIIIIIIIIIIIIIIIIIIIIIIIIIIIIIIIIIIIIII
IIIIA2111I1I11111I12I2IIIIIIIIIIIIIIIIIIIIIIIIIIIIIIIIIIIIIIIIII
IIIIA2111I1I11111I11I1IIIIIIIIIIIIIIIIIIIIIIIIIIIIIIIIIIIIIIIIII
A2IIIIIIIIIIIIIIIIIIIIIIIIIIIIIIIIIIIIIIIIIIIIIIIIIIIIIIIIIIIIII
A2IIA2IIIIIIIIIIIIIIIIIIIIIIIIIIIIIIIIIIIIIIIIIIIIIIIIIIIIIIIIII
A2IIA2IA2IIIIIIIIIIIIIIIIIIIIIIIIIIIIIIIIIIIIIIIIIIIIIIIIIIIIIII
IIIIA2IIIIIIIIIIIIIIIIIIIIIIIIIIIIIIIIIIIIIIIIIIIIIIIIIIIIIIIIII
IIIIA211I11I11II1II2I22IIIIIIIIIIIIIIIIIIIIIIIIIIIIIIIIIIIIIIIII
IIIIA211111111111I12I22IIIIIIIIIIIIIIIIIIIIIIIIIIIIIIIIIIIIIIIII
IIIIA211111111111111I11IIIIIIIIIIIIIIIIIIIIIIIIIIIIIIIIIIIIIIIII
A2IIIIIIIIIIIIIIIIIIIIIIIIIIIIIIIIIIIIIIIIIIIIIIIIIIIIIIIIIIIIII
A2IIA2IIIIIIIIIIIIIIIIIIIIIIIIIIIIIIIIIIIIIIIIIIIIIIIIIIIIIIIIII
A2IIA2IA2IIIIIIIIIIIIIIIIIIIIIIIIIIIIIIIIIIIIIIIIIIIIIIIIIIIIIII
IIIIAI11II1I2II22I22IIIIIIIIIIIIIIIIIIIIIIIIIIIIIIIIIIIIIIIIIIII
AI11II1I2II22I22IIIIIIIIIIIIIIIIIIIIIIIIIIIIIIIIIIIIIIIIIIIIIIII
AI11AI112I122I222I22IIIIIIIIIIIIIIIIIIIIIIIIIIIIIIIIIIIIIIIIIIII
AI11AI1A211221222I22I22IIIIIIIIIIIIIIIIIIIIIIIIIIIIIIIIIIIIIIIII
IIIIAI11II1I2II22I22IIIIIIIIIIIIIIIIIIIIIIIIIIIIIIIIIIIIIIIIIIII
IIIIA211II1I2II22I22IIIIIIIIIIIIIIIIIIIIIIIIIIIIIIIIIIIIIIIIIIII
A2IIIIIIIIIIIIIIIIIIIIIIIIIIIIIIIIIIIIIIIIIIIIIIIIIIIIIIIIIIIIII
A2IIA2IIIIIIIIIIIIIIIIIIIIIIIIIIIIIIIIIIIIIIIIIIIIIIIIIIIIIIIIII
A2IIA2IA2IIIIIIIIIIIIIIIIIIIIIIIIIIIIIIIIIIIIIIIIIIIIIIIIIIIIIII
A2IIA21A211I2II22IIIIIIIIIIIIIIIIIIIIIIIIIIIIIIIIIIIIIIIIIIIIIII
A211A11A21122II22IIIIIIIIIIIIIIIIIIIIIIIIIIIIIIIIIIIIIIIIIIIIIII
A211A11A211211I22I22IIIIIIIIIIIIIIIIIIIIIIIIIIIIIIIIIIIIIIIIIIII
A211A11A211211222I22IIIIIIIIIIIIIIIIIIIIIIIIIIIIIIIIIIIIIIIIIIII
A211A11A111211121I11I1IIIIIIIIIIIIIIIIIIIIIIIIIIIIIIIIIIIIIIIIII
IIIIAI1I1I1I1I1I1I11I1IIIIIIIIIIIIIIIIIIIIIIIIIIIIIIIIIIIIIIIIII
AI1IAI1I1I1I1I111111I1IIIIIIIIIIIIIIIIIIIIIIIIIIIIIIIIIIIIIIIIII
AI1IAI1A111111111111I11I1IIIIIIIIIIIIIIIIIIIIIIIIIIIIIIIIIIIIIII
AI1IA11A111111111111I11I1IIIIIIIIIIIIIIIIIIIIIIIIIIIIIIIIIIIIIII
IIIIA1IIIIIIIIIIIIIIIIIIIIIIIIIIIIIIIIIIIIIIIIIIIIIIIIIIIIIIIIII
IIIIA11I111II1I11I22I2IIIIIIIIIIIIIIIIIIIIIIIIIIIIIIIIIIIIIIIIII
IIIIA11I111I11111I22I2IIIIIIIIIIIIIIIIIIIIIIIIIIIIIIIIIIIIIIIIII
IIIIA11I111I11111I12I22IIIIIIIIIIIIIIIIIIIIIIIIIIIIIIIIIIIIIIIII
A2IIA11I111I11111I12I22IIIIIIIIIIIIIIIIIIIIIIIIIIIIIIIIIIIIIIIII
A2IIA11A111I11111I12I22IIIIIIIIIIIIIIIIIIIIIIIIIIIIIIIIIIIIIIIII
IIIIA2IIIIIIIIIIIIIIIIIIIIIIIIIIIIIIIIIIIIIIIIIIIIIIIIIIIIIIIIII
IIIIA211I121III22IIIIIIIIIIIIIIIIIIIIIIIIIIIIIIIIIIIIIIIIIIIIIII
AI1IA21111111I1121IIIIIIIIIIIIIIIIIIIIIIIIIIIIIIIIIIIIIIIIIIIIII
AI1IA211111111111111I1IIIIIIIIIIIIIIIIIIIIIIIIIIIIIIIIIIIIIIIIII
AI1IA21A111111111111I11I1IIIIIIIIIIIIIIIIIIIIIIIIIIIIIIIIIIIIIII
AI1I1I1I11111I11I1IIIIIIIIIIIIIIIIIIIIIIIIIIIIIIIIIIIIIIIIIIIIII
AI1IAI1I111111111111I1IIIIIIIIIIIIIIIIIIIIIIIIIIIIIIIIIIIIIIIIII
AI1IAI1A111111111111I11I1IIIIIIIIIIIIIIIIIIIIIIIIIIIIIIIIIIIIIII
IIIIA1IIIIIIIIIIIIIIIIIIIIIIIIIIIIIIIIIIIIIIIIIIIIIIIIIIIIIIIIII
IIIIA111I11II1I11I11I1IIIIIIIIIIIIIIIIIIIIIIIIIIIIIIIIIIIIIIIIII
AI11A111I11111111111I1IIIIIIIIIIIIIIIIIIIIIIIIIIIIIIIIIIIIIIIIII
AI11A11AI11111111111I11I1IIIIIIIIIIIIIIIIIIIIIIIIIIIIIIIIIIIIIII
AI11I11II1I11I11I1IIIIIIIIIIIIIIIIIIIIIIIIIIIIIIIIIIIIIIIIIIIIII
AI11A111I11111111111I1IIIIIIIIIIIIIIIIIIIIIIIIIIIIIIIIIIIIIIIIII
AI11A11AI11111111111I11I1IIIIIIIIIIIIIIIIIIIIIIIIIIIIIIIIIIIIIII
AI11A11A111111111111I11I1IIIIIIIIIIIIIIIIIIIIIIIIIIIIIIIIIIIIIII
AI1I1I1III1I1I11I1IIIIIIIIIIIIIIIIIIIIIIIIIIIIIIIIIIIIIIIIIIIIII
AI1IAI1I1I1I1I111111I1IIIIIIIIIIIIIIIIIIIIIIIIIIIIIIIIIIIIIIIIII
AI1IAI1A111111111111I11I1IIIIIIIIIIIIIIIIIIIIIIIIIIIIIIIIIIIIIII
IIIIAI1I1I1III1I1I11I1IIIIIIIIIIIIIIIIIIIIIIIIIIIIIIIIIIIIIIIIII
IIIIA11I1I1III1I1I11I1IIIIIIIIIIIIIIIIIIIIIIIIIIIIIIIIIIIIIIIIII
IIIIA11I1I111I111I11I1IIIIIIIIIIIIIIIIIIIIIIIIIIIIIIIIIIIIIIIIII
IIIIA1111I111I111I11I1IIIIIIIIIIIIIIIIIIIIIIIIIIIIIIIIIIIIIIIIII
AI11A1111I111I111211I1IIIIIIIIIIIIIIIIIIIIIIIIIIIIIIIIIIIIIIIIII
AI11A11A111111111111I12I2IIIIIIIIIIIIIIIIIIIIIIIIIIIIIIIIIIIIIII
IIIIAI111I111I111I12I2IIIIIIIIIIIIIIIIIIIIIIIIIIIIIIIIIIIIIIIIII
IIIIA1111I111I111I12I2IIIIIIIIIIIIIIIIIIIIIIIIIIIIIIIIIIIIIIIIII
AI11II111I111I12I2IIIIIIIIIIIIIIIIIIIIIIIIIIIIIIIIIIIIIIIIIIIIII
AI11AI111I111I111212I2IIIIIIIIIIIIIIIIIIIIIIIIIIIIIIIIIIIIIIIIII
AI11AI1A111111111111I12I2IIIIIIIIIIIIIIIIIIIIIIIIIIIIIIIIIIIIIII
AI11A21A111111111111I12I2IIIIIIIIIIIIIIIIIIIIIIIIIIIIIIIIIIIIIII
IIIIAI1I1I111I111I22I2IIIIIIIIIIIIIIIIIIIIIIIIIIIIIIIIIIIIIIIIII
IIIIA21I1I111I111I22I2IIIIIIIIIIIIIIIIIIIIIIIIIIIIIIIIIIIIIIIIII
IIIIA2111I111I111I22I222IIIIIIIIIIIIIIIIIIIIIIIIIIIIIIIIIIIIIIII
IIIIA2111I1111111I22I222IIIIIIIIIIIIIIIIIIIIIIIIIIIIIIIIIIIIIIII
AI1I1I1I11I12II2I2IIIIIIIIIIIIIIIIIIIIIIIIIIIIIIIIIIIIIIIIIIIIII
AI1IAI1I111111I122I2I2IIIIIIIIIIIIIIIIIIIIIIIIIIIIIIIIIIIIIIIIII
AI1IAI1A111111I11212I22I2IIIIIIIIIIIIIIIIIIIIIIIIIIIIIIIIIIIIIII
IIIIAI1I1I1I11I12II2I2IIIIIIIIIIIIIIIIIIIIIIIIIIIIIIIIIIIIIIIIII
IIIIA21I1I1I11I12II2I2IIIIIIIIIIIIIIIIIIIIIIIIIIIIIIIIIIIIIIIIII
IIIIA211111I11112II2I22IIIIIIIIIIIIIIIIIIIIIIIIIIIIIIIIIIIIIIIII
IIIIA211111I11111I11I12IIIIIIIIIIIIIIIIIIIIIIIIIIIIIIIIIIIIIIIII
AI1IA211111111111211I12IIIIIIIIIIIIIIIIIIIIIIIIIIIIIIIIIIIIIIIII
AI1IA21A111111111111I12I2IIIIIIIIIIIIIIIIIIIIIIIIIIIIIIIIIIIIIII
IIIIAI11I11I1II12I22I2IIIIIIIIIIIIIIIIIIIIIIIIIIIIIIIIIIIIIIIIII
IIIIA211I11I1II12I22I2IIIIIIIIIIIIIIIIIIIIIIIIIIIIIIIIIIIIIIIIII
IIIIA211I11I1I212I22I2IIIIIIIIIIIIIIIIIIIIIIIIIIIIIIIIIIIIIIIIII
A2IIIIIIIIIIIIIIIIIIIIIIIIIIIIIIIIIIIIIIIIIIIIIIIIIIIIIIIIIIIIII
A2IIA2IIIIIIIIIIIIIIIIIIIIIIIIIIIIIIIIIIIIIIIIIIIIIIIIIIIIIIIIII
A2IIA2IA2IIIIIIIIIIIIIIIIIIIIIIIIIIIIIIIIIIIIIIIIIIIIIIIIIIIIIII
IIIIAI121I2I2IIIIIIIIIIIIIIIIIIIIIIIIIIIIIIIIIIIIIIIIIIIIIIIIIII
IIIIA2121I2I2IIIIIIIIIIIIIIIIIIIIIIIIIIIIIIIIIIIIIIIIIIIIIIIIIII
IIIIA21211111I112I22II2IIIIIIIIIIIIIIIIIIIIIIIIIIIIIIIIIIIIIIIII
IIIIAI1I11111I112I22II2IIIIIIIIIIIIIIIIIIIIIIIIIIIIIIIIIIIIIIIII
AI1IA11111111I112I22II2IIIIIIIIIIIIIIIIIIIIIIIIIIIIIIIIIIIIIIIII
AI1IA11A111111112112I22II2IIIIIIIIIIIIIIIIIIIIIIIIIIIIIIIIIIIIII
IIIIA2IIIIIIIIIIIIIIIIIIIIIIIIIIIIIIIIIIIIIIIIIIIIIIIIIIIIIIIIII
IIIIAI1111I111I12II2IIIIIIIIIIIIIIIIIIIIIIIIIIIIIIIIIIIIIIIIIIII
AI1111I111I12II2IIIIIIIIIIIIIIIIIIIIIIIIIIIIIIIIIIIIIIIIIIIIIIII
AI11A11111I111I12II2IIIIIIIIIIIIIIIIIIIIIIIIIIIIIIIIIIIIIIIIIIII
AI11A11A111111111I12II2IIIIIIIIIIIIIIIIIIIIIIIIIIIIIIIIIIIIIIIII
A2IIIIIIIIIIIIIIIIIIIIIIIIIIIIIIIIIIIIIIIIIIIIIIIIIIIIIIIIIIIIII
A2IIA2IIIIIIIIIIIIIIIIIIIIIIIIIIIIIIIIIIIIIIIIIIIIIIIIIIIIIIIIII
A2IIA2IA2IIIIIIIIIIIIIIIIIIIIIIIIIIIIIIIIIIIIIIIIIIIIIIIIIIIIIII
A2IIA21A211111I11I11I11IIIIIIIIIIIIIIIIIIIIIIIIIIIIIIIIIIIIIIIII
A211A11A111111111111I11IIIIIIIIIIIIIIIIIIIIIIIIIIIIIIIIIIIIIIIII
A211A11A111111111111I11I11IIIIIIIIIIIIIIIIIIIIIIIIIIIIIIIIIIIIII
IIIIA1IIIIIIIIIIIIIIIIIIIIIIIIIIIIIIIIIIIIIIIIIIIIIIIIIIIIIIIIII
IIIIA11I1I11I1II1II2I2IIIIIIIIIIIIIIIIIIIIIIIIIIIIIIIIIIIIIIIIII
IIIIAI1I1I1111112II2I2IIIIIIIIIIIIIIIIIIIIIIIIIIIIIIIIIIIIIIIIII
IIIIA21I1I1111112II2I2IIIIIIIIIIIIIIIIIIIIIIIIIIIIIIIIIIIIIIIIII
IIIIAI1I1I1I1II12II2I2IIIIIIIIIIIIIIIIIIIIIIIIIIIIIIIIIIIIIIIIII
IIIIA21I1I1I1II12II2I2IIIIIIIIIIIIIIIIIIIIIIIIIIIIIIIIIIIIIIIIII
IIIIAI1I11111II11II2I2IIIIIIIIIIIIIIIIIIIIIIIIIIIIIIIIIIIIIIIIII
AI1I11111II11II2I2IIIIIIIIIIIIIIIIIIIIIIIIIIIIIIIIIIIIIIIIIIIIII
AI1IA11111111II112I2I2IIIIIIIIIIIIIIIIIIIIIIIIIIIIIIIIIIIIIIIIII
AI1IA11A111111111211I22I2IIIIIIIIIIIIIIIIIIIIIIIIIIIIIIIIIIIIIII
IIIIA2IIIIIIIIIIIIIIIIIIIIIIIIIIIIIIIIIIIIIIIIIIIIIIIIIIIIIIIIII
IIIIAI11I11II1I12II2I22IIIIIIIIIIIIIIIIIIIIIIIIIIIIIIIIIIIIIIIII
AI11I11II1I12II2I22IIIIIIIIIIIIIIIIIIIIIIIIIIIIIIIIIIIIIIIIIIIII
AI11A111I11121I12222I22IIIIIIIIIIIIIIIIIIIIIIIIIIIIIIIIIIIIIIIII
AI11A11AI11111I11212I22I22IIIIIIIIIIIIIIIIIIIIIIIIIIIIIIIIIIIIII
AI11A11AI11111111212I22I22IIIIIIIIIIIIIIIIIIIIIIIIIIIIIIIIIIIIII
AI11A11A111111111211I22I22IIIIIIIIIIIIIIIIIIIIIIIIIIIIIIIIIIIIII
IIIIAI1I1I111I111II1I2IIIIIIIIIIIIIIIIIIIIIIIIIIIIIIIIIIIIIIIIII
IIIIA11I1I111I111II1I2IIIIIIIIIIIIIIIIIIIIIIIIIIIIIIIIIIIIIIIIII
IIIIA11I1I1111111I11I1IIIIIIIIIIIIIIIIIIIIIIIIIIIIIIIIIIIIIIIIII
IIIIA1111I1111111I11I11IIIIIIIIIIIIIIIIIIIIIIIIIIIIIIIIIIIIIIIII
AI1IA111111111111111I11IIIIIIIIIIIIIIIIIIIIIIIIIIIIIIIIIIIIIIIII
AI1IA11A111111111111I11I1IIIIIIIIIIIIIIIIIIIIIIIIIIIIIIIIIIIIIII
IIIIAI1I1I1I111I1I11I1IIIIIIIIIIIIIIIIIIIIIIIIIIIIIIIIIIIIIIIIII
IIIIA2IIIIIIIIIIIIIIIIIIIIIIIIIIIIIIIIIIIIIIIIIIIIIIIIIIIIIIIIII
IIIIA211II1I22II2I22IIIIIIIIIIIIIIIIIIIIIIIIIIIIIIIIIIIIIIIIIIII
IIIIAI11II1I22II2I22IIIIIIIIIIIIIIIIIIIIIIIIIIIIIIIIIIIIIIIIIIII
IIIIA211II1I22II2I22IIIIIIIIIIIIIIIIIIIIIIIIIIIIIIIIIIIIIIIIIIII
IIIIA211II1112112I22IIIIIIIIIIIIIIIIIIIIIIIIIIIIIIIIIIIIIIIIIIII
IIIIA211111112111I11I11IIIIIIIIIIIIIIIIIIIIIIIIIIIIIIIIIIIIIIIII
IIIIA211111111111I11I11IIIIIIIIIIIIIIIIIIIIIIIIIIIIIIIIIIIIIIIII
IIIIAI1I1I1I11I11I11I11IIIIIIIIIIIIIIIIIIIIIIIIIIIIIIIIIIIIIIIII
IIIIA11I1I1I11I11I11I11IIIIIIIIIIIIIIIIIIIIIIIIIIIIIIIIIIIIIIIII
IIIIA11I1I1111111I11I11IIIIIIIIIIIIIIIIIIIIIIIIIIIIIIIIIIIIIIIII
IIIIAI1I1I1I1I111I11I1IIIIIIIIIIIIIIIIIIIIIIIIIIIIIIIIIIIIIIIIII
IIIIA11I1I1I1I111I11I1IIIIIIIIIIIIIIIIIIIIIIIIIIIIIIIIIIIIIIIIII
IIIIA1IIIIIIIIIIIIIIIIIIIIIIIIIIIIIIIIIIIIIIIIIIIIIIIIIIIIIIIIII
IIIIA111II1I11II1I12I2IIIIIIIIIIIIIIIIIIIIIIIIIIIIIIIIIIIIIIIIII
IIIIAI11II1I11II1I12I2IIIIIIIIIIIIIIIIIIIIIIIIIIIIIIIIIIIIIIIIII
AI11AI11111I11121212I2IIIIIIIIIIIIIIIIIIIIIIIIIIIIIIIIIIIIIIIIII
AI11AI1A111I11111211I12I2IIIIIIIIIIIIIIIIIIIIIIIIIIIIIIIIIIIIIII
IIIIAI11II1I11II1I12I2IIIIIIIIIIIIIIIIIIIIIIIIIIIIIIIIIIIIIIIIII
IIIIA111II1I11II1I12I2IIIIIIIIIIIIIIIIIIIIIIIIIIIIIIIIIIIIIIIIII
IIIIA111111I11I11I11I1IIIIIIIIIIIIIIIIIIIIIIIIIIIIIIIIIIIIIIIIII
IIIIA111111111111I11I1IIIIIIIIIIIIIIIIIIIIIIIIIIIIIIIIIIIIIIIIII
IIIIAI111I111I111I11I1IIIIIIIIIIIIIIIIIIIIIIIIIIIIIIIIIIIIIIIIII
IIIIA2111I111I111I11I1IIIIIIIIIIIIIIIIIIIIIIIIIIIIIIIIIIIIIIIIII
IIIIA2111I1111111I11I11IIIIIIIIIIIIIIIIIIIIIIIIIIIIIIIIIIIIIIIII
AI111I1111I11I11II1IIIIIIIIIIIIIIIIIIIIIIIIIIIIIIIIIIIIIIIIIIIII
AI11AI11111111111I11II1IIIIIIIIIIIIIIIIIIIIIIIIIIIIIIIIIIIIIIIII
AI11AI1A111111111I11I11II1IIIIIIIIIIIIIIIIIIIIIIIIIIIIIIIIIIIIII
IIIIAI111I1111I11I11II1IIIIIIIIIIIIIIIIIIIIIIIIIIIIIIIIIIIIIIIII
IIIIA2111I1111I11I11II1IIIIIIIIIIIIIIIIIIIIIIIIIIIIIIIIIIIIIIIII
IIIIA211111111111I11I21IIIIIIIIIIIIIIIIIIIIIIIIIIIIIIIIIIIIIIIII
IIIIA211111111111I11I11IIIIIIIIIIIIIIIIIIIIIIIIIIIIIIIIIIIIIIIII
AI111I1I11I12II2I2IIIIIIIIIIIIIIIIIIIIIIIIIIIIIIIIIIIIIIIIIIIIII
AI11AI11111111I122I2I2IIIIIIIIIIIIIIIIIIIIIIIIIIIIIIIIIIIIIIIIII
AI11AI1A111111I11212I22I2IIIIIIIIIIIIIIIIIIIIIIIIIIIIIIIIIIIIIII
IIIIAI111I1I11I12II2I2IIIIIIIIIIIIIIIIIIIIIIIIIIIIIIIIIIIIIIIIII
AI111I1I11I12II2I2IIIIIIIIIIIIIIIIIIIIIIIIIIIIIIIIIIIIIIIIIIIIII
AI11AI11111111I122I2I2IIIIIIIIIIIIIIIIIIIIIIIIIIIIIIIIIIIIIIIIII
AI11AI1A111111I11212I22I2IIIIIIIIIIIIIIIIIIIIIIIIIIIIIIIIIIIIIII
IIIIAI111I1I11I12II2I2IIIIIIIIIIIIIIIIIIIIIIIIIIIIIIIIIIIIIIIIII
IIIIA2111I1I11I12II2I2IIIIIIIIIIIIIIIIIIIIIIIIIIIIIIIIIIIIIIIIII
IIIIA211111111I11111I1IIIIIIIIIIIIIIIIIIIIIIIIIIIIIIIIIIIIIIIIII
AI11I11111I11111I1IIIIIIIIIIIIIIIIIIIIIIIIIIIIIIIIIIIIIIIIIIIIII
AI11A111111111111111I1IIIIIIIIIIIIIIIIIIIIIIIIIIIIIIIIIIIIIIIIII
AI11A11A111111111111111I1IIIIIIIIIIIIIIIIIIIIIIIIIIIIIIIIIIIIIII
A211A11A111111111111111I1IIIIIIIIIIIIIIIIIIIIIIIIIIIIIIIIIIIIIII
IIIIAI11II1I11I12II2I2IIIIIIIIIIIIIIIIIIIIIIIIIIIIIIIIIIIIIIIIII
A2IIAI11II1I11I12II2I2IIIIIIIIIIIIIIIIIIIIIIIIIIIIIIIIIIIIIIIIII
A2IIA211II1I11I12II2I2IIIIIIIIIIIIIIIIIIIIIIIIIIIIIIIIIIIIIIIIII
A2IIA21A2I1I11I12II2I2IIIIIIIIIIIIIIIIIIIIIIIIIIIIIIIIIIIIIIIIII
IIIIAI11II1I2II22IIIIIIIIIIIIIIIIIIIIIIIIIIIIIIIIIIIIIIIIIIIIIII
IIIIA211II1I2II22IIIIIIIIIIIIIIIIIIIIIIIIIIIIIIIIIIIIIIIIIIIIIII
IIIIA2111I111I122I22IIIIIIIIIIIIIIIIIIIIIIIIIIIIIIIIIIIIIIIIIIII
IIIIA21111111I111I11I11IIIIIIIIIIIIIIIIIIIIIIIIIIIIIIIIIIIIIIIII
A2IIA21111111I111I11I11IIIIIIIIIIIIIIIIIIIIIIIIIIIIIIIIIIIIIIIII
A2IIA21A11111I111I11I11IIIIIIIIIIIIIIIIIIIIIIIIIIIIIIIIIIIIIIIII
IIIIAI11II111I222II2IIIIIIIIIIIIIIIIIIIIIIIIIIIIIIIIIIIIIIIIIIII
IIIIA211II111I222II2IIIIIIIIIIIIIIIIIIIIIIIIIIIIIIIIIIIIIIIIIIII
AI1IA2111I111I2222I2IIIIIIIIIIIIIIIIIIIIIIIIIIIIIIIIIIIIIIIIIIII
AI1IA2111I111I1112I2I2IIIIIIIIIIIIIIIIIIIIIIIIIIIIIIIIIIIIIIIIII
AI1IA21A111111111111I22I2IIIIIIIIIIIIIIIIIIIIIIIIIIIIIIIIIIIIIII
AI1I1I1I1I111II2I2IIIIIIIIIIIIIIIIIIIIIIIIIIIIIIIIIIIIIIIIIIIIII
AI1IAI1I1I111I1112I2I2IIIIIIIIIIIIIIIIIIIIIIIIIIIIIIIIIIIIIIIIII
AI1IAI1A111111111111I22I2IIIIIIIIIIIIIIIIIIIIIIIIIIIIIIIIIIIIIII
IIIIA2IIIIIIIIIIIIIIIIIIIIIIIIIIIIIIIIIIIIIIIIIIIIIIIIIIIIIIIIII
IIIIAI1I11I111I12II2222IIIIIIIIIIIIIIIIIIIIIIIIIIIIIIIIIIIIIIIII
AI1IA11111I111I12222222IIIIIIIIIIIIIIIIIIIIIIIIIIIIIIIIIIIIIIIII
AI1IA11A11I111111212222222IIIIIIIIIIIIIIIIIIIIIIIIIIIIIIIIIIIIII
AI1I11I111I12II2222IIIIIIIIIIIIIIIIIIIIIIIIIIIIIIIIIIIIIIIIIIIII
AI1IA11111I111I12222222IIIIIIIIIIIIIIIIIIIIIIIIIIIIIIIIIIIIIIIII
AI1IA11A11I111111212222222IIIIIIIIIIIIIIIIIIIIIIIIIIIIIIIIIIIIII
AI1IA11A111111111212222222IIIIIIIIIIIIIIIIIIIIIIIIIIIIIIIIIIIIII
AI11II1I11122II2I2IIIIIIIIIIIIIIIIIIIIIIIIIIIIIIIIIIIIIIIIIIIIII
AI11AI111112111222I2I2IIIIIIIIIIIIIIIIIIIIIIIIIIIIIIIIIIIIIIIIII
AI11AI1A111211111122I22I2IIIIIIIIIIIIIIIIIIIIIIIIIIIIIIIIIIIIIII
IIIIA2IIIIIIIIIIIIIIIIIIIIIIIIIIIIIIIIIIIIIIIIIIIIIIIIIIIIIIIIII
IIIIA21I111I11I11I11I1IIIIIIIIIIIIIIIIIIIIIIIIIIIIIIIIIIIIIIIIII
IIIIA11I111I11I11I11I1IIIIIIIIIIIIIIIIIIIIIIIIIIIIIIIIIIIIIIIIII
AI1IA11I111111111111I1IIIIIIIIIIIIIIIIIIIIIIIIIIIIIIIIIIIIIIIIII
AI1IA11A111111111111I11I1IIIIIIIIIIIIIIIIIIIIIIIIIIIIIIIIIIIIIII
IIIIA1IIIIIIIIIIIIIIIIIIIIIIIIIIIIIIIIIIIIIIIIIIIIIIIIIIIIIIIIII
IIIIA11I111111I11I11I1IIIIIIIIIIIIIIIIIIIIIIIIIIIIIIIIIIIIIIIIII
IIIIA11I111111111I11I1IIIIIIIIIIIIIIIIIIIIIIIIIIIIIIIIIIIIIIIIII
IIIIA111111111111I11I1IIIIIIIIIIIIIIIIIIIIIIIIIIIIIIIIIIIIIIIIII
AI1I1I111I112I22I2IIIIIIIIIIIIIIIIIIIIIIIIIIIIIIIIIIIIIIIIIIIIII
AI1IAI111I111I112222I2IIIIIIIIIIIIIIIIIIIIIIIIIIIIIIIIIIIIIIIIII
AI1IAI1A111111112112I22I2IIIIIIIIIIIIIIIIIIIIIIIIIIIIIIIIIIIIIII
AI1IA11A111111112112I22I2IIIIIIIIIIIIIIIIIIIIIIIIIIIIIIIIIIIIIII
AI1IA11A111111111111I12I2IIIIIIIIIIIIIIIIIIIIIIIIIIIIIIIIIIIIIII
IIIIAI1I1I111I111I11I1IIIIIIIIIIIIIIIIIIIIIIIIIIIIIIIIIIIIIIIIII
IIIIA11I1I111I111I11I1IIIIIIIIIIIIIIIIIIIIIIIIIIIIIIIIIIIIIIIIII
IIIIA11I1I1111111I11I1IIIIIIIIIIIIIIIIIIIIIIIIIIIIIIIIIIIIIIIIII
AI1I1I1I11112I22I2IIIIIIIIIIIIIIIIIIIIIIIIIIIIIIIIIIIIIIIIIIIIII
AI1IAI1I111111112222I2IIIIIIIIIIIIIIIIIIIIIIIIIIIIIIIIIIIIIIIIII
AI1IAI1A111111111112I22I2IIIIIIIIIIIIIIIIIIIIIIIIIIIIIIIIIIIIIII
IIIIAI1I1I1I11112I22I2IIIIIIIIIIIIIIIIIIIIIIIIIIIIIIIIIIIIIIIIII
IIIIA21I1I1I11112I22I2IIIIIIIIIIIIIIIIIIIIIIIIIIIIIIIIIIIIIIIIII
IIIIA211111I11112I22I22IIIIIIIIIIIIIIIIIIIIIIIIIIIIIIIIIIIIIIIII
IIIIA211111111112I22I22IIIIIIIIIIIIIIIIIIIIIIIIIIIIIIIIIIIIIIIII
AI1IA111111111112222I22IIIIIIIIIIIIIIIIIIIIIIIIIIIIIIIIIIIIIIIII
AI1IA11A111111112112I22I2IIIIIIIIIIIIIIIIIIIIIIIIIIIIIIIIIIIIIII
IIIIAI1I1I11II112I22I2IIIIIIIIIIIIIIIIIIIIIIIIIIIIIIIIIIIIIIIIII
IIIIA21I1I11II112I22I2IIIIIIIIIIIIIIIIIIIIIIIIIIIIIIIIIIIIIIIIII
IIIIA2111I112I112I22I2IIIIIIIIIIIIIIIIIIIIIIIIIIIIIIIIIIIIIIIIII
A2IIIIIIIIIIIIIIIIIIIIIIIIIIIIIIIIIIIIIIIIIIIIIIIIIIIIIIIIIIIIII
A2IIA2IIIIIIIIIIIIIIIIIIIIIIIIIIIIIIIIIIIIIIIIIIIIIIIIIIIIIIIIII
A2IIA2IA2IIIIIIIIIIIIIIIIIIIIIIIIIIIIIIIIIIIIIIIIIIIIIIIIIIIIIII
IIIIA2IIIIIIIIIIIIIIIIIIIIIIIIIIIIIIIIIIIIIIIIIIIIIIIIIIIIIIIIII
IIIIA21I11122I22IIIIIIIIIIIIIIIIIIIIIIIIIIIIIIIIIIIIIIIIIIIIIIII
IIIIA211111211212I22I2IIIIIIIIIIIIIIIIIIIIIIIIIIIIIIIIIIIIIIIIII
IIIIAI11II1I11I12I22I2IIIIIIIIIIIIIIIIIIIIIIIIIIIIIIIIIIIIIIIIII
AI11AI11111111212222I2IIIIIIIIIIIIIIIIIIIIIIIIIIIIIIIIIIIIIIIIII
AI11AI1A111111211212I22I2IIIIIIIIIIIIIIIIIIIIIIIIIIIIIIIIIIIIIII
IIIIA2IIIIIIIIIIIIIIIIIIIIIIIIIIIIIIIIIIIIIIIIIIIIIIIIIIIIIIIIII
IIIIAI111I2I22IIIIIIIIIIIIIIIIIIIIIIIIIIIIIIIIIIIIIIIIIIIIIIIIII
AI111I2I22IIIIIIIIIIIIIIIIIIIIIIIIIIIIIIIIIIIIIIIIIIIIIIIIIIIIII
AI11AI11122I22IIIIIIIIIIIIIIIIIIIIIIIIIIIIIIIIIIIIIIIIIIIIIIIIII
AI11AI1A111122I22IIIIIIIIIIIIIIIIIIIIIIIIIIIIIIIIIIIIIIIIIIIIIII
A2IIIIIIIIIIIIIIIIIIIIIIIIIIIIIIIIIIIIIIIIIIIIIIIIIIIIIIIIIIIIII
A2IIA2IIIIIIIIIIIIIIIIIIIIIIIIIIIIIIIIIIIIIIIIIIIIIIIIIIIIIIIIII
A2IIA2IA2IIIIIIIIIIIIIIIIIIIIIIIIIIIIIIIIIIIIIIIIIIIIIIIIIIIIIII
A2IIA21A211I11I11I11I1IIIIIIIIIIIIIIIIIIIIIIIIIIIIIIIIIIIIIIIIII
A211A11A111111111111I1IIIIIIIIIIIIIIIIIIIIIIIIIIIIIIIIIIIIIIIIII
A211A11A111111111111I11I1IIIIIIIIIIIIIIIIIIIIIIIIIIIIIIIIIIIIIII
IIIIA1IIIIIIIIIIIIIIIIIIIIIIIIIIIIIIIIIIIIIIIIIIIIIIIIIIIIIIIIII
IIIIA11I111111I12I22I2IIIIIIIIIIIIIIIIIIIIIIIIIIIIIIIIIIIIIIIIII
IIIIAI111I111II12II222IIIIIIIIIIIIIIIIIIIIIIIIIIIIIIIIIIIIIIIIII
IIIIA2111I111II12II222IIIIIIIIIIIIIIIIIIIIIIIIIIIIIIIIIIIIIIIIII
IIIIAI1I1I111II12II2IIIIIIIIIIIIIIIIIIIIIIIIIIIIIIIIIIIIIIIIIIII
IIIIA11I1I111II12II2IIIIIIIIIIIIIIIIIIIIIIIIIIIIIIIIIIIIIIIIIIII
IIIIA1IIIIIIIIIIIIIIIIIIIIIIIIIIIIIIIIIIIIIIIIIIIIIIIIIIIIIIIIII
IIIIA11I1I111II12II2I2IIIIIIIIIIIIIIIIIIIIIIIIIIIIIIIIIIIIIIIIII
AI1I1I111II12II2I2IIIIIIIIIIIIIIIIIIIIIIIIIIIIIIIIIIIIIIIIIIIIII
AI1IAI111I111II122I2I2IIIIIIIIIIIIIIIIIIIIIIIIIIIIIIIIIIIIIIIIII
AI1IAI1A111111112212I22I2IIIIIIIIIIIIIIIIIIIIIIIIIIIIIIIIIIIIIII
IIIIA2IIIIIIIIIIIIIIIIIIIIIIIIIIIIIIIIIIIIIIIIIIIIIIIIIIIIIIIIII
AI11I11I11111I11II1IIIIIIIIIIIIIIIIIIIIIIIIIIIIIIIIIIIIIIIIIIIII
AI11A111111111111I11II1IIIIIIIIIIIIIIIIIIIIIIIIIIIIIIIIIIIIIIIII
AI11A11A111111111111I11II1IIIIIIIIIIIIIIIIIIIIIIIIIIIIIIIIIIIIII
IIIIAI1I1I111I111I11I1IIIIIIIIIIIIIIIIIIIIIIIIIIIIIIIIIIIIIIIIII
IIIIA11I1I111I111I11I1IIIIIIIIIIIIIIIIIIIIIIIIIIIIIIIIIIIIIIIIII
IIIIA11I1I1111111I11I1IIIIIIIIIIIIIIIIIIIIIIIIIIIIIIIIIIIIIIIIII
AI1IA111111111111111I1IIIIIIIIIIIIIIIIIIIIIIIIIIIIIIIIIIIIIIIIII
AI1IA11A111111111111I11I1IIIIIIIIIIIIIIIIIIIIIIIIIIIIIIIIIIIIIII
IIIIAI1I1I1111111I11I1IIIIIIIIIIIIIIIIIIIIIIIIIIIIIIIIIIIIIIIIII
IIIIA1IIIIIIIIIIIIIIIIIIIIIIIIIIIIIIIIIIIIIIIIIIIIIIIIIIIIIIIIII
IIIIA1111I1111I11I11I1IIIIIIIIIIIIIIIIIIIIIIIIIIIIIIIIIIIIIIIIII
IIIIAI111I1111I11I11I1IIIIIIIIIIIIIIIIIIIIIIIIIIIIIIIIIIIIIIIIII
IIIIA2111I1111I11I11I1IIIIIIIIIIIIIIIIIIIIIIIIIIIIIIIIIIIIIIIIII
IIIIA2111I1111111I11I1IIIIIIIIIIIIIIIIIIIIIIIIIIIIIIIIIIIIIIIIII
IIIIA1111I1111111I11I1IIIIIIIIIIIIIIIIIIIIIIIIIIIIIIIIIIIIIIIIII
IIIIA1111I1111111I11I11IIIIIIIIIIIIIIIIIIIIIIIIIIIIIIIIIIIIIIIII
IIIIAI11II2122I22IIIIIIIIIIIIIIIIIIIIIIIIIIIIIIIIIIIIIIIIIIIIIII
IIIIA211II2122I22IIIIIIIIIIIIIIIIIIIIIIIIIIIIIIIIIIIIIIIIIIIIIII
IIIIA2111I1112112II2I2IIIIIIIIIIIIIIIIIIIIIIIIIIIIIIIIIIIIIIIIII
IIIIA1111I1112112II2I2IIIIIIIIIIIIIIIIIIIIIIIIIIIIIIIIIIIIIIIIII
IIIIAI1I1I11II111I22I2IIIIIIIIIIIIIIIIIIIIIIIIIIIIIIIIIIIIIIIIII
IIIIA2IIIIIIIIIIIIIIIIIIIIIIIIIIIIIIIIIIIIIIIIIIIIIIIIIIIIIIIIII
IIIIAI11I1111I111I11I11IIIIIIIIIIIIIIIIIIIIIIIIIIIIIIIIIIIIIIIII
AI11A11111111I111111I11IIIIIIIIIIIIIIIIIIIIIIIIIIIIIIIIIIIIIIIII
AI11A11A111111111111I11I11IIIIIIIIIIIIIIIIIIIIIIIIIIIIIIIIIIIIII
IIIIAI11I1111I111I11I11IIIIIIIIIIIIIIIIIIIIIIIIIIIIIIIIIIIIIIIII
IIIIA111I1111I111I11I11IIIIIIIIIIIIIIIIIIIIIIIIIIIIIIIIIIIIIIIII
IIIIA111I11111111I11I11IIIIIIIIIIIIIIIIIIIIIIIIIIIIIIIIIIIIIIIII
IIIIAI11I11I11I11I11I1IIIIIIIIIIIIIIIIIIIIIIIIIIIIIIIIIIIIIIIIII
IIIIA211I11I11I11I11I1IIIIIIIIIIIIIIIIIIIIIIIIIIIIIIIIIIIIIIIIII
IIIIA211I11111111I11I11IIIIIIIIIIIIIIIIIIIIIIIIIIIIIIIIIIIIIIIII
IIIIA211111111111I11I11IIIIIIIIIIIIIIIIIIIIIIIIIIIIIIIIIIIIIIIII
A2IIIIIIIIIIIIIIIIIIIIIIIIIIIIIIIIIIIIIIIIIIIIIIIIIIIIIIIIIIIIII
A2IIA2IIIIIIIIIIIIIIIIIIIIIIIIIIIIIIIIIIIIIIIIIIIIIIIIIIIIIIIIII
A2IIA2IA2IIIIIIIIIIIIIIIIIIIIIIIIIIIIIIIIIIIIIIIIIIIIIIIIIIIIIII
IIIIAI111I1III122I22IIIIIIIIIIIIIIIIIIIIIIIIIIIIIIIIIIIIIIIIIIII
IIIIA2111I1III122I22IIIIIIIIIIIIIIIIIIIIIIIIIIIIIIIIIIIIIIIIIIII
IIIIA2111I111I111I11I2IIIIIIIIIIIIIIIIIIIIIIIIIIIIIIIIIIIIIIIIII
IIIIA2111I111I111I1111IIIIIIIIIIIIIIIIIIIIIIIIIIIIIIIIIIIIIIIIII
IIIIA2111I111I111I11112IIIIIIIIIIIIIIIIIIIIIIIIIIIIIIIIIIIIIIIII
IIIIA211111111111I11112IIIIIIIIIIIIIIIIIIIIIIIIIIIIIIIIIIIIIIIII
A2IIIIIIIIIIIIIIIIIIIIIIIIIIIIIIIIIIIIIIIIIIIIIIIIIIIIIIIIIIIIII
A2IIA2IIIIIIIIIIIIIIIIIIIIIIIIIIIIIIIIIIIIIIIIIIIIIIIIIIIIIIIIII
A2IIA2IA2IIIIIIIIIIIIIIIIIIIIIIIIIIIIIIIIIIIIIIIIIIIIIIIIIIIIIII
IIIIAI11II1I2I222II2IIIIIIIIIIIIIIIIIIIIIIIIIIIIIIIIIIIIIIIIIIII
AI11II1I2I222II2IIIIIIIIIIIIIIIIIIIIIIIIIIIIIIIIIIIIIIIIIIIIIIII
AI11AI112I122I222II2IIIIIIIIIIIIIIIIIIIIIIIIIIIIIIIIIIIIIIIIIIII
AI11AI1A211221222222II2IIIIIIIIIIIIIIIIIIIIIIIIIIIIIIIIIIIIIIIII
IIIIAI11II1I2I222II2IIIIIIIIIIIIIIIIIIIIIIIIIIIIIIIIIIIIIIIIIIII
IIIIA111II1I2I222II2IIIIIIIIIIIIIIIIIIIIIIIIIIIIIIIIIIIIIIIIIIII
A1IIIIIIIIIIIIIIIIIIIIIIIIIIIIIIIIIIIIIIIIIIIIIIIIIIIIIIIIIIIIII
A1IIA1IIIIIIIIIIIIIIIIIIIIIIIIIIIIIIIIIIIIIIIIIIIIIIIIIIIIIIIIII
A1IIA1IA1IIIIIIIIIIIIIIIIIIIIIIIIIIIIIIIIIIIIIIIIIIIIIIIIIIIIIII
A1IIA11A111I1II11I22I2IIIIIIIIIIIIIIIIIIIIIIIIIIIIIIIIIIIIIIIIII
A111A11A11111I211222I2IIIIIIIIIIIIIIIIIIIIIIIIIIIIIIIIIIIIIIIIII
A111A11A111111211211I22I2IIIIIIIIIIIIIIIIIIIIIIIIIIIIIIIIIIIIIII
A111A11A111111111211I12I2IIIIIIIIIIIIIIIIIIIIIIIIIIIIIIIIIIIIIII
IIIIAI1I1I1III1I1I11I1IIIIIIIIIIIIIIIIIIIIIIIIIIIIIIIIIIIIIIIIII
A1IIAI1I1I1III1I1I11I1IIIIIIIIIIIIIIIIIIIIIIIIIIIIIIIIIIIIIIIIII
A1IIA11I1I1III1I1I11I1IIIIIIIIIIIIIIIIIIIIIIIIIIIIIIIIIIIIIIIIII
A1IIA11A1I1III1I1I11I1IIIIIIIIIIIIIIIIIIIIIIIIIIIIIIIIIIIIIIIIII
IIIIA1IIIIIIIIIIIIIIIIIIIIIIIIIIIIIIIIIIIIIIIIIIIIIIIIIIIIIIIIII
IIIIA11I11111II12I22I2IIIIIIIIIIIIIIIIIIIIIIIIIIIIIIIIIIIIIIIIII
IIIIA11I11111I111I22I2IIIIIIIIIIIIIIIIIIIIIIIIIIIIIIIIIIIIIIIIII
IIIIA111111111111I22I2IIIIIIIIIIIIIIIIIIIIIIIIIIIIIIIIIIIIIIIIII
A2IIA111111111111I22I2IIIIIIIIIIIIIIIIIIIIIIIIIIIIIIIIIIIIIIIIII
A2IIA11A111111111I22I2IIIIIIIIIIIIIIIIIIIIIIIIIIIIIIIIIIIIIIIIII
IIIIA2IIIIIIIIIIIIIIIIIIIIIIIIIIIIIIIIIIIIIIIIIIIIIIIIIIIIIIIIII
IIIIA211I1I11II22II2IIIIIIIIIIIIIIIIIIIIIIIIIIIIIIIIIIIIIIIIIIII
AIIIA211I1I11II22II2IIIIIIIIIIIIIIIIIIIIIIIIIIIIIIIIIIIIIIIIIIII
AIIIA21AI1I11II22II2IIIIIIIIIIIIIIIIIIIIIIIIIIIIIIIIIIIIIIIIIIII
AIIIA21AI1111I222I22IIIIIIIIIIIIIIIIIIIIIIIIIIIIIIIIIIIIIIIIIIII
AI11II112I222I22IIIIIIIIIIIIIIIIIIIIIIIIIIIIIIIIIIIIIIIIIIIIIIII
AI11AI112I112I222I22IIIIIIIIIIIIIIIIIIIIIIIIIIIIIIIIIIIIIIIIIIII
AI11AI1A211121122222I22IIIIIIIIIIIIIIIIIIIIIIIIIIIIIIIIIIIIIIIII
IIIIAI11II112I222I22IIIIIIIIIIIIIIIIIIIIIIIIIIIIIIIIIIIIIIIIIIII
IIIIA2IIIIIIIIIIIIIIIIIIIIIIIIIIIIIIIIIIIIIIIIIIIIIIIIIIIIIIIIII
AI11A11111I11I11I11IIIIIIIIIIIIIIIIIIIIIIIIIIIIIIIIIIIIIIIIIIIII
AI11A111111111111111I11IIIIIIIIIIIIIIIIIIIIIIIIIIIIIIIIIIIIIIIII
AI11A11A111111111111I11I11IIIIIIIIIIIIIIIIIIIIIIIIIIIIIIIIIIIIII
AI11I11111I11I11I11IIIIIIIIIIIIIIIIIIIIIIIIIIIIIIIIIIIIIIIIIIIII
AI11A111111111111111I11IIIIIIIIIIIIIIIIIIIIIIIIIIIIIIIIIIIIIIIII
AI11A11A111111111111I11I11IIIIIIIIIIIIIIIIIIIIIIIIIIIIIIIIIIIIII
AI1I1I1I11II1I11I1IIIIIIIIIIIIIIIIIIIIIIIIIIIIIIIIIIIIIIIIIIIIII
AI1IAI1I111I11111111I1IIIIIIIIIIIIIIIIIIIIIIIIIIIIIIIIIIIIIIIIII
AI1IAI1A111111111111I11I1IIIIIIIIIIIIIIIIIIIIIIIIIIIIIIIIIIIIIII
IIIIAI1I1I1I11II1I11I1IIIIIIIIIIIIIIIIIIIIIIIIIIIIIIIIIIIIIIIIII
IIIIA11I1I1I11II1I11I1IIIIIIIIIIIIIIIIIIIIIIIIIIIIIIIIIIIIIIIIII
IIIIA11I1I1111111I11I1IIIIIIIIIIIIIIIIIIIIIIIIIIIIIIIIIIIIIIIIII
IIIIA11I111111111I11I1IIIIIIIIIIIIIIIIIIIIIIIIIIIIIIIIIIIIIIIIII
AI1IA111111111111211I1IIIIIIIIIIIIIIIIIIIIIIIIIIIIIIIIIIIIIIIIII
AI1IA11A111111111111I12I2IIIIIIIIIIIIIIIIIIIIIIIIIIIIIIIIIIIIIII
IIIIAI1I11111I111II2I2IIIIIIIIIIIIIIIIIIIIIIIIIIIIIIIIIIIIIIIIII
IIIIA11I11111I111II2I2IIIIIIIIIIIIIIIIIIIIIIIIIIIIIIIIIIIIIIIIII
IIIIA11I11111I111I12I2IIIIIIIIIIIIIIIIIIIIIIIIIIIIIIIIIIIIIIIIII
AI11II111I111I22I2IIIIIIIIIIIIIIIIIIIIIIIIIIIIIIIIIIIIIIIIIIIIII
AI11AI111I111I111222I2IIIIIIIIIIIIIIIIIIIIIIIIIIIIIIIIIIIIIIIIII
AI11AI1A111111111111I22I2IIIIIIIIIIIIIIIIIIIIIIIIIIIIIIIIIIIIIII
AI11A21A111111111111I22I2IIIIIIIIIIIIIIIIIIIIIIIIIIIIIIIIIIIIIII
IIIIAI11II111I112I22I2IIIIIIIIIIIIIIIIIIIIIIIIIIIIIIIIIIIIIIIIII
IIIIA211II111I112I22I2IIIIIIIIIIIIIIIIIIIIIIIIIIIIIIIIIIIIIIIIII
IIIIA2111I111I112I22I2IIIIIIIIIIIIIIIIIIIIIIIIIIIIIIIIIIIIIIIIII
IIIIA21111111I111I11I11IIIIIIIIIIIIIIIIIIIIIIIIIIIIIIIIIIIIIIIII
AI11I1111I111I11I11IIIIIIIIIIIIIIIIIIIIIIIIIIIIIIIIIIIIIIIIIIIII
AI11A11111111I111111I11IIIIIIIIIIIIIIIIIIIIIIIIIIIIIIIIIIIIIIIII
AI11A11A111111111111I11I11IIIIIIIIIIIIIIIIIIIIIIIIIIIIIIIIIIIIII
IIIIAI11I1111I111I11I11IIIIIIIIIIIIIIIIIIIIIIIIIIIIIIIIIIIIIIIII
IIIIA111I1111I111I11I11IIIIIIIIIIIIIIIIIIIIIIIIIIIIIIIIIIIIIIIII
IIIIA11111111I111I11I11IIIIIIIIIIIIIIIIIIIIIIIIIIIIIIIIIIIIIIIII
IIIIA111111111111I11I11IIIIIIIIIIIIIIIIIIIIIIIIIIIIIIIIIIIIIIIII
A2IIA111111111111I11I11IIIIIIIIIIIIIIIIIIIIIIIIIIIIIIIIIIIIIIIII
A2IIA11A111111111I11I11IIIIIIIIIIIIIIIIIIIIIIIIIIIIIIIIIIIIIIIII
IIIIAI1I1I11II111I11I1IIIIIIIIIIIIIIIIIIIIIIIIIIIIIIIIIIIIIIIIII
IIIIA11I1I11II111I11I1IIIIIIIIIIIIIIIIIIIIIIIIIIIIIIIIIIIIIIIIII
IIIIA1111I1111111I11I1IIIIIIIIIIIIIIIIIIIIIIIIIIIIIIIIIIIIIIIIII
AI11II1I11II1I22I2IIIIIIIIIIIIIIIIIIIIIIIIIIIIIIIIIIIIIIIIIIIIII
AI11AI11111I11221222I2IIIIIIIIIIIIIIIIIIIIIIIIIIIIIIIIIIIIIIIIII
AI11AI1A111I11211221I22I2IIIIIIIIIIIIIIIIIIIIIIIIIIIIIIIIIIIIIII
IIIIAI11II1I11II1I22I2IIIIIIIIIIIIIIIIIIIIIIIIIIIIIIIIIIIIIIIIII
IIIIA211II1I11II1I22I2IIIIIIIIIIIIIIIIIIIIIIIIIIIIIIIIIIIIIIIIII
IIIIA2111I1I11111I22I2IIIIIIIIIIIIIIIIIIIIIIIIIIIIIIIIIIIIIIIIII
IIIIAI11II111II12I22I2IIIIIIIIIIIIIIIIIIIIIIIIIIIIIIIIIIIIIIIIII
AI11AI111I111I212222I2IIIIIIIIIIIIIIIIIIIIIIIIIIIIIIIIIIIIIIIIII
AI11AI1A111111112212I22I2IIIIIIIIIIIIIIIIIIIIIIIIIIIIIIIIIIIIIII
IIIIAI11II111II12I22I2IIIIIIIIIIIIIIIIIIIIIIIIIIIIIIIIIIIIIIIIII
IIIIA2IIIIIIIIIIIIIIIIIIIIIIIIIIIIIIIIIIIIIIIIIIIIIIIIIIIIIIIIII
IIIIA21I1I1I11I12II2I2IIIIIIIIIIIIIIIIIIIIIIIIIIIIIIIIIIIIIIIIII
AI1I1I1I11I12II2I2IIIIIIIIIIIIIIIIIIIIIIIIIIIIIIIIIIIIIIIIIIIIII
AI1IAI1I111111I122I2I2IIIIIIIIIIIIIIIIIIIIIIIIIIIIIIIIIIIIIIIIII
AI1IAI1A111111I11212I22I2IIIIIIIIIIIIIIIIIIIIIIIIIIIIIIIIIIIIIII
AI1I1I1I11I12II2I2IIIIIIIIIIIIIIIIIIIIIIIIIIIIIIIIIIIIIIIIIIIIII
AI1IAI1I111111I122I2I2IIIIIIIIIIIIIIIIIIIIIIIIIIIIIIIIIIIIIIIIII
AI1IAI1A111111I11212I22I2IIIIIIIIIIIIIIIIIIIIIIIIIIIIIIIIIIIIIII
AI1IA21A111111I11212I22I2IIIIIIIIIIIIIIIIIIIIIIIIIIIIIIIIIIIIIII
AI11A11A111111211212I22I2IIIIIIIIIIIIIIIIIIIIIIIIIIIIIIIIIIIIIII
AI11A11A111111111212I22I2IIIIIIIIIIIIIIIIIIIIIIIIIIIIIIIIIIIIIII
IIIIAI11I11112I22I22IIIIIIIIIIIIIIIIIIIIIIIIIIIIIIIIIIIIIIIIIIII
IIIIA211I11112I22I22IIIIIIIIIIIIIIIIIIIIIIIIIIIIIIIIIIIIIIIIIIII
IIIIA211111112I22I22IIIIIIIIIIIIIIIIIIIIIIIIIIIIIIIIIIIIIIIIIIII
IIIIA2IIIIIIIIIIIIIIIIIIIIIIIIIIIIIIIIIIIIIIIIIIIIIIIIIIIIIIIIII
IIIIA21I1I112II22IIIIIIIIIIIIIIIIIIIIIIIIIIIIIIIIIIIIIIIIIIIIIII
IIIIA2IIIIIIIIIIIIIIIIIIIIIIIIIIIIIIIIIIIIIIIIIIIIIIIIIIIIIIIIII
IIIIA21I1I111I112I22II2IIIIIIIIIIIIIIIIIIIIIIIIIIIIIIIIIIIIIIIII
IIIIA1IIIIIIIIIIIIIIIIIIIIIIIIIIIIIIIIIIIIIIIIIIIIIIIIIIIIIIIIII
IIIIA11I1I1111II2II2I2IIIIIIIIIIIIIIIIIIIIIIIIIIIIIIIIIIIIIIIIII
[MLOP] Prefetch Degree Mean: 5.79119
[MLOP] Prefetch Degree SD: 4.93286
[MLOP] Max Score Left Mean (%): 19.944
[MLOP] Max Score Left SD (%): 16.4091
[MLOP] Max Score Right Mean (%): 53.4781
[MLOP] Max Score Right SD (%): 14.802

DRAM Statistics
 CHANNEL 0
 RQ ROW_BUFFER_HIT:      33819  ROW_BUFFER_MISS:      38035
 DBUS_CONGESTED:         30
 WQ ROW_BUFFER_HIT:        473  ROW_BUFFER_MISS:       6319  FULL:          0

 AVG_CONGESTED_CYCLE: 4
 All warmup complete: 2
Channel 0 Bank busy for read cycles: 0
Channel 0 Bank busy for write cycles: 0
Channel 0
Rank 0
0banks busy for read cycles: 646981085
0banks busy for write cycles: 3882
1banks busy for read cycles: 1785281
1banks busy for write cycles: 451958
2banks busy for read cycles: 513822
2banks busy for write cycles: 125877
3banks busy for read cycles: 307214
3banks busy for write cycles: 56397
4banks busy for read cycles: 219790
4banks busy for write cycles: 28481
5banks busy for read cycles: 170736
5banks busy for write cycles: 11682
6banks busy for read cycles: 140419
6banks busy for write cycles: 5836
7banks busy for read cycles: 101385
7banks busy for write cycles: 1782
8banks busy for read cycles: 47123
8banks busy for write cycles: 286

CPU 0 Branch Prediction Accuracy: 99.883% MPKI: 0.21111 Average ROB Occupancy at Mispredict: 29.2554
Branch types
NOT_BRANCH: 163917785 81.9589%
BRANCH_DIRECT_JUMP: 1879118 0.939559%
BRANCH_INDIRECT: 12151413 6.07571%
BRANCH_CONDITIONAL: 12872310 6.43616%
BRANCH_DIRECT_CALL: 3871933 1.93597%
BRANCH_INDIRECT_CALL: 717697 0.358849%
BRANCH_RETURN: 4589650 2.29482%
BRANCH_OTHER: 0 0%

DRAM PAGES: 1048576
Allocated PAGES: 1825
