
*** ChampSim Multicore Out-of-Order Simulator ***

Warmup Instructions: 50000000
Simulation Instructions: 200000000
Number of CPUs: 1
LLC sets: 2048
LLC ways: 16
Off-chip DRAM Size: 4096 MB Channels: 1 Width: 64-bit Data Rate: 6400 MT/s
CPU 0 runs traces/spec2k17/client_008.champsimtrace.xz
.xz
BTB has LRU replacement policy
ITLB has LRU replacement policy
DTLB has LRU replacement policy
STLB has LRU replacement policy
L1I has LRU replacement policy
L1D has LRU replacement policy
Initialize SRRIP state for L2C
Initialize DRRIP state for LLC
Heartbeat CPU 0 instructions: 10000000 cycles: 2912275 heartbeat IPC: 3.43374 cumulative IPC: 3.43374 (Simulation time: 0 hr 0 min 48 sec) 
Heartbeat CPU 0 instructions: 20000001 cycles: 5844744 heartbeat IPC: 3.4101 cumulative IPC: 3.42188 (Simulation time: 0 hr 1 min 32 sec) 
Heartbeat CPU 0 instructions: 30000001 cycles: 8752963 heartbeat IPC: 3.43853 cumulative IPC: 3.42741 (Simulation time: 0 hr 2 min 18 sec) 
Heartbeat CPU 0 instructions: 40000003 cycles: 11687980 heartbeat IPC: 3.40714 cumulative IPC: 3.42232 (Simulation time: 0 hr 3 min 3 sec) 
Heartbeat CPU 0 instructions: 50000002 cycles: 14618906 heartbeat IPC: 3.41189 cumulative IPC: 3.42023 (Simulation time: 0 hr 3 min 46 sec) 

Warmup complete CPU 0 instructions: 50000002 cycles: 14618906 (Simulation time: 0 hr 3 min 46 sec) 

Heartbeat CPU 0 instructions: 60000000 cycles: 35438962 heartbeat IPC: 0.480306 cumulative IPC: 0.480306 (Simulation time: 0 hr 4 min 39 sec) 
Heartbeat CPU 0 instructions: 70000000 cycles: 56100888 heartbeat IPC: 0.483982 cumulative IPC: 0.482137 (Simulation time: 0 hr 5 min 34 sec) 
Heartbeat CPU 0 instructions: 80000000 cycles: 76957147 heartbeat IPC: 0.479472 cumulative IPC: 0.481245 (Simulation time: 0 hr 6 min 33 sec) 
Heartbeat CPU 0 instructions: 90000003 cycles: 105752281 heartbeat IPC: 0.347281 cumulative IPC: 0.438917 (Simulation time: 0 hr 7 min 27 sec) 
Heartbeat CPU 0 instructions: 100000001 cycles: 121569597 heartbeat IPC: 0.632218 cumulative IPC: 0.467505 (Simulation time: 0 hr 8 min 21 sec) 
*** Reached end of trace for Core: 0 Repeating trace: traces/spec2k17/client_008.champsimtrace.xz
Heartbeat CPU 0 instructions: 110000000 cycles: 142602244 heartbeat IPC: 0.475451 cumulative IPC: 0.468811 (Simulation time: 0 hr 9 min 18 sec) 
Heartbeat CPU 0 instructions: 120000001 cycles: 164607731 heartbeat IPC: 0.454432 cumulative IPC: 0.466701 (Simulation time: 0 hr 10 min 14 sec) 
Heartbeat CPU 0 instructions: 130000000 cycles: 187713026 heartbeat IPC: 0.432801 cumulative IPC: 0.462176 (Simulation time: 0 hr 11 min 7 sec) 
Heartbeat CPU 0 instructions: 140000002 cycles: 209727562 heartbeat IPC: 0.454245 cumulative IPC: 0.461281 (Simulation time: 0 hr 12 min 3 sec) 
Heartbeat CPU 0 instructions: 150000001 cycles: 232783571 heartbeat IPC: 0.433726 cumulative IPC: 0.458369 (Simulation time: 0 hr 12 min 59 sec) 
Heartbeat CPU 0 instructions: 160000000 cycles: 254329555 heartbeat IPC: 0.464124 cumulative IPC: 0.458887 (Simulation time: 0 hr 13 min 52 sec) 
Heartbeat CPU 0 instructions: 170000000 cycles: 274761012 heartbeat IPC: 0.489441 cumulative IPC: 0.461286 (Simulation time: 0 hr 14 min 43 sec) 
Heartbeat CPU 0 instructions: 180000000 cycles: 293631143 heartbeat IPC: 0.529938 cumulative IPC: 0.465929 (Simulation time: 0 hr 15 min 42 sec) 
Heartbeat CPU 0 instructions: 190000001 cycles: 323408511 heartbeat IPC: 0.335826 cumulative IPC: 0.453383 (Simulation time: 0 hr 16 min 34 sec) 
Heartbeat CPU 0 instructions: 200000000 cycles: 341930226 heartbeat IPC: 0.539907 cumulative IPC: 0.458279 (Simulation time: 0 hr 17 min 26 sec) 
*** Reached end of trace for Core: 0 Repeating trace: traces/spec2k17/client_008.champsimtrace.xz
Heartbeat CPU 0 instructions: 210000001 cycles: 359727106 heartbeat IPC: 0.561896 cumulative IPC: 0.463623 (Simulation time: 0 hr 18 min 17 sec) 
Heartbeat CPU 0 instructions: 220000000 cycles: 382237649 heartbeat IPC: 0.444236 cumulative IPC: 0.462436 (Simulation time: 0 hr 19 min 8 sec) 
Heartbeat CPU 0 instructions: 230000003 cycles: 404656426 heartbeat IPC: 0.446055 cumulative IPC: 0.461494 (Simulation time: 0 hr 20 min 8 sec) 
Heartbeat CPU 0 instructions: 240000002 cycles: 426935067 heartbeat IPC: 0.44886 cumulative IPC: 0.460811 (Simulation time: 0 hr 21 min 0 sec) 
Heartbeat CPU 0 instructions: 250000002 cycles: 449779461 heartbeat IPC: 0.437744 cumulative IPC: 0.4596 (Simulation time: 0 hr 21 min 52 sec) 
Finished CPU 0 instructions: 200000000 cycles: 435160555 cumulative IPC: 0.4596 (Simulation time: 0 hr 21 min 52 sec) 

ChampSim completed all CPUs

Region of Interest Statistics

CPU 0 cumulative IPC: 0.4596 instructions: 200000000 cycles: 435160555
ITLB TOTAL     ACCESS:   33950812  HIT:   32951530  MISS:     999282  HIT %:    97.0567  MISS %:    2.94332   MPKI: 4.99641
ITLB LOAD TRANSLATION ACCESS:   33950812  HIT:   32951530  MISS:     999282  HIT %:    97.0567  MISS %:    2.94332   MPKI: 4.99641
ITLB PREFETCH  REQUESTED:          0  ISSUED:          0  USEFUL:          0  USELESS:          0
ITLB USEFUL LOAD PREFETCHES:          0 PREFETCH ISSUED TO LOWER LEVEL:          0  ACCURACY: -nan
ITLB TIMELY PREFETCHES:          0 LATE PREFETCHES: 0 DROPPED PREFETCHES: 0
ITLB PREFETCHES SAME FILL-ORIGIN LEVEL: 0 DIFFERENT FILL-ORIGIN LEVEL: 0
ITLB AVERAGE MISS LATENCY: 9.56554 cycles
ITLB RQ	ACCESS:   38134670	FORWARD:          0	MERGED:    3935016	TO_CACHE:   34199654

DTLB TOTAL     ACCESS:   44600707  HIT:   41553242  MISS:    3047465  HIT %:    93.1672  MISS %:    6.83277   MPKI: 15.2373
DTLB LOAD TRANSLATION ACCESS:   44600707  HIT:   41553242  MISS:    3047465  HIT %:    93.1672  MISS %:    6.83277   MPKI: 15.2373
DTLB PREFETCH  REQUESTED:          0  ISSUED:          0  USEFUL:          0  USELESS:          0
DTLB USEFUL LOAD PREFETCHES:          0 PREFETCH ISSUED TO LOWER LEVEL:          0  ACCURACY: -nan
DTLB TIMELY PREFETCHES:          0 LATE PREFETCHES: 0 DROPPED PREFETCHES: 0
DTLB PREFETCHES SAME FILL-ORIGIN LEVEL: 0 DIFFERENT FILL-ORIGIN LEVEL: 0
DTLB AVERAGE MISS LATENCY: 9.52416 cycles
DTLB RQ	ACCESS:   54778182	FORWARD:          0	MERGED:   10086787	TO_CACHE:   44691395

STLB TOTAL     ACCESS:    4707469  HIT:    4676346  MISS:      31123  HIT %:    99.3389  MISS %:   0.661141   MPKI: 0.155615
STLB LOAD TRANSLATION ACCESS:    4046747  HIT:    4015624  MISS:      31123  HIT %:    99.2309  MISS %:   0.769087   MPKI: 0.155615
STLB TRANSLATION FROM L1D PREFETCHER ACCESS:     660722  HIT:     660722  MISS:          0  HIT %:        100  MISS %:          0   MPKI: 0
STLB PREFETCH  REQUESTED:          0  ISSUED:          0  USEFUL:          0  USELESS:          0
STLB USEFUL LOAD PREFETCHES:          0 PREFETCH ISSUED TO LOWER LEVEL:          0  ACCURACY: -nan
STLB TIMELY PREFETCHES:          0 LATE PREFETCHES: 0 DROPPED PREFETCHES: 0
STLB PREFETCHES SAME FILL-ORIGIN LEVEL: 0 DIFFERENT FILL-ORIGIN LEVEL: 0
STLB AVERAGE MISS LATENCY: 66.7463 cycles
STLB RQ	ACCESS:    5351550	FORWARD:          0	MERGED:     644081	TO_CACHE:    4707469

STLB Hit, L1D data hit: 0
STLB Hit, L2C data hit: 0
STLB Hit, LLC data hit: 0
STLB Hit, LLC data miss: 0
STLB STLB hints to L2: 0
L1D TOTAL     ACCESS:   54661847  HIT:   50472827  MISS:    4189020  HIT %:    92.3365  MISS %:    7.66352   MPKI: 20.9451
L1D LOAD      ACCESS:   37944036  HIT:   34670395  MISS:    3273641  HIT %:    91.3724  MISS %:    8.62755   MPKI: 16.3682
L1D RFO       ACCESS:   16027591  HIT:   15760859  MISS:     266732  HIT %:    98.3358  MISS %:    1.66421   MPKI: 1.33366
L1D PREFETCH  ACCESS:     690220  HIT:      41573  MISS:     648647  HIT %:    6.02315  MISS %:    93.9768   MPKI: 3.24323
AGUS PREFETCH L1 MISS: 0
L1D PREFETCH  REQUESTED:    2617754  ISSUED:    2617754  USEFUL:     261405  USELESS:     387220
L1D USEFUL LOAD PREFETCHES:     261405 PREFETCH ISSUED TO LOWER LEVEL:    1247506  ACCURACY: 20.9542
L1D TIMELY PREFETCHES:     261405 LATE PREFETCHES: 13749 DROPPED PREFETCHES: 0
L1D PREFETCHES SAME FILL-ORIGIN LEVEL: 664592 DIFFERENT FILL-ORIGIN LEVEL: 582914
L1D AVERAGE MISS LATENCY: 837745 cycles
L1D RQ	ACCESS:   56752963	FORWARD:          0	MERGED:   18374706	TO_CACHE:   38122382
L1D WQ	ACCESS:   17136260	FORWARD:     256128	MERGED:     480460	TO_CACHE:   16655800
L1D PQ	ACCESS:    1312951	FORWARD:          0	MERGED:       7895	TO_CACHE:    1304803

L1D UNIQUE REGIONS ACCESSED: 0
L1D REGIONS CONFLICTS: 0
L1D Cross Page Prefetch Requests: 0
L1D Same Page Prefetch Requests: 1646439
L1D ROI Sum of L1D PQ occupancy: 17329875
L1D PREFETCHES PUSHED FROM L2C: 0
L1I TOTAL     ACCESS:   37100463  HIT:   32802590  MISS:    4297873  HIT %:    88.4156  MISS %:    11.5844   MPKI: 21.4894
L1I LOAD      ACCESS:   37100463  HIT:   32802590  MISS:    4297873  HIT %:    88.4156  MISS %:    11.5844   MPKI: 21.4894
L1I PREFETCH  REQUESTED:          0  ISSUED:          0  USEFUL:          0  USELESS:          0
L1I USEFUL LOAD PREFETCHES:          0 PREFETCH ISSUED TO LOWER LEVEL:          0  ACCURACY: -nan
L1I TIMELY PREFETCHES:          0 LATE PREFETCHES: 0 DROPPED PREFETCHES: 0
L1I PREFETCHES SAME FILL-ORIGIN LEVEL: 0 DIFFERENT FILL-ORIGIN LEVEL: 0
L1I AVERAGE MISS LATENCY: 18.6458 cycles
L1I RQ	ACCESS:   62286658	FORWARD:          0	MERGED:   24151988	TO_CACHE:   38134670

BTB TOTAL     ACCESS:   36528429  HIT:   31583049  MISS:    4945380  HIT %:    86.4616  MISS %:    13.5384   MPKI: 24.7269
BTB BRANCH_DIRECT_JUMP	ACCESS:    2061309  HIT:    1966278  MISS:      95031
BTB BRANCH_INDIRECT	ACCESS:   13234606  HIT:   11716494  MISS:    1518112
BTB BRANCH_CONDITIONAL	ACCESS:   12402841  HIT:   12111408  MISS:     291433
BTB BRANCH_DIRECT_CALL	ACCESS:    1759418  HIT:    1715408  MISS:      44010
BTB BRANCH_INDIRECT_CALL	ACCESS:    2655183  HIT:    2016702  MISS:     638481
BTB BRANCH_RETURN	ACCESS:    4415072  HIT:    2056759  MISS:    2358313
BTB BRANCH_OTHER ACCESS:          0  HIT:          0  MISS:          0

L2C TOTAL     ACCESS:    9591061  HIT:    7797658  MISS:    1793403  HIT %:    81.3013  MISS %:    18.6987   MPKI: 8.96701
L2C LOAD      ACCESS:    7557750  HIT:    6781457  MISS:     776293  HIT %:    89.7285  MISS %:    10.2715   MPKI: 3.88146
L2C DATA LOAD MPKI: 2.1879
L2C INSTRUCTION LOAD MPKI: 1.69357
L2C RFO       ACCESS:     264519  HIT:     123097  MISS:     141422  HIT %:    46.5362  MISS %:    53.4638   MPKI: 0.70711
L2C PREFETCH  ACCESS:    1235026  HIT:     379664  MISS:     855362  HIT %:    30.7414  MISS %:    69.2586   MPKI: 4.27681
AGUS PREFETCH L1 MISS: 0
L2C DATA PREFETCH MPKI: 4.27681
L2C INSTRUCTION PREFETCH MPKI: 0
L2C WRITEBACK ACCESS:     501051  HIT:     494429  MISS:       6622  HIT %:    98.6784  MISS %:    1.32162   MPKI: 0.03311
L2C LOAD TRANSLATION ACCESS:      32715  HIT:      19011  MISS:      13704  HIT %:     58.111  MISS %:     41.889   MPKI: 0.06852
L2C PREFETCH  REQUESTED:          0  ISSUED:          0  USEFUL:     126952  USELESS:     727853
L2C USEFUL LOAD PREFETCHES:     126952 PREFETCH ISSUED TO LOWER LEVEL:     857623  ACCURACY: 14.8028
L2C TIMELY PREFETCHES:     126952 LATE PREFETCHES: 2261 DROPPED PREFETCHES: 0
L2C PREFETCHES SAME FILL-ORIGIN LEVEL: 461069 DIFFERENT FILL-ORIGIN LEVEL: 0
L2C AVERAGE MISS LATENCY: 85.1975 cycles
L2C RQ	ACCESS:    7855017	FORWARD:          0	MERGED:          0	TO_CACHE:    7854985
L2C WQ	ACCESS:     501051	FORWARD:         32	MERGED:          0	TO_CACHE:     501051
L2C PQ	ACCESS:    1245892	FORWARD:          0	MERGED:          8	TO_CACHE:    1245884

L2C Instructions Evicting Data 245694
L2C Translations Evicting Data 10034
L2C Data Evicting Data 1179782
L2C Instructions Evicting Instructions 89586
L2C Translations Evicting Instructions 3479
L2C Data Evicting Instructions 244537
L2C Instructions Evicting Translations 3434
L2C Translations Evicting Translations 191
L2C Data Evicting Translations 10044
L2C Dense regions hint from L2: 0
PSCL5 TOTAL     ACCESS:      31123  HIT:      31123  MISS:          0  HIT %:        100  MISS %:          0   MPKI: 0
PSCL5 LOAD TRANSLATION ACCESS:      31123  HIT:      31123  MISS:          0  HIT %:        100  MISS %:          0   MPKI: 0
PSCL5 PREFETCH  REQUESTED:          0  ISSUED:          0  USEFUL:          0  USELESS:          0
PSCL5 USEFUL LOAD PREFETCHES:          0 PREFETCH ISSUED TO LOWER LEVEL:          0  ACCURACY: -nan
PSCL5 TIMELY PREFETCHES:          0 LATE PREFETCHES: 0 DROPPED PREFETCHES: 0
PSCL5 PREFETCHES SAME FILL-ORIGIN LEVEL: 0 DIFFERENT FILL-ORIGIN LEVEL: 0

PSCL4 TOTAL     ACCESS:      31123  HIT:      31123  MISS:          0  HIT %:        100  MISS %:          0   MPKI: 0
PSCL4 LOAD TRANSLATION ACCESS:      31123  HIT:      31123  MISS:          0  HIT %:        100  MISS %:          0   MPKI: 0
PSCL4 PREFETCH  REQUESTED:          0  ISSUED:          0  USEFUL:          0  USELESS:          0
PSCL4 USEFUL LOAD PREFETCHES:          0 PREFETCH ISSUED TO LOWER LEVEL:          0  ACCURACY: -nan
PSCL4 TIMELY PREFETCHES:          0 LATE PREFETCHES: 0 DROPPED PREFETCHES: 0
PSCL4 PREFETCHES SAME FILL-ORIGIN LEVEL: 0 DIFFERENT FILL-ORIGIN LEVEL: 0

PSCL3 TOTAL     ACCESS:      31027  HIT:      30987  MISS:         40  HIT %:    99.8711  MISS %:    0.12892   MPKI: 0.0002
PSCL3 LOAD TRANSLATION ACCESS:      31027  HIT:      30987  MISS:         40  HIT %:    99.8711  MISS %:    0.12892   MPKI: 0.0002
PSCL3 PREFETCH  REQUESTED:          0  ISSUED:          0  USEFUL:          0  USELESS:          0
PSCL3 USEFUL LOAD PREFETCHES:          0 PREFETCH ISSUED TO LOWER LEVEL:          0  ACCURACY: -nan
PSCL3 TIMELY PREFETCHES:          0 LATE PREFETCHES: 0 DROPPED PREFETCHES: 0
PSCL3 PREFETCHES SAME FILL-ORIGIN LEVEL: 0 DIFFERENT FILL-ORIGIN LEVEL: 0

PSCL2 TOTAL     ACCESS:      31123  HIT:      29564  MISS:       1559  HIT %:    94.9908  MISS %:    5.00916   MPKI: 0.007795
PSCL2 LOAD TRANSLATION ACCESS:      31123  HIT:      29564  MISS:       1559  HIT %:    94.9908  MISS %:    5.00916   MPKI: 0.007795
PSCL2 PREFETCH  REQUESTED:          0  ISSUED:          0  USEFUL:          0  USELESS:          0
PSCL2 USEFUL LOAD PREFETCHES:          0 PREFETCH ISSUED TO LOWER LEVEL:          0  ACCURACY: -nan
PSCL2 TIMELY PREFETCHES:          0 LATE PREFETCHES: 0 DROPPED PREFETCHES: 0
PSCL2 PREFETCHES SAME FILL-ORIGIN LEVEL: 0 DIFFERENT FILL-ORIGIN LEVEL: 0

LLC TOTAL     ACCESS:    2116821  HIT:    1447131  MISS:     669690  HIT %:    68.3634  MISS %:    31.6366   MPKI: 3.34845
LLC LOAD      ACCESS:     774764  HIT:     633018  MISS:     141746  HIT %:    81.7046  MISS %:    18.2954   MPKI: 0.70873
LLC RFO       ACCESS:     140688  HIT:      15069  MISS:     125619  HIT %:    10.7109  MISS %:    89.2891   MPKI: 0.628095
LLC PREFETCH  ACCESS:     857623  HIT:     474164  MISS:     383459  HIT %:    55.2882  MISS %:    44.7118   MPKI: 1.91729
AGUS PREFETCH L1 MISS: 0
LLC WRITEBACK ACCESS:     330042  HIT:     315746  MISS:      14296  HIT %:    95.6684  MISS %:    4.33157   MPKI: 0.07148
LLC LOAD TRANSLATION ACCESS:      13704  HIT:       9134  MISS:       4570  HIT %:    66.6521  MISS %:    33.3479   MPKI: 0.02285
LLC PREFETCH  REQUESTED:          0  ISSUED:          0  USEFUL:      50615  USELESS:     330464
LLC USEFUL LOAD PREFETCHES:      50615 PREFETCH ISSUED TO LOWER LEVEL:     383459  ACCURACY: 13.1996
LLC TIMELY PREFETCHES:      50615 LATE PREFETCHES: 0 DROPPED PREFETCHES: 0
LLC PREFETCHES SAME FILL-ORIGIN LEVEL: 0 DIFFERENT FILL-ORIGIN LEVEL: 0
LLC AVERAGE MISS LATENCY: 148.257 cycles
LLC RQ	ACCESS:     929158	FORWARD:          0	MERGED:          0	TO_CACHE:     929156
LLC WQ	ACCESS:     330042	FORWARD:          2	MERGED:          0	TO_CACHE:     330042
LLC PQ	ACCESS:     857623	FORWARD:          0	MERGED:          0	TO_CACHE:     857623

LLC Dense regions hint to LLC: 0

RAW hits: 3340585
Loads Generated: 60093550
Loads sent to L1D: 56752963
Stores Generated: 17136254
Stores sent to L1D: 17136260
Major fault: 0 Minor fault: 5379
Allocated PAGES: 5379
=== CPU 0 L1D Prefetcher Statistics ===
[MLOP] History of tracked zone:
IIIIIIIIIIIIIIIIIIIIIIIIIIIIIIIIIIIIIIIIIIIIIIIIIIIIIIIIIIIIIIII
IIIIIIIIIIIIIIIIIIIIIIIIIIIIIIIIIIIIIIIIIIIIIIIIIIIIIIIIIIIIAIII
IIIIIIIIIIIIIIIIIIIIIIIIIIIIIIIIIIIIIIIIIIIIIIIIIIIIIIIIIIIIAAII
IIIIIIIIIIIIIIIIIIIIIIIIIIIIIIIIIIIIIIIIIIIIIIIA1IIIIIIIIIIIAAII
IIIIIIIIIIIIIIIIIIIIIIIIIIIIIIIIIIIIIIIIIIIIIIIAA1IIIIIIIIIIAAII
IIIIIIA1IIIIIIIIIIIIIIIIIIIIIIIIIIIIIIIIIIIIIIIAA1IIIIIIIIIIAAII
IIIIIIA1IIIIIIIIIIIIIIIIIIA1IIIIIIIIIIIIIIIIIIIAA1IIIIIIIIIIAAII
IIIIIIA1IIIIIIIIIIIIIIIIIIAA1IIIIIIIIIIIIIIIIIIAA1IIIIIIIIIIAAII
IIIIIIAA1IIIIIIIIIIIIIIIIIAA1IIIIIIIIIIIIIIIIIIAA1IIIIIIIIIIAAII
IIIIIIAA1IIIIIIIIIIIIIIIIIAA1IIIIIIIIIIIIIIIIIIAA1IIIIA1IIIIAAII
IIIIIIAA1IIIIIIIIIIIIIIIIIAAA1IIIIIIIIIIIIIIIIIAA1IIIIA1IIIIAAII
IIIIIIAA1IIIIIIIIIIIIIIIIIAAA1IIIIIIIIIIAIIIIIIAA1IIIIA1IIIIAAII
IIIIIIAA1IIIIIIIIIIIIIIIIIAAA1IIIIIIIIIIAIAIIIIAA1IIIIA1IIIIAAII
IIIIIIAA1IIIIIIIIIIIIIIIIIAAA1IIIIIIIIIIAIAIIIIAA1IIIIA1IIIIAAAI
IIIIIIAA1IIIIIIIIIIIIIIIIIAAA1IIIIIIIIIIAIAIIIIAA1IIIIA1IIIIAAAA
IIIIIIAA1IIIIIIIIIIIIIIIIIAAA1IIIIIIIIIIAIAAIIIAA1IIIIA1IIIIAAAA
IIIIIIAA1IIIIAIIIIIIIIIIIIAAA1IIIIIIIIIIAIAAIIIAA1IIIIA1IIIIAAAA
IIIIIIAA1IIIIAIIIIIIIIIIIAAAA1IIIIIIIIIIAIAAIIIAA1IIIIA1IIIIAAAA
IIIIIIAA1IIIIAIIIIIIIIIIIAAAA1IIIIIIIIIIAIAA12IAA1IIIIA1IIIIAAAA
IIIIIIAA1IIIIA12IIIIIIIIIAAAA1IIIIIIIIIIAIAA12IAA1IIIIA1IIIIAAAA
IIIIIIAA1IIIIA12IIIIIIIIIAAAA1IIIIIIIIIIAIAA12IAA1IIIIA12IIIAAAA
IIIIIIAA12IIIA12IIIIIIIIIAAAA1IIIIIIIIIIAIAA12IAA1IIIIA12IIIAAAA
A12IIIAA12IIIA12IIIIIIIIIAAAA1IIIIIIIIIIAIAA12IAA1IIIIA12IIIAAAA
A12IIIAA12IIIA12IIIIIA12IAAAA1IIIIIIIIIIAIAA12IAA1IIIIA12IIIAAAA
A12IIIAA12IIIA12IA12IA12IAAAA1IIIIIIIIIIAIAA12IAA1IIIIA12IIIAAAA
A12IIIAA12IIIA12IA12IA12IAAAA1IIIIIIIIIIAIAA12IAA12IIIA12IIIAAAA
A12IIIAA12IIIA12IA12IA12IAAAA12IIIIIIIIIAIAA12IAA12IIIA12IIIAAAA
A12IIIAA12II2A12IA12IA12IAAAA12IIIIIIIIIAIAA12IAA12IIIA12IIIAAAA
A12IIIAA12II2A12IA12IA12IAAAA12I2IIIIIIIAIAA12IAA12IIIA12IIIAAAA
A12IIIAA12II2A12IA12IA12IAAAA12I22IIIIIIAIAA12IAA12IIIA12IIIAAAA
A12IIIAA112I2A12IA12IA12IAAAA12I22IIIIIIAIAA12IAA12IIIA12IIIAAAA
A12IIIAA112I2A12IA12IA12IAAAA11222IIIIIIAIAA12IAA12IIIA12IIIAAAA
A12IIIAA112I2A12IA12IA12IAAAA11222IIIIIIAIAA12IAA112IIA12IIIAAAA
A12IIIAA112I2A12IA12IA12IAAAA11222IIIIIIAIAA12IAA112IIA112IIAAAA
A12IIIAA112I2A12IA12IA12IAAAA11222IIIIIAA1AA12IAA112IIA112IIAAAA
A12IIIAA112IAA12IA12IA12IAAAA11222IIIIIAA1AA12IAA112IIA112IIAAAA
A1AI12AA112IAA12IA12IA12IAAAA11222IIIIIAA1AA12IAA112IIA112IIAAAA
A1A112AA112IAA12IA12IA12IAAAA11222IIIIIAA1AA12IAA112IIA112IIAAAA
A1A112AA112IAA12IA12IA12IAAAA11222IIIIIAA1AA122AA112IIA112IIAAAA
A1A112AA112IAA12IA12IA122AAAA11222IIIIIAA1AA122AA112IIA112IIAAAA
A1A112AA112IAA12IA12IA122AAAA11222IIIIIAA1AA122AA112I2A112IIAAAA
A1A112AA112IAA12IA12IA122AAAA112222IIIIAA1AA122AA112I2A112IIAAAA
A1A112AA112IAA12IA12IA122AAAA1122222IIIAA1AA122AA112I2A112IIAAAA
A1A112AA112IAA12IA12IA122AAAA11222222IIAA1AA122AA112I2A112IIAAAA
A1A112AA112IAA12IA12AA122AAAA11222222IIAA1AA122AA112I2A112IIAAAA
A1A112AA112IAA12IA12AA122AAAA11222222IIAA1AA122AA112I2AA12IIAAAA
AAA112AA112IAA12IA12AA122AAAA11222222IIAA1AA122AA112I2AA12IIAAAA
AAA112AA112IAA121A12AA122AAAA11222222IIAA1AA122AA112I2AA12IIAAAA
AAA112AA112IAA121A12AA122AAAA11222222IIAA1AA122AA111I2AA12IIAAAA
AAAA12AA112IAA121A12AA122AAAA11222222IIAA1AA122AA111I2AA12IIAAAA
AAAA12AA112IAA111A11AA122AAAA11222222IIAA1AA122AA111I2AA12IIAAAA
AAAA12AA112IAA111A11AA121AAAA11222222IIAA1AA122AA111I2AA12IIAAAA
AAAA12AA112IAA111A11AA111AAAA11222222IIAA1AA122AA111I2AA12IIAAAA
AAAA11AA112IAA111A11AA111AAAA11222222IIAA1AA122AA111I2AA12IIAAAA
AAAA11AA112IAA111A11AA111AAAA11222222IIAA1AA112AA111I2AA12IIAAAA
AAAA11AA112IAA111A11AA111AAAA112222222IAA1AA112AA111I2AA12IIAAAA
AAAA11AA112IAA111A11AA111AAAA112222222IAA1AA112AA111I2AA12I2AAAA
AAAA11AA112IAA111A11AA111AAAA112222222IAA1AA112AA111I2AA1222AAAA
AAAA11AA112IAA111A11AA111AAAA1122222222AA1AA112AA111I2AA1222AAAA
AAAA11AA112IAA111A11AA111AAAA1122222222AA1AA112AA11122AA1222AAAA
IIIIIIA11222IIIIIIIIIIIIIIIIIIIIIIIIIIIIIIIIIIIIIIIIIIIIIIIIIIII
IIIIIIA11222IIIIIIIIIIIIIIA1122IIIIIIIIIIIIIIIIIIIIIIIIIIIIIIIII
IIIIIIA11222IIIIIIIIIIIIIIAA122IIIIIIIIIIIIIIIIIIIIIIIIIIIIIIIII
IIIIIIAA11222IIIIIIIIIIIIIAA122IIIIIIIIIIIIIIIIIIIIIIIIIIIIIIIII
IIIIIIAA11222IIIIIIIIIIIIIAA122IIIIIIIIIIIIIIIIIIIIIIIA11222IIII
IIIIIIAA11222IIIIIIIIIIIIIAA1222IIIIIIIIIIIIIIIIIIIIIIA11222IIII
IIIIIIAA11222IIIIIIIIIIIIIAA11222IIIIIIIIIIIIIIIIIIIIIA11222IIII
IIIIIIAA11222IIIIIIIIIIIIIAA11222IIIIIIIIIA11222IIIIIIA11222IIII
IIIIIIAA11222IIIIIIIIIIIIIAA11222IIIIIIIIIA11222IIIIIIA11222IIA1
IIIIIIAA11222IIIIIIIIIIIIIAA11222IIIIIIIIIA11222IIIIIIA11222IIAA
IIIIIIAA11222IIIIIIIIIIIIIAA11222IIIIIIIIIAA11222IIIIIA11222IIAA
IIIIIIAA11222A11222IIIIIIIAA11222IIIIIIIIIAA11222IIIIIA11222IIAA
IIIIIIAA11222A11222IIIIIIAAA11222IIIIIIIIIAA11222IIIIIA11222IIAA
IIIIIIAA11222A11222IIIIIIAAA11222IIIIIIIIIAA112A2IIIIIA11222IIAA
IIIIIIAA11222A11222IIIIIIAAA11222IIIIIIIIIAA112AAIIIIIA11222IIAA
AIIIIIAA11222A11222IIIIIIAAA11222IIIIIIIIIAA112AAIIIIIA11222IIAA
AIIIIIAA11222A11222IIAIIIAAA11222IIIIIIIIIAA112AAIIIIIA11222IIAA
AIIIIIAA11222A112A12IAIIIAAA11222IIIIIIIIIAA112AAIIIIIA11222IIAA
AIIIIIAA11222A112A12IAIIIAAA11222IIIIIIIIIAA112AAIIIIIA11222A1AA
AIIIIIAA11222A112A12IAIIIAAA11222IIIIIIIIIAA112AA2IIIIA11222A1AA
AIIIIIAA11222A112A12IAIIIAAA11222IIIIIIIIIAA112AA12IIIA11222A1AA
AIIIIIAA11222A112A12IAIIIAAA11222IIIIIIA12AA112AA12IIIA11222A1AA
AIIIIIAA11222A112A12IAIIIAAA11222IIIIIIAA1AA112AA12IIIA11222A1AA
AIIIIIAA1122AA112A12IAIIIAAA11222IIIIIIAA1AA112AA12IIIA11222A1AA
AIA12IAA1122AA112A12IAIIIAAA11222IIIIIIAA1AA112AA12IIIA11222A1AA
AIA12IAA1122AA112A12IAIIIAAAA1222IIIIIIAA1AA112AA12IIIA11222A1AA
A1A12IAA1122AA112A12IAIIIAAAA1222IIIIIIAA1AA112AA12IIIA11222A1AA
A1A12IAA1122AA112A12IA12IAAAA1222IIIIIIAA1AA112AA12IIIA11222A1AA
A1A12IAA1122AA112A12IA12IAAAA12222IIIIIAA1AA112AA12IIIA11222A1AA
A1A12IAA1122AA112A12IA12IAAAA12222IIIIIAA1AA112AA12II2A11222A1AA
A1A12IAA1122AA112A12IA12IAAAA122222IIIIAA1AA112AA12II2A11222A1AA
A1A12IAA1122AA112A122A12IAAAA122222IIIIAA1AA112AA12II2A11222A1AA
A1A12IAA1122AA112A122A12IAAAA122222IIIIAA1AA112AA12II2A11222AAAA
A1A12IAA1122AA112A122A12IAAAA1222222IIIAA1AA112AA12II2A11222AAAA
A1A12IAA1122AA112A12AA12IAAAA1222222IIIAA1AA112AA12II2A11222AAAA
A1A12IAA1122AA112A12AA12IAAAA1222222IIIAA1AA112AA12II2AA1222AAAA
A1AA2IAA1122AA112A12AA12IAAAA1222222IIIAA1AA112AA12II2AA1222AAAA
IIIIIIA2IIIIIIIIIIIIIIIIIIIIIIIIIIIIIIIIIIIIIIIIIIIIIIIIIIIIIIII
IIIIIIA2IIIIIIIIIIIIIIIIIIA2IIIIIIIIIIIIIIIIIIIIIIIIIIIIIIIIIIII
IIIIIIA2IIIIIIIIIIIIIIIIIIAA2IIIIIIIIIIIIIIIIIIIIIIIIIIIIIIIIIII
IIIIIIAA2IIIIIIIIIIIIIIIIIAA2IIIIIIIIIIIIIIIIIIIIIIIIIIIIIIIIIII
IIIIIIAA2IIIIIIIIA2IIIIIIIAA2IIIIIIIIIIIIIIIIIIIIIIIIIIIIIIIIIII
IIIIIIAA2IIIIIIIIA2IIIIIIIAA1IIIIIIIIIIIIIIIIIIIIIIIIIIIIIIIIIII
IIIIIIAA1IIIIIIIIA2IIIIIIIAA1IIIIIIIIIIIIIIIIIIIIIIIIIIIIIIIIIII
IIIIIIA11IIIIIIIIIIIIIIIIIIIIIIIIIIIIIIIIIIIIIIIIIIIIIIIIIIIIIII
IIIIIIA11IIIIIIIIIIIIIIIIIA1IIIIIIIIIIIIIIIIIIIIIIIIIIIIIIIIIIII
IIIIIIA11IIIIIIIIIIIIIIIIIAAIIIIIIIIIIIIIIIIIIIIIIIIIIIIIIIIIIII
IIIIIIAA11111I1IIIIIIIIIIIAAIIIIIIIIIIIIIIIIIIIIIIIIIIIIIIIIIIII
IIIIIIAA11111I1IIA11111I1IAAIIIIIIIIIIIIIIIIIIIIIIIIIIIIIIIIIIII
IIIIIIAA1111111IIA11111I1IAAIIIIIIIIIIIIIIIIIIIIIIIIIIIIIIIIIIII
IIIIIIAA1111111IIA11111I1IAA1111I1IIIIIIIIIIIIIIIIIIIIIIIIIIIIII
IIIIIIAA1111111IIA11111I1IAA1111111IIIIIIIIIIIIIIIIIIIIIIIIIIIII
IIIIIIAA1111111IIA11111I1IAA1111111IIIIIIIIIIIIAIIIIIIIIIIIIIIII
IIIIIIAA1111111IIA11111I1IAA1111111IIIIIIIIIIIIAAIIIIIIIIIIIIIII
IIIIIIAA1111111IIA11111I1IAA1111111IIIIIIIAIIIIAAIIIIIIIIIIIIIII
IIIIIIAA1111111IIA11111I1IAA1111111IIIIIIIAIIIIAAIIIIIIIIIIIIIAI
IIIIIIAA1111111IIA11111I1IAA1111111IIIIIIIAIIIIAAIIIIIIIIIIIIIAA
IIIIIIAA1111111IIA11111I1IAA1111111IIIIIIIAAIIIAAIIIIIIIIIIIIIAA
IIIIIIAA11111A1IIA11111I1IAA1111111IIIIIIIAAIIIAAIIIIIIIIIIIIIAA
AIIIIIAA11111A1IIA11111I1IAA1111111IIIIIIIAAIIIAAIIIIIIIIIIIIIAA
AIIIIIAA11111A1IIA111A1I1IAA1111111IIIIIIIAAIIIAAIIIIIIIIIIIIIAA
AIIIIIAA11111A1IIA111A1I1IAA1111111IIIIIIIAAIIIAA2IIIIIIIIIIIIAA
AIIIIIAA11111A1IIA111A1I1IAA1111111IIIIIIIAAIIIAA12IIIIIIIIIIIAA
AIIIIIAA11111A1IIA111A1I1IAA1111111IIIIIIIAAIIIAA12IIIA12IIIIIAA
AIIIIIAA11111A1IIA111A1I1IAA1111111IIIIIIIAA2IIAA12IIIA12IIIIIAA
AIIIIIAA11111A1IIA111A1I1IAA1111111IIIIIIIAA12IAA12IIIA12IIIIIAA
AIIIIIAA11111A12IA111A1I1IAA1111111IIIIIIIAA12IAA12IIIA12IIIIIAA
A12IIIAA11111A12IA111A1I1IAA1111111IIIIIIIAA12IAA12IIIA12IIIIIAA
A12IIIAA11111A12IA111A121IAA1111111IIIIIIIAA12IAA12IIIA12IIIIIAA
A12IIIAA11111A12IA111A121IAA1111111IIIIIIIAA12IAA12II2A12IIIIIAA
A12IIIAA11111A12IA111A121IAA1111111IIIIIIIAA12IAA12II2A12III2IAA
A12IIIAA11111A12IA111A121IAA1111111IIIIIIIAA12IAA12II2A12IIIA1AA
A12IIIAA11111A12IA111A121IAAA111111IIIIIIIAA12IAA12II2A12IIIA1AA
A12IIIAA11111A12IA111A121IAAA111111IIIIIA1AA12IAA12II2A12IIIA1AA
A12IIIAA11111A12IA111A121IAAA111111IIIIIA1AA12IAA12II2A12IIIAAAA
A12IIIAA11111A12IA111A121AAAA111111IIIIIA1AA12IAA12II2A12IIIAAAA
A12IIIAA11111A12IA111A121AAAA1111112IIIIA1AA12IAA12II2A12IIIAAAA
A122I2AA11111A12IA111A121AAAA1111112IIIIA1AA12IAA12II2A12IIIAAAA
A122I2AA11111A122A111A121AAAA1111112IIIIA1AA12IAA12II2A12IIIAAAA
A122I2AA11111A122A111A121AAAA1111112IIIIA1AA122AA12II2A12IIIAAAA
A122I2AA11111A122A11AA121AAAA1111112IIIIA1AA122AA12II2A12IIIAAAA
A122I2AA11111A122A11AA121AAAA1111112IIIIA1AA122AA12II2AA1222AAAA
A12A12AA11111A122A11AA121AAAA1111112IIIIA1AA122AA12II2AA1222AAAA
A12A12AA11111A122A11AA121AAAA1111112IIIIA1AA122AA122I2AA1222AAAA
A12A12AA11111A122A11AA121AAAA1111112IA2IA1AA122AA122I2AA1222AAAA
A12A12AA11111A122A11AA121AAAA1111112IA12A1AA122AA122I2AA1222AAAA
IIIIIIA11222IIIIIIIIIIIIIIIIIIIIIIIIIIIIIIIIIIIIIIIIIIIIIIIIIIII
IIIIIIA11222IIIIIIIIIIIIIIA11222IIIIIIIIIIIIIIIIIIIIIIIIIIIIIIII
IIIIIIA11222IIIIIIIIIIIIIIAA11222IIIIIIIIIIIIIIIIIIIIIIIIIIIIIII
IIIIIIAA11222IIIIIIIIIIIIIAA11222IIIIIIIIIIIIIIIIIIIIIIIIIIIIIII
IIIIIIAA11222IIIIIIIIIIIIIAA11222IIIIIIIIIIIIIIIIIIIIIA11222IIII
IIIIIIAA11222IIIIIIIIIIIIIAA11222IIIIIIIIIAIIIIIIIIIIIA11222IIII
IIIIIIAA11222IIIIIIIIIIIIIAA11222IIIIIIIIIAIIIIIIIIIIIA11222IIAI
IIIIIIAA11222IIIIIIIIIIIIIAA11222IIIIIIIIIAIIIIIIIIIIIA11222IIAA
IIIIIIAA11222IIIIIIIIIIIIIAA11222IIIIIIIIIAAIIIIIIIIIIA11222IIAA
IIIIIIAA11222AIIIIIIIIIIIIAA11222IIIIIIIIIAAIIIIIIIIIIA11222IIAA
IIIIIIAA11222AIIIIIIIIIIIIAA11222IIIIIIIIIAAIIIAIIIIIIA11222IIAA
IIIIIIAA11222AIIIIIIIIIIIIAAA1222IIIIIIIIIAAIIIAIIIIIIA11222IIAA
IIIIIIAA11222AIIIIIIIIIIIIAAA1222IIIIIIIAIAAIIIAIIIIIIA11222IIAA
IIIIIIAA11222AIIIIIIIIIIIIAAA1222IIIIIIIAIAAIIIAAIIIIIA11222IIAA
IIIIIIAA11222AIIIIIIIIIIIAAAA1222IIIIIIIAIAAIIIAAIIIIIA11222IIAA
IIIIIIAA11222AIIIIIIIIIIIAAAA1222IIIIIIIAIAAIIIAA2IIIIA11222IIAA
IIIIIIAA11222AIIIIIIIIIIIAAAA1222IIIIIIIAIAAIIIAA12IIIA11222IIAA
A12IIIAA11222AIIIIIIIIIIIAAAA1222IIIIIIIAIAAIIIAA12IIIA11222IIAA
A12IIIAA11222AIIIIIIIA12IAAAA1222IIIIIIIAIAAIIIAA12IIIA11222IIAA
A12IIIAA11222AIIIIIIIA12IAAAA1222IIIIIIIAIAAIIIAA12IIIA11222A1AA
A12IIIAA11222AIIIIIIIA12IAAAA12222IIIIIIAIAAIIIAA12IIIA11222A1AA
A12IIIAA11222AIIIAIIIA12IAAAA12222IIIIIIAIAAIIIAA12IIIA11222A1AA
A12IIIAA11222AIIIAIIIA12IAAAA122A2IIII2IAIAAIIIAA12IIIA11222A1AA
A12IIIAA11222AIIIA1IIA12IAAAA122A2IIII2IAIAAIIIAA12IIIA11222A1AA
A12IIIAA11222AIIIA1IIA12IAAAA122A2IIII2IAIAAIIIAA122IIA11222A1AA
A122IIAA11222AIIIA1IIA12IAAAA122A2IIII2IAIAAIIIAA122IIA11222A1AA
A122IIAA11222AIIIA1IIA122AAAA122A2IIII2IAIAAIIIAA122IIA11222A1AA
A122IIAA11222AIIIA122A122AAAA122A2IIII2IAIAAIIIAA122IIA11222A1AA
A122IIAA11222AIIIA122A122AAAA122A2IIII2IAIAA2IIAA122IIA11222A1AA
A122IIAA11222AIIIA122A122AAAA122A2IIII2IAIAA12IAA122IIA11222A1AA
A122IIAA11222AIIIA122A122AAAA122A2IIII2IAIAA12IAA122IIA11222AAAA
A122IIAA11222A12IA122A122AAAA122A2IIII2IAIAA12IAA122IIA11222AAAA
A122IIAA11222A12IA12AA122AAAA122A2IIII2IAIAA12IAA122IIA11222AAAA
A122IIAA11222A12IA12AA122AAAA122A2IIII2IAIAA12IAA122IIAA1222AAAA
A12AIIAA11222A12IA12AA122AAAA122A2IIII2IAIAA12IAA122IIAA1222AAAA
A12AIIAA11222A12IA12AA122AAAA122A2IIII2AAIAA12IAA122IIAA1222AAAA
A12AIIAA1122AA12IA12AA122AAAA122A2IIII2AAIAA12IAA122IIAA1222AAAA
A1AA2IAA1122AA12IA12AA122AAAA122A2IIII2AAIAA12IAA122IIAA1222AAAA
A1AA2IAA1122AA12IA12AA122AAAA122A2IIII2AAIAA122AA122IIAA1222AAAA
A1AA2IAA1122AA12IA12AA122AAAA122A2IIII2AAIAA122AA122I2AA1222AAAA
A1AA2IAA1122AA12IA12AA122AAAA122A2IIII2AA1AA122AA122I2AA1222AAAA
A1AA2IAA1122AA12IA12AA122AAAA122A2IIIA1AA1AA122AA122I2AA1222AAAA
A1AA2AAA1122AA12IA12AA122AAAA122A2IIIA1AA1AA122AA122I2AA1222AAAA
A1AA2AAA1122AA12IA12AA122AAAA122A2IIIA1AA1AA122AA122A2AA1222AAAA
A1AA2AAA1122AA12IA12AA122AAAA122A2IIIA1AA1AA122AA122A1AA1222AAAA
A1AA2AAA1122AA12IA12AA122AAAA122A22IIA1AA1AA122AA122A1AA1222AAAA
A1AA2AAA1122AA12IA12AA122AAAA122A222IA1AA1AA122AA122A1AA1222AAAA
A1AA1AAA1122AA12IA12AA122AAAA122A222IA1AA1AA122AA122A1AA1222AAAA
IIIIIIA1111IIIIIIIIIIIIIIIIIIIIIIIIIIIIIIIIIIIIIIIIIIIIIIIIIIIII
IIIIIIA1111IIIIIIIIIIIIIIIA1111IIIIIIIIIIIIIIIIIIIIIIIIIIIIIIIII
IIIIIIA1111IIIIIIIIIIIIIIIAA1111IIIIIIIIIIIIIIIIIIIIIIIIIIIIIIII
IIIIIIAA1111IIIIIIIIIIIIIIAA1111IIIIIIIIIIIIIIIIIIIIIIIIIIIIIIII
AIIIIIAA1111IIIIIIIIIIIIIIAA1111IIIIIIIIIIIIIIIIIIIIIIIIIIIIIIII
AIIIIIAA1111IIIIIIIIIAIIIIAA1111IIIIIIIIIIIIIIIIIIIIIIIIIIIIIIII
AIIIIIAA1111IIIIIAIIIAIIIIAA1111IIIIIIIIIIIIIIIIIIIIIIIIIIIIIIII
AIIIIIAA1111IIIIIAIIIAIIIIAA1111IIIIIIIIIIIIIIIA12IIIIIIIIIIIIII
AIIIIIAA1111IIIIIAIIIAIIIIAA1111IIIIIIIIIIIIIIIAA12IIIIIIIIIIIII
AIIIIIAA1111IIIIIAIIIAIIIIAA1111IIIIIIIIIIIIIIIAA12IIIA12IIIIIII
AIIIIIAA1111IIIIIAIIIAIIIIAAA111IIIIIIIIIIIIIIIAA12IIIA12IIIIIII
AIIIIIAA1111IIIIIAIIIAIIIIAAA111IIIIIIIIA12IIIIAA12IIIA12IIIIIII
AIIIIIAA1111IIIIIAIIIAIIIAAAA111IIIIIIIIA12IIIIAA12IIIA12IIIIIII
AIIIIIAA1111IIIIIAIIIAIIIAAAA111IIIIIIIIA1AIIIIAA12IIIA12IIIIIII
AIIIIIAA1111IIIIIAIIIAIIIAAAA111IIIIIIIIA1AIIIIAA12IIIA12IIIIIAI
AIIIIIAA1111IIIIIAIIIAIIIAAAA111IIIIIIIIA1AIIIIAA12IIIA12IIIIIAA
AIIIIIAA1111IIIIIAIIIAIIIAAAA111IIIIIIIIA1AAIIIAA12IIIA12IIIIIAA
AIIIIIAA1111IAIIIAIIIAIIIAAAA111IIIIIIIIA1AAIIIAA12IIIA12IIIIIAA
AIIIIIAA1111IAIIIAIIIAIIIAAAA111IIIIIIIIA1AA2IIAA12IIIA12IIIIIAA
AIIIIIAA1111IAIIIAIIIAIIIAAAA111IIIIIIIIA1AA12IAA12IIIA12IIIIIAA
AIIIIIAA1111IA12IAIIIAIIIAAAA111IIIIIIIIA1AA12IAA12IIIA12IIIIIAA
AIIIIIAA1111IA12IAIIIAIIIAAAA111IIIIIIIIA1AA12IAA12IIIA12IIIA1AA
AIIIIIAA1111IA12IAIIIAIIIAAAA111IIIIIIIIA1AA12IAA12IIIA12IIIAAAA
A12IIIAA1111IA12IAIIIAIIIAAAA111IIIIIIIIA1AA12IAA12IIIA12IIIAAAA
A12IIIAA1111IA12IAIIIA12IAAAA111IIIIIIIIA1AA12IAA12IIIA12IIIAAAA
A12IIIAA11112A12IAIIIA12IAAAA111IIIIIIIIA1AA12IAA12IIIA12IIIAAAA
A12IIIAA11112A12IAIIIA12IAAAA1112IIIIIIIA1AA12IAA12IIIA12IIIAAAA
A12IIIAA11112A12IAIIIA12IAAAA11122IIIIIIA1AA12IAA12IIIA12IIIAAAA
A12IIIAA11112A12IAIIIA12IAAAA11122IIIIIIA1AA12IAA12II2A12IIIAAAA
A12IIIAA11112A12IAI2IA12IAAAA11122IIIIIIA1AA12IAA12II2A12IIIAAAA
A12IIIAA11112A12IAI2IA12IAAAA11122IIII22A1AA12IAA12II2A12IIIAAAA
A12I22AA11112A12IAI2IA12IAAAA11122IIII22A1AA12IAA12II2A12IIIAAAA
A12I22AA11112A12IAI2IA122AAAA11122IIII22A1AA12IAA12II2A12IIIAAAA
A12I22AA11112A12IAI2IA122AAAA11122IIII22A1AA12IAA12II2A12I22AAAA
A12I22AA11112A12IA12IA122AAAA11122IIII22A1AA12IAA12II2A12I22AAAA
A12I22AA11112A12IA12IA122AAAA111222III22A1AA12IAA12II2A12I22AAAA
A12I22AA11112A12IA12IA122AAAA1112222II22A1AA12IAA12II2A12I22AAAA
A12I22AA11112A12IA12IA122AAAA1112222II22A1AA12IAA122I2A12I22AAAA
A12I22AA11112A12IA12IA122AAAA1112222II2AA1AA12IAA122I2A12I22AAAA
A12I22AA1111AA12IA122A122AAAA1112222II2AA1AA12IAA122I2A12I22AAAA
A1A122AA1111AA12IA122A122AAAA1112222II2AA1AA12IAA122I2A12I22AAAA
A1A122AA1111AA12IA122A122AAAA11122222I2AA1AA12IAA122I2A12I22AAAA
A1A122AA1111AA12IA112A122AAAA11122222I2AA1AA12IAA122I2A12I22AAAA
A1A122AA1111AA12IA112A122AAAA11122222I2AA1AA12IAA112I2A12I22AAAA
A1A122AA1111AA12IA112A122AAAA11122222I2AA1AA12IAA112I2A11I22AAAA
A1A122AA1111AA12IA11AA122AAAA11122222I2AA1AA12IAA112I2A11I22AAAA
A1A122AA1111AA12IA11AA122AAAA11122222I2AA1AA12IAA112I2AA1222AAAA
A1AA12AA1111AA12IA11AA122AAAA11122222I2AA1AA12IAA112I2AA1222AAAA
A1AA11AA1111AA12IA11AA122AAAA11122222I2AA1AA12IAA112I2AA1222AAAA
A1AA11AA1111AA12IA11AA111AAAA11122222I2AA1AA12IAA112I2AA1222AAAA
A1AA11AA1111AA11IA11AA111AAAA11122222I2AA1AA12IAA112I2AA1222AAAA
A1AA11AA1111AA11IA11AA111AAAA11111112I2AA1AA12IAA112I2AA1222AAAA
A1AA11AA1111AA11IA11AA111AAAA11111111I2AA1AA12IAA112I2AA1222AAAA
A1AA11AA1111AA111A11AA111AAAA11111111I2AA1AA12IAA112I2AA1222AAAA
A1AA11AA1111AA111A11AA111AAAA11111111I2AA1AA12IAA112I2AA1111AAAA
A1AA11AA1111AA111A11AA111AAAA11111111I2AA1AA12IAA11111AA1111AAAA
A1AA11AA1111AA111A11AA111AAAA11111111I2AA1AA111AA11111AA1111AAAA
IIIIIIIIIIIIIIIIIIIIIIIIIIIIIIIIIIIIIIIIIIAIIIIIIIIIIIIIIIIIIIII
IIIIIIA12IIIIIIIIIIIIIIIIIIIIIIIIIIIIIIIIIAIIIIIIIIIIIIIIIIIIIII
IIIIIIA12IIIIIIIIIIIIIIIIIA12IIIIIIIIIIIIIAIIIIIIIIIIIIIIIIIIIII
IIIIIIA12IIIIIIIIIIIIIIIIIAA12IIIIIIIIIIIIAIIIIIIIIIIIIIIIIIIIII
IIIIIIAA12IIIIIIIIIIIIIIIIAA12IIIIIIIIIIIIAIIIIIIIIIIIIIIIIIIIII
IIIIIIAA12IIIIIIIIIIIIIIIIAA12IIIIIIIIIIIIAIIIIIIIIIIIIIIIIIA12I
IIIIIIAA12IIIIIIIA12IIIIIIAA12IIIIIIIIIIIIAIIIIIIIIIIIIIIIIIA12I
IIIIIIAA12IIIIIIIA12IIIIIIAA12IIIIIIIIIIIIA12IIIIIIIIIIIIIIIA12I
IIIIIIAA12IIIIIIIA12IIIIIIAA12IIIIIIIIIIIIA12IIAIIIIIIIIIIIIA12I
IIIIIIAA12IIIIIIIA12IIIIIIAA12IIIIIIIIIIIIA12IIAAIIIIIIIIIIIA12I
IIIIIIAA12IIIIIIIA12IIIIIIAA12IIIIIIIIIIIIA12IIAAIIIIIIIIIIIA1AI
IIIIIIAA12IIIIIIIA12IIIIIIAA12IIIIIIIIIIIIA12IIAAIIIIIIIIIIIA1AA
IIIIIIAA12IIIIIIIA12IIIIIIAA12IIIIIIIIIIIIAA12IAAIIIIIIIIIIIA1AA
IIIIIIAA12IIIA12IA12IIIIIIAA12IIIIIIIIIIIIAA12IAAIIIIIIIIIIIA1AA
A12IIIAA12IIIA12IA12IIIIIIAA12IIIIIIIIIIIIAA12IAAIIIIIIIIIIIA1AA
A12IIIAA12IIIA12IA12IA12IIAA12IIIIIIIIIIIIAA12IAAIIIIIIIIIIIA1AA
A12IIIAA12IIIA12IA12IA12IIAA12IIIIIIIIIIIIAA12IAAIIIIIA12IIIA1AA
A12IIIAA12IIIA12IA12IA12IIAA12IIIIIIIIIIIIAA12IAA2IIIIA12IIIA1AA
A12IIIAA12IIIA12IA12IA12IIAAA12IIIIIIIIIIIAA12IAA2IIIIA12IIIA1AA
A12IIIAA12IIIA12IA12IA12IIAAA12IIIIIIIIIA1AA12IAA2IIIIA12IIIA1AA
A12IIIAA12IIIA12IA12IA12IIAAA12IIIIIIIIIA1AA12IAA12IIIA12IIIA1AA
A12IIIAA12IIIA12IA12IA12IAAAA12IIIIIIIIIA1AA12IAA12IIIA12IIIA1AA
A12IIIAA12IIIA12IA12IA12IAAAA12II2IIIIIIA1AA12IAA12IIIA12IIIA1AA
A12IIIAA12IIIA12IA12IA12IAAAA12II22IIIIIA1AA12IAA12IIIA12IIIA1AA
A12IIIAA12IIIA12IA12IA12IAAAA12II222IIIIA1AA12IAA12IIIA12IIIA1AA
A12IIIAA12IIIA12IA12IA12IAAAA12II222IIIIA1AA12IAA122IIA12IIIA1AA
A12IIIAA12IIIA12IA12IA12IAAAA12II2222IIIA1AA12IAA122IIA12IIIA1AA
A12IIIAA111I1A121A122A12IAAAA12II2222IIIA1AA12IAA122IIA12IIIA1AA
A12IIIAA11111A111A122A122AAAA12II2222IIIA1AA12IAA122IIA12IIIA1AA
A12IIIAA11111A111A122A122AAAA11I1112112IA1AA12IAA122IIA12IIIA1AA
A12IIIAA11111A111A122A122AAAA11111111112A1AA12IAA122IIA12IIIA1AA
A12IIIAA11111A111A122A122AAAA11111111112A1AA111AA11211A122IIA1AA
A12IIIAA11111A111A121A111AAAA11111111112A1AA111AA11211A122IIA1AA
A12IIIAA11111A111A121A111AAAA11111111112A1AA111AA11211A122IIAAAA
A12IIIAA11111A111A12AA111AAAA11111111112A1AA111AA11211A122IIAAAA
A12IIIAA11111A111A12AA111AAAA11111111112A1AA111AA11211AA22IIAAAA
A12A2IAA11111A111A12AA111AAAA11111111112A1AA111AA11211AA22IIAAAA
A12A2IAA11111A111A12AA111AAAA1111111111AA1AA111AA11211AA22IIAAAA
A12A2IAA1111AA111A12AA111AAAA1111111111AA1AA111AA11211AA22IIAAAA
A1AA2IAA1111AA111A12AA111AAAA1111111111AA1AA111AA11211AA22IIAAAA
A1AA2IAA1111AA111A12AA111AAAA1111111111AA1AA111AA11211AA1212AAAA
A1AA2IAA1111AA111A12AA111AAAA1111111111AA1AA111AA11111AA1212AAAA
A1AA2IAA1111AA111A12AA111AAAA11111111A1AA1AA111AA11111AA1212AAAA
A1AA2AAA1111AA111A12AA111AAAA11111111A1AA1AA111AA11111AA1212AAAA
A1AA2AAA1111AA111A12AA111AAAA111A1111A1AA1AA111AA11111AA1212AAAA
IIIIIIA12IIIIIIIIIIIIIIIIIIIIIIIIIIIIIIIIIIIIIIIIIIIIIIIIIIIIIII
IIIIIIA12IIIIIIIIIIIIIIIIIA12IIIIIIIIIIIIIIIIIIIIIIIIIIIIIIIIIII
IIIIIIA12IIIIIIIIIIIIIIIIIAA12IIIIIIIIIIIIIIIIIIIIIIIIIIIIIIIIII
IIIIIIAA12IIIIIIIIIIIIIIIIAA12IIIIIIIIIIIIIIIIIIIIIIIIIIIIIIIIII
IIIIIIAA12IIIIIIIIIIIIIIIIAA12IIIIIIIIIIIIA12IIIIIIIIIIIIIIIIIII
IIIIIIAA12IIIIIIIA12IIIIIIAA12IIIIIIIIIIIIA12IIIIIIIIIIIIIIIIIII
IIIIIIAA12IIIIIIIA12IIIIIIAA12IIIIIIIIIIIIA12IIAIIIIIIIIIIIIIIII
IIIIIIAA12IIIIIIIA12IIIIIIAA12IIIIIIIIIIIIA12IIAAIIIIIIIIIIIIIII
IIIIIIAA12IIIIIIIA12AIIIIIAA12IIIIIIIIIIIIA12IIAAIIIIIIIIIIIIIII
IIIIIIAA12IIIIIIIA12AIIIIIAA12IIIIIIIIIIIIA12IIAAIIIIIIAIIIIIIII
IIIAIIAA12IIIIIIIA12AIIIIIAA12IIIIIIIIIIIIA12IIAAIIIIIIAIIIIIIII
IIIAIIAA12IIIIIIIA12AIIIIIAA12IIIIIIIAIIIIA12IIAAIIIIIIAIIIIIIII
IIIAIAAA12IIIIIIIA12AIIIIIAA12IIIIIIIAIIIIA12IIAAIIIIIIAIIIIIIII
IIIAIAAA12IIIIIIIA12AIIIIIAA12IIIIIIIAIIIIA12IIAAIIIIIIAIIIIIIAI
IIIAIAAA12IIIIIIIA12AIIIIIAA12IIIIIIIAIIIIA12IIAAIIIIIIAIIIIIIAA
IIIAIAAA12IIIIIIIA12AIIIIIAA12IIIIIIIAIIIIAA2IIAAIIIIIIAIIIIIIAA
IIIAIAAA12IIIAIIIA12AIIIIIAA12IIIIIIIAIIIIAA2IIAAIIIIIIAIIIIIIAA
A12AIAAA12IIIAIIIA12AIIIIIAA12IIIIIIIAIIIIAA2IIAAIIIIIIAIIIIIIAA
A12AIAAA12IIIAIIIA12AA12IIAA12IIIIIIIAIIIIAA2IIAAIIIIIIAIIIIIIAA
A12AIAAA12IIIAIIIA12AA12IIAA12IIIIIIIAIIIIAA2IIAA2IIIIIAIIIIIIAA
A12AIAAA12IIIAIIIA12AA12IIAA12IIIIIIIAIIIIAA2IIAA12IIIIAIIIIIIAA
A12AIAAA12IIIAIIIA12AA12IIAA12IIIIIIIAIIIIAA2IIAA12IIIIAIIIIAIAA
A12AIAAA12IIIAIIIA12AA12IIAA12IIIIIIIAIIIIAA2IIAA122IIIAIIIIAIAA
A12AIAAA12IIIAIIIA12AA12IIAA122IIIIIIAIIIIAA2IIAA122IIIAIIIIAIAA
A12AIAAA122IIAIIIA12AA12IIAA122IIIIIIAIIIIAA2IIAA122IIIAIIIIAIAA
A12AIAAA122IIAIIIA12AA12IIAA122IIIIIIAIIIIAA2IIAA122IIAA22IIAIAA
A12AIAAA122IIAIIIA12AA12IIAA122IIIIIIAIIIIAA22IAA122IIAA22IIAIAA
A12AIAAA122IIAIIIA12AA12IIAA122IIIIIIAIIIIAA122AA122IIAA22IIAIAA
A12AIAAA122IIA122A12AA12IIAA122IIIIIIAIIIIAA122AA122IIAA22IIAIAA
A12AIAAA122IIA122A12AA122IAA122IIIIIIAIIIIAA122AA122IIAA22IIAIAA
A12AIAAA122IIA122A12AA122IAA122IIIIIIAIAIIAA122AA122IIAA22IIAIAA
A12AIAAA122IIA122A12AA122IAA122IIIIIIAIAAIAA122AA122IIAA22IIAIAA
A12AIAAA122IAA122A12AA122IAA122IIIIIIAIAAIAA122AA122IIAA22IIAIAA
A1AAIAAA122IAA122A12AA122IAA122IIIIIIAIAAIAA122AA122IIAA22IIAIAA
A1AAIAAA122IAA122A12AA122IAA122IIIIIIAIAAIAA122AA122IIAA12IIAIAA
A1AA1AAA122IAA122A12AA122IAA122IIIIIIAIAAIAA122AA122IIAA12IIAIAA
22I2IIA112IIIIIIIIIIIIIIIIIIIIIIIIIIIIIIIIIIIIIIIIIIIIIIIIIIIIII
22I2IIA112IIIIIIIIII22I2IIA112IIIIIIIIIIIIIIIIIIIIIIIIIIIIIIIIII
22I2IIA112IIIIIIIIII22222IAA112IIIIIIIIIIIIIIIIIIIIIIIIIIIIIIIII
22222IAA112IIIIIIIII22222IAA112IIIIIIIIIIIIIIIIIIIIIIIIIIIIIIIII
22222IAA112IIIIIIIII22222IAA112IIIIIIIIIIIIIIIII22I2IIA112IIIIII
A1122IAA112IIIIIIIII22222IAA112IIIIIIIIIIIIIIIII22I2IIA112IIIIII
A1122IAA112IIII22I2I2A112IAA112IIIIIIIIIIIIIIIII22I2IIA112IIIIII
A1122IAA112IIII22I2I2A112IAA112IIIIIIIIIIIIIIIII22I2IIA112IIA112
A1122IAA112IIII22A2I2A112IAA112IIIIIIIIIIIIIIIII22I2IIA112IIA112
A1122IAA112IIII22A2I2A112IAA112IIIIIIIIIIIIIIIIA22I2IIA112IIA112
A1122IAA112IIII22A2I2A112IAA112IIIIIIIIIIIIIIIIAA2I2IIA112IIA112
A1122IAA112IIII22A2I2A112IAA112IIIIIIIIIIIIIIIIAA122IIA112IIA112
A1122IAA112IIII22A2I2A112IAA112IIIIIIIIIIIA12IIAA122IIA112IIA112
A1122IAA112IIII22A2I2A112IAA112IIIIIIIIIIIA12IIAA122IIA112IIA1A1
A1122IAA112IIII22A2I2A112IAA112IIIIIIIIIIIA12IIAA122IIA112IIA1AA
A1122IAA112IIII22A2I2A112IAA112IIIIIIIIIIIAA12IAA122IIA112IIA1AA
A1122IAA112IIA222A2I2A112IAA112IIIIIIIIIIIAA12IAA122IIA112IIA1AA
A1122IAA112IIA122A2I2A112IAA112IIIIIIIIIIIAA12IAA122IIA112IIA1AA
A1122IAA112IIA122A2I2A112IAAA12IIIIIIIIIIIAA12IAA122IIA112IIA1AA
A1122IAA112IIA122A2I2A112IAAA12IIIIIIIIIA1AA12IAA122IIA112IIA1AA
A1122IAA112IIA122A2I2A112IAAA12IIIIIIAIIA1AA12IAA122IIA112IIA1AA
A1122AAA112IIA122A2I2A112IAAA12IIIIIIAIIA1AA12IAA122IIA112IIA1AA
A1122AAA112IIA122A2I2A112AAAA12IIIIIIAIIA1AA12IAA122IIA112IIA1AA
A1122AAA112IIA122A2I2A112AAAA12III2IIAIIA1AA12IAA122IIA112IIA1AA
A1122AAA112IIA122A2I2A112AAAA12III22IAIIA1AA12IAA122IIA112IIA1AA
A1122AAA112IIA122A122A112AAAA12III22IAIIA1AA12IAA122IIA112IIA1AA
A1122AAA112IIA122A122A112AAAA12III222AIIA1AA12IAA122IIA112IIA1AA
A1122AAA112IIA122A122A112AAAA12III222AIIA1AA12IAA122IIA112IIAAAA
A1122AAA112IIA122A122A112AAAA12III222AIIA1AA122AA122IIA112IIAAAA
A1122AAA112IIA122A122A112AAAA12III222AIIA1AA112AA122IIA112IIAAAA
A1122AAA112IIA112A122A112AAAA12III222AIIA1AA112AA122IIA112IIAAAA
A1122AAA112IIA112A122A112AAAA12III222AIIA1AA112AA112IIA112IIAAAA
A1122AAA112IIA112A112A112AAAA12III222AIIA1AA112AA112IIA112IIAAAA
A1122AAA112IIA112A112A112AAAA12III222AIIA1AA112AA112I2A112IIAAAA
A1122AAA112I2A112A112A112AAAA12III222AIIA1AA112AA112I2A112IIAAAA
A1122AAA112I2A112A112A112AAAA12II2222AIIA1AA112AA112I2A112IIAAAA
A1122AAA112I2A112A112A112AAAA12I22222AIIA1AA112AA112I2A112IIAAAA
A1122AAA112I2A112A112A112AAAA12I22222A12A1AA112AA112I2A112IIAAAA
A1122AAA112I2A112A11AA112AAAA12I22222A12A1AA112AA112I2A112IIAAAA
A1122AAA112I2A112A11AA112AAAA12I22222A12A1AA112AA112I2AA12IIAAAA
A11A1AAA11222A112A11AA112AAAA12I22222A12A1AA112AA112I2AA12IIAAAA
A11A1AAA11222A112A11AA112AAAA12I22222A1AA1AA112AA112I2AA12IIAAAA
A11A1AAA1122AA112A11AA112AAAA12I22222A1AA1AA112AA112I2AA12IIAAAA
A1AA1AAA1122AA112A11AA112AAAA12I22222A1AA1AA112AA112I2AA12IIAAAA
A1AA1AAA1122AA112A11AA112AAAA12222222A1AA1AA112AA112I2AA12IIAAAA
IIIIIIIIIIIIIIIIIIIIIIIIIIIIIIIIIIIIIIIIIIII2IIAIIIIIIIIIIIIIIII
IIIIIIIIIIIIIIIIIIIIIIIIIIIIIIIIIIIIIIIIIIII22IAAIIIIIIIIIIIIIII
III2IIAIIIIIIIIIIIIIIIIIIIIIIIIIIIIIIIIIIIII22IAAIIIIIIIIIIIIIII
III2IIAIIIIIIIIIIIIIIIII2IIAIIIIIIIIIIIIIIII22IAAIIIIIIIIIIIIIII
III2IIAIIIIIIIIIIIIIIII22IAAIIIIIIIIIIIIIIII22IAAIIIIIIIIIIIIIII
III22IAAIIIIIIIIIIIIIII22IAAIIIIIIIIIIIIIIII22IAAIIIIIIIIIIIIIII
III22IAAIIIIIIIIIIIIIII22IAAIIIIIIIIIIIIIIII22IAAII2IIAIIIIIIIII
III22IAAIIIIIIIIIIIIIII222AAAIIIIIIIIIIIIIII22IAAII2IIAIIIIIIIII
III22IAAIIIIIIIIIIIIIII222AAAIIIIIIIIIIIA1II22IAAII2IIAIIIIIIIII
III22IAA1IIIIIIIIIIIIII222AAAIIIIIIIIIIIA1II22IAAII2IIAIIIIIIIII
III22IAA1IIIIIIIIIIIIII222AAAIIIIIIIIIIIA1II22IAAII2IIAIIIIIA1II
III22IAA1IIIIIIIIIIIIII222AAAIIIIIIIIIIIA1II22IAA1I2IIAIIIIIA1II
III22IAA1IIIIIIIIIIIIII222AAAIIIIIIIIIIIA1II22IAA1I2IIA1IIIIA1II
III22IAA1IIIIIIIIIIIIII222AAAIIIIIIIIIIIA1A122IAA1I2IIA1IIIIA1II
III22IAA1IIIIIIIIIIIIII222AAAIIIIIIIIIIIA1A122IAA1I2IIA1IIIIA1IA
III22IAA1IIIIIIIIIIIIII222AAAIIIIIIIIIIIA1A122IAA1I2IIA1IIIIA1AA
III22IAA1IIIIIIIIIIIIII222AAAIIIIIIIIIIIA1AA12IAA1I2IIA1IIIIA1AA
III22IAA1IIIIA1IIIIIIII222AAAIIIIIIIIIIIA1AA12IAA1I2IIA1IIIIA1AA
III22IAA1IIIIA1IIIIIAII222AAAIIIIIIIIIIIA1AA12IAA1I2IIA1IIIIA1AA
III22IAA1IIIIA1IIIIIAII222AAAIIIIIIIIIIIA1AA12IAA1I2IIAAIIIIA1AA
IIIA2IAA1IIIIA1IIIIIAII222AAAIIIIIIIIIIIA1AA12IAA1I2IIAAIIIIA1AA
IIIA2IAA1IIIIA1IIIIIAII222AAA2IIIIIIIIIIA1AA12IAA1I2IIAAIIIIA1AA
IIIA2IAA12IIIA1IIIIIAII222AAA2IIIIIIIIIIA1AA12IAA1I2IIAAIIIIA1AA
IIIA2IAA12IIIA1IIIIIAII222AAA2IIIIIIIIIIA1AA12IAA1I2IIAA2IIIA1AA
IIIA2IAA12IIIA12IIIIAII222AAA2IIIIIIIIIIA1AA12IAA1I2IIAA2IIIA1AA
IIIA2IAA12IIIA12IIIIAII22AAAA2IIIIIIIIIIA1AA12IAA1I2IIAA2IIIA1AA
IIIA2IAA12IIIA12IIIIAII22AAAA2IIIIIIIIIIA1AA12IAA122IIAA2IIIA1AA
IIIA2IAA12IIIA12IIIIA1222AAAA2IIIIIIIIIIA1AA12IAA122IIAA2IIIA1AA
IIIA2IAA12IIIA12IIIIA1222AAAA2IIIIIIIIIIA1AA12IAA122IIAA12IIA1AA
IIIA12AA12IIIA12IIIIA1222AAAA2IIIIIIIIIIA1AA12IAA122IIAA12IIA1AA
IIIA12AA12IIIA12IIIIA1222AAAA12IIIIIIIIIA1AA12IAA122IIAA12IIA1AA
AIIA12AA12IIIA12IIIIA1222AAAA12IIIIIIIIIA1AA12IAA122IIAA12IIA1AA
AIIA12AA12IIIA12IIIIAA222AAAA12IIIIIIIIIA1AA12IAA122IIAA12IIA1AA
AIIA12AA12II2A12IIIIAA222AAAA12IIIIIIIIIA1AA12IAA122IIAA12IIA1AA
AIIA12AA12II2A12IIIIAA222AAAA12II2IIIIIIA1AA12IAA122IIAA12IIA1AA
AIIA12AA12II2A12IIIIAA222AAAA12I22IIIIIIA1AA12IAA122IIAA12IIA1AA
AIIA12AA12II2A12IA1IAA222AAAA12I22IIIIIIA1AA12IAA122IIAA12IIA1AA
AIIA12AA12II2A12IA1IAA222AAAA12I22IIIIIIA1AA12IAA122I2AA12IIA1AA
AIIA12AA12II2A12IA1IAA222AAAA12I2222IIIIA1AA12IAA122I2AA12IIA1AA
A12A12AA12II2A12IA1IAA222AAAA12I2222IIIIA1AA12IAA122I2AA12IIA1AA
A12A12AA12II2A12IA1IAA122AAAA12I2222IIIIA1AA12IAA122I2AA12IIA1AA
A12A12AA12II2A12IA12AA122AAAA12I2222IIIIA1AA12IAA122I2AA12IIA1AA
IIIIIIIIIIIIIIIIIIIIIIIIIIIIIIIIIIIIIIIIIIIIIIIA111111222IIIIIII
IIIIIIIIIIIIIIIIIIIIIIIIIIIIIIIIIIIIIIIIIIIIIIIAA111111222IIIIII
A111111222IIIIIIIIIIIIIIIIIIIIIIIIIIIIIIIIIIIIIAA111111222IIIIII
A111111222IIIIIIIIIIIA111111222IIIIIIIIIIIIIIIIAA111111222IIIIII
A11111A122IIIIIIIIIIIA111111222IIIIIIIIIIIIIIIIAA111111222IIIIII
A11111A122IIIIIIIIIIIA11111A122IIIIIIIIIIIIIIIIAA111111222IIIIII
A11111A122IIIIIIIIIIIA1111AA122IIIIIIIIIIIIIIIIAA111111222IIIIII
A11111AA12IIIIIIIIIIIA1111AA122IIIIIIIIIIIIIIIIAA111111222IIIIII
A11111AA12IIIIIIIIIIIA1111AA122IIIIIIIIIIIIIIIIAA111111222IIA12I
A11111AA12IIIIIIIIIIIA1111AA122IIIIIIIIIIIIIIIIAA111111222IIAA12
A11111AA12IIIIIIIA12IA1111AA122IIIIIIIIIIIIIIIIAA111111222IIAA12
A11111AA12IIIIIIIA12IA1111AA122IIIIIIA12IIIIIIIAA111111222IIAA12
A11111AA12IIIIIIIA12IA1111AA122IIIIIIA12IIIIIIIAA11111A122IIAA12
A11111AA12II2IIIIA12IA1111AA122IIIIIIA12IIIIIIIAA11111A122IIAA12
A11111AA12II2IIIIA12IA1111AA122II2IIIA12IIIIIIIAA11111A122IIAA12
A11111AA12II2IIIIA12IA1111AA122I22IIIA12IIIIIIIAA11111A122IIAA12
A11111AA12II22IIIA12IA1111AA122I22IIIA12IIIIIIIAA11111A122IIAA12
A11111AA12II22IIIA12IA1111AA122I22IIIA12III2IIIAA11111A122IIAA12
IIIIIIA11I11111I1IIIIIIIIIIIIIIIIIIIIIIIIIIIIIIIIIIIIIIIIIIIIIII
IIIIIIA11I11111I1IIIIIIIIIIA11I11111I1IIIIIIIIIIIIIIIIIIIIIIIIII
IIIIIIA11I11111I1IIIIIIIIIAA1111111111IIIIIIIIIIIIIIIIIIIIIIIIII
IIIIIIAA1111111111IIIIIIIIAA1111111111IIIIIIIIIIIIIIIIIIIIIIIIII
IIIIIIAA1111111111IIIIIIIIAA1111111111IIIIIIIIIIIIIIIIA11I11111I
IIIIIIAA1111111111IIIIIIIIAA1111111111IIIIIIIIIIIIIIIIA11I11A11I
IIIIIIAA111111111A11I11111AA1111111111IIIIIIIIIIIIIIIIA11I11A11I
IIIIIIAA111111111A11I11111AA111111111A11I11111I1IIIIIIA11I11A11I
IIIIIIAA111111111A11111111AA111111111A11I11111I1IIIIIIA11I11A11I
IIIIIIAA111111111A11111111AA111111111A11111111I1IIIIIIA11I11A11I
IIIIIIAA111111111A11111111AA111111111A11111111I1IIIIIIA11111A11I
IIIIIIAA111111111A11111111AA111111111A11111111I1IIIIIIA11111A111
IIIIIIAA111111111A11111111AA111111111A1111A111I1IIIIIIA11111A111
IIIIIIAA111111111A11111111AA111111111A1111A111I1IIIIIIA11111A1A1
IIIIIIAA111111111A11111111AA111111111A1111A111I1IIIIIIA11111A1AA
IIIIIIAA111111111A11111111AA111111111A1111AA11I1IIIIIIA11111A1AA
IIIIIIAA11111A111A11111111AA111111111A1111AA11I1IIIIIIA11111A1AA
IIIIIIA1IIIIIIIIIIIIIIIIIIIIIIIIIIIIIIIIIIIIIIIIIIIIIIIIIIIIIIII
IIIIIIA1IIIIIIIIIIIIIIIIIIIA1IIIIIIIIIIIIIIIIIIIIIIIIIIIIIIIIIII
IIIIIIA1IIIIIIIIIIIIIIIIIIAA1IIIIIIIIIIIIIIIIIIIIIIIIIIIIIIIIIII
IIIIIIAA1IIIIIIIIIIIIIIIIIAA1IIIIIIIIIIIIIIIIIIIIIIIIIIIIIIIIIII
IIIIIIAA1IIIIIIIIA1IIIIIIIAA1IIIIIIIIIIIIIIIIIIIIIIIIIIIIIIIIIII
IIIIIIIIIIIIIIIIIIIIIIIIIIIIIIIIIIIIIIIIIIA2IIIIIIIIIIIIIIIIIIII
IIIIIIIIIIIIIIIIIIIIIIIIIIIIIIIIIIIIIIIIIIA2IIIIIIIIIIIIIIIIIIIA
IIIIIIIIIIIIIIIIIIIIIIIIIIIIIIIIIIIIIIIIIIA2IIIIIIIIIIIIIIIIIIAA
IIIIIIIIIIIIIIIIIIIIIIIIIIIIIIIIIIIIIIIIIIAA2IIIIIIIIIIIIIIIIIAA
IIIIIIIIIIIIIA2IIIIIIIIIIIIIIIIIIIIIIIIIIIAA2IIIIIIIIIIIIIIIIIAA
IIIIIIA122IIIA2IIIIIIIIIIIIIIIIIIIIIIIIIIIAA2IIIIIIIIIIIIIIIIIAA
IIIIIIA122IIIA2IIIIIIIIIIIIA122IIIIIIIIIIIAA2IIIIIIIIIIIIIIIIIAA
IIIIIIA122IIIA2IIIIIIIIIIIAA122IIIIIIIIIIIAA2IIIIIIIIIIIIIIIIIAA
IIIIIIAA122IIA2IIIIIIIIIIIAA122IIIIIIIIIIIAA2IIIIIIIIIIIIIIIIIAA
IIIIIIAA122IIA2IIIIIIIIIIIAA122IIIIIIIIIIIAA2IIIIIIIIIIIIIIIA1AA
IIIIIIAA122IIA2IIA122IIIIIAA122IIIIIIIIIIIAA2IIIIIIIIIIIIIIIA1AA
IIIIIIAA122IIA2IIA122IIIIIAA122IIIIIIIIIIIAA2IIIIIIIIIAIIIIIA1AA
IIIIIIAA122IIA2IIA122IIIIIAA122IIIIIIIIIIIAA2IIIIIIIIIA1IIIIA1AA
IIIIIIAA122IIA2IIA122IIIIIAA122IIIIIIIIIIIAA2IIA1IIIIIA1IIIIA1AA
IIIIIIAA122IIA2IIA122IIIIIAA122IIIIIIIIIIIAA2IIAA1IIIIA1IIIIA1AA
IIIIIIAA122IIA2IIA122IIIIIAA122IIIIIIIIIIIAA2IIAA1IIIIA1IIIIAAAA
IIIIIIIIIIIIIIIIIA1I11111IIIIIIIIIIIIIIIIIIIIIIIIIIIIIIIIIIIIIII
IIIIIIIIIIIIIIIIIA1I11111IIIIIIIIIIIIA1I1111111IIIIIIIIIIIIIIIII
IIIIIIA1I1111111IA1I11111IIIIIIIIIIIIA1I1111111IIIIIIIIIIIIIIIII
IIIIIIA1I1111111IA1I11111IIA1I111111IA1I1111111IIIIIIIIIIIIIIIII
IIIIIIA1I1111111IA1I11111IAA1I111111IA1I1111111IIIIIIIIIIIIIIIII
IIIIIIAA111111111A1I11111IAA1I111111IA1I1111111IIIIIIIIIIIIIIIII
IIIIIIAA111111111A1I11111IAA1I111111IA1I1111111IIIIIIIA1I1111111
IIIIIIAA111111111A1I11111IAA1I111111IA1I1111111IIIIIIIA1I111A111
IIIIIIAA111111111A1I11111IAA1I1111111A1I1111111IIIIIIIA1I111A111
IIIIIIAA111111111A1I11111IAA111111111A1I1111111IIIIIIIA1I111A111
IIIIIIAA111111111A1I111111AA111111111A1I1111111IIIIIIIA1I111A111
IIIIIIAA111111111A1I111111AA111111111A1I1111111IIIIIIIA1I111AA11
IIIIIAAA111111111A1I111111AA111111111A1I1111111IIIIIIIA1I111AA11
IIIIIAAA111111111A1I111111AA111111111A1I11A1111IIIIIIIA1I111AA11
AIIIIAAA111111111A1I111111AA111111111A1I11A1111IIIIIIIA1I111AA11
AIIIIAAA111111111A1I1A1111AA111111111A1I11A1111IIIIIIIA1I111AA11
AIIIIAAA111111111A121A1111AA111111111A1I11A1111IIIIIIIA1I111AA11
IIIIIIAII1I2I22IIIIIIIIIIIIIIIIIIIIIIIIIIIIIIIIIIIIIIIIIIIIIIIII
IIIIIIAII1I2I22IIIIIIIIIIIIAII1I2I22IIIIIIIIIIIIIIIIIIIIIIIIIIII
IIIIIIAII1I2I22IIIIIIIIIIIAAI1122222IIIIIIIIIIIIIIIIIIIIIIIIIIII
IIIIIIAAI1122222IIIIIIIIIIAAI1122222IIIIIIIIIIIIIIIIIIIIIIIIIIII
IIIIIIAAI1122222IAII1I2I22AAI1122222IIIIIIIIIIIIIIIIIIIIIIIIIIII
IIIIIIAAI1122222IAII1I2I22AA11122222IIIIIIIIIIIIIIIIIIIIIIIIIIII
IIIIIIAA11122222IAII1I2I22AA11122222IIIIIIIIIIIIIIIIIIIIIIIIIIII
IIIIIIAA11122222IA1I1I2I22AA11122222IIIIIIIIIIIIIIIIIIIIIIIIIIII
IIIIIIAA11122222IA1I1I2I22AA11122222IIIIIIIIIIIIIIIIIIA1IIIIIIII
IIIIIIAA11122222IA1I1I2I22AA11122222IIIIIIIIIIIA1IIIIIA1IIIIIIII
IIIIIIAA11122222IA1I1I2I22AAA1122222IIIIIIIIIIIA1IIIIIA1IIIIIIII
IIIIIIAA11122222IA1I1I2I22AAA1122222IIIIA1IIIIIA1IIIIIA1IIIIIIII
IIIIIIAA11122222IA1I1I2I22AAA1122222IIIIA1A1IIIA1IIIIIA1IIIIIIII
IIIIIIAA11122222IA1I1I2I22AAA1122222IIIIA1A1IIIA1IIIIIA1IIIIIIIA
IIIIIIAA11122222IA1I1I2I22AAA1122222IIIIA1A1IIIA1IIIIIA1IIIIIIAA
IIIIIIAA11122222IA1I1I2I22AAA1122222IIIIA1AA1IIA1IIIIIA1IIIIIIAA
IIIIIIAA11122A22IA1I1I2I22AAA1122222IIIIA1AA1IIA1IIIIIA1IIIIIIAA
IIIIIIAA11122A22IA1I1I2I2AAAA1122222IIIIA1AA1IIA1IIIIIA1IIIIIIAA
AIIIIIAA11122A22IA1I1I2I2AAAA1122222IIIIA1AA1IIA1IIIIIA1IIIIIIAA
AIIIIIAA11122A22IA1I1A2I2AAAA1122222IIIIA1AA1IIA1IIIIIA1IIIIIIAA
AIIIIIAA11122A22IA1I1A2I2AAAA1122222IIIIA1AA1IIA1IIIIIA1I2IIIIAA
AIIIIIAA11122A22IA1IAA222AAAA1122222IIIIA1AA1IIA1IIIIIA1I2IIIIAA
AIIIIIAA11122A22IA1IAA222AAAA1122222IIIIA1AA1IIA1IIIIIAA122IIIAA
AIIA1IAA11122A22IA1IAA222AAAA1122222IIIIA1AA1IIA1IIIIIAA122IIIAA
AIIA1IAA11122A22IA1IAA222AAAA1122222IIIIA1AA12IA1IIIIIAA122IIIAA
AIIA1IAA11122A22IA1IAA222AAAA1122222IIIIA1AA122A1IIIIIAA122IIIAA
AIIA1IAA11122A122A1IAA222AAAA1122222IIIIA1AA122A1IIIIIAA122IIIAA
AIIA1IAA11111A122A1IAA222AAAA1122222IIIIA1AA122A1IIIIIAA122IIIAA
AIIA1IAA11111A122A1IAA222AAAA1111111IIIIA1AA122A1IIIIIAA122IIIAA
AIIA1IAA11111A112A1IAA222AAAA1111111IIIIA1AA122A1IIIIIAA122IIIAA
AIIA1IAA11111A112A1IAA222AAAA1111111IIIIA1AA122A1IIIIIAA111111AA
AIIA1IAA11111A112A1IAA111AAAA1111111IIIIA1AA122A1IIIIIAA111111AA
AIIA11AA11111A112A1IAA111AAAA1111111IIIIA1AA122A1IIIIIAA111111AA
AIIA11AA11111A112A1IAA111AAAA1111111IIIIA1AA111A111IIIAA111111AA
AIIA11AA11111A112A1IAA111AAAA1111111IIIIA1AA111A1111IIAA111111AA
AIIA11AA11111A111A11AA111AAAA1111111IIIIA1AA111A1111IIAA111111AA
IIIIIIA1IIIIIIIIIIIIIIIIIIIIIIIIIIIIIIIIIIIIIIIIIIIIIIIIIIIIIIII
IIIIIIA1IIIIIIIIIIIIIIIIIIIA1IIIIIIIIIIIIIIIIIIIIIIIIIIIIIIIIIII
IIIIIIA1IIIIIIIIIIIIIIIIIIAA1IIIIIIIIIIIIIIIIIIIIIIIIIIIIIIIIIII
IIIIIIAA1IIIIIIIIIIIIIIIIIAA1IIIIIIIIIIIIIIIIIIIIIIIIIIIIIIIIIII
IIIIIIAA1IIIIIIIIIIIIIIIIIAA1IIIIIIIIIIIIIIIIIIIIIIIIIA1IIIIIIII
IIIIIIAA1IIIIIIIIIIIA1IIIIAA1IIIIIIIIIIIIIIIIIIIIIIIIIA1IIIIIIII
IIIIIIAA1IIIIIIIIIIIA1IIIIAA1IIIIIIIIIIIIIIIIIIIIIIIIIAA1IIIIIII
IIIA1IAA1IIIIIIIIIIIA1IIIIAA1IIIIIIIIIIIIIIIIIIIIIIIIIAA1IIIIIII
IIIA1IAA1IIIIIIIIIIIA1IIIIAA1IIIIIIIIIIIIIA1IIIIIIIIIIAA1IIIIIII
IIIA1IAA1IIIIIIIIIIIA1IIIIAA1IIIIIIIIIIIIIA1IIIIIIIIIIAA1IIIIIIA
IIIA1IAA1IIIIIIIIIIIA1IIIIAA1IIIIIIIIIIIIIA1IIIIIIIIIIAA1IIIIIAA
IIIA1IAA1IIIIIIIIIIIA1IIIIAA1IIIIIIIIIIIIIAA1IIIIIIIIIAA1IIIIIAA
IIIA1IAA1IIIIA1IIIIIA1IIIIAA1IIIIIIIIIIIIIAA1IIIIIIIIIAA1IIIIIAA
IIIA1IAA1III2A1IIIIIA1IIIIAA1IIIIIIIIIIIIIAA1IIIIIIIIIAA1IIIIIAA
IIIA1IAA1III2A1IIIIIA1IIIIAA1IIII2IIIIIIIIAA1IIIIIIIIIAA1IIIIIAA
IIIA1IAA1III2A1IIIIIA1IIIIAA1III22IIIIIIIIAA1IIIIIIIIIAA1IIIIIAA
IIIA1IAA1III2A1IIIIIA1IIIIAA1III22IIIIIIIIAA1IIIIIIIIIAA1III2IAA
IIIA1IAA1III2A1IIIIIA1IIIIAA1III22IIIIIIIIAA1IIIIIIIIIAA1III22AA
IIIA1IAA12II2A1IIIIIA1IIIIAA1III22IIIIIIIIAA1IIIIIIIIIAA1III22AA
IIIA1IAA12II2A1IIIIIA1IIIIAA1III22IIIIIIIIAA1III2IIIIIAA1III22AA
IIIA1IAA12II2A1IIIIIA1IIIIAA1III22IIIIIIIIAA1III22IIIIAA1III22AA
IIIA1IAA12II2A1IIII2A1IIIIAA1III22IIIIIIIIAA1III22IIIIAA1III22AA
IIIIIIAI11222222IIIIIIIIIIIIIIIIIIIIIIIIIIIIIIIIIIIIIIIIIIIIIIII
IIIIIIAI11222222IIIIIIIIIIIAI11222222IIIIIIIIIIIIIIIIIIIIIIIIIII
IIIIIIAI11222222IIIIIIIIIIAA111222222IIIIIIIIIIIIIIIIIIIIIIIIIII
IIIIIIAA111222222IIIIIIIIIAA111222222IIIIIIIIIIIIIIIIIIIIIIIIIII
IIIIIIAA111222222IIIIIIIIIAA111222222IIIIIIIIIIIIIIIIIAI11222222
IIIIIIAA111222222IIIIIIIIIAA111222222IIIIIAI11222222IIAI11222222
IIIIIIAA111222222IIIIIIIIIAA111222222IIIIIAI11222222IIAI1122222A
IIIIIIAA111222222IIIIIIIIIAA111222222IIIIIAI11222222IIAI112222AA
IIIIIIAA111222222IIIIIIIIIAA111222222IIIIIAA111222222IAI112222AA
IIIIIIAA11122A211222222IIIAA111222222IIIIIAA111222222IAI112222AA
IIIIIIAA11122A211222A21122AA111222222IIIIIAA111222222IAI112222AA
IIIIIIAA11122A211222A21122AA111222222IIIIIAA111222222IAA112222AA
IIIA2IAA11122A211222A21122AA111222222IIIIIAA111222222IAA112222AA
AII11111I11111I1IIIIIIIIIIIIIIIIIIIIIIIIIIIIIIIIIIIIIIIIIIIIIIII
AAI1111111111111IIIIIIIIIIIIIIIIIIIIIIIIIIIIIIIIIIIIIIIIIIIIIIII
AAA1111111111111I1IIIIIIIIIIIIIIIIIIIIIIIIIIIIIIIIIIIIIIIIIIIIII
AAAA111111111111111IIIIIIIIIIIIIIIIIIIIIIIIIIIIIIIIIIIIIIIIIIIII
AAAAA111111111111111IIIIIIIIIIIIIIIIIIIIIIIIIIIIIIIIIIIIIIIIIIII
AAAAAA111111111111111IIIIIIIIIIIIIIIIIIIIIIIIIIIIIIIIIIIIIIIIIII
AAAAAAA111111111111111IIIIIIIIIIIIIIIIIIIIIIIIIIIIIIIIIIIIIIIIII
AAAAAAAA111111111111111IIIIIIIIIIIIIIIIIIIIIIIIIIIIIIIIIIIIIIIII
AAAAAAAAA111111111111111IIIIIIIIIIIIIIIIIIIIIIIIIIIIIIIIIIIIIIII
AAAAAAAAAA111111111111111IIIIIIIIIIIIIIIIIIIIIIIIIIIIIIIIIIIIIII
AAAAAAAAAAA111111111111111IIIIIIIIIIIIIIIIIIIIIIIIIIIIIIIIIIIIII
AAAAAAAAAAAA111111111111111IIIIIIIIIIIIIIIIIIIIIIIIIIIIIIIIIIIII
AAAAAAAAAAAAA111111111111111IIIIIIIIIIIIIIIIIIIIIIIIIIIIIIIIIIII
AAAAAAAAAAAAAA111111111111111IIIIIIIIIIIIIIIIIIIIIIIIIIIIIIIIIII
AAAAAAAAAAAAAAA111111111111111IIIIIIIIIIIIIIIIIIIIIIIIIIIIIIIIII
AAAAAAAAAAAAAAAA111111111111111IIIIIIIIIIIIIIIIIIIIIIIIIIIIIIIII
AAAAAAAAAAAAAAAAA111111111111111IIIIIIIIIIIIIIIIIIIIIIIIIIIIIIII
AAAAAAAAAAAAAAAAAA111111111111111IIIIIIIIIIIIIIIIIIIIIIIIIIIIIII
AAAAAAAAAAAAAAAAAAA111111111111111IIIIIIIIIIIIIIIIIIIIIIIIIIIIII
AAAAAAAAAAAAAAAAAAAA111111111111111IIIIIIIIIIIIIIIIIIIIIIIIIIIII
AAAAAAAAAAAAAAAAAAAAA111111111111111IIIIIIIIIIIIIIIIIIIIIIIIIIII
AAAAAAAAAAAAAAAAAAAAAA111111111111111IIIIIIIIIIIIIIIIIIIIIIIIIII
AAAAAAAAAAAAAAAAAAAAAAA111111111111111IIIIIIIIIIIIIIIIIIIIIIIIII
AAAAAAAAAAAAAAAAAAAAAAAA111111111111111IIIIIIIIIIIIIIIIIIIIIIIII
AAAAAAAAAAAAAAAAAAAAAAAAA111111111111111IIIIIIIIIIIIIIIIIIIIIIII
AAAAAAAAAAAAAAAAAAAAAAAAAA111111111111111IIIIIIIIIIIIIIIIIIIIIII
AAAAAAAAAAAAAAAAAAAAAAAAAAA111111111111111IIIIIIIIIIIIIIIIIIIIII
AAAAAAAAAAAAAAAAAAAAAAAAAAAA111111111111111IIIIIIIIIIIIIIIIIIIII
AAAAAAAAAAAAAAAAAAAAAAAAAAAAA111111111111111IIIIIIIIIIIIIIIIIIII
AAAAAAAAAAAAAAAAAAAAAAAAAAAAAA111111111111111IIIIIIIIIIIIIIIIIII
AAAAAAAAAAAAAAAAAAAAAAAAAAAAAAA111111111111111IIIIIIIIIIIIIIIIII
AAAAAAAAAAAAAAAAAAAAAAAAAAAAAAAA111111111111111IIIIIIIIIIIIIIIII
AAAAAAAAAAAAAAAAAAAAAAAAAAAAAAAAA111111111111111IIIIIIIIIIIIIIII
AAAAAAAAAAAAAAAAAAAAAAAAAAAAAAAAAA111111111111111IIIIIIIIIIIIIII
AAAAAAAAAAAAAAAAAAAAAAAAAAAAAAAAAAA111111111111111IIIIIIIIIIIIII
AAAAAAAAAAAAAAAAAAAAAAAAAAAAAAAAAAAA111111111111111IIIIIIIIIIIII
AAAAAAAAAAAAAAAAAAAAAAAAAAAAAAAAAAAAA111111111111111IIIIIIIIIIII
AAAAAAAAAAAAAAAAAAAAAAAAAAAAAAAAAAAAAA111111111111111IIIIIIIIIII
AAAAAAAAAAAAAAAAAAAAAAAAAAAAAAAAAAAAAAA111111111111111IIIIIIIIII
AAAAAAAAAAAAAAAAAAAAAAAAAAAAAAAAAAAAAAAA111111111111111IIIIIIIII
AAAAAAAAAAAAAAAAAAAAAAAAAAAAAAAAAAAAAAAAA111111111111111IIIIIIII
AAAAAAAAAAAAAAAAAAAAAAAAAAAAAAAAAAAAAAAAAA111111111111111IIIIIII
AAAAAAAAAAAAAAAAAAAAAAAAAAAAAAAAAAAAAAAAAAA111111111111111IIIIII
AAAAAAAAAAAAAAAAAAAAAAAAAAAAAAAAAAAAAAAAAAAA111111111111111IIIII
AAAAAAAAAAAAAAAAAAAAAAAAAAAAAAAAAAAAAAAAAAAAA111111111111111IIII
AAAAAAAAAAAAAAAAAAAAAAAAAAAAAAAAAAAAAAAAAAAAAA111111111111111III
AAAAAAAAAAAAAAAAAAAAAAAAAAAAAAAAAAAAAAAAAAAAAAA111111111111111II
AAAAAAAAAAAAAAAAAAAAAAAAAAAAAAAAAAAAAAAAAAAAAAAA111111111111111I
AAAAAAAAAAAAAAAAAAAAAAAAAAAAAAAAAAAAAAAAAAAAAAAAA111111111111111
AAAAAAAAAAAAAAAAAAAAAAAAAAAAAAAAAAAAAAAAAAAAAAAAAA11111111111111
AAAAAAAAAAAAAAAAAAAAAAAAAAAAAAAAAAAAAAAAAAAAAAAAAAA1111111111111
AAAAAAAAAAAAAAAAAAAAAAAAAAAAAAAAAAAAAAAAAAAAAAAAAAAA111111111111
AAAAAAAAAAAAAAAAAAAAAAAAAAAAAAAAAAAAAAAAAAAAAAAAAAAAA11111111111
AAAAAAAAAAAAAAAAAAAAAAAAAAAAAAAAAAAAAAAAAAAAAAAAAAAAAA1111111111
AAAAAAAAAAAAAAAAAAAAAAAAAAAAAAAAAAAAAAAAAAAAAAAAAAAAAAA111111111
AAAAAAAAAAAAAAAAAAAAAAAAAAAAAAAAAAAAAAAAAAAAAAAAAAAAAAAA11111111
AAAAAAAAAAAAAAAAAAAAAAAAAAAAAAAAAAAAAAAAAAAAAAAAAAAAAAAAA1111111
AAAAAAAAAAAAAAAAAAAAAAAAAAAAAAAAAAAAAAAAAAAAAAAAAAAAAAAAAA111111
AAAAAAAAAAAAAAAAAAAAAAAAAAAAAAAAAAAAAAAAAAAAAAAAAAAAAAAAAAA11111
AAAAAAAAAAAAAAAAAAAAAAAAAAAAAAAAAAAAAAAAAAAAAAAAAAAAAAAAAAAA1111
AAAAAAAAAAAAAAAAAAAAAAAAAAAAAAAAAAAAAAAAAAAAAAAAAAAAAAAAAAAAA111
AAAAAAAAAAAAAAAAAAAAAAAAAAAAAAAAAAAAAAAAAAAAAAAAAAAAAAAAAAAAAA11
AAAAAAAAAAAAAAAAAAAAAAAAAAAAAAAAAAAAAAAAAAAAAAAAAAAAAAAAAAAAAAA1
AAAAAAAAAAAAAAAAAAAAAAAAAAAAAAAAAAAAAAAAAAAAAAAAAAAAAAAAAAAAAAAA
IIIIIIIIIIIIIIIIIIIIIIIIIIIIIIIIIIIIIIIIIIIIIIIIIIIIIII11II1AIII
IIIIIIIIIIIIIIIIIIIIIIIIIIIIIIIIIIIIIIIIIIIIIIIIIIIIIII111I1AAII
IIIIIIIIIIIIIIIIIIIIIIIIIIIIIIIIIIIIIIIIIIIIIIIA1II2II2111I1AAII
IIIIIIIIIIIIIIIIIIIIIIIIIIIIIIIIIIIIIIIIIIIIIIIAA1I22I2111I1AAII
IIIIIIA1II2II2IIIIIIIIIIIIII2IIIIIIIIIIIIIIIIIIAA1I22I2111I1AAII
IIIIIIA1II2II2IIIIIIIIIIIIIA1II2II2IIIIIIIIIIIIAA1I22I2111I1AAII
IIIIIIA1II2II2IIIIIIIIIIIIAA1I22I22IIIIIIIIIIIIAA1I22I2111I1AAII
IIIIIIAA1I22I22IIIIIIIIIIIAA1222I22IIIIIIIIIIIIAA1I22I2111I1AAII
IIIIIIAA1I22I22IIIIIIIIIIIAA1222I22IIIIIIIIIIIIAA1I22IA11121AAII
IIIIIIAA1I22I22IIIIIIIIIIIAAA222I22IIIIIIIIIIIIAA1I22IA11121AAII
IIIIIIAA1I22I22IIIIIIIIIIIAAA222I22IIIIIAIIIIIIAA1I22IA11121AAII
IIIIIIAA1I22I22IIIIIIIIIIIAAA222I22IIIIIAIAIIIIAA1I22IA11121AAII
IIIIIIAA1I22I22IIIIIIIIIIIAAA222I22IIIIIAIAIIIIAA1I22IA11121AAIA
IIIIIIAA1I22I22IIIIIIIIIIIAAA222I22IIIIIAIAIIIIAA1I22IA11121AAAA
IIIIIIAA1I22I22IIIIIIIIIIIAAA222I22IIIIIAIAA12IAA1I22IA11121AAAA
IIIIIIAA1I22IA12IIIIIIIIIIAAA222I22IIIIIAIAA12IAA1I22IA11121AAAA
IIIIIIAA1I22IA12IIIIIIIIIAAAA222I22IIIIIAIAA12IAA1I22IA11121AAAA
IIIIIIAA1I22IA12IIIIIIIIIAAAA222I22IIIIIAIAA12IAA1222IA11121AAAA
IIIIIIAA1222IA12IIIIIIIIIAAAA222I22IIIIIAIAA12IAA1222IA11121AAAA
IIIIIIAA1222IA12IIIIIIIIIAAAA122I22IIIIIAIAA12IAA1222IA11121AAAA
IIIIIIAA1222IA12IIIIIIIIIAAAA122I22IIIIIA1AA12IAA1222IA11121AAAA
A12IIIAA1222IA12IIIIIIIIIAAAA122I22IIIIIA1AA12IAA1222IA11121AAAA
A12IIIAA1222IA12IIIIIA12IAAAA122I22IIIIIA1AA12IAA1222IA11121AAAA
A12IIIAA1222IA12IAIIIA12IAAAA122I22IIIIIA1AA12IAA1222IA11121AAAA
A122IIAA1222IA12IAIIIA12IAAAA122I22IIIIIA1AA12IAA1222IA11121AAAA
A122IIAA1222IA12IAIIIA122AAAA122I22IIIIIA1AA12IAA1222IA11121AAAA
A1222IAA1222IA12IAIIIA122AAAA122I22IIIIIA1AA12IAA1222IA11121AAAA
A1222IAA1222IA12IAIIIA122AAAA122I22I22IIA1AA12IAA1222IA11121AAAA
A1222IAA1222IA12IAIIIA122AAAA122I22I2222A1AA12IAA1222IA11121AAAA
A1222IAA1222IA12IA12IA122AAAA122I22I2222A1AA12IAA1222IA11121AAAA
A1222IAA1222IA12IA12IA122AAAA122I22I2222A1AA12IAA12222A11121AAAA
A1222IAA12222A12IA12IA122AAAA122I22I2222A1AA12IAA12222A11121AAAA
A1222IAA12222A12IA12IA122AAAA122222I2222A1AA12IAA12222A11121AAAA
A1222IAA12222A12IA122A122AAAA122222I2222A1AA12IAA12222A11121AAAA
A1222IAA12222A12IA122A122AAAA122222I2222A1AA12IAA12122A11121AAAA
A1222IAA12222A12IA122A122AAAA122222I2222A1AA12IAA12112A11121AAAA
A1222IAA12122A122A121A122AAAA122222I2222A1AA12IAA12112A11121AAAA
A1222IAA12122A122A121A122AAAA11222222222A1AA12IAA12112A11121AAAA
A1222IAA12122A122A121A122AAAA11122222222A1AA122AA12112A11121AAAA
A1222IAA12112A122A121A122AAAA11122222222A1AA122AA12112A11121AAAA
A1222IAA12112A122A121A122AAAA11112222222A1AA122AA12112A11121AAAA
A1222IAA12112A122A121A122AAAA1111222222AA1AA122AA12112A11121AAAA
A1222IAA1211AA122A121A122AAAA1111222222AA1AA122AA12112A11121AAAA
A1A12IAA1211AA122A121A122AAAA1111222222AA1AA122AA12112A11121AAAA
A1A12IAA1211AA122A121A112AAAA1111222222AA1AA122AA12112A11121AAAA
A1A12IAA1211AA122A121A112AAAA1111222222AA1AA112AA12112A11121AAAA
A1A12IAA1211AA122A121A112AAAA1111222222AA1AA111AA12112A11121AAAA
A1A12IAA1211AA122A12AA112AAAA1111222222AA1AA111AA12112A11121AAAA
A1A12IAA1211AA122A12AA112AAAA1111222222AA1AA111AA12112AA1121AAAA
AAA12IAA1211AA122A12AA112AAAA1111222222AA1AA111AA12112AA1121AAAA
AAA12IAA1111AA122A12AA112AAAA1111222222AA1AA111AA12112AA1121AAAA
AAA12IAA1111AA122A12AA112AAAA1111222222AA1AA111AA11112AA1121AAAA
AAA12IAA1111AA112A12AA112AAAA1111222222AA1AA111AA11112AA1121AAAA
AAA12IAA1111AA112A11AA112AAAA1111222222AA1AA111AA11112AA1121AAAA
AAA12IAA1111AA111A11AA112AAAA1111222222AA1AA111AA11112AA1121AAAA
AAAA1IAA1111AA111A11AA112AAAA1111222222AA1AA111AA11112AA1121AAAA
AAAA12AA1111AA111A11AA112AAAA1111222222AA1AA111AA11112AA1121AAAA
AAAA11AA1111AA111A11AA112AAAA1111222222AA1AA111AA11112AA1121AAAA
AAAA11AA1111AA111A11AA111AAAA1111222222AA1AA111AA11112AA1121AAAA
AAAA11AA1111AA111A11AA111AAAA1111222222AA1AA111AA11111AA1121AAAA
IIIIIIAIIIIIIIIIIIIIIIIIIIIIIIIIIIIIIIIIIIIIIIIIIIIIIIIIIIIIIIII
IIIIIIAIIIIIIIIIIIIIIIIIIIIA11I1I22I22I22IIIIIIIIIIIIIIIIIIIIIII
IIIIIIAIIIIIIIIIIIIIIIIIIIAA1111222222222IIIIIIIIIIIIIIIIIIIIIII
IIIIIIAA11I1I22I22I22IIIIIAA1111222222222IIIIIIIIIIIIIIIIIIIIIII
IIIIIIAA11I1I22I22I22IIIIIAA1111222222222IIIIIIIIIIIIIA11I1I22I2
IIIIIIAA1111222222222IIIIIAA1111222222222IIIIIIIIIIIIIA11I1I22I2
IIIIIIAA1111222222222IIIIIAA1111222222222IA11I1I22I22IA11I1I22I2
IIIIIIAA1111222222222IIIIIAA1111222222222IA11I1I22I22IA11I1I22IA
IIIIIIAA1111222222222IIIIIAA1111222222222IA11I1I22I22IA11I1I22AA
IIIIIIAA1111222222222IIIIIAA1111222222222IAA1111222222A11I1I22AA
IIIIIIAA11112A1121222I22I2AA1111222222222IAA1111222222A11I1I22AA
IIIIIIAA11112A1121222I22IAAA1111222222222IAA1111222222A11I1I22AA
IIIIIIAA11112A1121222I22IAAA1111222222222IAA111A112122A1121222AA
IIIIIIAA11112A1121222I22IAAA1111222222222IAA111AA11112A1121222AA
A11I1IAA11112A1121222I22IAAA1111222222222IAA111AA11112A1121222AA
A11I1IAA11112A1121222A11IAAA1111222222222IAA111AA11112A1121222AA
A11I1IAA11112A112A112A112AAA1111222222222IAA111AA11112A1121222AA
A11I1IAA11112A112A112A112AAA1111222222222IAA111AA11112A11212A2AA
A11I1IAA11112A112A112A112AAA11112222222A12AA111AA11112A11212A2AA
A11I1IAA11112A112A112A112AAA11112222222AA1AA111AA11112A11212A2AA
A11I1IAA1111AA112A112A112AAA11112222222AA1AA111AA11112A11212A2AA
A1A11IAA1111AA112A112A112AAA11112222222AA1AA111AA11112A11212A2AA
A1A11IAA1111AA112A112A112AAA11112222222AA1AA111AA11112A11212A1AA
A1A11IAA1111AA112A112A112AAAA1112222222AA1AA111AA11112A11212A1AA
A1A11IAA1111AA112A112A112AAAA1112222222AA1AA111AA11112A11212AAAA
A1A11IAA1111AA112A11AA112AAAA1112222222AA1AA111AA11112A11212AAAA
A1A11IAA1111AA112A11AA112AAAA1112222222AA1AA111AA11112AA1212AAAA
A1AA12AA1111AA112A11AA112AAAA1112222222AA1AA111AA11112AA1212AAAA
IIIIIIAIIIIIIIIIIIIIIIIIIIIIIIIIIIIIIIIIIIIIIIIIIIIIIIIIIIIIIIII
IIIIIIAIIIIIIIIIIIIIIIIIIIIAIIIIIIIIIIIIIIIIIIIIIIIIIIIIIIIIIIII
IIIIIIAIIIIIIIIIIIIIIIIIIIAAIIIIIIIIIIIIIIIIIIIIIIIIIIIIIIIIIIII
IIIIIIAAIIIIIIIIIIIIIIIIIIAAIIIIIIIIIIIIIIIIIIIIIIIIIIIIIIIIIIII
IIIIIIAAIIIIIIIIIAIIIIIIIIAAIIIIIIIIIIIIIIIIIIIIIIIIIIIIIIIIIIII
IIIIIIA11111I1IIIIIIIIIIIIIIIIIIIIIIIIIIIIIIIIIIIIIIIIIIIIIIIIII
IIIIIIA11111I1IIIIIIIIIIIIIA11111I1IIIIIIIIIIIIIIIIIIIIIIIIIIIII
IIIIIIA11111I1IIIIIIIIIIIIAA1111111IIIIIIIIIIIIIIIIIIIIIIIIIIIII
IIIIIIAA1111111IIIIIIIIIIIAA1111111IIIIIIIIIIIIIIIIIIIIIIIIIIIII
IIIIIIAA1111111IIA11111I1IAA1111111IIIIIIIIIIIIIIIIIIIIIIIIIIIII
IIIIIIAA1111111IIA11111I1IAA1111111IIIIIIIIIIIIA11111I1IIIIIIIII
IIIIIIAA1111111IIA11111I1IAA1111111IIIIIIIIIIIIAA1111111IIIIIIII
IIIIIIAA1111111IIA11111I1IAA1111111IIIIIIIAIIIIAA1111111IIIIIIII
IIIIIIAA1111111IIA11111I1IAA1111111IIIIIIIAIIIIAA1111111IIIIIIIA
IIIIIIAA1111111IIA11111I1IAA1111111IIIIIIIAIIIIAA1111111IIIIIIAA
IIIIIIAA1111111IIA11111I1IAA1111111IIIIIIIAAIIIAA1111111IIIIIIAA
IIIIIIAA11111A1IIA11111I1IAA1111111IIIIIIIAAIIIAA1111111IIIIIIAA
AIIIIIAA11111A1IIA11111I1IAA1111111IIIIIIIAAIIIAA1111111IIIIIIAA
AIIIIIAA11111A1IIA111A1I1IAA1111111IIIIIIIAAIIIAA1111111IIIIIIAA
AIIIIIAA11111A1IIA111A1I1IAA1111111IIIIIIIAAIIIAA11111A1IIIIIIAA
AIIIIIAA11111A1IIA111A1I1IAA1111111IIIIIIIAA1IIAA11111A1IIIIIIAA
A1IIIIAA11111A1IIA111A1I1IAA1111111IIIIIIIAA1IIAA11111A1IIIIIIAA
A1IIIIAA11111A1IIA111A1I1IAA1111111IIIIIIIAA1IIAA11111A1IIII2IAA
A1IIIIAA11111A1IIA111A121IAA1111111IIIIIIIAA1IIAA11111A1IIII2IAA
A1IIIIAA11111A1IIA111A121IAA1111111IIIIIIIAA1IIAA11111A12III2IAA
A1IIIIAA11111A1IIA111A121IAA1111111IIIIIIIAA12IAA11111A12III2IAA
A1IIIIAA11111A12IA111A121IAA1111111IIIIIIIAA12IAA11111A12III2IAA
A12IIIAA11111A12IA111A121IAA1111111IIIIIIIAA12IAA11111A12III2IAA
A12IIIAA11111A12IA111A121IAA1111111IIIIIIIAA12IAA11111A12IIIA1AA
A12IIIAA11111A12IA111A121IAA1111111IIIIIIIAA12IAA11111A122IIA1AA
A12IIIAA11111A12IA111A121IAA1111111IIIIIIIAA122AA11111A122IIA1AA
A12IIIAA11111A122A111A121IAA1111111IIIIIIIAA122AA11111A122IIA1AA
A12IIIAA11111A122A111A121IAAA111111IIIIIIIAA122AA11111A122IIA1AA
A12IIIAA11111A122A111A121IAAA111111IIIIIA1AA122AA11111A122IIA1AA
A12IIIAA11111A122A111A121IAAA111111IIIIIA1AA122AA11111A122IIAAAA
A12IIIAA11111A122A111A121AAAA111111IIIIIA1AA122AA11111A122IIAAAA
A122I1AA11111A122A111A121AAAA111111IIIIIA1AA122AA11111A122IIAAAA
A122I1AA11111A121A111A121AAAA111111IIIIIA1AA122AA11111A122IIAAAA
A122I1AA11111A121A11AA121AAAA111111IIIIIA1AA122AA11111A122IIAAAA
A122I1AA11111A121A11AA121AAAA111111IIIIIA1AA122AA11111AA12IIAAAA
A12A11AA11111A121A11AA121AAAA111111IIIIIA1AA122AA11111AA12IIAAAA
A12A11AA11111A121A11AA121AAAA111111IIA12A1AA122AA11111AA12IIAAAA
IIIIIIA11111112IIIIIIIIIIIIIIIIIIIIIIIIIIIIIIIIIIIIIIIIIIIIIIIII
IIIIIIA11111112IIIIIIIIIIIIA11111112IIIIIIIIIIIIIIIIIIIIIIIIIIII
IIIIIIA11111112IIIIIIIIIIIAA11111112IIIIIIIIIIIIIIIIIIIIIIIIIIII
IIIIIIAA11111112IIIIIIIIIIAA11111112IIIIIIIIIIIIIIIIIIIIIIIIIIII
IIIIIIAA11111112IIIIIIIIIIAA11111112IIIIIIIIIIIIIIIIIIA11111112I
IIIIIIAA11111112IIIIIIIIIIAA11111112IIIIIIA11111112IIIA11111112I
IIIIIIAA11111112IIIIIIIIIIAA11111112IIIIIIA11111112IIIA11111112A
IIIIIIAA11111112IIIIIIIIIIAA11111112IIIIIIA11111112IIIA1111111AA
IIIIIIAA11111112IIIIIIIIIIAA11111112IIIIIIAA11111112IIA1111111AA
IIIIIIAA11111A11111112IIIIAA11111112IIIIIIAA11111112IIA1111111AA
IIIIIIAA11111A11111112IIIIAA11111112IIIIIIAA111A111111A1111111AA
IIIIIIAA11111A11111112IIIIAAA11111112IIIIIAA111A111111A1111111AA
IIIIIIAA11111A11111112IIIIAAA11111112IIIA1AA111A111111A1111111AA
IIIIIIAA11111A11111112IIIIAAA11111112IIIA1AA111AA11111A1111111AA
IIIIIIAA11111A11111112IIIAAAA11111112IIIA1AA111AA11111A1111111AA
A2IIIIAA11111A11111112IIIAAAA11111112IIIA1AA111AA11111A1111111AA
A2IIIIAA11111A1111111A2IIAAAA11111112IIIA1AA111AA11111A1111111AA
A2IIIIAA11111A1111111A2IIAAAA11111112IIIA1AA111AA11111A11111A1AA
A2IIIIAA11111A111A111A22IAAAA11111112IIIA1AA111AA11111A11111A1AA
A2IIIIAA11111A111A111A22IAAAA111A1112I2IA1AA111AA11111A11111A1AA
A1I2IIAA11111A111A111A22IAAAA111A1112I2IA1AA111AA11111A11111A1AA
A1I2IIAA11111A111A111A122AAAA111A1112I2IA1AA111AA11111A11111A1AA
A122IIAA11111A111A111A122AAAA111A1112I2IA1AA111AA11111A11111A1AA
A122I2AA11111A111A111A122AAAA111A1112I2IA1AA111AA11111A11111A1AA
A122I2AA11111A111A111A122AAAA111A1112I2IA1AA111AA11111A11111AAAA
A122I2AA11111A111A11AA122AAAA111A1112I2IA1AA111AA11111A11111AAAA
A122I2AA11111A111A11AA122AAAA111A1112I2IA1AA111AA11111AA1111AAAA
A12A12AA11111A111A11AA122AAAA111A1112I2IA1AA111AA11111AA1111AAAA
A12A12AA11111A111A11AA122AAAA111A1112I2AA1AA111AA11111AA1111AAAA
A12A12AA1111AA111A11AA122AAAA111A1112I2AA1AA111AA11111AA1111AAAA
A1AA12AA1111AA111A11AA122AAAA111A1112I2AA1AA111AA11111AA1111AAAA
A1AA12AA1111AA111A11AA122AAAA111A1112A1AA1AA111AA11111AA1111AAAA
A1AA1AAA1111AA111A11AA122AAAA111A1112A1AA1AA111AA11111AA1111AAAA
A1AA1AAA1111AA111A11AA122AAAA111A1112A1AA1AA111AA111A1AA1111AAAA
IIIIIIA11112I2I2IIIIIIIIIIIIIIIIIIIIIIIIIIIIIIIIIIIIIIIIIIIIIIII
IIIIIIA11112I2I2IIIIIIIIIIIA11112I2I2IIIIIIIIIIIIIIIIIIIIIIIIIII
IIIIIIA11112I2I2IIIIIIIIIIAA111122222IIIIIIIIIIIIIIIIIIIIIIIIIII
IIIIIIAA111122222IIIIIIIIIAA111122222IIIIIIIIIIIIIIIIIIIIIIIIIII
A11112AA111122222IIIIIIIIIAA111122222IIIIIIIIIIIIIIIIIIIIIIIIIII
A11112AA111122222IIIIA1111AA111122222IIIIIIIIIIIIIIIIIIIIIIIIIII
A11112AA111122222A111A1111AA111122222IIIIIIIIIIIIIIIIIIIIIIIIIII
A11112AA111122222A111A1111AA111122222IIIIIIIIIIA11112I2I2IIIIIII
A11112AA111122222A111A1111AA111122222IIIIIIIIIIAA111122222IIIIII
A11112AA111122222A111A1111AA111122222IIIIIIIIIIAA11112A222IIIIII
A11112AA111122222A111A1111AAA11122222IIIIIIIIIIAA11112A222IIIIII
A11112AA111122222A111A1111AAA11122222IIIAIIIIIIAA11112A222IIIIII
A11112AA111122222A111A111AAAA11122222IIIAIIIIIIAA11112A222IIIIII
A11112AA111122222A111A111AAAA11122222IIIAIIIIIIAA11112A122IIII2I
A11112AA111122222A111A111AAAA11122222IIIAIA12IIAA11112A122IIII2I
A11112AA111122222A111A111AAAA11122222IIIAIA12IIAA11112A122IIII2A
A11112AA111122222A111A111AAAA11122222IIIAIA12IIAA11112A122IIIIAA
A11112AA111122222A111A111AAAA11122222IIIAIAA12IAA11112A122IIIIAA
A11112AA11112A122A111A111AAAA11122222IIIAIAA12IAA11112A122IIIIAA
A11112AA11112A122A111A111AAAA11122222IIIA1AA12IAA11112A122IIIIAA
A11112AA11112A122A111A111AAAA11122222IIIA1AA12IAA11112A122IIA1AA
A11112AA11112A122A111A111AAAA11122222IIIA1AA12IAA11112A122IIAAAA
A11112AA11112A122A111A111AAAA11122222IIIA1AA12IAA11112A112IIAAAA
A11112AA11112A122A111A111AAAA11122222IIIA1AA112AA11112A112IIAAAA
A11112AA11112A112A111A111AAAA11122222IIIA1AA112AA11112A112IIAAAA
A11112AA11112A112A111A111AAAA11122222IIIA1AA111AA11112A112IIAAAA
A11112AA11111A111A111A111AAAA11122222IIIA1AA111AA11112A112IIAAAA
A11112AA11111A111A111A111AAAA1111121212IA1AA111AA11112A112IIAAAA
A11112AA11111A111A111A111AAAA1111111112IA1AA111AA11112A112IIAAAA
A11112AA11111A111A111A111AAAA1111111112IA1AA111AA11111A1112IAAAA
A11112AA11111A111A111A111AAAA1111111112IA1AA111AA11111A11112AAAA
A11112AA11111A111A111A111AAAA1111111112IA1AA111AA11111A11111AAAA
A11112AA11111A111A111A111AAAA1111111112AA1AA111AA11111A11111AAAA
A11112AA1111AA111A111A111AAAA1111111112AA1AA111AA11111A11111AAAA
A1A112AA1111AA111A111A111AAAA1111111112AA1AA111AA11111A11111AAAA
A1A112AA1111AA111A11AA111AAAA1111111112AA1AA111AA11111A11111AAAA
A1A112AA1111AA111A11AA111AAAA1111111112AA1AA111AA11111AA1111AAAA
A1AA12AA1111AA111A11AA111AAAA1111111112AA1AA111AA11111AA1111AAAA
A1AA11AA1111AA111A11AA111AAAA1111111112AA1AA111AA11111AA1111AAAA
IIIIIIIIIIIIIIIIIIIIIIIIIIIIIIIIIIIIIIIIIIA11111I222IIIIIIIIIIII
IIIIIIA11111I222IIIIIIIIIIIIIIIIIIIIIIIIIIA11111I222IIIIIIIIIIII
IIIIIIA11111I222IIIIIIIIIIIA11111I222IIIIIA11111I222IIIIIIIIIIII
IIIIIIA11111I222IIIIIIIIIIAA111112222IIIIIA11111I222IIIIIIIIIIII
IIIIIIAA111112222IIIIIIIIIAA111112222IIIIIA11111I222IIIIIIIIIIII
IIIIIIAA111112222IIIIIIIIIAA111112222IIIIIA11111I222IIIIIIIIA111
IIIIIIAA111112222A11111I22AA111112222IIIIIA11111I222IIIIIIIIA111
IIIIIIAA111112222A11111I22AA111112222IIIIIA1111A1222I2IIIIIIA111
IIIIIIAA111112222A11111I22AA111112222IIIIIA1111AA122I22IIIIIA111
IIIIIIAA111112222A11111I22AA111112222IIIIIA1111AA122I22IIIIIA11A
IIIIIIAA111112222A11111I22AA111112222IIIIIA1111AA122I22IIIIIA1AA
IIIIIIAA111112222A11111I22AA111112222IIIIIAA111AA122I22IIIIIA1AA
IIIIIIAA11111A122A11111I22AA111112222IIIIIAA111AA122I22IIIIIA1AA
A12IIIAA11111A122A11111I22AA111112222IIIIIAA111AA122I22IIIIIA1AA
A12IIIAA11111A122A111A1222AA111112222IIIIIAA111AA122I22IIIIIA1AA
A12IIIAA11111A122A111A1222AA111112222IIIIIAA111AA122I2A12IIIA1AA
A12IIIAA11111A122A111A1222AAA11112222IIIIIAA111AA122I2A12IIIA1AA
A12IIIAA11111A122A111A1222AAA11112222IIIA1AA111AA122I2A12IIIA1AA
A12IIIAA11111A122A111A122AAAA11112222IIIA1AA111AA122I2A12IIIA1AA
A12IIIAA11111A122A111A122AAAA11112222IIIA1AA111AA122I2A12IIIAAAA
A12IIIAA11111A122A111A122AAAA11112222IIIA1AA111AA122I2A122IIAAAA
A122IIAA11111A122A111A122AAAA11112222IIIA1AA111AA122I2A122IIAAAA
A122IIAA11111A122A11AA122AAAA11112222IIIA1AA111AA122I2A122IIAAAA
A122IIAA11111A122A11AA122AAAA11112222IIIA1AA111AA122I2AA22IIAAAA
A12AIIAA11111A122A11AA122AAAA11112222IIIA1AA111AA122I2AA22IIAAAA
A12AIIAA11111A122A11AA122AAAA11112222IIAA1AA111AA122I2AA22IIAAAA
A12AIIAA1111AA122A11AA122AAAA11112222IIAA1AA111AA122I2AA22IIAAAA
A1AAIIAA1111AA122A11AA122AAAA11112222IIAA1AA111AA122I2AA22IIAAAA
A1AAIIAA1111AA122A11AA122AAAA1111222222AA1AA111AA122I2AA22IIAAAA
A1AAIIAA1111AA122A11AA122AAAA1111222222AA1AA111AA122I2AA1212AAAA
A1AAIIAA1111AA122A11AA122AAAA1111222222AA1AA111AA12122AA1212AAAA
A1AAIIAA1111AA122A11AA122AAAA1111222222AA1AA111AA11112AA1212AAAA
A1AA12AA1111AA122A11AA122AAAA1111222222AA1AA111AA11112AA1212AAAA
A1AA12AA1111AA122A11AA112AAAA1111222222AA1AA111AA11112AA1212AAAA
A1AA12AA1111AA122A11AA112AAAA11112222A1AA1AA111AA11112AA1212AAAA
A1AA1AAA1111AA122A11AA112AAAA11112222A1AA1AA111AA11112AA1212AAAA
A1AA1AAA1111AA122A11AA112AAAA11112222A1AA1AA111AA11111AA1212AAAA
A1AA1AAA1111AA112A11AA112AAAA11112222A1AA1AA111AA11111AA1212AAAA
A1AA1AAA1111AA112A11AA112AAAA11111111A1AA1AA111AA11111AA1212AAAA
A1AA1AAA1111AA111A11AA112AAAA11111111A1AA1AA111AA11111AA1212AAAA
A1AA1AAA1111AA111A11AA112AAAA11111111A1AA1AA111AA11111AA1111AAAA
A1AA1AAA1111AA111A11AA111AAAA11111111A1AA1AA111AA11111AA1111AAAA
A1AA1AAA1111AA111A11AA111AAAA111A1111A1AA1AA111AA11111AA1111AAAA
IIIIIIA111111111IIIIIIIIIIIIIIIIIIIIIIIIIIIIIIIIIIIIIIIIIIIIIIII
IIIIIIA111111111IIIIIIIIIIIA111111111IIIIIIIIIIIIIIIIIIIIIIIIIII
IIIIIIA111111111IIIIIIIIIIAA111111111IIIIIIIIIIIIIIIIIIIIIIIIIII
IIIIIIAA111111111IIIIIIIIIAA111111111IIIIIIIIIIIIIIIIIIIIIIIIIII
IIIIIIAA111111111IIIIIIIIIAA111111111IIIIIA111111111IIIIIIIIIIII
IIIIIIAA111111111A11111111AA111111111IIIIIA111111111IIIIIIIIIIII
IIIIIIAA111111111A11111111AA111111111IIIIIA1111A1111IIIIIIIIIIII
IIIIIIAA111111111A11111111AA111111111IIIIIA1111AA111IIIIIIIIIIII
IIIIIIAA111111111A11A11111AA111111111IIIIIA1111AA111IIIIIIIIIIII
IIIIIIAA111111111A11A11111AA111111111IIIIIA1111AA111IIIAIIIIIIII
IIIAIIAA111111111A11A11111AA111111111IIIIIA1111AA111IIIAIIIIIIII
IIIAIIAA111111111A11A11111AA111111111AIIIIA1111AA111IIIAIIIIIIII
IIIAIAAA111111111A11A11111AA111111111AIIIIA1111AA111IIIAIIIIIIII
IIIAIAAA111111111A11A11111AA111111111AIIIIA1111AA111IIIAIIIIIIIA
IIIAIAAA111111111A11A11111AA111111111AIIIIA1111AA111IIIAIIIIIIAA
IIIAIAAA111111111A11A11111AA111111111AIIIIAA111AA111IIIAIIIIIIAA
IIIAIAAA11111A111A11A11111AA111111111AIIIIAA111AA111IIIAIIIIIIAA
A12AIAAA11111A111A11A11111AA111111111AIIIIAA111AA111IIIAIIIIIIAA
A12AIAAA11111A111A11AA1111AA111111111AIIIIAA111AA111IIIAIIIIIIAA
A12AIAAA11111A111A11AA1111AA111111111AIIIIAA111AA111IIIAIIIIAIAA
A12AIAAA11111A111A11AA1111AA111111111AIIIIAA111AA111IIAA2IIIAIAA
A12AIAAA11111A111A11AA1111AA111111111AIIIIAA111AA111I2AA2IIIAIAA
A12AIAAA11111A111A11AA1111AA111111111AIAIIAA111AA111I2AA2IIIAIAA
A12AIAAA11111A111A11AA1111AA111111111AIAAIAA111AA111I2AA2IIIAIAA
A12AIAAA1111AA111A11AA1111AA111111111AIAAIAA111AA111I2AA2IIIAIAA
A1AAIAAA1111AA111A11AA1111AA111111111AIAAIAA111AA111I2AA2IIIAIAA
A1AAIAAA1111AA111A11AA1111AA111111111AIAAIAA111AA111I2AA12IIAIAA
A1AA1AAA1111AA111A11AA1111AA111111111AIAAIAA111AA111I2AA12IIAIAA
22I2IIA11IIIII2IIIIIIIIIIIIIIIIIIIIIIIIIIIIIIIIIIIIIIIIIIIIIIIII
22I2IIA11IIIII2IIIIII22I2IIA11IIIII2IIIIIIIIIIIIIIIIIIIIIIIIIIII
22I2IIA11IIIII2IIIII22222IAA11IIII22IIIIIIIIIIIIIIIIIIIIIIIIIIII
22222IAA11IIII22IIII22222IAA11IIII22IIIIIIIIIIIIIIIIIIIIIIIIIIII
22222IAA11IIII22IIII22222IAA11IIII22IIIIIIIIIIII22I2IIA11IIIII2I
A1122IAA11IIII22IIII22222IAA11IIII22IIIIIIIIIIII22I2IIA11IIIII2I
A1122IAA11IIII222I2I2A112IAA11IIII22IIIIIIIIIIII22I2IIA11IIIII2I
A1122IAA11IIII222I2I2A112IAA11IIII22IIIIIIIIIIII22I2IIA112IIA11I
A1122IAA11I22I222A112A1122AA11IIII22IIIIIIIIIIII22I2IIA112IIA11I
A1122IAA11I22I222A112A1122AA11IIII22IIIIIIIIIIIA22I2IIA112IIA11I
A1122IAA11I22I222A112A1122AA11IIII22IIIIIIIIIIIAA2I2IIA112IIA11I
A1122IAA11I22I222A112A1122AA11IIII22IIIIIIIIIIIAA122IIA112IIA11I
A1122IAA11I22I222A112A1122AA11IIII22IIIIIIA12IIAA122IIA112IIA11I
A1122IAA11I22I222A112A1122AA11IIII22IIIIIIA12IIAA122IIA112IIA11A
A1122IAA11I22I222A112A1122AA11IIII22IIIIIIA12IIAA122IIA112IIA1AA
A1122IAA11I22I222A112A1122AA11IIII22IIIIIIAA12IAA122IIA112IIA1AA
A1122IAA11I22A122A112A1122AA11IIII22IIIIIIAA12IAA122IIA112IIA1AA
A1122IAA11I22A122A112A1122AAA12III22IIIIIIAA12IAA122IIA112IIA1AA
A1122IAA11I22A122A112A1122AAA12III22IIIIA1AA12IAA122IIA112IIA1AA
A1122IAA11I22A122A112A1122AAA12III22IA12A1AA12IAA122IIA112IIA1AA
A1122AAA11I22A122A112A1122AAA12III22IA12A1AA12IAA122IIA112IIA1AA
A1122AAA11I22A122A112A112AAAA12III22IA12A1AA12IAA122IIA112IIA1AA
A1122AAA11I22A122A112A112AAAA12III22IA12A1AA12IAA122IIA112IIAAAA
A1122AAA11I22A122A112A112AAAA12III22IA12A1AA12IAA122I2A112IIAAAA
A1122AAA11I22A122A112A112AAAA12II222IA12A1AA12IAA122I2A112IIAAAA
A1122AAA11I22A122A112A112AAAA12I2222IA12A1AA12IAA122I2A112IIAAAA
A1122AAA11I22A122A112A112AAAA12I2222IA12A1AA122AA122I2A112IIAAAA
A1122AAA11I22A122A112A112AAAA1222222IA12A1AA122AA122I2A112IIAAAA
A1122AAA11222A122A112A112AAAA1222222IA12A1AA122AA122I2A112IIAAAA
A1122AAA11222A122A11AA112AAAA1222222IA12A1AA122AA122I2A112IIAAAA
A1122AAA11222A122A11AA112AAAA1222222IA12A1AA122AA122I2AA12IIAAAA
A11A1AAA11222A122A11AA112AAAA1222222IA12A1AA122AA122I2AA12IIAAAA
A11A1AAA11222A122A11AA112AAAA1222222IA1AA1AA122AA122I2AA12IIAAAA
A11A1AAA1122AA122A11AA112AAAA1222222IA1AA1AA122AA122I2AA12IIAAAA
A1AA1AAA1122AA122A11AA112AAAA1222222IA1AA1AA122AA122I2AA12IIAAAA
A1AA1AAA1122AA122A11AA112AAAA12222222A1AA1AA122AA122I2AA12IIAAAA
IIIIIIIIIIIIIIIIIIIIIIIIIIIIIIIIIIIIIIIIIIIIIIIA12IIIIIIIIIIIIII
IIIIIIIIIIIIIIIIIIIIIIIIIIIIIIIIIIIIIIIIIIIIIIIAA12IIIIIIIIIIIII
IIIIIIA12IIIIIIIIIIIIIIIIIIIIIIIIIIIIIIIIIIIIIIAA12IIIIIIIIIIIII
IIIIIIA12IIIIIIIIIIIIIIIIIIAIIIIIIIIIIIIIIIIIIIAA12IIIIIIIIIIIII
IIIIIIA12IIIIIIIIIIIIIIIIIAAIIIIIIIIIIIIIIIIIIIAA12IIIIIIIIIIIII
IIIIIIAA2IIIIIIIIIIIIIIIIIAAIIIIIIIIIIIIIIIIIIIAA12IIIIIIIIIIIII
IIIIIIAA2IIIIIIIIIIIIIIIIIAAIIIIIIIIIIIIIIIIIIIAA12IIIAIIIIIIIII
IIIIIIAA2IIIIIIIIIIIIIIIIIAAAIIIIIIIIIIIIIIIIIIAA12IIIAIIIIIIIII
IIIIIIAA2IIIIIIIIIIIIIIIIIAAAIIIIIIIIIIIAIIIIIIAA12IIIAIIIIIIIII
IIIIIIAA1IIIIIIIIIIIIIIIIIAAAIIIIIIIIIIIAIIIIIIAA12IIIAIIIIIIIII
IIIIIIAA1IIIIIIIIIIIIIIIIIAAAIIIIIIIIIIIAIIIIIIAA12IIIAIIIIIA1II
IIIIIIAA1IIIIIIIIIIIIIIIIIAAAIIIIIIIIIIIAIIIIIIAA12IIIA1IIIIA1II
IIIIIIAA1IIIIIIIIIIIIIIIIIAAAIIIIIIIIIIIAIA1IIIAA12IIIA1IIIIA1II
IIIIIIAA1IIIIIIIIIIIIIIIIIAAAIIIIIIIIIIIAIA1IIIAA12IIIA1IIIIA1IA
IIIIIIAA1IIIIIIIIIIIIIIIIIAAAIIIIIIIIIIIAIA1IIIAA12IIIA1IIIIA1AA
IIIIIIAA1IIIIIIIIIIIIIIIIIAAAIIIIIIIIIIIAIAA1IIAA12IIIA1IIIIA1AA
IIIIIIAA1IIIIA1IIIIIIIIIIIAAAIIIIIIIIIIIAIAA1IIAA12IIIA1IIIIA1AA
IIIIIIAA1IIIIA1IIIIIAIIIIIAAAIIIIIIIIIIIAIAA1IIAA12IIIA1IIIIA1AA
IIIIIIAA1IIIIA1IIIIIAIIIIIAAAIIIIIIIIIIIAIAA1IIAA12IIIAAIIIIA1AA
IIIAIIAA1IIIIA1IIIIIAIIIIIAAAIIIIIIIIIIIAIAA1IIAA12IIIAAIIIIA1AA
IIIAIIAA1IIIIA1IIIIIAIIIIAAAAIIIIIIIIIIIAIAA1IIAA12IIIAAIIIIA1AA
IIIAIIAA1IIIIA1IIIIIAIIIIAAAA2IIIIIIIIIIAIAA1IIAA12IIIAAIIIIA1AA
IIIAIIAA12IIIA1IIIIIAIIIIAAAA2IIIIIIIIIIAIAA1IIAA12IIIAAIIIIA1AA
IIIAIIAA12IIIA1IIIIIAIIIIAAAA2IIIIIIIIIIAIAA1IIAA12IIIAA2IIIA1AA
IIIAIIAA12IIIA1IIIIIAIIIIAAAA2IIIIIIIIIIAIAA12IAA12IIIAA2IIIA1AA
IIIAIIAA12IIIA12IIIIAIIIIAAAA2IIIIIIIIIIAIAA12IAA12IIIAA2IIIA1AA
IIIAIIAA12IIIA12IIIIA12IIAAAA2IIIIIIIIIIAIAA12IAA12IIIAA2IIIA1AA
IIIAIIAA12IIIA12IIIIA12IIAAAA2IIIIIIIIIIAIAA12IAA12IIIAA12IIA1AA
IIIA12AA12IIIA12IIIIA12IIAAAA2IIIIIIIIIIAIAA12IAA12IIIAA12IIA1AA
IIIA12AA12IIIA12IIIIA12IIAAAA12IIIIIIIIIAIAA12IAA12IIIAA12IIA1AA
IIIA12AA12IIIA12IIIIA12IIAAAA12IIIIIIIIIA1AA12IAA12IIIAA12IIA1AA
A12A12AA12IIIA12IIIIA12IIAAAA12IIIIIIIIIA1AA12IAA12IIIAA12IIA1AA
A12A12AA12IIIA12IIIIAA12IAAAA12IIIIIIIIIA1AA12IAA12IIIAA12IIA1AA
A12A12AA12II2A12IIIIAA12IAAAA12IIIIIIIIIA1AA12IAA12IIIAA12IIA1AA
A12A12AA12II2A12IIIIAA12IAAAA12II2IIIIIIA1AA12IAA12IIIAA12IIA1AA
A12A12AA12II2A12IIIIAA12IAAAA12I22IIIIIIA1AA12IAA12IIIAA12IIA1AA
A12A12AA12II2A12IA1IAA12IAAAA12I22IIIIIIA1AA12IAA12IIIAA12IIA1AA
A12A12AA12II2A12IA1IAA12IAAAA12I222IIIIIA1AA12IAA12IIIAA12IIA1AA
A12A12AA122I2A12IA1IAA12IAAAA12I222IIIIIA1AA12IAA12IIIAA12IIA1AA
A12A12AA122I2A12IA1IAA12IAAAA12I222IIIIIA1AA12IAA122IIAA12IIA1AA
A12A12AA122I2A12IA1IAA122AAAA12I222IIIIIA1AA12IAA122IIAA12IIA1AA
A12A12AA122I2A12IA12AA122AAAA12I222IIIIIA1AA12IAA122IIAA12IIA1AA
IIIIIIIIIIIIIIIIIIIIIIIIIIIIIIIIIIIIIIIIIIII2IIA11IIIIIIIIIIIIII
IIIIIIIIIIIIIIIIIIIIIIIIIIIIIIIIIIIIIIIIIIII22IAA11IIIIIIIIIIIII
A11IIIIIIIIIIIIIIIIIIIIIIIIIIIIIIIIIIIIIIIII22IAA11IIIIIIIIIIIII
A11IIIIIIIIIIIIIII2IIA11IIIIIIIIIIIIIIIIIIII22IAA11IIIIIIIIIIIII
A11IIIA12IIIIIIIII2IIA11IIIIIIIIIIIIIIIIIIII22IAA11IIIIIIIIIIIII
A11IIIA12IIIIIIIII2IIA11IIIA12IIIIIIIIIIIIII22IAA11IIIIIIIIIIIII
[...]
IIIIIIAA12IIIIIIIIIIIIIIIIAA12IIIIIIIIIIIIIIIIIAA12IIII11111AAII
IIIIIIAA12IIIIIIIIIIIIIIIIAA12IIIIIIIIIIIIIIIIIAA12IIIA11111AAII
IIIIIIAA12IIIIIIIIIIIIIIIIAAA12IIIIIIIIIIIIIIIIAA12IIIA11111AAII
IIIIIIAA12IIIIIIIIIIIIIIIIAAA12IIIIIIIIIA12IIIIAA12IIIA11111AAII
IIIIIIAA12IIIIIIIIIIIIIIIIAAA12IIIIIIIIIA1AIIIIAA12IIIA11111AAII
IIIIIIAA12IIIIIIIIIIIIIIIIAAA12IIIIIIIIIA1AIIIIAA12IIIA11111AAAI
IIIIIIAA12IIIIIIIIIIIIIIIIAAA12IIIIIIIIIA1AIIIIAA12IIIA11111AAAA
IIIIIIAA12IIIIIIIIIIIIIIIIAAA12IIIIIIIIIA1AAIIIAA12IIIA11111AAAA
IIIIIIAA12IIIAIIIIIIIIIIIIAAA12IIIIIIIIIA1AAIIIAA12IIIA11111AAAA
IIIIIIAA12IIIAIIIIIIIIIIIAAAA12IIIIIIIIIA1AAIIIAA12IIIA11111AAAA
A12IIIAA12IIIAIIIIIIIIIIIAAAA12IIIIIIIIIA1AAIIIAA12IIIA11111AAAA
A12IIIAA12IIIAIIIIIIIA12IAAAA12IIIIIIIIIA1AAIIIAA12IIIA11111AAAA
A12IIIAA12IIIAIIIA12IA12IAAAA12IIIIIIIIIA1AAIIIAA12IIIA11111AAAA
A121IIAA12IIIAIIIA12IA12IAAAA12IIIIIIIIIA1AAIIIAA12IIIA11111AAAA
A121IIAA12IIIAIIIA122A121AAAA12IIIIIIIIIA1AAIIIAA12IIIA11111AAAA
A121IIAA12IIIAIIIA122A111AAAA12IIIIIIIIIA1AAIIIAA12IIIA11111AAAA
A1211IAA12IIIAIIIA122A111AAAA12IIIIIIIIIA1AAIIIAA12IIIA11111AAAA
A1211IAA12IIIAIIIA122A111AAAA12IIIIIIIIIA1AAIIIAA121IIA11111AAAA
A1211IAA12IIIAIIIA122A111AAAA12IIIIIIIIIA1AA1IIAA121IIA11111AAAA
A1211IAA12IIIA1IIA122A111AAAA12IIIIIIIIIA1AA1IIAA121IIA11111AAAA
A1211IAA12II2A1IIA122A111AAAA12IIIIIIIIIA1AA1IIAA121IIA11111AAAA
A1211IAA12II2A1IIA122A111AAAA12II2IIIIIIA1AA1IIAA121IIA11111AAAA
A1211IAA12II2A1IIA122A111AAAA12I22IIIIIIA1AA1IIAA121IIA11111AAAA
A1211IAA11II2A1IIA122A111AAAA12I22IIIIIIA1AA1IIAA121IIA11111AAAA
A1211IAA11II2A1IIA122A111AAAA12I22IIIIIIA1AA1IIAA121I2A11111AAAA
A1211IAA11II2A1IIA122A111AAAA12I22IIIIIIA1AA1IIAA111I2A11111AAAA
A1211IAA11II2A1IIA122A111AAAA12I22IIIIIIA1AA11IAA111I2A11111AAAA
A1211IAA11II2A11IA122A111AAAA12I22IIIIIIA1AA11IAA111I2A11111AAAA
A1111IAA11II2A11IA122A111AAAA12I22IIIIIIA1AA11IAA111I2A11111AAAA
A1111IAA11II2A11IA112A111AAAA12I22IIIIIIA1AA11IAA111I2A11111AAAA
A1111IAA11II2A112A112A111AAAA12I22IIIIIIA1AA11IAA111I2A11111AAAA
A1111IAA11II2A112A112A111AAAA12I22I12IIIA1AA11IAA111I2A11111AAAA
A1111IAA11II2A112A112A111AAAA12I22I112IIA1AA11IAA111I2A11111AAAA
A1111IAA11II2A111A112A111AAAA12I22I112IIA1AA11IAA111I2A11111AAAA
A1111IAA11II2A111A112A111AAAA11I22I1112IA1AA11IAA111I2A11111AAAA
A1111IAA11II2A111A112A111AAAA11I22I1112AA1AA11IAA111I2A11111AAAA
A1111IAA11IIAA111A112A111AAAA11I22I1112AA1AA11IAA111I2A11111AAAA
A1A11IAA11IIAA111A112A111AAAA11I22I1112AA1AA11IAA111I2A11111AAAA
A1A11IAA11IIAA111A112A111AAAA11222I1112AA1AA11IAA111I2A11111AAAA
A1A11IAA11IIAA111A112A111AAAA1122221112AA1AA11IAA111I2A11111AAAA
A1A11IAA11IIAA111A112A111AAAA1122221112AA1AA112AA111I2A11111AAAA
A1A11IAA11IIAA111A11AA111AAAA1122221112AA1AA112AA111I2A11111AAAA
A1A11IAA11IIAA111A11AA111AAAA1122221112AA1AA112AA111I2AA1111AAAA
AAA11IAA11IIAA111A11AA111AAAA1122221112AA1AA112AA111I2AA1111AAAA
AAA11IAA11IIAA111A11AA111AAAA1122221111AA1AA112AA111I2AA1111AAAA
AAA11IAA1111AA111A11AA111AAAA1122221111AA1AA112AA111I2AA1111AAAA
AAA11IAA1111AA111A11AA111AAAA1122221111AA1AA111AA111I2AA1111AAAA
AAAA1IAA1111AA111A11AA111AAAA1122221111AA1AA111AA111I2AA1111AAAA
AAAA11AA1111AA111A11AA111AAAA1122221111AA1AA111AA111I2AA1111AAAA
AAAA11AA1111AA111A11AA111AAAA1122121111AA1AA111AA111I2AA1111AAAA
AAAA11AA1111AA111A11AA111AAAA1121121111AA1AA111AA111I2AA1111AAAA
AAAA11AA1111AA111A11AA111AAAA1121121111AA1AA111AA111I1AA1111AAAA
AAAA11AA1111AA111A11AA111AAAA1121121111AA1AA111AA11121AA1111AAAA
AAAA11AA1111AA111A11AA111AAAA1121121111AA1AA111AA11111AA1111AAAA
AAAA11AA1111AA111A11AA111AAAA1111121111AA1AA111AA11111AA1111AAAA
AAAA11AA1111AA111A11AA111AAAA1111111111AA1AA111AA11111AA1111AAAA
IIIIIIAII2IIIIIIIIIIIIIIIIIIIIIIIIIIIIIIIIIIIIIIIIIIIIIIIIIIIIII
IIIIIIAII2IIIIIIIIIIIIIIIIIAII2IIIIIIIIIIIIIIIIIIIIIIIIIIIIIIIII
IIIIIIAII2IIIIIIIIIIIIIIIIAAI22IIIIIIIIIIIIIIIIIIIIIIIIIIIIIIIII
IIIIIIAAI22IIIIIIIIIIIIIIIAAI22IIIIIIIIIIIIIIIIIIIIIIIIIIIIIIIII
IIIIIIAAI22IIIIIIIIIIIIIIIAAI22IIIIIIIIIIIIIIIIIIIIIIIAII2IIIIII
IIIIIIAAI22IIIIIIIIIIIIIIIAAI22IIIIIIIIIIIAII2IIIIIIIIAII2IIIIII
IIIIIIAAI22IIIIIIIIIIIIIIIAAI22IIIIIIIIIIIAII2IIIIIIIIAII2IIIIIA
IIIIIIAAI22IIIIIIIIIIIIIIIAAI22IIIIIIIIIIIAII2IIIIIIIIAII2IIIIAA
IIIIIIAAI22IIIIIIIIIIIIIIIAAI22IIIIIIIIIIIAAI22IIIIIIIAII2IIIIAA
IIIIIIAAI22IIAII2IIIIIIIIIAAI22IIIIIIIIIIIAAI22IIIIIIIAII2IIIIAA
IIIIIIAAI22IIAII2IIIIIIIIAAAI22IIIIIIIIIIIAAI22IIIIIIIAII2IIIIAA
IIIIIIAAI22IIAII2IIIIIIIIAAAI22IIIIIIIIIIIAAI22A1IIIIIAII2IIIIAA
IIIIIIAAI22IIAII2IIIIIIIIAAAI22IIIIIIIIIIIAAI22AA1IIIIAII2IIIIAA
A1IIIIAAI22IIAII2IIIIIIIIAAAI22IIIIIIIIIIIAAI22AA1IIIIAII2IIIIAA
A1IIIIAAI22IIAII2IIIIA1IIAAAI22IIIIIIIIIIIAAI22AA1IIIIAII2IIIIAA
A1IIIIAAI22IIAII2IIIIA1IIAAA122IIIIIIIIIIIAAI22AA1IIIIAII2IIIIAA
A1IIIIAA122IIAII2IIIIA1IIAAA122IIIIIIIIIIIAAI22AA1IIIIAII2IIIIAA
A1IIIIAA122IIAII2A1IIA1IIAAA122IIIIIIIIIIIAAI22AA1IIIIAII2IIIIAA
A1IIIIAA122IIAII2A1IIA1IIAAA122IIIIIIIIIIIAAI22AA1IIIIAII2IIAIAA
A1IIIIAA122IIAII2A1IIA1IIAAA122IIIIIIIIAIIAAI22AA1IIIIAII2IIAIAA
A1IIIIAA122IIAII2A1IIA1IIAAA122IIIIIIIIAAIAAI22AA1IIIIAII2IIAIAA
A1IIIIAA122IAAII2A1IIA1IIAAA122IIIIIIIIAAIAAI22AA1IIIIAII2IIAIAA
A1A12IAA122IAAII2A1IIA1IIAAA122IIIIIIIIAAIAAI22AA1IIIIAII2IIAIAA
A1A12IAA122IAAII2A1IIA1IIAAA122IIIIIIIIAA2AAI22AA1IIIIAII2IIAIAA
A1A12IAA122IAAII2A1IIA1IIAAA122IIIIIIIIAA1AAI22AA1IIIIAII2IIAIAA
A1A12IAA122IAA2I2A1IIA1IIAAA122IIIIIIIIAA1AAI22AA1IIIIAII2IIAIAA
A1A12IAA122IAA2I2A1IIA1IIAAA122IIIIIIIIAA1AAI22AA1IIIIAII2IIA1AA
A1A12IAA122IAA2I2A1IIA1IIAAA122IIIIIIIIAA1AAI22AA12IIIAII2IIA1AA
A1A12IAA122IAA2I2A1IIA1IIAAA122IIIIIIIIAA1AAI22AA12IIIA122IIA1AA
A1A12IAA122IAA2I2A1IIA1IIAAAA12IIIIIIIIAA1AAI22AA12IIIA122IIA1AA
A1A12IAA122IAA2I2A1IIA1IIAAAA12IIIIIIIIAA1AA222AA12IIIA122IIA1AA
A1A12IAA122IAA2I2A1IIA1IIAAAA12IIIIIIIIAA1AA122AA12IIIA122IIA1AA
A1A12IAA122IAA122A1IIA1IIAAAA12IIIIIIIIAA1AA122AA12IIIA122IIA1AA
A1A12IAA122IAA122A1IIA1IIAAAA122IIIIIIIAA1AA122AA12IIIA122IIA1AA
A1A12IAA122IAA122A1IIA1IIAAAA122I2IIIIIAA1AA122AA12IIIA122IIA1AA
A1A12IAA122IAA122A1IIA1IIAAAA12222IIIIIAA1AA122AA12IIIA122IIA1AA
A1A12IAA122IAA122A1IIA1IIAAAA12222IIIIIAA1AA122AA12II2A122IIA1AA
A1A12IAA122IAA122A1IIA1IIAAAA122222IIIIAA1AA122AA12II2A122IIA1AA
A1A12IAA122IAA122A12IA1IIAAAA122222IIIIAA1AA122AA12II2A122IIA1AA
A1A12IAA122IAA122A12IA1IIAAAA122222IIIIAA1AA122AA12II2A122IIAAAA
A1A12IAA122IAA122A12IA1IIAAAA122222I2IIAA1AA122AA12II2A122IIAAAA
A1A12IAA122IAA122A12IA1IIAAAA12222222IIAA1AA122AA12II2A122IIAAAA
A1A12IAA122IAA122A12IA1IIAAAA12222222IIAA1AA122AA122I2A122IIAAAA
A1A12IAA122IAA122A12AA1IIAAAA12222222IIAA1AA122AA122I2A122IIAAAA
A1A12IAA122IAA122A12AA1IIAAAA12222222IIAA1AA122AA122I2AA12IIAAAA
A1AA12AA1222AA122A12AA1IIAAAA12222222IIAA1AA122AA122I2AA12IIAAAA
A1AA12AA1222AA122A12AA12IAAAA12222222IIAA1AA122AA122I2AA12IIAAAA
IIIIIIAIIIIIIIIIIIIIIIIIIIIIIIIIIIIIIIIIIIIIIIIIIIIIIIIIIIIIIIII
IIIIIIAIIIIIIIIIIIIIIIIIIIIAIIIIIIIIIIIIIIIIIIIIIIIIIIIIIIIIIIII
IIIIIIAIIIIIIIIIIIIIIIIIIIAAIIIIIIIIIIIIIIIIIIIIIIIIIIIIIIIIIIII
IIIIIIAAIIIIIIIIIIIIIIIIIIAAIIIIIIIIIIIIIIIIIIIIIIIIIIIIIIIIIIII
IIIIIIAAIIIIIIIIIAIIIIIIIIAAIIIIIIIIIIIIIIIIIIIIIIIIIIIIIIIIIIII
11IIIIA11IIIIIIIIIIIIIIIIIIIIIIIIIIIIIIIIIIIIIIIIIIIIIIIIIIIIIII
11IIIIA11IIIIIIIIII2211IIIIA11IIIIIIIIIIIIIIIIIIIIIIIIIIIIIIIIII
11IIIIA11IIIIIIIII22111IIIAA11IIIIIIIIIIIIIIIIIIIIIIIIIIIIIIIIII
111IIIAA11IIIIIIII22111IIIAA11IIIIIIIIIIIIIIIIIIIIIIIIIIIIIIIIII
111IIIAA11211IIIIA11111IIIAA11IIIIIIIIIIIIIIIIIIIIIIIIIIIIIIIIII
111II2AA11211IIIIA11111IIIAA11IIIIIIIIIIIIIIIIIIIIIIIIIIIIIIIIII
111II2AA11211IIIIA11111II2AA11IIIIIIIIIIIIIIIIIIIIIIIIIIIIIIIIII
111II2AA11211III2A11111II2AA11IIIIIIIIIIIIIIIIIIIIIIIIIIIIIIIIII
111II2AA11211III2A11111II2AA11IIIIIIIIIIIIIIII2AIIIIIIIIIIIIIIII
111II2AA11211III2A11111II2AA11IIIIIIIIIIIIIIII2AAIIIIIIIIIIIIIII
111II2AA11211III2A11111II2AA11IIIIIIIIIIIIA1II2AAIIIIIIIIIIIIIII
111II2AA11211III2A11111II2AA11IIIIIIIIIIIIA1II2AAIIIIIIIIIIIIIIA
111II2AA11211III2A11111II2AA11IIIIIIIIIIIIA1II2AAIIIIIIIIIIIIIAA
111II2AA11211III2A11111II2AA11IIIIIIIIIIIIAA1I2AAIIIIIIIIIIIIIAA
111II2AA11211A1I2A11111II2AA11IIIIIIIIIIIIAA1I2AAIIIIIIIIIIIIIAA
A11II2AA11211A1I2A11111II2AA11IIIIIIIIIIIIAA1I2AAIIIIIIIIIIIIIAA
A11II2AA11211A1I2A111A1II2AA11IIIIIIIIIIIIAA1I2AAIIIIIIIIIIIIIAA
A11II2AA11211A1I2A111A1II2AA11IIIIIIIIIIIIAA1I2AA1IIIIIIIIIIIIAA
A11II2AA11211A1I2A111A1II2AA11IIIIIIIIIIIIAA1I2AA1IIIIA1IIIIIIAA
A11II2AA11211A1I2A111A1II2AA11IIIIIIIIIIIIAA122AA1IIIIA1IIIIIIAA
A11II2AA11211A122A111A1II2AA11IIIIIIIIIIIIAA122AA1IIIIA1IIIIIIAA
A11II2AA11211A122A111A1II2AA11IIIIIIIIIIIIAA122AA12IIIA1IIIIIIAA
A11II2AA11211A122A111A1II2AA11IIIIIIIIIIIIAA122AA12IIIA12IIIIIAA
A11II2AA11211A122A111A12I2AA11IIIIIIIIIIIIAA122AA12IIIA12IIIIIAA
A11II2AA11211A122A111A12I2AA11III2IIIIIIIIAA122AA12IIIA12IIIIIAA
A11II2AA11211A122A111A12I2AA11II22IIIIIIIIAA122AA12IIIA12IIIIIAA
A11II2AA11211A122A111A12I2AA11II22IIIIIIIIAA122AA12IIIA12IIIA1AA
A11II2AA11211A122A111A12I2AA11II22IIIIIIIIAA122AA12II2A12IIIA1AA
A11II2AA11211A122A111A12I2AAA1II222IIIIIIIAA122AA12II2A12IIIA1AA
A11II2AA11211A122A111A12I2AAA1II222IIIIIAIAA122AA12II2A12IIIA1AA
A11II2AA11211A122A111A12I2AAA1II222IIIIIAIAA122AA12II2A12IIIAAAA
A11II2AA11211A122A111A12IAAAA1II222IIIIIAIAA122AA12II2A12IIIAAAA
A11II2AA11211A122A111A12IAAAA1II2222IIIIAIAA122AA12II2A12IIIAAAA
A11II2AA11111A122A111A12IAAAA1II2222IIIIAIAA122AA12II2A12IIIAAAA
A11II2AA11111A122A111A12IAAAA1II2222IIIIAIAA111AA12II2A12IIIAAAA
A11II2AA11111A122A111A12IAAAA1112222IIIIAIAA111AA12II2A12IIIAAAA
A11II2AA11111A122A111A12IAAAA1111222IIIIAIAA111AA12II2A12IIIAAAA
A11II2AA11111A122A11AA111AAAA1111222IIIIAIAA111AA12II2A12IIIAAAA
A11II2AA11111A122A11AA111AAAA1111222IIIIAIAA111AA12II2AA2IIIAAAA
A11AI2AA11111A122A11AA111AAAA1111222IIIIAIAA111AA12II2AA2IIIAAAA
A11AI2AA11111A122A11AA111AAAA1111222IIIIAIAA111AA12II2AA2II2AAAA
A11AI2AA11111A122A11AA111AAAA1111222IIIIAIAA111AA122I2AA2II2AAAA
A11AI2AA11111A122A11AA111AAAA1111222IA1IAIAA111AA122I2AA2II2AAAA
A11AI2AA11111A122A11AA111AAAA1111222IA1IA1AA111AA122I2AA2II2AAAA
IIIIIIA1222IIIIIIIIIIIIIIIIIIIIIIIIIIIIIIIIIIIIIIIIIIIIIIIIIIIII
IIIIIIA1222IIIIIIIIIIIIIIIIA1222IIIIIIIIIIIIIIIIIIIIIIIIIIIIIIII
IIIIIIA1222IIIIIIIIIIIIIIIAA1222IIIIIIIIIIIIIIIIIIIIIIIIIIIIIIII
IIIIIIAA1222IIIIIIIIIIIIIIAA1222IIIIIIIIIIIIIIIIIIIIIIIIIIIIIIII
IIIIIIAA1222IIIIIIIIIIIIIIAA1222IIIIIIIIIIIIIIIIIIIIIIA1222IIIII
IIIIIIAA1222IIIIIIIIIIIIIIAA1222IIIIIIIIIIAIIIIIIIIIIIA1222IIIII
IIIIIIAA1222IIIIIIIIIIIIIIAA1222IIIIIIIIIIAIIIIIIIIIIIA1222IIIIA
IIIIIIAA1222IIIIIIIIIIIIIIAA1222IIIIIIIIIIAIIIIIIIIIIIA1222IIIAA
IIIIIIAA1222IIIIIIIIIIIIIIAA1222IIIIIIIIIIAAIIIIIIIIIIA1222IIIAA
IIIIIIAA1222IAIIIIIIIIIIIIAA1222IIIIIIIIIIAAIIIIIIIIIIA1222IIIAA
IIIIIIAA1222IAIIIIIIIIIIIIAA1222IIIIIIIIIIAAIIIAIIIIIIA1222IIIAA
IIIIIIAA1222IAIIIIIIIIIIIIAAA222IIIIIIIIIIAAIIIAIIIIIIA1222IIIAA
IIIIIIAA1222IAIIIIIIIIIIIIAAA222IIIIIIIIAIAAIIIAIIIIIIA1222IIIAA
IIIIIIAA1222IAIIIIIIIIIIIIAAA222IIIIIIIIAIAAIIIA12IIIIA1222IIIAA
IIIIIIAA1222IAIIIIIIIIIIIIAAA222IIIIIIIIAIAAIIIAA12IIIA1222IIIAA
IIIIIIAA1222IAIIIIIIIIIIIAAAA222IIIIIIIIAIAAIIIAA12IIIA1222IIIAA
A12IIIAA1222IAIIIIIIIIIIIAAAA222IIIIIIIIAIAAIIIAA12IIIA1222IIIAA
A12IIIAA1222IAIIIIIIIA12IAAAA222IIIIIIIIAIAAIIIAA12IIIA1222IIIAA
A12IIIAA1222IAIIIIIIIA12IAAAA222IIIIIIIIAIAAIIIAA12IIIA1222IA1AA
A12IIIAA12222AIIIIIIIA12IAAAA222IIIIIIIIAIAAIIIAA12IIIA1222IA1AA
A12IIIAA12222AIIIIIIIA12IAAAA222I2IIIIIIAIAAIIIAA12IIIA1222IA1AA
A12IIIAA12222AIIIIIIIA12IAAAA22222IIIIIIAIAAIIIAA12IIIA1222IA1AA
A12IIIAA12222AIIIAIIIA12IAAAA22222IIIIIIAIAAIIIAA12IIIA1222IA1AA
A12IIIAA12222AIIIAIIIA12IAAAA222A2IIII2IAIAAIIIAA12IIIA1222IA1AA
A12IIIAA12222AIIIA1IIA12IAAAA222A2IIII2IAIAAIIIAA12IIIA1222IA1AA
A12IIIAA12222AIIIA1IIA12IAAAA222A2IIII2IAIAAIIIAA122IIA1222IA1AA
A122IIAA12222AIIIA1IIA12IAAAA222A2IIII2IAIAAIIIAA122IIA1222IA1AA
A122IIAA12222AIIIA1IIA122AAAA222A2IIII2IAIAAIIIAA122IIA1222IA1AA
A122IIAA12222AIIIA122A122AAAA222A2IIII2IAIAAIIIAA122IIA1222IA1AA
A122IIAA12222AIIIA122A122AAAA222A2IIII2IAIAAIIIAA122I2A1222IA1AA
A122IIAA12222AIIIA122A122AAAA222A2IIII2IAIAA2IIAA122I2A1222IA1AA
A122IIAA12222AIIIA122A122AAAA222A2IIII2IAIAA12IAA122I2A1222IA1AA
A122IIAA12222AIIIA122A122AAAA222A2IIII2IAIAA12IAA122I2A1222IAAAA
A122IIAA12222A1IIA122A122AAAA222A2IIII2IAIAA12IAA122I2A1222IAAAA
A122IIAA12222A1IIA12AA122AAAA222A2IIII2IAIAA12IAA122I2A1222IAAAA
A122IIAA12222A1IIA12AA122AAAA222A2IIII2IAIAA12IAA122I2AA222IAAAA
A12AIIAA12222A1IIA12AA122AAAA222A2IIII2IAIAA12IAA122I2AA222IAAAA
A12AIIAA12222A1IIA12AA122AAAA222A2IIII2AAIAA12IAA122I2AA222IAAAA
A12AIIAA12222A1IIA12AA122AAAA222A2IIII2AAIAA122AA122I2AA222IAAAA
A12AIIAA1222AA1IIA12AA122AAAA222A2IIII2AAIAA122AA122I2AA222IAAAA
A1AA2IAA1222AA1IIA12AA122AAAA222A2IIII2AAIAA122AA122I2AA222IAAAA
A1AA2IAA1222AA1IIA12AA122AAAA222A22III2AAIAA122AA122I2AA222IAAAA
A1AA2IAA1222AA12IA12AA122AAAA222A22III2AAIAA122AA122I2AA222IAAAA
A1AA2IAA1222AA12IA12AA122AAAA222A222II2AAIAA122AA122I2AA222IAAAA
A1AA2IAA1222AA12IA12AA122AAAA122A2222I2AAIAA122AA122I2AA222IAAAA
A1AA2IAA1222AA12IA12AA122AAAA122A2222I2AA1AA122AA122I2AA222IAAAA
A1AA2IAA1222AA12IA12AA122AAAA122A2222A1AA1AA122AA122I2AA222IAAAA
A1AA2AAA1222AA12IA12AA122AAAA122A2222A1AA1AA122AA122I2AA222IAAAA
A1AA2AAA1222AA122A12AA122AAAA122A2222A1AA1AA122AA122I2AA222IAAAA
A1AA2AAA1222AA122A12AA122AAAA122A2222A1AA1AA122AA122A2AA222IAAAA
A1AA2AAA1222AA122A12AA122AAAA122A2222A1AA1AA122AA122A1AA222IAAAA
A1AA2AAA1222AA122A12AA122AAAA122A2222A1AA1AA122AA122A1AA122IAAAA
A1AA1AAA1222AA122A12AA122AAAA122A2222A1AA1AA122AA122A1AA122IAAAA
IIIIIIA11111111IIIIIIIIIIIIIIIIIIIIIIIIIIIIIIIIIIIIIIIIIIIIIIIII
IIIIIIA11111111IIIIIIIIIIIIA11111111IIIIIIIIIIIIIIIIIIIIIIIIIIII
IIIIIIA11111111IIIIIIIIIIIAA11111111IIIIIIIIIIIIIIIIIIIIIIIIIIII
IIIIIIAA11111111IIIIIIIIIIAA11111111IIIIIIIIIIIIIIIIIIIIIIIIIIII
A11111AA11111111IIIIIIIIIIAA11111111IIIIIIIIIIIIIIIIIIIIIIIIIIII
A11111AA11111111IIIIIA1111AA11111111IIIIIIIIIIIIIIIIIIIIIIIIIIII
A11111AA11111111IAIIIA1111AA11111111IIIIIIIIIIIIIIIIIIIIIIIIIIII
A11111AA11111111IAIIIA1111AA11111111IIIIIIIIIIIAIIIIIIIIIIIIIIII
A11111AA11111111IAIIIA1111AA11111111IIIIIIIIIIIAAIIIIIIIIIIIIIII
A11111AA11111111IAIIIA1111AA11111111IIIIIIIIIIIAAIIIIIAIIIIIIIII
A11111AA11111111IAIIIA1111AA11111111IIIIIIIIIIIAAIIIIIA12IIIIIII
A11111AA11111111IAIIIA1111AA11111111IIIIIIIIIIIAA12IIIA12IIIIIII
A11111AA11111111IAIIIA1111AAA1111111IIIIIIIIIIIAA12IIIA12IIIIIII
A11111AA11111111IAIIIA1111AAA1111111IIIIA12IIIIAA12IIIA12IIIIIII
A11111AA11111111IAIIIA111AAAA1111111IIIIA12IIIIAA12IIIA12IIIIIII
A11111AA11111111IAIIIA111AAAA1111111IIIIA1A12IIAA12IIIA12IIIIIII
A11111AA11111111IAIIIA111AAAA1111111IIIIA1A12IIAA12IIIA12IIIIIIA
A11111AA11111111IAIIIA111AAAA1111111IIIIA1A12IIAA12IIIA12IIIIIAA
A11111AA11111111IAIIIA111AAAA1111111IIIIA1AA12IAA12IIIA12IIIIIAA
A11111AA11111A11IAIIIA111AAAA1111111IIIIA1AA12IAA12IIIA12IIIIIAA
A11111AA11111A11IAIIIA111AAAA1111111IIIIA1AA12IAA12IIIA12IIIAIAA
A11111AA11111A11IAIIIA111AAAA1111111IIIIA1AA12IAA12IIIA12IIIAAAA
A11111AA11111A11IAIIIA111AAAA1111111IIIIA1AA12IAA122IIA12IIIAAAA
A11111AA11111A11IA12IA111AAAA1111111IIIIA1AA12IAA122IIA12IIIAAAA
A11111AA11111A11IA12IA111AAAA11111112IIIA1AA12IAA122IIA12IIIAAAA
A11111AA11111A11IA12IA111AAAA11111112IIIA1AA12IAA122I2A12IIIAAAA
A11111AA11111A11IA12IA111AAAA11111112IIIA1AA122AA122I2A12IIIAAAA
A11111AA11111A11IA12IA111AAAA11111112IIIA1AA111AA122I2A12IIIAAAA
A11111AA11111A11IA12IA111AAAA11111112IIIA1AA111AA11111A12IIIAAAA
A11111AA11111A11IA12IA111AAAA11111112IIIA1AA111AA11111A11IIIAAAA
A11111AA11111A11IA12IA111AAAA11111112IIIA1AA111AA11111A11111AAAA
A11111AA11111A11IA12IA111AAAA11111112II2A1AA111AA11111A11111AAAA
A11111AA11111A11IA12IA111AAAA11111112IIAA1AA111AA11111A11111AAAA
A11111AA1111AA11IA12IA111AAAA11111112IIAA1AA111AA11111A11111AAAA
A1A111AA1111AA11IA12IA111AAAA11111112IIAA1AA111AA11111A11111AAAA
A1A111AA1111AA11IA12AA111AAAA11111112IIAA1AA111AA11111A11111AAAA
A1A111AA1111AA11IA12AA111AAAA11111112IIAA1AA111AA11111AA1111AAAA
A1AA11AA1111AA11IA12AA111AAAA11111112IIAA1AA111AA11111AA1111AAAA
A1AA11AA1111AA11IA12AA111AAAA11111111IIAA1AA111AA11111AA1111AAAA
A1AA11AA1111AA111A12AA111AAAA11111111IIAA1AA111AA11111AA1111AAAA
A1AA11AA1111AA111A11AA111AAAA11111111IIAA1AA111AA11111AA1111AAAA
IIIIIIIIIIIIIIIIIIIIIIIIIIIIIIIIIIIIIIIIIIA111111111IIIIIIIIIIII
IIIIIIA111111111IIIIIIIIIIIIIIIIIIIIIIIIIIA111111111IIIIIIIIIIII
IIIIIIA111111111IIIIIIIIIIIA111111111IIIIIA111111111IIIIIIIIIIII
IIIIIIA111111111IIIIIIIIIIAA111111111IIIIIA111111111IIIIIIIIIIII
IIIIIIAA111111111IIIIIIIIIAA111111111IIIIIA111111111IIIIIIIIIIII
IIIIIIAA111111111IIIIIIIIIAA111111111IIIIIA111111111IIIIIIIIA111
IIIIIIAA111111111A11111111AA111111111IIIIIA111111111IIIIIIIIA111
IIIIIIAA111111111A11111111AA111111111IIIIIA1111A1111IIIIIIIIA111
IIIIIIAA111111111A11111111AA111111111IIIIIA1111AA111IIIIIIIIA111
IIIIIIAA111111111A11111111AA111111111IIIIIA1111AA111IIIIIIIIA11A
IIIIIIAA111111111A11111111AA111111111IIIIIA1111AA111IIIIIIIIA1AA
IIIIIIAA111111111A11111111AA111111111IIIIIAA111AA111IIIIIIIIA1AA
IIIIIIAA11111A111A11111111AA111111111IIIIIAA111AA111IIIIIIIIA1AA
A12IIIAA11111A111A11111111AA111111111IIIIIAA111AA111IIIIIIIIA1AA
A12IIIAA11111A111A111A1111AA111111111IIIIIAA111AA111IIIIIIIIA1AA
A12IIIAA11111A111A111A1111AA111111111IIIIIAA111AA111IIA12IIIA1AA
A12IIIAA11111A111A111A1111AA111111111IIIIIAA111AA111I2A12IIIA1AA
A12IIIAA11111A111A111A1111AAA11111111IIIIIAA111AA111I2A12IIIA1AA
A12IIIAA11111A111A111A1111AAA11111111IIIA1AA111AA111I2A12IIIA1AA
A12IIIAA11111A111A111A111AAAA11111111IIIA1AA111AA111I2A12IIIA1AA
A12IIIAA11111A111A111A111AAAA11111111222A1AA111AA111I2A12IIIA1AA
A12IIIAA11111A111A111A111AAAA11111111222A1AA111AA11122A12IIIA1AA
A12IIIAA11111A111A111A111AAAA11111111222A1AA111AA11122A12IIIAAAA
A12IIIAA11111A111A111A111AAAA11111111222A1AA111AA11122A122IIAAAA
A12IIIAA11111A111A11AA111AAAA11111111222A1AA111AA11122A122IIAAAA
A12IIIAA11111A111A11AA111AAAA11111111222A1AA111AA11122AA122IAAAA
A12A12AA11111A111A11AA111AAAA11111111222A1AA111AA11122AA122IAAAA
A12A12AA11111A111A11AA111AAAA1111111122AA1AA111AA11122AA122IAAAA
A12A12AA1111AA111A11AA111AAAA1111111122AA1AA111AA11122AA122IAAAA
A1AA12AA1111AA111A11AA111AAAA1111111122AA1AA111AA11122AA122IAAAA
A1AA12AA1111AA111A11AA111AAAA1111111122AA1AA111AA11122AA1111AAAA
A1AA12AA1111AA111A11AA111AAAA1111111122AA1AA111AA11111AA1111AAAA
A1AA11AA1111AA111A11AA111AAAA1111111122AA1AA111AA11111AA1111AAAA
A1AA11AA1111AA111A11AA111AAAA11111111A1AA1AA111AA11111AA1111AAAA
A1AA1AAA1111AA111A11AA111AAAA11111111A1AA1AA111AA11111AA1111AAAA
A1AA1AAA1111AA111A11AA111AAAA111A1111A1AA1AA111AA11111AA1111AAAA
[MLOP] Prefetch Degree Mean: 2.13816
[MLOP] Prefetch Degree SD: 2.04784
[MLOP] Max Score Left Mean (%): 16.6539
[MLOP] Max Score Left SD (%): 13.3197
[MLOP] Max Score Right Mean (%): 46.9614
[MLOP] Max Score Right SD (%): 15.5527

DRAM Statistics
 CHANNEL 0
 RQ ROW_BUFFER_HIT:     190611  ROW_BUFFER_MISS:     464766
 DBUS_CONGESTED:        695
 WQ ROW_BUFFER_HIT:      49474  ROW_BUFFER_MISS:     225494  FULL:          0

 AVG_CONGESTED_CYCLE: 5
 All warmup complete: 2
Channel 0 Bank busy for read cycles: 0
Channel 0 Bank busy for write cycles: 0
Channel 0
Rank 0
0banks busy for read cycles: 360580473
0banks busy for write cycles: 112131
1banks busy for read cycles: 33310081
1banks busy for write cycles: 15269867
2banks busy for read cycles: 8690726
2banks busy for write cycles: 4562201
3banks busy for read cycles: 3576990
3banks busy for write cycles: 2010810
4banks busy for read cycles: 1488418
4banks busy for write cycles: 1084458
5banks busy for read cycles: 771471
5banks busy for write cycles: 689484
6banks busy for read cycles: 509478
6banks busy for write cycles: 511677
7banks busy for read cycles: 325022
7banks busy for write cycles: 457320
8banks busy for read cycles: 344576
8banks busy for write cycles: 865373

CPU 0 Branch Prediction Accuracy: 99.1917% MPKI: 1.85351 Average ROB Occupancy at Mispredict: 20.2536
Branch types
NOT_BRANCH: 154137311 77.0687%
BRANCH_DIRECT_JUMP: 2061309 1.03065%
BRANCH_INDIRECT: 13234606 6.6173%
BRANCH_CONDITIONAL: 21736759 10.8684%
BRANCH_DIRECT_CALL: 1759418 0.879709%
BRANCH_INDIRECT_CALL: 2655183 1.32759%
BRANCH_RETURN: 4415072 2.20754%
BRANCH_OTHER: 0 0%

DRAM PAGES: 1048576
Allocated PAGES: 5379
