
*** ChampSim Multicore Out-of-Order Simulator ***

Warmup Instructions: 50000000
Simulation Instructions: 200000000
Number of CPUs: 1
LLC sets: 2048
LLC ways: 16
Off-chip DRAM Size: 4096 MB Channels: 1 Width: 64-bit Data Rate: 6400 MT/s
CPU 0 runs traces/spec2k17/client_007.champsimtrace.xz
.xz
BTB has LRU replacement policy
ITLB has LRU replacement policy
DTLB has LRU replacement policy
STLB has LRU replacement policy
L1I has LRU replacement policy
L1D has LRU replacement policy
Initialize SRRIP state for L2C
Initialize DRRIP state for LLC
Heartbeat CPU 0 instructions: 10000002 cycles: 2985192 heartbeat IPC: 3.34987 cumulative IPC: 3.34987 (Simulation time: 0 hr 0 min 40 sec) 
Heartbeat CPU 0 instructions: 20000003 cycles: 5852205 heartbeat IPC: 3.48795 cumulative IPC: 3.41752 (Simulation time: 0 hr 1 min 19 sec) 
Heartbeat CPU 0 instructions: 30000002 cycles: 8885810 heartbeat IPC: 3.29641 cumulative IPC: 3.37617 (Simulation time: 0 hr 2 min 6 sec) 
Heartbeat CPU 0 instructions: 40000001 cycles: 12114160 heartbeat IPC: 3.09756 cumulative IPC: 3.30192 (Simulation time: 0 hr 2 min 58 sec) 
Heartbeat CPU 0 instructions: 50000003 cycles: 14948486 heartbeat IPC: 3.52818 cumulative IPC: 3.34482 (Simulation time: 0 hr 3 min 41 sec) 

Warmup complete CPU 0 instructions: 50000003 cycles: 14948486 (Simulation time: 0 hr 3 min 41 sec) 

Heartbeat CPU 0 instructions: 60000000 cycles: 32817425 heartbeat IPC: 0.55963 cumulative IPC: 0.55963 (Simulation time: 0 hr 4 min 33 sec) 
Heartbeat CPU 0 instructions: 70000002 cycles: 49341764 heartbeat IPC: 0.605168 cumulative IPC: 0.581509 (Simulation time: 0 hr 5 min 38 sec) 
Heartbeat CPU 0 instructions: 80000000 cycles: 61266559 heartbeat IPC: 0.838589 cumulative IPC: 0.647695 (Simulation time: 0 hr 6 min 20 sec) 
Heartbeat CPU 0 instructions: 90000000 cycles: 80096837 heartbeat IPC: 0.53106 cumulative IPC: 0.613983 (Simulation time: 0 hr 7 min 14 sec) 
Heartbeat CPU 0 instructions: 100000000 cycles: 103185308 heartbeat IPC: 0.433117 cumulative IPC: 0.566657 (Simulation time: 0 hr 8 min 4 sec) 
*** Reached end of trace for Core: 0 Repeating trace: traces/spec2k17/client_007.champsimtrace.xz
Heartbeat CPU 0 instructions: 110000000 cycles: 125818536 heartbeat IPC: 0.441828 cumulative IPC: 0.541174 (Simulation time: 0 hr 8 min 57 sec) 
Heartbeat CPU 0 instructions: 120000000 cycles: 144718211 heartbeat IPC: 0.52911 cumulative IPC: 0.539417 (Simulation time: 0 hr 9 min 48 sec) 
Heartbeat CPU 0 instructions: 130000001 cycles: 162806414 heartbeat IPC: 0.552847 cumulative IPC: 0.54106 (Simulation time: 0 hr 10 min 46 sec) 
Heartbeat CPU 0 instructions: 140000003 cycles: 179656444 heartbeat IPC: 0.593471 cumulative IPC: 0.546422 (Simulation time: 0 hr 11 min 40 sec) 
Heartbeat CPU 0 instructions: 150000001 cycles: 197526965 heartbeat IPC: 0.559581 cumulative IPC: 0.54771 (Simulation time: 0 hr 12 min 33 sec) 
Heartbeat CPU 0 instructions: 160000000 cycles: 215894443 heartbeat IPC: 0.544441 cumulative IPC: 0.547411 (Simulation time: 0 hr 13 min 28 sec) 
Heartbeat CPU 0 instructions: 170000000 cycles: 231857328 heartbeat IPC: 0.626453 cumulative IPC: 0.553228 (Simulation time: 0 hr 14 min 29 sec) 
Heartbeat CPU 0 instructions: 180000001 cycles: 243776268 heartbeat IPC: 0.839001 cumulative IPC: 0.568113 (Simulation time: 0 hr 15 min 9 sec) 
Heartbeat CPU 0 instructions: 190000002 cycles: 261866182 heartbeat IPC: 0.552794 cumulative IPC: 0.566991 (Simulation time: 0 hr 15 min 57 sec) 
Heartbeat CPU 0 instructions: 200000003 cycles: 285178988 heartbeat IPC: 0.428949 cumulative IPC: 0.555082 (Simulation time: 0 hr 16 min 49 sec) 
*** Reached end of trace for Core: 0 Repeating trace: traces/spec2k17/client_007.champsimtrace.xz
Heartbeat CPU 0 instructions: 210000000 cycles: 306884888 heartbeat IPC: 0.460704 cumulative IPC: 0.548065 (Simulation time: 0 hr 17 min 47 sec) 
Heartbeat CPU 0 instructions: 220000000 cycles: 326957377 heartbeat IPC: 0.498194 cumulative IPC: 0.544856 (Simulation time: 0 hr 18 min 39 sec) 
Heartbeat CPU 0 instructions: 230000002 cycles: 345359650 heartbeat IPC: 0.543411 cumulative IPC: 0.544776 (Simulation time: 0 hr 19 min 30 sec) 
Heartbeat CPU 0 instructions: 240000000 cycles: 361726659 heartbeat IPC: 0.610985 cumulative IPC: 0.547901 (Simulation time: 0 hr 20 min 28 sec) 
Heartbeat CPU 0 instructions: 250000000 cycles: 378919370 heartbeat IPC: 0.581642 cumulative IPC: 0.549495 (Simulation time: 0 hr 21 min 26 sec) 
Finished CPU 0 instructions: 200000001 cycles: 363970885 cumulative IPC: 0.549495 (Simulation time: 0 hr 21 min 26 sec) 

ChampSim completed all CPUs

Region of Interest Statistics

CPU 0 cumulative IPC: 0.549495 instructions: 200000001 cycles: 363970885
ITLB TOTAL     ACCESS:   33010970  HIT:   32472742  MISS:     538228  HIT %:    98.3695  MISS %:    1.63045   MPKI: 2.69114
ITLB LOAD TRANSLATION ACCESS:   33010970  HIT:   32472742  MISS:     538228  HIT %:    98.3695  MISS %:    1.63045   MPKI: 2.69114
ITLB PREFETCH  REQUESTED:          0  ISSUED:          0  USEFUL:          0  USELESS:          0
ITLB USEFUL LOAD PREFETCHES:          0 PREFETCH ISSUED TO LOWER LEVEL:          0  ACCURACY: -nan
ITLB TIMELY PREFETCHES:          0 LATE PREFETCHES: 0 DROPPED PREFETCHES: 0
ITLB PREFETCHES SAME FILL-ORIGIN LEVEL: 0 DIFFERENT FILL-ORIGIN LEVEL: 0
ITLB AVERAGE MISS LATENCY: 9.78011 cycles
ITLB RQ	ACCESS:   38429020	FORWARD:          0	MERGED:    5321915	TO_CACHE:   33107105

DTLB TOTAL     ACCESS:   47467353  HIT:   46282131  MISS:    1185222  HIT %:    97.5031  MISS %:    2.49692   MPKI: 5.92611
DTLB LOAD TRANSLATION ACCESS:   47467353  HIT:   46282131  MISS:    1185222  HIT %:    97.5031  MISS %:    2.49692   MPKI: 5.92611
DTLB PREFETCH  REQUESTED:          0  ISSUED:          0  USEFUL:          0  USELESS:          0
DTLB USEFUL LOAD PREFETCHES:          0 PREFETCH ISSUED TO LOWER LEVEL:          0  ACCURACY: -nan
DTLB TIMELY PREFETCHES:          0 LATE PREFETCHES: 0 DROPPED PREFETCHES: 0
DTLB PREFETCHES SAME FILL-ORIGIN LEVEL: 0 DIFFERENT FILL-ORIGIN LEVEL: 0
DTLB AVERAGE MISS LATENCY: 10.2829 cycles
DTLB RQ	ACCESS:   58325833	FORWARD:          0	MERGED:   10800027	TO_CACHE:   47525806

STLB TOTAL     ACCESS:    2135484  HIT:    2118142  MISS:      17342  HIT %:    99.1879  MISS %:   0.812088   MPKI: 0.08671
STLB LOAD TRANSLATION ACCESS:    1723449  HIT:    1706107  MISS:      17342  HIT %:    98.9938  MISS %:    1.00624   MPKI: 0.08671
STLB TRANSLATION FROM L1D PREFETCHER ACCESS:     412035  HIT:     412035  MISS:          0  HIT %:        100  MISS %:          0   MPKI: 0
STLB PREFETCH  REQUESTED:          0  ISSUED:          0  USEFUL:          0  USELESS:          0
STLB USEFUL LOAD PREFETCHES:          0 PREFETCH ISSUED TO LOWER LEVEL:          0  ACCURACY: -nan
STLB TIMELY PREFETCHES:          0 LATE PREFETCHES: 0 DROPPED PREFETCHES: 0
STLB PREFETCHES SAME FILL-ORIGIN LEVEL: 0 DIFFERENT FILL-ORIGIN LEVEL: 0
STLB AVERAGE MISS LATENCY: 110.431 cycles
STLB RQ	ACCESS:    2575531	FORWARD:          0	MERGED:     440047	TO_CACHE:    2135484

STLB Hit, L1D data hit: 0
STLB Hit, L2C data hit: 0
STLB Hit, LLC data hit: 0
STLB Hit, LLC data miss: 0
STLB STLB hints to L2: 0
L1D TOTAL     ACCESS:   58160410  HIT:   55300457  MISS:    2859953  HIT %:    95.0826  MISS %:    4.91735   MPKI: 14.2998
L1D LOAD      ACCESS:   39086248  HIT:   36968837  MISS:    2117411  HIT %:    94.5827  MISS %:    5.41728   MPKI: 10.5871
L1D RFO       ACCESS:   18640703  HIT:   18289658  MISS:     351045  HIT %:    98.1168  MISS %:    1.88322   MPKI: 1.75522
L1D PREFETCH  ACCESS:     433459  HIT:      41962  MISS:     391497  HIT %:    9.68073  MISS %:    90.3193   MPKI: 1.95748
AGUS PREFETCH L1 MISS: 0
L1D PREFETCH  REQUESTED:    1708387  ISSUED:    1708387  USEFUL:     170614  USELESS:     220924
L1D USEFUL LOAD PREFETCHES:     170614 PREFETCH ISSUED TO LOWER LEVEL:     796312  ACCURACY: 21.4255
L1D TIMELY PREFETCHES:     170614 LATE PREFETCHES: 8023 DROPPED PREFETCHES: 0
L1D PREFETCHES SAME FILL-ORIGIN LEVEL: 401931 DIFFERENT FILL-ORIGIN LEVEL: 394381
L1D AVERAGE MISS LATENCY: 766762 cycles
L1D RQ	ACCESS:   53897420	FORWARD:          0	MERGED:   14499894	TO_CACHE:   39182595
L1D WQ	ACCESS:   20037205	FORWARD:     215218	MERGED:     893967	TO_CACHE:   19143238
L1D PQ	ACCESS:     856305	FORWARD:          0	MERGED:       3936	TO_CACHE:     852082

L1D UNIQUE REGIONS ACCESSED: 0
L1D REGIONS CONFLICTS: 0
L1D Cross Page Prefetch Requests: 0
L1D Same Page Prefetch Requests: 1069703
L1D ROI Sum of L1D PQ occupancy: 11296829
L1D PREFETCHES PUSHED FROM L2C: 0
L1I TOTAL     ACCESS:   37274710  HIT:   34051484  MISS:    3223226  HIT %:    91.3528  MISS %:    8.64722   MPKI: 16.1161
L1I LOAD      ACCESS:   37274710  HIT:   34051484  MISS:    3223226  HIT %:    91.3528  MISS %:    8.64722   MPKI: 16.1161
L1I PREFETCH  REQUESTED:          0  ISSUED:          0  USEFUL:          0  USELESS:          0
L1I USEFUL LOAD PREFETCHES:          0 PREFETCH ISSUED TO LOWER LEVEL:          0  ACCURACY: -nan
L1I TIMELY PREFETCHES:          0 LATE PREFETCHES: 0 DROPPED PREFETCHES: 0
L1I PREFETCHES SAME FILL-ORIGIN LEVEL: 0 DIFFERENT FILL-ORIGIN LEVEL: 0
L1I AVERAGE MISS LATENCY: 16.8489 cycles
L1I RQ	ACCESS:   58660504	FORWARD:          0	MERGED:   20231484	TO_CACHE:   38429020

BTB TOTAL     ACCESS:   28220063  HIT:   25973493  MISS:    2246570  HIT %:    92.0391  MISS %:     7.9609   MPKI: 11.2328
BTB BRANCH_DIRECT_JUMP	ACCESS:    2927002  HIT:    2902357  MISS:      24645
BTB BRANCH_INDIRECT	ACCESS:    6543248  HIT:    5490545  MISS:    1052703
BTB BRANCH_CONDITIONAL	ACCESS:   13206143  HIT:   13158296  MISS:      47847
BTB BRANCH_DIRECT_CALL	ACCESS:    1693524  HIT:    1661218  MISS:      32306
BTB BRANCH_INDIRECT_CALL	ACCESS:    1043280  HIT:     784064  MISS:     259216
BTB BRANCH_RETURN	ACCESS:    2806866  HIT:    1977013  MISS:     829853
BTB BRANCH_OTHER ACCESS:          0  HIT:          0  MISS:          0

L2C TOTAL     ACCESS:    7494435  HIT:    6408936  MISS:    1085499  HIT %:    85.5159  MISS %:    14.4841   MPKI: 5.42749
L2C LOAD      ACCESS:    5332184  HIT:    5009965  MISS:     322219  HIT %:    93.9571  MISS %:    6.04291   MPKI: 1.61109
L2C DATA LOAD MPKI: 1.29588
L2C INSTRUCTION LOAD MPKI: 0.315215
L2C RFO       ACCESS:     348756  HIT:     197955  MISS:     150801  HIT %:    56.7603  MISS %:    43.2397   MPKI: 0.754005
L2C PREFETCH  ACCESS:     783812  HIT:     185985  MISS:     597827  HIT %:    23.7283  MISS %:    76.2717   MPKI: 2.98913
AGUS PREFETCH L1 MISS: 0
L2C DATA PREFETCH MPKI: 2.98913
L2C INSTRUCTION PREFETCH MPKI: 0
L2C WRITEBACK ACCESS:    1011434  HIT:    1004354  MISS:       7080  HIT %:       99.3  MISS %:   0.699996   MPKI: 0.0354
L2C LOAD TRANSLATION ACCESS:      18249  HIT:      10677  MISS:       7572  HIT %:    58.5073  MISS %:    41.4927   MPKI: 0.03786
L2C PREFETCH  REQUESTED:          0  ISSUED:          0  USEFUL:     135383  USELESS:     461349
L2C USEFUL LOAD PREFETCHES:     135383 PREFETCH ISSUED TO LOWER LEVEL:     601160  ACCURACY: 22.5203
L2C TIMELY PREFETCHES:     135383 LATE PREFETCHES: 3333 DROPPED PREFETCHES: 0
L2C PREFETCHES SAME FILL-ORIGIN LEVEL: 348108 DIFFERENT FILL-ORIGIN LEVEL: 0
L2C AVERAGE MISS LATENCY: 133.237 cycles
L2C RQ	ACCESS:    5699628	FORWARD:          0	MERGED:          0	TO_CACHE:    5699189
L2C WQ	ACCESS:    1011434	FORWARD:        440	MERGED:          0	TO_CACHE:    1011434
L2C PQ	ACCESS:     791705	FORWARD:          0	MERGED:         14	TO_CACHE:     791690

L2C Instructions Evicting Data 53107
L2C Translations Evicting Data 6631
L2C Data Evicting Data 946218
L2C Instructions Evicting Instructions 9004
L2C Translations Evicting Instructions 797
L2C Data Evicting Instructions 54986
L2C Instructions Evicting Translations 932
L2C Translations Evicting Translations 144
L2C Data Evicting Translations 6600
L2C Dense regions hint from L2: 0
PSCL5 TOTAL     ACCESS:      17342  HIT:      17342  MISS:          0  HIT %:        100  MISS %:          0   MPKI: 0
PSCL5 LOAD TRANSLATION ACCESS:      17342  HIT:      17342  MISS:          0  HIT %:        100  MISS %:          0   MPKI: 0
PSCL5 PREFETCH  REQUESTED:          0  ISSUED:          0  USEFUL:          0  USELESS:          0
PSCL5 USEFUL LOAD PREFETCHES:          0 PREFETCH ISSUED TO LOWER LEVEL:          0  ACCURACY: -nan
PSCL5 TIMELY PREFETCHES:          0 LATE PREFETCHES: 0 DROPPED PREFETCHES: 0
PSCL5 PREFETCHES SAME FILL-ORIGIN LEVEL: 0 DIFFERENT FILL-ORIGIN LEVEL: 0

PSCL4 TOTAL     ACCESS:      16606  HIT:      16583  MISS:         23  HIT %:    99.8615  MISS %:   0.138504   MPKI: 0.000115
PSCL4 LOAD TRANSLATION ACCESS:      16606  HIT:      16583  MISS:         23  HIT %:    99.8615  MISS %:   0.138504   MPKI: 0.000115
PSCL4 PREFETCH  REQUESTED:          0  ISSUED:          0  USEFUL:          0  USELESS:          0
PSCL4 USEFUL LOAD PREFETCHES:          0 PREFETCH ISSUED TO LOWER LEVEL:          0  ACCURACY: -nan
PSCL4 TIMELY PREFETCHES:          0 LATE PREFETCHES: 0 DROPPED PREFETCHES: 0
PSCL4 PREFETCHES SAME FILL-ORIGIN LEVEL: 0 DIFFERENT FILL-ORIGIN LEVEL: 0

PSCL3 TOTAL     ACCESS:      16935  HIT:      16862  MISS:         73  HIT %:    99.5689  MISS %:    0.43106   MPKI: 0.000365
PSCL3 LOAD TRANSLATION ACCESS:      16935  HIT:      16862  MISS:         73  HIT %:    99.5689  MISS %:    0.43106   MPKI: 0.000365
PSCL3 PREFETCH  REQUESTED:          0  ISSUED:          0  USEFUL:          0  USELESS:          0
PSCL3 USEFUL LOAD PREFETCHES:          0 PREFETCH ISSUED TO LOWER LEVEL:          0  ACCURACY: -nan
PSCL3 TIMELY PREFETCHES:          0 LATE PREFETCHES: 0 DROPPED PREFETCHES: 0
PSCL3 PREFETCHES SAME FILL-ORIGIN LEVEL: 0 DIFFERENT FILL-ORIGIN LEVEL: 0

PSCL2 TOTAL     ACCESS:      17342  HIT:      16526  MISS:        816  HIT %:    95.2947  MISS %:    4.70534   MPKI: 0.00408
PSCL2 LOAD TRANSLATION ACCESS:      17342  HIT:      16526  MISS:        816  HIT %:    95.2947  MISS %:    4.70534   MPKI: 0.00408
PSCL2 PREFETCH  REQUESTED:          0  ISSUED:          0  USEFUL:          0  USELESS:          0
PSCL2 USEFUL LOAD PREFETCHES:          0 PREFETCH ISSUED TO LOWER LEVEL:          0  ACCURACY: -nan
PSCL2 TIMELY PREFETCHES:          0 LATE PREFETCHES: 0 DROPPED PREFETCHES: 0
PSCL2 PREFETCHES SAME FILL-ORIGIN LEVEL: 0 DIFFERENT FILL-ORIGIN LEVEL: 0

LLC TOTAL     ACCESS:    1403328  HIT:     698655  MISS:     704673  HIT %:    49.7856  MISS %:    50.2144   MPKI: 3.52336
LLC LOAD      ACCESS:     319758  HIT:     172890  MISS:     146868  HIT %:     54.069  MISS %:     45.931   MPKI: 0.73434
LLC RFO       ACCESS:     149928  HIT:      22220  MISS:     127708  HIT %:    14.8204  MISS %:    85.1796   MPKI: 0.63854
LLC PREFETCH  ACCESS:     601159  HIT:     195210  MISS:     405949  HIT %:    32.4723  MISS %:    67.5277   MPKI: 2.02974
AGUS PREFETCH L1 MISS: 0
LLC WRITEBACK ACCESS:     324911  HIT:     306615  MISS:      18296  HIT %:    94.3689  MISS %:    5.63108   MPKI: 0.09148
LLC LOAD TRANSLATION ACCESS:       7572  HIT:       1720  MISS:       5852  HIT %:    22.7153  MISS %:    77.2847   MPKI: 0.02926
LLC PREFETCH  REQUESTED:          0  ISSUED:          0  USEFUL:      51804  USELESS:     352696
LLC USEFUL LOAD PREFETCHES:      51804 PREFETCH ISSUED TO LOWER LEVEL:     405949  ACCURACY: 12.7612
LLC TIMELY PREFETCHES:      51804 LATE PREFETCHES: 0 DROPPED PREFETCHES: 0
LLC PREFETCHES SAME FILL-ORIGIN LEVEL: 0 DIFFERENT FILL-ORIGIN LEVEL: 0
LLC AVERAGE MISS LATENCY: 159.488 cycles
LLC RQ	ACCESS:     477259	FORWARD:          0	MERGED:          0	TO_CACHE:     477258
LLC WQ	ACCESS:     324911	FORWARD:          2	MERGED:          0	TO_CACHE:     324911
LLC PQ	ACCESS:     601160	FORWARD:          0	MERGED:          0	TO_CACHE:     601159

LLC Dense regions hint to LLC: 0

RAW hits: 2478553
Loads Generated: 56375973
Loads sent to L1D: 53897420
Stores Generated: 20037193
Stores sent to L1D: 20037205
Major fault: 0 Minor fault: 4494
Allocated PAGES: 4494
=== CPU 0 L1D Prefetcher Statistics ===
[MLOP] History of tracked zone:
IIIIIIIIIIIIIIIIIIIIIIIIIIIIIIIIIIIIIIIIIIIIIIIIIIIIIIIIIIIIIIII
AIIIIIIIIIIIIIIIIIIIIIIIIIIIIIIIIIIIIIIIIIIIIIIIIIIIIIIIIIIIIIII
AAIIIIIIIIIIIIIIIIIIIIIIIIIIIIIIIIIIIIIIIIIIIIIIIIIIIIIIIIIIIIII
AA1IIIIIIIIIIIIIIIIIIIIIIIIIIIIIIIIIIIIIIIIIIIIIIIIIIIIIIIIIIIII
AA12IIIIIIIIIIIIIIIIIIIIIIIIIIIIIIIIIIIIIIIIIIIIIIIIIIIIIIIIIIII
A112222I22IIIIIIIIIIIIIIIIIIIIIIIIIIIIIIIIIIIIIIIIIIIIIIIIIIIIII
AA112222222IIIIIIIIIIIIIIIIIIIIIIIIIIIIIIIIIIIIIIIIIIIIIIIIIIIII
AA1122222222I2IIIIIIIIIIIIIIIIIIIIIIIIIIIIIIIIIIIIIIIIIIIIIIIIII
AA1112222222222IIIIIIIIIIIIIIIIIIIIIIIIIIIIIIIIIIIIIIIIIIIIIIIII
AII1IIIIII1I12III2IIIIIIIIIIIIIIIIIIIIIIIIIIIIIIIIIIIIIIIIIIIIII
AAI11IIIII11112II22IIIIIIIIIIIIIIIIIIIIIIIIIIIIIIIIIIIIIIIIIIIII
AA111IIIII11112II22IIIIIIIIIIIIIIIIIIIIIIIIIIIIIIIIIIIIIIIIIIIII
AA1112III211112II22IIIIIIIIIIIIIIIIIIIIIIIIIIIIIIIIIIIIIIIIIIIII
AA11122II211112II22IIIIIIIIIIIIIIIIIIIIIIIIIIIIIIIIIIIIIIIIIIIII
AA11122II2111122I22IIIIIIIIIIIIIIIIIIIIIIIIIIIIIIIIIIIIIIIIIIIII
AA111222I2111122I22IIIIIIIIIIIIIIIIIIIIIIIIIIIIIIIIIIIIIIIIIIIII
AA11122222111122I22IIIIIIIIIIIIIIIIIIIIIIIIIIIIIIIIIIIIIIIIIIIII
AI1I1I111111111IIIIIIIIIIIIIIIIIIIIIIIIIIIIIIIIIIIIIIIIIIIIIIIII
AA111111111111111IIIIIIIIIIIIIIIIIIIIIIIIIIIIIIIIIIIIIIIIIIIIIII
A12IIIIIIIIIIIIIIIIIIIIIIIIIIIIIIIIIIIIIIIIIIIIIIIIIIIIIIIIIIIII
AA12IIIIIIIIIIIIIIIIIIIIIIIIIIIIIIIIIIIIIIIIIIIIIIIIIIIIIIIIIIII
AI2I2I2IIIIIIIIIIIIIIIIIIIIIIIIIIIIIIIIIIIIIIIIIIIIIIIIIIIIIIIII
AA222222IIIIIIIIIIIIIIIIIIIIIIIIIIIIIIIIIIIIIIIIIIIIIIIIIIIIIIII
AA122222IIIIIIIIIIIIIIIIIIIIIIIIIIIIIIIIIIIIIIIIIIIIIIIIIIIIIIII
AA1222222IIIIIIIIIIIIIIIIIIIIIIIIIIIIIIIIIIIIIIIIIIIIIIIIIIIIIII
AA1122222IIIIIIIIIIIIIIIIIIIIIIIIIIIIIIIIIIIIIIIIIIIIIIIIIIIIIII
A1I1IIIIIII12IIIIIIIIIIIIIIIIIIIIIIIIIIIIIIIIIIIIIIIIIIIIIIIIIII
AA111IIIIII112IIIIIIIIIIIIIIIIIIIIIIIIIIIIIIIIIIIIIIIIIIIIIIIIII
AA11122II2I112IIIIIIIIIIIIIIIIIIIIIIIIIIIIIIIIIIIIIIIIIIIIIIIIII
AA111222I22112IIIIIIIIIIIIIIIIIIIIIIIIIIIIIIIIIIIIIIIIIIIIIIIIII
AA111222222112IIIIIIIIIIIIIIIIIIIIIIIIIIIIIIIIIIIIIIIIIIIIIIIIII
AA11112222211222IIIIIIIIIIIIIIIIIIIIIIIIIIIIIIIIIIIIIIIIIIIIIIII
AA111112222112222IIIIIIIIIIIIIIIIIIIIIIIIIIIIIIIIIIIIIIIIIIIIIII
A11I1I1111111111IIIIIIIIIIIIIIIIIIIIIIIIIIIIIIIIIIIIIIIIIIIIIIII
AA111111111111111IIIIIIIIIIIIIIIIIIIIIIIIIIIIIIIIIIIIIIIIIIIIIII
AA1111111111111111IIIIIIIIIIIIIIIIIIIIIIIIIIIIIIIIIIIIIIIIIIIIII
A12IIIIIIIIIIIIIIIIIIIIIIIIIIIIIIIIIIIIIIIIIIIIIIIIIIIIIIIIIIIII
AA12IIIIIIIIIIIIIIIIIIIIIIIIIIIIIIIIIIIIIIIIIIIIIIIIIIIIIIIIIIII
AII1I22IIIIIIIIIIIIIIIIIIIIIIIIIIIIIIIIIIIIIIIIIIIIIIIIIIIIIIIII
AAI11222IIIIIIIIIIIIIIIIIIIIIIIIIIIIIIIIIIIIIIIIIIIIIIIIIIIIIIII
AA211222IIIIIIIIIIIIIIIIIIIIIIIIIIIIIIIIIIIIIIIIIIIIIIIIIIIIIIII
AA111222IIIIIIIIIIIIIIIIIIIIIIIIIIIIIIIIIIIIIIIIIIIIIIIIIIIIIIII
AA1112222IIIIIIIIIIIIIIIIIIIIIIIIIIIIIIIIIIIIIIIIIIIIIIIIIIIIIII
AA1112222222222IIIIIIIIIIIIIIIIIIIIIIIIIIIIIIIIIIIIIIIIIIIIIIIII
AA11122222222222IIIIIIIIIIIIIIIIIIIIIIIIIIIIIIIIIIIIIIIIIIIIIIII
[MLOP] Prefetch Degree Mean: 3.06831
[MLOP] Prefetch Degree SD: 2.03022
[MLOP] Max Score Left Mean (%): 27.6256
[MLOP] Max Score Left SD (%): 12.4634
[MLOP] Max Score Right Mean (%): 48.466
[MLOP] Max Score Right SD (%): 13.0695

DRAM Statistics
 CHANNEL 0
 RQ ROW_BUFFER_HIT:     196646  ROW_BUFFER_MISS:     489712
 DBUS_CONGESTED:        697
 WQ ROW_BUFFER_HIT:      47951  ROW_BUFFER_MISS:     211515  FULL:          0

 AVG_CONGESTED_CYCLE: 5
 All warmup complete: 2
Channel 0 Bank busy for read cycles: 0
Channel 0 Bank busy for write cycles: 0
Channel 0
Rank 0
0banks busy for read cycles: 296538095
0banks busy for write cycles: 90672
1banks busy for read cycles: 25664413
1banks busy for write cycles: 11812734
2banks busy for read cycles: 9456049
2banks busy for write cycles: 4185331
3banks busy for read cycles: 4248088
3banks busy for write cycles: 2211167
4banks busy for read cycles: 2333039
4banks busy for write cycles: 1311686
5banks busy for read cycles: 1256879
5banks busy for write cycles: 874251
6banks busy for read cycles: 696594
6banks busy for write cycles: 670639
7banks busy for read cycles: 467990
7banks busy for write cycles: 607520
8banks busy for read cycles: 376699
8banks busy for write cycles: 1169040

CPU 0 Branch Prediction Accuracy: 98.8408% MPKI: 2.00119 Average ROB Occupancy at Mispredict: 27.4594
Branch types
NOT_BRANCH: 165473054 82.7365%
BRANCH_DIRECT_JUMP: 2927002 1.4635%
BRANCH_INDIRECT: 6543248 3.27162%
BRANCH_CONDITIONAL: 19512693 9.75635%
BRANCH_DIRECT_CALL: 1693524 0.846762%
BRANCH_INDIRECT_CALL: 1043280 0.52164%
BRANCH_RETURN: 2806866 1.40343%
BRANCH_OTHER: 0 0%

DRAM PAGES: 1048576
Allocated PAGES: 4494
