
*** ChampSim Multicore Out-of-Order Simulator ***

Warmup Instructions: 50000000
Simulation Instructions: 200000000
Number of CPUs: 1
LLC sets: 2048
LLC ways: 16
Off-chip DRAM Size: 4096 MB Channels: 1 Width: 64-bit Data Rate: 6400 MT/s
CPU 0 runs traces/spec2k17/server_020.champsimtrace.xz
.xz
BTB has LRU replacement policy
ITLB has LRU replacement policy
DTLB has LRU replacement policy
STLB has LRU replacement policy
L1I has LRU replacement policy
L1D has LRU replacement policy
Initialize SRRIP state for L2C
Initialize DRRIP state for LLC
Heartbeat CPU 0 instructions: 10000000 cycles: 2941000 heartbeat IPC: 3.4002 cumulative IPC: 3.4002 (Simulation time: 0 hr 0 min 45 sec) 
Heartbeat CPU 0 instructions: 20000001 cycles: 5878827 heartbeat IPC: 3.40388 cumulative IPC: 3.40204 (Simulation time: 0 hr 1 min 30 sec) 
Heartbeat CPU 0 instructions: 30000000 cycles: 8817543 heartbeat IPC: 3.40285 cumulative IPC: 3.40231 (Simulation time: 0 hr 2 min 13 sec) 
Heartbeat CPU 0 instructions: 40000003 cycles: 11756385 heartbeat IPC: 3.4027 cumulative IPC: 3.40241 (Simulation time: 0 hr 2 min 59 sec) 
Heartbeat CPU 0 instructions: 50000000 cycles: 14692714 heartbeat IPC: 3.40561 cumulative IPC: 3.40305 (Simulation time: 0 hr 3 min 42 sec) 

Warmup complete CPU 0 instructions: 50000004 cycles: 14692715 (Simulation time: 0 hr 3 min 42 sec) 

Heartbeat CPU 0 instructions: 60000002 cycles: 34005182 heartbeat IPC: 0.5178 cumulative IPC: 0.5178 (Simulation time: 0 hr 4 min 53 sec) 
Heartbeat CPU 0 instructions: 70000000 cycles: 53250724 heartbeat IPC: 0.519601 cumulative IPC: 0.518699 (Simulation time: 0 hr 6 min 0 sec) 
Heartbeat CPU 0 instructions: 80000001 cycles: 72568395 heartbeat IPC: 0.517661 cumulative IPC: 0.518352 (Simulation time: 0 hr 7 min 13 sec) 
Heartbeat CPU 0 instructions: 90000001 cycles: 91871544 heartbeat IPC: 0.51805 cumulative IPC: 0.518277 (Simulation time: 0 hr 8 min 20 sec) 
Heartbeat CPU 0 instructions: 100000000 cycles: 111033906 heartbeat IPC: 0.521856 cumulative IPC: 0.518989 (Simulation time: 0 hr 9 min 27 sec) 
*** Reached end of trace for Core: 0 Repeating trace: traces/spec2k17/server_020.champsimtrace.xz
Heartbeat CPU 0 instructions: 110000000 cycles: 130313433 heartbeat IPC: 0.518685 cumulative IPC: 0.518938 (Simulation time: 0 hr 10 min 33 sec) 
Heartbeat CPU 0 instructions: 120000001 cycles: 149445591 heartbeat IPC: 0.52268 cumulative IPC: 0.519469 (Simulation time: 0 hr 11 min 40 sec) 
Heartbeat CPU 0 instructions: 130000001 cycles: 168632866 heartbeat IPC: 0.521179 cumulative IPC: 0.519682 (Simulation time: 0 hr 12 min 49 sec) 
Heartbeat CPU 0 instructions: 140000000 cycles: 187653080 heartbeat IPC: 0.525756 cumulative IPC: 0.52035 (Simulation time: 0 hr 13 min 45 sec) 
Heartbeat CPU 0 instructions: 150000000 cycles: 206756480 heartbeat IPC: 0.523467 cumulative IPC: 0.52066 (Simulation time: 0 hr 14 min 47 sec) 
Heartbeat CPU 0 instructions: 160000002 cycles: 226221777 heartbeat IPC: 0.513735 cumulative IPC: 0.520023 (Simulation time: 0 hr 15 min 57 sec) 
Heartbeat CPU 0 instructions: 170000001 cycles: 245463744 heartbeat IPC: 0.519697 cumulative IPC: 0.519996 (Simulation time: 0 hr 17 min 9 sec) 
Heartbeat CPU 0 instructions: 180000001 cycles: 264583226 heartbeat IPC: 0.523027 cumulative IPC: 0.520228 (Simulation time: 0 hr 18 min 14 sec) 
Heartbeat CPU 0 instructions: 190000000 cycles: 283835332 heartbeat IPC: 0.519424 cumulative IPC: 0.52017 (Simulation time: 0 hr 19 min 26 sec) 
Heartbeat CPU 0 instructions: 200000003 cycles: 302983457 heartbeat IPC: 0.522245 cumulative IPC: 0.520308 (Simulation time: 0 hr 20 min 35 sec) 
Heartbeat CPU 0 instructions: 210000001 cycles: 322194436 heartbeat IPC: 0.520536 cumulative IPC: 0.520322 (Simulation time: 0 hr 21 min 40 sec) 
*** Reached end of trace for Core: 0 Repeating trace: traces/spec2k17/server_020.champsimtrace.xz
Heartbeat CPU 0 instructions: 220000000 cycles: 341338853 heartbeat IPC: 0.522345 cumulative IPC: 0.520441 (Simulation time: 0 hr 22 min 48 sec) 
Heartbeat CPU 0 instructions: 230000001 cycles: 360340332 heartbeat IPC: 0.526275 cumulative IPC: 0.520762 (Simulation time: 0 hr 23 min 50 sec) 
Heartbeat CPU 0 instructions: 240000000 cycles: 379563403 heartbeat IPC: 0.520208 cumulative IPC: 0.520732 (Simulation time: 0 hr 25 min 2 sec) 
Heartbeat CPU 0 instructions: 250000000 cycles: 398666264 heartbeat IPC: 0.523482 cumulative IPC: 0.520869 (Simulation time: 0 hr 26 min 1 sec) 
Finished CPU 0 instructions: 200000000 cycles: 383973558 cumulative IPC: 0.520869 (Simulation time: 0 hr 26 min 1 sec) 

ChampSim completed all CPUs

Region of Interest Statistics

CPU 0 cumulative IPC: 0.520869 instructions: 200000000 cycles: 383973558
ITLB TOTAL     ACCESS:   33708856  HIT:   32216322  MISS:    1492534  HIT %:    95.5723  MISS %:    4.42772   MPKI: 7.46267
ITLB LOAD TRANSLATION ACCESS:   33708856  HIT:   32216322  MISS:    1492534  HIT %:    95.5723  MISS %:    4.42772   MPKI: 7.46267
ITLB PREFETCH  REQUESTED:          0  ISSUED:          0  USEFUL:          0  USELESS:          0
ITLB USEFUL LOAD PREFETCHES:          0 PREFETCH ISSUED TO LOWER LEVEL:          0  ACCURACY: -nan
ITLB TIMELY PREFETCHES:          0 LATE PREFETCHES: 0 DROPPED PREFETCHES: 0
ITLB PREFETCHES SAME FILL-ORIGIN LEVEL: 0 DIFFERENT FILL-ORIGIN LEVEL: 0
ITLB AVERAGE MISS LATENCY: 9.44927 cycles
ITLB RQ	ACCESS:   40537308	FORWARD:          0	MERGED:    6347022	TO_CACHE:   34190286

DTLB TOTAL     ACCESS:   40086172  HIT:   38516304  MISS:    1569868  HIT %:    96.0838  MISS %:    3.91623   MPKI: 7.84934
DTLB LOAD TRANSLATION ACCESS:   40086172  HIT:   38516304  MISS:    1569868  HIT %:    96.0838  MISS %:    3.91623   MPKI: 7.84934
DTLB PREFETCH  REQUESTED:          0  ISSUED:          0  USEFUL:          0  USELESS:          0
DTLB USEFUL LOAD PREFETCHES:          0 PREFETCH ISSUED TO LOWER LEVEL:          0  ACCURACY: -nan
DTLB TIMELY PREFETCHES:          0 LATE PREFETCHES: 0 DROPPED PREFETCHES: 0
DTLB PREFETCHES SAME FILL-ORIGIN LEVEL: 0 DIFFERENT FILL-ORIGIN LEVEL: 0
DTLB AVERAGE MISS LATENCY: 16.0504 cycles
DTLB RQ	ACCESS:   60631937	FORWARD:          0	MERGED:   20149827	TO_CACHE:   40482110

STLB TOTAL     ACCESS:    4977399  HIT:    4854908  MISS:     122491  HIT %:    97.5391  MISS %:    2.46094   MPKI: 0.612455
STLB LOAD TRANSLATION ACCESS:    3062402  HIT:    2939911  MISS:     122491  HIT %:    96.0002  MISS %:    3.99983   MPKI: 0.612455
STLB TRANSLATION FROM L1D PREFETCHER ACCESS:    1914997  HIT:    1914997  MISS:          0  HIT %:        100  MISS %:          0   MPKI: 0
STLB PREFETCH  REQUESTED:          0  ISSUED:          0  USEFUL:          0  USELESS:          0
STLB USEFUL LOAD PREFETCHES:          0 PREFETCH ISSUED TO LOWER LEVEL:          0  ACCURACY: -nan
STLB TIMELY PREFETCHES:          0 LATE PREFETCHES: 0 DROPPED PREFETCHES: 0
STLB PREFETCHES SAME FILL-ORIGIN LEVEL: 0 DIFFERENT FILL-ORIGIN LEVEL: 0
STLB AVERAGE MISS LATENCY: 95.6262 cycles
STLB RQ	ACCESS:    8593353	FORWARD:          0	MERGED:    3615954	TO_CACHE:    4977399

STLB Hit, L1D data hit: 0
STLB Hit, L2C data hit: 0
STLB Hit, LLC data hit: 0
STLB Hit, LLC data miss: 0
STLB STLB hints to L2: 0
L1D TOTAL     ACCESS:   53524353  HIT:   44266451  MISS:    9257902  HIT %:    82.7034  MISS %:    17.2966   MPKI: 46.2895
L1D LOAD      ACCESS:   26923650  HIT:   24397340  MISS:    2526310  HIT %:    90.6168  MISS %:    9.38324   MPKI: 12.6316
L1D RFO       ACCESS:   22297904  HIT:   18809232  MISS:    3488672  HIT %:    84.3543  MISS %:    15.6457   MPKI: 17.4434
L1D PREFETCH  ACCESS:    4302799  HIT:    1059879  MISS:    3242920  HIT %:    24.6323  MISS %:    75.3677   MPKI: 16.2146
AGUS PREFETCH L1 MISS: 0
L1D PREFETCH  REQUESTED:   11073481  ISSUED:   11073481  USEFUL:     964143  USELESS:    2278756
L1D USEFUL LOAD PREFETCHES:     964143 PREFETCH ISSUED TO LOWER LEVEL:    4304403  ACCURACY: 22.399
L1D TIMELY PREFETCHES:     964143 LATE PREFETCHES: 343076 DROPPED PREFETCHES: 0
L1D PREFETCHES SAME FILL-ORIGIN LEVEL: 3588120 DIFFERENT FILL-ORIGIN LEVEL: 716283
L1D AVERAGE MISS LATENCY: 7.74072e+06 cycles
L1D RQ	ACCESS:   45241546	FORWARD:          0	MERGED:   17755848	TO_CACHE:   27231499
L1D WQ	ACCESS:   33586965	FORWARD:     254222	MERGED:     186527	TO_CACHE:   33400438
L1D PQ	ACCESS:    5542530	FORWARD:          0	MERGED:      11556	TO_CACHE:    5530951

L1D UNIQUE REGIONS ACCESSED: 0
L1D REGIONS CONFLICTS: 0
L1D Cross Page Prefetch Requests: 0
L1D Same Page Prefetch Requests: 6897890
L1D ROI Sum of L1D PQ occupancy: 79242500
L1D PREFETCHES PUSHED FROM L2C: 0
L1I TOTAL     ACCESS:   37921025  HIT:   28999733  MISS:    8921292  HIT %:     76.474  MISS %:     23.526   MPKI: 44.6065
L1I LOAD      ACCESS:   37921025  HIT:   28999733  MISS:    8921292  HIT %:     76.474  MISS %:     23.526   MPKI: 44.6065
L1I PREFETCH  REQUESTED:          0  ISSUED:          0  USEFUL:          0  USELESS:          0
L1I USEFUL LOAD PREFETCHES:          0 PREFETCH ISSUED TO LOWER LEVEL:          0  ACCURACY: -nan
L1I TIMELY PREFETCHES:          0 LATE PREFETCHES: 0 DROPPED PREFETCHES: 0
L1I PREFETCHES SAME FILL-ORIGIN LEVEL: 0 DIFFERENT FILL-ORIGIN LEVEL: 0
L1I AVERAGE MISS LATENCY: 16.9689 cycles
L1I RQ	ACCESS:   58686204	FORWARD:          0	MERGED:   18148896	TO_CACHE:   40537308

BTB TOTAL     ACCESS:   25748402  HIT:   24111404  MISS:    1636998  HIT %:    93.6423  MISS %:    6.35767   MPKI: 8.18499
BTB BRANCH_DIRECT_JUMP	ACCESS:    1705434  HIT:    1695554  MISS:       9880
BTB BRANCH_INDIRECT	ACCESS:    9970641  HIT:    9389854  MISS:     580787
BTB BRANCH_CONDITIONAL	ACCESS:    7278514  HIT:    7264968  MISS:      13546
BTB BRANCH_DIRECT_CALL	ACCESS:    2773558  HIT:    2740277  MISS:      33281
BTB BRANCH_INDIRECT_CALL	ACCESS:     623355  HIT:     515242  MISS:     108113
BTB BRANCH_RETURN	ACCESS:    3396900  HIT:    2505509  MISS:     891391
BTB BRANCH_OTHER ACCESS:          0  HIT:          0  MISS:          0

L2C TOTAL     ACCESS:   23293657  HIT:   14068184  MISS:    9225473  HIT %:    60.3949  MISS %:    39.6051   MPKI: 46.1274
L2C LOAD      ACCESS:   11103862  HIT:    9364433  MISS:    1739429  HIT %:    84.3349  MISS %:    15.6651   MPKI: 8.69715
L2C DATA LOAD MPKI: 5.47728
L2C INSTRUCTION LOAD MPKI: 3.21986
L2C RFO       ACCESS:    3486400  HIT:     137590  MISS:    3348810  HIT %:    3.94648  MISS %:    96.0535   MPKI: 16.7441
L2C PREFETCH  ACCESS:    4216262  HIT:     247027  MISS:    3969235  HIT %:    5.85891  MISS %:    94.1411   MPKI: 19.8462
AGUS PREFETCH L1 MISS: 0
L2C DATA PREFETCH MPKI: 19.8462
L2C INSTRUCTION PREFETCH MPKI: 0
L2C WRITEBACK ACCESS:    4351375  HIT:    4259381  MISS:      91994  HIT %:    97.8859  MISS %:    2.11414   MPKI: 0.45997
L2C LOAD TRANSLATION ACCESS:     135758  HIT:      59753  MISS:      76005  HIT %:    44.0143  MISS %:    55.9857   MPKI: 0.380025
L2C PREFETCH  REQUESTED:          0  ISSUED:          0  USEFUL:     290211  USELESS:    3677691
L2C USEFUL LOAD PREFETCHES:     290211 PREFETCH ISSUED TO LOWER LEVEL:    3999295  ACCURACY: 7.25655
L2C TIMELY PREFETCHES:     290211 LATE PREFETCHES: 30060 DROPPED PREFETCHES: 0
L2C PREFETCHES SAME FILL-ORIGIN LEVEL: 689197 DIFFERENT FILL-ORIGIN LEVEL: 0
L2C AVERAGE MISS LATENCY: 144.519 cycles
L2C RQ	ACCESS:   14726833	FORWARD:          0	MERGED:          0	TO_CACHE:   14726021
L2C WQ	ACCESS:    4351375	FORWARD:        812	MERGED:          0	TO_CACHE:    4351375
L2C PQ	ACCESS:    4304403	FORWARD:          0	MERGED:        617	TO_CACHE:    4303786

L2C Instructions Evicting Data 589787
L2C Translations Evicting Data 70134
L2C Data Evicting Data 7761839
L2C Instructions Evicting Instructions 49287
L2C Translations Evicting Instructions 5152
L2C Data Evicting Instructions 581975
L2C Instructions Evicting Translations 4899
L2C Translations Evicting Translations 719
L2C Data Evicting Translations 69687
L2C Dense regions hint from L2: 0
PSCL5 TOTAL     ACCESS:     122491  HIT:     122491  MISS:          0  HIT %:        100  MISS %:          0   MPKI: 0
PSCL5 LOAD TRANSLATION ACCESS:     122491  HIT:     122491  MISS:          0  HIT %:        100  MISS %:          0   MPKI: 0
PSCL5 PREFETCH  REQUESTED:          0  ISSUED:          0  USEFUL:          0  USELESS:          0
PSCL5 USEFUL LOAD PREFETCHES:          0 PREFETCH ISSUED TO LOWER LEVEL:          0  ACCURACY: -nan
PSCL5 TIMELY PREFETCHES:          0 LATE PREFETCHES: 0 DROPPED PREFETCHES: 0
PSCL5 PREFETCHES SAME FILL-ORIGIN LEVEL: 0 DIFFERENT FILL-ORIGIN LEVEL: 0

PSCL4 TOTAL     ACCESS:     119954  HIT:     119539  MISS:        415  HIT %:     99.654  MISS %:   0.345966   MPKI: 0.002075
PSCL4 LOAD TRANSLATION ACCESS:     119954  HIT:     119539  MISS:        415  HIT %:     99.654  MISS %:   0.345966   MPKI: 0.002075
PSCL4 PREFETCH  REQUESTED:          0  ISSUED:          0  USEFUL:          0  USELESS:          0
PSCL4 USEFUL LOAD PREFETCHES:          0 PREFETCH ISSUED TO LOWER LEVEL:          0  ACCURACY: -nan
PSCL4 TIMELY PREFETCHES:          0 LATE PREFETCHES: 0 DROPPED PREFETCHES: 0
PSCL4 PREFETCHES SAME FILL-ORIGIN LEVEL: 0 DIFFERENT FILL-ORIGIN LEVEL: 0

PSCL3 TOTAL     ACCESS:     121408  HIT:     120993  MISS:        415  HIT %:    99.6582  MISS %:   0.341823   MPKI: 0.002075
PSCL3 LOAD TRANSLATION ACCESS:     121408  HIT:     120993  MISS:        415  HIT %:    99.6582  MISS %:   0.341823   MPKI: 0.002075
PSCL3 PREFETCH  REQUESTED:          0  ISSUED:          0  USEFUL:          0  USELESS:          0
PSCL3 USEFUL LOAD PREFETCHES:          0 PREFETCH ISSUED TO LOWER LEVEL:          0  ACCURACY: -nan
PSCL3 TIMELY PREFETCHES:          0 LATE PREFETCHES: 0 DROPPED PREFETCHES: 0
PSCL3 PREFETCHES SAME FILL-ORIGIN LEVEL: 0 DIFFERENT FILL-ORIGIN LEVEL: 0

PSCL2 TOTAL     ACCESS:     122491  HIT:     110030  MISS:      12461  HIT %:     89.827  MISS %:     10.173   MPKI: 0.062305
PSCL2 LOAD TRANSLATION ACCESS:     122491  HIT:     110030  MISS:      12461  HIT %:     89.827  MISS %:     10.173   MPKI: 0.062305
PSCL2 PREFETCH  REQUESTED:          0  ISSUED:          0  USEFUL:          0  USELESS:          0
PSCL2 USEFUL LOAD PREFETCHES:          0 PREFETCH ISSUED TO LOWER LEVEL:          0  ACCURACY: -nan
PSCL2 TIMELY PREFETCHES:          0 LATE PREFETCHES: 0 DROPPED PREFETCHES: 0
PSCL2 PREFETCHES SAME FILL-ORIGIN LEVEL: 0 DIFFERENT FILL-ORIGIN LEVEL: 0

LLC TOTAL     ACCESS:   13194872  HIT:    5172614  MISS:    8022258  HIT %:    39.2017  MISS %:    60.7983   MPKI: 40.1113
LLC LOAD      ACCESS:    1710212  HIT:    1360715  MISS:     349497  HIT %:    79.5641  MISS %:    20.4359   MPKI: 1.74748
LLC RFO       ACCESS:    3347958  HIT:     792527  MISS:    2555431  HIT %:     23.672  MISS %:     76.328   MPKI: 12.7772
LLC PREFETCH  ACCESS:    3999295  HIT:    1509283  MISS:    2490012  HIT %:    37.7387  MISS %:    62.2613   MPKI: 12.4501
AGUS PREFETCH L1 MISS: 0
LLC WRITEBACK ACCESS:    4061402  HIT:    1460341  MISS:    2601061  HIT %:    35.9566  MISS %:    64.0434   MPKI: 13.0053
LLC LOAD TRANSLATION ACCESS:      76005  HIT:      49748  MISS:      26257  HIT %:    65.4536  MISS %:    34.5464   MPKI: 0.131285
LLC PREFETCH  REQUESTED:          0  ISSUED:          0  USEFUL:       6400  USELESS:    2482016
LLC USEFUL LOAD PREFETCHES:       6400 PREFETCH ISSUED TO LOWER LEVEL:    2490012  ACCURACY: 0.257027
LLC TIMELY PREFETCHES:       6400 LATE PREFETCHES: 0 DROPPED PREFETCHES: 0
LLC PREFETCHES SAME FILL-ORIGIN LEVEL: 0 DIFFERENT FILL-ORIGIN LEVEL: 0
LLC AVERAGE MISS LATENCY: 131.841 cycles
LLC RQ	ACCESS:    5134184	FORWARD:          0	MERGED:          0	TO_CACHE:    5134175
LLC WQ	ACCESS:    4061402	FORWARD:          9	MERGED:          0	TO_CACHE:    4061402
LLC PQ	ACCESS:    3999295	FORWARD:          0	MERGED:          0	TO_CACHE:    3999295

LLC Dense regions hint to LLC: 0

RAW hits: 2279582
Loads Generated: 47521129
Loads sent to L1D: 45241546
Stores Generated: 33586965
Stores sent to L1D: 33586965
Major fault: 0 Minor fault: 22230
Allocated PAGES: 22230
=== CPU 0 L1D Prefetcher Statistics ===
[MLOP] History of tracked zone:
IIIIIIIIIIIIIIIIIIIIIIIIIIIIIIIIIIIIIIIIIIIIIIIIIIIIIIIIIIIIIIII
IIIIIIIIIIIIIIIIIIIIIIIIIIIIIIIIIIIIIIIIIIIIIIIIIIIIIIIAIIIIIIII
IIIIIIIIIIIIIIIIIIIIIIIIIIIIIIIIIIIIIIIIIIIIIIIIIIIIIIAAIIIIIIII
IIIIIIIIIIIIIIIIIIIA12IIIIIIIIIIIIIIIIIIIIIIIIIIIIIIIIIIIIIIIIII
IIIIIIIIIIIIIIIIIIIIIA1II11112222222IIIIIIIIIIIIIIIIIIIIIIIIIIII
IIIIIIIIIIIIIIIIIIIIIAA1I11112222222IIIIIIIIIIIIIIIIIIIIIIIIIIII
IIIIIIIIIIIIIIIIIIIIIIIIIIIIIIIIIIIIIIIIIIIIIIIIIIIIIIIIIIIIIA11
IIIIIIIIIA11111111111IIIIIIIIIIIIIIIIIIIIIIIIIIIIIIIIIIIIIIIIA11
IIIIIIIA1A1111111111111IIIIIIIIIIIIIIIIIIIIIIIIIIIIIIIIIIIIIIA11
IIIIIIIA1A11111111111111IIIIIIIIIIIIIIIIIIIIIIIIIIIIIIIIIIIIIA11
IIIIIIIAAA11111111111111IIIIIIIIIIIIIIIIIIIIIIIIIIIIIIIIIIIIIA11
IIIIIIIAAA111111111111111IIIIIIIIIIIIIIIIIIIIIIIIIIIIIIIIIIIIA11
IIIIIIIIIIIIIIIIIIIIIIIIIIIIIIIIIIIIIIIIIIIIIA11111111111111IIII
IIIIIIIIIIIIIIIIIIIIIIIIIIIIIIIIIIIIIIIIIIIIAA111111111111111III
IIIIIIIIIIIIIIIIIIIIIIIIIIIIIIIIIIA112II222IIIIIIIIIIIIIIIIIIIII
IIIIIIIIIIIIIIIIIIIIIIIIIIIIIIIIIAA112I2222IIIIIIIIIIIIIIIIIIIII
IIIIIIIIIIIIIIIIIIIIIIIIIIIIIIIIA1IIIIIIIIIIIIIIIIIIIIIIIIIIIIII
IIIIIIIIIIIIIIIIIIIIIIIIIIIIIIIAA1111IIIIIIIIIIIIIIIIIIIIIIIIIII
IIIIIIIIIIIIIIIIIIIIIIIIIIIIIIIAA111111111IIIIIIIIIIIIIIIIIIIIII
IIIIIIIIIIIIIIIIIIIIIIIIIIIIIIIAA11111111111IIIIIIIIIIIIIIIIIIII
IIIIIIIIIIIIIIIIIIIIIIIIIIIIIIIAA111111111111111IIIIIIIIIIIIIIII
IIIIIIIIIIIIIIIIIIIIIIIIIIIIIIIAA1111111111111111IIIIIIIIIIIIIII
IIIIIIIIIIIIIIIA11111111111111IIIIIIIIIIIIIIIIIIIIIIIIIIIIIIIIII
IIIIIIIIIIIIIIAA111111111111111IIIIIIIIIIIIIIIIIIIIIIIIIIIIIIIII
IIIIIIIIIIIIIIIIIIIIIIIIIIIIIIIIIA122II2IIIIIIIIIIIIIIIIIIIIIIII
IIIIIIIIIIIIIIIIIIIIIIIIIIIIIIA12A122II2IIIIIIIIIIIIIIIIIIIIIIII
IIIIIIIIIIIIIIIIIIIIIIIIIIIIIIIIIIA11111111111111IIIIIIIIIIIIIII
IIIIIIIIIIIIIIIIIIIIIIIIIIIIIIIIIAA111111111111111IIIIIIIIIIIIII
IIIIIIIIIIIIIIIIIIIIIIIIIIIIIIIIIAA1111111111111111IIIIIIIIIIIII
IIIIIIIIIIIIIIIA1111IIIIIIIIIIIIIIIIIIIIIIIIIIIIIIIIIIIIIIIIIIII
IIIIIIIIIIIIIIAA1111111IIIIIIIIIIIIIIIIIIIIIIIIIIIIIIIIIIIIIIIII
IIIIIIIIIIIIIIAA11111111IIIIIIIIIIIIIIIIIIIIIIIIIIIIIIIIIIIIIIII
IIIIIIIIIIIIIIAA1111111111IIIIIIIIIIIIIIIIIIIIIIIIIIIIIIIIIIIIII
IIIIIIIIIIIIIIAA1111111111111IIIIIIIIIIIIIIIIIIIIIIIIIIIIIIIIIII
IIIIIIIIIIIIIIAA111111111111111IIIIIIIIIIIIIIIIIIIIIIIIIIIIIIIII
IIIIIIIIIIIIIIAA1111111111111111IIIIIIIIIIIIIIIIIIIIIIIIIIIIIIII
IIIIIIIIIIIIIIIIIIIIIIIIIIIIIIIIIIIIIIIIIIIIIIA11IIIIIIIIIIIIIII
IIIIIIIIIIIIIIIIIIIIIIIIIIIIIIIIIIIIIIIIIIIA11A111IIIIIIIIIIIIII
IIIIIIIIIIIIIIIIIIIIIIIIIIIIIIIIIIIIIIIIIIIA11A1111IIIIIIIIIIIII
IIIIIIIIIIIIIIIIIIIIIIIIIIIIIIIIIIIIIIIIIIIA11A11111IIIIIIIIIIII
IIIIIIIIIIIIIIIIIIIIIIIIIIIIIIIIIIIIIIIIIIIA11A111111IIIIIIIIIII
IIIIIIIIIIIIIIIIIIIIIIIIIIIIIIIIIIIIIIIIIIIIIIIIIIIIIIIIIIIIIAII
IIIIIIIIIIIIIIIIIIIIIIIIIIIIIIIIIIIIIIIIIIIIIIIIIIIIIIIIIIIIA1II
IIIIIIIIIIIIIIIIIIIIIIIIIIIIIIIIIIIIIIIIIIIIIIIIIA1IIIIIIIIIA1II
IIIIIIIIIIIIIIIIIIIIIIIIIIIIIIIIIIIIIIIIIIIIIIIIIAA1IIIIIIIIA1II
IIIIIIIIIIIIIIIIIIIIIIIIIIIA11111IIIIIIIIIIIIIIIIIIIIIIIIIIIIIII
IIIIIIIIIIIIIIIIIIIIIIIIIIIA111111111IIIIIIIIIIIIIIIIIIIIIIIIIII
IIIIIIIIIIIIIIIIIIIIIIIIIIIA1111111111111111IIIIIIIIIIIIIIIIIIII
IIIIIIIIIIIIIIIIA11111111111111IIIIIIIIIIIIIIIIIIIIIIIIIIIIIIIII
IIIIIIIIIIIIIIIAA11111111111111IIIIIIIIIIIIIIIIIIIIIIIIIIIIIIIII
IIIIIIIIIIIIIIIAA111111111111111IIIIIIIIIIIIIIIIIIIIIIIIIIIIIIII
IIIIIIIIIIA11111111111111IIIIIIIIIIIIIIIIIIIIIIIIIIIIIIIIIIIIIII
IIIIIIIIIIAA1111111111111IIIIIIIIIIIIIIIIIIIIIIIIIIIIIIIIIIIIIII
IIIIIIIIIIAA11111111111111IIIIIIIIIIIIIIIIIIIIIIIIIIIIIIIIIIIIII
IIIIIIIIIIAA111111111111111IIIIIIIIIIIIIIIIIIIIIIIIIIIIIIIIIIIII
IIIIIIIIIIIIIIIIIIIIIIIIIIIIIIIIIIIA11111111111111IIIIIIIIIIIIII
IIIIIIIIIIIIIIIIIIIIIIIIIIIIIIIIIIAA11111111111111IIIIIIIIIIIIII
IIIIIIIIIIIIIIIA111I1111111111I1IIIIIIIIIIIIIIIIIIIIIIIIIIIIIIII
IIIIIIIIIIIIIIAA11111111111111I1IIIIIIIIIIIIIIIIIIIIIIIIIIIIIIII
IIIIIIIIIIIIIIAA1111111111111111IIIIIIIIIIIIIIIIIIIIIIIIIIIIIIII
IIIIIIIIIIIIIIIIIIIIIIIIIA1I1111I1I1111111IIIIIIIIIIIIIIIIIIIIII
IIIIIIIIIIIIIIIIIIIIIIIIAA1111111111111111IIIIIIIIIIIIIIIIIIIIII
IIIIIIIIIIIIIIIIIIIIIIIIIIIIIIIIIIIIIIIIIIIIIIIIIIIIIIIIIIIIA111
IIIIIIIIIIIIIIIIIIIIIIIIIIIIA1111111111111IIIIII1IIIIIIIIIIIA111
IIIIIIIIIIIIIIIIIIIIIIIIIIIIA1111111111111IIIIII111IIIIIIIIIA111
IIIIIIIIIIIIIIIIIIIIIIIIIIIIIIIIIIIIIIIA111111I11111111IIIIIIIII
IIIIIIIIIIIIIIIIIIIIIIIIIIIIIIIIIIIIIIIA111111I11111111III1IIIII
IIIIIIIIIIIIIIIIIIIIIIIIIIIIIIIIIIIIIIIIIIIIIIIIIIIIIIIIIA1II1I1
IIIIIIIA1I1111I11111111IIIIIIIIIIIIIIIIIIIIIIIIIIIIIIIIIIA1II1I1
IIIIIIIIIIIIIIIIIIIIIIIIIIIIIIIA1I11111111111IIIIIIIIIIIIIIIIIII
IIIIIIIIIIIIIIIIIIIIIIIIIIIIIIIAAI11111111111IIIIIIIIIIIIIIIIIII
IIIIIIIIIIIIIIIIIIIIIIIIIIIIIIIAAI11111111111111IIIIIIIIIIIIIIII
IIIIIIIIIIIIIIIIIIIIIIIIIIIIIIIIIIIIIIIIIA1I1111I11111111IIIIIII
IIIIIIIIIIIIIIIIIIIIIIIIIIIIIIIIIIIIIIIIIA1I1111I111111111IIIIII
IIIIIIIIIIIIIIIIIIIIIIIIIIIIIIIIIIIIIIIIIIIIIIIIIA1I11111111II1I
IIIIIIIIIIIIIIIIIIIIIIIIIIIIIIIIIIIIIIIIIIIIIIIIIA1I11111111II11
IIIIIIIIIIIIIIIIIIIIIIIIIIIIIIIIIIIIIIIIIIIIIIIIIIIIIIIIA1II1I11
IIIIIIIIIIIIIIIIIIIIIIIIIIIIIIIIIIIIIIIIIIIIIIIIIIIIIA1IA1I11211
IIIIIIIIIIIIIA11111111111I1II1IIIIIIIIIIIIIIIIIIIIIIIIIIIIIIIIII
IIIA111111IIIA11111111111I1II1IIIIIIIIIIIIIIIIIIIIIIIIIIIIIIIIII
IIIA111111111A11111111111I1II1IIIIIIIIIIIIIIIIIIIIIIIIIIIIIIIIII
IIIIIIIIIIIIIIIIIIIIIIIIIIIIIIIIIIIIIIIIIIIIIIIIIIIIIIIIIIIIIIIA
IIIIIIIIIIIIIIIIIIIIIIIIIIIIIIIIIIIIIIIIIIA1I11111111111IIIIIIII
IIIIIIIIIIIIIIIIIIIIIIIIIIIIIIIIIIIIIIIIIIAAI11111111111IIIIIIII
IIIIIIIIIIIIIIIIIIIIIIIIIIIIIIIIIIIIIIIIIIAAI1111111111111IIIIII
IIIIIIIIIIIIIIIIIIIIIIIIIIIIIIIIIIIIA111111I1I1111111IIIIIIIIIII
IIIIIIIIIIIIIIIIIIIIIIIIIIIIIIIIIIIIA111111I1I11111111IIIIIIIIII
IIIIIIIIIIIIIIIIIIIIIIIIIIIIIA11111111II1111IIIIIIIIIIIIIIIIIIII
IIIIIIIIIIIIIIIIIIIIIIIIIIIIIA11111111II1111111IIIIIIIIIIIIIIIII
IIIIIIIIIIIIIIIIIIIIIIIIIIIIIIIIIIIIIIIIIIIIIIIIIIA11IIIIIIIIIII
IIIIIIIIIIIIIIIIIIIIIIIIIIIIIIIIIIIIIIIIIIIIIIIIIIA1111111111111
IIIIIIIIIIIIIIIIIIIIIIIIIIIIIIIIIIIIIIIIIIIIIIIIIIIIIIIA11111111
IIIIIIIIIIIIIIIIIIIIIIIIIIIIIIIIIIIIIIIIIIIIIIIIIIIIIIAA11111111
IIIIIIIIIIIIIIIIIIIIIIIIIIIIIIIIIIIIIIIIIIIIIIIIIIIIIIIIA1I1I11I
IIIIIIIIIIIIIIIIIIIIIIIIIIIIIIIIIIIIIIIIIIIIIIIIIIIIIIIAA1111111
IIIIIIIIIIIIIIIIIIIIIIIIIIIIIIIIIIIIIIA1I111111I111111IIIIIIIIII
IIIIIIIIIIIIIIIIIIIIIIIIIIIIIIIIIIIIIAA111111111111111IIIIIIIIII
IIIIIIIIIIIIIIIIIA111111I11I11111IIIIIIIIIIIIIIIIIIIIIIIIIIIIIII
IIIIIIIIIIIIIIIIAA111111111111111IIIIIIIIIIIIIIIIIIIIIIIIIIIIIII
IIIIIIIIIIIIIIIIIIIIIIIIIIIIIIIIIIIIIIIIIIIIIIIIIIIIIIIAIIIIIIII
IIIIIIIIIIIIIIIIIIIIIIIIIIIIIIIIIIIIIIIIIIIIIIIIIIIIIIAAIIIIIIII
IIIIIIIIIIIIIIIIIIIA1I111111111111IIIIIIIIIIIIIIIIIIIIIIIIIIIIII
IIIIIIIIIIIIIIIIIIIA1I11111111111111IIIIIIIIIIIIIIIIIIIIIIIIIIII
IIIIIIIIIIIIIIIIIIIIIA1I1111111111111IIIIIIIIIIIIIIIIIIIIIIIIIII
IIIIIIIIIIIIIIIIIIIIIAAI1111111111111IIIIIIIIIIIIIIIIIIIIIIIIIII
IIIIIIIIIIIIIIIIIIIIIAAI11111111111111IIIIIIIIIIIIIIIIIIIIIIIIII
IIIIIIIIIIIIIIIIIIIIIIIIIIIIIIIIIIIIIIIIIIIIIIIIIIIIIIIIIIIIIA11
IIIIIIIIIA111111I222II222IIIIIIIIIIIIIIIIIIIIIIIIIIIIIIIIIIIIA11
IIIIIIIIAA1111112222I2222IIIIIIIIIIIIIIIIIIIIIIIIIIIIIIIIIIIIA11
IIIIIIIAAA111111222222222IIIIIIIIIIIIIIIIIIIIIIIIIIIIIIIIIIIIA11
IIIIIIIIIIIIIIIIIIIIIIIIIIIIIIIIIIIIIIIIIIIIIA1I1111111111IIIIII
IIIIIIIIIIIIIIIIIIIIIIIIIIIIIIIIIIIIIIIIIIIIAA111111111111IIIIII
IIIIIIIIIIIIIIIIIIIIIIIIIIIIIIIIIIA1I111111111111IIIIIIIIIIIIIII
IIIIIIIIIIIIIIIIIIIIIIIIIIIIIIIIIAA111111111111111IIIIIIIIIIIIII
IIIIIIIIIIIIIIIIIIIIIIIIIIIIIIIIIAA1111111111111111IIIIIIIIIIIII
IIIIIIIIIIIIIIIIIIIIIIIIIIIIIIIIA1I1111I11111111IIIIIIIIIIIIIIII
IIIIIIIIIIIIIIIIIIIIIIIIIIIIIIIAA111111111111111IIIIIIIIIIIIIIII
IIIIIIIIIIIIIIIA11111111111111IIIIIIIIIIIIIIIIIIIIIIIIIIIIIIIIII
IIIIIIIIIIIIIIAA111111111111111IIIIIIIIIIIIIIIIIIIIIIIIIIIIIIIII
IIIIIIIIIIIIIIIIIIIIIIIIIIIIIIIIIA1I1111I11111111IIIIIIIIIIIIIII
IIIIIIIIIIIIIIIIIIIIIIIIIIIIIIA1IA111111111111111IIIIIIIIIIIIIII
IIIIIIIIIIIIIIIIIIIIIIIIIIIIIIIIIIA11111111111111IIIIIIIIIIIIIII
IIIIIIIIIIIIIIIIIIIIIIIIIIIIIIIIIAA111111111111111IIIIIIIIIIIIII
IIIIIIIIIIIIIIIIIIIIIIIIIIIIIIIIIAA1111111111111111IIIIIIIIIIIII
IIIIIIIIIIIIIIIA111111111III1II11IIIIIIIIIIIIIIIIIIIIIIIIIIIIIII
IIIIIIIIIIIIIIAA111111111II11I111IIIIIIIIIIIIIIIIIIIIIIIIIIIIIII
IIIIIIIIIIIIIIIIIIIIIIIIIIIIIIIIIIIIIIIIIIIIIIA1I111111111111III
IIIIIIIIIIIIIIIIIIIIIIIIIIIIIIIIIIIIIIIIIIIA1IA11111111111111III
IIIIIIIIIIIIIIIIIIIIIIIIIIIIIIIIIIIIIIIIIIIIIIIIIIIIIIIIIIIIIA2I
IIIIIIIIIIIIIIIIIIIIIIIIIIIIIIIIIIIIIIIIIIIIIIIIIIIIIIIIIIIIA111
IIIIIIIIIIIIIIIIIIIIIIIIIIIIIIIIIIIIIIIIIIIIIIIIIA11111I1111A111
IIIIIIIIIIIIIIIIIIIIIIIIIIIIIIIIIIIIIIIIIIIIIIIIIAA111111111A111
IIIIIIIIIIIIIIIIIIIIIIIIIIIA1I111IIIIIIIIIIIIIIIIIIIIIIIIIIIIIII
IIIIIIIIIIIIIIIIIIIIIIIIIIIA1I1111111111111IIIIIIIIIIIIIIIIIIIII
IIIIIIIIIIIIIIIIA1I111111111I1111IIIIIIIIIIIIIIIIIIIIIIIIIIIIIII
IIIIIIIIIIIIIIIAA1111111111111111IIIIIIIIIIIIIIIIIIIIIIIIIIIIIII
IIIIIIIIIIA1I1111111111111IIIIIIIIIIIIIIIIIIIIIIIIIIIIIIIIIIIIII
IIIIIIIIIIAAI1111111111111IIIIIIIIIIIIIIIIIIIIIIIIIIIIIIIIIIIIII
IIIIIIIIIIIIIIIIIIIIIIIIIIIIIIIIIIIA1I111111111111I1IIIIIIIIIIII
IIIIIIIIIIIIIIIIIIIIIIIIIIIIIIIIIIAA1111111111111111IIIIIIIIIIII
IIIIIIIIIIIIIIIA11111111IIII1II2IIIIIIIIIIIIIIIIIIIIIIIIIIIIIIII
IIIIIIIIIIIIIIAA11111111III11I22IIIIIIIIIIIIIIIIIIIIIIIIIIIIIIII
IIIIIIIIIIIIIIIIIIIIIIIIIA1I1111I11111111IIIIIIIIIIIIIIIIIIIIIII
IIIIIIIIIIIIIIIIIIIIIIIIAA111111111111111IIIIIIIIIIIIIIIIIIIIIII
IIIIIIIIIIIIIIIIIIIIIIIIIIIIIIIIIIIIIIIIIIIIIIIIIIIIIIIIIIIIA111
IIIIIIIIIIIIIIIIIIIIIIIIIIIIA11111111111I222IIIIIIIIIIIIIIIIA111
IIIIIIIIIIIIIIIIIIIIIIIIIIIIA11111111111I2222IIIIIIIIIIIIIIIA111
IIIIIIIIIIIIIIIIIIIIIIIIIIIIIIIIIIIIIIIA11111111111I111IIIIIIIII
IIIIIIIIIIIIIIIIIIIIIIIIIIIIIIIIIIIIIIIA11111111111I1111IIIIIIII
IIIIIIIIIIIIIIIIIIIIIIIIIIIIIIIIIIIIIIIIIIIIIIIIIIIIIIIIIA111111
IIIIIIIA1I1111111111111IIIIIIIIIIIIIIIIIIIIIIIIIIIIIIIIIIA111111
IIIIIIIA1I1111111111111IIII1IIIIIIIIIIIIIIIIIIIIIIIIIIIIIA111111
IIIIIIIIIIIIIIIIIIIIIIIIIIIIIIIA11I1I1112222222IIIIIIIIIIIIIIIII
IIIIIIIIIIIIIIIIIIIIIIIIIIIIIIIAA1I1I1112222222IIIIIIIIIIIIIIIII
IIIIIIIIIIIIIIIIIIIIIIIIIIIIIIIIIIIIIIIIIA1I1111I11111111IIIIIII
IIIIIIIIIIIIIIIIIIIIIIIIIIIIIIIIIIIIIIIIIA1I1111I111111111IIIIII
IIIIIIIIIIIIIIIIIIIIIIIIIIIIIIIIIIIIIIIIIIIIIIIIIA1I111111111I11
IIIIIIIIIIIIIIIIIIIIIIIIIIIIIIIIIIIIIIIIIIIIIIIIIIIIIIIIA1I11111
IIIIIIIIIIIIIIIIIIIIIIIIIIIIIIIIIIIIIIIIIIIIIIIIIIIIIA1IA1111111
IIIIIIIIIIIIIA1I1111I111122I2IIIIIIIIIIIIIIIIIIIIIIIIIIIIIIIIIII
IIIA1I1111I11A121111I111122I2IIIIIIIIIIIIIIIIIIIIIIIIIIIIIIIIIII
IIIIIIIIIIIIIIIIIIIIIIIIIIIIIIIIIIIIIIIIIIIIIIIIIIIIIIIIIIIIIIIA
IIIIIIIIIIIIIIIIIIIIIIIIIIIIIIIIIIIIIIIIIIA1I11111111111IIIIIIII
IIIIIIIIIIIIIIIIIIIIIIIIIIIIIIIIIIIIIIIIIIAAI11111111111IIIIIIII
IIIIIIIIIIIIIIIIIIIIIIIIIIIIIIIIIIIIIIIIIIAAI1111111111111IIIIII
IIIIIIIIIIIIIIIIIIIIIIIIIIIIIIIIIIIIA11111222I222222IIIIIIIIIIII
IIIIIIIIIIIIIIIIIIIIIIIIIIIIIIIIIIIIA11111222I2222222I2IIIIIIIII
IIIIIIIIIIIIIIIIIIIIIIIIIIIIIA1I1111I1I111111IIIIIIIIIIIIIIIIIII
IIIIIIIIIIIIIIIIIIIIIIIIIIIIIIIIIIIIIIIIIIIIIIIIIIA1111IIIIIIIII
IIIIIIIIIIIIIIIIIIIIIIIIIIIIIIIIIIIIIIIIIIIIIIIIIIA1111111111111
IIIIIIIIIIIIIIIIIIIIIIIIIIIIIIIIIIIIIIIIIIIIIIIIIIIIIIIA1II1I112
IIIIIIIIIIIIIIIIIIIIIIIIIIIIIIIIIIIIIIIIIIIIIIIIIIIIIIAA1I111112
IIIIIIIIIIIIIIIIIIIIIIIIIIIIIIIIIIIIIIIIIIIIIIIIIIIIIIIIA1I11111
IIIIIIIIIIIIIIIIIIIIIIIIIIIIIIIIIIIIIIIIIIIIIIIIIIIIIIIAA1111111
IIIIIIIIIIIIIIIIIIIIIIIIIIIIIIIIIIIIIIA1I111111111111IIIIIIIIIII
IIIIIIIIIIIIIIIIIIIIIIIIIIIIIIIIIIIIIAA111111111111111IIIIIIIIII
IIIIIIIIIIIIIIIIIA111111IIIIIIIIIIIIIIIIIIIIIIIIIIIIIIIIIIIIIIII
IIIIIIIIIIIIIIIIIA111111I1I1111111IIIIIIIIIIIIIIIIIIIIIIIIIIIIII
IIIIIIIIIIIIIIIIAA1111111111111111IIIIIIIIIIIIIIIIIIIIIIIIIIIIII
IIIIIIIIIIIIIIIIIIIIIIIIIIIIIIIIIIIIIIIIIIIIIIIIIIIIIIIAIIIIIIII
IIIIIIIIIIIIIIIIIIIIIIIIIIIIIIIIIIIIIIIIIIIIIIIIIIIIIIAAIIIIIIII
IIIIIIIIIIIIIIIIIIIA111111I1111111IIIIIIIIIIIIIIIIIIIIIIIIIIIIII
IIIIIIIIIIIIIIIIIIIA111111I111111111IIIIIIIIIIIIIIIIIIIIIIIIIIII
IIIIIIIIIIIIIIIIIIIIIA1I111111111111IIIIIIIIIIIIIIIIIIIIIIIIIIII
IIIIIIIIIIIIIIIIIIIIIAAI111111111111IIIIIIIIIIIIIIIIIIIIIIIIIIII
IIIIIIIIIIIIIIIIIIIIIAAI11111111111111IIIIIIIIIIIIIIIIIIIIIIIIII
IIIIIIIIIIIIIIIIIIIIIIIIIIIIIIIIIIIIIIIIIIIIIIIIIIIIIIIIIIIIIA11
IIIIIIIIIA11111111111I11IIIIIIIIIIIIIIIIIIIIIIIIIIIIIIIIIIIIIA11
IIIIIIIIAA111111111111112IIIIIIIIIIIIIIIIIIIIIIIIIIIIIIIIIIIIA11
IIIIIIIAAA111111111111112IIIIIIIIIIIIIIIIIIIIIIIIIIIIIIIIIIIIA11
IIIIIIIIIIIIIIIIIIIIIIIIIIIIIIIIIIIIIIIIIIIIIA1111111111111IIIII
IIIIIIIIIIIIIIIIIIIIIIIIIIIIIIIIIIIIIIIIIIIIAA1111111111111IIII1
IIIIIIIIIIIIIIIIIIIIIIIIIIIIIIIIIIA1I111111I1I11IIII1I1IIIIIIIII
IIIIIIIIIIIIIIIIIIIIIIIIIIIIIIIIIAA1111111111111III1111IIIIIIIII
IIIIIIIIIIIIIIIIIIIIIIIIIIIIIIIIA1I1111I111111IIIIIIIIIIIIIIIIII
IIIIIIIIIIIIIIIIIIIIIIIIIIIIIIIIA1I1111I11111111IIIIIIIIIIIIIIII
IIIIIIIIIIIIIIIIIIIIIIIIIIIIIIIAA111111111111111IIIIIIIIIIIIIIII
IIIIIIIIIIIIIIIA11111111111111IIIIIIIIIIIIIIIIIIIIIIIIIIIIIIIIII
IIIIIIIIIIIIIIAA11111111111111IIIIIIIIIIIIIIIIIIIIIIIIIIIIIIIIII
IIIIIIIIIIIIIIIIIIIIIIIIIIIIIIIIIA1I1111I1111111I1IIIIIIIIIIIIII
IIIIIIIIIIIIIIIIIIIIIIIIIIIIIIA1IA11111111111111I1IIIIIIIIIIIIII
IIIIIIIIIIIIIIIIIIIIIIIIIIIIIIIIIIA1I111111111I11I1IIIIIIIIIIIII
IIIIIIIIIIIIIIIIIIIIIIIIIIIIIIIIIAA1111111111111111IIIIIIIIIIIII
IIIIIIIIIIIIIIIA1I1111I11111111IIIIIIIIIIIIIIIIIIIIIIIIIIIIIIIII
IIIIIIIIIIIIIIAA111111111111111IIIIIIIIIIIIIIIIIIIIIIIIIIIIIIIII
IIIIIIIIIIIIIIIIIIIIIIIIIIIIIIIIIIIIIIIIIIIIIIA111111111III11II1
IIIIIIIIIIIIIIIIIIIIIIIIIIIIIIIIIIIIIIIIIIIA11A11111111111I11I11
IIIIIIIIIIIIIIIIIIIIIIIIIIIIIIIIIIIIIIIIIIIIIIIIIIIIIIIIIIIIIA2I
[MLOP] Prefetch Degree Mean: 8.14417
[MLOP] Prefetch Degree SD: 5.9719
[MLOP] Max Score Left Mean (%): 34.1092
[MLOP] Max Score Left SD (%): 13.8752
[MLOP] Max Score Right Mean (%): 62.147
[MLOP] Max Score Right SD (%): 21.9025

DRAM Statistics
 CHANNEL 0
 RQ ROW_BUFFER_HIT:    2817838  ROW_BUFFER_MISS:    2602780
 DBUS_CONGESTED:       3536
 WQ ROW_BUFFER_HIT:     489396  ROW_BUFFER_MISS:    2256217  FULL:       9713

 AVG_CONGESTED_CYCLE: 3
 All warmup complete: 2
Channel 0 Bank busy for read cycles: 0
Channel 0 Bank busy for write cycles: 0
Channel 0
Rank 0
0banks busy for read cycles: 146092388
0banks busy for write cycles: 233868
1banks busy for read cycles: 32356984
1banks busy for write cycles: 27226946
2banks busy for read cycles: 17277891
2banks busy for write cycles: 13964844
3banks busy for read cycles: 19179734
3banks busy for write cycles: 9336213
4banks busy for read cycles: 8071088
4banks busy for write cycles: 7259660
5banks busy for read cycles: 7273243
5banks busy for write cycles: 6262000
6banks busy for read cycles: 8246713
6banks busy for write cycles: 6057232
7banks busy for read cycles: 11447723
7banks busy for write cycles: 7948892
8banks busy for read cycles: 26881503
8banks busy for write cycles: 28856637

CPU 0 Branch Prediction Accuracy: 99.9427% MPKI: 0.08834 Average ROB Occupancy at Mispredict: 98.6419
Branch types
NOT_BRANCH: 169139646 84.5698%
BRANCH_DIRECT_JUMP: 1705434 0.852717%
BRANCH_INDIRECT: 9970641 4.98532%
BRANCH_CONDITIONAL: 12390177 6.19509%
BRANCH_DIRECT_CALL: 2773558 1.38678%
BRANCH_INDIRECT_CALL: 623355 0.311677%
BRANCH_RETURN: 3396900 1.69845%
BRANCH_OTHER: 0 0%

DRAM PAGES: 1048576
Allocated PAGES: 22230
