
*** ChampSim Multicore Out-of-Order Simulator ***

Warmup Instructions: 50000000
Simulation Instructions: 200000000
Number of CPUs: 1
LLC sets: 2048
LLC ways: 16
Off-chip DRAM Size: 4096 MB Channels: 1 Width: 64-bit Data Rate: 6400 MT/s
CPU 0 runs traces/spec2k17/server_001.champsimtrace.xz
.xz
BTB has LRU replacement policy
ITLB has LRU replacement policy
DTLB has LRU replacement policy
STLB has LRU replacement policy
L1I has LRU replacement policy
L1D has LRU replacement policy
Initialize SRRIP state for L2C
Initialize DRRIP state for LLC
Heartbeat CPU 0 instructions: 10000000 cycles: 2725912 heartbeat IPC: 3.6685 cumulative IPC: 3.6685 (Simulation time: 0 hr 0 min 41 sec) 
Heartbeat CPU 0 instructions: 20000000 cycles: 5461842 heartbeat IPC: 3.65506 cumulative IPC: 3.66177 (Simulation time: 0 hr 1 min 20 sec) 
Heartbeat CPU 0 instructions: 30000002 cycles: 8198295 heartbeat IPC: 3.65437 cumulative IPC: 3.6593 (Simulation time: 0 hr 1 min 46 sec) 
Heartbeat CPU 0 instructions: 40000001 cycles: 10940023 heartbeat IPC: 3.64733 cumulative IPC: 3.6563 (Simulation time: 0 hr 2 min 26 sec) 
Heartbeat CPU 0 instructions: 50000000 cycles: 13666575 heartbeat IPC: 3.66764 cumulative IPC: 3.65856 (Simulation time: 0 hr 3 min 7 sec) 

Warmup complete CPU 0 instructions: 50000004 cycles: 13666576 (Simulation time: 0 hr 3 min 7 sec) 

Heartbeat CPU 0 instructions: 60000000 cycles: 31657173 heartbeat IPC: 0.555846 cumulative IPC: 0.555846 (Simulation time: 0 hr 4 min 3 sec) 
Heartbeat CPU 0 instructions: 70000000 cycles: 48594795 heartbeat IPC: 0.590402 cumulative IPC: 0.572603 (Simulation time: 0 hr 5 min 0 sec) 
Heartbeat CPU 0 instructions: 80000003 cycles: 65625099 heartbeat IPC: 0.587189 cumulative IPC: 0.577384 (Simulation time: 0 hr 5 min 52 sec) 
Heartbeat CPU 0 instructions: 90000000 cycles: 83243766 heartbeat IPC: 0.56758 cumulative IPC: 0.574901 (Simulation time: 0 hr 6 min 39 sec) 
Heartbeat CPU 0 instructions: 100000000 cycles: 99955485 heartbeat IPC: 0.598382 cumulative IPC: 0.579449 (Simulation time: 0 hr 7 min 23 sec) 
*** Reached end of trace for Core: 0 Repeating trace: traces/spec2k17/server_001.champsimtrace.xz
Heartbeat CPU 0 instructions: 110000000 cycles: 117038355 heartbeat IPC: 0.585382 cumulative IPC: 0.580429 (Simulation time: 0 hr 8 min 16 sec) 
Heartbeat CPU 0 instructions: 120000000 cycles: 132926260 heartbeat IPC: 0.62941 cumulative IPC: 0.586954 (Simulation time: 0 hr 9 min 7 sec) 
Heartbeat CPU 0 instructions: 130000002 cycles: 150267875 heartbeat IPC: 0.576648 cumulative IPC: 0.585646 (Simulation time: 0 hr 10 min 3 sec) 
Heartbeat CPU 0 instructions: 140000002 cycles: 168002681 heartbeat IPC: 0.563863 cumulative IPC: 0.583143 (Simulation time: 0 hr 10 min 55 sec) 
Heartbeat CPU 0 instructions: 150000001 cycles: 185902657 heartbeat IPC: 0.55866 cumulative IPC: 0.580598 (Simulation time: 0 hr 11 min 44 sec) 
Heartbeat CPU 0 instructions: 160000000 cycles: 202388411 heartbeat IPC: 0.606584 cumulative IPC: 0.582868 (Simulation time: 0 hr 12 min 34 sec) 
Heartbeat CPU 0 instructions: 170000000 cycles: 219278910 heartbeat IPC: 0.592049 cumulative IPC: 0.583623 (Simulation time: 0 hr 13 min 28 sec) 
Heartbeat CPU 0 instructions: 180000002 cycles: 236502448 heartbeat IPC: 0.580601 cumulative IPC: 0.583389 (Simulation time: 0 hr 14 min 21 sec) 
Heartbeat CPU 0 instructions: 190000003 cycles: 253430209 heartbeat IPC: 0.590746 cumulative IPC: 0.583908 (Simulation time: 0 hr 15 min 12 sec) 
Heartbeat CPU 0 instructions: 200000001 cycles: 270567139 heartbeat IPC: 0.583535 cumulative IPC: 0.583883 (Simulation time: 0 hr 16 min 3 sec) 
*** Reached end of trace for Core: 0 Repeating trace: traces/spec2k17/server_001.champsimtrace.xz
Heartbeat CPU 0 instructions: 210000000 cycles: 287536260 heartbeat IPC: 0.589306 cumulative IPC: 0.584219 (Simulation time: 0 hr 16 min 55 sec) 
Heartbeat CPU 0 instructions: 220000000 cycles: 303987951 heartbeat IPC: 0.60784 cumulative IPC: 0.585558 (Simulation time: 0 hr 17 min 53 sec) 
Heartbeat CPU 0 instructions: 230000002 cycles: 320722333 heartbeat IPC: 0.597572 cumulative IPC: 0.586213 (Simulation time: 0 hr 18 min 45 sec) 
Heartbeat CPU 0 instructions: 240000002 cycles: 339139807 heartbeat IPC: 0.542963 cumulative IPC: 0.583765 (Simulation time: 0 hr 19 min 36 sec) 
Heartbeat CPU 0 instructions: 250000002 cycles: 356115075 heartbeat IPC: 0.589092 cumulative IPC: 0.584029 (Simulation time: 0 hr 20 min 27 sec) 
Finished CPU 0 instructions: 200000003 cycles: 342448505 cumulative IPC: 0.584029 (Simulation time: 0 hr 20 min 27 sec) 

ChampSim completed all CPUs

Region of Interest Statistics

CPU 0 cumulative IPC: 0.584029 instructions: 200000003 cycles: 342448505
ITLB TOTAL     ACCESS:   29900607  HIT:   29483287  MISS:     417320  HIT %:    98.6043  MISS %:    1.39569   MPKI: 2.0866
ITLB LOAD TRANSLATION ACCESS:   29900607  HIT:   29483287  MISS:     417320  HIT %:    98.6043  MISS %:    1.39569   MPKI: 2.0866
ITLB PREFETCH  REQUESTED:          0  ISSUED:          0  USEFUL:          0  USELESS:          0
ITLB USEFUL LOAD PREFETCHES:          0 PREFETCH ISSUED TO LOWER LEVEL:          0  ACCURACY: -nan
ITLB TIMELY PREFETCHES:          0 LATE PREFETCHES: 0 DROPPED PREFETCHES: 0
ITLB PREFETCHES SAME FILL-ORIGIN LEVEL: 0 DIFFERENT FILL-ORIGIN LEVEL: 0
ITLB AVERAGE MISS LATENCY: 14.1082 cycles
ITLB RQ	ACCESS:   36668961	FORWARD:          0	MERGED:    6644351	TO_CACHE:   30024610

DTLB TOTAL     ACCESS:   38269844  HIT:   37094574  MISS:    1175270  HIT %:     96.929  MISS %:    3.07101   MPKI: 5.87635
DTLB LOAD TRANSLATION ACCESS:   38269844  HIT:   37094574  MISS:    1175270  HIT %:     96.929  MISS %:    3.07101   MPKI: 5.87635
DTLB PREFETCH  REQUESTED:          0  ISSUED:          0  USEFUL:          0  USELESS:          0
DTLB USEFUL LOAD PREFETCHES:          0 PREFETCH ISSUED TO LOWER LEVEL:          0  ACCURACY: -nan
DTLB TIMELY PREFETCHES:          0 LATE PREFETCHES: 0 DROPPED PREFETCHES: 0
DTLB PREFETCHES SAME FILL-ORIGIN LEVEL: 0 DIFFERENT FILL-ORIGIN LEVEL: 0
DTLB AVERAGE MISS LATENCY: 20.0641 cycles
DTLB RQ	ACCESS:   47954192	FORWARD:          0	MERGED:    9623243	TO_CACHE:   38330949

STLB TOTAL     ACCESS:    2407139  HIT:    2289486  MISS:     117653  HIT %:    95.1123  MISS %:    4.88767   MPKI: 0.588265
STLB LOAD TRANSLATION ACCESS:    1592590  HIT:    1474937  MISS:     117653  HIT %:    92.6125  MISS %:    7.38753   MPKI: 0.588265
STLB TRANSLATION FROM L1D PREFETCHER ACCESS:     814549  HIT:     814549  MISS:          0  HIT %:        100  MISS %:          0   MPKI: 0
STLB PREFETCH  REQUESTED:          0  ISSUED:          0  USEFUL:          0  USELESS:          0
STLB USEFUL LOAD PREFETCHES:          0 PREFETCH ISSUED TO LOWER LEVEL:          0  ACCURACY: -nan
STLB TIMELY PREFETCHES:          0 LATE PREFETCHES: 0 DROPPED PREFETCHES: 0
STLB PREFETCHES SAME FILL-ORIGIN LEVEL: 0 DIFFERENT FILL-ORIGIN LEVEL: 0
STLB AVERAGE MISS LATENCY: 128.45 cycles
STLB RQ	ACCESS:    3538496	FORWARD:          0	MERGED:    1131357	TO_CACHE:    2407139

STLB Hit, L1D data hit: 0
STLB Hit, L2C data hit: 0
STLB Hit, LLC data hit: 0
STLB Hit, LLC data miss: 0
STLB STLB hints to L2: 0
L1D TOTAL     ACCESS:   48181343  HIT:   45767607  MISS:    2413736  HIT %:    94.9903  MISS %:    5.00969   MPKI: 12.0687
L1D LOAD      ACCESS:   26665801  HIT:   25888161  MISS:     777640  HIT %:    97.0838  MISS %:    2.91624   MPKI: 3.8882
L1D RFO       ACCESS:   20125432  HIT:   19798272  MISS:     327160  HIT %:    98.3744  MISS %:     1.6256   MPKI: 1.6358
L1D PREFETCH  ACCESS:    1390110  HIT:      81174  MISS:    1308936  HIT %:    5.83939  MISS %:    94.1606   MPKI: 6.54468
AGUS PREFETCH L1 MISS: 0
L1D PREFETCH  REQUESTED:    3898382  ISSUED:    3898382  USEFUL:     542294  USELESS:     766587
L1D USEFUL LOAD PREFETCHES:     542294 PREFETCH ISSUED TO LOWER LEVEL:    1845738  ACCURACY: 29.3809
L1D TIMELY PREFETCHES:     542294 LATE PREFETCHES: 19986 DROPPED PREFETCHES: 0
L1D PREFETCHES SAME FILL-ORIGIN LEVEL: 1331132 DIFFERENT FILL-ORIGIN LEVEL: 514606
L1D AVERAGE MISS LATENCY: 1.75136e+06 cycles
L1D RQ	ACCESS:   42344203	FORWARD:          0	MERGED:   15385950	TO_CACHE:   26764335
L1D WQ	ACCESS:   21428311	FORWARD:     193956	MERGED:     238454	TO_CACHE:   21189857
L1D PQ	ACCESS:    1952476	FORWARD:          0	MERGED:       6532	TO_CACHE:    1945906

L1D UNIQUE REGIONS ACCESSED: 0
L1D REGIONS CONFLICTS: 0
L1D Cross Page Prefetch Requests: 0
L1D Same Page Prefetch Requests: 2409267
L1D ROI Sum of L1D PQ occupancy: 26507755
L1D PREFETCHES PUSHED FROM L2C: 0
L1I TOTAL     ACCESS:   35814368  HIT:   33871595  MISS:    1942773  HIT %:    94.5754  MISS %:    5.42456   MPKI: 9.71386
L1I LOAD      ACCESS:   35814368  HIT:   33871595  MISS:    1942773  HIT %:    94.5754  MISS %:    5.42456   MPKI: 9.71386
L1I PREFETCH  REQUESTED:          0  ISSUED:          0  USEFUL:          0  USELESS:          0
L1I USEFUL LOAD PREFETCHES:          0 PREFETCH ISSUED TO LOWER LEVEL:          0  ACCURACY: -nan
L1I TIMELY PREFETCHES:          0 LATE PREFETCHES: 0 DROPPED PREFETCHES: 0
L1I PREFETCHES SAME FILL-ORIGIN LEVEL: 0 DIFFERENT FILL-ORIGIN LEVEL: 0
L1I AVERAGE MISS LATENCY: 37.1141 cycles
L1I RQ	ACCESS:   54918808	FORWARD:          0	MERGED:   18249847	TO_CACHE:   36668961

BTB TOTAL     ACCESS:   19565792  HIT:   17841636  MISS:    1724156  HIT %:    91.1879  MISS %:    8.81209   MPKI: 8.62078
BTB BRANCH_DIRECT_JUMP	ACCESS:    1340351  HIT:    1290273  MISS:      50078
BTB BRANCH_INDIRECT	ACCESS:    8225897  HIT:    7338608  MISS:     887289
BTB BRANCH_CONDITIONAL	ACCESS:    5257195  HIT:    5175329  MISS:      81866
BTB BRANCH_DIRECT_CALL	ACCESS:    2229321  HIT:    2140579  MISS:      88742
BTB BRANCH_INDIRECT_CALL	ACCESS:     141641  HIT:     131666  MISS:       9975
BTB BRANCH_RETURN	ACCESS:    2371387  HIT:    1765181  MISS:     606206
BTB BRANCH_OTHER ACCESS:          0  HIT:          0  MISS:          0

L2C TOTAL     ACCESS:    5822444  HIT:    3095037  MISS:    2727407  HIT %:     53.157  MISS %:     46.843   MPKI: 13.637
L2C LOAD      ACCESS:    2700424  HIT:    1795500  MISS:     904924  HIT %:    66.4896  MISS %:    33.5104   MPKI: 4.52462
L2C DATA LOAD MPKI: 1.67217
L2C INSTRUCTION LOAD MPKI: 2.85245
L2C RFO       ACCESS:     324948  HIT:      48632  MISS:     276316  HIT %:    14.9661  MISS %:    85.0339   MPKI: 1.38158
L2C PREFETCH  ACCESS:    1832236  HIT:     387315  MISS:    1444921  HIT %:    21.1389  MISS %:    78.8611   MPKI: 7.2246
AGUS PREFETCH L1 MISS: 0
L2C DATA PREFETCH MPKI: 7.2246
L2C INSTRUCTION PREFETCH MPKI: 0
L2C WRITEBACK ACCESS:     814744  HIT:     799463  MISS:      15281  HIT %:    98.1244  MISS %:    1.87556   MPKI: 0.076405
L2C LOAD TRANSLATION ACCESS:     150092  HIT:      64127  MISS:      85965  HIT %:    42.7251  MISS %:    57.2749   MPKI: 0.429825
L2C PREFETCH  REQUESTED:          0  ISSUED:          0  USEFUL:     135873  USELESS:    1311726
L2C USEFUL LOAD PREFETCHES:     135873 PREFETCH ISSUED TO LOWER LEVEL:    1447269  ACCURACY: 9.38823
L2C TIMELY PREFETCHES:     135873 LATE PREFETCHES: 2348 DROPPED PREFETCHES: 0
L2C PREFETCHES SAME FILL-ORIGIN LEVEL: 455307 DIFFERENT FILL-ORIGIN LEVEL: 0
L2C AVERAGE MISS LATENCY: 123.648 cycles
L2C RQ	ACCESS:    3175469	FORWARD:          0	MERGED:          0	TO_CACHE:    3175464
L2C WQ	ACCESS:     814744	FORWARD:          7	MERGED:          0	TO_CACHE:     814744
L2C PQ	ACCESS:    1844236	FORWARD:          0	MERGED:         36	TO_CACHE:    1844198

L2C Instructions Evicting Data 426218
L2C Translations Evicting Data 64332
L2C Data Evicting Data 1570816
L2C Instructions Evicting Instructions 127748
L2C Translations Evicting Instructions 18807
L2C Data Evicting Instructions 418865
L2C Instructions Evicting Translations 16524
L2C Translations Evicting Translations 2826
L2C Data Evicting Translations 65990
L2C Dense regions hint from L2: 0
PSCL5 TOTAL     ACCESS:     117653  HIT:     117653  MISS:          0  HIT %:        100  MISS %:          0   MPKI: 0
PSCL5 LOAD TRANSLATION ACCESS:     117653  HIT:     117653  MISS:          0  HIT %:        100  MISS %:          0   MPKI: 0
PSCL5 PREFETCH  REQUESTED:          0  ISSUED:          0  USEFUL:          0  USELESS:          0
PSCL5 USEFUL LOAD PREFETCHES:          0 PREFETCH ISSUED TO LOWER LEVEL:          0  ACCURACY: -nan
PSCL5 TIMELY PREFETCHES:          0 LATE PREFETCHES: 0 DROPPED PREFETCHES: 0
PSCL5 PREFETCHES SAME FILL-ORIGIN LEVEL: 0 DIFFERENT FILL-ORIGIN LEVEL: 0

PSCL4 TOTAL     ACCESS:     115336  HIT:     115011  MISS:        325  HIT %:    99.7182  MISS %:   0.281785   MPKI: 0.001625
PSCL4 LOAD TRANSLATION ACCESS:     115336  HIT:     115011  MISS:        325  HIT %:    99.7182  MISS %:   0.281785   MPKI: 0.001625
PSCL4 PREFETCH  REQUESTED:          0  ISSUED:          0  USEFUL:          0  USELESS:          0
PSCL4 USEFUL LOAD PREFETCHES:          0 PREFETCH ISSUED TO LOWER LEVEL:          0  ACCURACY: -nan
PSCL4 TIMELY PREFETCHES:          0 LATE PREFETCHES: 0 DROPPED PREFETCHES: 0
PSCL4 PREFETCHES SAME FILL-ORIGIN LEVEL: 0 DIFFERENT FILL-ORIGIN LEVEL: 0

PSCL3 TOTAL     ACCESS:     117306  HIT:     116981  MISS:        325  HIT %:    99.7229  MISS %:   0.277053   MPKI: 0.001625
PSCL3 LOAD TRANSLATION ACCESS:     117306  HIT:     116981  MISS:        325  HIT %:    99.7229  MISS %:   0.277053   MPKI: 0.001625
PSCL3 PREFETCH  REQUESTED:          0  ISSUED:          0  USEFUL:          0  USELESS:          0
PSCL3 USEFUL LOAD PREFETCHES:          0 PREFETCH ISSUED TO LOWER LEVEL:          0  ACCURACY: -nan
PSCL3 TIMELY PREFETCHES:          0 LATE PREFETCHES: 0 DROPPED PREFETCHES: 0
PSCL3 PREFETCHES SAME FILL-ORIGIN LEVEL: 0 DIFFERENT FILL-ORIGIN LEVEL: 0

PSCL2 TOTAL     ACCESS:     117653  HIT:      85851  MISS:      31802  HIT %:    72.9697  MISS %:    27.0303   MPKI: 0.15901
PSCL2 LOAD TRANSLATION ACCESS:     117653  HIT:      85851  MISS:      31802  HIT %:    72.9697  MISS %:    27.0303   MPKI: 0.15901
PSCL2 PREFETCH  REQUESTED:          0  ISSUED:          0  USEFUL:          0  USELESS:          0
PSCL2 USEFUL LOAD PREFETCHES:          0 PREFETCH ISSUED TO LOWER LEVEL:          0  ACCURACY: -nan
PSCL2 TIMELY PREFETCHES:          0 LATE PREFETCHES: 0 DROPPED PREFETCHES: 0
PSCL2 PREFETCHES SAME FILL-ORIGIN LEVEL: 0 DIFFERENT FILL-ORIGIN LEVEL: 0

LLC TOTAL     ACCESS:    3374517  HIT:    1665551  MISS:    1708966  HIT %:    49.3567  MISS %:    50.6433   MPKI: 8.54483
LLC LOAD      ACCESS:     902674  HIT:     560157  MISS:     342517  HIT %:    62.0553  MISS %:    37.9447   MPKI: 1.71258
LLC RFO       ACCESS:     276217  HIT:      17061  MISS:     259156  HIT %:    6.17667  MISS %:    93.8233   MPKI: 1.29578
LLC PREFETCH  ACCESS:    1447268  HIT:     485063  MISS:     962205  HIT %:    33.5158  MISS %:    66.4842   MPKI: 4.81102
AGUS PREFETCH L1 MISS: 0
LLC WRITEBACK ACCESS:     662393  HIT:     561397  MISS:     100996  HIT %:    84.7529  MISS %:    15.2471   MPKI: 0.50498
LLC LOAD TRANSLATION ACCESS:      85965  HIT:      41873  MISS:      44092  HIT %:    48.7094  MISS %:    51.2906   MPKI: 0.22046
LLC PREFETCH  REQUESTED:          0  ISSUED:          0  USEFUL:      28458  USELESS:     944569
LLC USEFUL LOAD PREFETCHES:      28458 PREFETCH ISSUED TO LOWER LEVEL:     962205  ACCURACY: 2.95758
LLC TIMELY PREFETCHES:      28458 LATE PREFETCHES: 0 DROPPED PREFETCHES: 0
LLC PREFETCHES SAME FILL-ORIGIN LEVEL: 0 DIFFERENT FILL-ORIGIN LEVEL: 0
LLC AVERAGE MISS LATENCY: 149.52 cycles
LLC RQ	ACCESS:    1264857	FORWARD:          0	MERGED:          0	TO_CACHE:    1264856
LLC WQ	ACCESS:     662393	FORWARD:          2	MERGED:          0	TO_CACHE:     662393
LLC PQ	ACCESS:    1447269	FORWARD:          0	MERGED:          0	TO_CACHE:    1447268

LLC Dense regions hint to LLC: 0

RAW hits: 3221327
Loads Generated: 45565530
Loads sent to L1D: 42344203
Stores Generated: 21428291
Stores sent to L1D: 21428311
Major fault: 0 Minor fault: 17224
Allocated PAGES: 17224
=== CPU 0 L1D Prefetcher Statistics ===
[MLOP] History of tracked zone:
IIIIIIIIIIIIIIIIIIIIIIIIIIIIIIIIIIIIIIIIIIIIIIIIIIIIIIIIIIIIIIII
IIIIIIIIIIIIIIIIIIIIIIIIIIIIIIIIAIIIIIIIIIIIIIIIIIIIIIIIIIIIIIII
IIIIIIIIIIIIIIIIIIIIIIIIIIIIIIIIAIIIIIIAIIIIIIIIIIIIIIIIIIIIIIII
IIIIIIIIIIIIIIIIIIIIIIIIIIIIIIIIAAIIIIIAIIIIIIIIIIIIIIIIIIIIIIII
IIIIIIIIIIIIIIIIIIIIIIIIIIIIIIIIAAIIIIIAIIAIIIIIIIIIIIIIIIIIIIII
IIIIIIIIIIIIIIIIIIIIIIIIIIIIIIIIAAIIAIIAIIAIIIIIIIIIIIIIIIIIIIII
IIIIIIIIIIIIIIIIIIIIIIIIIIIIIIIIAA12AIIAIIAIIIIIIIIIIIIIIIIIIIII
IIIIIIIIIIIIIIIIIIIIIIIIIIIIIIIIAA12AIIA12AIIIIIIIIIIIIIIIIIIIII
IIIIIIIIIIIIIIIIIIIIIIIIIIIIIIIIAA12A12A12AIIIIIIIIIIIIIIIIIIIII
IIIIIIIIIIIIIIIIIIIIIIIIIIIIIIIIAA12A12A12A12IIIIIIIIIIIIIIIIIII
IIIIIIIIIIIIIIIIIIIIIIIIIIIIIIIIAA12A12A12A12IA12IIIIIIIIIIIIIII
IIIIIIIIIIIIIIIIIIIIIIIIIIIIIIIIAA12A12A12A12IAA12IIIIIIIIIIIIII
IIIIIIIIIIIIIIIIIIIIIIIIIIII2111AIIIIIIIIIIIIIIIIIIIIIIIIIIIIIII
IIIIIIIIIIIIIIIIIIIIIIIIIIII2111AII2111AIIIIIIIIIIIIIIIIIIIIIIII
IIIIIIIIIIIIIIIIIIIIIIIIIIII2111AAI2111AIIIIIIIIIIIIIIIIIIIIIIII
IIIIIIIIIIIIIIIIIIIIIIIIIIII2111AAI2111A11AIIIIIIIIIIIIIIIIIIIII
IIIIIIIIIIIIIIIIIIIIIIIIIIII2111AA12111A11A1IIIIIIIIIIIIIIIIIIII
IIIIIIIIIIIIIIIIIIIIIIIIIIII2111AA12111A11A1I11111IIIIIIIIIIIIII
IIIIIIIIIIIIIIIIIIIIIIIIIIII2111AA12A11A11A1I11111IIIIIIIIIIIIII
IIIIIIIIIIIIIIIIIIIIIIIIIIII2111AA11A11A11A1I11111IIIIIIIIIIIIII
IIIIIIIIIIIIIIIIIIIIIIIIIIII2111AA11A11A1AA111111111IIIIIIIIIIII
IIIIIIIIIIIIIIIIIIIIIIIIIIII2111AA11A11A1AA1111111111IIIIIIIIIII
IIIIIIIIIIIIIIIIIIIIIIIIIIII2111AA11A11A1AA111A1111111111IIIIIII
IIIIIIIIIIIIIIIIIIIIIIIIIIII2111AA11A11A1AA111AA1111111111IIIIII
A1IIIIIIIIIIIIIIIIIIIIIIIIII2111AA11A11A1AA111AA1111111111IIIIII
A1IIIIIA1IIIIIIIIIIIIIIIIIII2111AA11A11A1AA111AA1111111111IIIIII
AA1IIIIA1IIIIIIIIIIIIIIIIIII2111AA11A11A1AA111AA1111111111IIIIII
AA1IIIIA1IA1IIIIIIIIIIIIIIII2111AA11A11A1AA111AA1111111111IIIIII
AA1IIIIA1IA1IIA1IIIIIIIIIIII2111AA11A11A1AA111AA1111111111IIIIII
AA1IIIIA1IA1IIAA1IIIIIIIIIII2111AA11A11A1AA111AA1111111111IIIIII
AA1IA1IA1IA1IIAA1IIIIIIIIIII2111AA11A11A1AA111AA1111111111IIIIII
AA1IA1IA1IA1IIAA1IIIIIIIIIII2111AAA1A11A1AA111AA1111111111IIIIII
AA1IA1IA11A1IIAA1IIIIIIIIIII2111AAA1A11A1AA111AA1111111111IIIIII
AA1IA1IA11A1IIAA1111IIIIIIII2111AAA1A11A1AA111AA1111111111IIIIII
AA1IAA1A11A111AA1111IIIIIIII2111AAA1A11A1AA111AA1111111111IIIIII
AA12AA1A11A111AA1111IIIIIIII2111AAA1A11A1AA111AA1111111111IIIIII
AAA1AA1A11A111AA1111IIIIIIII2111AAA1A11A1AA111AA1111111111IIIIII
AAA1AA1A1AA111AA1111IIIIIIII2111AAA1A11A1AA111AA1111111111IIIIII
AAA1AA1AAAA111AA1111IIIIIIII2111AAA1A11A1AA111AA1111111111IIIIII
AAA1AA1AAAA111AAA11111IIIIII2111AAA1A11A1AA111AA1111111111IIIIII
AAA1AA1AAAA111AAA111112IIIII2111AAA1A11A1AA111AA1111111111IIIIII
IAIIIIIIIIIIIIIIIIIIIIIIIIIIIIIIIIIIIIIIIIIIIIIIIIIIIIIIIIIIIIII
IAIII1IIIIIIIIIIIIIIIIIIIIIIIIIIIIIIIIIIIIIIIIIIIIIIIIIIIIIIIIII
IAII11II1111IIIIIIIIIIIIIIIIIIIIIIIIIIIIIIIIIIIIIIIIIIIIIIIIIIII
IAII11IA1111II1111IIIIIIIIIIIIIIIIIIIIIIIIIIIIIIIIIIIIIIIIIIIIII
IA1I11IA1111II1111IIIIIIIIIIIIIIIIIIIIIIIIIIIIIIIIIIIIIIIIIIIIII
IA1I11IA11A1II1111IIIIIIIIIIIIIIIIIIIIIIIIIIIIIIIIIIIIIIIIIIIIII
AA1I11IA11A1II1111IIIIIIIIIIIIIIIIIIIIIIIIIIIIIIIIIIIIIIIIIIIIII
AA1I111A11A1II1111IIIIIIIIIIIIIIIIIIIIIIIIIIIIIIIIIIIIIIIIIIIIII
AA1I111A11A121A111IIIIIIIIIIIIIIIIIIIIIIIIIIIIIIIIIIIIIIIIIIIIII
AA1I111A11A121AA11IIIIIIIIIIIIIIIIIIIIIIIIIIIIIIIIIIIIIIIIIIIIII
AA11A11A11A121AA11IIIIIIIIIIIIIIIIIIIIIIIIIIIIIIIIIIIIIIIIIIIIII
AA11A11A11A121AA11IIIIIIIIIII221AIIIIIIIIIIIIIIIIIIIIIIIIIIIIIII
AA11A11A11A121AA11IIIIIIIIIII221AIII221AIIIIIIIIIIIIIIIIIIIIIIII
AA11A11A11A121AA11IIIIIIIIIII221AAII221AIIIIIIIIIIIIIIIIIIIIIIII
AA11A11A11A121AA11IIIIIIIIIII221AAII221A21AIIIIIIIIIIIIIIIIIIIII
AA11A11A11A121AA11IIIIIIIIIII221AAII211A11A1II1IIIIIIIIIIIIIIIII
AA11A11A11A121AA11IIIIIIIIIII221AAII211A11A1I11111II1IIIIIIIIIII
AA11A11A11A121AA11IIIIIIIIIII221AAIIA11A11A1111111II1IIIIIIIIIII
AA11A11A11A121AA11IIIIIIIIIII221AAIIA11A1AA11111111I1IIIIIIIIIII
AA11A11A11A121AA11IIIIIIIIIII221AAIIA11A1AA1111111111II1IIIIIIII
AA11A11A11A121AA11IIIIIIIIIII221AAIIA11A1AA111A1111111111II1IIII
AA11A11A11A121AA11IIIIIIIIIII221AAIIA11A1AA111AA1111111111I11III
IIIIIIIIIIIIIIIIIIIIIIIIIIIIIIIIA1II1I1111IIIIIIIIIIIIIIIIIIIIII
IIIIIIIIIIIIIIIIIIIIIIIIIIIIIIIIA1II1I1A11I1I1111IIIIIIIIIIIIIII
IIIIIIIIIIIIIIIIIIIIIIIIIIIIIIIIAA1I111A1111I1111IIIIIIIIIIIIIII
IIIIIIIIIIIIIIIIIIIIIIIIIIIIIIIIAA1I111A11A1I1111111IIIIIIIIIIII
IIIIIIIIIIIIIIIIIIIIIIIIIIIIIIIIAA1I111A11A1I1A111111111IIIIIIII
IIIIIIIIIIIIIIIIIIIIIIIIIIIIIIIIAA1I111A11A1I1AA111111111IIIIIII
IIIIIIIIIIIIIIIIIIIIIIIIIIIIIIIIAA1IA11A11A111AA111111111IIIIIII
A1II1I1111IIIIIIIIIIIIIIIIIIIIIIAA1IA11A11A111AA111111111IIIIIII
A1II1I1A11I1I1111IIIIIIIIIIIIIIIAA1IA11A11A111AA111111111IIIIIII
AA1I111A1111I1111IIIIIIIIIIIIIIIAA1IA11A11A111AA111111111IIIIIII
AA1I111A11A1I1111111IIIIIIIIIIIIAA1IA11A11A111AA111111111IIIIIII
AA1I111A11A1I1A111111111IIIIIIIIAA1IA11A11A111AA111111111IIIIIII
AA1I111A11A1I1AA111111111IIIIIIIAA1IA11A11A111AA111111111IIIIIII
AA1IA11A11A111AA111111111IIIIIIIAA1IA11A11A111AA111111111IIIIIII
IIIIIIIIIIIIIIIIIIIII2IIIIIIIIIIA1211IIIIIIIIIIIIIIIIIIIIIIIIIII
IIIIIIIIIIIIIIIIIIIII2IIIIII2IIIA1211IIA1211IIIIIIIIIIIIIIIIIIII
IIIIIIIIIIIIIIIIIIIII22IIIII2IIIAA1111IA1211IIIIIIIIIIIIIIIIIIII
IIIIIIIIIIIIIIIIIIIII22IIIII2II2AA1111IA12A1211IIIIIIIIIIIIIIIII
IIIIIIIIIIIIIIIIIIIII22IIIII2II2AA1111IA12A121A1211IIIIIIIIIIIII
IIIIIIIIIIIIIIIIIIIII22IIIII2II2AA1111IA12A121AA1111IIIIIIIIIIII
IIIIIIIIIIIIIIIIIIIII22II2II2II2AA11A12A12A121AA1111IIIIIIIIIIII
A1211IIIIIIIIIIIIIIII22II2II2II2AA11A12A12A121AA1111IIIIIIIIIIII
A1211IIA1211IIIIIIIII22II2II2II2AA11A12A12A121AA1111IIIIIIIIIIII
AA1111IA1211IIIIIIIII22II2II2II2AA11A12A12A121AA1111IIIIIIIIIIII
AA1111IA12A1211IIIIII22II2II2II2AA11A12A12A121AA1111IIIIIIIIIIII
AA1111IA12A121A1211II22II2II2II2AA11A12A12A121AA1111IIIIIIIIIIII
AA1111IA12A121AA1111I22II2II2II2AA11A12A12A121AA1111IIIIIIIIIIII
AA11A12A12A121AA1111I22II2II2II2AA11A12A12A121AA1111IIIIIIIIIIII
IIIIIIIIIIIIIIIIIIIIIIIIIIIIIIIIA12II2IIIIIIIIIIIIIIIIIIIIIIIIII
IIIIIIIIIIIIIIIIIIIIIIIIIIIIIIIIA12II2IA12II2IIIIIIIIIIIIIIIIIII
IIIIIIIIIIIIIIIIIIIIIIIIIIIIIIIIAA12I22A12II2IIIIIIIIIIIIIIIIIII
IIIIIIIIIIIIIIIIIIIIIIIIIIIIIIIIAA12I22A12A12II2IIIIIIIIIIIIIIII
IIIIIIIIIIIIIIIIIIIIIIIIIIIIIIIIAA12A12A12A12II2IIIIIIIIIIIIIIII
IIIIIIIIIIIIIIIIIIIIIIIIIIIIIIIIAA11A12A12A12II2IIIIIIIIIIIIIIII
IIIIIIIIIIIIIIIIIIIIIIIIIIIIIIIIAA11A12A11A122I2IIIIIIIIIIIIIIII
IIIIIIIIIIIIIIIIIIIIIIIIIIIIIIIIAA11A11A11A122I2IIIIIIIIIIIIIIII
IIIIIIIIIIIIIIIIIIIIIIIIIIIIIIIIAAA1A11A11A122I2IIIIIIIIIIIIIIII
IIIIIIIIIIIIIIIIIIIIIIIIIIIIIIIIAAA1A11A1AA122I2IIIIIIIIIIIIIIII
IIIIIIIIIIIIIIIIIIIIIIIIIIIIIIIIAAA1A11AAAA12222IIIIIIIIIIIIIIII
IIIIIIIIIIIIIIIIIIIIIIIIIIIIIIIIAAA1A11AAAA11222IIIIIIIIIIIIIIII
IIIIIIIIIIIIIIIIIIIIIIIIIIIII1I1AAA1A11AAAA11222IIIIIIIIIIIIIIII
IIIIIIIIIIIIIIIIIIIIIIIIIIII1111AAA1A11AAAA11222IIIIIIIIIIIIIIII
IIIIIIIIIIIIIIIIIIIIIIIIIIII1111AAA1A11AAAA111A2IIIIIIIIIIIIIIII
IIIIIIIIIIIIIIIIIIIIIIIIIIII1111AAA1A11AAAA111AAIIIIIIIIIIIIIIII
IIIIIIIIIIIIIIIIIIIIIIIIIIIIIIIIA1122I222I22IIIIIIIIIIIIIIIIIIII
IIIIIIIIIIIIIIIIIIIIIIIIIIIIIIIIA1122I2A2I22IIIIIIIIIIIIIIIIIIII
IIIIIIIIIIIIIIIIIIIIIIIIIIIIIIIIAA11222A2222IIIIIIIIIIIIIIIIIIII
IIIIIIIIIIIIIIIIIIIIIIIIIIIIIIIIAA11222A22A11IIIIIIIIIIIIIIIIIII
IIIIIIIIIIIIIIIIIIIIIIIIIIIIIIIIAA11222A11A11222I22IIIIIIIIIIIII
IIIIIIIIIIIIIIIIIIIIIIIIIIIIIIIIAA11222A11A11222222I22IIIIIIIIII
IIIIIIIIIIIIIIIIIIIIIIIIIIIIIIIIAA11A11A11A11222222I22IIIIIIIIII
IIIIIIIIIIIIIIIIIIIIIIIIIIIIIIIIAAA1A11A11A11222222I22IIIIIIIIII
IIIIIIIIIIIIIIIIIIIIIIIIIIIIIIIIAAA1A11A1AA11222222I22IIIIIIIIII
IIIIIIIIIIIIIIIIIIIIIIIIIIIIIIIIAAA1A11A1AA11122222I22IIIIIIIIII
IIIIIIIIIIIIIIIIIIIIIIIIIIIIIIIIAAA1A11A1AA11112222I22IIIIIIIIII
IIIIIIIIIIIIIIIIIIIIIIIIIIIIIIIIAAA1A11A1AA11111211I22IIIIIIIIII
IIIIIIIIIIIIIIIIIIIIIIIIIIIIIIIIAAA1A11A1AA11111111111I11IIIIIII
IIIIIIIIIIIIIIIIIIIIIIIIIIIIIIIIAAA1A11A1AA11111111111111I11IIII
IIIIIIIIIIIIIIIIIIIIIIIIIIIIIIIIAAA1A11A1AA11111111111111111IIII
IIIIIIIIIIIIIIIIIIIIIIIIIIIIIIIIAAA1AA1A1AA11111111111111111IIII
IIIIIIIIIIIIIIIIIIIIIIIIIIIIIIIIA1IIIIIIIIIIIIIIIIIIIIIIIIIIIIII
IIIIIIIIIIIIIIIIIIIIIIIIIIIIIIIIA1IIIIIIIIA1IIIIIIIIIIIIIIIIIIII
IIIIIIIIIIIIIIIIIIIIIIIIIIIIIIIIA1IIIIIIIIA12IIIIIIIIIIIIIIIIIII
IIIIIIIIIIIIIIIIIIIIIIIIIIIIIIIIA1IIIIIA1IA12IIII1I2IIIIIIIIIIII
IIIIIIIIIIIIIIIIIIIIIIIIIIIIIIIIA1IIA1IA1IA12I1I21I2IIIIIIIIIIII
IIIIIIIIIIIIIIIIIIIIIIIIIIIIIIIIAA1IA1IA1IA1221I21I2IIIIIIIIIIII
IIIIIIIIIIIIIIIIIIIIIIIIIIIIIIIIAA1IA1IA1AA1221I21I1I2IIIIIIIIII
IIIIIIIIIIIIIIIIIIIIIIIIIIIIIIIIAA12A1IA1AA1221I21I1I2IIIIIIIIII
IIIIIIIIIIIIIIIIIIIIIIIIIIIIIIIIAA12A12A1AA1221I21I1I2IIIIIIIIII
IIIIIIIIIIIIIIIIIIIIIIIIIIIIIIIIAA12AA1A1AA1221I21I1I2IIIIIIIIII
IIIIIIIIIIIIIIIIIIIIIIIIIIIIIII2AA12AA1A1AA1221I21I1I2IIIIIIIIII
IIIIIIIIIIIIIIIIIIIIIIIIIIIIIII2AA11AA1A1AA1221I21I1I2IIIIIIIIII
IIIIIIIIIIIIIIIIIIIIIIIIIIIIIII2AAA1AA1A1AA1221I21I1I2IIIIIIIIII
IIIIIIIIIIIIIIIIIIIIIIIIIIIIIII2AAA1AA1AAAA1221I21I1I2IIIIIIIIII
IIIIIIIIIIIIIIIIIIIIIIIIIIIIIII2AAA1AA1AAAA1111221I1I2IIIIIIIIII
IIIIIIIIIIIIIIIIIIIIIIIIIIIIIII2AAA1AA1AAAA111A1112122IIIIIIIIII
IIIIIIIIIIIIIIIIIIIIIIIIIIIIIII2AAA1AA1AAAA111AA111122IIIIIIIIII
A111222IIIIIIIIIIIIIIIIIIIIIIII2AAA1AA1AAAA111AA111122IIIIIIIIII
A111222A111222IIIIIIIIIIIIIIIII2AAA1AA1AAAA111AA111122IIIIIIIIII
AA11122A111222IIIIIIIIIIIIIIIII2AAA1AA1AAAA111AA111122IIIIIIIIII
AA11122A11A222IIIIIIIIIIIIIIIII2AAA1AA1AAAA111AA111122IIIIIIIIII
AA11121A11A222IIIIIIIIIIIIIIIII2AAA1AA1AAAA111AA111122IIIIIIIIII
AA11121A11A221AIIIIIIIIIIIIIIII2AAA1AA1AAAA111AA111122IIIIIIIIII
AA11121A11A221AAIIIIIIIIIIIIIII2AAA1AA1AAAA111AA111122IIIIIIIIII
AA11A21A11A221AAIIIIIIIIIIIIIII2AAA1AA1AAAA111AA111122IIIIIIIIII
A1II1I12222IIIIIIIIIIIIIIIIIIIIIIIIIIIIIIIIIIIIIIIIIIIIIIIIIIIII
A1II1I1A222IIIIIIIIIIIIIIIIIIIIIIIIIIIIIIIIIIIIIIIIIIIIIIIIIIIII
AA1I1I1A222IIIIIIIIIIIIIIIIIIIIIIIIIIIIIIIIIIIIIIIIIIIIIIIIIIIII
AA1I1I1A22A1II1I1222IIIIIIIIIIIIIIIIIIIIIIIIIIIIIIIIIIIIIIIIIIII
AA1I111A22A1II1I1222IIIIIIIIIIIIIIIIIIIIIIIIIIIIIIIIIIIIIIIIIIII
AA1I111A12A1I1121222IIIIIIIIIIIIIIIIIIIIIIIIIIIIIIIIIIIIIIIIIIII
AA1I111A12A1I11212222IIIIIIIIIIIIIIIIIIIIIIIIIIIIIIIIIIIIIIIIIII
AA1IA11A12A1211212222IIIIIIIIIIIIIIIIIIIIIIIIIIIIIIIIIIIIIIIIIII
AA11A11A12A1111212222IIIIIIIIIIIIIIIIIIIIIIIIIIIIIIIIIIIIIIIIIII
AA11A11A11A1111212111IIIIIIIIIIIIIIIIIIIIIIIIIIIIIIIIIIIIIIIIIII
AA11A11A11A1111111111IIIIIIIIIIIIIIIIIIIIIIIIIIIIIIIIIIIIIIIIIII
AA11A11A11A1111111111111IIIIIIIIIIIIIIIIIIIIIIIIIIIIIIIIIIIIIIII
AA11A11A11A111A111111111IIIIIIIIIIIIIIIIIIIIIIIIIIIIIIIIIIIIIIII
AA11A11A11A111AA11111111II1IIIIIIIIIIIIIIIIIIIIIIIIIIIIIIIIIIIII
AA11A11A11A111AA11111111II1IIIIIA111IIIIIII111IIIIIIIIIIIIIIIIII
AA11A11A11A111AA11111111II1IIIIIA111IIIA111111IIII1IIIIIIIIIIIII
AA11A11A11A111AA11111111II1IIIIIAA111IIA1111111III1IIIIIIIIIIIII
AA11A11A11A111AA11111111II1IIIIIAA111IIA11A1111III1II111IIIIIIII
AA11A11A11A111AA11111111II1IIIIIAA111IIA11A1111III111111IIIIIIII
AA11A11A11A111AA11111111II1IIIIIAA11A11A11A1111111111111IIIIIIII
AA11A11A11A111AA11111111II1IIII2AA11A11A11A1111111111111IIIIIIII
AA11A11A11A111AA11111111II1II1I1AA11A11A11A1111111111111IIIIIIII
AA11A11A11A111AA11111111II1II1I1AA11A11A11A1111111111111111IIIII
AA11A11A11A111AA11111111II1II1I1AA11A11A1AA1111111111111111IIIII
AA11A11A11A111AA11111111II1II1I1AA11AA1A1AA1111111111111111IIIII
AA11A11A11A111AA11111111111II1I1AA11AA1A1AA1111111111111111IIIII
IA12IIIIIIIIIIIIIIIIIIIIIIIIIIIIIIIIIIIIIIIIIIIIIIIIIIIIIIIIIIII
IA12IIIA12IIIIIIIIIIIIIIIIIIIIIIIIIIIIIIIIIIIIIIIIIIIIIIIIIIIIII
AA12IIIA12IIIIIIIIIIIIIIIIIIIIIIIIIIIIIIIIIIIIIIIIIIIIIIIIIIIIII
AAA12IIA12IIIIIIIIIIIIIIIIIIIIIIIIIIIIIIIIIIIIIIIIIIIIIIIIIIIIII
AAA1A12A12IIIIIIIIIIIIIIIIIIIIIIIIIIIIIIIIIIIIIIIIIIIIIIIIIIIIII
AAA1A12A1A12IIIIIIIIIIIIIIIIIIIIIIIIIIIIIIIIIIIIIIIIIIIIIIIIIIII
IIIIIIIIIIIIIIIIIIIIIIIIIIIIIIIIIIIIIAII11I111222I2IIIIIIIIIIIII
IIIIIIIIIIIIIIIIIIIIIIIIIIIIIIIIIIIIIAII1AI111211122IIIIIIIIIIII
IIIIIIIIIIIIIIIIIIIIIIIIIIIIIIIIAII1II1IIIIII2IIIIIIIIIIIIIIIIII
IIIIIIIIIIIIIIIIIIIIIIIIIIIIIIIIAII1II1IIIA1I2IIIIIIIIIIIIIIIIII
IIIIIIIIIIIIIIIIIIIIIIIIIIIIIIIIA1I1II1IIIA1I2IIIIIIIIIIIIIIIIII
IIIIIIIIIIIIIIIIIIIIIIIIIIIIIIIIAA11II1IIIA1I2IIIIIIIIIIIIIIIIII
IIIIIIIIIIIIIIIIIIIIIIIIIIIIIIIIAA11II1A1IA1I2IIIIIIIIIIIIIIIIII
IIIIIIIIIIIIIIIIIIIIIIIIIIIIIIIIAA11II1A1IA1I2A1IIIIIIIIIIIIIIII
IIIIIIIIIIIIIIIIIIIIIIIIIIIIIIIIAA11II1A1IA1I2AA1IIIIIIIIIIIIIII
IIIIIIIIIIIIIIIIIIIIIIIIIIIIIIIIAA11A11A1IA1I2AA1IIIIIIIIIIIIIII
IA1IIIIIIIIIIIIIIIIIIIIIIIIIIIIIAA11A11A1IA1I2AA1IIIIIIIIIIIIIII
IA1IIIIA1IIIIIIIIIIIIIIIIIIIIIIIAA11A11A1IA1I2AA1IIIIIIIIIIIIIII
IA1I1IIA1I1III1IIIIIIIIIIIIIIIIIAA11A11A1IA1I2AA1IIIIIIIIIIIIIII
IA1I1IIA1I1II11I1III1IIIIIIIIIIIAA11A11A1IA1I2AA1IIIIIIIIIIIIIII
IIIIIIIIIIIIIIIIA111222IIIIIIIIIIIIIIIIIIIIIIIIIIIIIIIIIIIIIIIII
IIIIIIIIIIIIIIIIA111222IIIIIIIIIA111222IIIIIIIIIIIIIIIIIIIIIIIII
IIIIIIIIIIIIIIIIA111222IIIIIIIIIA111222A111222IIIIIIIIIIIIIIIIII
IIIIIIIIIIIIIIIIA111222IIIIIIIIIAA11122A111222IIIIIIIIIIIIIIIIII
IIIIIIIIIIIIIIIIA111222IIIIIIIIIAA11122A11A111IIIIIIIIIIIIIIIIII
IIIIIIIIIIIIIIIIA111222IIIIIIIIIAA11122A11A111222IIIIIIIIIIIIIII
IIIIIIIIIIIIIIIIA111222IIIIIIIIIAA11A11A11A111222IIIIIIIIIIIIIII
IIIIIIIIIIIIIIIIA111222IIIIIIIIIAA11A11A1AA111222IIIIIIIIIIIIIII
IIIIIIIIIIIIIIIIA111222IIIIIIIIIAA11A11A1AA111A111222IIIIIIIIIII
IIIIIIIIIIIIIIIIA111222IIIIIIIIIAA11A11A1AA111AA111222IIIIIIIIII
IIIIIIIIIIIIIIIIIIIIIIIIIIIIIIIIAIIIIIIIIIIIIIIIIIIIIIIIIIIIIIII
IIIIIIIIIIIIIIIIIIIIIIIIIIIIIIIIA11IIIIIIIIIIIIIIIIIIIIIIIIIIIII
IIIIIIIIIIIIIIIIIIIIIIIIIIIIIIIIA11IIIIA11111IIIIIIIIIIIIIIIIIII
IIIIIIIIIIIIIIIIIIIIIIIIIIIIIIIIAA111IIA11111IIIIIIIIIIIIIIIIIII
IIIIIIIIIIIIIIIIIIIIIIIIIIIIIIIIAA11111A111111112IIIIIIIIIIIIIII
IIIIIIIIIIIIIIIIIIIIIIIIIIIIIIIIAA11111A11A111112IIIIIIIIIIIIIII
IIIIIIIIIIIIIIIIIIIIIIIIIIIIIIIIAA11111A11A1111112IIIIIIIIIIIIII
IIIIIIIIIIIIIIIIIIIIIIIIIIIIIIIIAA11111A11A1111111111112IIIIIIII
IIIIIIIIIIIIIIIIIIIIIIIIIIIIIIIIAA11111A11A1111111111111112IIIII
IIIIIIIIIIIIIIIIIIIIIIIIIIIIIIIIAA11111A11A111A111111111111111II
IIIIIIIIIIIIIIIIIIIIIIIIIIIIIIIIAA11111A11A111AA11111111111111II
IIIIIIIIIIIIIIIIIIIIIIIIIIIIIIIIAA11A11A11A111AA11111111111111II
IA2IIIIIIIIIIIIIIIIIIIIIIIIIIIIIAA11A11A11A111AA11111111111111II
IA2IIIIA2IIIIIIIIIIIIIIIIIIIIIIIAA11A11A11A111AA11111111111111II
IA2IA2IA2IIIIIIIIIIIIIIIIIIIIIIIAA11A11A11A111AA11111111111111II
AA2IA2IA2IIIIIIIIIIIIIIIIIIIIIIIAA11A11A11A111AA11111111111111II
AA2IA2IA2A2IIIIIIIIIIIIIIIIIIIIIAA11A11A11A111AA11111111111111II
AA2IAA2A2A2IIIIIIIIIIIIIIIIIIIIIAA11A11A11A111AA11111111111111II
AA2IAA2A2AA2IIIIIIIIIIIIIIIIIIIIAA11A11A11A111AA11111111111111II
IIIIIIIIIIIIIIIIIIIIIIIIIIIIIIIIA11111112IIIIIIIIIIIIIIIIIIIIIII
IIIIIIIIIIIIIIIIIIIIIIIIIIIIIIIIA111111122IIIIIIIIIIIIIIIIIIIIII
IIIIIIIIIIIIIIIIIIIIIIIIIIIIIIIIA111111A111IIIIIIIIIIIIIIIIIIIII
IIIIIIIIIIIIIIIIIIIIIIIIIIIIIIIIAA11111A111IIIIIIIIIIIIIIIIIIIII
IIIIIIIIIIIIIIIIIIIIIIIIIIIIIIIIAA11111A11A1111IIIIIIIIIIIIIIIII
IIIIIIIIIIIIIIIIIIIIIIIIIIIIIIIIAA11111A11A111122IIIIIIIIIIIIIII
IIIIIIIIIIIIIIIIIIIIIIIIIIIIIIIIAA11111A11A111111122IIIIIIIIIIII
IIIIIIIIIIIIIIIIIIIIIIIIIIIIIIIIAA11A11A11A111111122IIIIIIIIIIII
IIIIIIIIIIIIIIIIIIIIIIIIIIIIIIIIAA11A11A1AA111111122IIIIIIIIIIII
IIIIIIIIIIIIIIIIIIIIIIIIIIIIIIIIAA11AA1A1AA111111122IIIIIIIIIIII
IIIIIIIIIIIIIIIIIIIIIIIIIIIIIIIIAA11AA1A1AA111A111111122IIIIIIII
IIIIIIIIIIIIIIIIIIIIIIIIIIIIIIIIAA11AA1A1AA111AA11111112IIIIIIII
A11111112IIIIIIIIIIIIIIIIIIIIIIIAA11AA1A1AA111AA11111112IIIIIIII
AA111111122IIIIIIIIIIIIIIIIIIIIIAA11AA1A1AA111AA11111112IIIIIIII
AA11111A111111122IIIIIIIIIIIIIIIAA11AA1A1AA111AA11111112IIIIIIII
AA11111A11A111111122IIIIIIIIIIIIAA11AA1A1AA111AA11111112IIIIIIII
AA11111A11A111A111111122IIIIIIIIAA11AA1A1AA111AA11111112IIIIIIII
AA11111A11A111AA111111122IIIIIIIAA11AA1A1AA111AA11111112IIIIIIII
AA11A11A11A111AA111111122IIIIIIIAA11AA1A1AA111AA11111112IIIIIIII
IIIIIIIIIIIIIIIIIIIIIIIIIIIIIIIIAIIIIIIIIIIIIIIIIIIIIIIIIIIIIIII
IIIIIIIIIIIIIIIIIIIIIIIIIIIIIIIIAIIIIIIAIIIIIIIIIIIIIIIIIIIIIIII
IIIIIIIIIIIIIIIIIIIIIIIIIIIIIIIIAAIIIIIAIIIIIIIIIIIIIIIIIIIIIIII
IIIIIIIIIIIIIIIIIIIIIIIIIIIIIIIIAAIIIIIAIIAIIIIIIIIIIIIIIIIIIIII
IIIIIIIIIIIIIIIIIIIIIIIIIIIIIIIIAAIIAIIAIIAIIIIIIIIIIIIIIIIIIIII
IIIIIIIIIIIIIIIIIIIIIIIIIIIIIIIIAAIIAIIAIAAIIIIIIIIIIIIIIIIIIIII
IIIIIIIIIIIIIIIIIIIIIIIIIIIIIIIIAAIIAIIAIAAIIIAIIIIIIIIIIIIIIIII
IIIIIIIIIIIIIIIIIIIIIIIIIIIIIIIIAAIIAIIAIAAIIIAAIIIIIIIIIIIIIIII
AIIIIIIIIIIIIIIIIIIIIIIIIIIIIIIIAAIIAIIAIAAIIIAAIIIIIIIIIIIIIIII
AIIIIIIAIIIIIIIIIIIIIIIIIIIIIIIIAAIIAIIAIAAIIIAAIIIIIIIIIIIIIIII
AAIIIIIAIIIIIIIIIIIIIIIIIIIIIIIIAAIIAIIAIAAIIIAAIIIIIIIIIIIIIIII
AAIIIIIAIIAIIIIIIIIIIIIIIIIIIIIIAAIIAIIAIAAIIIAAIIIIIIIIIIIIIIII
AAIIIIIAIIAIIIAIIIIIIIIIIIIIIIIIAAIIAIIAIAAIIIAAIIIIIIIIIIIIIIII
AAIIIIIAIIAIIIAAIIIIIIIIIIIIIIIIAAIIAIIAIAAIIIAAIIIIIIIIIIIIIIII
AAIIAIIAIIAIIIAAIIIIIIIIIIIIIIIIAAIIAIIAIAAIIIAAIIIIIIIIIIIIIIII
AAIIAIIAIIAIIIAAIIIIIIIIIIIIIIIIAAI2AIIAIAAIIIAAIIIIIIIIIIIIIIII
AAIIAIIAIIAIIIAAIIIIIIIIIIIIIIIIAAI2AIIA1AAIIIAAIIIIIIIIIIIIIIII
AAIIAIIAIIAIIIAAIIIIIIIIIIIIIIIIAA12AIIA1AAIIIAAIIIIIIIIIIIIIIII
AAIIAIIAIIAIIIAAIIIIIIIIIIIIIIIIAA12AIIA1AA1I2AAIIIIIIIIIIIIIIII
AAIIAIIAIIAIIIAAIIIIIIIIIIIIIIIIAA12A1IA1AA1I2AAIIIIIIIIIIIIIIII
AA11AIIAIIAIIIAAIIIIIIIIIIIIIIIIAA12A1IA1AA1I2AAIIIIIIIIIIIIIIII
AA11AIIAIIA11IAAIIIIIIIIIIIIIIIIAA12A1IA1AA1I2AAIIIIIIIIIIIIIIII
AA11AIIAIIA111AAIIIIIIIIIIIIIIIIAA12A1IA1AA1I2AAIIIIIIIIIIIIIIII
AA11AIIA11A111AAII11IIIIIIIIIIIIAA12A1IA1AA1I2AAIIIIIIIIIIIIIIII
AA11AIIA11A111AAII11I11IIIIIIIIIAA12A1IA1AA1I2AAIIIIIIIIIIIIIIII
AA11A11A11A111AA1I11I11IIIIIIIIIAA12A1IA1AA1I2AAIIIIIIIIIIIIIIII
AA11AA1A11A111AA1111I11IIIIIIIIIAA12A1IA1AA1I2AAIIIIIIIIIIIIIIII
AA11AA1A11A111AA1111I111IIIIIIIIAA12A1IA1AA1I2AAIIIIIIIIIIIIIIII
IA11IIIIIIIIIIIIIIIIIIIIIIIIIIIIIIIIIIIIIIIIIIIIIIIIIIIIIIIIIIII
IA11III1II111I1IIIIIIIIIIIIIIIIIIIIIIIIIIIIIIIIIIIIIIIIIIIIIIIII
IA11IIIA1111111I111I1IIIIIIIIIIIIIIIIIIIIIIIIIIIIIIIIIIIIIIIIIII
1A11IIIA1111111I111I1IIIIIIIIIIIIIIIIIIIIIIIIIIIIIIIIIIIIIIIIIII
1A11I11A1111111I111I1IIIIIIIIIIIIIIIIIIIIIIIIIIIIIIIIIIIIIIIIIII
1A11111A1111111I111I1IIIIIIIIIIIIIIIIIIIIIIIIIIIIIIIIIIIIIIIIIII
1A11111A11A11111111I1IIIIIIIIIIIIIIIIIIIIIIIIIIIIIIIIIIIIIIIIIII
AA11111A11A11111111I1IIIIIIIIIIIIIIIIIIIIIIIIIIIIIIIIIIIIIIIIIII
AA111A1A11A11111111I1IIIIIIIIIIIIIIIIIIIIIIIIIIIIIIIIIIIIIIIIIII
AAA11A1A11A11111111I1IIIIIIIIIIIIIIIIIIIIIIIIIIIIIIIIIIIIIIIIIII
AAA1AA1A11A11111111I1IIIIIIIIIIIIIIIIIIIIIIIIIIIIIIIIIIIIIIIIIII
AAA1AA1A1AA11111111I1IIIIIIIIIIIIIIIIIIIIIIIIIIIIIIIIIIIIIIIIIII
AAA1AA1A1AA11111111I1IIIIIIIIIIIA111111IIIIIIIIIIIIIIIIIIIIIIIII
AAA1AA1A1AA11111111I1IIIIIIIIIIIA111111A111111IIIIIIIIIIIIIIIIII
AAA1AA1A1AA11111111I1IIIIIIIIIIIAA11111A111111IIIIIIIIIIIIIIIIII
AAA1AA1A1AA11111111I1IIIIIIIIIIIAA11111A11A111111IIIIIIIIIIIIIII
AAA1AA1A1AA11111111I1IIIIIIIIIIIAAA1111A11A111111IIIIIIIIIIIIIII
AAA1AA1A1AA11111111I1IIIIIIIIIIIAAA1A11A11A111111IIIIIIIIIIIIIII
AAA1AA1A1AA11111111I1IIIIIIIIIIIAAA1A11A1AA111111IIIIIIIIIIIIIII
AAA1AA1A1AA11111111I1IIIIIIIIII1AAA1A11A1AA111111IIIIIIIIIIIIIII
AAA1AA1A1AA11111111I1IIIIIIIIII1AAA1AA1A1AA111111IIIIIIIIIIIIIII
AAA1AA1A1AA11111111I1IIIIIIIIII1AAA1AA1A1AA111111I2I2IIIIIIIIIII
AAA1AA1A1AA11111111I1IIIIIIIIII1AAA1AA1A1AA11111122I2IIIIIIIIIII
AAA1AA1A1AA11111111I1IIIIIIIIII1AAA1AA1A1AA111A1122I22IIIIIIIIII
AAA1AA1A1AA11111111I1IIIIIIIIII1AAA1AA1A1AA111AA112I222IIIIIIIII
IIIIIIIIIIIIIIIIIIIIIIIIIIIIIIIIA1II1IIIII1II2IIIIIIIIIIIIIIIIII
IIIIIIIIIIIIIIIIIIIIIIIIIIIIIIIIA1II1IIA1I11I2III1II2IIIIIIIIIII
IIIIIIIIIIIIIIIIIIIIIIIIIIIIIIIIAA1I11IA1I11I22II1II2IIIIIIIIIII
IIIIIIIIIIIIIIIIIIIIIIIIIIIIIIIIAA1I11IA1IA1I21II1II1II2IIIIIIII
IIIIIIIIIIIIIIIIIIIIIIIIIIIIIIIIAA1I11IA1IA1I2A1I11I1II21II2IIII
IIIIIIIIIIIIIIIIIIIIIIIIIIIIIIIIAA1I11IA1IA1I2AA11111II211I22III
IIIIIIIIIIIIIIIIIIIIIIIIIIIIIIIIAA1IA1IA1IA1I2AA11111II211I22III
A1II1IIIII1II2IIIIIIIIIIIIIIIIIIAA1IA1IA1IA1I2AA11111II211I22III
AA1I11IIII11I22IIIIIIIIIIIIIIIIIAA1IA1IA1IA1I2AA11111II211I22III
AA1I11IA1I11I22II1II2IIIIIIIIIIIAA1IA1IA1IA1I2AA11111II211I22III
AA1I11IA1IA1I21II1II1II2IIIIIIIIAA1IA1IA1IA1I2AA11111II211I22III
AA1I11IA1IA1I2A1I11I1II21II2IIIIAA1IA1IA1IA1I2AA11111II211I22III
AA1I11IA1IA1I2AA11111II211I22IIIAA1IA1IA1IA1I2AA11111II211I22III
AA1IA1IA1IA1I2AA11111II211I22IIIAA1IA1IA1IA1I2AA11111II211I22III
AA1IA1IA1IA1I2AA11111II211I22IIIAA12A1IA1IA1I2AA11111II211I22III
AA1IA1IA1IA1I2AA11111II211I22IIIAA12A1IA12A1I2AA11111II211I22III
AA1IA1IA1IA1I2AA11111II211I22IIIAA12A1IA12A122AA11111II211I22III
AA1IA1IA1IA1I2AA11111II211I22IIIAA12A12A12A122AA11111II211I22III
AA12A1IA1IA1I2AA11111II211I22IIIAA12A12A12A122AA11111II211I22III
AA12A1IA12A1I2AA11111II211I22IIIAA12A12A12A122AA11111II211I22III
AA12A1IA12A122AA11111II211I22IIIAA12A12A12A122AA11111II211I22III
AA12A12A12A122AA11111II211I22IIIAA12A12A12A122AA11111II211I22III
IIIIIIIIIIIIIIIIIIIIIIIIIIII1I11AIIIIIIIIIIIIIIIIIIIIIIIIIIIIIII
IIIIIIIIIIIIIIIIIIIIIIIIIIII1I11AII1I11AIIIIIIIIIIIIIIIIIIIIIIII
IIIIIIIIIIIIIIIIIIIIIIIIIIII1111AAI1I11AIIIIIIIIIIIIIIIIIIIIIIII
IIIIIIIIIIIIIIIIIIIIIIIIIIII1111AAI1I11A11AIIIIIIIIIIIIIIIIIIIII
IIIIIIIIIIIIIIIIIIIIIIIIIIII1111AA11A11A11AIIIIIIIIIIIIIIIIIIIII
IIIIIIIIIIIIIIIIIIIIIIIIIIII1111AA11A11A11A22IIIIIIIIIIIIIIIIIII
IIIIIIIIIIIIIIIIIIIIIIIIIIII1111AA11A11A11A12I22IIIIIIIIIIIIIIII
IIIIIIIIIIIIIIIIIIIIIIIIIIII1111AA11A11A11A12IA1II22IIIIIIIIIIII
IIIIIIIIIIIIIIIIIIIIIIIIIIII1111AA11A11A11A12IAA1I222IIIIIIIIIII
A1II22IIIIIIIIIIIIIIIIIIIIII1111AA11A11A11A12IAA1I222IIIIIIIIIII
A1II22IA1II22IIIIIIIIIIIIIII1111AA11A11A11A12IAA1I222IIIIIIIIIII
AA1I222A1II22IIIIIIIIIIIIIII1111AA11A11A11A12IAA1I222IIIIIIIIIII
AA1I222A1IA12I22IIIIIIIIIIII1111AA11A11A11A12IAA1I222IIIIIIIIIII
AA1I2A1A12A12I22IIIIIIIIIIII1111AA11A11A11A12IAA1I222IIIIIIIIIII
AA1IAA1A12A12I22IIIIIIIIIIII1111AA11A11A11A12IAA1I222IIIIIIIIIII
AA12AA1A12A12I22IIIIIIIIIIII1111AA11A11A11A12IAA1I222IIIIIIIIIII
AA11AA1A12A12I22IIIIIIIIIIII1111AA11A11A11A12IAA1I222IIIIIIIIIII
AA11AA1A11A11122IIIIIIIIIIII1111AA11A11A11A12IAA1I222IIIIIIIIIII
AA11AA1A11A111111IIIIIIIIIII1111AA11A11A11A12IAA1I222IIIIIIIIIII
AA11AA1A11A111A11IIIIIIIIIII1111AA11A11A11A12IAA1I222IIIIIIIIIII
AA11AA1A11A111AA1IIIIIIIIIII1111AA11A11A11A12IAA1I222IIIIIIIIIII
AA11AA1A11A111AA1IIIIIIIIIII1111AA11A11A11A121AA12222IIIIIIIIIII
AA11AA1A11A111AA1IIIIIIIIIII1111AA11A11A1AA111AA12222IIIIIIIIIII
AA11AA1A11A111AA1IIIIIIIIIII1111AA11AA1A1AA111AA12222IIIIIIIIIII
AA11AA1A11A111AA12IIIIIIIIII1111AA11AA1A1AA111AA12222IIIIIIIIIII
AA11AA1A11A111AA12222IIIIIII1111AA11AA1A1AA111AA12222IIIIIIIIIII
AA11AA1A11A111AA11221I222III1111AA11AA1A1AA111AA12222IIIIIIIIIII
AA11AA1A11A111AA1112112222II1111AA11AA1A1AA111AA12222IIIIIIIIIII
AA11AA1A11A111AA1111112222II1111AA11AA1A1AA111AA12222IIIIIIIIIII
AA11AA1A11A111AA1111111111II1111AA11AA1A1AA111AA12222IIIIIIIIIII
AA11AA1A11A111AA11111111111I1111AA11AA1A1AA111AA12222IIIIIIIIIII
AA11AA1A11A111AA11111111111I1111AA11AA1A1AA111AA111111IIIIIIIIII
A112II22222IIIIIIIIIIIIIIIIIIIIIIIIIIIIIIIIIIIIIIIIIIIIIIIIIIIII
A112II2A112II22IIIIIIIIIIIIIIIIIIIIIIIIIIIIIIIIIIIIIIIIIIIIIIIII
AA112I2A1122I22IIIIIIIIIIIIIIIIIIIIIIIIIIIIIIIIIIIIIIIIIIIIIIIII
AA112I2A11A1122I2222IIIIIIIIIIIIIIIIIIIIIIIIIIIIIIIIIIIIIIIIIIII
AA112I2A11A112222222IIIIIIIIIIIIIIIIIIIIIIIIIIIIIIIIIIIIIIIIIIII
AA112I2A11A1122222222IIIIIIIIIIIIIIIIIIIIIIIIIIIIIIIIIIIIIIIIIII
AA112I2A11A112A1122222222IIIIIIIIIIIIIIIIIIIIIIIIIIIIIIIIIIIIIII
AA112I2A11A112AA1122222222IIIIIIIIIIIIIIIIIIIIIIIIIIIIIIIIIIIIII
AA11A11A11A112AA1122222222IIIIIIIIIIIIIIIIIIIIIIIIIIIIIIIIIIIIII
AA11A11A11A112AA1122222222IIIIIIA112II22222IIIIIIIIIIIIIIIIIIIII
AA11A11A11A112AA1122222222IIIIIIAA112I222222IIIIIIIIIIIIIIIIIIII
AA11A11A11A112AA1122222222IIIIIIAA112I2A1122I22222IIIIIIIIIIIIII
AA11A11A11A112AA1122222222IIIIIIAA112I2A11A1122222222IIIIIIIIIII
AA11A11A11A112AA1122222222IIIIIIAA112I2A11A112A1122222222IIIIIII
AA11A11A11A112AA1122222222IIIIIIAA112I2A11A112AA1122222222IIIIII
AA11A11A11A112AA1122222222IIIIIIAA11A11A11A112AA1122222222IIIIII
AI2IIIIIIIIIIIIIIIIIIIIIIIIIIIIIIIIIIIIIIIIIIIIIIIIIIIIIIIIIIIII
AI2IIIIAI2IIIIIIIIIIIIIIIIIIIIIIIIIIIIIIIIIIIIIIIIIIIIIIIIIIIIII
AA22IIIAI2IIIIIIIIIIIIIIIIIIIIIIIIIIIIIIIIIIIIIIIIIIIIIIIIIIIIII
AA22IIIAI2AI2IIIIIIIIIIIIIIIIIIIIIIIIIIIIIIIIIIIIIIIIIIIIIIIIIII
AA22AI2AI2AI2IIIIIIIIIIIIIIIIIIIIIIIIIIIIIIIIIIIIIIIIIIIIIIIIIII
AA12AI2AI2AI2IIIIIIIIIIIIIIIIIIIIIIIIIIIIIIIIIIIIIIIIIIIIIIIIIII
AA12AI2A12AI2IIIIIIIIIIIIIIIIIIIIIIIIIIIIIIIIIIIIIIIIIIIIIIIIIII
AA12A12A12AI2IIIIIIIIIIIIIIIIIIIIIIIIIIIIIIIIIIIIIIIIIIIIIIIIIII
AA12A12A1AA22IIIIIIIIIIIIIIIIIIIIIIIIIIIIIIIIIIIIIIIIIIIIIIIIIII
AA12A12AAAA22IIIIIIIIIIIIIIIIIIIIIIIIIIIIIIIIIIIIIIIIIIIIIIIIIII
AAA1A12AAAA22IIIIIIIIIIIIIIIIIIIIIIIIIIIIIIIIIIIIIIIIIIIIIIIIIII
AAA1A12AAAA12IIIIIIIIIIIIIIIIIIIIIIIIIIIIIIIIIIIIIIIIIIIIIIIIIII
AAA1A12AAAA12IA12IIIIIIIIIIIIIIIIIIIIIIIIIIIIIIIIIIIIIIIIIIIIIII
AAA1A12AAAA12IAA12IIIIIIIIIIIIIIIIIIIIIIIIIIIIIIIIIIIIIIIIIIIIII
A1II1111I11IIIIIIIIIIIIIIIIIIIIIIIIIIIIIIIIIIIIIIIIIIIIIIIIIIIII
A1II111A1111111I11IIIIIIIIIIIIIIIIIIIIIIIIIIIIIIIIIIIIIIIIIIIIII
AA1I111A1111111I11IIIIIIIIIIIIIIIIIIIIIIIIIIIIIIIIIIIIIIIIIIIIII
AA1I111A11A1111111I11IIIIIIIIIIIIIIIIIIIIIIIIIIIIIIIIIIIIIIIIIII
IIIIIIIIIIIIIIIIA12IIIII222IIIIIIIIIIIIIIIIIIIIIIIIIIIIIIIIIIIII
IIIIIIIIIIIIIIIIA12IIIII222IIIIIAII22IIIIIIIIIIIIIIIIIIIIIIIIIII
IIIIIIIIIIIIIIIIA12IIIII222IIIIIAII22IIAII22IIIIIIIIIIIIIIIIIIII
IIIIIIIIIIIIIIIIA12IIIII222IIIIIAAI222IAII22IIIIIIIIIIIIIIIIIIII
IIIIIIIIIIIIIIIIA12IIIII222IIIIIAAI222IAIIA2I22IIIIIIIIIIIIIIIII
IIIIIIIIIIIIIIIIA12IIIII222IIIIIAAI22AIA22A2I22IIIIIIIIIIIIIIIII
IIIIIIIIIIIIIIIIA12IIIII222IIIIIAAI2AAIA22A2I22IIIIIIIIIIIIIIIII
IIIIIIIIIIIIIIIIA12IIIII222IIIIIAA12AAIA22A2I22IIIIIIIIIIIIIIIII
IIIIIIIIIIIIIIIIA12IIIII222IIIIIAA12AAIA12A2I22IIIIIIIIIIIIIIIII
IIIIIIIIIIIIIIIIA12IIIII222IIIIIAAA1AAIA12A2I22IIIIIIIIIIIIIIIII
IIIIIIIIIIIIIIIIA12IIIII222IIIIIAAA1AA2A12A2I22IIIIIIIIIIIIIIIII
IIIIIIIIIIIIIIIIA12IIIII222IIIIIAAA1AA2A1AA2I22IIIIIIIIIIIIIIIII
IIIIIIIIIIIIIIIIA12IIIII222IIIIIAAA1AA2AAAA2I22IIIIIIIIIIIIIIIII
IIIIIIIIIIIIIIIIA12IIIII222IIIIIAAA1AA1AAAA2I22IIIIIIIIIIIIIIIII
IIIIIIIIIIIIIIIIA12IIIII222IIII1AAA1AA1AAAA2I22IIIIIIIIIIIIIIIII
IIIIIIIIIIIIIIIIA12IIIII222IIII1AAA1AA1AAAA2I1AIIIIIIIIIIIIIIIII
IIIIIIIIIIIIIIIIA12IIIII222IIII1AAA1AA1AAAA2I1AAIIIIIIIIIIIIIIII
IA1II111111IIIIIIIIIIIIIIIIIIIIIIIIIIIIIIIIIIIIIIIIIIIIIIIIIIIII
IA1II11A111111111IIIIIIIIIIIIIIIIIIIIIIIIIIIIIIIIIIIIIIIIIIIIIII
IIIIIIIIIIIIIIIIIIIIIIIIIIIIIIIIA11II22222IIIIIIIIIIIIIIIIIIIIII
IIIIIIIIIIIIIIIIIIIIIIIIIIIIIIIIA11II22A11IIIIIIIIIIIIIIIIIIIIII
IIIIIIIIIIIIIIIIIIIIIIIIIIIIIIIIAA11I22A112IIIIIIIIIIIIIIIIIIIII
IIIIIIIIIIIIIIIIIIIIIIIIIIIIIIIIAA11I22A11A11II22222IIIIIIIIIIII
IIIIIIIIIIIIIIIIIIIIIIIIIIIIIIIIAA11I22A11A112222222IIIIIIIIIIII
IIIIIIIIIIIIIIIIIIIIIIIIIIIIIIIIAA11I22A11A112A112222222IIIIIIII
IIIIIIIIIIIIIIIIIIIIIIIIIIIIIIIIAA11I22A11A112AA112222222IIIIIII
IIIIIIIIIIIIIIIIIIIIIIIIIIIIIIIIAA11A11A11A112AA112222222IIIIIII
IA11II22222IIIIIIIIIIIIIIIIIIIIIAA11A11A11A112AA112222222IIIIIII
IA11II2A112I22222IIIIIIIIIIIIIIIAA11A11A11A112AA112222222IIIIIII
IIIIIIIIIIIIIIIIIIIIIIIIIIII1I11AIIIIIIIIIIIIIIIIIIIIIIIIIIIIIII
IIIIIIIIIIIIIIIIIIIIIIIIIIII1I11AII1I11AIIIIIIIIIIIIIIIIIIIIIIII
IIIIIIIIIIIIIIIIIIIIIIIIIIII1111AAI1I11AIIIIIIIIIIIIIIIIIIIIIIII
IIIIIIIIIIIIIIIIIIIIIIIIIIII1111AAI1I11A11AIIIIIIIIIIIIIIIIIIIII
IIIIIIIIIIIIIIIIIIIIIIIIIIII1111AA11A11A11AIIIIIIIIIIIIIIIIIIIII
IIIIIIIIIIIIIIIIIIIIIIIIIIII1111AA11A11A1AAIIIIIIIIIIIIIIIIIIIII
IIIIIIIIIIIIIIIIIIIIIIIIIIII1111AA11AA1A1AAIIIIIIIIIIIIIIIIIIIII
IIIIIIIIIIIIIIIIIIIIIIIIIIII1111AA11AA1A1AAI11AIIIIIIIIIIIIIIIII
IIIIIIIIIIIIIIIIIIIIIIIIIIII1111AA11AA1A1AAI11AA12IIIIIIIIIIIIII
IA12IIIIIIIIIIIIIIIIIIIIIIII1111AA11AA1A1AAI11AA12IIIIIIIIIIIIII
IA12IIIA12IIIIIIIIIIIIIIIIII1111AA11AA1A1AAI11AA12IIIIIIIIIIIIII
IA121IIA121IIIIIIIIIIIIIIIII1111AA11AA1A1AAI11AA12IIIIIIIIIIIIII
IA121IIA121II11I1IIIIIIIIIII1111AA11AA1A1AAI11AA12IIIIIIIIIIIIII
IA121IIA12AII11I11I1IIIIIIII1111AA11AA1A1AAI11AA12IIIIIIIIIIIIII
AA111I1A11AII11I11I1IIIIIIII1111AA11AA1A1AAI11AA12IIIIIIIIIIIIII
AA111I1A11AII1AI11I1IIIIIIII1111AA11AA1A1AAI11AA12IIIIIIIIIIIIII
AA111I1A11AII1AA1111II1IIIII1111AA11AA1A1AAI11AA12IIIIIIIIIIIIII
AA11AI1A11A1I1AA1111II1IIIII1111AA11AA1A1AAI11AA12IIIIIIIIIIIIII
AA11AI1A11A1I1AA1111II1IIIII1111AA11AA1A1AAI11AA11I1IIIIIIIIIIII
AA11AI1A11A1I1AA1111II1IIIII1111AA11AA1A1AAI11AA11I111I1IIIIIIII
AA11AI1A11A1I1AA1111II1IIIII1111AA11AA1A1AAI11AA111111111IIIIIII
AA11AI1A11A1I1AA1111II1IIIII1111AA11AA1A1AA111AA111111111IIIIIII
IIIIIIIIIIIIIIIIIIIIIIIIIIIIIIIIA122IIIIIIIIIIIIIIIIIIIIIIIIIIII
IIIIIIIIIIIIIIIIIIIIIIIIIIIIIIIIA122IIIA122IIIIIIIIIIIIIIIIIIIII
IIIIIIIIIIIIIIIIIIIIIIIIIIIIIIIIAA122IIA122IIIIIIIIIIIIIIIIIIIII
IIIIIIIIIIIIIIIIIIIIIIIIIIIIIIIIAA122IIA12A122IIIIIIIIIIIIIIIIII
IIIIIIIIIIIIIIIIIIIIIIIIIIIIIIIIAA12A12A12A122IIIIIIIIIIIIIIIIII
IIIIIIIIIIIIIIIIIIIIIIIIIIIIIIIIAA12A12A1AA122IIIIIIIIIIIIIIIIII
IIIIIIIIIIIIIIIIIIIIIIIIIIIIIIIIAA12AA1A1AA122IIIIIIIIIIIIIIIIII
IIIIIIIIIIIIIIIIIIIIIIIIIIIIIIIIAA12AA1A1AA122A122IIIIIIIIIIIIII
IIIIIIIIIIIIIIIIIIIIIIIIIIIIIIIIAA12AA1A1AA122AA122IIIIIIIIIIIII
A122IIIIIIIIIIIIIIIIIIIIIIIIIIIIAA12AA1A1AA122AA122IIIIIIIIIIIII
A122IIIA122IIIIIIIIIIIIIIIIIIIIIAA12AA1A1AA122AA122IIIIIIIIIIIII
AA122IIA122IIIIIIIIIIIIIIIIIIIIIAA12AA1A1AA122AA122IIIIIIIIIIIII
AA122IIA12A122IIIIIIIIIIIIIIIIIIAA12AA1A1AA122AA122IIIIIIIIIIIII
AA122IIA12A122A122IIIIIIIIIIIIIIAA12AA1A1AA122AA122IIIIIIIIIIIII
AA122IIA12A122AA122IIIIIIIIIIIIIAA12AA1A1AA122AA122IIIIIIIIIIIII
AA12A12A12A122AA122IIIIIIIIIIIIIAA12AA1A1AA122AA122IIIIIIIIIIIII
IIIIIIIIIIIIIIIIIIIIIIIIIIIIIIIIA1I111111111IIIIIIIIIIIIIIIIIIII
IIIIIIIIIIIIIIIIIIIIIIIIIIIIIIIIA1I1111A1111IIIIIIIIIIIIIIIIIIII
IIIIIIIIIIIIIIIIIIIIIIIIIIIIIIIIAA11111A11111IIIIIIIIIIIIIIIIIII
IIIIIIIIIIIIIIIIIIIIIIIIIIIIIIIIAA11111A11A11111111111IIIIIIIIII
IIIIIIIIIIIIIIIIIIIIIIIIIIIIIIIIAA11A11A11A11111111111IIIIIIIIII
IIIIIIIIIIIIIIIIIIIIIIIIIIIIIIIIAA11A11A11A111111111112IIIIIIIII
IIIIIIIIIIIIIIIIIIIIIIIIIIIIIIIIAA11A11A11A111A11111112I2I2IIIII
IIIIIIIIIIIIIIIIIIIIIIIIIIIIIIIIAA11A11A11A111AA1111112I2222IIII
A12IIIIIII2I2IIIIIIIIIIIIIIIIIIIAA11A11A11A111AA1111112I2222IIII
A12IIIIA122I2IIII2I2IIIIIIIIIIIIAA11A11A11A111AA1111112I2222IIII
AA12IIIA122222III2I2IIIIIIIIIIIIAA11A11A11A111AA1111112I2222IIII
AA12IIIA12A122III2I22I2IIIIIIIIIAA11A11A11A111AA1111112I2222IIII
AA12A12A12A1222I22I22I2IIIIIIIIIAA11A11A11A111AA1111112I2222IIII
AA12AA1A12A1222222I22I2IIIIIIIIIAA11A11A11A111AA1111112I2222IIII
AA11AA1A12A1222222I22I2IIIIIIIIIAA11A11A11A111AA1111112I2222IIII
AA11AA1A11A1222222I22I2IIIIIIIIIAA11A11A11A111AA1111112I2222IIII
IA1111112II2I2IIIIIIIIIIIIIIIIIIIIIIIIIIIIIIIIIIIIIIIIIIIIIIIIII
IA11111A1111112II2I2IIIIIIIIIIIIIIIIIIIIIIIIIIIIIIIIIIIIIIIIIIII
2A11111A1111112II2I2IIIIIIIIIIIIIIIIIIIIIIIIIIIIIIIIIIIIIIIIIIII
AA11111A1111112II2I2IIIIIIIIIIIIIIIIIIIIIIIIIIIIIIIIIIIIIIIIIIII
AAA1111A1111112II2I2IIIIIIIIIIIIIIIIIIIIIIIIIIIIIIIIIIIIIIIIIIII
AAA1A11A1111112II2I2IIIIIIIIIIIIIIIIIIIIIIIIIIIIIIIIIIIIIIIIIIII
AAA1A11A1A111122I2I2IIIIIIIIIIIIIIIIIIIIIIIIIIIIIIIIIIIIIIIIIIII
AAA1A11AAA111122I2I2IIIIIIIIIIIIIIIIIIIIIIIIIIIIIIIIIIIIIIIIIIII
AAA1A11AAA1111111112IIIIIIIIIIIIIIIIIIIIIIIIIIIIIIIIIIIIIIIIIIII
AAA1A11AAA111111111111111IIIIIIIIIIIIIIIIIIIIIIIIIIIIIIIIIIIIIII
AAA1A11AAA11111111111111111IIIIIIIIIIIIIIIIIIIIIIIIIIIIIIIIIIIII
IA1II1I11111IIIIIIIIIIIIIIIIIIIIIIIIIIIIIIIIIIIIIIIIIIIIIIIIIIII
IA1II1IA1111I11111IIIIIIIIIIIIIIIIIIIIIIIIIIIIIIIIIIIIIIIIIIIIII
IA1II1IA11A1I11111111IIIIIIIIIIIIIIIIIIIIIIIIIIIIIIIIIIIIIIIIIII
AA1I111A11A1I11111111IIIIIIIIIIIIIIIIIIIIIIIIIIIIIIIIIIIIIIIIIII
AA1I111A11A1I1A111111IIIIIIIIIIIIIIIIIIIIIIIIIIIIIIIIIIIIIIIIIII
AA1I111A11A1I1AA11111IIIIIIIIIIIIIIIIIIIIIIIIIIIIIIIIIIIIIIIIIII
AA1IA11A11A1I1AA11111IIIIIIIIIIIIIIIIIIIIIIIIIIIIIIIIIIIIIIIIIII
AA1IA11A11A1I1AA11111IIIIIIIIIIIA2IIIIIIIIIIIIIIIIIIIIIIIIIIIIII
AA1IA11A11A1I1AA11111IIIIIIIIIIIA2IIIIIA2IIIIIIIIIIIIIIIIIIIIIII
AA1IA11A11A1I1AA11111IIIIIIIIIIIAA2IIIIA2IIIIIIIIIIIIIIIIIIIIIII
AA1IA11A11A1I1AA11111IIIIIIIIIIIAA2IIIIA2IA2IIIIIIIIIIIIIIIIIIII
AA1IA11A11A1I1AA11111IIIIIIIIIIIAA2I11IA11A1IIIIIIIIIIIIIIIIIIII
AA1IA11A11A1I1AA11111IIIIIIIIIIIAA2I11IA11A1II1111IIIIIIIIIIIIII
IIIIIIIIIIIIIIIIIIIIIIIIIIIIIIIIIA1IIIIIIIIIIIIIIIIIIIIIIIIIIIII
IIIIIIIIIIIIIIIIIIIIIIIIIIIIIIIIIA1IIIIA1IIIIIIIIIIIIIIIIIIIIIII
IIIIIIIIIIIIIIIIIIIIIIIIIIIIIIIIIA1I1IIA1III22IIIIIIIIIIIIIIIIII
IIIIIIIIIIIIIIIIIIIIIIIIIIIIIIIIIA1I1IIA1I1I22IIII22IIIIIIIIIIII
IIIIIIIIIIIIIIIIIIIIIIIIIIIIIIIIIA1IAIIA1I1I22I22I22IIIIIIIIIIII
IIIIIIIIIIIIIIIIIIIIIIIIIIIIIIIIAA11AIIA1I1222I22I22IIIIIIIIIIII
IIIIIIIIIIIIIIIIIIIIIIIIIIIIIIIIAA11AIIA1A1212I22I2222IIIIIIIIII
IIIIIIIIIIIIIIIIIIIIIIIIIIIIIIIIAA11AAIA1A1212I2222222IIIIIIIIII
IIIIIIIIIIIIIIIIIIIIIIIIIIIIIIIIA1I111IIIIIIIIIIIIIIIIIIIIIIIIII
IIIIIIIIIIIIIIIIIIIIIIIIIIIIIIIIA1I111IIIIAIIIIIIIIIIIIIIIIIIIII
IIIIIIIIIIIIIIIIIIIIIIIIIIIIIIIIA1I111111IAIIIIIIIIIIIIIIIIIIIII
IIIIIIIIIIIIIIIIIIIIIIIIIIII1II1AIIIIIIIIIIIIIIIIIIIIIIIIIIIIIII
IIIIIIIIIIIIIIIIIIIIIIIIIIII1II1AII1II1AIIIIIIIIIIIIIIIIIIIIIIII
IIIIIIIIIIIIIIIIIIIIIIIIIIII1II1AII1AI1AIIIIIIIIIIIIIIIIIIIIIIII
IIIIIIIIIIIIIIIIIIIIIIIIIIII11I1AAI1AI1AIIIIIIIIIIIIIIIIIIIIIIII
IIIIIIIIIIIIIIIIIIIIIIIIIIII11I1AAI1A11A1AIIIIIIIIIIIIIIIIIIIIII
IIIIIIIIIIIIIIIIIIIIIIIIIIII11I1AAI1AA1A1AIIIIIIIIIIIIIIIIIIIIII
AIIIIIIIIIIIIIIIIIIIIIIIIIII11I1AAI1AA1A1AIIIIIIIIIIIIIIIIIIIIII
AII1II1AIIIIIIIIIIIIIIIIIIII11I1AAI1AA1A1AIIIIIIIIIIIIIIIIIIIIII
AAI1II1AIIIIIIIIIIIIIIIIIIII11I1AAI1AA1A1AIIIIIIIIIIIIIIIIIIIIII
AAI1II1AI1AIIIIIIIIIIIIIIIII11I1AAI1AA1A1AIIIIIIIIIIIIIIIIIIIIII
AAI1AI1AI1AIIIIIIIIIIIIIIIII11I1AAI1AA1A1AIIIIIIIIIIIIIIIIIIIIII
AAI1AA1AI1AIIIIIIIIIIIIIIIII11I1AAI1AA1A1AIIIIIIIIIIIIIIIIIIIIII
AA11AA1AI1AIIIIIIIIIIIIIIIII11I1AAI1AA1A1AIIIIIIIIIIIIIIIIIIIIII
AA11AA1A11AIIIIIIIIIIIIIIIII11I1AAI1AA1A1AIIIIIIIIIIIIIIIIIIIIII
AA11AA1A11A2IIIIIIIIIIIIIIII11I1AAI1AA1A1AIIIIIIIIIIIIIIIIIIIIII
AA11AA1A11A21I11AIIIIIIIIIII11I1AAI1AA1A1AIIIIIIIIIIIIIIIIIIIIII
AA11AA1A11A21I11AIIIIIIIIIII1111AAI1AA1A1AIIIIIIIIIIIIIIIIIIIIII
AA11AA1A11A21I11AIIIIIIIIIII1111AAI1AA1A1AAIIIIIIIIIIIIIIIIIIIII
AA11AA1A11A21I11AIIIIIIIIIII1111AA21AA1A1AAIIIIIIIIIIIIIIIIIIIII
AA11AA1A11A21I11AIIIIIIIIIII1111AA11AA1A1AAIIIIIIIIIIIIIIIIIIIII
AA11AA1A11A21I11AIIIIIIIIIII1111AA11AA1A1AA122IIIIIIIIIIIIIIIIII
AA11AA1A11A21I11AIIIIIIIIIII1111AA11AA1A1AA122A122IIIIIIIIIIIIII
AA11AA1A11A21I11AIIIIIIIIIII1111AA11AA1A1AA122AA122IIIIIIIIIIIII
IIIIIIIIIIIIIIIIIIIIIIIIIIIIIIIIA1I1112222222IIIIIIIIIIIIIIIIIII
IIIIIIIIIIIIIIIIIIIIIIIIIIIIIIIIA1I1112A1211122IIIIIIIIIIIIIIIII
IIIIIIIIIIIIIIIIIIIIIIIIIIIIIIIIAA11111A1211122IIIIIIIIIIIIIIIII
IIIIIIIIIIIIIIIIIIIIIIIIIIIIIIIIAA11111A12A111112222222IIIIIIIII
IIIIIIIIIIIIIIIIIIIIIIIIIIIIIIIIAA11111A12A111A121112222222IIIII
IIIIIIIIIIIIIIIIIIIIIIIIIIIIIIIIAA11111A12A111AA111112222222IIII
IIIIIIIIIIIIIIIIIIIIIIIIIIIIIIIIAA11A11A11A111AA111112222222IIII
IA1I1112222222IIIIIIIIIIIIIIIIIIAA11A11A11A111AA111112222222IIII
IA1I111A121112222222IIIIIIIIIIIIAA11A11A11A111AA111112222222IIII
IA1I111A12A111112222222IIIIIIIIIAA11A11A11A111AA111112222222IIII
AA11111A12A111112222222IIIIIIIIIAA11A11A11A111AA111112222222IIII
AA11111A12A111A121112222222IIIIIAA11A11A11A111AA111112222222IIII
AA11111A12A111AA111112222222IIIIAA11A11A11A111AA111112222222IIII
AA11A11A11A111AA111112222222IIIIAA11A11A11A111AA111112222222IIII
AA11A11A11A111AA111112222222IIIIAA11A11A11A111AA111111212222IIII
AA11A11A11A111AA111112222222IIIIAA11A11A11A111AA111111111222IIII
A1IIIIIIIIIIIIIIIIIIIIIIIIIIIIIIIIIIIIIIIIIIIIIIIIIIIIIIIIIIIIII
A1IIIIIA1IIIIIIIIIIIIIIIIIIIIIIIIIIIIIIIIIIIIIIIIIIIIIIIIIIIIIII
AA1IIIIA1IIIIIIIIIIIIIIIIIIIIIIIIIIIIIIIIIIIIIIIIIIIIIIIIIIIIIII
AA1IIIIA1IA1IIIIIIIIIIIIIIIIIIIIIIIIIIIIIIIIIIIIIIIIIIIIIIIIIIII
AA1IA1IA1IA1IIIIIIIIIIIIIIIIIIIIIIIIIIIIIIIIIIIIIIIIIIIIIIIIIIII
AA1IA1IA1AA1IIIIIIIIIIIIIIIIIIIIIIIIIIIIIIIIIIIIIIIIIIIIIIIIIIII
AA1IAA1A1AA1IIIIIIIIIIIIIIIIIIIIIIIIIIIIIIIIIIIIIIIIIIIIIIIIIIII
IIIIIIIIIIIIIIIIIIIIIIIIIIIIIIIIA1111II1111111111IIIIIIIIIIIIIII
IIIIIIIIIIIIIIIIIIIIIIIIIIIIIIIIA1111IIA1111111111111111IIIIIIII
IIIIIIIIIIIIIIIIIIIIIIIIIIIIIIIIAA1111IA1111111111111111IIIIIIII
IIIIIIIIIIIIIIIIIIIIIIIIIIIIIIIIAA1111IA11A1111111111111111IIIII
IIIIIIIIIIIIIIIIIIIIIIIIIIIIIIIIAA11A11A11A1111111111111111IIIII
IIIIIIIIIIIIIIIIIIIIIIIIIIIIIIIIAA11A11A1AA1111111111111111IIIII
IIIIIIIIIIIIIIIIIIIIIIIIIIIIIIIIAA11AA1A1AA1111111111111111IIIII
IIIIIIIIIIIIIIIIIIIIIIIIIIIIIIIIAA11AA1A1AA111A1111111111111111I
IIIIIIIIIIIIIIIIIIIIIIIIIIIIIIIIAA11AA1A1AA111AA111111111111111I
A1111II1111IIIIIIIIIIIIIIIIIIIIIAA11AA1A1AA111AA111111111111111I
AA1111I11111111111IIIIIIIIIIIIIIAA11AA1A1AA111AA111111111111111I
AA1111IA11111111111111IIIIIIIIIIAA11AA1A1AA111AA111111111111111I
AA1111IA11A11111111111111IIIIIIIAA11AA1A1AA111AA111111111111111I
AA1111IA11A111A1111111111111111IAA11AA1A1AA111AA111111111111111I
AA1111IA11A111AA1111111111111111AA11AA1A1AA111AA111111111111111I
AA11A11A11A111AA1111111111111111AA11AA1A1AA111AA111111111111111I
IIIIIIIIIIIIIIIIIIIIIIIIIIIIIIIIA111122III2IIIIIIIIIIIIIIIIIIIII
IIIIIIIIIIIIIIIIIIIIIIIIIIIIIIIIA111122A111122III2IIIIIIIIIIIIII
IIIIIIIIIIIIIIIIIIIIIIIIIIIIIIIIAA11112A111122III2IIIIIIIIIIIIII
IIIIIIIIIIIIIIIIIIIIIIIIIIIIIIIIAA11112A11A1111222II2IIIIIIIIIII
IIIIIIIIIIIIIIIIIIIIIIIIIIIIIIIIAA11112A11A111A111122III2IIIIIII
IIIIIIIIIIIIIIIIIIIIIIIIIIIIIIIIAA11112A11A111AA111122II22IIIIII
IIIIIIIIIIIIIIIIIIIIIIIIIIIIIIIIAA11A11A11A111AA111122II22IIIIII
A111122III2IIIIIIIIIIIIIIIIIIIIIAA11A11A11A111AA111122II22IIIIII
A111122A111IIIIIIIIIIIIIIIIIIIIIAA11A11A11A111AA111122II22IIIIII
AA11112A1112IIIIIIIIIIIIIIIIIIIIAA11A11A11A111AA111122II22IIIIII
AA11112A11A111122III2IIIIIIIIIIIAA11A11A11A111AA111122II22IIIIII
AA11112A11A1111222II2IIIIIIIIIIIAA11A11A11A111AA111122II22IIIIII
AA11112A11A111A111122III2IIIIIIIAA11A11A11A111AA111122II22IIIIII
AA11112A11A111AA111122II22IIIIIIAA11A11A11A111AA111122II22IIIIII
AA11A11A11A111AA111122II22IIIIIIAA11A11A11A111AA111122II22IIIIII
IIIIIIIIIIIIIIIIIIIIIII2IIIIIIIIA1IIIIIIII122IIIIIIIIIIIIIIIIIII
IIIIIIIIIIIIIIIIIIIIIII2IIIIIIIIA1IIIIIA1I122IIII122IIIIIIIIIIII
IIIIIIIIIIIIIIIIIIIIIII22IIIIIIIAA1IIIIA1I1122III122IIIIIIIIIIII
IIIIIIIIIIIIIIIIIIIIIII22IIIIIIIAA1IIIIA1IA122III122122IIIIIIIII
IIIIIIIIIIIIIIIIIIIIIII22IIIII2IAA1IIIIA1IA122III122122IIIIIIIII
IIIIIIIIIIIIIIIIIIIIIII22IIIII2IAA1II2IA1IA122A1I122122I122IIIII
IIIIIIIIIIIIIIIIIIIIIII22IIIII2IAA1II22A1IA122AA1122122I1122IIII
IIIIIIIIIIIIIIIIIIIIIII22II2II2IAA1IA12A1IA122AA1122122I1122IIII
A1112222IIIIIIIIIIIIIII22II2II2IAA1IA12A1IA122AA1122122I1122IIII
A111222AIIIIIIIIIIIIIII22II2II2IAA1IA12A1IA122AA1122122I1122IIII
AA11122A2IIIIIIIIIIIIII22II2II2IAA1IA12A1IA122AA1122122I1122IIII
AA11122A2IA1112222IIIII22II2II2IAA1IA12A1IA122AA1122122I1122IIII
AA11122A11A1112222IIIII22II2II2IAA1IA12A1IA122AA1122122I1122IIII
AA11122A11A111A1112222I22II2II2IAA1IA12A1IA122AA1122122I1122IIII
AA11122A11A111AA111222222II2II2IAA1IA12A1IA122AA1122122I1122IIII
AA11A11A11A111AA111222222II2II2IAA1IA12A1IA122AA1122122I1122IIII
AA11A11A11A111AA111222222II2II2IAA11A12A1IA122AA1122122I1122IIII
AA11A11A11A111AA111222222II2II2IAA11A12A11A122AA1122122I1122IIII
AA11A11A11A111AA111222222II2II2IAA11A12A11A111AA1122122I1122IIII
AA11A11A11A111AA111222222II2II2IAA11A12A11A111AA1112122I1122IIII
AA11A11A11A111AA111222222II2II2IAA11A11A11A111AA1112122I1122IIII
IIIIIIIIIIIIIIIIIIIIIIIIIIIIIIIIA11IIIIIII111IIIIIIIIIIIIIIIIIII
IIIIIIIIIIIIIIIIIIIIIIIIIIIIIIIIA11IIIIA11111IIII111IIIIIIIIIIII
IIIIIIIIIIIIIIIIIIIIIIIIIIIIIIIIAA11IIIA111111III111IIIIIIIIIIII
IIIIIIIIIIIIIIIIIIIIIIIIIIIIIIIIAA11IIIA11A111III111111IIIIIIIII
IIIIIIIIIIIIIIIIIIIIIIIIIIIIIIIIAA11A11A11A111111111111IIIIIIIII
IIIIIIIIIIIIIIIIIIIIIIIIIIIIIII2AA11A11A11A111111111111IIIIIIIII
IIIIIIIIIIIIIIIIIIIIIIIIIIIIII21AA11A11A11A111111111111IIIIIIIII
IIIIIIIIIIIIIIIIIIIIIIIIIIIIII21AAA1A11A11A111111111111IIIIIIIII
IIIIIIIIIIIIIIIIIIIIIIIIIIIIII21AAA1A11A1AA111111111111IIIIIIIII
IIIIIIIIIIIIIIIIIIIIIIIIIIIIII21AAA1A11AAAA111111111111IIIIIIIII
IIIIIIIIIIIIIIIIIIIIIIIIIIIII221AAA1A11AAAA111111111111IIIIIIIII
IIIIIIIIIIIIIIIIIIIIIIIIIIII2211AAA1A11AAAA111111111111IIIIIIIII
IIIIIIIIIIIIIIIIIIIIIIIIIIII2211AAA1A11AAAA111111111111IIII2IIII
IIIIIIIIIIIIIIIIIIIIIIIIIIII2211AAA1A11AAAA111111111111III22IIII
IIIIIIIIIIIIIIIIIIIIIIIIIIII2211AAA1A11AAAA111111111111II222II2I
IIIIIIIIIIIIIIIIIIIIIIIIIIII2211AAA1A11AAAA111111111111I2222I22I
IIIIIIIIIIIIIIIIIIIIIIIIIIII2211AAA1AA1AAAA111111111111I2222I22I
IIIIIIIIIIIIIIIIIIIIIIIIIIIIIIIIA111IIIIII111IIIIIIIIIIIIIIIIIII
IIIIIIIIIIIIIIIIIIIIIIIIIIIIIIIIA111IIIIIIA11IIIIIIIIIIIIIIIIIII
IIIIIIIIIIIIIIIIIIIIIIIIIIIIIIIIA1111I11IIA11IIIIIIIIIIIIIIIIIII
IIIIIIIIIIIIIIIIIIIIIIIIIIIIIIIIA1111I1A1IA1111II1IIIIIIIIIIIIII
IIIIIIIIIIIIIIIIIIIIIIIIIIIIIIIIA111A11A1IA1111II1IIIIIIIIIIIIII
IIIIIIIIIIIIIIIIIIIIIIIIIIIIIIIIAA11A11A1IA1111II1IIIIIIIIIIIIII
IIIIIIIIIIIIIIIIIIIIIIIIIIIIIIIIAA11A11A1AA1111111I1IIIIIIIIIIII
IIIIIIIIIIIIIIIIIIIIIIIIIIIIIIIIAA11AA1A1AA1111111I1IIIIIIIIIIII
IIIIIIIIIIIIIIIIIIIIIIIIIIIIIII2AA11AA1A1AA1111111I1IIIIIIIIIIII
IIIIIIIIIIIIIIIIIIIIIIIIIIIIIII2AA11AA1A1AA111A111I1IIIIIIIIIIII
IIIIIIIIIIIIIIIIIIIIIIIIIIIIIII2AA11AA1A1AA111AA11I1IIIIIIIIIIII
IIIIIIIIIIIIIIIIIIIIIIIIIIIIIIIIA11IIIIIIIIIIIIIIIIIIIIIIIIIIIII
IIIIIIIIIIIIIIIIIIIIIIIIIIIIIIIIA11IIIIA11IIIIIIIIIIIIIIIIIIIIII
IIIIIIIIIIIIIIIIIIIIIIIIIIIIIIIIAA11IIIA11IIIIIIIIIIIIIIIIIIIIII
IIIIIIIIIIIIIIIIIIIIIIIIIIIIIIIIAA11IIIA11A11IIIIIIIIIIIIIIIIIII
IIIIIIIIIIIIIIIIIIIIIIIIIIIIIIIIAA11A11A11A11IIIIIIIIIIIIIIIIIII
IIIIIIIIIIIIIIIIIIIIIIIIIIIIIII2AA11A11A11A11IIIIIIIIIIIIIIIIIII
IIIIIIIIIIIIIIIIIIIIIIIIIIIIIII2AA11A11A11A11122IIIIIIIIIIIIIIII
IIIIIIIIIIIIIIIIIIIIIIIIIIIII111AA11A11A11A11122IIIIIIIIIIIIIIII
IIIIIIIIIIIIIIIIIIIIIIIIIIII1111AA11A11A11A11122IIIIIIIIIIIIIIII
IIIIIIIIIIIIIIIIIIIIIIIIIIII1111AA11A11A1AA11122IIIIIIIIIIIIIIII
IIIIIIIIIIIIIIIIIIIIIIIIIIII1111AA11AA1A1AA11122IIIIIIIIIIIIIIII
IIIIIIIIIIIIIIIIIIIIIIIIIIII1111AA11AA1A1AA11112IIIIIIIIIIIIIIII
IIIIIIIIIIIIIIIIIIIIIIIIIIII1111AA11AA1A1AA1111211IIIIIIIIIIIIII
IIIIIIIIIIIIIIIIIIIIIIIIIIII1111AA11AA1A1AA111A111IIIIIIIIIIIIII
IIIIIIIIIIIIIIIIIIIIIIIIIIII1111AA11AA1A1AA111AA11IIIIIIIIIIIIII
IIIIIIIIIIIIIIIIIIIIIIIIIIII2211AIIIIIIIIIIIIIIIIIIIIIIIIIIIIIII
IIIIIIIIIIIIIIIIIIIIIIIIIIII2211AII2211AIIIIIIIIIIIIIIIIIIIIIIII
IIIIIIIIIIIIIIIIIIIIIIIIIIII2211AAI2211AIIIIIIIIIIIIIIIIIIIIIIII
IIIIIIIIIIIIIIIIIIIIIIIIIIII2211AAI2211A11AIIIIIIIIIIIIIIIIIIIII
IIIIIIIIIIIIIIIIIIIIIIIIIIII2211AAI2211A11A1I1111IIIIIIIIIIIIIII
IIIIIIIIIIIIIIIIIIIIIIIIIIII2211AAI2A11A11A111111IIIIIIIIIIIIIII
IIIIIIIIIIIIIIIIIIIIIIIIIIII2211AAI2A11A1AA11111111IIIIIIIIIIIII
IIIIIIIIIIIIIIIIIIIIIIIIIIII2211AAI2A11A1AA111111111IIIIIIIIIIII
IIIIIIIIIIIIIIIIIIIIIIIIIIII2211AAI2A11A1AA111A111111111IIIIIIII
IIIIIIIIIIIIIIIIIIIIIIIIIIII2211AAI2A11A1AA111AA11111111IIIIIIII
IIIIIIIIIIIIIIIIIIIIIIIIIIII2211AA11A11A1AA111AA11111111IIIIIIII
IIIIIIIIIIIIIIIIIIIIIIIIIIII2211AA11A11A1AA111AA11111111II1IIIII
AI11111111II1IIIIIIIIIIIIIII2211AA11A11A1AA111AA11111111II1IIIII
AI11111A111111111II1IIIIIIII2211AA11A11A1AA111AA11111111II1IIIII
AA11111A111111111II1IIIIIIII2211AA11A11A1AA111AA11111111II1IIIII
AA11111A11A111111II1IIIIIIII2211AA11A11A1AA111AA11111111II1IIIII
AA11111A11A111111111II1IIIII2211AA11A11A1AA111AA11111111II1IIIII
AA11111A11A111A111111111II1I2211AA11A11A1AA111AA11111111II1IIIII
AA11111A11A111AA111111111I112211AA11A11A1AA111AA11111111II1IIIII
AA11A11A11A111AA111111111I112211AA11A11A1AA111AA11111111II1IIIII
AA11A11A11A111AA111111111I112211AAA1A11A1AA111AA11111111II1IIIII
AA11A11A11A111AA111111111I112211AAA1A11AAAA111AA11111111II1IIIII
AA11AA1A11A111AA111111111I112211AAA1A11AAAA111AA11111111II1IIIII
AAA1AA1A11A111AA111111111I112211AAA1A11AAAA111AA11111111II1IIIII
AAA1AA1A1AA111AA111111111I112211AAA1A11AAAA111AA11111111II1IIIII
AAA1AA1AAAA111AA111111111I112211AAA1A11AAAA111AA11111111II1IIIII
AAA1AA1AAAA111AAA11111111I112211AAA1A11AAAA111AA11111111II1IIIII
IAII1II1II1IIIIIIIIIIIIIIIIIIIIIIIIIIIIIIIIIIIIIIIIIIIIIIIIIIIII
IA111II1II1IIIIIIIIIIIIIIIIIIIIIIIIIIIIIIIIIIIIIIIIIIIIIIIIIIIII
IA111IIA111IIIIIIIIIIIIIIIIIIIIIIIIIIIIIIIIIIIIIIIIIIIIIIIIIIIII
IA111IIA11A11IIIIIIIIIIIIIIIIIIIIIIIIIIIIIIIIIIIIIIIIIIIIIIIIIII
AA111IIA11A11IIIIIIIIIIIIIIIIIIIIIIIIIIIIIIIIIIIIIIIIIIIIIIIIIII
AA111IIA11A11IA11IIIIIIIIIIIIIIIIIIIIIIIIIIIIIIIIIIIIIIIIIIIIIII
AA111IIA11A11IAA11IIIIIIIIIIIIIIIIIIIIIIIIIIIIIIIIIIIIIIIIIIIIII
AA11A11A11A11IAA11IIIIIIIIIIIIIIIIIIIIIIIIIIIIIIIIIIIIIIIIIIIIII
AA11A11A11A11IAA11IIIIIIIIIII211AIIIIIIIIIIIIIIIIIIIIIIIIIIIIIII
AA11A11A11A11IAA11IIIIIIIIIII211AIII211AIIIIIIIIIIIIIIIIIIIIIIII
AA11A11A11A11IAA11IIIIIIIIIII211AAII211AIIIIIIIIIIIIIIIIIIIIIIII
AA11A11A11A11IAA11IIIIIIIIIII211AAII211A11AIIIIIIIIIIIIIIIIIIIII
AA11A11A11A11IAA11IIIIIIIIIII211AAII211A11A1IIIIIIIIIIIIIIIIIIII
AA11A11A11A11IAA11IIIIIIIIIII211AAII211A11A1I11111IIIIIIIIIIIIII
AA11A11A11A11IAA11IIIIIIIIIII211AAIIA11A11A1111111IIIIIIIIIIIIII
AA11A11A11A11IAA11IIIIIIIIIII211AAIIA11A1AA111111111IIIIIIIIIIII
AA11A11A11A11IAA11IIIIIIIIIII211AAIIA11A1AA1111111111IIIIIIIIIII
AA11A11A11A11IAA11IIIIIIIIIII211AAIIA11A1AA111A1111111111IIIIIII
AA11A11A11A11IAA11IIIIIIIIIII211AAIIA11A1AA111AA1111111111IIIIII
IIIIIIIIIIIIIIIIIIIIIIIIIIIIIIIIA111111IIIIIIIIIIIIIIIIIIIIIIIII
IIIIIIIIIIIIIIIIIIIIIIIIIIIIIIIIA11111111IIIIIIIIIIIIIIIIIIIIIII
IIIIIIIIIIIIIIIIIIIIIIIIIIIIIIIIA111111A11IIIIIIIIIIIIIIIIIIIIII
IIIIIIIIIIIIIIIIIIIIIIIIIIIIIIIIAA11111A11111IIIIIIIIIIIIIIIIIII
IIIIIIIIIIIIIIIIIIIIIIIIIIIIIIIIAA11111A11A1111111IIIIIIIIIIIIII
IIIIIIIIIIIIIIIIIIIIIIIIIIIIIIIIAA11111A11A111111111IIIIIIIIIIII
IIIIIIIIIIIIIIIIIIIIIIIIIIIIIIIIAA11111A11A111111111111IIIIIIIII
IIIIIIIIIIIIIIIIIIIIIIIIIIIIIIIIAA11111A11A111A111111111111IIIII
IIIIIIIIIIIIIIIIIIIIIIIIIIIIIIIIAA11111A11A111AA111111111111IIII
IIIIIIIIIIIIIIIIIIIIIIIIIIIIIIIIAA11A11A11A111AA111111111111IIII
A111IIIIIIIIIIIIIIIIIIIIIIIIIIIIAA11A11A11A111AA111111111111IIII
A1111111IIIIIIIIIIIIIIIIIIIIIIIIAA11A11A11A111AA111111111111IIII
A111111A111111IIIIIIIIIIIIIIIIIIAA11A11A11A111AA111111111111IIII
AA11111A111111IIIIIIIIIIIIIIIIIIAA11A11A11A111AA111111111111IIII
AA11111A11A111IIIIIIIIIIIIIIIIIIAA11A11A11A111AA111111111111IIII
AA11111A11A111111111IIIIIIIIIIIIAA11A11A11A111AA111111111111IIII
AA11111A11A111111111111IIIIIIIIIAA11A11A11A111AA111111111111IIII
AA11111A11A111A111111111111IIIIIAA11A11A11A111AA111111111111IIII
AA11111A11A111AA111111111111IIIIAA11A11A11A111AA111111111111IIII
AA11A11A11A111AA111111111111IIIIAA11A11A11A111AA111111111111IIII
IIIIIIIIIIIIIIIIIIIIIIIIIIIIIIIIA11IIIIIIIII2IIIIIII22I2IIIIIIII
IIIIIIIIIIIIIIIIIIIIIIIIIIIIIIIIA11IIIIA11II2IIIIII222I2III22I2I
IIIIIIIIIIIIIIIIIIIIIIIIIIIIIIIIAA11IIIA11II22IIIII222222II22I2I
IIIIIIIIIIIIIIIIIIIIIIIIIIIIIIIIAA11IIIA11A112IIIII222222II22I22
IIIIIIIIIIIIIIIIIIIIIIIIIIIIIIIIAA11IIIA11A112A11II222222I222I22
IIIIIIIIIIIIIIIIIIIIIIIIIIIIIIIIAA11IIIA11A112AA11I222222I222I22
IIIIIIIIIIIIIIIIIIIIIIIIIIIIIIIIAA11A11A11A112AA11I2222222222I22
A11IIIIIIIII2IIIIIII22I2IIIIIIIIAA11A11A11A112AA11I2222222222I22
A11IIIIA11II2IIIIII222I2III2IIIIAA11A11A11A112AA11I2222222222I22
AA11IIIA11II22IIIII222222II2IIIIAA11A11A11A112AA11I2222222222I22
AA11IIIA11A112IIIII222222II2II22AA11A11A11A112AA11I2222222222I22
AA11IIIA11A112IIIII222222II22I22AA11A11A11A112AA11I2222222222I22
AA11IIIA11A112A11II222222I222I22AA11A11A11A112AA11I2222222222I22
AA11IIIA11A112AA11I222222I222I22AA11A11A11A112AA11I2222222222I22
AA11A11A11A112AA11I2222222222I22AA11A11A11A112AA11I2222222222I22
AA11A11A11A112AA11I2222222222I22AA11A11A11A112AA1122222222222I22
AA11A11A11A112AA11I2222222222I22AA11A11A11A112AA1112222222222I22
AA11A11A11A112AA11I2222222222I22AA11A11A11A112AA1111222222222I22
AA11A11A11A112AA1122222222222I22AA11A11A11A112AA1111222222222I22
AA11A11A11A112AA1112222222222I22AA11A11A11A112AA1111222222222I22
AA11A11A11A112AA1111222222222I22AA11A11A11A112AA1111222222222I22
IIIIIIIIIIIIIIIIIIIIIIIIIIIIIIIIA1IIIIIIIIIIIIIIIIIIIIIIIIIIIIII
IIIIIIIIIIIIIIIIIIIIIIIIIIIIIIIIA1IIIIIA1IIIIIIIIIIIIIIIIIIIIIII
IIIIIIIIIIIIIIIIIIIIIIIIIIIIIIIIAA1IIIIA1IIIIIIIIIIIIIIIIIIIIIII
IIIIIIIIIIIIIIIIIIIIIIIIIIIIIIIIAA1IIIIA1IA1IIIIIIIIIIIIIIIIIIII
IIIIIIIIIIIIIIIIIIIIIIIIIIIIIIIIAA1IA1IA1IA1IIIIIIIIIIIIIIIIIIII
IIIIIIIIIIIIIIIIIIIIIIIIIIIIIIIIAA12A1IA1IA1IIIIIIIIIIIIIIIIIIII
IIIIIIIIIIIIIIIIIIIIIIIIIIIIIIIIAA12A1IA12A1IIIIIIIIIIIIIIIIIIII
IIIIIIIIIIIIIIIIIIIIIIIIIIIIIIIIAA11A12A12A1IIIIIIIIIIIIIIIIIIII
IIIIIIIIIIIIIIIIIIIIIIIIIIIIIIIIAA11A12A11A122IIIIIIIIIIIIIIIIII
IIIIIIIIIIIIIIIIIIIIIIIIIIIIIIIIAA11A11A11A122IIIIIIIIIIIIIIIIII
IIIIIIIIIIIIIIIIIIIIIIIIIIIIIIIIAAA1A11A11A122IIIIIIIIIIIIIIIIII
IIIIIIIIIIIIIIIIIIIIIIIIIIIIIIIIAAA1A11A1AA122IIIIIIIIIIIIIIIIII
IIIIIIIIIIIIIIIIIIIIIIIIIIII1I11AAA1A11A1AA122IIIIIIIIIIIIIIIIII
IIIIIIIIIIIIIIIIIIIIIIIIIIII1I11AAA1A11AAAA122IIIIIIIIIIIIIIIIII
IIIIIIIIIIIIIIIIIIIIIIIIIIII1111AAA1A11AAAA122IIIIIIIIIIIIIIIIII
IIIIIIIIIIIIIIIIIIIIIIIIIIII1111AAA1A11AAAA121I2IIIIIIIIIIIIIIII
IIIIIIIIIIIIIIIIIIIIIIIIIIII1111AAA1A11AAAA111121I2IIIIIIIIIIIII
IIIIIIIIIIIIIIIIIIIIIIIIIIII1111AAA1A11AAAA11111122IIIIIIIIIIIII
IIIIIIIIIIIIIIIIIIIIIIIIIIII1111AAA1A11AAAA111A1111I1I2IIIIIIIII
IIIIIIIIIIIIIIIIIIIIIIIIIIII1111AAA1A11AAAA111AA11111122IIIIIIII
IIIIIIIIIIIIIIIIIIIIIIIIIIIIIIIIA1111111I11II1IIIIIIIIIIIIIIIIII
IIIIIIIIIIIIIIIIIIIIIIIIIIIIIIIIA111111A1111111I11II1IIIIIIIIIII
IIIIIIIIIIIIIIIIIIIIIIIIIIIIIIIIAA11111A1111111I11II1IIIIIIIIIII
IIIIIIIIIIIIIIIIIIIIIIIIIIIIIIIIAA11111A11A1111111I11II1IIIIIIII
IIIIIIIIIIIIIIIIIIIIIIIIIIIIIIIIAA11A11A11A1111111I11II1IIIIIIII
IIIIIIIIIIIIIIIIIIIIIIIIIIIIIIIIAA11A11A11A1111111111111IIIIIIII
IIIIIIIIIIIIIIIIIIIIIIIIIIIIIIIIAAA1A11A11A1111111111111IIIIIIII
IIIIIIIIIIIIIIIIIIIIIIIIIIIIIIIIAAA1A11A1AA111111111111111IIIIII
IIIIIIIIIIIIIIIIIIIIIIIIIIIIIIIIAAA1A11AAAA111111111111111IIIIII
IIIIIIIIIIIIIIIIIIIIIIIIIIIII1I1AAA1A11AAAA111111111111111IIIIII
IIIIIIIIIIIIIIIIIIIIIIIIIIIII1I1AAA1AA1AAAA111111111111111IIIIII
IIIIIIIIIIIIIIIIIIIIIIIIIIIIIIIIA1IIIIIIIIIIIIIIIIIIIIIIIIIIIIII
IIIIIIIIIIIIIIIIIIIIIIIIIIIIIIIIA1IIIIIIIIA1IIIIIIIIIIIIIIIIIIII
IIIIIIIIIIIIIIIIIIIIIIIIIII2IIIIA1IIIIIIIIA11IIIIIIIIIIIIIIIIIII
IIIIIIIIIIIIIIIIIIIIIIIIIII2IIIIA12IIIIA1IA11IIII111IIIIIIIIIIII
IIIIIIIIIIIIIIIIIIIIIIIIIII2III2A12IA1IA1IA11I111111IIIIIIIIIIII
IIIIIIIIIIIIIIIIIIIIIIIIIII22II2AA1IA1IA1IA111111111IIIIIIIIIIII
IIIIIIIIIIIIIIIIIIIIIIIIIII22II2AA1IA1IA1AA11111111111IIIIIIIIII
IIIIIIIIIIIIIIIIIIIIIIIIIII22II2AA1IA1IA1AA111111111111IIIIIIIII
IIIIIIIIIIIIIIIIIIIIIIIIIII22II2AA1IAA1A1AA111111111111IIIIIIIII
IIIIIIIIIIIIIIIIIIIIIIIIIII22II2AA11AA1A1AA111111111111IIIIIIIII
IIIIIIIIIIIIIIIIIIIIIIIIIII22222AA11AA1A1AA111111111111IIIIIIIII
IIIIIIIIIIIIIIIIIIIIIIIIIII22221AA11AA1A1AA111111111111IIIIIIIII
IIIIIIIIIIIIIIIIIIIIIIIIIII22221AAA1AA1A1AA111111111111IIIIIIIII
IIIIIIIIIIIIIIIIIIIIIIIIIII22221AAA1AA1AAAA111111111111IIIIIIIII
IIIIIIIIIIIIIIIIIIIIIIIIIII22221AAA1AA1AAAA1111111111112IIIIIIII
IIIIIIIIIIIIIIIIIIIIIIIIIII22221AAA1AA1AAAA111111111111222IIIIII
IIIIIIIIIIIIIIIIIIIIIIIIIII22221AAA1AA1AAAA1111111111112222IIIII
IIIIIIIIIIIIIIIIIIIIIIIIIII22221AAA1AA1AAAA111A1111111111112222I
IIIIIIIIIIIIIIIIIIIIIIIIIII22221AAA1AA1AAAA111AA1111111111112222
A11111111111122IIIIIIIIIIII22221AAA1AA1AAAA111AA1111111111112222
A1111111111112222IIIIIIIIII22221AAA1AA1AAAA111AA1111111111112222
A111111A1111111111112222III22221AAA1AA1AAAA111AA1111111111112222
AA11111A1111111111112222III22221AAA1AA1AAAA111AA1111111111112222
AA11111A11A111111111111222222221AAA1AA1AAAA111AA1111111111112222
AA11111A11A111A11111111111122221AAA1AA1AAAA111AA1111111111112222
AA11111A11A111AA1111111111112221AAA1AA1AAAA111AA1111111111112222
AA11A11A11A111AA1111111111112221AAA1AA1AAAA111AA1111111111112222
AIII1I11111IIIIIIIIIIIIIIIIIIIIIIIIIIIIIIIIIIIIIIIIIIIIIIIIIIIII
AIII1I1A1111I11111IIIIIIIIIIIIIIIIIIIIIIIIIIIIIIIIIIIIIIIIIIIIII
AAII111A1111I11111IIIIIIIIIIIIIIIIIIIIIIIIIIIIIIIIIIIIIIIIIIIIII
AAII111A11A1I11111111IIIIIIIIIIIIIIIIIIIIIIIIIIIIIIIIIIIIIIIIIII
AAIIA11A11A1111111111IIIIIIIIIIIIIIIIIIIIIIIIIIIIIIIIIIIIIIIIIII
AA1IA11A11A1111111111IIIIIIIIIIIIIIIIIIIIIIIIIIIIIIIIIIIIIIIIIII
AA1IA11A11A111A111111IIIIIIIIIIIIIIIIIIIIIIIIIIIIIIIIIIIIIIIIIII
AA1IA11A11A111AA11111IIIIIIIIIIIIIIIIIIIIIIIIIIIIIIIIIIIIIIIIIII
AA1IA11A11A111AA11111IIIIIIIIIIIAI12I11IIII222IIIIIIIIIIIIIIIIII
AA1IA11A11A111AA11111IIIIIIIIIIIAI12I11AI12211IIIIIIIIIIIIIIIIII
AA1IA11A11A111AA11111IIIIIIIIIIIAA11211AI122112IIIIIIIIIIIIIIIII
AA1IA11A11A111AA11111IIIIIIIIIIIAA11211AI1A211211IIII222IIIIIIII
AA1IA11A11A111AA11111IIIIIIIIIIIAA11211AI1A211211I222222IIIIIIII
AA1IA11A11A111AA11111IIIIIIIIIIIAA11A11AI1A2112112222222IIIIIIII
AA1IA11A11A111AA11111IIIIIIIIIIIAA11A11A11A2112112222222IIIIIIII
AA1IA11A11A111AA11111IIIIIIII2IIAA11A11A11A2112112222222IIIIIIII
AA1IA11A11A111AA11111IIIIIIII2IIAA11A11A11A1112112222222IIIIIIII
AA1IA11A11A111AA11111IIIIIIII1I1AA11A11A11A1112112222222IIIIIIII
AA1IA11A11A111AA11111IIIIIIII1I1AA11A11A11A1112111222222IIIIIIII
AA1IA11A11A111AA11111IIIIIIII1I1AA11A11A11A1112111221222IIIIIIII
AA1IA11A11A111AA11111IIIIIIII1I1AA11A11A11A1111111221222IIIIIIII
AA1IA11A11A111AA11111IIIIIIII1I1AA11A11A1AA1111111211222IIIIIIII
AA1IA11A11A111AA11111IIIIIIII1I1AA11AA1A1AA1111111211222IIIIIIII
AA11A11A11A111AA11111IIIIIIII1I1AA11AA1A1AA1111111211222IIIIIIII
IA12IIIIIIIIIIIIIIIIIIIIIIIIIIIIIIIIIIIIIIIIIIIIIIIIIIIIIIIIIIII
IA12IIIA12IIIIIIIIIIIIIIIIIIIIIIIIIIIIIIIIIIIIIIIIIIIIIIIIIIIIII
AA12IIIA12IIIIIIIIIIIIIIIIIIIIIIIIIIIIIIIIIIIIIIIIIIIIIIIIIIIIII
AAA12IIA12IIIIIIIIIIIIIIIIIIIIIIIIIIIIIIIIIIIIIIIIIIIIIIIIIIIIII
AAA1A12A12IIIIIIIIIIIIIIIIIIIIIIIIIIIIIIIIIIIIIIIIIIIIIIIIIIIIII
AAA1A12A1A12IIIIIIIIIIIIIIIIIIIIIIIIIIIIIIIIIIIIIIIIIIIIIIIIIIII
AAA1A12AAA12IIIIIIIIIIIIIIIIIIIIIIIIIIIIIIIIIIIIIIIIIIIIIIIIIIII
AAA1A12AAA12I11IIIIIIIIIIIIIIIIIIIIIIIIIIIIIIIIIIIIIIIIIIIIIIIII
IIIIIIIIIIIIIIIIIIIIIIIIIIIIIIIIIIIIIAII22I2IIIIIIIIIIIIIIIIIIII
IIIIIIIIIIIIIIIIIIIIIIIIIIIIIIIIIIIIIAII2AI222I2IIIIIIIIIIIIIIII
IIIIIIIIIIIIIIIIIIIIIIIIIIIIIIIIA11II11111IIIIIIIIIIIIIIIIIIIIII
IIIIIIIIIIIIIIIIIIIIIIIIIIIIIIIIA11II11111A11IIIIIIIIIIIIIIIIIII
IIIIIIIIIIIIIIIIIIIIIIIIIIIIIIIIAA11I11111A11IIIIIIIIIIIIIIIIIII
IIIIIIIIIIIIIIIIIIIIIIIIIIIIIIIIAA11I11A11A111111IIIIIIIIIIIIIII
IIIIIIIIIIIIIIIIIIIIIIIIIIIIIIIIAA11I11A11A111111111IIIIIIIIIIII
IIIIIIIIIIIIIIIIIIIIIIIIIIIIIIIIAA11I11A11A111A111111111IIIIIIII
IIIIIIIIIIIIIIIIIIIIIIIIIIIIIIIIAA11I11A11A111AA11111111IIIIIIII
IIIIIIIIIIIIIIIIIIIIIIIIIIIIIIIIAA11A11A11A111AA11111111IIIIIIII
IA11II11111IIIIIIIIIIIIIIIIIIIIIAA11A11A11A111AA11111111IIIIIIII
IA11II1A111IIIIIIIIIIIIIIIIIIIIIAA11A11A11A111AA11111111IIIIIIII
IA111I1A111III1IIIIIIIIIIIIIIIIIAA11A11A11A111AA11111111IIIIIIII
IA111I1A111III1I1III1IIIIIIIIIIIAA11A11A11A111AA11111111IIIIIIII
IIIIIIIIIIIIIIIIA1112I222IIIIIIIIIIIIIIIIIIIIIIIIIIIIIIIIIIIIIII
IIIIIIIIIIIIIIIIA1112I222IIIIIIIA1112I222IIIIIIIIIIIIIIIIIIIIIII
IIIIIIIIIIIIIIIIA1112I222IIIIIIIA1112I2A1112I22IIIIIIIIIIIIIIIII
IIIIIIIIIIIIIIIIA1112I222IIIIIIIAA11122A1112I22IIIIIIIIIIIIIIIII
IIIIIIIIIIIIIIIIA1112I222IIIIIIIAA11122A11A1112I222IIIIIIIIIIIII
IIIIIIIIIIIIIIIIA1112I222IIIIIIIAA11122A11A11122222IIIIIIIIIIIII
IIIIIIIIIIIIIIIIA1112I222IIIIIIIAA11A11A11A11122222IIIIIIIIIIIII
IIIIIIIIIIIIIIIIA1112I222IIIIIIIAA11A11A1AA11122222IIIIIIIIIIIII
IIIIIIIIIIIIIIIIA1112I222IIIIIIIAA11A11A1AA111A1112I222IIIIIIIII
IIIIIIIIIIIIIIIIA1112I222IIIIIIIAA11A11A1AA111AA11122222IIIIIIII
IIIIIIIIIIIIIIIIIIIIIIIIIIIIIIIIA1111II111111111IIIIIIIIIIIIIIII
IIIIIIIIIIIIIIIIIIIIIIIIIIIIIIIIA1111II1111111111IIIIIIIIIIIIIII
IIIIIIIIIIIIIIIIIIIIIIIIIIIIIIIIA1111IIA11111111111IIIIIIIIIIIII
IIIIIIIIIIIIIIIIIIIIIIIIIIIIIIIIAA1111IA11111111111IIIIIIIIIIIII
IIIIIIIIIIIIIIIIIIIIIIIIIIIIIIIIAA1111IA11A1111111111111111IIIII
IIIIIIIIIIIIIIIIIIIIIIIIIIIIIIIIAA1111IA11A111A1111111111111111I
IIIIIIIIIIIIIIIIIIIIIIIIIIIIIIIIAA1111IA11A111AA111111111111111I
IIIIIIIIIIIIIIIIIIIIIIIIIIIIIIIIAA11A11A11A111AA111111111111111I
2AIIIIIIIIIIIIIIIIIIIIIIIIIIIIIIAA11A11A11A111AA111111111111111I
2AIIII2AIIIIIIIIIIIIIIIIIIIIIIIIAA11A11A11A111AA111111111111111I
2AI2AI2AIIIIIIIIIIIIIIIIIIIIIIIIAA11A11A11A111AA111111111111111I
AAI2AI2AIIIIIIIIIIIIIIIIIIIIIIIIAA11A11A11A111AA111111111111111I
AAI2AI2A2AIIIIIIIIIIIIIIIIIIIIIIAA11A11A11A111AA111111111111111I
AAI2AA2A2AIIIIIIIIIIIIIIIIIIIIIIAA11A11A11A111AA111111111111111I
AAI2AA2A2AAIIIIIIIIIIIIIIIIIIIIIAA11A11A11A111AA111111111111111I
IIIIIIIIIIIIIIIIIIIIIIIIIIIIIIIIA11I1112I2III22IIIIIIIIIIIIIIIII
IIIIIIIIIIIIIIIIIIIIIIIIIIIIIIIIA11I111A11I1112I2III22IIIIIIIIII
IIIIIIIIIIIIIIIIIIIIIIIIIIIIIIIIAA11111A112111222III22IIIIIIIIII
IIIIIIIIIIIIIIIIIIIIIIIIIIIIIIIIAA11111A11A1111112I222I22IIIIIII
IIIIIIIIIIIIIIIIIIIIIIIIIIIIIIIIAA11A11A11A11111122222I22IIIIIII
IIIIIIIIIIIIIIIIIIIIIIIIIIIIIIIIAA11A11A1AA11111122222222IIIIIII
IIIIIIIIIIIIIIIIIIIIIIIIIIIIIIIIAA11AA1A1AA11111122222222IIIIIII
IIIIIIIIIIIIIIIIIIIIIIIIIIIIIIIIAA11AA1A1AA111A1121112222II22III
IIIIIIIIIIIIIIIIIIIIIIIIIIIIIIIIAA11AA1A1AA111AA111111222II222II
A11I1112I2IIIIIIIIIIIIIIIIIIIIIIAA11AA1A1AA111AA111111222II222II
AA111111222III22IIIIIIIIIIIIIIIIAA11AA1A1AA111AA111111222II222II
AA11111A112111222III22IIIIIIIIIIAA11AA1A1AA111AA111111222II222II
AA11111A11A1111112I222I22IIIIIIIAA11AA1A1AA111AA111111222II222II
AA11111A11A111A1121112I22II22IIIAA11AA1A1AA111AA111111222II222II
AA11111A11A111AA111111222II222IIAA11AA1A1AA111AA111111222II222II
AA11A11A11A111AA111111222II222IIAA11AA1A1AA111AA111111222II222II
IIIIIIIIIIIIIIIIIIIIIIIIIIIIIIIIA12IIIIIIIIIIIIIIIIIIIIIIIIIIIII
IIIIIIIIIIIIIIIIIIIIIIIIIIIIIIIIA12IIIIA12IIIIIIIIIIIIIIIIIIIIII
IIIIIIIIIIIIIIIIIIIIIIIIIIIIIIIIAA12IIIA12IIIIIIIIIIIIIIIIIIIIII
IIIIIIIIIIIIIIIIIIIIIIIIIIIIIIIIAA12IIIA12A12IIIIIIIIIIIIIIIIIII
IIIIIIIIIIIIIIIIIIIIIIIIIIIIIIIIAA12A12A12A12IIIIIIIIIIIIIIIIIII
IIIIIIIIIIIIIIIIIIIIIIIIIIIIIIIIAA12A12A1AA12IIIIIIIIIIIIIIIIIII
IIIIIIIIIIIIIIIIIIIIIIIIIIIIIIIIAA12A12A1AA12IA12IIIIIIIIIIIIIII
IIIIIIIIIIIIIIIIIIIIIIIIIIIIIIIIAA12A12A1AA12IAA12IIIIIIIIIIIIII
A12IIIIIIIIIIIIIIIIIIIIIIIIIIIIIAA12A12A1AA12IAA12IIIIIIIIIIIIII
A12IIIIA12IIIIIIIIIIIIIIIIIIIIIIAA12A12A1AA12IAA12IIIIIIIIIIIIII
AA12IIIA12IIIIIIIIIIIIIIIIIIIIIIAA12A12A1AA12IAA12IIIIIIIIIIIIII
AA12IIIA12A12IIIIIIIIIIIIIIIIIIIAA12A12A1AA12IAA12IIIIIIIIIIIIII
AA12IIIA12A12IA12IIIIIIIIIIIIIIIAA12A12A1AA12IAA12IIIIIIIIIIIIII
AA12IIIA12A12IAA12IIIIIIIIIIIIIIAA12A12A1AA12IAA12IIIIIIIIIIIIII
AA12A12A12A12IAA12IIIIIIIIIIIIIIAA12A12A1AA12IAA12IIIIIIIIIIIIII
AA12A12A12A122AA12IIIIIIIIIIIIIIAA12A12A1AA12IAA12IIIIIIIIIIIIII
AA12A12A12A122AA122I2IIIIIIIIIIIAA12A12A1AA12IAA12IIIIIIIIIIIIII
AA12A12A12A122AA122I22I2IIIIIIIIAA12A12A1AA12IAA12IIIIIIIIIIIIII
AA12AA2A12A122AA122I22I2IIIIIIIIAA12A12A1AA12IAA12IIIIIIIIIIIIII
AA12AA1A12A122AA122I22I2IIIIIIIIAA12A12A1AA12IAA12IIIIIIIIIIIIII
AA11AA1A12A122AA122I22I2IIIIIIIIAA12A12A1AA12IAA12IIIIIIIIIIIIII
AA11AA1A11A111AA122I22I2IIIIIIIIAA12A12A1AA12IAA12IIIIIIIIIIIIII
AA11AA1A11A111AA11112112IIIIIIIIAA12A12A1AA12IAA12IIIIIIIIIIIIII
IA11IIIIII1I1IIIIIIIIIIIIIIIIIIIIIIIIIIIIIIIIIIIIIIIIIIIIIIIIIII
IA11IIIA111I1III1I1IIIIIIIIIIIIIIIIIIIIIIIIIIIIIIIIIIIIIIIIIIIII
1A11IIIA111I1III1I1IIIIIIIIIIIIIIIIIIIIIIIIIIIIIIIIIIIIIIIIIIIII
1A11221A111I1III1I1IIIIIIIIIIIIIIIIIIIIIIIIIIIIIIIIIIIIIIIIIIIII
1A11111A111111111I1IIIIIIIIIIIIIIIIIIIIIIIIIIIIIIIIIIIIIIIIIIIII
1A11111A11111111111IIIIIIIIIIIIIIIIIIIIIIIIIIIIIIIIIIIIIIIIIIIII
1A11111A1111111111111111IIIIIIIIIIIIIIIIIIIIIIIIIIIIIIIIIIIIIIII
1A11111A11A1111111111111111IIIIIIIIIIIIIIIIIIIIIIIIIIIIIIIIIIIII
AA11111A11A1111111111111111IIIIIIIIIIIIIIIIIIIIIIIIIIIIIIIIIIIII
AA111A1A11A1111111111111111IIIIIIIIIIIIIIIIIIIIIIIIIIIIIIIIIIIII
AAA11A1A11A1111111111111111IIIIIIIIIIIIIIIIIIIIIIIIIIIIIIIIIIIII
AAA1AA1A11A1111111111111111IIIIIIIIIIIIIIIIIIIIIIIIIIIIIIIIIIIII
AAA1AA1A1AA1111111111111111IIIIIIIIIIIIIIIIIIIIIIIIIIIIIIIIIIIII
AAA1AA1AAAA1111111111111111IIIIIIIIIIIIIIIIIIIIIIIIIIIIIIIIIIIII
AAA1AA1AAAA1111111111111111IIIIIA1111IIII12IIIIIIIIIIIIIIIIIIIII
AAA1AA1AAAA1111111111111111IIIIIA1111IIA1111IIII12IIIIIIIIIIIIII
AAA1AA1AAAA1111111111111111IIIIIAA1111IA1111IIII12IIIIIIIIIIIIII
AAA1AA1AAAA1111111111111111IIIIIAA1111IA11A1111I12I12IIIIIIIIIII
AAA1AA1AAAA1111111111111111II2I2AA1111IA11A1111I12I12IIIIIIIIIII
AAA1AA1AAAA1111111111111111II2I2AA11111A11A1111I12I12IIIIIIIIIII
AAA1AA1AAAA1111111111111111II2I2AAA1111A11A1111I12I12IIIIIIIIIII
AAA1AA1AAAA1111111111111111II2I2AAA1A11A11A1111I12I12IIIIIIIIIII
AAA1AA1AAAA1111111111111111II2I2AAA1A11A1AA1111112112IIIIIIIIIII
AAA1AA1AAAA1111111111111111II2I2AAA1A11AAAA1111111112IIIIIIIIIII
AAA1AA1AAAA1111111111111111II2I2AAA1AA1AAAA1111111112IIIIIIIIIII
AAA1AA1AAAA1111111111111111II2I2AAA1AA1AAAA11111111122IIIIIIIIII
AAA1AA1AAAA1111111111111111II2I2AAA1AA1AAAA111A111112222I2IIIIII
AAA1AA1AAAA1111111111111111II2I2AAA1AA1AAAA111AA11112222222IIIII
IIIIIIIIIIIIIIIIIIIIIIIIIIIIIIIIA11II111I11IIIIIIIIIIIIIIIIIIIII
IIIIIIIIIIIIIIIIIIIIIIIIIIIIIIIIA11II11A111I111I11IIIIIIIIIIIIII
IIIIIIIIIIIIIIIIIIIIIIIIIIIIIIIIAA11I11A1111111I11IIIIIIIIIIIIII
IIIIIIIIIIIIIIIIIIIIIIIIIIIIIIIIAA11I11A11A1111111I11IIIIIIIIIII
IIIIIIIIIIIIIIIIIIIIIIIIIIIIIIIIAA11I11A11A111A111I111I11IIIIIII
IIIIIIIIIIIIIIIIIIIIIIIIIIIIIIIIAA11I11A11A111AA11I1111111IIIIII
IIIIIIIIIIIIIIIIIIIIIIIIIIIIIIIIAA11A11A11A111AA11I1111111IIIIII
A11II1IIIIIIIIIIIIIIIIIIIIIIIIIIAA11A11A11A111AA11I1111111IIIIII
AA11I1111I11IIIIIIIIIIIIIIIIIIIIAA11A11A11A111AA11I1111111IIIIII
AA11I11A1111111I11IIIIIIIIIIIIIIAA11A11A11A111AA11I1111111IIIIII
AA11I11A11A1111111I11IIIIIIIIIIIAA11A11A11A111AA11I1111111IIIIII
AA11I11A11A111A111I111I11IIIIIIIAA11A11A11A111AA11I1111111IIIIII
AA11I11A11A111AA11I1111111IIIIIIAA11A11A11A111AA11I1111111IIIIII
AA11A11A11A111AA11I1111111IIIIIIAA11A11A11A111AA11I1111111IIIIII
IIIIIIIIIIIIIIIIIIIIIIIIIIIIIIIIA1111I111IIIIIIIIIIIIIIIIIIIIIII
IIIIIIIIIIIIIIIIIIIIIIIIIIIIIIIIA1111I1A1111I111IIIIIIIIIIIIIIII
IIIIIIIIIIIIIIIIIIIIIIIIIIIIIIIIAA11111A1111I111IIIIIIIIIIIIIIII
IIIIIIIIIIIIIIIIIIIIIIIIIIIIIIIIAA11111A11A11111111IIIIIIIIIIIII
IIIIIIIIIIIIIIIIIIIIIIIIIIIIIIIIAA11A11A11A11111111IIIIIIIIIIIII
IIIIIIIIIIIIIIIIIIIIIIIIIIIIIIIIAA11A11A11A111111111IIIIIIIIIIII
IIIIIIIIIIIIIIIIIIIIIIIIIIIIIIIIAA11A11A11A111111111111IIIIIIIII
IIIIIIIIIIIIIIIIIIIIIIIIIIIIIIIIAA11A11A11A111A11111111I111IIIII
IIIIIIIIIIIIIIIIIIIIIIIIIIIIIIIIAA11A11A11A111AA1111111I1111IIII
A11IIIIIII111IIIIIIIIIIIIIIIIIIIAA11A11A11A111AA1111111I1111IIII
A11IIIIA11111IIII111IIIIIIIIIIIIAA11A11A11A111AA1111111I1111IIII
AA11IIIA111111III111IIIIIIIIIIIIAA11A11A11A111AA1111111I1111IIII
AA11IIIA11A111III111111IIIIIIIIIAA11A11A11A111AA1111111I1111IIII
AA11IA1A11A111I11111111IIIIIIIIIAA11A11A11A111AA1111111I1111IIII
AA11AA1A11A111111111111IIIIIIIIIAA11A11A11A111AA1111111I1111IIII
AA11AA1A11A1111111111111IIIIIIIIAA11A11A11A111AA1111111I1111IIII
AA11AA1A11A1111111111111111IIIIIAA11A11A11A111AA1111111I1111IIII
AA11AA1A11A111A1111111111111111IAA11A11A11A111AA1111111I1111IIII
AA11AA1A11A111AA1111111111111111AA11A11A11A111AA1111111I1111IIII
AA11AA1A11A111AA1111111111111111AA11A11A1AA111AA1111111I1111IIII
AA11AA1A11A111AA1111111111111111AA11AA1A1AA111AA1111111I1111IIII
A11111222IIIIIIIIIIIIIIIIIIIIIIIIIIIIIIIIIIIIIIIIIIIIIIIIIIIIIII
A111112A111IIIIIIIIIIIIIIIIIIIIIIIIIIIIIIIIIIIIIIIIIIIIIIIIIIIII
AA11111A111IIIIIIIIIIIIIIIIIIIIIIIIIIIIIIIIIIIIIIIIIIIIIIIIIIIII
AA11111A11A11111IIIIIIIIIIIIIIIIIIIIIIIIIIIIIIIIIIIIIIIIIIIIIIII
AA11111A11A11111222IIIIIIIIIIIIIIIIIIIIIIIIIIIIIIIIIIIIIIIIIIIII
AA11111A11A111A11111222IIIIIIIIIIIIIIIIIIIIIIIIIIIIIIIIIIIIIIIII
AA11111A11A111AA11111222IIIIIIIIIIIIIIIIIIIIIIIIIIIIIIIIIIIIIIII
AA11A11A11A111AA11111222IIIIIIIIIIIIIIIIIIIIIIIIIIIIIIIIIIIIIIII
AA11A11A11A111AA11111222IIIIIIIIA1111IIIIIIIIIIIIIIIIIIIIIIIIIII
AA11A11A11A111AA11111222IIIIIIIIAA11111222IIIIIIIIIIIIIIIIIIIIII
AA11A11A11A111AA11111222IIIIIIIIAA11111A11111222IIIIIIIIIIIIIIII
AA11A11A11A111AA11111222IIIIIIIIAA11111A11A11111222IIIIIIIIIIIII
AA11A11A11A111AA11111222IIIIIIIIAA11111A11A111A11111222IIIIIIIII
AA11A11A11A111AA11111222IIIIIIIIAA11111A11A111AA11111222IIIIIIII
AA11A11A11A111AA11111222IIIIIIIIAA11A11A11A111AA11111222IIIIIIII
A1122I2IIIIIIIIIIIIIIIIIIIIIIIIIIIIIIIIIIIIIIIIIIIIIIIIIIIIIIIII
A1122I2A1122I2IIIIIIIIIIIIIIIIIIIIIIIIIIIIIIIIIIIIIIIIIIIIIIIIII
AA11222A1122I2IIIIIIIIIIIIIIIIIIIIIIIIIIIIIIIIIIIIIIIIIIIIIIIIII
AA11222A11A1122I2IIIIIIIIIIIIIIIIIIIIIIIIIIIIIIIIIIIIIIIIIIIIIII
AA11A11A11A1122I2IIIIIIIIIIIIIIIIIIIIIIIIIIIIIIIIIIIIIIIIIIIIIII
AA11A11A1AA112222IIIIIIIIIIIIIIIIIIIIIIIIIIIIIIIIIIIIIIIIIIIIIII
AA11A11AAAA112222IIIIIIIIIIIIIIIIIIIIIIIIIIIIIIIIIIIIIIIIIIIIIII
AAA1A11AAAA112222IIIIIIIIIIIIIIIIIIIIIIIIIIIIIIIIIIIIIIIIIIIIIII
AAA1A11AAAA111222IIIIIIIIIIIIIIIIIIIIIIIIIIIIIIIIIIIIIIIIIIIIIII
[...]
IIIIIIIIIIIIIIIIIIIIIIIIIIIII221AA1111IA11A1111111111111111IIIII
IIIIIIIIIIIIIIIIIIIIIIIIIIIII221AA11111A11A1111111111111111IIIII
IIIIIIIIIIIIIIIIIIIIIIIIIIIII221AA11A11A11A1111111111111111IIIII
IIIIIIIIIIIIIIIIIIIIIIIIIIIII221AA11A11A1AA1111111111111111IIIII
IIIIIIIIIIIIIIIIIIIIIIIIIIIII221AA11A11A1AA111A111111111111IIIII
IIIIIIIIIIIIIIIIIIIIIIIIIIIII221AA11A11A1AA111AA11111111111IIIII
AI111I11I1II1IIIIIIIIIIIIIIII221AA11A11A1AA111AA11111111111IIIII
AI111I1AI1111IIIIIIIIIIIIIIII221AA11A11A1AA111AA11111111111IIIII
AA11111A111111IIIIIIIIIIIIIII221AA11A11A1AA111AA11111111111IIIII
AA11111A11A1111I11IIIIIIIIIII221AA11A11A1AA111AA11111111111IIIII
AA11111A11A1111I11I1IIIIIIIII221AA11A11A1AA111AA11111111111IIIII
AA11111A11A1111I11I1II1IIIIII221AA11A11A1AA111AA11111111111IIIII
AA11111A11A111AI11111111II1II221AA11A11A1AA111AA11111111111IIIII
AA11111A11A111AA111111111I11I221AA11A11A1AA111AA11111111111IIIII
AA11A11A11A111AA111111111I11I221AA11A11A1AA111AA11111111111IIIII
AA11A11A11A111AA111111111I11I221AAA1A11A1AA111AA11111111111IIIII
AA11A11A11A111AA111111111I11I221AAA1A11AAAA111AA11111111111IIIII
AA11AA1A11A111AA111111111I11I221AAA1A11AAAA111AA11111111111IIIII
AAA1AA1A11A111AA111111111I11I221AAA1A11AAAA111AA11111111111IIIII
AAA1AA1A1AA111AA111111111I11I221AAA1A11AAAA111AA11111111111IIIII
AAA1AA1AAAA111AA111111111I11I221AAA1A11AAAA111AA11111111111IIIII
AAA1AA1AAAA111AAA11111111I11I221AAA1A11AAAA111AA11111111111IIIII
IAII1II1II1IIIIIIIIIIIIIIIIIIIIIIIIIIIIIIIIIIIIIIIIIIIIIIIIIIIII
IA121II1II1IIIIIIIIIIIIIIIIIIIIIIIIIIIIIIIIIIIIIIIIIIIIIIIIIIIII
IA121IIA121IIIIIIIIIIIIIIIIIIIIIIIIIIIIIIIIIIIIIIIIIIIIIIIIIIIII
IA121IIA12A12IIIIIIIIIIIIIIIIIIIIIIIIIIIIIIIIIIIIIIIIIIIIIIIIIII
AA121IIA12A12IIIIIIIIIIIIIIIIIIIIIIIIIIIIIIIIIIIIIIIIIIIIIIIIIII
AA12111A12A12IIIIIIIIIIIIIIIIIIIIIIIIIIIIIIIIIIIIIIIIIIIIIIIIIII
AA12111A11A12IIIIIIIIIIIIIIIIIIIIIIIIIIIIIIIIIIIIIIIIIIIIIIIIIII
AA12111A11A111AIIIIIIIIIIIIIIIIIIIIIIIIIIIIIIIIIIIIIIIIIIIIIIIII
AA12111A11A111AAIIIIIIIIIIIIIIIIIIIIIIIIIIIIIIIIIIIIIIIIIIIIIIII
AA11A11A11A111AAIIIIIIIIIIIIIIIIIIIIIIIIIIIIIIIIIIIIIIIIIIIIIIII
AA11A11A11A111AAIIIIIIIIIIIII211AIIIIIIIIIIIIIIIIIIIIIIIIIIIIIII
AA11A11A11A111AAIIIIIIIIIIIII211AIII211AIIIIIIIIIIIIIIIIIIIIIIII
AA11A11A11A111AAIIIIIIIIIIIII211AAII211AIIIIIIIIIIIIIIIIIIIIIIII
AA11A11A11A111AAIIIIIIIIIIIII211AAII211A11AIIIIIIIIIIIIIIIIIIIII
AA11A11A11A111AAIIIIIIIIIIIII211AAII211A11A1I11111IIIIIIIIIIIIII
AA11A11A11A111AAIIIIIIIIIIIII211AAIIA11A11A1111111IIIIIIIIIIIIII
AA11A11A11A111AAIIIIIIIIIIIII211AAIIA11A1AA111111111IIIIIIIIIIII
AA11A11A11A111AAIIIIIIIIIIIII211AAIIA11A1AA1111111111IIIIIIIIIII
AA11A11A11A111AAIIIIIIIIIIIII211AAIIA11A1AA111A1111111111IIIIIII
AA11A11A11A111AAIIIIIIIIIIIII211AAIIA11A1AA111AA1111111111IIIIII
IIIIIIIIIIIIIIIIIIIIIIIIIIIIIIIIA11111I1111IIIIIIIIIIIIIIIIIIIII
IIIIIIIIIIIIIIIIIIIIIIIIIIIIIIIIA11111I111111IIIIIIIIIIIIIIIIIII
IIIIIIIIIIIIIIIIIIIIIIIIIIIIIIIIA11111IA11111I111IIIIIIIIIIIIIII
IIIIIIIIIIIIIIIIIIIIIIIIIIIIIIIIAA11111A111111111IIIIIIIIIIIIIII
IIIIIIIIIIIIIIIIIIIIIIIIIIIIIIIIAA11111A11A111111111111IIIIIIIII
IIIIIIIIIIIIIIIIIIIIIIIIIIIIIIIIAA11111A11A111A111111111111IIIII
IIIIIIIIIIIIIIIIIIIIIIIIIIIIIIIIAA11111A11A111AA111111111111IIII
IIIIIIIIIIIIIIIIIIIIIIIIIIIIIIIIAA11A11A11A111AA111111111111IIII
A1111IIIIIIIIIIIIIIIIIIIIIIIIIIIAA11A11A11A111AA111111111111IIII
A11111I1111IIIIIIIIIIIIIIIIIIIIIAA11A11A11A111AA111111111111IIII
A11111IA11111I111IIIIIIIIIIIIIIIAA11A11A11A111AA111111111111IIII
AA11111A111111111IIIIIIIIIIIIIIIAA11A11A11A111AA111111111111IIII
AA11111A11A11111111IIIIIIIIIIIIIAA11A11A11A111AA111111111111IIII
AA11111A11A111111111IIIIIIIIIIIIAA11A11A11A111AA111111111111IIII
AA11111A11A111111111111IIIIIIIIIAA11A11A11A111AA111111111111IIII
AA11111A11A111A111111111111IIIIIAA11A11A11A111AA111111111111IIII
AA11111A11A111AA111111111111IIIIAA11A11A11A111AA111111111111IIII
AA11A11A11A111AA111111111111IIIIAA11A11A11A111AA111111111111IIII
IIIIIIIIIIIIIIIIIIIIIIIIIIIIIIIIA1111I2222IIIIIIIIIIIIIIIIIIIIII
IIIIIIIIIIIIIIIIIIIIIIIIIIIIIIIIA1111I2A1111I2IIIIIIIIIIIIIIIIII
IIIIIIIIIIIIIIIIIIIIIIIIIIIIIIIIAA11112A1111I2IIIIIIIIIIIIIIIIII
IIIIIIIIIIIIIIIIIIIIIIIIIIIIIIIIAA11112A11A1111I2222IIIIIIIIIIII
IIIIIIIIIIIIIIIIIIIIIIIIIIIIIIIIAA11112A11A111122222IIIIIIIIIIII
IIIIIIIIIIIIIIIIIIIIIIIIIIIIIIIIAA11112A11A111A111122222IIIIIIII
IIIIIIIIIIIIIIIIIIIIIIIIIIIIIIIIAA11112A11A111AA111122222IIIIIII
IIIIIIIIIIIIIIIIIIIIIIIIIIIIIIIIAA11A11A11A111AA111122222IIIIIII
A1111I2222IIIIIIIIIIIIIIIIIIIIIIAA11A11A11A111AA111122222IIIIIII
A1111I2A11IIIIIIIIIIIIIIIIIIIIIIAA11A11A11A111AA111122222IIIIIII
AA11112A112IIIIIIIIIIIIIIIIIIIIIAA11A11A11A111AA111122222IIIIIII
AA11112A11A1111I222IIIIIIIIIIIIIAA11A11A11A111AA111122222IIIIIII
AA11112A11A11112222IIIIIIIIIIIIIAA11A11A11A111AA111122222IIIIIII
AA11112A11A111122222IIIIIIIIIIIIAA11A11A11A111AA111122222IIIIIII
AA11112A11A111A111122222IIIIIIIIAA11A11A11A111AA111122222IIIIIII
AA11112A11A111AA111122222IIIIIIIAA11A11A11A111AA111122222IIIIIII
AA11A11A11A111AA111122222IIIIIIIAA11A11A11A111AA111122222IIIIIII
IIIIIIIIIIIIIIIIIIIIIIIIIIIIIIIIAIIIIIIIIIIIIIIIIIIIIIIIIIIIIIII
IIIIIIIIIIIIIIIIIIIIIIIIIIIIIIIIAIIIIIIAIIIIIIIIIIIIIIIIIIIIIIII
IIIIIIIIIIIIIIIIIIIIIIIIIIIIIIIIAAIIIIIAIIIIIIIIIIIIIIIIIIIIIIII
IIIIIIIIIIIIIIIIIIIIIIIIIIIIIIIIAAIIIIIAIIAIIIIIIIIIIIIIIIIIIIII
IIIIIIIIIIIIIIIIIIIIIIIIIIIIIIIIAAIIAIIAIIAIIIIIIIIIIIIIIIIIIIII
IIIIIIIIIIIIIIIIIIIIIIIIIIIIIIIIAA11AIIAIIA122IIIIIIIIIIIIIIIIII
IIIIIIIIIIIIIIIIIIIIIIIIIIIIIIIIAA11AIIA11A122III122IIIIIIIIIIII
IIIIIIIIIIIIIIIIIIIIIIIIIIIII2I1AA11AIIA11A122III122IIIIIIIIIIII
IIIIIIIIIIIIIIIIIIIIIIIIIIIII2I1AA11A11A11A122III122IIIIIIIIIIII
IIIIIIIIIIIIIIIIIIIIIIIIIIIII2I1AA11A11A11A111I11122IIIIIIIIIIII
IIIIIIIIIIIIIIIIIIIIIIIIIIIII2I1AA11A11A11A111111111I111IIIIIIII
IIIIIIIIIIIIIIIIIIIIIIIIIIIII2I1AA11A11A11A1111111111111IIIIIIII
IIIIIIIIIIIIIIIIIIIIIIIIIIIII2I1AAA1A11A11A1111111111111IIIIIIII
IIIIIIIIIIIIIIIIIIIIIIIIIIIII2I1AAA1A11A1AA111111111111111IIIIII
IIIIIIIIIIIIIIIIIIIIIIIIIIIII2I1AAA1A11AAAA111111111111111IIIIII
IIIIIIIIIIIIIIIIIIIIIIIIIIIII1I1AAA1A11AAAA111111111111111IIIIII
IIIIIIIIIIIIIIIIIIIIIIIIIIIII1I1AAA1A11AAAA111A11111111111IIIIII
IIIIIIIIIIIIIIIIIIIIIIIIIIIII1I1AAA1A11AAAA111AA1111111111IIIIII
IIIIIIIIIIIIIIIIIIIIIIIIIIIIIIIIA11222IIIIIIIIIIIIIIIIIIIIIIIIII
IIIIIIIIIIIIIIIIIIIIIIIIIIIIIIIIA11222IA11222IIIIIIIIIIIIIIIIIII
IIIIIIIIIIIIIIIIIIIIIIIIIIIIIIIIAA11222A11222IIIIIIIIIIIIIIIIIII
IIIIIIIIIIIIIIIIIIIIIIIIIIIIIIIIAA11222A11A11222IIIIIIIIIIIIIIII
IIIIIIIIIIIIIIIIIIIIIIIIIIIIIIIIAA11A11A11A11222IIIIIIIIIIIIIIII
IIIIIIIIIIIIIIIIIIIIIIIIIIIIIII2AA11A11A11A11222IIIIIIIIIIIIIIII
IIIIIIIIIIIIIIIIIIIIIIIIIIIIIII2AA11A11A11A11121IIIIIIIIIIIIIIII
IIIIIIIIIIIIIIIIIIIIIIIIIIIIIII2AAA1A11A11A11121IIIIIIIIIIIIIIII
IIIIIIIIIIIIIIIIIIIIIIIIIIIIIII2AAA1A11A1AA11121I1IIIIIIIIIIIIII
IIIIIIIIIIIIIIIIIIIIIIIIIIIIIII2AAA1A11AAAA1111111IIIIIIIIIIIIII
IIIIIIIIIIIIIIIIIIIIIIIIIIIIIII2AAA1A11AAAA1111111111111IIIIIIII
IIIIIIIIIIIIIIIIIIIIIIIIIIIIIII2AAA1A11AAAA1111111111111111IIIII
IIIIIIIIIIIIIIIIIIIIIIIIIIIIIII2AAA1AA1AAAA1111111111111111IIIII
IIIIIIIIIIIIIIIIIIIIIIIIIIIIIIIIAII22IIIIIIIIIIIIIIIIIIIIIIIIIII
IIIIIIIIIIIIIIIIIIIIIIIIIIIIIIIIAII22IIIIIAII22IIIIIIIIIIIIIIIII
IIIIIIIIIIIIIIIIIIIIIIIIIIIIIIIIA1I22IIIIIA1222IIIIIIIIIIIIIIIII
IIIIIIIIIIIIIIIIIIIIIIIIIIIIIIIIA1I22IIA1IA1222II112IIIIIIIIIIII
IIIIIIIIIIIIIIIIIIIIIIIIIIIIIIIIA1I2A1IA1IA122112112IIIIIIIIIIII
IIIIIIIIIIIIIIIIIIIIIIIIIIIIIIIIAA12A1IA1IA112112112IIIIIIIIIIII
IIIIIIIIIIIIIIIIIIIIIIIIIIIIIIIIAA12A1IA1AA11211211112IIIIIIIIII
IIIIIIIIIIIIIIIIIIIIIIIIIIIIIIIIAA12A1IA1AA112112111112IIIIIIIII
IIIIIIIIIIIIIIIIIIIIIIIIIIIIIIIIAA12AA1A1AA112112111112IIIIIIIII
IIIIIIIIIIIIIIIIIIIIIIIIIIIIIIIIAA11AA1A1AA112112111112IIIIIIIII
IIIIIIIIIIIIIIIIIIIIIIIIIIIIIIIIAA11AA1A1AA111112111112IIIIIIIII
IIIIIIIIIIIIIIIIIIIIIIIIIIIII222AA11AA1A1AA111112111112IIIIIIIII
IIIIIIIIIIIIIIIIIIIIIIIIIIII2221AA11AA1A1AA111112111112IIIIIIIII
IIIIIIIIIIIIIIIIIIIIIIIIIIII2221AAA1AA1A1AA111112111112IIIIIIIII
IIIIIIIIIIIIIIIIIIIIIIIIIIII2221AAA1AA1AAAA111112111112IIIIIIIII
IIIIIIIIIIIIIIIIIIIIIIIIIIII2221AAA1AA1AAAA1111111111122IIIIIIII
IIIIIIIIIIIIIIIIIIIIIIIIIIII2221AAA1AA1AAAA111111111112222IIIIII
IIIIIIIIIIIIIIIIIIIIIIIIIIII2221AAA1AA1AAAA1111111111112222IIIII
IIIIIIIIIIIIIIIIIIIIIIIIIIII2221AAA1AA1AAAA111A1111111111112222I
IIIIIIIIIIIIIIIIIIIIIIIIIIII2221AAA1AA1AAAA111AA1111111111112222
A111I11111111222IIIIIIIIIIII2221AAA1AA1AAAA111AA1111111111112222
A111I111111112222IIIIIIIIIII2221AAA1AA1AAAA111AA1111111111112222
A111I11A1111111111112222IIII2221AAA1AA1AAAA111AA1111111111112222
AA11111A1111111111112222IIII2221AAA1AA1AAAA111AA1111111111112222
AA11111A11A1111111111112222I2221AAA1AA1AAAA111AA1111111111112222
AA11111A11A111A11111111111122221AAA1AA1AAAA111AA1111111111112222
AA11111A11A111AA1111111111112221AAA1AA1AAAA111AA1111111111112222
AA11A11A11A111AA1111111111112221AAA1AA1AAAA111AA1111111111112222
AIII1I11I12IIIIIIIIIIIIIIIIIIIIIIIIIIIIIIIIIIIIIIIIIIIIIIIIIIIII
AIII1I1AI121I11I12IIIIIIIIIIIIIIIIIIIIIIIIIIIIIIIIIIIIIIIIIIIIII
AAII111A1111I11I12IIIIIIIIIIIIIIIIIIIIIIIIIIIIIIIIIIIIIIIIIIIIII
AAII111A11A1I11I11I12IIIIIIIIIIIIIIIIIIIIIIIIIIIIIIIIIIIIIIIIIII
AAIIA11A11A1I11I11I12IIIIIIIIIIIIIIIIIIIIIIIIIIIIIIIIIIIIIIIIIII
AA1IA11A11A1I11I11I12IIIIIIIIIIIIIIIIIIIIIIIIIIIIIIIIIIIIIIIIIII
AA1IA11A11A1I1A111I12IIIIIIIIIIIIIIIIIIIIIIIIIIIIIIIIIIIIIIIIIII
AA1IA11A11A1I1AA11I12IIIIIIIIIIIIIIIIIIIIIIIIIIIIIIIIIIIIIIIIIII
AA1IA11A11A1I1AA11I12IIIIIIIIIIIAI121IIIIII22IIIIIIIIIIIIIIIIIII
AA1IA11A11A1I1AA11I12IIIIIIIIIIIAI121IIAI1212IIIII22IIIIIIIIIIII
AA1IA11A11A1I1AA11I12IIIIIIIIIIIAA1111IAI12122IIII22IIIIIIIIIIII
AA1IA11A11A1I1AA11I12IIIIIIIIIIIAA1111IAI1A1121III22I22IIIIIIIII
AA1IA11A11A1I1AA11I12IIIIIIIIIIIAA11A11A11A112122I22I22IIIIIIIII
AA1IA11A11A1I1AA11I12IIIIIIII2IIAA11A11A11A112122222I22IIIIIIIII
AA1IA11A11A1I1AA11I12IIIIIIII2IIAA11A11A11A1121112222222IIIIIIII
AA1IA11A11A1I1AA11I12IIIIIIII1I1AA11A11A11A1121112222222IIIIIIII
AA1IA11A11A1I1AA11I12IIIIIIII1I1AA11A11A11A1111112222222IIIIIIII
AA1IA11A11A1I1AA11I12IIIIIIII1I1AA11A11A11A1111112212222IIIIIIII
AA1IA11A11A1I1AA11I12IIIIIIII1I1AA11A11A1AA1111112112222IIIIIIII
AA1IA11A11A1I1AA11I12IIIIIIII1I1AA11AA1A1AA1111112112222IIIIIIII
AA11A11A11A1I1AA11I12IIIIIIII1I1AA11AA1A1AA1111112112222IIIIIIII
AA11A11A11A111AA11212IIIIIIII1I1AA11AA1A1AA1111112112222IIIIIIII
IA1IIIIIIII222IIIIIIIIIIIIIIIIIIIIIIIIIIIIIIIIIIIIIIIIIIIIIIIIII
IA1IIIIA1II222III222IIIIIIIIIIIIIIIIIIIIIIIIIIIIIIIIIIIIIIIIIIII
AA1IIIIA1I2222III222IIIIIIIIIIIIIIIIIIIIIIIIIIIIIIIIIIIIIIIIIIII
AAA1IIIA1I22222II222IIIIIIIIIIIIIIIIIIIIIIIIIIIIIIIIIIIIIIIIIIII
AAA1A1IA1I2222222222IIIIIIIIIIIIIIIIIIIIIIIIIIIIIIIIIIIIIIIIIIII
AAA1A1IA1A122222222222IIIIIIIIIIIIIIIIIIIIIIIIIIIIIIIIIIIIIIIIII
AAA1A1IAAA122222222222IIIIIIIIIIIIIIIIIIIIIIIIIIIIIIIIIIIIIIIIII
AAA1A1IAAA111222222222IIIIIIIIIIIIIIIIIIIIIIIIIIIIIIIIIIIIIIIIII
AAA1A1IAAA111111122222IIIIIIIIIIIIIIIIIIIIIIIIIIIIIIIIIIIIIIIIII
AAA1A1IAAA111111111222IIIIIIIIIIIIIIIIIIIIIIIIIIIIIIIIIIIIIIIIII
IIIIIIIIIIIIIIIIIIIIIIIIIIIIIIIIIIIIIAII22IIIIIIIIIIIIIIIIIIIIII
IIIIIIIIIIIIIIIIIIIIIIIIIIIIIIIIIIIIIAII2AII22IIIIIIIIIIIIIIIIII
IIIIIIIIIIIIIIIIIIIIIIIIIIIIIIIIAI1111I1111IIIIIIIIIIIIIIIIIIIII
IIIIIIIIIIIIIIIIIIIIIIIIIIIIIIIIAI1111I111AI1111IIIIIIIIIIIIIIII
IIIIIIIIIIIIIIIIIIIIIIIIIIIIIIIIAA11111111A11111IIIIIIIIIIIIIIII
IIIIIIIIIIIIIIIIIIIIIIIIIIIIIIIIAA11111A11A1111111IIIIIIIIIIIIII
IIIIIIIIIIIIIIIIIIIIIIIIIIIIIIIIAA11111A11A1111111111IIIIIIIIIII
IIIIIIIIIIIIIIIIIIIIIIIIIIIIIIIIAA11111A11A111A1111111111IIIIIII
IIIIIIIIIIIIIIIIIIIIIIIIIIIIIIIIAA11111A11A111AA1111111111IIIIII
IIIIIIIIIIIIIIIIIIIIIIIIIIIIIIIIAA11A11A11A111AA1111111111IIIIII
IAI1111I1111IIIIIIIIIIIIIIIIIIIIAA11A11A11A111AA1111111111IIIIII
IAI1111A11111I1111IIIIIIIIIIIIIIAA11A11A11A111AA1111111111IIIIII
IIIIIIIIIIIIIIIIA111IIII1222IIIIIIIIIIIIIIIIIIIIIIIIIIIIIIIIIIII
IIIIIIIIIIIIIIIIA111IIII1222IIIIA111IIII1222IIIIIIIIIIIIIIIIIIII
IIIIIIIIIIIIIIIIA111IIII1222IIIIA111IIIA1112III1222IIIIIIIIIIIII
IIIIIIIIIIIIIIIIA111IIII1222IIIIAA111IIA11122II1222IIIIIIIIIIIII
IIIIIIIIIIIIIIIIA111IIII1222IIIIAA111IIA11A111I1221222IIIIIIIIII
IIIIIIIIIIIIIIIIA111IIII1222IIIIAA11A11A11A11121221222IIIIIIIIII
IIIIIIIIIIIIIIIIA111IIII1222IIIIAA11A11A1AA11121211222IIIIIIIIII
IIIIIIIIIIIIIIIIA111IIII1222IIIIAA11A11A1AA111A11112221222IIIIII
IIIIIIIIIIIIIIIIA111IIII1222IIIIAA11A11A1AA111AA11122211222IIIII
IIIIIIIIIIIIIIIIIIIIIIIIIIIIIIIIAII11I11122II2IIIIIIIIIIIIIIIIII
IIIIIIIIIIIIIIIIIIIIIIIIIIIIIIIIAII11I1A1211I11122II2IIIIIIIIIII
IIIIIIIIIIIIIIIIIIIIIIIIIIIIIIIIAAI1111A1111I11122II2IIIIIIIIIII
IIIIIIIIIIIIIIIIIIIIIIIIIIIIIIIIAAI1111A11A1I11111122II2IIIIIIII
IIIIIIIIIIIIIIIIIIIIIIIIIIIIIIIIAAI1111A11A1I1A1111211122II2IIII
IIIIIIIIIIIIIIIIIIIIIIIIIIIIIIIIAAI1111A11A1I1AA111111112II2IIII
IIIIIIIIIIIIIIIIIIIIIIIIIIIIIIIIAAI1A11A11A111AA111111112II2IIII
IAII11I11122II2IIIIIIIIIIIIIIIIIAAI1A11A11A111AA111111112II2IIII
IAII11IA1111I11122II2IIIIIIIIIIIAAI1A11A11A111AA111111112II2IIII
IAIIA1IA1111111122II2IIIIIIIIIIIAAI1A11A11A111AA111111112II2IIII
AAI1A11A1111111122II2IIIIIIIIIIIAAI1A11A11A111AA111111112II2IIII
AAI1A11A1A11111111222I2IIIIIIIIIAAI1A11A11A111AA111111112II2IIII
AAI1AA1A1A11111111222I2IIIIIIIIIAAI1A11A11A111AA111111112II2IIII
AAI1AA1A1AA1111111222I2IIIIIIIIIAAI1A11A11A111AA111111112II2IIII
IIIIIIIIIIIIIIIIIIIIIIIIIIIIIIIIA111222IIIIIIIIIIIIIIIIIIIIIIIII
IIIIIIIIIIIIIIIIIIIIIIIIIIIIIIIIA111222A111222IIIIIIIIIIIIIIIIII
IIIIIIIIIIIIIIIIIIIIIIIIIIIIIIIIAA11122A111222IIIIIIIIIIIIIIIIII
IIIIIIIIIIIIIIIIIIIIIIIIIIIIIIIIAA11122A11A111222IIIIIIIIIIIIIII
IIIIIIIIIIIIIIIIIIIIIIIIIIIIIIIIAA11A11A11A111222IIIIIIIIIIIIIII
IIIIIIIIIIIIIIIIIIIIIIIIIIIIIIIIAA11A11A1AA111222IIIIIIIIIIIIIII
IIIIIIIIIIIIIIIIIIIIIIIIIIIIIIIIAA11AA1A1AA111222IIIIIIIIIIIIIII
IIIIIIIIIIIIIIIIIIIIIIIIIIIIIIIIAA11AA1A1AA111A111222IIIIIIIIIII
IIIIIIIIIIIIIIIIIIIIIIIIIIIIIIIIAA11AA1A1AA111AA111222IIIIIIIIII
A111222IIIIIIIIIIIIIIIIIIIIIIIIIAA11AA1A1AA111AA111222IIIIIIIIII
AA111222IIIIIIIIIIIIIIIIIIIIIIIIAA11AA1A1AA111AA111222IIIIIIIIII
AA11122A111222IIIIIIIIIIIIIIIIIIAA11AA1A1AA111AA111222IIIIIIIIII
AA11122A11A111222IIIIIIIIIIIIIIIAA11AA1A1AA111AA111222IIIIIIIIII
AA11122A11A111A111222IIIIIIIIIIIAA11AA1A1AA111AA111222IIIIIIIIII
AA11122A11A111AA111222IIIIIIIIIIAA11AA1A1AA111AA111222IIIIIIIIII
AA11A11A11A111AA111222IIIIIIIIIIAA11AA1A1AA111AA111222IIIIIIIIII
IIIIIIIIIIIIIIIIIIIIIIIIIIIIIIIIA12IIIIIIIIIIIIIIIIIIIIIIIIIIIII
IIIIIIIIIIIIIIIIIIIIIIIIIIIIIIIIA12IIIIA12IIIIIIIIIIIIIIIIIIIIII
IIIIIIIIIIIIIIIIIIIIIIIIIIIIIIIIAA12IIIA12IIIIIIIIIIIIIIIIIIIIII
IIIIIIIIIIIIIIIIIIIIIIIIIIIIIIIIAA12IIIA12A12IIIIIIIIIIIIIIIIIII
IIIIIIIIIIIIIIIIIIIIIIIIIIIIIIIIAA12A12A12A12IIIIIIIIIIIIIIIIIII
IIIIIIIIIIIIIIIIIIIIIIIIIIIIIIIIAA12A12A1AA12IIIIIIIIIIIIIIIIIII
IIIIIIIIIIIIIIIIIIIIIIIIIIIIIIIIAA12A12A1AA12IA12IIIIIIIIIIIIIII
IIIIIIIIIIIIIIIIIIIIIIIIIIIIIIIIAA12A12A1AA12IAA12IIIIIIIIIIIIII
A12IIIIIIIIIIIIIIIIIIIIIIIIIIIIIAA12A12A1AA12IAA12IIIIIIIIIIIIII
A12IIIIA12IIIIIIIIIIIIIIIIIIIIIIAA12A12A1AA12IAA12IIIIIIIIIIIIII
AA12IIIA12IIIIIIIIIIIIIIIIIIIIIIAA12A12A1AA12IAA12IIIIIIIIIIIIII
AA12IIIA12A12IIIIIIIIIIIIIIIIIIIAA12A12A1AA12IAA12IIIIIIIIIIIIII
AA12IIIA12A12IA12IIIIIIIIIIIIIIIAA12A12A1AA12IAA12IIIIIIIIIIIIII
AA12IIIA12A12IAA12IIIIIIIIIIIIIIAA12A12A1AA12IAA12IIIIIIIIIIIIII
AA12A12A12A12IAA12IIIIIIIIIIIIIIAA12A12A1AA12IAA12IIIIIIIIIIIIII
AA12A12A12A12IAA12IIIIIIIIIIIIIIAA12A12A1AA122AA12IIIIIIIIIIIIII
AA12A12A12A122AA12IIIIIIIIIIIIIIAA12A12A1AA122AA12IIIIIIIIIIIIII
AA12A12A12A122AA12II22I2IIIIIIIIAA12A12A1AA122AA12IIIIIIIIIIIIII
AA12A12A12A122AA122I22I2IIIIIIIIAA12A12A1AA122AA12IIIIIIIIIIIIII
AA12AA2A11A122AA122I22I2IIIIIIIIAA12A12A1AA122AA12IIIIIIIIIIIIII
AA11AA2A11A122AA122I22I2IIIIIIIIAA12A12A1AA122AA12IIIIIIIIIIIIII
IA111IIIIIIIIIIIIIIIIIIIIIIIIIIIIIIIIIIIIIIIIIIIIIIIIIIIIIIIIIII
IA111IIIIIII11IIIIIIIIIIIIIIIIIIIIIIIIIIIIIIIIIIIIIIIIIIIIIIIIII
IA111IIA111I11IIII11IIIIIIIIIIIIIIIIIIIIIIIIIIIIIIIIIIIIIIIIIIII
1A111IIA111I11IIII11IIIIIIIIIIIIIIIIIIIIIIIIIIIIIIIIIIIIIIIIIIII
1A11111A111I11IIII11IIIIIIIIIIIIIIIIIIIIIIIIIIIIIIIIIIIIIIIIIIII
1A11111A11AI11IIII11IIIIIIIIIIIIIIIIIIIIIIIIIIIIIIIIIIIIIIIIIIII
AA11111A11AI11IIII11IIIIIIIIIIIIIIIIIIIIIIIIIIIIIIIIIIIIIIIIIIII
AA111A1A11AI11IIII11IIIIIIIIIIIIIIIIIIIIIIIIIIIIIIIIIIIIIIIIIIII
AAA11A1A11AI11IIII11IIIIIIIIIIIIIIIIIIIIIIIIIIIIIIIIIIIIIIIIIIII
AAA1AA1A11AI11IIII11IIIIIIIIIIIIIIIIIIIIIIIIIIIIIIIIIIIIIIIIIIII
AAA1AA1A1AA111IIII11IIIIIIIIIIIIIIIIIIIIIIIIIIIIIIIIIIIIIIIIIIII
AAA1AA1AAAA111IIII11IIIIIIIIIIIIIIIIIIIIIIIIIIIIIIIIIIIIIIIIIIII
AAA1AA1AAAA111112211IIIIIIIIIIIIIIIIIIIIIIIIIIIIIIIIIIIIIIIIIIII
AAA1AA1AAAA1111111111122IIIIIIIIIIIIIIIIIIIIIIIIIIIIIIIIIIIIIIII
AAA1AA1AAAA1111111111111122IIIIIIIIIIIIIIIIIIIIIIIIIIIIIIIIIIIII
AAA1AA1AAAA1111111111111122IIIIIA1111II111111112IIIIIIIIIIIIIIII
AAA1AA1AAAA1111111111111122IIIIIA1111II1111111122IIIIIIIIIIIIIII
AAA1AA1AAAA1111111111111122IIIIIA1111IIA1111111111111122IIIIIIII
AAA1AA1AAAA1111111111111122IIIIIAA1111IA1111111111111122IIIIIIII
AAA1AA1AAAA1111111111111122IIIIIAA1111IA11A1111111111111122IIIII
AAA1AA1AAAA1111111111111122IIIIIAAA1111A11A1111111111111122IIIII
AAA1AA1AAAA1111111111111122IIIIIAAA1A11A11A1111111111111122IIIII
AAA1AA1AAAA1111111111111122IIIIIAAA1A11A1AA1111111111111122IIIII
AAA1AA1AAAA1111111111111122IIIIIAAA1A11AAAA1111111111111122IIIII
AAA1AA1AAAA1111111111111122IIIIIAAA1AA1AAAA1111111111111122IIIII
AAA1AA1AAAA1111111111111122IIIIIAAA1AA1AAAA111A111111111122I2III
AAA1AA1AAAA1111111111111122IIIIIAAA1AA1AAAA111AA11111111122I22II
IIIIIIIIIIIIIIIIIIIIIIIIIIIIIIIIA1IIIIIIII112IIIIIIIIIIIIIIIIIII
IIIIIIIIIIIIIIIIIIIIIIIIIIIIIIIIA1IIIIIA1I112IIII112IIIIIIIIIIII
IIIIIIIIIIIIIIIIIIIIIIIIIIIIIIIIAA1IIIIA1I1112III112IIIIIIIIIIII
IIIIIIIIIIIIIIIIIIIIIIIIIIIIIIIIAA1IIIIA1IA112III112112IIIIIIIII
IIIIIIIIIIIIIIIIIIIIIIIIIIIIIIIIAA1IIIIA1IA112A1I112112I112IIIII
IIIIIIIIIIIIIIIIIIIIIIIIIIIIIIIIAA1IIIIA1IA112AA1112112I1112IIII
IIIIIIIIIIIIIIIIIIIIIIIIIIIIIIIIAA1IA1IA1IA112AA1112112I1112IIII
A1IIIIIIII112IIIIIIIIIIIIIIIIIIIAA1IA1IA1IA112AA1112112I1112IIII
AA1IIIIIII1112IIIIIIIIIIIIIIIIIIAA1IA1IA1IA112AA1112112I1112IIII
AA1IIIIA1I1112III112IIIIIIIIIIIIAA1IA1IA1IA112AA1112112I1112IIII
AA1IIIIA1IA112III112112IIIIIIIIIAA1IA1IA1IA112AA1112112I1112IIII
AA1IIIIA1IA112A1I112112I112IIIIIAA1IA1IA1IA112AA1112112I1112IIII
AA1IIIIA1IA112AA1112112I1112IIIIAA1IA1IA1IA112AA1112112I1112IIII
AA1IA1IA1IA112AA1112112I1112IIIIAA1IA1IA1IA112AA1112112I1112IIII
[MLOP] Prefetch Degree Mean: 3.85385
[MLOP] Prefetch Degree SD: 3.31843
[MLOP] Max Score Left Mean (%): 28.4823
[MLOP] Max Score Left SD (%): 18.8381
[MLOP] Max Score Right Mean (%): 60.1059
[MLOP] Max Score Right SD (%): 20.0869

DRAM Statistics
 CHANNEL 0
 RQ ROW_BUFFER_HIT:     576153  ROW_BUFFER_MISS:    1031787
 DBUS_CONGESTED:       1528
 WQ ROW_BUFFER_HIT:     140501  ROW_BUFFER_MISS:     461111  FULL:          0

 AVG_CONGESTED_CYCLE: 5
 All warmup complete: 2
Channel 0 Bank busy for read cycles: 0
Channel 0 Bank busy for write cycles: 0
Channel 0
Rank 0
0banks busy for read cycles: 196611895
0banks busy for write cycles: 176398
1banks busy for read cycles: 58994577
1banks busy for write cycles: 24918444
2banks busy for read cycles: 17957494
2banks busy for write cycles: 9073855
3banks busy for read cycles: 6258919
3banks busy for write cycles: 4564107
4banks busy for read cycles: 3834581
4banks busy for write cycles: 2971849
5banks busy for read cycles: 2802020
5banks busy for write cycles: 2197529
6banks busy for read cycles: 2041686
6banks busy for write cycles: 1684155
7banks busy for read cycles: 1478113
7banks busy for write cycles: 1498357
8banks busy for read cycles: 2291984
8banks busy for write cycles: 3092543

CPU 0 Branch Prediction Accuracy: 99.7678% MPKI: 0.38212 Average ROB Occupancy at Mispredict: 37.4823
Branch types
NOT_BRANCH: 167088784 83.5444%
BRANCH_DIRECT_JUMP: 1340351 0.670175%
BRANCH_INDIRECT: 8225897 4.11295%
BRANCH_CONDITIONAL: 18602253 9.30113%
BRANCH_DIRECT_CALL: 2229321 1.11466%
BRANCH_INDIRECT_CALL: 141641 0.0708205%
BRANCH_RETURN: 2371387 1.18569%
BRANCH_OTHER: 0 0%

DRAM PAGES: 1048576
Allocated PAGES: 17224
