
*** ChampSim Multicore Out-of-Order Simulator ***

Warmup Instructions: 50000000
Simulation Instructions: 200000000
Number of CPUs: 1
LLC sets: 2048
LLC ways: 16
Off-chip DRAM Size: 4096 MB Channels: 1 Width: 64-bit Data Rate: 6400 MT/s
CPU 0 runs traces/spec2k17/server_037.champsimtrace.xz
.xz
BTB has LRU replacement policy
ITLB has LRU replacement policy
DTLB has LRU replacement policy
STLB has LRU replacement policy
L1I has LRU replacement policy
L1D has LRU replacement policy
Initialize SRRIP state for L2C
Initialize DRRIP state for LLC
Heartbeat CPU 0 instructions: 10000002 cycles: 2787145 heartbeat IPC: 3.5879 cumulative IPC: 3.5879 (Simulation time: 0 hr 0 min 32 sec) 
Heartbeat CPU 0 instructions: 20000001 cycles: 5571487 heartbeat IPC: 3.59151 cumulative IPC: 3.58971 (Simulation time: 0 hr 1 min 8 sec) 
Heartbeat CPU 0 instructions: 30000002 cycles: 8359770 heartbeat IPC: 3.58644 cumulative IPC: 3.58862 (Simulation time: 0 hr 1 min 44 sec) 
Heartbeat CPU 0 instructions: 40000001 cycles: 11144329 heartbeat IPC: 3.59123 cumulative IPC: 3.58927 (Simulation time: 0 hr 2 min 20 sec) 
Heartbeat CPU 0 instructions: 50000001 cycles: 13928681 heartbeat IPC: 3.5915 cumulative IPC: 3.58972 (Simulation time: 0 hr 2 min 51 sec) 

Warmup complete CPU 0 instructions: 50000001 cycles: 13928681 (Simulation time: 0 hr 2 min 51 sec) 

Heartbeat CPU 0 instructions: 60000000 cycles: 33982044 heartbeat IPC: 0.498669 cumulative IPC: 0.498669 (Simulation time: 0 hr 3 min 47 sec) 
Heartbeat CPU 0 instructions: 70000001 cycles: 54231224 heartbeat IPC: 0.493847 cumulative IPC: 0.496247 (Simulation time: 0 hr 4 min 33 sec) 
Heartbeat CPU 0 instructions: 80000003 cycles: 74223522 heartbeat IPC: 0.500193 cumulative IPC: 0.497555 (Simulation time: 0 hr 5 min 22 sec) 
Heartbeat CPU 0 instructions: 90000001 cycles: 94250999 heartbeat IPC: 0.499314 cumulative IPC: 0.497994 (Simulation time: 0 hr 6 min 13 sec) 
*** Reached end of trace for Core: 0 Repeating trace: traces/spec2k17/server_037.champsimtrace.xz
Heartbeat CPU 0 instructions: 100000000 cycles: 114351628 heartbeat IPC: 0.497497 cumulative IPC: 0.497894 (Simulation time: 0 hr 7 min 7 sec) 
Heartbeat CPU 0 instructions: 110000000 cycles: 134321232 heartbeat IPC: 0.500761 cumulative IPC: 0.49837 (Simulation time: 0 hr 7 min 59 sec) 
Heartbeat CPU 0 instructions: 120000002 cycles: 154287540 heartbeat IPC: 0.500844 cumulative IPC: 0.498722 (Simulation time: 0 hr 8 min 53 sec) 
Heartbeat CPU 0 instructions: 130000003 cycles: 173808923 heartbeat IPC: 0.512259 cumulative IPC: 0.500375 (Simulation time: 0 hr 9 min 46 sec) 
Heartbeat CPU 0 instructions: 140000000 cycles: 193843826 heartbeat IPC: 0.499129 cumulative IPC: 0.500236 (Simulation time: 0 hr 10 min 46 sec) 
Heartbeat CPU 0 instructions: 150000000 cycles: 213872638 heartbeat IPC: 0.499281 cumulative IPC: 0.50014 (Simulation time: 0 hr 11 min 37 sec) 
Heartbeat CPU 0 instructions: 160000001 cycles: 233817382 heartbeat IPC: 0.501385 cumulative IPC: 0.500253 (Simulation time: 0 hr 12 min 23 sec) 
Heartbeat CPU 0 instructions: 170000000 cycles: 253970036 heartbeat IPC: 0.496213 cumulative IPC: 0.499914 (Simulation time: 0 hr 13 min 15 sec) 
Heartbeat CPU 0 instructions: 180000001 cycles: 273929350 heartbeat IPC: 0.501019 cumulative IPC: 0.499999 (Simulation time: 0 hr 14 min 5 sec) 
Heartbeat CPU 0 instructions: 190000002 cycles: 293919954 heartbeat IPC: 0.500235 cumulative IPC: 0.500016 (Simulation time: 0 hr 15 min 1 sec) 
*** Reached end of trace for Core: 0 Repeating trace: traces/spec2k17/server_037.champsimtrace.xz
Heartbeat CPU 0 instructions: 200000000 cycles: 313979926 heartbeat IPC: 0.498505 cumulative IPC: 0.499915 (Simulation time: 0 hr 15 min 52 sec) 
Heartbeat CPU 0 instructions: 210000000 cycles: 333922357 heartbeat IPC: 0.501443 cumulative IPC: 0.50001 (Simulation time: 0 hr 16 min 43 sec) 
Heartbeat CPU 0 instructions: 220000000 cycles: 353892736 heartbeat IPC: 0.500742 cumulative IPC: 0.500053 (Simulation time: 0 hr 17 min 34 sec) 
Heartbeat CPU 0 instructions: 230000001 cycles: 373417107 heartbeat IPC: 0.51218 cumulative IPC: 0.500712 (Simulation time: 0 hr 18 min 29 sec) 
Heartbeat CPU 0 instructions: 240000000 cycles: 393437921 heartbeat IPC: 0.49948 cumulative IPC: 0.500647 (Simulation time: 0 hr 19 min 26 sec) 
Heartbeat CPU 0 instructions: 250000001 cycles: 413465401 heartbeat IPC: 0.499314 cumulative IPC: 0.50058 (Simulation time: 0 hr 20 min 19 sec) 
Finished CPU 0 instructions: 200000000 cycles: 399536720 cumulative IPC: 0.50058 (Simulation time: 0 hr 20 min 19 sec) 

ChampSim completed all CPUs

Region of Interest Statistics

CPU 0 cumulative IPC: 0.50058 instructions: 200000000 cycles: 399536720
ITLB TOTAL     ACCESS:   35155504  HIT:   32679244  MISS:    2476260  HIT %:    92.9563  MISS %:    7.04373   MPKI: 12.3813
ITLB LOAD TRANSLATION ACCESS:   35155504  HIT:   32679244  MISS:    2476260  HIT %:    92.9563  MISS %:    7.04373   MPKI: 12.3813
ITLB PREFETCH  REQUESTED:          0  ISSUED:          0  USEFUL:          0  USELESS:          0
ITLB USEFUL LOAD PREFETCHES:          0 PREFETCH ISSUED TO LOWER LEVEL:          0  ACCURACY: -nan
ITLB TIMELY PREFETCHES:          0 LATE PREFETCHES: 0 DROPPED PREFETCHES: 0
ITLB PREFETCHES SAME FILL-ORIGIN LEVEL: 0 DIFFERENT FILL-ORIGIN LEVEL: 0
ITLB AVERAGE MISS LATENCY: 9.02999 cycles
ITLB RQ	ACCESS:   41398713	FORWARD:          0	MERGED:    5434448	TO_CACHE:   35964265

DTLB TOTAL     ACCESS:   40009972  HIT:   38004157  MISS:    2005815  HIT %:    94.9867  MISS %:    5.01329   MPKI: 10.0291
DTLB LOAD TRANSLATION ACCESS:   40009972  HIT:   38004157  MISS:    2005815  HIT %:    94.9867  MISS %:    5.01329   MPKI: 10.0291
DTLB PREFETCH  REQUESTED:          0  ISSUED:          0  USEFUL:          0  USELESS:          0
DTLB USEFUL LOAD PREFETCHES:          0 PREFETCH ISSUED TO LOWER LEVEL:          0  ACCURACY: -nan
DTLB TIMELY PREFETCHES:          0 LATE PREFETCHES: 0 DROPPED PREFETCHES: 0
DTLB PREFETCHES SAME FILL-ORIGIN LEVEL: 0 DIFFERENT FILL-ORIGIN LEVEL: 0
DTLB AVERAGE MISS LATENCY: 9.82834 cycles
DTLB RQ	ACCESS:   55785441	FORWARD:          0	MERGED:   15620992	TO_CACHE:   40164449

STLB TOTAL     ACCESS:    5070548  HIT:    5047752  MISS:      22796  HIT %:    99.5504  MISS %:   0.449577   MPKI: 0.11398
STLB LOAD TRANSLATION ACCESS:    4482074  HIT:    4459278  MISS:      22796  HIT %:    99.4914  MISS %:   0.508604   MPKI: 0.11398
STLB TRANSLATION FROM L1D PREFETCHER ACCESS:     588474  HIT:     588474  MISS:          0  HIT %:        100  MISS %:          0   MPKI: 0
STLB PREFETCH  REQUESTED:          0  ISSUED:          0  USEFUL:          0  USELESS:          0
STLB USEFUL LOAD PREFETCHES:          0 PREFETCH ISSUED TO LOWER LEVEL:          0  ACCURACY: -nan
STLB TIMELY PREFETCHES:          0 LATE PREFETCHES: 0 DROPPED PREFETCHES: 0
STLB PREFETCHES SAME FILL-ORIGIN LEVEL: 0 DIFFERENT FILL-ORIGIN LEVEL: 0
STLB AVERAGE MISS LATENCY: 75.206 cycles
STLB RQ	ACCESS:    5608720	FORWARD:          0	MERGED:     538171	TO_CACHE:    5070549

STLB Hit, L1D data hit: 0
STLB Hit, L2C data hit: 0
STLB Hit, LLC data hit: 0
STLB Hit, LLC data miss: 0
STLB STLB hints to L2: 0
L1D TOTAL     ACCESS:   55841907  HIT:   53912163  MISS:    1929744  HIT %:    96.5443  MISS %:    3.45573   MPKI: 9.64872
L1D LOAD      ACCESS:   31277071  HIT:   29950068  MISS:    1327003  HIT %:    95.7573  MISS %:    4.24273   MPKI: 6.63502
L1D RFO       ACCESS:   24170330  HIT:   23942873  MISS:     227457  HIT %:    99.0589  MISS %:   0.941059   MPKI: 1.13729
L1D PREFETCH  ACCESS:     394506  HIT:      19222  MISS:     375284  HIT %:    4.87242  MISS %:    95.1276   MPKI: 1.87642
AGUS PREFETCH L1 MISS: 0
L1D PREFETCH  REQUESTED:    2255608  ISSUED:    2255608  USEFUL:     180038  USELESS:     195223
L1D USEFUL LOAD PREFETCHES:     180038 PREFETCH ISSUED TO LOWER LEVEL:    1081552  ACCURACY: 16.6463
L1D TIMELY PREFETCHES:     180038 LATE PREFETCHES: 2593 DROPPED PREFETCHES: 0
L1D PREFETCHES SAME FILL-ORIGIN LEVEL: 379120 DIFFERENT FILL-ORIGIN LEVEL: 702432
L1D AVERAGE MISS LATENCY: 437093 cycles
L1D RQ	ACCESS:   45841661	FORWARD:          0	MERGED:   14226581	TO_CACHE:   31360456
L1D WQ	ACCESS:   24616487	FORWARD:     254740	MERGED:     191502	TO_CACHE:   24424985
L1D PQ	ACCESS:    1128962	FORWARD:          0	MERGED:       2200	TO_CACHE:    1126646

L1D UNIQUE REGIONS ACCESSED: 0
L1D REGIONS CONFLICTS: 0
L1D Cross Page Prefetch Requests: 0
L1D Same Page Prefetch Requests: 1427713
L1D ROI Sum of L1D PQ occupancy: 14856084
L1D PREFETCHES PUSHED FROM L2C: 0
L1I TOTAL     ACCESS:   37478300  HIT:   22150798  MISS:   15327502  HIT %:     59.103  MISS %:     40.897   MPKI: 76.6375
L1I LOAD      ACCESS:   37478300  HIT:   22150798  MISS:   15327502  HIT %:     59.103  MISS %:     40.897   MPKI: 76.6375
L1I PREFETCH  REQUESTED:          0  ISSUED:          0  USEFUL:          0  USELESS:          0
L1I USEFUL LOAD PREFETCHES:          0 PREFETCH ISSUED TO LOWER LEVEL:          0  ACCURACY: -nan
L1I TIMELY PREFETCHES:          0 LATE PREFETCHES: 0 DROPPED PREFETCHES: 0
L1I PREFETCHES SAME FILL-ORIGIN LEVEL: 0 DIFFERENT FILL-ORIGIN LEVEL: 0
L1I AVERAGE MISS LATENCY: 14.189 cycles
L1I RQ	ACCESS:   62434904	FORWARD:          0	MERGED:   21036191	TO_CACHE:   41398713

BTB TOTAL     ACCESS:   28200156  HIT:   24637368  MISS:    3562788  HIT %:    87.3661  MISS %:    12.6339   MPKI: 17.8139
BTB BRANCH_DIRECT_JUMP	ACCESS:    2065529  HIT:    1955055  MISS:     110474
BTB BRANCH_INDIRECT	ACCESS:   12547706  HIT:   11310984  MISS:    1236722
BTB BRANCH_CONDITIONAL	ACCESS:    4129025  HIT:    4013332  MISS:     115693
BTB BRANCH_DIRECT_CALL	ACCESS:    3836283  HIT:    3585253  MISS:     251030
BTB BRANCH_INDIRECT_CALL	ACCESS:     892681  HIT:     717749  MISS:     174932
BTB BRANCH_RETURN	ACCESS:    4728932  HIT:    3054995  MISS:    1673937
BTB BRANCH_OTHER ACCESS:          0  HIT:          0  MISS:          0

L2C TOTAL     ACCESS:   18887480  HIT:   17673012  MISS:    1214468  HIT %:      93.57  MISS %:    6.43002   MPKI: 6.07234
L2C LOAD      ACCESS:   16651844  HIT:   16189552  MISS:     462292  HIT %:    97.2238  MISS %:    2.77622   MPKI: 2.31146
L2C DATA LOAD MPKI: 2.13222
L2C INSTRUCTION LOAD MPKI: 0.17924
L2C RFO       ACCESS:     226214  HIT:     141275  MISS:      84939  HIT %:    62.4519  MISS %:    37.5481   MPKI: 0.424695
L2C PREFETCH  ACCESS:    1077973  HIT:     450430  MISS:     627543  HIT %:    41.7849  MISS %:    58.2151   MPKI: 3.13772
AGUS PREFETCH L1 MISS: 0
L2C DATA PREFETCH MPKI: 3.13772
L2C INSTRUCTION PREFETCH MPKI: 0
L2C WRITEBACK ACCESS:     899873  HIT:     884108  MISS:      15765  HIT %:    98.2481  MISS %:    1.75191   MPKI: 0.078825
L2C LOAD TRANSLATION ACCESS:      31576  HIT:       7647  MISS:      23929  HIT %:    24.2178  MISS %:    75.7822   MPKI: 0.119645
L2C PREFETCH  REQUESTED:          0  ISSUED:          0  USEFUL:     111753  USELESS:     515785
L2C USEFUL LOAD PREFETCHES:     111753 PREFETCH ISSUED TO LOWER LEVEL:     630524  ACCURACY: 17.7238
L2C TIMELY PREFETCHES:     111753 LATE PREFETCHES: 2981 DROPPED PREFETCHES: 0
L2C PREFETCHES SAME FILL-ORIGIN LEVEL: 438949 DIFFERENT FILL-ORIGIN LEVEL: 0
L2C AVERAGE MISS LATENCY: 55.2662 cycles
L2C RQ	ACCESS:   16909703	FORWARD:          0	MERGED:          0	TO_CACHE:   16909635
L2C WQ	ACCESS:     899873	FORWARD:         68	MERGED:          0	TO_CACHE:     899873
L2C PQ	ACCESS:    1081552	FORWARD:          0	MERGED:          4	TO_CACHE:    1081548

L2C Instructions Evicting Data 33718
L2C Translations Evicting Data 22700
L2C Data Evicting Data 1083414
L2C Instructions Evicting Instructions 1451
L2C Translations Evicting Instructions 658
L2C Data Evicting Instructions 33002
L2C Instructions Evicting Translations 679
L2C Translations Evicting Translations 571
L2C Data Evicting Translations 22510
L2C Dense regions hint from L2: 0
PSCL5 TOTAL     ACCESS:      22796  HIT:      22796  MISS:          0  HIT %:        100  MISS %:          0   MPKI: 0
PSCL5 LOAD TRANSLATION ACCESS:      22796  HIT:      22796  MISS:          0  HIT %:        100  MISS %:          0   MPKI: 0
PSCL5 PREFETCH  REQUESTED:          0  ISSUED:          0  USEFUL:          0  USELESS:          0
PSCL5 USEFUL LOAD PREFETCHES:          0 PREFETCH ISSUED TO LOWER LEVEL:          0  ACCURACY: -nan
PSCL5 TIMELY PREFETCHES:          0 LATE PREFETCHES: 0 DROPPED PREFETCHES: 0
PSCL5 PREFETCHES SAME FILL-ORIGIN LEVEL: 0 DIFFERENT FILL-ORIGIN LEVEL: 0

PSCL4 TOTAL     ACCESS:      22679  HIT:      22659  MISS:         20  HIT %:    99.9118  MISS %:  0.0881873   MPKI: 0.0001
PSCL4 LOAD TRANSLATION ACCESS:      22679  HIT:      22659  MISS:         20  HIT %:    99.9118  MISS %:  0.0881873   MPKI: 0.0001
PSCL4 PREFETCH  REQUESTED:          0  ISSUED:          0  USEFUL:          0  USELESS:          0
PSCL4 USEFUL LOAD PREFETCHES:          0 PREFETCH ISSUED TO LOWER LEVEL:          0  ACCURACY: -nan
PSCL4 TIMELY PREFETCHES:          0 LATE PREFETCHES: 0 DROPPED PREFETCHES: 0
PSCL4 PREFETCHES SAME FILL-ORIGIN LEVEL: 0 DIFFERENT FILL-ORIGIN LEVEL: 0

PSCL3 TOTAL     ACCESS:      22700  HIT:      22575  MISS:        125  HIT %:    99.4493  MISS %:   0.550661   MPKI: 0.000625
PSCL3 LOAD TRANSLATION ACCESS:      22700  HIT:      22575  MISS:        125  HIT %:    99.4493  MISS %:   0.550661   MPKI: 0.000625
PSCL3 PREFETCH  REQUESTED:          0  ISSUED:          0  USEFUL:          0  USELESS:          0
PSCL3 USEFUL LOAD PREFETCHES:          0 PREFETCH ISSUED TO LOWER LEVEL:          0  ACCURACY: -nan
PSCL3 TIMELY PREFETCHES:          0 LATE PREFETCHES: 0 DROPPED PREFETCHES: 0
PSCL3 PREFETCHES SAME FILL-ORIGIN LEVEL: 0 DIFFERENT FILL-ORIGIN LEVEL: 0

PSCL2 TOTAL     ACCESS:      22796  HIT:      14134  MISS:       8662  HIT %:    62.0021  MISS %:    37.9979   MPKI: 0.04331
PSCL2 LOAD TRANSLATION ACCESS:      22796  HIT:      14134  MISS:       8662  HIT %:    62.0021  MISS %:    37.9979   MPKI: 0.04331
PSCL2 PREFETCH  REQUESTED:          0  ISSUED:          0  USEFUL:          0  USELESS:          0
PSCL2 USEFUL LOAD PREFETCHES:          0 PREFETCH ISSUED TO LOWER LEVEL:          0  ACCURACY: -nan
PSCL2 TIMELY PREFETCHES:          0 LATE PREFETCHES: 0 DROPPED PREFETCHES: 0
PSCL2 PREFETCHES SAME FILL-ORIGIN LEVEL: 0 DIFFERENT FILL-ORIGIN LEVEL: 0

LLC TOTAL     ACCESS:    1576515  HIT:    1381064  MISS:     195451  HIT %:    87.6023  MISS %:    12.3977   MPKI: 0.977255
LLC LOAD      ACCESS:     459609  HIT:     406541  MISS:      53068  HIT %:    88.4537  MISS %:    11.5463   MPKI: 0.26534
LLC RFO       ACCESS:      84630  HIT:      66595  MISS:      18035  HIT %:    78.6896  MISS %:    21.3104   MPKI: 0.090175
LLC PREFETCH  ACCESS:     630524  HIT:     509385  MISS:     121139  HIT %:    80.7876  MISS %:    19.2124   MPKI: 0.605695
AGUS PREFETCH L1 MISS: 0
LLC WRITEBACK ACCESS:     377823  HIT:     376298  MISS:       1525  HIT %:    99.5964  MISS %:   0.403628   MPKI: 0.007625
LLC LOAD TRANSLATION ACCESS:      23929  HIT:      22245  MISS:       1684  HIT %:    92.9625  MISS %:    7.03749   MPKI: 0.00842
LLC PREFETCH  REQUESTED:          0  ISSUED:          0  USEFUL:       4047  USELESS:     116917
LLC USEFUL LOAD PREFETCHES:       4047 PREFETCH ISSUED TO LOWER LEVEL:     121139  ACCURACY: 3.34079
LLC TIMELY PREFETCHES:       4047 LATE PREFETCHES: 0 DROPPED PREFETCHES: 0
LLC PREFETCHES SAME FILL-ORIGIN LEVEL: 0 DIFFERENT FILL-ORIGIN LEVEL: 0
LLC AVERAGE MISS LATENCY: 159.805 cycles
LLC RQ	ACCESS:     568179	FORWARD:          0	MERGED:          0	TO_CACHE:     568168
LLC WQ	ACCESS:     377823	FORWARD:         11	MERGED:          0	TO_CACHE:     377823
LLC PQ	ACCESS:     630524	FORWARD:          0	MERGED:          0	TO_CACHE:     630524

LLC Dense regions hint to LLC: 0

RAW hits: 2120656
Loads Generated: 47962317
Loads sent to L1D: 45841661
Stores Generated: 24616492
Stores sent to L1D: 24616487
Major fault: 0 Minor fault: 5878
Allocated PAGES: 5878
=== CPU 0 L1D Prefetcher Statistics ===
[MLOP] History of tracked zone:
IIIIIIIIIIIIIIIIIIIIIIIIIIIIIIIIIIIIIIIIIIIIIIIIIIIIIIIIIIIIIIII
IIIIIIIIIIIIIIIIIIIIIIIIIIIIIIIIIIIIIIIIIIIAIIIIIIIIIIIIIIIIIIII
IIIIIIIIIIIIIIIIIIIIIIIIIIIIIIIIIIIIIIAIIIIAIIIIIIIIIIIIIIIIIIII
IIIIIIIIIIIIIIIIIIIIIIIIIIIIIIIIIIIIIIAIIIAAIIIIIIIIIIIIIIIIIIII
IIIIIIIIIIIIIIIIIIIIIIIIIIIIIIIIIIIIIIAIAIAAIIIIIIIIIIIIIIIIIIII
IIIIIIIIIIIIIIIIIIIIIIIIIIAIIIIIIIIIIIAIAIAAIIIIIIIIIIIIIIIIIIII
IIIIIIIIIIIIIIIIIIIIIIIIIIAIIIIIIIIIIIAIAIAAI2IIIIIIIIIIIIIIIIII
IIIIIIIIIIIIIIIIIIIIIIIIIIAIIIIIIIIIIIAIAIAA22IIIIIIIIIIIIIIIIII
IIIIIIIIIIIIIIIIIIIIIIIIIIAI2IIIIIIIIIAIAIAA22IIIIIIIIIIIIIIIIII
IIIIIIIIIIIIIIIIIIIIIIIIIIAI2IIIIIIIIIA2AIAA22IIIIIIIIIIIIIIIIII
IIIIIIIIIIIIIIIIIIIIIIIIIIAI2IIIII2IIIA2AIAA22IIIIIIIIIIIIIIIIII
IIIIIIIIIIIIIIIIIIIIIIIIIIAI2IIIII2I2IA2AIAA22IIIIIIIIIIIIIIIIII
IIIIIIIIIIIIIIIIIIIIII2IIIAI2IIIII2I2IA2AIAA22IIIIIIIIIIIIIIIIII
IIII2IIIAI2IIIIIIIIIII2IIIAI2IIIII2I2IA2AIAA22IIIIIIIIIIIIIIIIII
IIII2IIIAI2IIIII2IIIAI2IIIAI2IIIII2I2IA2AIAA22IIIIIIIIIIIIIIIIII
IIII22IIAA22IIII2IIIAI2IIIAI2IIIII2I2IA2AIAA22IIIIIIIIIIIIIIIIII
IIII22I2AA2AI2II2IIIAI2IIIAI2IIIII2I2IA2AIAA22IIIIIIIIIIIIIIIIII
IIII2222AAAA22II2IIIAI2IIIAI2IIIII2I2IA2AIAA22IIIIIIIIIIIIIIIIII
IIII2222AAAAA22I2IIIAI2IIIAI2IIIII2I2IA2AIAA22IIIIIIIIIIIIIIIIII
IIII2222AAAAA2AI2IIIAI2IIIAI2IIIII2I2IA2AIAA22IIIIIIIIIIIIIIIIII
IIII2222AAAAA2AI2IIIAI2IIIAI2IIII22I2IA2AIAA22IIIIIIIIIIIIIIIIII
IIII2222AAAAA2AI2IIIAI2IIIAI2III222I2IA2AIAA22IIIIIIIIIIIIIIIIII
IIII2222AAAAA2AI2IIIAI2IIIAI2I2I222I2IA2AIAA22IIIIIIIIIIIIIIIIII
IIII2222AAAAA2AI2IIIAI2IIIAI2I2I222I2IA2AIAA22II2IIIIIIIIIIIIIII
IIII2222AAAAA2AI2IIIAI2IIIAI2I2I222I2IA2AIAA22I22IIIIIIIIIIIIIII
IIII2222AAAAA2AI2IIIAI2IIIAI2I22222I2IA2AIAA22I22IIIIIIIIIIIIIII
IIII2222AAAAA2AI2IIIAI2IIIAI2I22222I2IA2AIAA21I22IIIIIIIIIIIIIII
IIII2222AAAAA2AI2IIIAI2IIIAI2I22222I2IA2AIAA11I22IIIIIIIIIIIIIII
IIII2222AAAAA2AI2IIIAI2IIIAI1I22222I2IA2AIAA11I22IIIIIIIIIIIIIII
IIII2222AAAAA2AI2IIIAI1II2AI1I22222I2IA2AIAA11I22IIIIIIIIIIIIIII
IIII2222AAAAA1AI2IIIAI1II2AI1I22222I2IA2AIAA11I22IIIIIIIIIIIIIII
IIII2222AAAAA1A22IIIAI1II2AI1I22222I2IA2AIAA11I22IIIIIIIIIIIIIII
IIII2222AAAAA1A222IIAI1II2AI1I22222I2IA2AIAA11I22IIIIIIIIIIIIIII
IIII2222AAAAA1A212I2AI1II2AI1I22222I2IA2AIAA11I22IIIIIIIIIIIIIII
IIII2222AAAAA1A212I2AI1II2AI1I22222I2IA2AIAA11I22III2IIIIIIIIIII
IIII2222AAAAA1A212I2AI1II2AI1I22222I2IA2AIAA11I22II22IIIIIIIIIII
IIII2222AAAAA1A212I2AI1II2AI1I22222I2IA2AIAA11I222I22IIIIIIIIIII
IIII2222AAAAA1A212I2AI1II2AI1I2222222IA2AIAA11I222I22IIIIIIIIIII
I2II2222AAAAA1A212I2AI1II2AI1I2222222IA2AIAA11I222I22IIIIIIIIIII
22II2222AAAAA1A212I2AI1II2AI1I2222222IA2AIAA11I222I22IIIIIIIIIII
222I2222AAAAA1A212I2AI1II2AI1I2222222IA2AIAA11I222I22IIIIIIIIIII
222I2222AAAAA1A212I2AI1II2AI1I22222222A2AIAA11I222I22IIIIIIIIIII
222I2222AAAAA1A212I2AI1II2AI1I22222222A2A2AA11I222I22IIIIIIIIIII
222I2222AAAAA1A21222AI1II2AI1I22222222A2A2AA11I222I22IIIIIIIIIII
22222222AAAAA1A21222AI1II2AI1I22222222A2A2AA11I222I22IIIIIIIIIII
22222222AAAAA1A21222AI1II2AI1I22222222A2A2AA11I222I222IIIIIIIIII
22222222AAAAA1A21222AI1II2AI1I22222222A2A2AA11I222I2222I2IIIIIII
22222222AAAAA1A21222AI1II2AI1I22222222A2A2AA11I222I222222IIIIIII
22222222AAAAA1A21222AI12I2AI1I22222222A2A2AA11I222I222222IIIIIII
22222222AAAAA1A21222AI12I2AI1222222222A2A2AA11I222I222222IIIIIII
22222222AAAAA1A21222AI12I2AI1222222222A2A2AA11I222I222222II2IIII
22222222AAAAA1A21222AI12I2AI1222222222A2A2AA11I222I222222I22IIII
22222222AAAAA1A21222AI12I2AI1222222222A2A2AA112222I222222I22IIII
22222222AAAAA1A21222A212I2AI1222222222A2A2AA112222I222222I22IIII
22222222AAAAA1A21222A21222AI1222222222A2A2AA112222I222222I22IIII
22222222AAAAA1A21222A21222A21222222222A2A2AA112222I222222I22IIII
22222222AAAAA1A21222A21A22A21222222222A2A2AA112222I222222I22IIII
22222222AAAAA1A21222AA1A22A21222222222A2A2AA112222I222222I22IIII
22222222AAAAA1A21222AA1AA2A21222222222A2A2AA112222I222222I22IIII
22222222AAAAA1A21222AA1AA2A21A22222222A2A2AA112222I222222I22IIII
22222222AAAAA1A21222AA1AA2AA1A22222222A2A2AA112222I222222I22IIII
22222222AAAAA1A21222AA1AA2AA1AA2222222A2A2AA112222I222222I22IIII
22222222AAAAAAA21222AA1AA2AA1AA2222222A2A2AA112222I222222I22IIII
2222222AAAAAAAA21222AA1AA2AA1AA2222222A2A2AA112222I222222I22IIII
2222222AAAAAAAA21222AA1AA2AA1AA2222222A2A2AA112222I221221I22IIII
2222222AAAAAAAA21222AA1AA2AA1AA2222222A2A2AA112222I121121I22IIII
2222222AAAAAAAA21222AA1AA2AA1AA2222222A2A2AA112212I121121I21IIII
2222222AAAAAAAA21222AA1AA2AA1AA2222222A2A2AA112112I121111I11IIII
2222222AAAAAAAA21222AA1AA2AA1AA1222222A1A2AA112112I121111I11IIII
2222222AAAAAAAA21222AA1AA1AA1AA1212212A1A2AA112112I121111I11IIII
2222222AAAAAAAA11222AA1AA1AA1AA1212212A1A2AA112112I121111I11IIII
2222222AAAAAAAA11122AA1AA1AA1AA1212212A1A2AA112112I121111I11IIII
2222222AAAAAAAA11121AA1AA1AA1AA1212212A1A2AA112112I121111I11IIII
2222222AAAAAAAA11121AA1AA1AA1AA1212212A1A2AA1121122121111I11IIII
2222222AAAAAAAA111A1AA1AA1AA1AA1212212A1A2AA1121122121111I11IIII
2222222AAAAAAAA111A1AA1AA1AA1AA1212212A1A1AA1121122121111I11IIII
2222222AAAAAAAA111A1AA1AA1AA1AA1212212A1A1AA1111122121111I11IIII
2222222AAAAAAAA111A1AAAAA1AA1AA1212212A1A1AA1111122121111I11IIII
2222222AAAAAAAA111A1AAAAAAAA1AA1212212A1A1AA1111122121111I11IIII
2222222AAAAAAAA111A1AAAAAAAA1AA1212212A1A1AA1111112121111I11IIII
2222222AAAAAAAA111A1AAAAAAAA1AA1112212A1A1AA1111112121111I11IIII
2222222AAAAAAAA111A1AAAAAAAA1AA1112212A1A1AA1111111121111I11IIII
2222222AAAAAAAA111A1AAAAAAAA1AA1111212A1A1AA1111111121111I11IIII
2222222AAAAAAAA111A1AAAAAAAA1AA1111212A1A1AA1111111111111I11IIII
2222222AAAAAAAA111A1AAAAAAAA1AA1111212A1A1AA1111111111111211IIII
2222222AAAAAAAA111A1AAAAAAAA1AA1111212A1A1AA1111111111111211I2II
2222222AAAAAAAA111A1AAAAAAAA1AA1111212A1A1AA111111111111121122II
2222222AAAAAAAA111A1AAAAAAAA1AA1111211A1A1AA111111111111121122II
2222222AAAAAAAA111A1AAAAAAAA1AA1111211A1A1AA1111111111111211222I
[MLOP] Prefetch Degree Mean: 2.11875
[MLOP] Prefetch Degree SD: 1.33083
[MLOP] Max Score Left Mean (%): 23.3421
[MLOP] Max Score Left SD (%): 4.06731
[MLOP] Max Score Right Mean (%): 37.8633
[MLOP] Max Score Right SD (%): 6.25381

DRAM Statistics
 CHANNEL 0
 RQ ROW_BUFFER_HIT:      47976  ROW_BUFFER_MISS:     145950
 DBUS_CONGESTED:         87
 WQ ROW_BUFFER_HIT:       4686  ROW_BUFFER_MISS:      37755  FULL:          0

 AVG_CONGESTED_CYCLE: 4
 All warmup complete: 2
Channel 0 Bank busy for read cycles: 0
Channel 0 Bank busy for write cycles: 0
Channel 0
Rank 0
0banks busy for read cycles: 381828578
0banks busy for write cycles: 27634
1banks busy for read cycles: 6542055
1banks busy for write cycles: 3771481
2banks busy for read cycles: 2665136
2banks busy for write cycles: 951796
3banks busy for read cycles: 1678951
3banks busy for write cycles: 291771
4banks busy for read cycles: 1194666
4banks busy for write cycles: 90517
5banks busy for read cycles: 212300
5banks busy for write cycles: 33305
6banks busy for read cycles: 103751
6banks busy for write cycles: 10795
7banks busy for read cycles: 59567
7banks busy for write cycles: 6116
8banks busy for read cycles: 62942
8banks busy for write cycles: 5360

CPU 0 Branch Prediction Accuracy: 99.974% MPKI: 0.044765 Average ROB Occupancy at Mispredict: 23.143
Branch types
NOT_BRANCH: 165600942 82.8005%
BRANCH_DIRECT_JUMP: 2065529 1.03276%
BRANCH_INDIRECT: 12547706 6.27385%
BRANCH_CONDITIONAL: 10327907 5.16395%
BRANCH_DIRECT_CALL: 3836283 1.91814%
BRANCH_INDIRECT_CALL: 892681 0.44634%
BRANCH_RETURN: 4728932 2.36447%
BRANCH_OTHER: 0 0%

DRAM PAGES: 1048576
Allocated PAGES: 5878
