
*** ChampSim Multicore Out-of-Order Simulator ***

Warmup Instructions: 50000000
Simulation Instructions: 200000000
Number of CPUs: 1
LLC sets: 2048
LLC ways: 16
Off-chip DRAM Size: 4096 MB Channels: 1 Width: 64-bit Data Rate: 6400 MT/s
CPU 0 runs traces/spec2k17/srv_40.champsimtrace.xz
.xz
BTB has LRU replacement policy
ITLB has LRU replacement policy
DTLB has LRU replacement policy
STLB has LRU replacement policy
L1I has LRU replacement policy
L1D has LRU replacement policy
Initialize SRRIP state for L2C
Initialize DRRIP state for LLC
Heartbeat CPU 0 instructions: 10000001 cycles: 2805122 heartbeat IPC: 3.56491 cumulative IPC: 3.56491 (Simulation time: 0 hr 0 min 40 sec) 
Heartbeat CPU 0 instructions: 20000003 cycles: 5827333 heartbeat IPC: 3.30884 cumulative IPC: 3.4321 (Simulation time: 0 hr 1 min 24 sec) 
Heartbeat CPU 0 instructions: 30000002 cycles: 8858963 heartbeat IPC: 3.29856 cumulative IPC: 3.3864 (Simulation time: 0 hr 2 min 12 sec) 
*** Reached end of trace for Core: 0 Repeating trace: traces/spec2k17/srv_40.champsimtrace.xz
Heartbeat CPU 0 instructions: 40000000 cycles: 11671721 heartbeat IPC: 3.55523 cumulative IPC: 3.42709 (Simulation time: 0 hr 2 min 53 sec) 
Heartbeat CPU 0 instructions: 50000003 cycles: 14687683 heartbeat IPC: 3.31569 cumulative IPC: 3.40421 (Simulation time: 0 hr 3 min 38 sec) 

Warmup complete CPU 0 instructions: 50000003 cycles: 14687683 (Simulation time: 0 hr 3 min 38 sec) 

Heartbeat CPU 0 instructions: 60000000 cycles: 28188438 heartbeat IPC: 0.740699 cumulative IPC: 0.740699 (Simulation time: 0 hr 4 min 25 sec) 
*** Reached end of trace for Core: 0 Repeating trace: traces/spec2k17/srv_40.champsimtrace.xz
Heartbeat CPU 0 instructions: 70000003 cycles: 44099993 heartbeat IPC: 0.628474 cumulative IPC: 0.679987 (Simulation time: 0 hr 5 min 12 sec) 
Heartbeat CPU 0 instructions: 80000001 cycles: 59046766 heartbeat IPC: 0.669041 cumulative IPC: 0.676299 (Simulation time: 0 hr 6 min 1 sec) 
Heartbeat CPU 0 instructions: 90000001 cycles: 72521549 heartbeat IPC: 0.742127 cumulative IPC: 0.691636 (Simulation time: 0 hr 6 min 53 sec) 
*** Reached end of trace for Core: 0 Repeating trace: traces/spec2k17/srv_40.champsimtrace.xz
Heartbeat CPU 0 instructions: 100000002 cycles: 88544257 heartbeat IPC: 0.624114 cumulative IPC: 0.676988 (Simulation time: 0 hr 7 min 44 sec) 
Heartbeat CPU 0 instructions: 110000000 cycles: 103276517 heartbeat IPC: 0.678782 cumulative IPC: 0.677286 (Simulation time: 0 hr 8 min 28 sec) 
Heartbeat CPU 0 instructions: 120000001 cycles: 116767605 heartbeat IPC: 0.74123 cumulative IPC: 0.685737 (Simulation time: 0 hr 9 min 17 sec) 
*** Reached end of trace for Core: 0 Repeating trace: traces/spec2k17/srv_40.champsimtrace.xz
Heartbeat CPU 0 instructions: 130000003 cycles: 132915311 heartbeat IPC: 0.619283 cumulative IPC: 0.676661 (Simulation time: 0 hr 10 min 5 sec) 
Heartbeat CPU 0 instructions: 140000003 cycles: 147542099 heartbeat IPC: 0.683677 cumulative IPC: 0.677433 (Simulation time: 0 hr 10 min 50 sec) 
Heartbeat CPU 0 instructions: 150000000 cycles: 160998267 heartbeat IPC: 0.743153 cumulative IPC: 0.683478 (Simulation time: 0 hr 11 min 33 sec) 
*** Reached end of trace for Core: 0 Repeating trace: traces/spec2k17/srv_40.champsimtrace.xz
Heartbeat CPU 0 instructions: 160000001 cycles: 177250718 heartbeat IPC: 0.615292 cumulative IPC: 0.676661 (Simulation time: 0 hr 12 min 25 sec) 
Heartbeat CPU 0 instructions: 170000000 cycles: 191775986 heartbeat IPC: 0.688455 cumulative IPC: 0.677628 (Simulation time: 0 hr 13 min 17 sec) 
Heartbeat CPU 0 instructions: 180000003 cycles: 205237863 heartbeat IPC: 0.742839 cumulative IPC: 0.682235 (Simulation time: 0 hr 14 min 6 sec) 
*** Reached end of trace for Core: 0 Repeating trace: traces/spec2k17/srv_40.champsimtrace.xz
Heartbeat CPU 0 instructions: 190000001 cycles: 221643825 heartbeat IPC: 0.609534 cumulative IPC: 0.676472 (Simulation time: 0 hr 14 min 53 sec) 
Heartbeat CPU 0 instructions: 200000002 cycles: 236015779 heartbeat IPC: 0.6958 cumulative IPC: 0.677727 (Simulation time: 0 hr 15 min 40 sec) 
Heartbeat CPU 0 instructions: 210000000 cycles: 249489447 heartbeat IPC: 0.742188 cumulative IPC: 0.681426 (Simulation time: 0 hr 16 min 29 sec) 
*** Reached end of trace for Core: 0 Repeating trace: traces/spec2k17/srv_40.champsimtrace.xz
Heartbeat CPU 0 instructions: 220000000 cycles: 266051698 heartbeat IPC: 0.603783 cumulative IPC: 0.67631 (Simulation time: 0 hr 17 min 19 sec) 
Heartbeat CPU 0 instructions: 230000000 cycles: 280283548 heartbeat IPC: 0.702649 cumulative IPC: 0.677721 (Simulation time: 0 hr 18 min 5 sec) 
Heartbeat CPU 0 instructions: 240000000 cycles: 293742602 heartbeat IPC: 0.742994 cumulative IPC: 0.68087 (Simulation time: 0 hr 18 min 54 sec) 
*** Reached end of trace for Core: 0 Repeating trace: traces/spec2k17/srv_40.champsimtrace.xz
Heartbeat CPU 0 instructions: 250000003 cycles: 310066922 heartbeat IPC: 0.612583 cumulative IPC: 0.677096 (Simulation time: 0 hr 19 min 41 sec) 
Finished CPU 0 instructions: 200000000 cycles: 295379239 cumulative IPC: 0.677096 (Simulation time: 0 hr 19 min 41 sec) 

ChampSim completed all CPUs

Region of Interest Statistics

CPU 0 cumulative IPC: 0.677096 instructions: 200000000 cycles: 295379239
ITLB TOTAL     ACCESS:   29008220  HIT:   28742729  MISS:     265491  HIT %:    99.0848  MISS %:   0.915227   MPKI: 1.32746
ITLB LOAD TRANSLATION ACCESS:   29008220  HIT:   28742729  MISS:     265491  HIT %:    99.0848  MISS %:   0.915227   MPKI: 1.32746
ITLB PREFETCH  REQUESTED:          0  ISSUED:          0  USEFUL:          0  USELESS:          0
ITLB USEFUL LOAD PREFETCHES:          0 PREFETCH ISSUED TO LOWER LEVEL:          0  ACCURACY: -nan
ITLB TIMELY PREFETCHES:          0 LATE PREFETCHES: 0 DROPPED PREFETCHES: 0
ITLB PREFETCHES SAME FILL-ORIGIN LEVEL: 0 DIFFERENT FILL-ORIGIN LEVEL: 0
ITLB AVERAGE MISS LATENCY: 11.6518 cycles
ITLB RQ	ACCESS:   37739747	FORWARD:          0	MERGED:    8637588	TO_CACHE:   29102159

DTLB TOTAL     ACCESS:   36826620  HIT:   36512104  MISS:     314516  HIT %:     99.146  MISS %:   0.854045   MPKI: 1.57258
DTLB LOAD TRANSLATION ACCESS:   36826620  HIT:   36512104  MISS:     314516  HIT %:     99.146  MISS %:   0.854045   MPKI: 1.57258
DTLB PREFETCH  REQUESTED:          0  ISSUED:          0  USEFUL:          0  USELESS:          0
DTLB USEFUL LOAD PREFETCHES:          0 PREFETCH ISSUED TO LOWER LEVEL:          0  ACCURACY: -nan
DTLB TIMELY PREFETCHES:          0 LATE PREFETCHES: 0 DROPPED PREFETCHES: 0
DTLB PREFETCHES SAME FILL-ORIGIN LEVEL: 0 DIFFERENT FILL-ORIGIN LEVEL: 0
DTLB AVERAGE MISS LATENCY: 23.1681 cycles
DTLB RQ	ACCESS:   55018724	FORWARD:          0	MERGED:   18065890	TO_CACHE:   36952834

STLB TOTAL     ACCESS:    1149568  HIT:    1101803  MISS:      47765  HIT %:     95.845  MISS %:    4.15504   MPKI: 0.238825
STLB LOAD TRANSLATION ACCESS:     580007  HIT:     532245  MISS:      47762  HIT %:    91.7653  MISS %:    8.23473   MPKI: 0.23881
STLB TRANSLATION FROM L1D PREFETCHER ACCESS:     569561  HIT:     569558  MISS:          3  HIT %:    99.9995  MISS %: 0.000526721   MPKI: 1.5e-05
STLB PREFETCH  REQUESTED:          0  ISSUED:          0  USEFUL:          3  USELESS:          0
STLB USEFUL LOAD PREFETCHES:          3 PREFETCH ISSUED TO LOWER LEVEL:          0  ACCURACY: inf
STLB TIMELY PREFETCHES:          3 LATE PREFETCHES: 0 DROPPED PREFETCHES: 0
STLB PREFETCHES SAME FILL-ORIGIN LEVEL: 0 DIFFERENT FILL-ORIGIN LEVEL: 0
STLB AVERAGE MISS LATENCY: 107.884 cycles
STLB RQ	ACCESS:    1759499	FORWARD:          0	MERGED:     609931	TO_CACHE:    1149568

STLB Hit, L1D data hit: 0
STLB Hit, L2C data hit: 0
STLB Hit, LLC data hit: 0
STLB Hit, LLC data miss: 0
STLB STLB hints to L2: 0
L1D TOTAL     ACCESS:   52507552  HIT:   49887116  MISS:    2620436  HIT %:    95.0094  MISS %:    4.99059   MPKI: 13.1022
L1D LOAD      ACCESS:   43040910  HIT:   41964944  MISS:    1075966  HIT %:    97.5001  MISS %:    2.49987   MPKI: 5.37983
L1D RFO       ACCESS:    8580529  HIT:    7476294  MISS:    1104235  HIT %:    87.1309  MISS %:    12.8691   MPKI: 5.52118
L1D PREFETCH  ACCESS:     886113  HIT:     445878  MISS:     440235  HIT %:    50.3184  MISS %:    49.6816   MPKI: 2.20118
AGUS PREFETCH L1 MISS: 0
L1D PREFETCH  REQUESTED:    2360132  ISSUED:    2360132  USEFUL:     229044  USELESS:     210785
L1D USEFUL LOAD PREFETCHES:     229044 PREFETCH ISSUED TO LOWER LEVEL:     699121  ACCURACY: 32.7617
L1D TIMELY PREFETCHES:     229044 LATE PREFETCHES: 192685 DROPPED PREFETCHES: 0
L1D PREFETCHES SAME FILL-ORIGIN LEVEL: 633613 DIFFERENT FILL-ORIGIN LEVEL: 65508
L1D AVERAGE MISS LATENCY: 1.18355e+07 cycles
L1D RQ	ACCESS:   49923182	FORWARD:          0	MERGED:    6708427	TO_CACHE:   43095732
L1D WQ	ACCESS:   12021205	FORWARD:     119043	MERGED:      98213	TO_CACHE:   11922992
L1D PQ	ACCESS:    1180640	FORWARD:          0	MERGED:       1128	TO_CACHE:    1179492

L1D UNIQUE REGIONS ACCESSED: 0
L1D REGIONS CONFLICTS: 0
L1D Cross Page Prefetch Requests: 0
L1D Same Page Prefetch Requests: 1601514
L1D ROI Sum of L1D PQ occupancy: 21027156
L1D PREFETCHES PUSHED FROM L2C: 0
L1I TOTAL     ACCESS:   37398451  HIT:   36130028  MISS:    1268423  HIT %:    96.6084  MISS %:    3.39165   MPKI: 6.34211
L1I LOAD      ACCESS:   37398451  HIT:   36130028  MISS:    1268423  HIT %:    96.6084  MISS %:    3.39165   MPKI: 6.34211
L1I PREFETCH  REQUESTED:          0  ISSUED:          0  USEFUL:          0  USELESS:          0
L1I USEFUL LOAD PREFETCHES:          0 PREFETCH ISSUED TO LOWER LEVEL:          0  ACCURACY: -nan
L1I TIMELY PREFETCHES:          0 LATE PREFETCHES: 0 DROPPED PREFETCHES: 0
L1I PREFETCHES SAME FILL-ORIGIN LEVEL: 0 DIFFERENT FILL-ORIGIN LEVEL: 0
L1I AVERAGE MISS LATENCY: 28.3357 cycles
L1I RQ	ACCESS:   53140942	FORWARD:          0	MERGED:   15401195	TO_CACHE:   37739747

BTB TOTAL     ACCESS:   13141774  HIT:   12087725  MISS:    1054049  HIT %:    91.9794  MISS %:     8.0206   MPKI: 5.27025
BTB BRANCH_DIRECT_JUMP	ACCESS:    1417007  HIT:    1361695  MISS:      55312
BTB BRANCH_INDIRECT	ACCESS:    4725365  HIT:    4385102  MISS:     340263
BTB BRANCH_CONDITIONAL	ACCESS:    4838896  HIT:    4776121  MISS:      62775
BTB BRANCH_DIRECT_CALL	ACCESS:     958452  HIT:     856613  MISS:     101839
BTB BRANCH_INDIRECT_CALL	ACCESS:     121813  HIT:      97196  MISS:      24617
BTB BRANCH_RETURN	ACCESS:    1080241  HIT:     610998  MISS:     469243
BTB BRANCH_OTHER ACCESS:          0  HIT:          0  MISS:          0

L2C TOTAL     ACCESS:    5318208  HIT:    3205262  MISS:    2112946  HIT %:    60.2696  MISS %:    39.7304   MPKI: 10.5647
L2C LOAD      ACCESS:    2151692  HIT:    1694226  MISS:     457466  HIT %:    78.7392  MISS %:    21.2608   MPKI: 2.28733
L2C DATA LOAD MPKI: 0.961035
L2C INSTRUCTION LOAD MPKI: 1.3263
L2C RFO       ACCESS:    1103504  HIT:     143687  MISS:     959817  HIT %:     13.021  MISS %:     86.979   MPKI: 4.79908
L2C PREFETCH  ACCESS:     696480  HIT:      37393  MISS:     659087  HIT %:    5.36885  MISS %:    94.6311   MPKI: 3.29543
AGUS PREFETCH L1 MISS: 0
L2C DATA PREFETCH MPKI: 3.29543
L2C INSTRUCTION PREFETCH MPKI: 0
L2C WRITEBACK ACCESS:    1306243  HIT:    1293531  MISS:      12712  HIT %:    99.0268  MISS %:   0.973173   MPKI: 0.06356
L2C LOAD TRANSLATION ACCESS:      60282  HIT:      36423  MISS:      23859  HIT %:     60.421  MISS %:     39.579   MPKI: 0.119295
L2C TRANSLATION FROM L1D PREFETCHER ACCESS:          7  HIT:          2  MISS:          5  HIT %:    28.5714  MISS %:    71.4286   MPKI: 2.5e-05
L2C PREFETCH  REQUESTED:          0  ISSUED:          0  USEFUL:      46292  USELESS:     611510
L2C USEFUL LOAD PREFETCHES:      46292 PREFETCH ISSUED TO LOWER LEVEL:     660725  ACCURACY: 7.00624
L2C TIMELY PREFETCHES:      46292 LATE PREFETCHES: 1637 DROPPED PREFETCHES: 0
L2C PREFETCHES SAME FILL-ORIGIN LEVEL: 61112 DIFFERENT FILL-ORIGIN LEVEL: 0
L2C AVERAGE MISS LATENCY: 264.602 cycles
L2C RQ	ACCESS:    3315535	FORWARD:          0	MERGED:          0	TO_CACHE:    3315485
L2C WQ	ACCESS:    1306243	FORWARD:         51	MERGED:          0	TO_CACHE:    1306243
L2C PQ	ACCESS:     699121	FORWARD:          0	MERGED:         10	TO_CACHE:     699110

L2C Instructions Evicting Data 161448
L2C Translations Evicting Data 17407
L2C Data Evicting Data 1637240
L2C Instructions Evicting Instructions 97259
L2C Translations Evicting Instructions 5925
L2C Data Evicting Instructions 157453
L2C Instructions Evicting Translations 6552
L2C Translations Evicting Translations 532
L2C Data Evicting Translations 16418
L2C Dense regions hint from L2: 0
PSCL5 TOTAL     ACCESS:      47765  HIT:      47765  MISS:          0  HIT %:        100  MISS %:          0   MPKI: 0
PSCL5 LOAD TRANSLATION ACCESS:      47762  HIT:      47762  MISS:          0  HIT %:        100  MISS %:          0   MPKI: 0
PSCL5 TRANSLATION FROM L1D PREFETCHER ACCESS:          3  HIT:          3  MISS:          0  HIT %:        100  MISS %:          0   MPKI: 0
PSCL5 PREFETCH  REQUESTED:          0  ISSUED:          0  USEFUL:          0  USELESS:          0
PSCL5 USEFUL LOAD PREFETCHES:          0 PREFETCH ISSUED TO LOWER LEVEL:          0  ACCURACY: -nan
PSCL5 TIMELY PREFETCHES:          0 LATE PREFETCHES: 0 DROPPED PREFETCHES: 0
PSCL5 PREFETCHES SAME FILL-ORIGIN LEVEL: 0 DIFFERENT FILL-ORIGIN LEVEL: 0

PSCL4 TOTAL     ACCESS:      47510  HIT:      47385  MISS:        125  HIT %:    99.7369  MISS %:   0.263103   MPKI: 0.000625
PSCL4 LOAD TRANSLATION ACCESS:      47507  HIT:      47382  MISS:        125  HIT %:    99.7369  MISS %:   0.263119   MPKI: 0.000625
PSCL4 TRANSLATION FROM L1D PREFETCHER ACCESS:          3  HIT:          3  MISS:          0  HIT %:        100  MISS %:          0   MPKI: 0
PSCL4 PREFETCH  REQUESTED:          0  ISSUED:          0  USEFUL:          0  USELESS:          0
PSCL4 USEFUL LOAD PREFETCHES:          0 PREFETCH ISSUED TO LOWER LEVEL:          0  ACCURACY: -nan
PSCL4 TIMELY PREFETCHES:          0 LATE PREFETCHES: 0 DROPPED PREFETCHES: 0
PSCL4 PREFETCHES SAME FILL-ORIGIN LEVEL: 0 DIFFERENT FILL-ORIGIN LEVEL: 0

PSCL3 TOTAL     ACCESS:      39885  HIT:      36555  MISS:       3330  HIT %:     91.651  MISS %:      8.349   MPKI: 0.01665
PSCL3 LOAD TRANSLATION ACCESS:      39883  HIT:      36553  MISS:       3330  HIT %:    91.6506  MISS %:    8.34942   MPKI: 0.01665
PSCL3 TRANSLATION FROM L1D PREFETCHER ACCESS:          2  HIT:          2  MISS:          0  HIT %:        100  MISS %:          0   MPKI: 0
PSCL3 PREFETCH  REQUESTED:          0  ISSUED:          0  USEFUL:          0  USELESS:          0
PSCL3 USEFUL LOAD PREFETCHES:          0 PREFETCH ISSUED TO LOWER LEVEL:          0  ACCURACY: -nan
PSCL3 TIMELY PREFETCHES:          0 LATE PREFETCHES: 0 DROPPED PREFETCHES: 0
PSCL3 PREFETCHES SAME FILL-ORIGIN LEVEL: 0 DIFFERENT FILL-ORIGIN LEVEL: 0

PSCL2 TOTAL     ACCESS:      47765  HIT:      38696  MISS:       9069  HIT %:    81.0133  MISS %:    18.9867   MPKI: 0.045345
PSCL2 LOAD TRANSLATION ACCESS:      47765  HIT:      38696  MISS:       9069  HIT %:    81.0133  MISS %:    18.9867   MPKI: 0.045345
PSCL2 PREFETCH  REQUESTED:          0  ISSUED:          0  USEFUL:          0  USELESS:          0
PSCL2 USEFUL LOAD PREFETCHES:          0 PREFETCH ISSUED TO LOWER LEVEL:          0  ACCURACY: -nan
PSCL2 TIMELY PREFETCHES:          0 LATE PREFETCHES: 0 DROPPED PREFETCHES: 0
PSCL2 PREFETCHES SAME FILL-ORIGIN LEVEL: 0 DIFFERENT FILL-ORIGIN LEVEL: 0

LLC TOTAL     ACCESS:    3142198  HIT:    1388498  MISS:    1753700  HIT %:    44.1887  MISS %:    55.8113   MPKI: 8.7685
LLC LOAD      ACCESS:     456021  HIT:     266499  MISS:     189522  HIT %:    58.4401  MISS %:    41.5599   MPKI: 0.94761
LLC RFO       ACCESS:     959625  HIT:      16390  MISS:     943235  HIT %:    1.70796  MISS %:     98.292   MPKI: 4.71617
LLC PREFETCH  ACCESS:     660724  HIT:      78718  MISS:     582006  HIT %:    11.9139  MISS %:    88.0861   MPKI: 2.91003
AGUS PREFETCH L1 MISS: 0
LLC WRITEBACK ACCESS:    1041964  HIT:    1018103  MISS:      23861  HIT %:      97.71  MISS %:       2.29   MPKI: 0.119305
LLC LOAD TRANSLATION ACCESS:      23859  HIT:       8787  MISS:      15072  HIT %:    36.8289  MISS %:    63.1711   MPKI: 0.07536
LLC TRANSLATION FROM L1D PREFETCHER ACCESS:          5  HIT:          1  MISS:          4  HIT %:         20  MISS %:         80   MPKI: 2e-05
LLC PREFETCH  REQUESTED:          0  ISSUED:          0  USEFUL:      14290  USELESS:     563798
LLC USEFUL LOAD PREFETCHES:      14290 PREFETCH ISSUED TO LOWER LEVEL:     582007  ACCURACY: 2.4553
LLC TIMELY PREFETCHES:      14290 LATE PREFETCHES: 0 DROPPED PREFETCHES: 0
LLC PREFETCHES SAME FILL-ORIGIN LEVEL: 0 DIFFERENT FILL-ORIGIN LEVEL: 0
LLC AVERAGE MISS LATENCY: 282.943 cycles
LLC RQ	ACCESS:    1439510	FORWARD:          0	MERGED:          0	TO_CACHE:    1439510
LLC WQ	ACCESS:    1041964	FORWARD:          0	MERGED:          0	TO_CACHE:    1041964
LLC PQ	ACCESS:     660725	FORWARD:          0	MERGED:          0	TO_CACHE:     660725

LLC Dense regions hint to LLC: 0

RAW hits: 875275
Loads Generated: 50798456
Loads sent to L1D: 49923182
Stores Generated: 12021210
Stores sent to L1D: 12021205
Major fault: 0 Minor fault: 6461
Allocated PAGES: 6461
=== CPU 0 L1D Prefetcher Statistics ===
[MLOP] History of tracked zone:
IIIIIIIIIIIIIIIIIIIIIIIIIIIIIIIIIIIIIIIIIIIIIIIIIIIIIIIIIIIIIIII
IIIIIIIIIIIIIIIIIIIIIIIIIIIAIIIIIIIIIIIIIIIIIIIIIIIIIIIIIIIIIIII
IIIIIIIIIIIA1IIIIIIIIIIIIIIAIIIIIIIIIIIIIIIIIIIIIIIIIIIIIIIIIIII
IIIIIIIIIIIA1IIIIIIIIIIIIIIA1IIIIIIIIIIIIIIIIIIIIIIIIIIIIIIIIIII
IIIIIIIIIIIA1II2IIIIIIIIIIIA1IIIIIIIIIIIIIIIIIIIIIIIIIIIIIIIIIII
IIIIIIIIIIIA1II2IIIIIIIIIIIA1II2IIIIIIIIIIIIIIIIIIIIIIIIIIIIIIII
IIIIIIIIIIIA1II2IIIIIIIIIIIA12I2IIIIIIIIIIIIIIIIIIIIIIIIIIIIIIII
IIIIIIIIIIIA111111I11111I1IA12I2IIIIIIIIIIIIIIIIIIIIIIIIIIIIIIII
IIIIIIIIIIIA111111I11111I1IA111111I1111IIIIIIIIIIIIIIIIIIIIIIIII
IIIIIIIIIIIA111111I11111I1IA111111I11111I1IIIIIIIIIIIIIIIIIIIIII
IIIIIIIIIIIIIIIIIIIIIIIIIIIA122IIIIIIIIIIIIIIIIIIIIIIIIIIIIIIIII
IIIIIIIIIIIA1111111IIIIIIIIA122IIIIIIIIIIIIIIIIIIIIIIIIIIIIIIIII
IIIIIIIIIIIA1111111IIIIIIIIA1111111IIIIIIIIIIIIIIIIIIIIIIIIIIIII
IIIIIIIIIIIIIIIIIIIIIIIIIIIA1112IIIIIII2IIIII2IIIIIIIIIIIIIIIIII
IIIIIIIIIIIA2IIIIIIIIIIIIIIA1112IIIIIII2IIIII2IIIIIIIIIIIIIIIIII
IIIIIIIIIIIA1IIIIIIIIIIIIIIA1112IIIIIII2IIIII2IIIIIIIIIIIIIIIIII
IIIIIIIIIIIA11III111222222IA1112IIIIIII2IIIII2IIIIIIIIIIIIIIIIII
IIIIIIIIIIIA11III111222222IA1112I111222222III21IIIIIIIIIIIIIIIII
IIIIIIIIIIIIIIIIIIIIIIIIIIIA1IIIIIIIIIIIIIIIIIIIIIIIIIIIIIIIIIII
IIIIIIIIIIIA122IIIIIIIIIIIIA1IIIIIIIIIIIIIIIIIIIIIIIIIIIIIIIIIII
IIIIIIIIIIIA122IIIIIIIIIIIIA122IIIIIIIIIIIIIIIIIIIIIIIIIIIIIIIII
IIIIIIIIIIIIIIIIIIIIIIIIIIIA1I11111I11IIIIIIIIIIIIIIIIIIIIIIIIII
IIIIIIIIIIIIIIIIIIIIIIIIIIIA1I11111I111111111IIIIIIIIIIIIIIIIIII
IIIIIIIIIIIAI1111111111I111A1I11111I111111111IIIIIIIIIIIIIIIIIII
IIIIIIIIIIIAI1111111111I111A11111111111111111IIIIIIIIIIIIIIIIIII
IIIIIIIIIIIA11111111111I111A11111111111111111IIIIIIIIIIIIIIIIIII
IIIIIIIIIIIA11111111111I111A11111111111111111I1IIIIIIIIIIIIIIIII
IIIIIIIIIIIIIIIIIIIIIIIIIIIAIIIIIIIIIIIIIIIIIIIIIIIIIIIIIIIIIIII
IIIIIIIIIIIA111111IIIIIIIIIAIIIIIIIIIIIIIIIIIIIIIIIIIIIIIIIIIIII
IIIIIIIIIIIA111111IIIIIIIIIA111111IIIIIIIIIIIIIIIIIIIIIIIIIIIIII
IIIIIIIIIIIIIIIIIIIIIIIIIIIA1I1111I11IIIIIIIIIIIIIIIIIIIIIIIIIII
IIIIIIIIIIIIIIIIIIIIIIIIIIIA1I1111I111111111IIIIIIIIIIIIIIIIIIII
IIIIIIIIIIIA11I111I12I22I22A1I1111I111111111IIIIIIIIIIIIIIIIIIII
IIIIIIIIIIIA11I111I12I22I22A111111I111111111IIIIIIIIIIIIIIIIIIII
IIIIIIIIII2A11I111I12I22I22A111111I111111111IIIIIIIIIIIIIIIIIIII
IIIIIIIIII2A111111I11I11I22A111111I111111111IIIIIIIIIIIIIIIIIIII
IIIIIIIIII2A111111I11I11I22A111111I111111111III2IIIIIIIIIIIIIIII
IIIIIIIIIIIIIIIIIIIIIIIIIIIAIIIIIIIIIIIIIIIIIIIIIIIIIIIIIIIIIIII
IIIIIIIIIIIA111111IIIIIIIIIAIIIIIIIIIIIIIIIIIIIIIIIIIIIIIIIIIIII
IIIIIIIIIIIA111111IIIIIIIIIA111111IIIIIIIIIIIIIIIIIIIIIIIIIIIIII
IIIIIIIIIIIIIIIIIIIIIIIIIIIA1I111111IIIIIIIIIIIIIIIIIIIIIIIIIIII
IIIIIIIIIIIIIIIIIIIIIIIIIIIA1I111111111I11I11IIIIIIIIIIIIIIIIIII
IIIIIIIIIIIAI1I11I12I22222IA12111111111I11I11IIIIIIIIIIIIIIIIIII
IIIIIIIIIIIAI1I11I12I22222IA11111111111211I112IIIIIIIIIIIIIIIIII
IIIIIIIIIIIA21I11I12I22222IA11111111111211I112IIIIIIIIIIIIIIIIII
IIIIIIIIIIIA11I11I12I22222IA11111111111211I112IIIIIIIIIIIIIIIIII
IIIIIIIIIIIA11111111121121IA11111111111211I112IIIIIIIIIIIIIIIIII
IIIIIIIIIIIA11111111121121IA11111111111111I112IIIIIIIIIIIIIIIIII
IIIIIIIIIIIA111111111211212A11111111111111I112IIIIIIIIIIIIIIIIII
IIIIIIIIIIIIIIIIIIIIIIIIIIIA2IIIIIIIIIIIIIIIIIIIIIIIIIIIIIIIIIII
IIIIIIIIIIIA111111IIIIIIIIIA2IIIIIIIIIIIIIIIIIIIIIIIIIIIIIIIIIII
IIIIIIIIIIIA111111IIIIIIIIIA111111IIIIIIIIIIIIIIIIIIIIIIIIIIIIII
IIIIIIIIIIIIIIIIIIIIIIIIIIIAI11111111IIIIIIIIIIIIIIIIIIIIIIIIIII
IIIIIIIIIIIIIIIIIIIIIIIIIIIAI1111111111111111IIIIIIIIIIIIIIIIIII
IIIIIIIIIIIA1IIIIIIIIIIIIIIAI1111111111111111IIIIIIIIIIIIIIIIIII
IIIIIIIIIIIA1IIIIIIIIIIIIIIA11111111111111111IIIIIIIIIIIIIIIIIII
IIIIIIIIIIIA1I1I11I11I1II1IA11111111111111111IIIIIIIIIIIIIIIIIII
IIIIIIIIIIIA1I1I11I11I1II12A11111111111111111IIIIIIIIIIIIIIIIIII
IIIIIIIIIIIIIIIIIIIIIIIIIIIA2IIIIIIIIIIIIIIIIIIIIIIIIIIIIIIIIIII
IIIIIIIIIIIA111111IIIIIIIIIA2IIIIIIIIIIIIIIIIIIIIIIIIIIIIIIIIIII
IIIIIIIIIIIA111111IIIIIIIIIA111111IIIIIIIIIIIIIIIIIIIIIIIIIIIIII
IIIIIIIIIIIIIIIIIIIIIIIIIIIA1I1111I1IIIIIIIIIIIIIIIIIIIIIIIIIIII
IIIIIIIIIIIIIIIIIIIIIIIIIIIA1I1111I11111111I1IIIIIIIIIIIIIIIIIII
IIIIIIIIIIIA11I111I2I22II22A1I1111I11111111I1IIIIIIIIIIIIIIIIIII
IIIIIIIIIIIA11I111I2I22II22A111111I11111111I1IIIIIIIIIIIIIIIIIII
IIIIIIIIII2A11I111I2I22II22A111111I11111111I1IIIIIIIIIIIIIIIIIII
IIIIIIIIII2A111111I2111II22A111111I11111111I1IIIIIIIIIIIIIIIIIII
IIIIIIIIII2A111111I2111II22A111111I1111111121I2IIIIIIIIIIIIIIIII
IIIIIIIIIIIIIIIIIIIIIIIIIIIAIIIIIIIIIIIIIIIIIIIIIIIIIIIIIIIIIIII
IIIIIIIIIIIA111111IIIIIIIIIAIIIIIIIIIIIIIIIIIIIIIIIIIIIIIIIIIIII
IIIIIIIIIIIA111111IIIIIIIIIA111111IIIIIIIIIIIIIIIIIIIIIIIIIIIIII
IIIIIIIIIIIIIIIIIIIIIIIIIIIA1I1111111IIIIIIIIIIIIIIIIIIIIIIIIIII
IIIIIIIIIIIIIIIIIIIIIIIIIIIA1I11111111111111IIIIIIIIIIIIIIIIIIII
IIIIIIIIIIIA2IIIIIIIIIIIIIIA1I11111111111111IIIIIIIIIIIIIIIIIIII
IIIIIIIIIIIA1IIIIIIIIIIIIIIA1I11111111111111IIIIIIIIIIIIIIIIIIII
IIIIIIIIIIIA1II1111I1111I1IA1I11111111111111IIIIIIIIIIIIIIIIIIII
IIIIIIIIIIIA1II1111I1111I12A1211111111111111IIIIIIIIIIIIIIIIIIII
IIIIIIIIIIIA12I1111I1111I12A1211111111111111IIIIIIIIIIIIIIIIIIII
IIIIIIIIIIIIIIIIIIIIIIIIIIIA12IIIII2IIIIIIIIIIIIIIIIIIIIIIIIIIII
IIIIIIIIIIIA111111IIIIIIIIIA12IIIII2IIIIIIIIIIIIIIIIIIIIIIIIIIII
IIIIIIIIIIIA111111IIIIIIIIIA111111I2IIIIIIIIIIIIIIIIIIIIIIIIIIII
IIIIIIIIIIIIIIIIIIIIIIIIIIIAI11111I111IIIIIIIIIIIIIIIIIIIIIIIIII
IIIIIIIIIIIIIIIIIIIIIIIIIIIAI11111I1111I111I1IIIIIIIIIIIIIIIIIII
IIIIIIIIIIIA1IIIIIIIIIIIIIIAI11111I1111I111I1IIIIIIIIIIIIIIIIIII
IIIIIIIIIIIA1IIIIIIIIIIIIIIA111111I1111I111I1IIIIIIIIIIIIIIIIIII
IIIIIIIIIIIA1I1I11II11I1I1IA111111I1111I111I1IIIIIIIIIIIIIIIIIII
IIIIIIIIIIIA1I1I11II11I1I1IA111111I1111111111IIIIIIIIIIIIIIIIIII
IIIIIIIIIIIA1I1I11II11I1I12A111111I1111111111IIIIIIIIIIIIIIIIIII
[MLOP] Prefetch Degree Mean: 10.8511
[MLOP] Prefetch Degree SD: 5.97888
[MLOP] Max Score Left Mean (%): 55.5888
[MLOP] Max Score Left SD (%): 28.2476
[MLOP] Max Score Right Mean (%): 79.0615
[MLOP] Max Score Right SD (%): 25.3778

DRAM Statistics
 CHANNEL 0
 RQ ROW_BUFFER_HIT:     832266  ROW_BUFFER_MISS:     897568
 DBUS_CONGESTED:        578
 WQ ROW_BUFFER_HIT:     248958  ROW_BUFFER_MISS:     768919  FULL:        212

 AVG_CONGESTED_CYCLE: 3
 All warmup complete: 2
Channel 0 Bank busy for read cycles: 0
Channel 0 Bank busy for write cycles: 0
Channel 0
Rank 0
0banks busy for read cycles: 220237604
0banks busy for write cycles: 42354
1banks busy for read cycles: 15053959
1banks busy for write cycles: 5698781
2banks busy for read cycles: 5242343
2banks busy for write cycles: 2749318
3banks busy for read cycles: 2205642
3banks busy for write cycles: 1772899
4banks busy for read cycles: 1548452
4banks busy for write cycles: 1282009
5banks busy for read cycles: 1586187
5banks busy for write cycles: 1053110
6banks busy for read cycles: 2310530
6banks busy for write cycles: 1007145
7banks busy for read cycles: 3227227
7banks busy for write cycles: 1942761
8banks busy for read cycles: 12214333
8banks busy for write cycles: 16204586

CPU 0 Branch Prediction Accuracy: 99.6381% MPKI: 0.27243 Average ROB Occupancy at Mispredict: 43.8843
Branch types
NOT_BRANCH: 184943571 92.4718%
BRANCH_DIRECT_JUMP: 1417007 0.708503%
BRANCH_INDIRECT: 4725365 2.36268%
BRANCH_CONDITIONAL: 6753203 3.3766%
BRANCH_DIRECT_CALL: 958452 0.479226%
BRANCH_INDIRECT_CALL: 121813 0.0609065%
BRANCH_RETURN: 1080241 0.540121%
BRANCH_OTHER: 0 0%

DRAM PAGES: 1048576
Allocated PAGES: 6461
