
*** ChampSim Multicore Out-of-Order Simulator ***

Warmup Instructions: 50000000
Simulation Instructions: 200000000
Number of CPUs: 1
LLC sets: 2048
LLC ways: 16
Off-chip DRAM Size: 4096 MB Channels: 1 Width: 64-bit Data Rate: 6400 MT/s
CPU 0 runs traces/spec2k17/srv_23.champsimtrace.xz
.xz
BTB has LRU replacement policy
ITLB has LRU replacement policy
DTLB has LRU replacement policy
STLB has LRU replacement policy
L1I has LRU replacement policy
L1D has LRU replacement policy
Initialize SRRIP state for L2C
Initialize DRRIP state for LLC
Heartbeat CPU 0 instructions: 10000002 cycles: 2861566 heartbeat IPC: 3.49459 cumulative IPC: 3.49459 (Simulation time: 0 hr 0 min 34 sec) 
Heartbeat CPU 0 instructions: 20000003 cycles: 5716960 heartbeat IPC: 3.50214 cumulative IPC: 3.49836 (Simulation time: 0 hr 1 min 12 sec) 
Heartbeat CPU 0 instructions: 30000001 cycles: 8571439 heartbeat IPC: 3.50327 cumulative IPC: 3.5 (Simulation time: 0 hr 1 min 46 sec) 
*** Reached end of trace for Core: 0 Repeating trace: traces/spec2k17/srv_23.champsimtrace.xz
Heartbeat CPU 0 instructions: 40000002 cycles: 11425327 heartbeat IPC: 3.50399 cumulative IPC: 3.50099 (Simulation time: 0 hr 2 min 22 sec) 
Heartbeat CPU 0 instructions: 50000003 cycles: 14276582 heartbeat IPC: 3.50723 cumulative IPC: 3.50224 (Simulation time: 0 hr 2 min 56 sec) 

Warmup complete CPU 0 instructions: 50000003 cycles: 14276582 (Simulation time: 0 hr 2 min 56 sec) 

Heartbeat CPU 0 instructions: 60000000 cycles: 47493548 heartbeat IPC: 0.301051 cumulative IPC: 0.301051 (Simulation time: 0 hr 3 min 53 sec) 
*** Reached end of trace for Core: 0 Repeating trace: traces/spec2k17/srv_23.champsimtrace.xz
Heartbeat CPU 0 instructions: 70000000 cycles: 80733522 heartbeat IPC: 0.300843 cumulative IPC: 0.300947 (Simulation time: 0 hr 4 min 46 sec) 
Heartbeat CPU 0 instructions: 80000001 cycles: 113900055 heartbeat IPC: 0.301509 cumulative IPC: 0.301134 (Simulation time: 0 hr 5 min 49 sec) 
Heartbeat CPU 0 instructions: 90000002 cycles: 147010118 heartbeat IPC: 0.302023 cumulative IPC: 0.301356 (Simulation time: 0 hr 6 min 43 sec) 
*** Reached end of trace for Core: 0 Repeating trace: traces/spec2k17/srv_23.champsimtrace.xz
Heartbeat CPU 0 instructions: 100000000 cycles: 180180500 heartbeat IPC: 0.301474 cumulative IPC: 0.301379 (Simulation time: 0 hr 7 min 41 sec) 
Heartbeat CPU 0 instructions: 110000000 cycles: 213293902 heartbeat IPC: 0.301993 cumulative IPC: 0.301481 (Simulation time: 0 hr 8 min 43 sec) 
Heartbeat CPU 0 instructions: 120000001 cycles: 246426856 heartbeat IPC: 0.301814 cumulative IPC: 0.301529 (Simulation time: 0 hr 9 min 40 sec) 
*** Reached end of trace for Core: 0 Repeating trace: traces/spec2k17/srv_23.champsimtrace.xz
Heartbeat CPU 0 instructions: 130000000 cycles: 279607948 heartbeat IPC: 0.301376 cumulative IPC: 0.30151 (Simulation time: 0 hr 10 min 43 sec) 
Heartbeat CPU 0 instructions: 140000000 cycles: 312709329 heartbeat IPC: 0.302102 cumulative IPC: 0.301575 (Simulation time: 0 hr 11 min 41 sec) 
Heartbeat CPU 0 instructions: 150000003 cycles: 345883840 heartbeat IPC: 0.301436 cumulative IPC: 0.301562 (Simulation time: 0 hr 12 min 38 sec) 
*** Reached end of trace for Core: 0 Repeating trace: traces/spec2k17/srv_23.champsimtrace.xz
Heartbeat CPU 0 instructions: 160000002 cycles: 379048350 heartbeat IPC: 0.301527 cumulative IPC: 0.301558 (Simulation time: 0 hr 13 min 40 sec) 
Heartbeat CPU 0 instructions: 170000003 cycles: 412141506 heartbeat IPC: 0.302177 cumulative IPC: 0.30161 (Simulation time: 0 hr 14 min 34 sec) 
Heartbeat CPU 0 instructions: 180000001 cycles: 445315667 heartbeat IPC: 0.301439 cumulative IPC: 0.301597 (Simulation time: 0 hr 15 min 33 sec) 
*** Reached end of trace for Core: 0 Repeating trace: traces/spec2k17/srv_23.champsimtrace.xz
Heartbeat CPU 0 instructions: 190000001 cycles: 478464737 heartbeat IPC: 0.301668 cumulative IPC: 0.301602 (Simulation time: 0 hr 16 min 29 sec) 
Heartbeat CPU 0 instructions: 200000001 cycles: 511535816 heartbeat IPC: 0.302379 cumulative IPC: 0.301654 (Simulation time: 0 hr 17 min 28 sec) 
Heartbeat CPU 0 instructions: 210000001 cycles: 544738758 heartbeat IPC: 0.301178 cumulative IPC: 0.301624 (Simulation time: 0 hr 18 min 21 sec) 
*** Reached end of trace for Core: 0 Repeating trace: traces/spec2k17/srv_23.champsimtrace.xz
Heartbeat CPU 0 instructions: 220000000 cycles: 577872542 heartbeat IPC: 0.301807 cumulative IPC: 0.301635 (Simulation time: 0 hr 19 min 21 sec) 
Heartbeat CPU 0 instructions: 230000002 cycles: 610935953 heartbeat IPC: 0.302449 cumulative IPC: 0.30168 (Simulation time: 0 hr 20 min 17 sec) 
Heartbeat CPU 0 instructions: 240000001 cycles: 644099575 heartbeat IPC: 0.301535 cumulative IPC: 0.301672 (Simulation time: 0 hr 21 min 13 sec) 
Heartbeat CPU 0 instructions: 250000001 cycles: 677226521 heartbeat IPC: 0.301869 cumulative IPC: 0.301682 (Simulation time: 0 hr 22 min 18 sec) 
Finished CPU 0 instructions: 200000000 cycles: 662949940 cumulative IPC: 0.301682 (Simulation time: 0 hr 22 min 18 sec) 

ChampSim completed all CPUs

Region of Interest Statistics

CPU 0 cumulative IPC: 0.301682 instructions: 200000000 cycles: 662949940
ITLB TOTAL     ACCESS:   35756761  HIT:   33502921  MISS:    2253840  HIT %:    93.6967  MISS %:    6.30326   MPKI: 11.2692
ITLB LOAD TRANSLATION ACCESS:   35756761  HIT:   33502921  MISS:    2253840  HIT %:    93.6967  MISS %:    6.30326   MPKI: 11.2692
ITLB PREFETCH  REQUESTED:          0  ISSUED:          0  USEFUL:          0  USELESS:          0
ITLB USEFUL LOAD PREFETCHES:          0 PREFETCH ISSUED TO LOWER LEVEL:          0  ACCURACY: -nan
ITLB TIMELY PREFETCHES:          0 LATE PREFETCHES: 0 DROPPED PREFETCHES: 0
ITLB PREFETCHES SAME FILL-ORIGIN LEVEL: 0 DIFFERENT FILL-ORIGIN LEVEL: 0
ITLB AVERAGE MISS LATENCY: 9.19886 cycles
ITLB RQ	ACCESS:   42013228	FORWARD:          0	MERGED:    5722146	TO_CACHE:   36291082

DTLB TOTAL     ACCESS:   45778002  HIT:   43749677  MISS:    2028325  HIT %:    95.5692  MISS %:    4.43079   MPKI: 10.1416
DTLB LOAD TRANSLATION ACCESS:   45778002  HIT:   43749677  MISS:    2028325  HIT %:    95.5692  MISS %:    4.43079   MPKI: 10.1416
DTLB PREFETCH  REQUESTED:          0  ISSUED:          0  USEFUL:          0  USELESS:          0
DTLB USEFUL LOAD PREFETCHES:          0 PREFETCH ISSUED TO LOWER LEVEL:          0  ACCURACY: -nan
DTLB TIMELY PREFETCHES:          0 LATE PREFETCHES: 0 DROPPED PREFETCHES: 0
DTLB PREFETCHES SAME FILL-ORIGIN LEVEL: 0 DIFFERENT FILL-ORIGIN LEVEL: 0
DTLB AVERAGE MISS LATENCY: 9.27271 cycles
DTLB RQ	ACCESS:   60534092	FORWARD:          0	MERGED:   14695768	TO_CACHE:   45838324

STLB TOTAL     ACCESS:    5118285  HIT:    5088896  MISS:      29389  HIT %:    99.4258  MISS %:   0.574196   MPKI: 0.146945
STLB LOAD TRANSLATION ACCESS:    4282165  HIT:    4252776  MISS:      29389  HIT %:    99.3137  MISS %:   0.686312   MPKI: 0.146945
STLB TRANSLATION FROM L1D PREFETCHER ACCESS:     836120  HIT:     836120  MISS:          0  HIT %:        100  MISS %:          0   MPKI: 0
STLB PREFETCH  REQUESTED:          0  ISSUED:          0  USEFUL:          0  USELESS:          0
STLB USEFUL LOAD PREFETCHES:          0 PREFETCH ISSUED TO LOWER LEVEL:          0  ACCURACY: -nan
STLB TIMELY PREFETCHES:          0 LATE PREFETCHES: 0 DROPPED PREFETCHES: 0
STLB PREFETCHES SAME FILL-ORIGIN LEVEL: 0 DIFFERENT FILL-ORIGIN LEVEL: 0
STLB AVERAGE MISS LATENCY: 33.1282 cycles
STLB RQ	ACCESS:    7789272	FORWARD:          0	MERGED:    2670987	TO_CACHE:    5118285

STLB Hit, L1D data hit: 0
STLB Hit, L2C data hit: 0
STLB Hit, LLC data hit: 0
STLB Hit, LLC data miss: 0
STLB STLB hints to L2: 0
L1D TOTAL     ACCESS:   61040777  HIT:   53392319  MISS:    7648458  HIT %:    87.4699  MISS %:    12.5301   MPKI: 38.2423
L1D LOAD      ACCESS:   33952129  HIT:   29836855  MISS:    4115274  HIT %:    87.8792  MISS %:    12.1208   MPKI: 20.5764
L1D RFO       ACCESS:   24680501  HIT:   23489735  MISS:    1190766  HIT %:    95.1753  MISS %:    4.82472   MPKI: 5.95383
L1D PREFETCH  ACCESS:    2408147  HIT:      65729  MISS:    2342418  HIT %:    2.72944  MISS %:    97.2706   MPKI: 11.7121
AGUS PREFETCH L1 MISS: 0
L1D PREFETCH  REQUESTED:    7024235  ISSUED:    7024235  USEFUL:     495580  USELESS:    1846750
L1D USEFUL LOAD PREFETCHES:     495580 PREFETCH ISSUED TO LOWER LEVEL:    3411132  ACCURACY: 14.5283
L1D TIMELY PREFETCHES:     495580 LATE PREFETCHES: 17352 DROPPED PREFETCHES: 0
L1D PREFETCHES SAME FILL-ORIGIN LEVEL: 2359921 DIFFERENT FILL-ORIGIN LEVEL: 1051211
L1D AVERAGE MISS LATENCY: 767260 cycles
L1D RQ	ACCESS:   46419991	FORWARD:          0	MERGED:   12020940	TO_CACHE:   34074702
L1D WQ	ACCESS:   26602425	FORWARD:     324350	MERGED:     143035	TO_CACHE:   26459390
L1D PQ	ACCESS:    3517128	FORWARD:          0	MERGED:      10020	TO_CACHE:    3507107

L1D UNIQUE REGIONS ACCESSED: 0
L1D REGIONS CONFLICTS: 0
L1D Cross Page Prefetch Requests: 0
L1D Same Page Prefetch Requests: 4336111
L1D ROI Sum of L1D PQ occupancy: 50319140
L1D PREFETCHES PUSHED FROM L2C: 0
L1I TOTAL     ACCESS:   40290265  HIT:   28881447  MISS:   11408818  HIT %:    71.6834  MISS %:    28.3166   MPKI: 57.0441
L1I LOAD      ACCESS:   40290265  HIT:   28881447  MISS:   11408818  HIT %:    71.6834  MISS %:    28.3166   MPKI: 57.0441
L1I PREFETCH  REQUESTED:          0  ISSUED:          0  USEFUL:          0  USELESS:          0
L1I USEFUL LOAD PREFETCHES:          0 PREFETCH ISSUED TO LOWER LEVEL:          0  ACCURACY: -nan
L1I TIMELY PREFETCHES:          0 LATE PREFETCHES: 0 DROPPED PREFETCHES: 0
L1I PREFETCHES SAME FILL-ORIGIN LEVEL: 0 DIFFERENT FILL-ORIGIN LEVEL: 0
L1I AVERAGE MISS LATENCY: 16.9815 cycles
L1I RQ	ACCESS:   58372444	FORWARD:          0	MERGED:   16359216	TO_CACHE:   42013228

BTB TOTAL     ACCESS:   30404626  HIT:   17762651  MISS:   12641975  HIT %:    58.4209  MISS %:    41.5791   MPKI: 63.2099
BTB BRANCH_DIRECT_JUMP	ACCESS:    1877215  HIT:    1053364  MISS:     823851
BTB BRANCH_INDIRECT	ACCESS:   12063358  HIT:    7236921  MISS:    4826437
BTB BRANCH_CONDITIONAL	ACCESS:    7180679  HIT:    5895807  MISS:    1284872
BTB BRANCH_DIRECT_CALL	ACCESS:    3903287  HIT:    1841897  MISS:    2061390
BTB BRANCH_INDIRECT_CALL	ACCESS:     738410  HIT:     357792  MISS:     380618
BTB BRANCH_RETURN	ACCESS:    4641677  HIT:    1376870  MISS:    3264807
BTB BRANCH_OTHER ACCESS:          0  HIT:          0  MISS:          0

L2C TOTAL     ACCESS:   22526609  HIT:   20031685  MISS:    2494924  HIT %:    88.9245  MISS %:    11.0755   MPKI: 12.4746
L2C LOAD      ACCESS:   15506728  HIT:   14098920  MISS:    1407808  HIT %:    90.9213  MISS %:    9.07869   MPKI: 7.03904
L2C DATA LOAD MPKI: 1.57389
L2C INSTRUCTION LOAD MPKI: 5.46515
L2C RFO       ACCESS:    1190614  HIT:    1087209  MISS:     103405  HIT %:     91.315  MISS %:    8.68501   MPKI: 0.517025
L2C PREFETCH  ACCESS:    3391811  HIT:    2446589  MISS:     945222  HIT %:    72.1322  MISS %:    27.8678   MPKI: 4.72611
AGUS PREFETCH L1 MISS: 0
L2C DATA PREFETCH MPKI: 4.72611
L2C INSTRUCTION PREFETCH MPKI: 0
L2C WRITEBACK ACCESS:    2406723  HIT:    2379809  MISS:      26914  HIT %:    98.8817  MISS %:    1.11828   MPKI: 0.13457
L2C LOAD TRANSLATION ACCESS:      30733  HIT:      19158  MISS:      11575  HIT %:    62.3369  MISS %:    37.6631   MPKI: 0.057875
L2C PREFETCH  REQUESTED:          0  ISSUED:          0  USEFUL:      28131  USELESS:     917049
L2C USEFUL LOAD PREFETCHES:      28131 PREFETCH ISSUED TO LOWER LEVEL:     955572  ACCURACY: 2.94389
L2C TIMELY PREFETCHES:      28131 LATE PREFETCHES: 10350 DROPPED PREFETCHES: 0
L2C PREFETCHES SAME FILL-ORIGIN LEVEL: 292397 DIFFERENT FILL-ORIGIN LEVEL: 0
L2C AVERAGE MISS LATENCY: 33.4599 cycles
L2C RQ	ACCESS:   16728088	FORWARD:          0	MERGED:          0	TO_CACHE:   16728075
L2C WQ	ACCESS:    2406723	FORWARD:         16	MERGED:          0	TO_CACHE:    2406723
L2C PQ	ACCESS:    3411132	FORWARD:          0	MERGED:        171	TO_CACHE:    3410958

L2C Instructions Evicting Data 500516
L2C Translations Evicting Data 8130
L2C Data Evicting Data 866595
L2C Instructions Evicting Instructions 589155
L2C Translations Evicting Instructions 3341
L2C Data Evicting Instructions 488790
L2C Instructions Evicting Translations 3359
L2C Translations Evicting Translations 104
L2C Data Evicting Translations 8020
L2C Dense regions hint from L2: 0
PSCL5 TOTAL     ACCESS:      29389  HIT:      29389  MISS:          0  HIT %:        100  MISS %:          0   MPKI: 0
PSCL5 LOAD TRANSLATION ACCESS:      29389  HIT:      29389  MISS:          0  HIT %:        100  MISS %:          0   MPKI: 0
PSCL5 PREFETCH  REQUESTED:          0  ISSUED:          0  USEFUL:          0  USELESS:          0
PSCL5 USEFUL LOAD PREFETCHES:          0 PREFETCH ISSUED TO LOWER LEVEL:          0  ACCURACY: -nan
PSCL5 TIMELY PREFETCHES:          0 LATE PREFETCHES: 0 DROPPED PREFETCHES: 0
PSCL5 PREFETCHES SAME FILL-ORIGIN LEVEL: 0 DIFFERENT FILL-ORIGIN LEVEL: 0

PSCL4 TOTAL     ACCESS:      26450  HIT:      26290  MISS:        160  HIT %:    99.3951  MISS %:   0.604915   MPKI: 0.0008
PSCL4 LOAD TRANSLATION ACCESS:      26450  HIT:      26290  MISS:        160  HIT %:    99.3951  MISS %:   0.604915   MPKI: 0.0008
PSCL4 PREFETCH  REQUESTED:          0  ISSUED:          0  USEFUL:          0  USELESS:          0
PSCL4 USEFUL LOAD PREFETCHES:          0 PREFETCH ISSUED TO LOWER LEVEL:          0  ACCURACY: -nan
PSCL4 TIMELY PREFETCHES:          0 LATE PREFETCHES: 0 DROPPED PREFETCHES: 0
PSCL4 PREFETCHES SAME FILL-ORIGIN LEVEL: 0 DIFFERENT FILL-ORIGIN LEVEL: 0

PSCL3 TOTAL     ACCESS:      28053  HIT:      27893  MISS:        160  HIT %:    99.4297  MISS %:   0.570349   MPKI: 0.0008
PSCL3 LOAD TRANSLATION ACCESS:      28053  HIT:      27893  MISS:        160  HIT %:    99.4297  MISS %:   0.570349   MPKI: 0.0008
PSCL3 PREFETCH  REQUESTED:          0  ISSUED:          0  USEFUL:          0  USELESS:          0
PSCL3 USEFUL LOAD PREFETCHES:          0 PREFETCH ISSUED TO LOWER LEVEL:          0  ACCURACY: -nan
PSCL3 TIMELY PREFETCHES:          0 LATE PREFETCHES: 0 DROPPED PREFETCHES: 0
PSCL3 PREFETCHES SAME FILL-ORIGIN LEVEL: 0 DIFFERENT FILL-ORIGIN LEVEL: 0

PSCL2 TOTAL     ACCESS:      29389  HIT:      28365  MISS:       1024  HIT %:    96.5157  MISS %:     3.4843   MPKI: 0.00512
PSCL2 LOAD TRANSLATION ACCESS:      29389  HIT:      28365  MISS:       1024  HIT %:    96.5157  MISS %:     3.4843   MPKI: 0.00512
PSCL2 PREFETCH  REQUESTED:          0  ISSUED:          0  USEFUL:          0  USELESS:          0
PSCL2 USEFUL LOAD PREFETCHES:          0 PREFETCH ISSUED TO LOWER LEVEL:          0  ACCURACY: -nan
PSCL2 TIMELY PREFETCHES:          0 LATE PREFETCHES: 0 DROPPED PREFETCHES: 0
PSCL2 PREFETCHES SAME FILL-ORIGIN LEVEL: 0 DIFFERENT FILL-ORIGIN LEVEL: 0

LLC TOTAL     ACCESS:    2626941  HIT:    2559600  MISS:      67341  HIT %:    97.4365  MISS %:    2.56348   MPKI: 0.336705
LLC LOAD      ACCESS:    1397497  HIT:    1388979  MISS:       8518  HIT %:    99.3905  MISS %:   0.609518   MPKI: 0.04259
LLC RFO       ACCESS:     103361  HIT:     100157  MISS:       3204  HIT %:    96.9002  MISS %:    3.09982   MPKI: 0.01602
LLC PREFETCH  ACCESS:     955572  HIT:     900924  MISS:      54648  HIT %:    94.2811  MISS %:    5.71888   MPKI: 0.27324
AGUS PREFETCH L1 MISS: 0
LLC WRITEBACK ACCESS:     158936  HIT:     158259  MISS:        677  HIT %:     99.574  MISS %:   0.425958   MPKI: 0.003385
LLC LOAD TRANSLATION ACCESS:      11575  HIT:      11281  MISS:        294  HIT %:      97.46  MISS %:    2.53996   MPKI: 0.00147
LLC PREFETCH  REQUESTED:          0  ISSUED:          0  USEFUL:       2410  USELESS:      52181
LLC USEFUL LOAD PREFETCHES:       2410 PREFETCH ISSUED TO LOWER LEVEL:      54648  ACCURACY: 4.41004
LLC TIMELY PREFETCHES:       2410 LATE PREFETCHES: 0 DROPPED PREFETCHES: 0
LLC PREFETCHES SAME FILL-ORIGIN LEVEL: 0 DIFFERENT FILL-ORIGIN LEVEL: 0
LLC AVERAGE MISS LATENCY: 139.76 cycles
LLC RQ	ACCESS:    1512438	FORWARD:          0	MERGED:          0	TO_CACHE:    1512433
LLC WQ	ACCESS:     158936	FORWARD:          5	MERGED:          0	TO_CACHE:     158936
LLC PQ	ACCESS:     955572	FORWARD:          0	MERGED:          0	TO_CACHE:     955572

LLC Dense regions hint to LLC: 0

RAW hits: 1468336
Loads Generated: 47888328
Loads sent to L1D: 46419991
Stores Generated: 26602422
Stores sent to L1D: 26602425
Major fault: 0 Minor fault: 1820
Allocated PAGES: 1820
=== CPU 0 L1D Prefetcher Statistics ===
[MLOP] History of tracked zone:
IIIIIIIIIIIIIIIIIIIIIIIIIIIIIIIIIIIIIIIIIIIIIIIIIIIIIIIIIIIIIIII
IIIIIIIIIIIIIIIIIIIIIIIIIIIIIIIIIIIIIIIIIIIIIIIIIIIIIIIIIIAIIIII
IIIIIIIIIIIIIIIIIIIIIIIIIIIIIIIIIIIIIIIIIIIIIIIIIIIIIIIIIIA2IIII
IIIIIIIIIIIIIIIIIIIIIIIIIIIIIIIIIIIIIIIIIIIIIIIIIIIIIIIIIIA11I11
IIIIIIIIIIIIIIIIIIIIIIIIIIIIIIIIIIIIIIIIIIIIIIIIIIIIIIIIIIA11211
IIIIIIIIIIIIIIIIIIIIIIIIIIIIIIIIIIIIIIIIIIIIIIIIIIIIIIIIIIA11111
[MLOP] Prefetch Degree Mean: 5.84746
[MLOP] Prefetch Degree SD: 5.03246
[MLOP] Max Score Left Mean (%): 18.4431
[MLOP] Max Score Left SD (%): 15.3498
[MLOP] Max Score Right Mean (%): 51.5498
[MLOP] Max Score Right SD (%): 15.0927

DRAM Statistics
 CHANNEL 0
 RQ ROW_BUFFER_HIT:      31638  ROW_BUFFER_MISS:      35023
 DBUS_CONGESTED:         29
 WQ ROW_BUFFER_HIT:        360  ROW_BUFFER_MISS:       5306  FULL:          0

 AVG_CONGESTED_CYCLE: 3
 All warmup complete: 2
Channel 0 Bank busy for read cycles: 0
Channel 0 Bank busy for write cycles: 0
Channel 0
Rank 0
0banks busy for read cycles: 659410155
0banks busy for write cycles: 3224
1banks busy for read cycles: 1562452
1banks busy for write cycles: 385948
2banks busy for read cycles: 478745
2banks busy for write cycles: 104207
3banks busy for read cycles: 277303
3banks busy for write cycles: 47778
4banks busy for read cycles: 203579
4banks busy for write cycles: 21620
5banks busy for read cycles: 157738
5banks busy for write cycles: 11819
6banks busy for read cycles: 130998
6banks busy for write cycles: 4138
7banks busy for read cycles: 99166
7banks busy for write cycles: 852
8banks busy for read cycles: 50085
8banks busy for write cycles: 134

CPU 0 Branch Prediction Accuracy: 99.8875% MPKI: 0.202445 Average ROB Occupancy at Mispredict: 30.2857
Branch types
NOT_BRANCH: 164016253 82.0081%
BRANCH_DIRECT_JUMP: 1877215 0.938608%
BRANCH_INDIRECT: 12063358 6.03168%
BRANCH_CONDITIONAL: 12759769 6.37988%
BRANCH_DIRECT_CALL: 3903287 1.95164%
BRANCH_INDIRECT_CALL: 738410 0.369205%
BRANCH_RETURN: 4641677 2.32084%
BRANCH_OTHER: 0 0%

DRAM PAGES: 1048576
Allocated PAGES: 1820
