
*** ChampSim Multicore Out-of-Order Simulator ***

Warmup Instructions: 50000000
Simulation Instructions: 200000000
Number of CPUs: 1
LLC sets: 2048
LLC ways: 16
Off-chip DRAM Size: 4096 MB Channels: 1 Width: 64-bit Data Rate: 6400 MT/s
CPU 0 runs traces/spec2k17/srv_39.champsimtrace.xz
.xz
BTB has LRU replacement policy
ITLB has LRU replacement policy
DTLB has LRU replacement policy
STLB has LRU replacement policy
L1I has LRU replacement policy
L1D has LRU replacement policy
Initialize SRRIP state for L2C
Initialize DRRIP state for LLC
Heartbeat CPU 0 instructions: 10000001 cycles: 2945780 heartbeat IPC: 3.39469 cumulative IPC: 3.39469 (Simulation time: 0 hr 0 min 47 sec) 
Heartbeat CPU 0 instructions: 20000002 cycles: 5883157 heartbeat IPC: 3.4044 cumulative IPC: 3.39954 (Simulation time: 0 hr 1 min 30 sec) 
Heartbeat CPU 0 instructions: 30000003 cycles: 8827370 heartbeat IPC: 3.39649 cumulative IPC: 3.39852 (Simulation time: 0 hr 2 min 14 sec) 
*** Reached end of trace for Core: 0 Repeating trace: traces/spec2k17/srv_39.champsimtrace.xz
Heartbeat CPU 0 instructions: 40000000 cycles: 11769887 heartbeat IPC: 3.39845 cumulative IPC: 3.3985 (Simulation time: 0 hr 3 min 0 sec) 
Heartbeat CPU 0 instructions: 50000000 cycles: 14706661 heartbeat IPC: 3.4051 cumulative IPC: 3.39982 (Simulation time: 0 hr 3 min 39 sec) 

Warmup complete CPU 0 instructions: 50000004 cycles: 14706662 (Simulation time: 0 hr 3 min 39 sec) 

Heartbeat CPU 0 instructions: 60000003 cycles: 33124700 heartbeat IPC: 0.542946 cumulative IPC: 0.542946 (Simulation time: 0 hr 4 min 49 sec) 
*** Reached end of trace for Core: 0 Repeating trace: traces/spec2k17/srv_39.champsimtrace.xz
Heartbeat CPU 0 instructions: 70000000 cycles: 51465355 heartbeat IPC: 0.545237 cumulative IPC: 0.544089 (Simulation time: 0 hr 5 min 53 sec) 
Heartbeat CPU 0 instructions: 80000001 cycles: 69915657 heartbeat IPC: 0.541997 cumulative IPC: 0.54339 (Simulation time: 0 hr 7 min 6 sec) 
Heartbeat CPU 0 instructions: 90000000 cycles: 88226916 heartbeat IPC: 0.546112 cumulative IPC: 0.544068 (Simulation time: 0 hr 8 min 14 sec) 
*** Reached end of trace for Core: 0 Repeating trace: traces/spec2k17/srv_39.champsimtrace.xz
Heartbeat CPU 0 instructions: 100000000 cycles: 106554752 heartbeat IPC: 0.545618 cumulative IPC: 0.544377 (Simulation time: 0 hr 9 min 18 sec) 
Heartbeat CPU 0 instructions: 110000000 cycles: 124989960 heartbeat IPC: 0.54244 cumulative IPC: 0.544053 (Simulation time: 0 hr 10 min 25 sec) 
Heartbeat CPU 0 instructions: 120000000 cycles: 143378230 heartbeat IPC: 0.543825 cumulative IPC: 0.544021 (Simulation time: 0 hr 11 min 32 sec) 
*** Reached end of trace for Core: 0 Repeating trace: traces/spec2k17/srv_39.champsimtrace.xz
Heartbeat CPU 0 instructions: 130000000 cycles: 161650107 heartbeat IPC: 0.547289 cumulative IPC: 0.544427 (Simulation time: 0 hr 12 min 37 sec) 
Heartbeat CPU 0 instructions: 140000000 cycles: 180111642 heartbeat IPC: 0.541667 cumulative IPC: 0.544119 (Simulation time: 0 hr 13 min 43 sec) 
Heartbeat CPU 0 instructions: 150000003 cycles: 198488085 heartbeat IPC: 0.544175 cumulative IPC: 0.544125 (Simulation time: 0 hr 14 min 48 sec) 
Heartbeat CPU 0 instructions: 160000000 cycles: 216758296 heartbeat IPC: 0.547339 cumulative IPC: 0.544415 (Simulation time: 0 hr 15 min 58 sec) 
*** Reached end of trace for Core: 0 Repeating trace: traces/spec2k17/srv_39.champsimtrace.xz
Heartbeat CPU 0 instructions: 170000001 cycles: 235221114 heartbeat IPC: 0.541629 cumulative IPC: 0.544182 (Simulation time: 0 hr 17 min 5 sec) 
Heartbeat CPU 0 instructions: 180000000 cycles: 253553275 heartbeat IPC: 0.545489 cumulative IPC: 0.544282 (Simulation time: 0 hr 18 min 10 sec) 
Heartbeat CPU 0 instructions: 190000000 cycles: 271938955 heartbeat IPC: 0.543902 cumulative IPC: 0.544255 (Simulation time: 0 hr 19 min 15 sec) 
*** Reached end of trace for Core: 0 Repeating trace: traces/spec2k17/srv_39.champsimtrace.xz
Heartbeat CPU 0 instructions: 200000001 cycles: 290237685 heartbeat IPC: 0.546486 cumulative IPC: 0.544403 (Simulation time: 0 hr 20 min 19 sec) 
Heartbeat CPU 0 instructions: 210000000 cycles: 308695470 heartbeat IPC: 0.541777 cumulative IPC: 0.544238 (Simulation time: 0 hr 21 min 26 sec) 
Heartbeat CPU 0 instructions: 220000000 cycles: 327059184 heartbeat IPC: 0.544552 cumulative IPC: 0.544257 (Simulation time: 0 hr 22 min 27 sec) 
*** Reached end of trace for Core: 0 Repeating trace: traces/spec2k17/srv_39.champsimtrace.xz
Heartbeat CPU 0 instructions: 230000000 cycles: 345388126 heartbeat IPC: 0.545585 cumulative IPC: 0.54433 (Simulation time: 0 hr 23 min 39 sec) 
Heartbeat CPU 0 instructions: 240000001 cycles: 363778219 heartbeat IPC: 0.543771 cumulative IPC: 0.544301 (Simulation time: 0 hr 24 min 42 sec) 
Heartbeat CPU 0 instructions: 250000000 cycles: 382123510 heartbeat IPC: 0.545099 cumulative IPC: 0.544341 (Simulation time: 0 hr 25 min 56 sec) 
Finished CPU 0 instructions: 200000000 cycles: 367416857 cumulative IPC: 0.544341 (Simulation time: 0 hr 25 min 56 sec) 

ChampSim completed all CPUs

Region of Interest Statistics

CPU 0 cumulative IPC: 0.544341 instructions: 200000000 cycles: 367416857
ITLB TOTAL     ACCESS:   33727272  HIT:   32186966  MISS:    1540306  HIT %:    95.4331  MISS %:    4.56695   MPKI: 7.70153
ITLB LOAD TRANSLATION ACCESS:   33727272  HIT:   32186966  MISS:    1540306  HIT %:    95.4331  MISS %:    4.56695   MPKI: 7.70153
ITLB PREFETCH  REQUESTED:          0  ISSUED:          0  USEFUL:          0  USELESS:          0
ITLB USEFUL LOAD PREFETCHES:          0 PREFETCH ISSUED TO LOWER LEVEL:          0  ACCURACY: -nan
ITLB TIMELY PREFETCHES:          0 LATE PREFETCHES: 0 DROPPED PREFETCHES: 0
ITLB PREFETCHES SAME FILL-ORIGIN LEVEL: 0 DIFFERENT FILL-ORIGIN LEVEL: 0
ITLB AVERAGE MISS LATENCY: 9.22324 cycles
ITLB RQ	ACCESS:   40648447	FORWARD:          0	MERGED:    6426444	TO_CACHE:   34222003

DTLB TOTAL     ACCESS:   40500125  HIT:   38982785  MISS:    1517340  HIT %:    96.2535  MISS %:    3.74651   MPKI: 7.5867
DTLB LOAD TRANSLATION ACCESS:   40500125  HIT:   38982785  MISS:    1517340  HIT %:    96.2535  MISS %:    3.74651   MPKI: 7.5867
DTLB PREFETCH  REQUESTED:          0  ISSUED:          0  USEFUL:          0  USELESS:          0
DTLB USEFUL LOAD PREFETCHES:          0 PREFETCH ISSUED TO LOWER LEVEL:          0  ACCURACY: -nan
DTLB TIMELY PREFETCHES:          0 LATE PREFETCHES: 0 DROPPED PREFETCHES: 0
DTLB PREFETCHES SAME FILL-ORIGIN LEVEL: 0 DIFFERENT FILL-ORIGIN LEVEL: 0
DTLB AVERAGE MISS LATENCY: 14.5805 cycles
DTLB RQ	ACCESS:   61434442	FORWARD:          0	MERGED:   20532727	TO_CACHE:   40901715

STLB TOTAL     ACCESS:    4801142  HIT:    4723088  MISS:      78054  HIT %:    98.3743  MISS %:    1.62574   MPKI: 0.39027
STLB LOAD TRANSLATION ACCESS:    3057646  HIT:    2979592  MISS:      78054  HIT %:    97.4473  MISS %:    2.55275   MPKI: 0.39027
STLB TRANSLATION FROM L1D PREFETCHER ACCESS:    1743496  HIT:    1743496  MISS:          0  HIT %:        100  MISS %:          0   MPKI: 0
STLB PREFETCH  REQUESTED:          0  ISSUED:          0  USEFUL:          0  USELESS:          0
STLB USEFUL LOAD PREFETCHES:          0 PREFETCH ISSUED TO LOWER LEVEL:          0  ACCURACY: -nan
STLB TIMELY PREFETCHES:          0 LATE PREFETCHES: 0 DROPPED PREFETCHES: 0
STLB PREFETCHES SAME FILL-ORIGIN LEVEL: 0 DIFFERENT FILL-ORIGIN LEVEL: 0
STLB AVERAGE MISS LATENCY: 112.589 cycles
STLB RQ	ACCESS:    7818588	FORWARD:          0	MERGED:    3017446	TO_CACHE:    4801142

STLB Hit, L1D data hit: 0
STLB Hit, L2C data hit: 0
STLB Hit, LLC data hit: 0
STLB Hit, LLC data miss: 0
STLB STLB hints to L2: 0
L1D TOTAL     ACCESS:   53329208  HIT:   44839442  MISS:    8489766  HIT %:    84.0805  MISS %:    15.9195   MPKI: 42.4488
L1D LOAD      ACCESS:   27145765  HIT:   24798694  MISS:    2347071  HIT %:    91.3538  MISS %:    8.64618   MPKI: 11.7354
L1D RFO       ACCESS:   22558049  HIT:   18974991  MISS:    3583058  HIT %:    84.1163  MISS %:    15.8837   MPKI: 17.9153
L1D PREFETCH  ACCESS:    3625394  HIT:    1065757  MISS:    2559637  HIT %:     29.397  MISS %:     70.603   MPKI: 12.7982
AGUS PREFETCH L1 MISS: 0
L1D PREFETCH  REQUESTED:    9538822  ISSUED:    9538822  USEFUL:     996237  USELESS:    1563317
L1D USEFUL LOAD PREFETCHES:     996237 PREFETCH ISSUED TO LOWER LEVEL:    3551827  ACCURACY: 28.0486
L1D TIMELY PREFETCHES:     996237 LATE PREFETCHES: 334105 DROPPED PREFETCHES: 0
L1D PREFETCHES SAME FILL-ORIGIN LEVEL: 2895111 DIFFERENT FILL-ORIGIN LEVEL: 656716
L1D AVERAGE MISS LATENCY: 7.87009e+06 cycles
L1D RQ	ACCESS:   45478179	FORWARD:          0	MERGED:   17774849	TO_CACHE:   27447038
L1D WQ	ACCESS:   34178909	FORWARD:     256321	MERGED:     191505	TO_CACHE:   33987404
L1D PQ	ACCESS:    4777880	FORWARD:          0	MERGED:      16909	TO_CACHE:    4760942

L1D UNIQUE REGIONS ACCESSED: 0
L1D REGIONS CONFLICTS: 0
L1D Cross Page Prefetch Requests: 0
L1D Same Page Prefetch Requests: 5968228
L1D ROI Sum of L1D PQ occupancy: 67381410
L1D PREFETCHES PUSHED FROM L2C: 0
L1I TOTAL     ACCESS:   37983214  HIT:   28878205  MISS:    9105009  HIT %:    76.0289  MISS %:    23.9711   MPKI: 45.525
L1I LOAD      ACCESS:   37983214  HIT:   28878205  MISS:    9105009  HIT %:    76.0289  MISS %:    23.9711   MPKI: 45.525
L1I PREFETCH  REQUESTED:          0  ISSUED:          0  USEFUL:          0  USELESS:          0
L1I USEFUL LOAD PREFETCHES:          0 PREFETCH ISSUED TO LOWER LEVEL:          0  ACCURACY: -nan
L1I TIMELY PREFETCHES:          0 LATE PREFETCHES: 0 DROPPED PREFETCHES: 0
L1I PREFETCHES SAME FILL-ORIGIN LEVEL: 0 DIFFERENT FILL-ORIGIN LEVEL: 0
L1I AVERAGE MISS LATENCY: 16.8852 cycles
L1I RQ	ACCESS:   58843676	FORWARD:          0	MERGED:   18195229	TO_CACHE:   40648447

BTB TOTAL     ACCESS:   25656442  HIT:   24104580  MISS:    1551862  HIT %:    93.9514  MISS %:    6.04863   MPKI: 7.75931
BTB BRANCH_DIRECT_JUMP	ACCESS:    1660636  HIT:    1651091  MISS:       9545
BTB BRANCH_INDIRECT	ACCESS:   10006677  HIT:    9485915  MISS:     520762
BTB BRANCH_CONDITIONAL	ACCESS:    7142248  HIT:    7128880  MISS:      13368
BTB BRANCH_DIRECT_CALL	ACCESS:    2826795  HIT:    2793470  MISS:      33325
BTB BRANCH_INDIRECT_CALL	ACCESS:     596648  HIT:     485314  MISS:     111334
BTB BRANCH_RETURN	ACCESS:    3423438  HIT:    2559910  MISS:     863528
BTB BRANCH_OTHER ACCESS:          0  HIT:          0  MISS:          0

L2C TOTAL     ACCESS:   22613664  HIT:   14111491  MISS:    8502173  HIT %:    62.4025  MISS %:    37.5975   MPKI: 42.5109
L2C LOAD      ACCESS:   11117357  HIT:    9388854  MISS:    1728503  HIT %:    84.4522  MISS %:    15.5478   MPKI: 8.64251
L2C DATA LOAD MPKI: 5.40963
L2C INSTRUCTION LOAD MPKI: 3.23289
L2C RFO       ACCESS:    3581654  HIT:     136862  MISS:    3444792  HIT %:     3.8212  MISS %:    96.1788   MPKI: 17.224
L2C PREFETCH  ACCESS:    3443412  HIT:     258465  MISS:    3184947  HIT %:    7.50607  MISS %:    92.4939   MPKI: 15.9247
AGUS PREFETCH L1 MISS: 0
L2C DATA PREFETCH MPKI: 15.9247
L2C INSTRUCTION PREFETCH MPKI: 0
L2C WRITEBACK ACCESS:    4384222  HIT:    4280249  MISS:     103973  HIT %:    97.6285  MISS %:    2.37153   MPKI: 0.519865
L2C LOAD TRANSLATION ACCESS:      87019  HIT:      47061  MISS:      39958  HIT %:    54.0813  MISS %:    45.9187   MPKI: 0.19979
L2C PREFETCH  REQUESTED:          0  ISSUED:          0  USEFUL:     218292  USELESS:    2966322
L2C USEFUL LOAD PREFETCHES:     218292 PREFETCH ISSUED TO LOWER LEVEL:    3211911  ACCURACY: 6.79633
L2C TIMELY PREFETCHES:     218292 LATE PREFETCHES: 26964 DROPPED PREFETCHES: 0
L2C PREFETCHES SAME FILL-ORIGIN LEVEL: 627550 DIFFERENT FILL-ORIGIN LEVEL: 0
L2C AVERAGE MISS LATENCY: 141.643 cycles
L2C RQ	ACCESS:   14786682	FORWARD:          0	MERGED:          0	TO_CACHE:   14786030
L2C WQ	ACCESS:    4384222	FORWARD:        652	MERGED:          0	TO_CACHE:    4384222
L2C PQ	ACCESS:    3551827	FORWARD:          0	MERGED:        699	TO_CACHE:    3551128

L2C Instructions Evicting Data 592237
L2C Translations Evicting Data 37333
L2C Data Evicting Data 7093679
L2C Instructions Evicting Instructions 51785
L2C Translations Evicting Instructions 2467
L2C Data Evicting Instructions 581132
L2C Instructions Evicting Translations 2556
L2C Translations Evicting Translations 158
L2C Data Evicting Translations 36853
L2C Dense regions hint from L2: 0
PSCL5 TOTAL     ACCESS:      78054  HIT:      78054  MISS:          0  HIT %:        100  MISS %:          0   MPKI: 0
PSCL5 LOAD TRANSLATION ACCESS:      78054  HIT:      78054  MISS:          0  HIT %:        100  MISS %:          0   MPKI: 0
PSCL5 PREFETCH  REQUESTED:          0  ISSUED:          0  USEFUL:          0  USELESS:          0
PSCL5 USEFUL LOAD PREFETCHES:          0 PREFETCH ISSUED TO LOWER LEVEL:          0  ACCURACY: -nan
PSCL5 TIMELY PREFETCHES:          0 LATE PREFETCHES: 0 DROPPED PREFETCHES: 0
PSCL5 PREFETCHES SAME FILL-ORIGIN LEVEL: 0 DIFFERENT FILL-ORIGIN LEVEL: 0

PSCL4 TOTAL     ACCESS:      73985  HIT:      73796  MISS:        189  HIT %:    99.7445  MISS %:   0.255457   MPKI: 0.000945
PSCL4 LOAD TRANSLATION ACCESS:      73985  HIT:      73796  MISS:        189  HIT %:    99.7445  MISS %:   0.255457   MPKI: 0.000945
PSCL4 PREFETCH  REQUESTED:          0  ISSUED:          0  USEFUL:          0  USELESS:          0
PSCL4 USEFUL LOAD PREFETCHES:          0 PREFETCH ISSUED TO LOWER LEVEL:          0  ACCURACY: -nan
PSCL4 TIMELY PREFETCHES:          0 LATE PREFETCHES: 0 DROPPED PREFETCHES: 0
PSCL4 PREFETCHES SAME FILL-ORIGIN LEVEL: 0 DIFFERENT FILL-ORIGIN LEVEL: 0

PSCL3 TOTAL     ACCESS:      78023  HIT:      77834  MISS:        189  HIT %:    99.7578  MISS %:   0.242236   MPKI: 0.000945
PSCL3 LOAD TRANSLATION ACCESS:      78023  HIT:      77834  MISS:        189  HIT %:    99.7578  MISS %:   0.242236   MPKI: 0.000945
PSCL3 PREFETCH  REQUESTED:          0  ISSUED:          0  USEFUL:          0  USELESS:          0
PSCL3 USEFUL LOAD PREFETCHES:          0 PREFETCH ISSUED TO LOWER LEVEL:          0  ACCURACY: -nan
PSCL3 TIMELY PREFETCHES:          0 LATE PREFETCHES: 0 DROPPED PREFETCHES: 0
PSCL3 PREFETCHES SAME FILL-ORIGIN LEVEL: 0 DIFFERENT FILL-ORIGIN LEVEL: 0

PSCL2 TOTAL     ACCESS:      78054  HIT:      69467  MISS:       8587  HIT %:    88.9986  MISS %:    11.0014   MPKI: 0.042935
PSCL2 LOAD TRANSLATION ACCESS:      78054  HIT:      69467  MISS:       8587  HIT %:    88.9986  MISS %:    11.0014   MPKI: 0.042935
PSCL2 PREFETCH  REQUESTED:          0  ISSUED:          0  USEFUL:          0  USELESS:          0
PSCL2 USEFUL LOAD PREFETCHES:          0 PREFETCH ISSUED TO LOWER LEVEL:          0  ACCURACY: -nan
PSCL2 TIMELY PREFETCHES:          0 LATE PREFETCHES: 0 DROPPED PREFETCHES: 0
PSCL2 PREFETCHES SAME FILL-ORIGIN LEVEL: 0 DIFFERENT FILL-ORIGIN LEVEL: 0

LLC TOTAL     ACCESS:   12501677  HIT:    5220653  MISS:    7281024  HIT %:    41.7596  MISS %:    58.2404   MPKI: 36.4051
LLC LOAD      ACCESS:    1702109  HIT:    1450561  MISS:     251548  HIT %:    85.2214  MISS %:    14.7786   MPKI: 1.25774
LLC RFO       ACCESS:    3444207  HIT:     844319  MISS:    2599888  HIT %:    24.5142  MISS %:    75.4858   MPKI: 12.9994
LLC PREFETCH  ACCESS:    3211902  HIT:    1387525  MISS:    1824377  HIT %:    43.1995  MISS %:    56.8005   MPKI: 9.12189
AGUS PREFETCH L1 MISS: 0
LLC WRITEBACK ACCESS:    4103501  HIT:    1525408  MISS:    2578093  HIT %:    37.1733  MISS %:    62.8267   MPKI: 12.8905
LLC LOAD TRANSLATION ACCESS:      39958  HIT:      12840  MISS:      27118  HIT %:    32.1337  MISS %:    67.8663   MPKI: 0.13559
LLC PREFETCH  REQUESTED:          0  ISSUED:          0  USEFUL:       5039  USELESS:    1818384
LLC USEFUL LOAD PREFETCHES:       5039 PREFETCH ISSUED TO LOWER LEVEL:    1824377  ACCURACY: 0.276204
LLC TIMELY PREFETCHES:       5039 LATE PREFETCHES: 0 DROPPED PREFETCHES: 0
LLC PREFETCHES SAME FILL-ORIGIN LEVEL: 0 DIFFERENT FILL-ORIGIN LEVEL: 0
LLC AVERAGE MISS LATENCY: 130.947 cycles
LLC RQ	ACCESS:    5186289	FORWARD:          0	MERGED:          0	TO_CACHE:    5186274
LLC WQ	ACCESS:    4103501	FORWARD:         24	MERGED:          0	TO_CACHE:    4103501
LLC PQ	ACCESS:    3211911	FORWARD:          0	MERGED:          0	TO_CACHE:    3211902

LLC Dense regions hint to LLC: 0

RAW hits: 2305042
Loads Generated: 47783216
Loads sent to L1D: 45478179
Stores Generated: 34178908
Stores sent to L1D: 34178909
Major fault: 0 Minor fault: 8494
Allocated PAGES: 8494
=== CPU 0 L1D Prefetcher Statistics ===
[MLOP] History of tracked zone:
IIIIIIIIIIIIIIIIIIIIIIIIIIIIIIIIIIIIIIIIIIIIIIIIIIIIIIIIIIIIIIII
IIIIIIIIIIIIIIIIIIIIIIIIIIIIIIIIIIIIIIIIIIAIIIIIIIIIIIIIIIIIIIII
IIIIAIIIIIIIIIIIIIIIIIIIIIIIIIIIIIIIIIIIIIAIIIIIIIIIIIIIIIIIIIII
AIIIAIIIIIIIIIIIIIIIIIIIIIIIIIIIIIIIIIIIIIAIIIIIIIIIIIIIIIIIIIII
AIIIAIIIIIIIIIIIIIIIIIIIIIIIIIIIIIIIIIIIIIAIIIIIIIIIIIIIAIIIIIII
AIIIAIIIIIIIIIIIIIIIIIIIIIIIIIIIIIIIIIIIIIA1111IIIIIIIIIAIIIIIII
AIIIAIIIIIIIIIIIIIIIIIIIIIIIIIIIIIIIIIIIIIA1111111111111A11IIIII
AIIIA11IIIIIIIIIIIIIIIIIIIIIIIIIIIIIIIIIIIA1111111111111A11IIIII
A1IIA11IIIIIIIIIIIIIIIIIIIIIIIIIIIIIIIIIIIA1111111111111A11IIIII
A1IIA11IIIIIIIIIIIIIIIIIIIIIIIIIIIIIIIIIIIA1111111111111A1111III
A1IIA111111111111111IIIIIIIIIIIIIIIIIIIIIIA1111111111111A1111III
A111A111111111111111IIIIIIIIIIIIIIIIIIIIIIA1111111111111A1111III
A111A111111111111111IIIIIIIIIIIIIIIIIIIIIIA1111111111111A1111111
A111A111111111111111IIIIIIIIIIIIIIIIIIIIIIA111111111A111A1111111
A111A111111111111111IIIIIIIIIIIIIIIIIIIIIIA111111111A111AA111111
A111A111111111111111IIIIIIIIIIIIIIII2I2IIIA111111111A111AA111111
A111A1111111111111112IIIIIIIIIIIIIII2I2IIIA111111111A111AA111111
A111A1111111111111111IIIIIIIIIIIIIII2I2IIIA111111111A111AA111111
A111A1111111111111111IIIIII2IIIIIIII2I2IIIA111111111A111AA111111
A111AA111111111111111IIIIII2IIIIIIII2I2IIIA111111111A111AA111111
A111AAA111111111111112IIIII2IIIIIIII2I2IIIA111111111A111AA111111
A12IIIIIIIIIIIIIIIIIIIIIIIIIIIIIIIIIIIIIIIIIIIIIIIIIIIIIIIIIIIII
A12IIIIIIIIIIIIIIIIIIIIIIIIIIIIIIIIIIIIIIIIIIIIIIIIIIIIIIA12IIII
A11II2IIIIIIIIIIIIIIIIIIIIIIIIIIIIIIIIIIIIIIIIIIIIIIIIIIIA12IIII
A11II2IIIIIIIIIIIIIIIIIIIIIIIIIIIIIIIIIIIIIIIIIIIIIIIIIIIA11II2I
A11II2IIIIIIIIIIIIIIIIIIIIIIIIIIIIIIIIIII2AIIIIIIIIIIIIIIA11II2I
A112A2IIIIIIIIIIIIIIIIIIIIIIIIIIIIIIIIIII2AIIIIIIIIIIIIIIA11II2I
A112A2IIIIIIIIIIIIIIIIIIIIIIIIIIIIIIIIIII2AIIIIIIIIIIII2AA11II2I
A112A2IIIIIIIIIIIIIIIIIIIIIIIIIIIIIIIIIII2A1IIII11111I11AA11II2I
A112A1IIII11111IIIIIIIIIIIIIIIIIIIIIIIIII2A1IIII11111I11AA11II2I
A112A11III11111IIIIIIIIIIIIIIIIIIIIIIIIII2A1IIII11111I11AA11II2I
A112A111111111122IIIIIIIIIIIIIIIIIIIIIIII2A1IIII11111I11AA11II2I
A112A111111111122IIIIIIIIIIIIIIIIIIIIIIII2A1IIII11111I11AA11II11
A112A1111111111211222IIIIIIIIIIIIIIIIIIII2A1IIII11111I11AA11II11
A112A1111111111211222IIIIIIIIIIIIIIIIIIII2A1112I11111I11AA11II11
A111A1111111111211222IIIIIIIIIIIIIIIIIIII2A1112I11111I11AA11II11
A111A1111111111211222IIIIIIIIIIIIIIIIIIII2A1112I11111I11AA112I11
A111A1111111111211222IIIIIIIIIIIIIIIIIIII2A1112211111I11AA112I11
A111A1111111111211222IIIIIIIIIIIIIIIIIIII2A1111111111111AA112I11
A111A1111111111111122IIIIIIIIIIIIIIIIIIII2A1111111111111AA112I11
A111A1111111111111122IIIIIIIIIIIIIIIIIIII2A1111111111111AA111111
A111A1111111111111122IIIIIIIIIIIIIIIIIIII2A111111111A111AA111111
A111A1111111111111122IIIIIIIIIIIIIIIII2II2A111111111A111AA111111
A111A1111111111111111IIIIIIIIIIIIIIIII2II2A111111111A111AA111111
A111AA1111111111111111IIIIIIIIIIIIIIII2II2A111111111A111AA111111
A111AAA111111111111111IIIIIIIIIIIIIIII2II2A111111111A111AA111111
A111AAA111111111111111IIIIII2I2IIIIIII2II2A111111111A111AA111111
A111AAA111111111111111IIIIII2I2I2IIIII2II2A111111111A111AA111111
A111AAA111111111111111IIIIII2I2I2III2I2II2A111111111A111AA111111
A111AAA111111111111111IIIIII2I2I2III2I22I2A111111111A111AA111111
A111AAA1111111111111111IIIII2I2I2III2I22I2A111111111A111AA111111
A12IIIIIIIIIIIIIIIIIIIIIIIIIIIIIIIIIIIIIIIIIIIIIIIIIIIIIIIIIIIII
A12IIIIIIIIIIIIIIIIIIIIIIIIIIIIIIIIIIIIIIIIIIIIIIIIIIIIIIA12IIII
A11II2IIIIIIIIIIIIIIIIIIIIIIIIIIIIIIIIIIIIIIIIIIIIIIIIIIIA12IIII
A11II2IIIIIIIIIIIIIIIIIIIIIIIIIIIIIIIIIIIIIIIIIIIIIIIIIIIA11II2I
A11II2IIIIIIIIIIIIIIIIIIIIIIIIIIIIIIIIIII2AIIIIIIIIIIIIIIA11II2I
A112A2IIIIIIIIIIIIIIIIIIIIIIIIIIIIIIIIIII2AIIIIIIIIIIIIIIA11II2I
A112A2IIIIIIIIIIIIIIIIIIIIIIIIIIIIIIIIIII2AIIIIIIIIIIII2AA11II2I
A112A2IIIIIIIIIIIIIIIIIIIIIIIIIIIIIIIIIII2A1IIII112I2I22AA11II2I
A112A1IIII112I2I22I2IIIIIIIIIIIIIIIIIIIII2A1IIII112I2I22AA11II2I
A112A111II112I2I22I2IIIIIIIIIIIIIIIIIIIII2A1IIII112I2I22AA11II2I
A112A1112I11222222I2IIIIIIIIIIIIIIIIIIIII2A1IIII112I2I22AA11II2I
A112A1112I11222222I2IIIIIIIIIIIIIIIIIIIII2A1IIII112I2I22AA11II11
A112A1112I11222222I2IIIIIIIIIIIIIIIIIIIII2A1112I112I2I22AA11II11
A111A1112I11222222I2IIIIIIIIIIIIIIIIIIIII2A1112I112I2I22AA11II11
A111A1112I11222222I2IIIIIIIIIIIIIIIIIIIII2A1112I112I2I22AA112I11
A111A1112I11222222I2IIIIIIIIIIIIIIIIIIIII2A11122112I2I22AA112I11
A111A1112I11222222I2IIIIIIIIIIIIIIIIIIIII2A1111111111111AA112I11
A111A1111111111111112IIIIIIIIIIIIIIIIIIII2A1111111111111AA112I11
A111A1111111111111112IIIIIIIIIIIIIIIIIIII2A1111111111111AA111111
A111A1111111111111112IIIIIIIIIIIIIIIIIIII2A111111111A111AA111111
A111A1111111111111111IIIIIIIIIIIIIIIIIIII2A111111111A111AA111111
A111AA1111111111111111IIIIIIIIIIIIIIIIIII2A111111111A111AA111111
A111AAA1111111111111111IIIIIIIIIIIIIIIIII2A111111111A111AA111111
A111AAA1111111111111111I11IIIIIIIIIIIIIII2A111111111A111AA111111
A111AAA1111111111111111I11IIIIIIIIII2IIII2A111111111A111AA111111
A111AAA1111111111111111I111IIIIIIIII2IIII2A111111111A111AA111111
A111AAA1111111111111111I111I2I2I2III2IIII2A111111111A111AA111111
A111AAA11111111111111111111I2I2I2III2IIII2A111111111A111AA111111
AI1II2IIIIIIIIII2IIIIIIIIIIIIIIIIIIIIIIIIIIIIIIIIIIIIIIIIIIIIIII
AI1II2IIIIIIIIII2IIIIIIIIIIIIIIIIIIIIIIIIIIIIIIIIIIIIIIIIAI1II2I
AI1II2IIIIIIIIII2IIIIIIIIIIIIIII2IIIIIIIIIAI2IIIIIIIIIIIIAI1II2I
AI1IA22IIIIIIIII2IIIIIIIIIIIIIII2IIIIIIIIIAI2IIIIIIIIIIIIAI1II2I
AI1IA22IIIIIIIII2IIIIIIIIIIIIIII2IIIIIIIIIAI2I2IIIIIIIIIAA21II2I
AI1IA22IIIIIIIII2IIIIIIIIIIIIIII2IIIIIIIIIA12I1I112I2I22AA21II2I
AI1IA12I1I112I2I22IIIIIIIIIIIIII2IIIIIIIIIA12I1I112I2I22AA21II2I
A11IA12I1I112I2I22IIIIIIIIIIIIII2IIIIIIIIIA12I1I112I2I22AA21II2I
A11IA1111I11222I22IIIIIIIIIIIIII2IIIIIIIIIA12I1I112I2I22AA21II2I
A11IA1111I11222I22IIIIIIIIIIIIII2IIIIIIIIIA12I1I112I2I22AA211I11
A11IA1111I11222I22IIIIIIIIIIIIII2IIIIIIIIIA1211111111I21AA111I11
A11IA1111111111I21111IIIIIIIIIII2IIIIIIIIIA1211111111I21AA111I11
A111A1111111111111111IIIIIIIIIII2IIIIIIIIIA1211111111I21AA111I11
A111A1111111111111111IIIIIIIIIII2IIIIIIIIIA1211111111I21AA111111
A111A1111111111111111IIIIIIIIIII2IIIIIIIIIA1111111111111AA111111
A111A1111111111111111IIIIIIIIIII2IIIIIIIIIA111111111A111AA111111
A111A1111111111111111I1I11IIIIII2IIIIIIIIIA111111111A111AA111111
A111A111111111111111111I11IIIIII2IIIIIIIIIA111111111A111AA111111
A111A111111111111111111211IIIIII2IIIIIIIIIA111111111A111AA111111
A111A111111111111111111211IIIIII2III2IIIIIA111111111A111AA111111
A111AA11111111111111111211IIIIII2III2IIIIIA111111111A111AA111111
A111AAA1111111111111111211IIIIII2III2IIIIIA111111111A111AA111111
A111AAA1111111111111111211IIII2I2III2IIIIIA111111111A111AA111111
A111AAA1111111111111111111IIII2I2III2IIIIIA111111111A111AA111111
AI1II2I2IIIIIIII2IIIIIIIIIIIIIIIIIIIIIIIIIIIIIIIIIIIIIIIIIIIIIII
AI1II2I2IIIIIIII2IIIIIIIIIIIIIIIIIIIIIIIIIIIIIIIIIIIIIIIIAI1II2I
AI1II2I2IIIIIIII2IIIIIIIIIIIIIII2III2IIIIIA2IIIIIIIIIIIIIAI1II2I
AI1IA2I2IIIIIIII2IIIIIIIIIIIIIII2III2IIIIIA2IIIIIIIIIIIIIAI1II2I
A21IA2I2IIIIIIII2IIIIIIIIIIIIIII2III2IIIIIA2IIIIIIIIIIIIIAI1II2I
A21IA2I2IIIIIIII2IIIIIIIIIIIIIII2III2IIIIIA2II2III2IIIIIAAI1II2I
A21IA2I2IIIIIIII2IIIIIIIIIIIIIII2III2IIIIIA1II2I11111I22AAI1II2I
A21IA1I2II11111I22I2IIIIIIIIIIII2III2IIIIIA1II2I11111I22AAI1II2I
A11IA1111111111222I2IIIIIIIIIIII2III2IIIIIA1II2I11111I22AAI1II2I
A11IA1111111111222I2IIIIIIIIIIII2III2IIIIIA1II2I11111I22AAI1II11
A11IA1111111111222I2IIIIIIIIIIII2III2IIIIIA1111111111111AAI1II11
A11IA111111111111111I1IIIIIIIIII2III2IIIIIA1111111111111AAI1II11
A111A111111111111111I1IIIIIIIIII2III2IIIIIA1111111111111AAI1II11
A111A111111111111111I1IIIIIIIIII2III2IIIIIA1111111111111AA111111
A111A11111111111111111IIIIIIIIII2III2IIIIIA1111111111111AA111111
A111A11111111111111111IIIIIIIIII2III2IIIIIA111111111A111AA111111
A111A111111111111111111IIIIIIIII2III2IIIIIA111111111A111AA111111
A111A11111111111111111122IIIIIII2III2IIIIIA111111111A111AA111111
A111A1111111111111111111212IIIII2III2IIIIIA111111111A111AA111111
A111A1111111111111111111212IIIII22II2IIIIIA111111111A111AA111111
A111A1111111111111111111112IIIII22II2IIIIIA111111111A111AA111111
A111AA111111111111111111112IIIII22II2IIIIIA111111111A111AA111111
A111AAA11111111111111111112IIIII22II2IIIIIA111111111A111AA111111
A111AAA11111111111111111112III2I22II2IIIIIA111111111A111AA111111
A111AAA11111111111111111112I2I2I22II2IIIIIA111111111A111AA111111
AI1II2I2III2IIIIIIIIIIIIIIIIIIIIIIIIIIIIIIIIIIIIIIIIIIIIIIIIIIII
AI1II2I2III2IIIIIIIIIIIIIIIIIIIIIIIIIIIIIIIIIIIIIIIIIIIIIAI1II2I
AI1II2I2III2IIIIIIIIIIIIIIIIIIIIIIIIIIIIIIA2IIIIIIIIIIIIIAI1II2I
AI1IA2I2III2IIIIIIIIIIIIIIIIIIIIIIIIIIIIIIA2IIIIIIIIIIIIIAI1II2I
A21IA2I2III2IIIIIIIIIIIIIIIIIIIIIIIIIIIIIIA2IIIIIIIIIIIIIAI1II2I
A21IA2I2III2IIIIIIIIIIIIIIIIIIIIIIIIIIIIIIA2IIIIIIIIIIIIAAI1II2I
A21IA2I2III2IIIIIIIIIIIIIIIIIIIIIIIIIIIIIIA1I11I11111111AAI1II2I
A21IA1I11I12IIIIIIIIIIIIIIIIIIIIIIIIIIIIIIA1I11I11111111AAI1II2I
A111A1111111IIIIIIIIIIIIIIIIIIIIIIIIIIIIIIA1I11I11111111AAI1II2I
A111A1111111111IIIIIIIIIIIIIIIIIIIIIIIIIIIA1I11I11111111AAI1II2I
A111A1111111111IIIIIIIIIIIIIIIIIIIIIIIIIIIA1I11I11111111AAI11I1I
A111A1111111111IIIIIIIIIIIIIIIIIIIIIIIIIIIA1I11111111111AA111I1I
A111A11111111111I1111IIIIIIIIIIIIIIIIIIIIIA1I11111111111AA111I1I
A111A1111111111111111IIIIIIIIIIIIIIIIIIIIIA1I11111111111AA111I1I
A111A1111111111111111IIIIIIIIIIIIIIIIIIIIIA1I11111111111AA111111
A111A1111111111111111IIIIIIIIIIIIIIIIIIIIIA1111111111111AA111111
A111A1111111111111111IIIIIIIIIIIIIIIIIIIIIA111111111A111AA111111
A111A1111111111111111111IIIIIIIIIIIIIIIIIIA111111111A111AA111111
A111A11111111111111111111IIIIIIIIIIIIIIIIIA111111111A111AA111111
A111A11111111111111111111I11IIIIIIIIIIIIIIA111111111A111AA111111
A111A11111111111111111111I11IIIIIIII2IIIIIA111111111A111AA111111
A111AA1111111111111111111I11IIIIIIII2IIIIIA111111111A111AA111111
A111AAA111111111111111111I11IIIIIIII2IIIIIA111111111A111AA111111
A111AAA111111111111111111I11II2IIIII2IIIIIA111111111A111AA111111
A111AAA111111111111111111I11II2I2III2IIIIIA111111111A111AA111111
A111AAA111111111111111111211II2I2III2IIIIIA111111111A111AA111111
A111AAA111111111111111111111II2I2III2IIIIIA111111111A111AA111111
AI1II2I2IIIIIIIIIIIIIIIIIIIIIIIIIIIIIIIIIIIIIIIIIIIIIIIIIIIIIIII
AI1II2I2IIIIIIIIIIIIIIIIIIIIIIIIIIIIIIIIIIIIIIIIIIIIIIIIIAI1II2I
AI1II2I2IIIIIIIIIIIIIIIIIIIIIIIIIIIIIIIIIIA2IIIIIIIIIIIIIAI1II2I
AI1IA2I2IIIIIIIIIIIIIIIIIIIIIIIIIIIIIIIIIIA2IIIIIIIIIIIIIAI1II2I
A21IA2I2IIIIIIIIIIIIIIIIIIIIIIIIIIIIIIIIIIA2IIIIIIIIIIIIIAI1II2I
A21IA2I2IIIIIIIIIIIIIIIIIIIIIIIIIIIIIIIIIIA2IIIIIIIIIIIIAAI1II2I
A21IA2I2IIIIIIIIIIIIIIIIIIIIIIIIIIIIIIIIIIA1I11I11111111AAI1II2I
A21IA1I11I1IIIIIIIIIIIIIIIIIIIIIIIIIIIIIIIA1I11I11111111AAI1II2I
A111A111111111IIIIIIIIIIIIIIIIIIIIIIIIIIIIA1I11I11111111AAI1II2I
A111A111111111IIIIIIIIIIIIIIIIIIIIIIIIIIIIA1I11I11111111AAI11I11
A111A111111111IIIIIIIIIIIIIIIIIIIIIIIIIIIIA1I11111111111AA111I11
A111A1111111111111111IIIIIIIIIIIIIIIIIIIIIA1I11111111111AA111I11
A111A1111111111111111IIIIIIIIIIIIIIIIIIIIIA1I11111111111AA111111
A111A1111111111111111IIIIIIIIIIIIIIIIIIIIIA1111111111111AA111111
A111A1111111111111111IIIIIIIIIIIIIIIIIIIIIA111111111A111AA111111
A111A1111111111111111I1IIIIIIIIIIIIIIIIIIIA111111111A111AA111111
A111A1111111111111111I11IIIIIIIIIIIIIIIIIIA111111111A111AA111111
A111A1111111111111111111IIIIIIIIIIIIIIIIIIA111111111A111AA111111
A111A1111111111111111111IIIIII2I2III2IIIIIA111111111A111AA111111
A111A1111111111111111111III1II2I2III2IIIIIA111111111A111AA111111
A111AA111111111111111111III1II2I2III2IIIIIA111111111A111AA111111
A111AAA11111111111111111III1II2I2III2IIIIIA111111111A111AA111111
A111AAA11111111111111111III12I2I2III2IIIIIA111111111A111AA111111
A111AAA1111111111111111112I12I2I2III2IIIIIA111111111A111AA111111
A111AAA1111111111111111112112I2I2III2IIIIIA111111111A111AA111111
A111AAA1111111111111111112112I2I22II2IIIIIA111111111A111AA111111
AI1II2I2III2IIII2IIIIIIIIIIIIIIIIIIIIIIIIIIIIIIIIIIIIIIIIIIIIIII
AI1II2I2III2IIII2IIIIIIIIIIIIIIIIIIIIIIIIIIIIIIIIIIIIIIIIAI1II2I
AI1II2I2III2IIII2IIIIIIIIIIIIIII2IIIIIIIIIAI2IIIIIIIIIIIIAI1II2I
AI1IA222III2IIII2IIIIIIIIIIIIIII2IIIIIIIIIAI2IIIIIIIIIIIIAI1II2I
AI1IA222III2IIII2IIIIIIIIIIIIIII2IIIIIIIIIAI2I2IIIIIIIIIAA21II2I
AI1IA222III2IIII2IIIIIIIIIIIIIII2IIIIIIIIIA12I1I111I2I22AA21II2I
AI1IA1221I111I2I22I2IIIIIIIIIIII2IIIIIIIIIA12I1I111I2I22AA21II2I
A11IA1111I11122222I2IIIIIIIIIIII2IIIIIIIIIA12I1I111I2I22AA21II2I
A11IA1111I11122222I2IIIIIIIIIIII2IIIIIIIIIA12I1I111I2I22AA211I11
A11IA1111I11122222I2IIIIIIIIIIII2IIIIIIIIIA11111111I1111AA211I11
A11IA1111111121111122IIIIIIIIIII2IIIIIIIIIA11111111I1111AA211I11
A111A1111111111111122IIIIIIIIIII2IIIIIIIIIA11111111I1111AA211I11
A111A1111111111111122IIIIIIIIIII2IIIIIIIIIA11111111I1111AA111111
A111A1111111111111122IIIIIIIIIII2IIIIIIIIIA1111111111111AA111111
A111A1111111111111112IIIIIIIIIII2IIIIIIIIIA1111111111111AA111111
A111A1111111111111111IIIIIIIIIII2IIIIIIIIIA1111111111111AA111111
A111A1111111111111111IIIIIIIIIII2IIIIIIIIIA111111111A111AA111111
A111A1111111111111111I111IIIIIII2IIIIIIIIIA111111111A111AA111111
A111A11111111111111111111IIIIIII2IIIIIIIIIA111111111A111AA111111
A111AA1111111111111111111IIIIIII2IIIIIIIIIA111111111A111AA111111
A111AAA111111111111111111IIIIIII2IIIIIIIIIA111111111A111AA111111
A111AAA111111111111111111IIIII2I2IIIIIIIIIA111111111A111AA111111
A111AAA111111111111111111IIIII2I2III2IIIIIA111111111A111AA111111
A111AAA111111111111111111III2I2I2III2IIIIIA111111111A111AA111111
A111AAA11111111111111111111I2I2I2III2IIIIIA111111111A111AA111111
AI1II2I2III2IIIIIIIIIIIIIIIIIIIIIIIIIIIIIIIIIIIIIIIIIIIIIIIIIIII
AI1II2I2III2IIIIIIIIIIIIIIIIIIIIIIIIIIIIIIIIIIIIIIIIIIIIIAI1II2I
AI1II2I2III2IIIIIIIIIIIIIIIIII2I2IIIIIIIIIA2IIIIIIIIIIIIIAI1II2I
AI1IA2I2III2IIIIIIIIIIIIIIIIII2I2IIIIIIIIIA2IIIIIIIIIIIIIAI1II2I
A21IA2I2III2IIIIIIIIIIIIIIIIII2I2IIIIIIIIIA2IIIIIIIIIIIIIAI1II2I
A21IA2I2III2IIIIIIIIIIIIIIIIII2I2IIIIIIIIIA22I2IIIIIIIIIAAI1II2I
A21IA2I2III2IIIIIIIIIIIIIIIIII2I2IIIIIIIIIA12I1I11111I12AAI1II2I
A21IA1I21I11111I1IIIIIIIIIIIII2I2IIIIIIIIIA12I1I11111I12AAI1II2I
A11IA1111111111I1IIIIIIIIIIIII2I2IIIIIIIIIA12I1I11111I12AAI1II2I
A11IA1111111111I1IIIIIIIIIIIII2I2IIIIIIIIIA12I1I11111I12AAI11I11
A11IA1111111111I1IIIIIIIIIIIII2I2IIIIIIIIIA1211111111111AA111I11
A11IA1111111111111111IIIIIIIII2I2IIIIIIIIIA1211111111111AA111I11
A111A1111111111111111IIIIIIIII2I2IIIIIIIIIA1211111111111AA111I11
A111A1111111111111111IIIIIIIII2I2IIIIIIIIIA1211111111111AA111111
A111A1111111111111111IIIIIIIII2I2IIIIIIIIIA1111111111111AA111111
A111A1111111111111111IIIIIIIII2I2IIIIIIIIIA111111111A111AA111111
A111A1111111111111111III111III2I2IIIIIIIIIA111111111A111AA111111
A111A111111111111111111I111III2I2IIIIIIIIIA111111111A111AA111111
A111A1111111111111111111111III2I2IIIIIIIIIA111111111A111AA111111
A111AA111111111111111111111III2I2IIIIIIIIIA111111111A111AA111111
A111AAA11111111111111111111III2I2IIIIIIIIIA111111111A111AA111111
A111AAA11111111111111111111III2I2III2IIIIIA111111111A111AA111111
[MLOP] Prefetch Degree Mean: 8.49876
[MLOP] Prefetch Degree SD: 5.53278
[MLOP] Max Score Left Mean (%): 36.833
[MLOP] Max Score Left SD (%): 14.1244
[MLOP] Max Score Right Mean (%): 65.8126
[MLOP] Max Score Right SD (%): 23.1014

DRAM Statistics
 CHANNEL 0
 RQ ROW_BUFFER_HIT:    2583311  ROW_BUFFER_MISS:    2119055
 DBUS_CONGESTED:       3761
 WQ ROW_BUFFER_HIT:     499256  ROW_BUFFER_MISS:    2225861  FULL:      22594

 AVG_CONGESTED_CYCLE: 4
 All warmup complete: 2
Channel 0 Bank busy for read cycles: 0
Channel 0 Bank busy for write cycles: 0
Channel 0
Rank 0
0banks busy for read cycles: 153757452
0banks busy for write cycles: 234654
1banks busy for read cycles: 27114803
1banks busy for write cycles: 27861772
2banks busy for read cycles: 13970328
2banks busy for write cycles: 13227667
3banks busy for read cycles: 17487834
3banks busy for write cycles: 8409238
4banks busy for read cycles: 6793677
4banks busy for write cycles: 6434819
5banks busy for read cycles: 6186207
5banks busy for write cycles: 5524829
6banks busy for read cycles: 7012567
6banks busy for write cycles: 5171713
7banks busy for read cycles: 9399118
7banks busy for write cycles: 7010799
8banks busy for read cycles: 22579410
8banks busy for write cycles: 29239971

CPU 0 Branch Prediction Accuracy: 99.9484% MPKI: 0.078705 Average ROB Occupancy at Mispredict: 107.31
Branch types
NOT_BRANCH: 169466867 84.7334%
BRANCH_DIRECT_JUMP: 1660636 0.830318%
BRANCH_INDIRECT: 10006677 5.00334%
BRANCH_CONDITIONAL: 12018715 6.00936%
BRANCH_DIRECT_CALL: 2826795 1.4134%
BRANCH_INDIRECT_CALL: 596648 0.298324%
BRANCH_RETURN: 3423438 1.71172%
BRANCH_OTHER: 0 0%

DRAM PAGES: 1048576
Allocated PAGES: 8494
