
*** ChampSim Multicore Out-of-Order Simulator ***

Warmup Instructions: 50000000
Simulation Instructions: 200000000
Number of CPUs: 1
LLC sets: 2048
LLC ways: 16
Off-chip DRAM Size: 4096 MB Channels: 1 Width: 64-bit Data Rate: 6400 MT/s
CPU 0 runs traces/spec2k17/srv_32.champsimtrace.xz
.xz
BTB has LRU replacement policy
ITLB has LRU replacement policy
DTLB has LRU replacement policy
STLB has LRU replacement policy
L1I has LRU replacement policy
L1D has LRU replacement policy
Initialize SRRIP state for L2C
Initialize DRRIP state for LLC
Heartbeat CPU 0 instructions: 10000001 cycles: 2787888 heartbeat IPC: 3.58695 cumulative IPC: 3.58695 (Simulation time: 0 hr 0 min 36 sec) 
Heartbeat CPU 0 instructions: 20000002 cycles: 5573479 heartbeat IPC: 3.5899 cumulative IPC: 3.58842 (Simulation time: 0 hr 1 min 8 sec) 
Heartbeat CPU 0 instructions: 30000003 cycles: 8358995 heartbeat IPC: 3.59 cumulative IPC: 3.58895 (Simulation time: 0 hr 1 min 41 sec) 
*** Reached end of trace for Core: 0 Repeating trace: traces/spec2k17/srv_32.champsimtrace.xz
Heartbeat CPU 0 instructions: 40000003 cycles: 11144259 heartbeat IPC: 3.59032 cumulative IPC: 3.58929 (Simulation time: 0 hr 2 min 19 sec) 
Heartbeat CPU 0 instructions: 50000001 cycles: 13929735 heartbeat IPC: 3.59005 cumulative IPC: 3.58944 (Simulation time: 0 hr 2 min 54 sec) 

Warmup complete CPU 0 instructions: 50000001 cycles: 13929735 (Simulation time: 0 hr 2 min 54 sec) 

Heartbeat CPU 0 instructions: 60000002 cycles: 34070779 heartbeat IPC: 0.496499 cumulative IPC: 0.496499 (Simulation time: 0 hr 3 min 47 sec) 
*** Reached end of trace for Core: 0 Repeating trace: traces/spec2k17/srv_32.champsimtrace.xz
Heartbeat CPU 0 instructions: 70000002 cycles: 53996530 heartbeat IPC: 0.501863 cumulative IPC: 0.499166 (Simulation time: 0 hr 4 min 40 sec) 
Heartbeat CPU 0 instructions: 80000000 cycles: 73924623 heartbeat IPC: 0.501804 cumulative IPC: 0.500043 (Simulation time: 0 hr 5 min 28 sec) 
Heartbeat CPU 0 instructions: 90000002 cycles: 93974200 heartbeat IPC: 0.498764 cumulative IPC: 0.499722 (Simulation time: 0 hr 6 min 25 sec) 
*** Reached end of trace for Core: 0 Repeating trace: traces/spec2k17/srv_32.champsimtrace.xz
Heartbeat CPU 0 instructions: 100000000 cycles: 113898246 heartbeat IPC: 0.501906 cumulative IPC: 0.500157 (Simulation time: 0 hr 7 min 14 sec) 
Heartbeat CPU 0 instructions: 110000000 cycles: 133797398 heartbeat IPC: 0.502534 cumulative IPC: 0.500552 (Simulation time: 0 hr 8 min 3 sec) 
Heartbeat CPU 0 instructions: 120000000 cycles: 153826957 heartbeat IPC: 0.499262 cumulative IPC: 0.500367 (Simulation time: 0 hr 8 min 54 sec) 
*** Reached end of trace for Core: 0 Repeating trace: traces/spec2k17/srv_32.champsimtrace.xz
Heartbeat CPU 0 instructions: 130000003 cycles: 173747403 heartbeat IPC: 0.501997 cumulative IPC: 0.50057 (Simulation time: 0 hr 9 min 51 sec) 
Heartbeat CPU 0 instructions: 140000001 cycles: 193645914 heartbeat IPC: 0.50255 cumulative IPC: 0.50079 (Simulation time: 0 hr 10 min 40 sec) 
Heartbeat CPU 0 instructions: 150000002 cycles: 213670404 heartbeat IPC: 0.499389 cumulative IPC: 0.500649 (Simulation time: 0 hr 11 min 31 sec) 
*** Reached end of trace for Core: 0 Repeating trace: traces/spec2k17/srv_32.champsimtrace.xz
Heartbeat CPU 0 instructions: 160000000 cycles: 233589541 heartbeat IPC: 0.50203 cumulative IPC: 0.500774 (Simulation time: 0 hr 12 min 19 sec) 
Heartbeat CPU 0 instructions: 170000000 cycles: 253478176 heartbeat IPC: 0.5028 cumulative IPC: 0.500943 (Simulation time: 0 hr 13 min 13 sec) 
Heartbeat CPU 0 instructions: 180000002 cycles: 273507840 heartbeat IPC: 0.49926 cumulative IPC: 0.500813 (Simulation time: 0 hr 14 min 9 sec) 
*** Reached end of trace for Core: 0 Repeating trace: traces/spec2k17/srv_32.champsimtrace.xz
Heartbeat CPU 0 instructions: 190000000 cycles: 293417156 heartbeat IPC: 0.502277 cumulative IPC: 0.500917 (Simulation time: 0 hr 15 min 3 sec) 
Heartbeat CPU 0 instructions: 200000003 cycles: 313312513 heartbeat IPC: 0.50263 cumulative IPC: 0.501031 (Simulation time: 0 hr 15 min 56 sec) 
Heartbeat CPU 0 instructions: 210000002 cycles: 333317721 heartbeat IPC: 0.49987 cumulative IPC: 0.500958 (Simulation time: 0 hr 16 min 48 sec) 
Heartbeat CPU 0 instructions: 220000000 cycles: 353235420 heartbeat IPC: 0.502066 cumulative IPC: 0.501023 (Simulation time: 0 hr 17 min 44 sec) 
*** Reached end of trace for Core: 0 Repeating trace: traces/spec2k17/srv_32.champsimtrace.xz
Heartbeat CPU 0 instructions: 230000001 cycles: 373133285 heartbeat IPC: 0.502567 cumulative IPC: 0.501109 (Simulation time: 0 hr 18 min 41 sec) 
Heartbeat CPU 0 instructions: 240000002 cycles: 393036108 heartbeat IPC: 0.502441 cumulative IPC: 0.501179 (Simulation time: 0 hr 19 min 29 sec) 
Heartbeat CPU 0 instructions: 250000001 cycles: 413049591 heartbeat IPC: 0.499663 cumulative IPC: 0.501103 (Simulation time: 0 hr 20 min 22 sec) 
Finished CPU 0 instructions: 200000000 cycles: 399119856 cumulative IPC: 0.501103 (Simulation time: 0 hr 20 min 22 sec) 

ChampSim completed all CPUs

Region of Interest Statistics

CPU 0 cumulative IPC: 0.501103 instructions: 200000000 cycles: 399119856
ITLB TOTAL     ACCESS:   35162358  HIT:   32675905  MISS:    2486453  HIT %:    92.9287  MISS %:    7.07135   MPKI: 12.4323
ITLB LOAD TRANSLATION ACCESS:   35162358  HIT:   32675905  MISS:    2486453  HIT %:    92.9287  MISS %:    7.07135   MPKI: 12.4323
ITLB PREFETCH  REQUESTED:          0  ISSUED:          0  USEFUL:          0  USELESS:          0
ITLB USEFUL LOAD PREFETCHES:          0 PREFETCH ISSUED TO LOWER LEVEL:          0  ACCURACY: -nan
ITLB TIMELY PREFETCHES:          0 LATE PREFETCHES: 0 DROPPED PREFETCHES: 0
ITLB PREFETCHES SAME FILL-ORIGIN LEVEL: 0 DIFFERENT FILL-ORIGIN LEVEL: 0
ITLB AVERAGE MISS LATENCY: 9.02624 cycles
ITLB RQ	ACCESS:   41427237	FORWARD:          0	MERGED:    5454536	TO_CACHE:   35972701

DTLB TOTAL     ACCESS:   40138095  HIT:   38122788  MISS:    2015307  HIT %:    94.9791  MISS %:    5.02093   MPKI: 10.0765
DTLB LOAD TRANSLATION ACCESS:   40138095  HIT:   38122788  MISS:    2015307  HIT %:    94.9791  MISS %:    5.02093   MPKI: 10.0765
DTLB PREFETCH  REQUESTED:          0  ISSUED:          0  USEFUL:          0  USELESS:          0
DTLB USEFUL LOAD PREFETCHES:          0 PREFETCH ISSUED TO LOWER LEVEL:          0  ACCURACY: -nan
DTLB TIMELY PREFETCHES:          0 LATE PREFETCHES: 0 DROPPED PREFETCHES: 0
DTLB PREFETCHES SAME FILL-ORIGIN LEVEL: 0 DIFFERENT FILL-ORIGIN LEVEL: 0
DTLB AVERAGE MISS LATENCY: 9.74298 cycles
DTLB RQ	ACCESS:   55966784	FORWARD:          0	MERGED:   15674087	TO_CACHE:   40292697

STLB TOTAL     ACCESS:    5079902  HIT:    5057472  MISS:      22430  HIT %:    99.5585  MISS %:   0.441544   MPKI: 0.11215
STLB LOAD TRANSLATION ACCESS:    4501760  HIT:    4479331  MISS:      22429  HIT %:    99.5018  MISS %:   0.498227   MPKI: 0.112145
STLB TRANSLATION FROM L1D PREFETCHER ACCESS:     578142  HIT:     578141  MISS:          1  HIT %:    99.9998  MISS %: 0.000172968   MPKI: 5e-06
STLB PREFETCH  REQUESTED:          0  ISSUED:          0  USEFUL:          1  USELESS:          0
STLB USEFUL LOAD PREFETCHES:          1 PREFETCH ISSUED TO LOWER LEVEL:          0  ACCURACY: inf
STLB TIMELY PREFETCHES:          1 LATE PREFETCHES: 0 DROPPED PREFETCHES: 0
STLB PREFETCHES SAME FILL-ORIGIN LEVEL: 0 DIFFERENT FILL-ORIGIN LEVEL: 0
STLB AVERAGE MISS LATENCY: 68.7839 cycles
STLB RQ	ACCESS:    5672693	FORWARD:          0	MERGED:     592790	TO_CACHE:    5079903

STLB Hit, L1D data hit: 0
STLB Hit, L2C data hit: 0
STLB Hit, LLC data hit: 0
STLB Hit, LLC data miss: 0
STLB STLB hints to L2: 0
L1D TOTAL     ACCESS:   56035972  HIT:   54087095  MISS:    1948877  HIT %:    96.5221  MISS %:     3.4779   MPKI: 9.74438
L1D LOAD      ACCESS:   31367668  HIT:   30045383  MISS:    1322285  HIT %:    95.7846  MISS %:    4.21544   MPKI: 6.61142
L1D RFO       ACCESS:   24249672  HIT:   24021047  MISS:     228625  HIT %:    99.0572  MISS %:   0.942796   MPKI: 1.14312
L1D PREFETCH  ACCESS:     418632  HIT:      20665  MISS:     397967  HIT %:    4.93632  MISS %:    95.0637   MPKI: 1.98984
AGUS PREFETCH L1 MISS: 0
L1D PREFETCH  REQUESTED:    2344862  ISSUED:    2344862  USEFUL:     185302  USELESS:     212587
L1D USEFUL LOAD PREFETCHES:     185302 PREFETCH ISSUED TO LOWER LEVEL:    1124516  ACCURACY: 16.4784
L1D TIMELY PREFETCHES:     185302 LATE PREFETCHES: 3287 DROPPED PREFETCHES: 0
L1D PREFETCHES SAME FILL-ORIGIN LEVEL: 402116 DIFFERENT FILL-ORIGIN LEVEL: 722400
L1D AVERAGE MISS LATENCY: 468041 cycles
L1D RQ	ACCESS:   45996471	FORWARD:          0	MERGED:   14290886	TO_CACHE:   31453708
L1D WQ	ACCESS:   24705066	FORWARD:     251975	MERGED:     191990	TO_CACHE:   24513076
L1D PQ	ACCESS:    1173929	FORWARD:          0	MERGED:       2898	TO_CACHE:    1170933

L1D UNIQUE REGIONS ACCESSED: 0
L1D REGIONS CONFLICTS: 0
L1D Cross Page Prefetch Requests: 0
L1D Same Page Prefetch Requests: 1477302
L1D ROI Sum of L1D PQ occupancy: 15513471
L1D PREFETCHES PUSHED FROM L2C: 0
L1I TOTAL     ACCESS:   37485111  HIT:   22074947  MISS:   15410164  HIT %:    58.8899  MISS %:    41.1101   MPKI: 77.0508
L1I LOAD      ACCESS:   37485111  HIT:   22074947  MISS:   15410164  HIT %:    58.8899  MISS %:    41.1101   MPKI: 77.0508
L1I PREFETCH  REQUESTED:          0  ISSUED:          0  USEFUL:          0  USELESS:          0
L1I USEFUL LOAD PREFETCHES:          0 PREFETCH ISSUED TO LOWER LEVEL:          0  ACCURACY: -nan
L1I TIMELY PREFETCHES:          0 LATE PREFETCHES: 0 DROPPED PREFETCHES: 0
L1I PREFETCHES SAME FILL-ORIGIN LEVEL: 0 DIFFERENT FILL-ORIGIN LEVEL: 0
L1I AVERAGE MISS LATENCY: 14.1952 cycles
L1I RQ	ACCESS:   62465375	FORWARD:          0	MERGED:   21038138	TO_CACHE:   41427237

BTB TOTAL     ACCESS:   28035651  HIT:   24469448  MISS:    3566203  HIT %:    87.2798  MISS %:    12.7202   MPKI: 17.831
BTB BRANCH_DIRECT_JUMP	ACCESS:    2069035  HIT:    1957528  MISS:     111507
BTB BRANCH_INDIRECT	ACCESS:   12587391  HIT:   11351206  MISS:    1236185
BTB BRANCH_CONDITIONAL	ACCESS:    3930791  HIT:    3817367  MISS:     113424
BTB BRANCH_DIRECT_CALL	ACCESS:    3828229  HIT:    3576567  MISS:     251662
BTB BRANCH_INDIRECT_CALL	ACCESS:     895995  HIT:     719505  MISS:     176490
BTB BRANCH_RETURN	ACCESS:    4724210  HIT:    3047275  MISS:    1676935
BTB BRANCH_OTHER ACCESS:          0  HIT:          0  MISS:          0

L2C TOTAL     ACCESS:   19010417  HIT:   17664205  MISS:    1346212  HIT %:    92.9186  MISS %:    7.08144   MPKI: 6.73106
L2C LOAD      ACCESS:   16729120  HIT:   16216230  MISS:     512890  HIT %:    96.9341  MISS %:    3.06585   MPKI: 2.56445
L2C DATA LOAD MPKI: 2.34377
L2C INSTRUCTION LOAD MPKI: 0.22068
L2C RFO       ACCESS:     227763  HIT:     139493  MISS:      88270  HIT %:    61.2448  MISS %:    38.7552   MPKI: 0.44135
L2C PREFETCH  ACCESS:    1121041  HIT:     418986  MISS:     702055  HIT %:    37.3747  MISS %:    62.6253   MPKI: 3.51028
AGUS PREFETCH L1 MISS: 0
L2C DATA PREFETCH MPKI: 3.51028
L2C INSTRUCTION PREFETCH MPKI: 0
L2C WRITEBACK ACCESS:     901368  HIT:     881851  MISS:      19517  HIT %:    97.8347  MISS %:    2.16526   MPKI: 0.097585
L2C LOAD TRANSLATION ACCESS:      31123  HIT:       7645  MISS:      23478  HIT %:    24.5638  MISS %:    75.4362   MPKI: 0.11739
L2C TRANSLATION FROM L1D PREFETCHER ACCESS:          2  HIT:          0  MISS:          2  HIT %:          0  MISS %:        100   MPKI: 1e-05
L2C PREFETCH  REQUESTED:          0  ISSUED:          0  USEFUL:     128669  USELESS:     573103
L2C USEFUL LOAD PREFETCHES:     128669 PREFETCH ISSUED TO LOWER LEVEL:     704824  ACCURACY: 18.2555
L2C TIMELY PREFETCHES:     128669 LATE PREFETCHES: 2769 DROPPED PREFETCHES: 0
L2C PREFETCHES SAME FILL-ORIGIN LEVEL: 488147 DIFFERENT FILL-ORIGIN LEVEL: 0
L2C AVERAGE MISS LATENCY: 50.1085 cycles
L2C RQ	ACCESS:   16988050	FORWARD:          0	MERGED:          0	TO_CACHE:   16988008
L2C WQ	ACCESS:     901368	FORWARD:         42	MERGED:          0	TO_CACHE:     901368
L2C PQ	ACCESS:    1124516	FORWARD:          0	MERGED:         12	TO_CACHE:    1124504

L2C Instructions Evicting Data 41756
L2C Translations Evicting Data 22414
L2C Data Evicting Data 1195926
L2C Instructions Evicting Instructions 1778
L2C Translations Evicting Instructions 559
L2C Data Evicting Instructions 40915
L2C Instructions Evicting Translations 602
L2C Translations Evicting Translations 507
L2C Data Evicting Translations 22238
L2C Dense regions hint from L2: 0
PSCL5 TOTAL     ACCESS:      22430  HIT:      22430  MISS:          0  HIT %:        100  MISS %:          0   MPKI: 0
PSCL5 LOAD TRANSLATION ACCESS:      22429  HIT:      22429  MISS:          0  HIT %:        100  MISS %:          0   MPKI: 0
PSCL5 TRANSLATION FROM L1D PREFETCHER ACCESS:          1  HIT:          1  MISS:          0  HIT %:        100  MISS %:          0   MPKI: 0
PSCL5 PREFETCH  REQUESTED:          0  ISSUED:          0  USEFUL:          0  USELESS:          0
PSCL5 USEFUL LOAD PREFETCHES:          0 PREFETCH ISSUED TO LOWER LEVEL:          0  ACCURACY: -nan
PSCL5 TIMELY PREFETCHES:          0 LATE PREFETCHES: 0 DROPPED PREFETCHES: 0
PSCL5 PREFETCHES SAME FILL-ORIGIN LEVEL: 0 DIFFERENT FILL-ORIGIN LEVEL: 0

PSCL4 TOTAL     ACCESS:      22430  HIT:      22430  MISS:          0  HIT %:        100  MISS %:          0   MPKI: 0
PSCL4 LOAD TRANSLATION ACCESS:      22429  HIT:      22429  MISS:          0  HIT %:        100  MISS %:          0   MPKI: 0
PSCL4 TRANSLATION FROM L1D PREFETCHER ACCESS:          1  HIT:          1  MISS:          0  HIT %:        100  MISS %:          0   MPKI: 0
PSCL4 PREFETCH  REQUESTED:          0  ISSUED:          0  USEFUL:          0  USELESS:          0
PSCL4 USEFUL LOAD PREFETCHES:          0 PREFETCH ISSUED TO LOWER LEVEL:          0  ACCURACY: -nan
PSCL4 TIMELY PREFETCHES:          0 LATE PREFETCHES: 0 DROPPED PREFETCHES: 0
PSCL4 PREFETCHES SAME FILL-ORIGIN LEVEL: 0 DIFFERENT FILL-ORIGIN LEVEL: 0

PSCL3 TOTAL     ACCESS:      22358  HIT:      22328  MISS:         30  HIT %:    99.8658  MISS %:    0.13418   MPKI: 0.00015
PSCL3 LOAD TRANSLATION ACCESS:      22357  HIT:      22327  MISS:         30  HIT %:    99.8658  MISS %:   0.134186   MPKI: 0.00015
PSCL3 TRANSLATION FROM L1D PREFETCHER ACCESS:          1  HIT:          1  MISS:          0  HIT %:        100  MISS %:          0   MPKI: 0
PSCL3 PREFETCH  REQUESTED:          0  ISSUED:          0  USEFUL:          0  USELESS:          0
PSCL3 USEFUL LOAD PREFETCHES:          0 PREFETCH ISSUED TO LOWER LEVEL:          0  ACCURACY: -nan
PSCL3 TIMELY PREFETCHES:          0 LATE PREFETCHES: 0 DROPPED PREFETCHES: 0
PSCL3 PREFETCHES SAME FILL-ORIGIN LEVEL: 0 DIFFERENT FILL-ORIGIN LEVEL: 0

PSCL2 TOTAL     ACCESS:      22430  HIT:      13765  MISS:       8665  HIT %:    61.3687  MISS %:    38.6313   MPKI: 0.043325
PSCL2 LOAD TRANSLATION ACCESS:      22430  HIT:      13765  MISS:       8665  HIT %:    61.3687  MISS %:    38.6313   MPKI: 0.043325
PSCL2 PREFETCH  REQUESTED:          0  ISSUED:          0  USEFUL:          0  USELESS:          0
PSCL2 USEFUL LOAD PREFETCHES:          0 PREFETCH ISSUED TO LOWER LEVEL:          0  ACCURACY: -nan
PSCL2 TIMELY PREFETCHES:          0 LATE PREFETCHES: 0 DROPPED PREFETCHES: 0
PSCL2 PREFETCHES SAME FILL-ORIGIN LEVEL: 0 DIFFERENT FILL-ORIGIN LEVEL: 0

LLC TOTAL     ACCESS:    1745864  HIT:    1569000  MISS:     176864  HIT %:    89.8695  MISS %:    10.1305   MPKI: 0.88432
LLC LOAD      ACCESS:     510401  HIT:     466635  MISS:      43766  HIT %:    91.4252  MISS %:    8.57483   MPKI: 0.21883
LLC RFO       ACCESS:      87989  HIT:      68450  MISS:      19539  HIT %:    77.7938  MISS %:    22.2062   MPKI: 0.097695
LLC PREFETCH  ACCESS:     704824  HIT:     594175  MISS:     110649  HIT %:    84.3012  MISS %:    15.6988   MPKI: 0.553245
AGUS PREFETCH L1 MISS: 0
LLC WRITEBACK ACCESS:     419170  HIT:     417979  MISS:       1191  HIT %:    99.7159  MISS %:   0.284133   MPKI: 0.005955
LLC LOAD TRANSLATION ACCESS:      23478  HIT:      21760  MISS:       1718  HIT %:    92.6825  MISS %:    7.31749   MPKI: 0.00859
LLC TRANSLATION FROM L1D PREFETCHER ACCESS:          2  HIT:          1  MISS:          1  HIT %:         50  MISS %:         50   MPKI: 5e-06
LLC PREFETCH  REQUESTED:          0  ISSUED:          0  USEFUL:       4086  USELESS:     106909
LLC USEFUL LOAD PREFETCHES:       4086 PREFETCH ISSUED TO LOWER LEVEL:     110649  ACCURACY: 3.69276
LLC TIMELY PREFETCHES:       4086 LATE PREFETCHES: 0 DROPPED PREFETCHES: 0
LLC PREFETCHES SAME FILL-ORIGIN LEVEL: 0 DIFFERENT FILL-ORIGIN LEVEL: 0
LLC AVERAGE MISS LATENCY: 156.885 cycles
LLC RQ	ACCESS:     621871	FORWARD:          0	MERGED:          0	TO_CACHE:     621870
LLC WQ	ACCESS:     419170	FORWARD:          1	MERGED:          0	TO_CACHE:     419170
LLC PQ	ACCESS:     704824	FORWARD:          0	MERGED:          0	TO_CACHE:     704824

LLC Dense regions hint to LLC: 0

RAW hits: 2116000
Loads Generated: 48112470
Loads sent to L1D: 45996471
Stores Generated: 24705062
Stores sent to L1D: 24705066
Major fault: 0 Minor fault: 3454
Allocated PAGES: 3454
=== CPU 0 L1D Prefetcher Statistics ===
[MLOP] History of tracked zone:
IIIIIIIIIIIIIIIIIIIIIIIIIIIIIIIIIIIIIIIIIIIIIIIIIIIIIIIIIIIIIIII
IIIIIIIIIIIIIIIIIIIIIIIIIIIIIIIIIIIIIIIIIIIIIIIIIIIIIIAIIIIIIIII
IIIIIIIIIIIIIIIIIIIIIIIIIIIIIIIIIIIIIIIIIIIIIIIIIIIIIIAI2IIIIIII
IIIIIIIIIIIIIIIIIIIIIIIIIIIIIIIIIIIIIIIIIIIIIIIIII2IIIAI2IIIIIII
IIIIIIIIIIIIIIIIIIIIIIIIIIIIIIIIIIIIIIIIIIII2IIIII2IIIAI1IIIIIII
IIIIIIIIIIIIIIIIIIIIIIIIIIIIIIIIIIIIIIIIIIII2IIIII2IIIAI1II2IIII
IIIIIIIIIIIIIIIIIIIIIIIIIIIIIIIIIIIIIIIIIIII2IIIII2IIIAI1II2III2
IIIIIIIIIIIIIIIIIIIIIIIIIIIIIIIIIIIIIIIIIIII2IIIII2II2AI1II2III2
IIIIIIIIIIIIIIIIIIIIIIIIIIIIIIIIIIIIIIIIII2I2IIIII2II2AI1II2III2
IIIIIIIIIIIIIIIIIIIIIIIIIIIIIIIIIIIIIIIIII2I2IIIII2II2AI1II22II2
IIIIIIIIIIIIIIIIIIIIIIIIIIIIIIIIIIIIIIIIII2I2I2III2II2AI1II22II2
IIIIIIIIIIIIIIIIIIIIIIIIIIIIIIIIIIIIIIII2I2I2I2III2II2AI1II22II2
IIIIIIIIIIIIIIIIIIIIIIIIIIIIIIIIIIIIIIII2I2I2I2III2II2AI1II12II2
IIIIIIIIIIIIIIIIIIIIIIIIIIIIIIIIIIIIIIII2I2I2I2III22I2AI1II12II2
IIIIIIIIIIIIIIIIIIIIIIIIIIIIIIIIIIIIIIII2I2I2I2III22I2AI1II11II2
IIIIIIIIIIIIIIIIIIIIIIIIIIIIIIIIIIIIIIII2I2I2I2III22I2A21II11II2
IIIIIIIIIIIIIIIIIIIIIIIIIIIIIIIIIIIIIIII2I2I2I2III22I2A21II112I2
IIIIIIIIIIIIIIIIIIIIIIIIIIIIIIIIIIIIIIII2I2I2I2III2222A21II112I2
IIIIIIIIIIIIIIIIIIIIIIIIIIII2IIIIIIIIIII2I2I2I2III2222A21II112I2
IIIIIIIIIIIIIIIIIIIIII2IIIII2IIIIIIIIIII2I2I2I2III2222A21II112I2
IIIIIIIIIIIIIIIIIIIIII2III2I2IIIIIIIIIII2I2I2I2III2222A21II112I2
IIIIIIIIIIIIIIIIIIIIII2I2I2I2IIIIIIIIIII2I2I2I2III2222A21II112I2
IIIIIIIIIIIIIIIIIIIIII2I2I2I2IIIIIIIIIII2I2I2I2III2222A21I1112I2
IIIIIIIIIIIIIIIIIIIIII2I2I2I2IIIIIIIIIII2I2I2I2III2222A11I1112I2
IIIIIIIIIIIIIIIIIIIIII2I2I2I2IIIIIIIIIII2I2I2I2III2222A11I111222
IIIIIIIIIIIIIIIIIIIIII2I2I2I2IIIIIIIIIII2I2I2I2III2222A11I111212
IIIIIIIIIIIIIIIIIIIIII2I2I2I2IIIIIIIIIII2I2I2I21II2222A11I111212
IIIIIIIIIIIIIIIIIIIIII2I2I2I2IIIIIIIIIII2I2I2I21II2222A11I111112
IIIIIIIIIIIIIIIIIIIIII2I2I2I2IIIIIIIIIII2I2I2221II2222A11I111112
IIIIIIIIIIIIIIIIIIIIII2I222I2IIIIIIIIIII2I2I2221II2222A11I111112
IIIIIIIIIIIIIIIIIIIIII2I222I2IIIIIIIIIII2I2I2221II2222A112111112
[MLOP] Prefetch Degree Mean: 2.22387
[MLOP] Prefetch Degree SD: 1.47699
[MLOP] Max Score Left Mean (%): 23.9634
[MLOP] Max Score Left SD (%): 4.5262
[MLOP] Max Score Right Mean (%): 37.9388
[MLOP] Max Score Right SD (%): 6.49686

DRAM Statistics
 CHANNEL 0
 RQ ROW_BUFFER_HIT:      51813  ROW_BUFFER_MISS:     123857
 DBUS_CONGESTED:        120
 WQ ROW_BUFFER_HIT:       4476  ROW_BUFFER_MISS:      37500  FULL:          0

 AVG_CONGESTED_CYCLE: 4
 All warmup complete: 2
Channel 0 Bank busy for read cycles: 0
Channel 0 Bank busy for write cycles: 0
Channel 0
Rank 0
0banks busy for read cycles: 382782797
0banks busy for write cycles: 26359
1banks busy for read cycles: 6363821
1banks busy for write cycles: 3529438
2banks busy for read cycles: 2377710
2banks busy for write cycles: 887892
3banks busy for read cycles: 1363163
3banks busy for write cycles: 303136
4banks busy for read cycles: 862600
4banks busy for write cycles: 112606
5banks busy for read cycles: 219158
5banks busy for write cycles: 43662
6banks busy for read cycles: 99472
6banks busy for write cycles: 17462
7banks busy for read cycles: 59957
7banks busy for write cycles: 11138
8banks busy for read cycles: 49883
8banks busy for write cycles: 9603

CPU 0 Branch Prediction Accuracy: 99.9775% MPKI: 0.03855 Average ROB Occupancy at Mispredict: 22.3204
Branch types
NOT_BRANCH: 165663597 82.8318%
BRANCH_DIRECT_JUMP: 2069035 1.03452%
BRANCH_INDIRECT: 12587391 6.2937%
BRANCH_CONDITIONAL: 10231477 5.11574%
BRANCH_DIRECT_CALL: 3828229 1.91411%
BRANCH_INDIRECT_CALL: 895995 0.447997%
BRANCH_RETURN: 4724210 2.36211%
BRANCH_OTHER: 0 0%

DRAM PAGES: 1048576
Allocated PAGES: 3454
