
*** ChampSim Multicore Out-of-Order Simulator ***

Warmup Instructions: 50000000
Simulation Instructions: 200000000
Number of CPUs: 1
LLC sets: 2048
LLC ways: 16
Off-chip DRAM Size: 4096 MB Channels: 1 Width: 64-bit Data Rate: 6400 MT/s
CPU 0 runs traces/spec2k17/srv_16.champsimtrace.xz
.xz
BTB has LRU replacement policy
ITLB has LRU replacement policy
DTLB has LRU replacement policy
STLB has LRU replacement policy
L1I has LRU replacement policy
L1D has LRU replacement policy
Initialize SRRIP state for L2C
Initialize DRRIP state for LLC
Heartbeat CPU 0 instructions: 10000002 cycles: 2842832 heartbeat IPC: 3.51762 cumulative IPC: 3.51762 (Simulation time: 0 hr 0 min 33 sec) 
Heartbeat CPU 0 instructions: 20000002 cycles: 5681388 heartbeat IPC: 3.52292 cumulative IPC: 3.52027 (Simulation time: 0 hr 1 min 11 sec) 
Heartbeat CPU 0 instructions: 30000003 cycles: 8515289 heartbeat IPC: 3.52871 cumulative IPC: 3.52308 (Simulation time: 0 hr 1 min 48 sec) 
*** Reached end of trace for Core: 0 Repeating trace: traces/spec2k17/srv_16.champsimtrace.xz
Heartbeat CPU 0 instructions: 40000001 cycles: 11349727 heartbeat IPC: 3.52804 cumulative IPC: 3.52431 (Simulation time: 0 hr 2 min 25 sec) 
Heartbeat CPU 0 instructions: 50000003 cycles: 14185886 heartbeat IPC: 3.5259 cumulative IPC: 3.52463 (Simulation time: 0 hr 2 min 58 sec) 

Warmup complete CPU 0 instructions: 50000003 cycles: 14185886 (Simulation time: 0 hr 2 min 58 sec) 

Heartbeat CPU 0 instructions: 60000001 cycles: 47906252 heartbeat IPC: 0.296557 cumulative IPC: 0.296557 (Simulation time: 0 hr 3 min 55 sec) 
*** Reached end of trace for Core: 0 Repeating trace: traces/spec2k17/srv_16.champsimtrace.xz
Heartbeat CPU 0 instructions: 70000001 cycles: 81662515 heartbeat IPC: 0.296241 cumulative IPC: 0.296399 (Simulation time: 0 hr 4 min 52 sec) 
Heartbeat CPU 0 instructions: 80000000 cycles: 115420371 heartbeat IPC: 0.296227 cumulative IPC: 0.296342 (Simulation time: 0 hr 5 min 56 sec) 
Heartbeat CPU 0 instructions: 90000000 cycles: 149071842 heartbeat IPC: 0.297164 cumulative IPC: 0.296547 (Simulation time: 0 hr 6 min 43 sec) 
*** Reached end of trace for Core: 0 Repeating trace: traces/spec2k17/srv_16.champsimtrace.xz
Heartbeat CPU 0 instructions: 100000003 cycles: 182785716 heartbeat IPC: 0.296614 cumulative IPC: 0.29656 (Simulation time: 0 hr 7 min 34 sec) 
Heartbeat CPU 0 instructions: 110000000 cycles: 216529391 heartbeat IPC: 0.296352 cumulative IPC: 0.296525 (Simulation time: 0 hr 8 min 34 sec) 
Heartbeat CPU 0 instructions: 120000001 cycles: 250155401 heartbeat IPC: 0.297389 cumulative IPC: 0.296648 (Simulation time: 0 hr 9 min 29 sec) 
*** Reached end of trace for Core: 0 Repeating trace: traces/spec2k17/srv_16.champsimtrace.xz
Heartbeat CPU 0 instructions: 130000003 cycles: 283820229 heartbeat IPC: 0.297046 cumulative IPC: 0.296698 (Simulation time: 0 hr 10 min 24 sec) 
Heartbeat CPU 0 instructions: 140000001 cycles: 317560523 heartbeat IPC: 0.296381 cumulative IPC: 0.296663 (Simulation time: 0 hr 11 min 13 sec) 
Heartbeat CPU 0 instructions: 150000000 cycles: 351195571 heartbeat IPC: 0.297309 cumulative IPC: 0.296727 (Simulation time: 0 hr 12 min 14 sec) 
*** Reached end of trace for Core: 0 Repeating trace: traces/spec2k17/srv_16.champsimtrace.xz
Heartbeat CPU 0 instructions: 160000001 cycles: 384785478 heartbeat IPC: 0.297709 cumulative IPC: 0.296816 (Simulation time: 0 hr 13 min 6 sec) 
Heartbeat CPU 0 instructions: 170000002 cycles: 418520765 heartbeat IPC: 0.296426 cumulative IPC: 0.296784 (Simulation time: 0 hr 13 min 58 sec) 
Heartbeat CPU 0 instructions: 180000001 cycles: 452187138 heartbeat IPC: 0.297032 cumulative IPC: 0.296803 (Simulation time: 0 hr 14 min 58 sec) 
*** Reached end of trace for Core: 0 Repeating trace: traces/spec2k17/srv_16.champsimtrace.xz
Heartbeat CPU 0 instructions: 190000003 cycles: 485742752 heartbeat IPC: 0.298013 cumulative IPC: 0.296889 (Simulation time: 0 hr 15 min 53 sec) 
Heartbeat CPU 0 instructions: 200000002 cycles: 519454249 heartbeat IPC: 0.296635 cumulative IPC: 0.296872 (Simulation time: 0 hr 16 min 45 sec) 
Heartbeat CPU 0 instructions: 210000001 cycles: 553129926 heartbeat IPC: 0.29695 cumulative IPC: 0.296877 (Simulation time: 0 hr 17 min 45 sec) 
*** Reached end of trace for Core: 0 Repeating trace: traces/spec2k17/srv_16.champsimtrace.xz
Heartbeat CPU 0 instructions: 220000000 cycles: 586646643 heartbeat IPC: 0.298359 cumulative IPC: 0.296964 (Simulation time: 0 hr 18 min 39 sec) 
Heartbeat CPU 0 instructions: 230000001 cycles: 620402170 heartbeat IPC: 0.296248 cumulative IPC: 0.296924 (Simulation time: 0 hr 19 min 27 sec) 
Heartbeat CPU 0 instructions: 240000000 cycles: 654103826 heartbeat IPC: 0.296721 cumulative IPC: 0.296913 (Simulation time: 0 hr 20 min 29 sec) 
Heartbeat CPU 0 instructions: 250000003 cycles: 687636394 heartbeat IPC: 0.298218 cumulative IPC: 0.296978 (Simulation time: 0 hr 21 min 25 sec) 
Finished CPU 0 instructions: 200000000 cycles: 673450508 cumulative IPC: 0.296978 (Simulation time: 0 hr 21 min 25 sec) 

ChampSim completed all CPUs

Region of Interest Statistics

CPU 0 cumulative IPC: 0.296978 instructions: 200000000 cycles: 673450508
ITLB TOTAL     ACCESS:   35378552  HIT:   32951864  MISS:    2426688  HIT %:    93.1408  MISS %:    6.85921   MPKI: 12.1334
ITLB LOAD TRANSLATION ACCESS:   35378552  HIT:   32951864  MISS:    2426688  HIT %:    93.1408  MISS %:    6.85921   MPKI: 12.1334
ITLB PREFETCH  REQUESTED:          0  ISSUED:          0  USEFUL:          0  USELESS:          0
ITLB USEFUL LOAD PREFETCHES:          0 PREFETCH ISSUED TO LOWER LEVEL:          0  ACCURACY: -nan
ITLB TIMELY PREFETCHES:          0 LATE PREFETCHES: 0 DROPPED PREFETCHES: 0
ITLB PREFETCHES SAME FILL-ORIGIN LEVEL: 0 DIFFERENT FILL-ORIGIN LEVEL: 0
ITLB AVERAGE MISS LATENCY: 9.0048 cycles
ITLB RQ	ACCESS:   41961373	FORWARD:          0	MERGED:    6020806	TO_CACHE:   35940567

DTLB TOTAL     ACCESS:   47444833  HIT:   45472047  MISS:    1972786  HIT %:    95.8419  MISS %:    4.15806   MPKI: 9.86393
DTLB LOAD TRANSLATION ACCESS:   47444833  HIT:   45472047  MISS:    1972786  HIT %:    95.8419  MISS %:    4.15806   MPKI: 9.86393
DTLB PREFETCH  REQUESTED:          0  ISSUED:          0  USEFUL:          0  USELESS:          0
DTLB USEFUL LOAD PREFETCHES:          0 PREFETCH ISSUED TO LOWER LEVEL:          0  ACCURACY: -nan
DTLB TIMELY PREFETCHES:          0 LATE PREFETCHES: 0 DROPPED PREFETCHES: 0
DTLB PREFETCHES SAME FILL-ORIGIN LEVEL: 0 DIFFERENT FILL-ORIGIN LEVEL: 0
DTLB AVERAGE MISS LATENCY: 9.03408 cycles
DTLB RQ	ACCESS:   62663550	FORWARD:          0	MERGED:   15167981	TO_CACHE:   47495569

STLB TOTAL     ACCESS:    4852996  HIT:    4851692  MISS:       1304  HIT %:    99.9731  MISS %:    0.02687   MPKI: 0.00652
STLB LOAD TRANSLATION ACCESS:    4399474  HIT:    4398170  MISS:       1304  HIT %:    99.9704  MISS %:  0.0296399   MPKI: 0.00652
STLB TRANSLATION FROM L1D PREFETCHER ACCESS:     453522  HIT:     453522  MISS:          0  HIT %:        100  MISS %:          0   MPKI: 0
STLB PREFETCH  REQUESTED:          0  ISSUED:          0  USEFUL:          0  USELESS:          0
STLB USEFUL LOAD PREFETCHES:          0 PREFETCH ISSUED TO LOWER LEVEL:          0  ACCURACY: -nan
STLB TIMELY PREFETCHES:          0 LATE PREFETCHES: 0 DROPPED PREFETCHES: 0
STLB PREFETCHES SAME FILL-ORIGIN LEVEL: 0 DIFFERENT FILL-ORIGIN LEVEL: 0
STLB AVERAGE MISS LATENCY: 38.2147 cycles
STLB RQ	ACCESS:    5183392	FORWARD:          0	MERGED:     330396	TO_CACHE:    4852996

STLB Hit, L1D data hit: 0
STLB Hit, L2C data hit: 0
STLB Hit, LLC data hit: 0
STLB Hit, LLC data miss: 0
STLB STLB hints to L2: 0
L1D TOTAL     ACCESS:   61263511  HIT:   56573962  MISS:    4689549  HIT %:    92.3453  MISS %:    7.65472   MPKI: 23.4477
L1D LOAD      ACCESS:   34665015  HIT:   31432757  MISS:    3232258  HIT %:    90.6757  MISS %:    9.32427   MPKI: 16.1613
L1D RFO       ACCESS:   26226765  HIT:   25064066  MISS:    1162699  HIT %:    95.5667  MISS %:    4.43325   MPKI: 5.81349
L1D PREFETCH  ACCESS:     371731  HIT:      77139  MISS:     294592  HIT %:    20.7513  MISS %:    79.2487   MPKI: 1.47296
AGUS PREFETCH L1 MISS: 0
L1D PREFETCH  REQUESTED:    1578018  ISSUED:    1578018  USEFUL:      75372  USELESS:     219200
L1D USEFUL LOAD PREFETCHES:      75372 PREFETCH ISSUED TO LOWER LEVEL:     679732  ACCURACY: 11.0885
L1D TIMELY PREFETCHES:      75372 LATE PREFETCHES: 29967 DROPPED PREFETCHES: 0
L1D PREFETCHES SAME FILL-ORIGIN LEVEL: 325665 DIFFERENT FILL-ORIGIN LEVEL: 354067
L1D AVERAGE MISS LATENCY: 2.362e+06 cycles
L1D RQ	ACCESS:   47188293	FORWARD:          0	MERGED:   12067647	TO_CACHE:   34773110
L1D WQ	ACCESS:   28035950	FORWARD:     347536	MERGED:     145510	TO_CACHE:   27890440
L1D PQ	ACCESS:     794100	FORWARD:          0	MERGED:      10182	TO_CACHE:     783918

L1D UNIQUE REGIONS ACCESSED: 0
L1D REGIONS CONFLICTS: 0
L1D Cross Page Prefetch Requests: 0
L1D Same Page Prefetch Requests: 1000274
L1D ROI Sum of L1D PQ occupancy: 10191057
L1D PREFETCHES PUSHED FROM L2C: 0
L1I TOTAL     ACCESS:   40173943  HIT:   27972334  MISS:   12201609  HIT %:    69.6281  MISS %:    30.3719   MPKI: 61.008
L1I LOAD      ACCESS:   40173943  HIT:   27972334  MISS:   12201609  HIT %:    69.6281  MISS %:    30.3719   MPKI: 61.008
L1I PREFETCH  REQUESTED:          0  ISSUED:          0  USEFUL:          0  USELESS:          0
L1I USEFUL LOAD PREFETCHES:          0 PREFETCH ISSUED TO LOWER LEVEL:          0  ACCURACY: -nan
L1I TIMELY PREFETCHES:          0 LATE PREFETCHES: 0 DROPPED PREFETCHES: 0
L1I PREFETCHES SAME FILL-ORIGIN LEVEL: 0 DIFFERENT FILL-ORIGIN LEVEL: 0
L1I AVERAGE MISS LATENCY: 15.6706 cycles
L1I RQ	ACCESS:   58886902	FORWARD:          0	MERGED:   16925529	TO_CACHE:   41961373

BTB TOTAL     ACCESS:   30243089  HIT:   16698409  MISS:   13544680  HIT %:     55.214  MISS %:     44.786   MPKI: 67.7234
BTB BRANCH_DIRECT_JUMP	ACCESS:    1963388  HIT:    1087332  MISS:     876056
BTB BRANCH_INDIRECT	ACCESS:   12759698  HIT:    7591616  MISS:    5168082
BTB BRANCH_CONDITIONAL	ACCESS:    5682628  HIT:    4287581  MISS:    1395047
BTB BRANCH_DIRECT_CALL	ACCESS:    4145071  HIT:    1929113  MISS:    2215958
BTB BRANCH_INDIRECT_CALL	ACCESS:     773633  HIT:     372148  MISS:     401485
BTB BRANCH_RETURN	ACCESS:    4918671  HIT:    1430619  MISS:    3488052
BTB BRANCH_OTHER ACCESS:          0  HIT:          0  MISS:          0

L2C TOTAL     ACCESS:   19548822  HIT:   18530833  MISS:    1017989  HIT %:    94.7926  MISS %:    5.20742   MPKI: 5.08995
L2C LOAD      ACCESS:   15403316  HIT:   14566028  MISS:     837288  HIT %:    94.5642  MISS %:    5.43576   MPKI: 4.18644
L2C DATA LOAD MPKI: 0.941465
L2C INSTRUCTION LOAD MPKI: 3.24498
L2C RFO       ACCESS:    1161593  HIT:    1140410  MISS:      21183  HIT %:    98.1764  MISS %:    1.82362   MPKI: 0.105915
L2C PREFETCH  ACCESS:     669886  HIT:     524253  MISS:     145633  HIT %:      78.26  MISS %:      21.74   MPKI: 0.728165
AGUS PREFETCH L1 MISS: 0
L2C DATA PREFETCH MPKI: 0.728165
L2C INSTRUCTION PREFETCH MPKI: 0
L2C WRITEBACK ACCESS:    2312723  HIT:    2299625  MISS:      13098  HIT %:    99.4337  MISS %:   0.566345   MPKI: 0.06549
L2C LOAD TRANSLATION ACCESS:       1304  HIT:        517  MISS:        787  HIT %:    39.6472  MISS %:    60.3528   MPKI: 0.003935
L2C PREFETCH  REQUESTED:          0  ISSUED:          0  USEFUL:      10191  USELESS:     135037
L2C USEFUL LOAD PREFETCHES:      10191 PREFETCH ISSUED TO LOWER LEVEL:     151002  ACCURACY: 6.74892
L2C TIMELY PREFETCHES:      10191 LATE PREFETCHES: 5369 DROPPED PREFETCHES: 0
L2C PREFETCHES SAME FILL-ORIGIN LEVEL: 92679 DIFFERENT FILL-ORIGIN LEVEL: 0
L2C AVERAGE MISS LATENCY: 30.0664 cycles
L2C RQ	ACCESS:   16566794	FORWARD:          0	MERGED:          0	TO_CACHE:   16566211
L2C WQ	ACCESS:    2312723	FORWARD:        583	MERGED:          0	TO_CACHE:    2312723
L2C PQ	ACCESS:     679732	FORWARD:          0	MERGED:         15	TO_CACHE:     679717

L2C Instructions Evicting Data 151424
L2C Translations Evicting Data 736
L2C Data Evicting Data 214192
L2C Instructions Evicting Instructions 497524
L2C Translations Evicting Instructions 51
L2C Data Evicting Instructions 140176
L2C Instructions Evicting Translations 47
L2C Translations Evicting Translations 0
L2C Data Evicting Translations 741
L2C Dense regions hint from L2: 0
PSCL5 TOTAL     ACCESS:       1304  HIT:       1304  MISS:          0  HIT %:        100  MISS %:          0   MPKI: 0
PSCL5 LOAD TRANSLATION ACCESS:       1304  HIT:       1304  MISS:          0  HIT %:        100  MISS %:          0   MPKI: 0
PSCL5 PREFETCH  REQUESTED:          0  ISSUED:          0  USEFUL:          0  USELESS:          0
PSCL5 USEFUL LOAD PREFETCHES:          0 PREFETCH ISSUED TO LOWER LEVEL:          0  ACCURACY: -nan
PSCL5 TIMELY PREFETCHES:          0 LATE PREFETCHES: 0 DROPPED PREFETCHES: 0
PSCL5 PREFETCHES SAME FILL-ORIGIN LEVEL: 0 DIFFERENT FILL-ORIGIN LEVEL: 0

PSCL4 TOTAL     ACCESS:       1304  HIT:       1304  MISS:          0  HIT %:        100  MISS %:          0   MPKI: 0
PSCL4 LOAD TRANSLATION ACCESS:       1304  HIT:       1304  MISS:          0  HIT %:        100  MISS %:          0   MPKI: 0
PSCL4 PREFETCH  REQUESTED:          0  ISSUED:          0  USEFUL:          0  USELESS:          0
PSCL4 USEFUL LOAD PREFETCHES:          0 PREFETCH ISSUED TO LOWER LEVEL:          0  ACCURACY: -nan
PSCL4 TIMELY PREFETCHES:          0 LATE PREFETCHES: 0 DROPPED PREFETCHES: 0
PSCL4 PREFETCHES SAME FILL-ORIGIN LEVEL: 0 DIFFERENT FILL-ORIGIN LEVEL: 0

PSCL3 TOTAL     ACCESS:       1304  HIT:       1304  MISS:          0  HIT %:        100  MISS %:          0   MPKI: 0
PSCL3 LOAD TRANSLATION ACCESS:       1304  HIT:       1304  MISS:          0  HIT %:        100  MISS %:          0   MPKI: 0
PSCL3 PREFETCH  REQUESTED:          0  ISSUED:          0  USEFUL:          0  USELESS:          0
PSCL3 USEFUL LOAD PREFETCHES:          0 PREFETCH ISSUED TO LOWER LEVEL:          0  ACCURACY: -nan
PSCL3 TIMELY PREFETCHES:          0 LATE PREFETCHES: 0 DROPPED PREFETCHES: 0
PSCL3 PREFETCHES SAME FILL-ORIGIN LEVEL: 0 DIFFERENT FILL-ORIGIN LEVEL: 0

PSCL2 TOTAL     ACCESS:       1304  HIT:       1304  MISS:          0  HIT %:        100  MISS %:          0   MPKI: 0
PSCL2 LOAD TRANSLATION ACCESS:       1304  HIT:       1304  MISS:          0  HIT %:        100  MISS %:          0   MPKI: 0
PSCL2 PREFETCH  REQUESTED:          0  ISSUED:          0  USEFUL:          0  USELESS:          0
PSCL2 USEFUL LOAD PREFETCHES:          0 PREFETCH ISSUED TO LOWER LEVEL:          0  ACCURACY: -nan
PSCL2 TIMELY PREFETCHES:          0 LATE PREFETCHES: 0 DROPPED PREFETCHES: 0
PSCL2 PREFETCHES SAME FILL-ORIGIN LEVEL: 0 DIFFERENT FILL-ORIGIN LEVEL: 0

LLC TOTAL     ACCESS:    1033676  HIT:    1030868  MISS:       2808  HIT %:    99.7283  MISS %:   0.271652   MPKI: 0.01404
LLC LOAD      ACCESS:     831925  HIT:     831541  MISS:        384  HIT %:    99.9538  MISS %:   0.046158   MPKI: 0.00192
LLC RFO       ACCESS:      21177  HIT:      21174  MISS:          3  HIT %:    99.9858  MISS %:  0.0141663   MPKI: 1.5e-05
LLC PREFETCH  ACCESS:     151002  HIT:     148601  MISS:       2401  HIT %:      98.41  MISS %:    1.59005   MPKI: 0.012005
AGUS PREFETCH L1 MISS: 0
LLC WRITEBACK ACCESS:      28785  HIT:      28773  MISS:         12  HIT %:    99.9583  MISS %:  0.0416884   MPKI: 6e-05
LLC LOAD TRANSLATION ACCESS:        787  HIT:        779  MISS:          8  HIT %:    98.9835  MISS %:    1.01652   MPKI: 4e-05
LLC PREFETCH  REQUESTED:          0  ISSUED:          0  USEFUL:       2228  USELESS:       1090
LLC USEFUL LOAD PREFETCHES:       2228 PREFETCH ISSUED TO LOWER LEVEL:       2401  ACCURACY: 92.7947
LLC TIMELY PREFETCHES:       2228 LATE PREFETCHES: 0 DROPPED PREFETCHES: 0
LLC PREFETCHES SAME FILL-ORIGIN LEVEL: 0 DIFFERENT FILL-ORIGIN LEVEL: 0
LLC AVERAGE MISS LATENCY: 160.93 cycles
LLC RQ	ACCESS:     853889	FORWARD:          0	MERGED:          0	TO_CACHE:     853889
LLC WQ	ACCESS:      28785	FORWARD:          0	MERGED:          0	TO_CACHE:      28785
LLC PQ	ACCESS:     151002	FORWARD:          0	MERGED:          0	TO_CACHE:     151002

LLC Dense regions hint to LLC: 0

RAW hits: 1537057
Loads Generated: 48725350
Loads sent to L1D: 47188293
Stores Generated: 28035942
Stores sent to L1D: 28035950
Major fault: 0 Minor fault: 1271
Allocated PAGES: 1271
=== CPU 0 L1D Prefetcher Statistics ===
[MLOP] History of tracked zone:
IIIIIIIIIIIIIIIIIIIIIIIIIIIIIIIIIIIIIIIIIIIIIIIIIIIIIIIIIIIIIIII
IIIAIIIIIIIIIIIIIIIIIIIIIIIIIIIIIIIIIIIIIIIIIIIIIIIIIIIIIIIIIIII
IIAAIIIIIIIIIIIIIIIIIIIIIIIIIIIIIIIIIIIIIIIIIIIIIIIIIIIIIIIIIIII
IIAA2IIIIIIIIIIIIIIIIIIIIIIIIIIIIIIIIIIIIIIIIIIIIIIIIIIIIIIIIIII
IIAA12IIIIIIIIIIIIIIIIIIIIIIIIIIIIIIIIIIIIIIIIIIIIIIIIIIIIIIIIII
IIAA122IIIIIIIIIIIIIIIIIIIIIIIIIIIIIIIIIIIIIIIIIIIIIIIIIIIIIIIII
IIAA1222IIIIIIIIIIIIIIIIIIIIIIIIIIIIIIIIIIIIIIIIIIIIIIIIIIIIIIII
IIAA12122IIIIIIIIIIIIIIIIIIIIIIIIIIIIIIIIIIIIIIIIIIIIIIIIIIIIIII
IIAA111122IIIIIIIIIIIIIIIIIIIIIIIIIIIIIIIIIIIIIIIIIIIIIIIIIIIIII
IIAA1111222IIIIIIIIIIIIIIIIIIIIIIIIIIIIIIIIIIIIIIIIIIIIIIIIIIIII
[MLOP] Prefetch Degree Mean: 1.81802
[MLOP] Prefetch Degree SD: 0.808803
[MLOP] Max Score Left Mean (%): 7.7841
[MLOP] Max Score Left SD (%): 2.90626
[MLOP] Max Score Right Mean (%): 43.6269
[MLOP] Max Score Right SD (%): 6.40096

DRAM Statistics
 CHANNEL 0
 RQ ROW_BUFFER_HIT:        275  ROW_BUFFER_MISS:       2521
 DBUS_CONGESTED:          0
 WQ ROW_BUFFER_HIT:          0  ROW_BUFFER_MISS:         16  FULL:          0

 AVG_CONGESTED_CYCLE: -
 All warmup complete: 2
Channel 0 Bank busy for read cycles: 0
Channel 0 Bank busy for write cycles: 0
Channel 0
Rank 0
0banks busy for read cycles: 673112449
0banks busy for write cycles: 16
1banks busy for read cycles: 291332
1banks busy for write cycles: 2400
2banks busy for read cycles: 35649
2banks busy for write cycles: 0
3banks busy for read cycles: 5878
3banks busy for write cycles: 0
4banks busy for read cycles: 2289
4banks busy for write cycles: 0
5banks busy for read cycles: 496
5banks busy for write cycles: 0
6banks busy for read cycles: 0
6banks busy for write cycles: 0
7banks busy for read cycles: 0
7banks busy for write cycles: 0
8banks busy for read cycles: 0
8banks busy for write cycles: 0

CPU 0 Branch Prediction Accuracy: 99.9106% MPKI: 0.158745 Average ROB Occupancy at Mispredict: 31.0304
Branch types
NOT_BRANCH: 164493954 82.247%
BRANCH_DIRECT_JUMP: 1963388 0.981694%
BRANCH_INDIRECT: 12759698 6.37985%
BRANCH_CONDITIONAL: 10945421 5.47271%
BRANCH_DIRECT_CALL: 4145071 2.07254%
BRANCH_INDIRECT_CALL: 773633 0.386817%
BRANCH_RETURN: 4918671 2.45934%
BRANCH_OTHER: 0 0%

DRAM PAGES: 1048576
Allocated PAGES: 1271
