
*** ChampSim Multicore Out-of-Order Simulator ***

Warmup Instructions: 50000000
Simulation Instructions: 200000000
Number of CPUs: 1
LLC sets: 2048
LLC ways: 16
Off-chip DRAM Size: 4096 MB Channels: 1 Width: 64-bit Data Rate: 6400 MT/s
CPU 0 runs traces/spec2k17/srv_30.champsimtrace.xz
.xz
BTB has LRU replacement policy
ITLB has LRU replacement policy
DTLB has LRU replacement policy
STLB has LRU replacement policy
L1I has LRU replacement policy
L1D has LRU replacement policy
Initialize SRRIP state for L2C
Initialize DRRIP state for LLC
Heartbeat CPU 0 instructions: 10000001 cycles: 2807476 heartbeat IPC: 3.56192 cumulative IPC: 3.56192 (Simulation time: 0 hr 0 min 45 sec) 
Heartbeat CPU 0 instructions: 20000002 cycles: 5613762 heartbeat IPC: 3.56343 cumulative IPC: 3.56267 (Simulation time: 0 hr 1 min 29 sec) 
Heartbeat CPU 0 instructions: 30000003 cycles: 8418734 heartbeat IPC: 3.5651 cumulative IPC: 3.56348 (Simulation time: 0 hr 2 min 11 sec) 
*** Reached end of trace for Core: 0 Repeating trace: traces/spec2k17/srv_30.champsimtrace.xz
Heartbeat CPU 0 instructions: 40000003 cycles: 11225172 heartbeat IPC: 3.56324 cumulative IPC: 3.56342 (Simulation time: 0 hr 2 min 55 sec) 
Heartbeat CPU 0 instructions: 50000000 cycles: 14031119 heartbeat IPC: 3.56386 cumulative IPC: 3.56351 (Simulation time: 0 hr 3 min 39 sec) 

Warmup complete CPU 0 instructions: 50000004 cycles: 14031120 (Simulation time: 0 hr 3 min 39 sec) 

Heartbeat CPU 0 instructions: 60000003 cycles: 28068917 heartbeat IPC: 0.712363 cumulative IPC: 0.712362 (Simulation time: 0 hr 4 min 26 sec) 
*** Reached end of trace for Core: 0 Repeating trace: traces/spec2k17/srv_30.champsimtrace.xz
Heartbeat CPU 0 instructions: 70000000 cycles: 42260361 heartbeat IPC: 0.70465 cumulative IPC: 0.708485 (Simulation time: 0 hr 5 min 15 sec) 
Heartbeat CPU 0 instructions: 80000000 cycles: 56277327 heartbeat IPC: 0.713421 cumulative IPC: 0.710123 (Simulation time: 0 hr 6 min 9 sec) 
Heartbeat CPU 0 instructions: 90000001 cycles: 70118200 heartbeat IPC: 0.722498 cumulative IPC: 0.713177 (Simulation time: 0 hr 6 min 59 sec) 
*** Reached end of trace for Core: 0 Repeating trace: traces/spec2k17/srv_30.champsimtrace.xz
Heartbeat CPU 0 instructions: 100000001 cycles: 83730222 heartbeat IPC: 0.734645 cumulative IPC: 0.717369 (Simulation time: 0 hr 7 min 45 sec) 
Heartbeat CPU 0 instructions: 110000000 cycles: 97588753 heartbeat IPC: 0.721577 cumulative IPC: 0.718067 (Simulation time: 0 hr 8 min 32 sec) 
Heartbeat CPU 0 instructions: 120000003 cycles: 111789747 heartbeat IPC: 0.704176 cumulative IPC: 0.716049 (Simulation time: 0 hr 9 min 17 sec) 
*** Reached end of trace for Core: 0 Repeating trace: traces/spec2k17/srv_30.champsimtrace.xz
Heartbeat CPU 0 instructions: 130000000 cycles: 125455122 heartbeat IPC: 0.731776 cumulative IPC: 0.717978 (Simulation time: 0 hr 10 min 8 sec) 
Heartbeat CPU 0 instructions: 140000001 cycles: 139194269 heartbeat IPC: 0.727847 cumulative IPC: 0.719061 (Simulation time: 0 hr 10 min 55 sec) 
Heartbeat CPU 0 instructions: 150000000 cycles: 153350107 heartbeat IPC: 0.706422 cumulative IPC: 0.717777 (Simulation time: 0 hr 11 min 50 sec) 
*** Reached end of trace for Core: 0 Repeating trace: traces/spec2k17/srv_30.champsimtrace.xz
Heartbeat CPU 0 instructions: 160000002 cycles: 167072849 heartbeat IPC: 0.728718 cumulative IPC: 0.718758 (Simulation time: 0 hr 12 min 39 sec) 
Heartbeat CPU 0 instructions: 170000002 cycles: 180660244 heartbeat IPC: 0.735976 cumulative IPC: 0.720162 (Simulation time: 0 hr 13 min 28 sec) 
Heartbeat CPU 0 instructions: 180000001 cycles: 194560884 heartbeat IPC: 0.719391 cumulative IPC: 0.720103 (Simulation time: 0 hr 14 min 13 sec) 
Heartbeat CPU 0 instructions: 190000003 cycles: 208300056 heartbeat IPC: 0.727846 cumulative IPC: 0.72065 (Simulation time: 0 hr 14 min 55 sec) 
*** Reached end of trace for Core: 0 Repeating trace: traces/spec2k17/srv_30.champsimtrace.xz
Heartbeat CPU 0 instructions: 200000001 cycles: 222166530 heartbeat IPC: 0.721164 cumulative IPC: 0.720685 (Simulation time: 0 hr 15 min 44 sec) 
Heartbeat CPU 0 instructions: 210000000 cycles: 236024735 heartbeat IPC: 0.721594 cumulative IPC: 0.720741 (Simulation time: 0 hr 16 min 37 sec) 
Heartbeat CPU 0 instructions: 220000000 cycles: 249770223 heartbeat IPC: 0.727511 cumulative IPC: 0.721136 (Simulation time: 0 hr 17 min 31 sec) 
*** Reached end of trace for Core: 0 Repeating trace: traces/spec2k17/srv_30.champsimtrace.xz
Heartbeat CPU 0 instructions: 230000003 cycles: 263625489 heartbeat IPC: 0.721747 cumulative IPC: 0.72117 (Simulation time: 0 hr 18 min 20 sec) 
Heartbeat CPU 0 instructions: 240000001 cycles: 277478908 heartbeat IPC: 0.721843 cumulative IPC: 0.721206 (Simulation time: 0 hr 19 min 5 sec) 
Heartbeat CPU 0 instructions: 250000000 cycles: 291197720 heartbeat IPC: 0.728926 cumulative IPC: 0.721588 (Simulation time: 0 hr 19 min 53 sec) 
Finished CPU 0 instructions: 200000000 cycles: 277166601 cumulative IPC: 0.721588 (Simulation time: 0 hr 19 min 53 sec) 

ChampSim completed all CPUs

Region of Interest Statistics

CPU 0 cumulative IPC: 0.721588 instructions: 200000000 cycles: 277166601
ITLB TOTAL     ACCESS:   32450726  HIT:   32343230  MISS:     107496  HIT %:    99.6687  MISS %:   0.331259   MPKI: 0.53748
ITLB LOAD TRANSLATION ACCESS:   32450726  HIT:   32343230  MISS:     107496  HIT %:    99.6687  MISS %:   0.331259   MPKI: 0.53748
ITLB PREFETCH  REQUESTED:          0  ISSUED:          0  USEFUL:          0  USELESS:          0
ITLB USEFUL LOAD PREFETCHES:          0 PREFETCH ISSUED TO LOWER LEVEL:          0  ACCURACY: -nan
ITLB TIMELY PREFETCHES:          0 LATE PREFETCHES: 0 DROPPED PREFETCHES: 0
ITLB PREFETCHES SAME FILL-ORIGIN LEVEL: 0 DIFFERENT FILL-ORIGIN LEVEL: 0
ITLB AVERAGE MISS LATENCY: 12.3357 cycles
ITLB RQ	ACCESS:   38250790	FORWARD:          0	MERGED:    5764841	TO_CACHE:   32485949

DTLB TOTAL     ACCESS:   40791179  HIT:   38984686  MISS:    1806493  HIT %:    95.5714  MISS %:    4.42864   MPKI: 9.03247
DTLB LOAD TRANSLATION ACCESS:   40791179  HIT:   38984686  MISS:    1806493  HIT %:    95.5714  MISS %:    4.42864   MPKI: 9.03247
DTLB PREFETCH  REQUESTED:          0  ISSUED:          0  USEFUL:          0  USELESS:          0
DTLB USEFUL LOAD PREFETCHES:          0 PREFETCH ISSUED TO LOWER LEVEL:          0  ACCURACY: -nan
DTLB TIMELY PREFETCHES:          0 LATE PREFETCHES: 0 DROPPED PREFETCHES: 0
DTLB PREFETCHES SAME FILL-ORIGIN LEVEL: 0 DIFFERENT FILL-ORIGIN LEVEL: 0
DTLB AVERAGE MISS LATENCY: 11.5279 cycles
DTLB RQ	ACCESS:   54774572	FORWARD:          0	MERGED:   13781933	TO_CACHE:   40992639

STLB TOTAL     ACCESS:    2218371  HIT:    2131866  MISS:      86505  HIT %:    96.1005  MISS %:    3.89948   MPKI: 0.432525
STLB LOAD TRANSLATION ACCESS:    1913989  HIT:    1827498  MISS:      86491  HIT %:    95.4811  MISS %:    4.51889   MPKI: 0.432455
STLB TRANSLATION FROM L1D PREFETCHER ACCESS:     304382  HIT:     304368  MISS:         14  HIT %:    99.9954  MISS %: 0.00459948   MPKI: 7e-05
STLB PREFETCH  REQUESTED:          0  ISSUED:          0  USEFUL:         11  USELESS:          3
STLB USEFUL LOAD PREFETCHES:         11 PREFETCH ISSUED TO LOWER LEVEL:          0  ACCURACY: inf
STLB TIMELY PREFETCHES:         11 LATE PREFETCHES: 0 DROPPED PREFETCHES: 0
STLB PREFETCHES SAME FILL-ORIGIN LEVEL: 0 DIFFERENT FILL-ORIGIN LEVEL: 0
STLB AVERAGE MISS LATENCY: 56.9232 cycles
STLB RQ	ACCESS:    3329299	FORWARD:          0	MERGED:    1110926	TO_CACHE:    2218373

STLB Hit, L1D data hit: 0
STLB Hit, L2C data hit: 0
STLB Hit, LLC data hit: 0
STLB Hit, LLC data miss: 0
STLB STLB hints to L2: 0
L1D TOTAL     ACCESS:   55054362  HIT:   53792388  MISS:    1261974  HIT %:    97.7078  MISS %:    2.29223   MPKI: 6.30987
L1D LOAD      ACCESS:   30749506  HIT:   30431896  MISS:     317610  HIT %:    98.9671  MISS %:    1.03289   MPKI: 1.58805
L1D RFO       ACCESS:   23434161  HIT:   23305433  MISS:     128728  HIT %:    99.4507  MISS %:   0.549318   MPKI: 0.64364
L1D PREFETCH  ACCESS:     870695  HIT:      55059  MISS:     815636  HIT %:    6.32357  MISS %:    93.6764   MPKI: 4.07818
AGUS PREFETCH L1 MISS: 0
L1D PREFETCH  REQUESTED:    2834507  ISSUED:    2834507  USEFUL:      89282  USELESS:     726108
L1D USEFUL LOAD PREFETCHES:      89282 PREFETCH ISSUED TO LOWER LEVEL:    1340483  ACCURACY: 6.66044
L1D TIMELY PREFETCHES:      89282 LATE PREFETCHES: 20103 DROPPED PREFETCHES: 0
L1D PREFETCHES SAME FILL-ORIGIN LEVEL: 835821 DIFFERENT FILL-ORIGIN LEVEL: 504662
L1D AVERAGE MISS LATENCY: 2.37171e+06 cycles
L1D RQ	ACCESS:   49538541	FORWARD:          0	MERGED:   18567073	TO_CACHE:   30850476
L1D WQ	ACCESS:   24177356	FORWARD:     120995	MERGED:     253260	TO_CACHE:   23924096
L1D PQ	ACCESS:    1419197	FORWARD:          0	MERGED:       3884	TO_CACHE:    1415310

L1D UNIQUE REGIONS ACCESSED: 0
L1D REGIONS CONFLICTS: 0
L1D Cross Page Prefetch Requests: 0
L1D Same Page Prefetch Requests: 1715641
L1D ROI Sum of L1D PQ occupancy: 21009352
L1D PREFETCHES PUSHED FROM L2C: 0
L1I TOTAL     ACCESS:   38055154  HIT:   37411379  MISS:     643775  HIT %:    98.3083  MISS %:    1.69169   MPKI: 3.21888
L1I LOAD      ACCESS:   38055154  HIT:   37411379  MISS:     643775  HIT %:    98.3083  MISS %:    1.69169   MPKI: 3.21888
L1I PREFETCH  REQUESTED:          0  ISSUED:          0  USEFUL:          0  USELESS:          0
L1I USEFUL LOAD PREFETCHES:          0 PREFETCH ISSUED TO LOWER LEVEL:          0  ACCURACY: -nan
L1I TIMELY PREFETCHES:          0 LATE PREFETCHES: 0 DROPPED PREFETCHES: 0
L1I PREFETCHES SAME FILL-ORIGIN LEVEL: 0 DIFFERENT FILL-ORIGIN LEVEL: 0
L1I AVERAGE MISS LATENCY: 22.176 cycles
L1I RQ	ACCESS:   60440608	FORWARD:          0	MERGED:   22189818	TO_CACHE:   38250790

BTB TOTAL     ACCESS:   29552303  HIT:   27894287  MISS:    1658016  HIT %:    94.3896  MISS %:    5.61045   MPKI: 8.29008
BTB BRANCH_DIRECT_JUMP	ACCESS:    2289018  HIT:    2287659  MISS:       1359
BTB BRANCH_INDIRECT	ACCESS:   12541857  HIT:   11996019  MISS:     545838
BTB BRANCH_CONDITIONAL	ACCESS:    7157854  HIT:    7155870  MISS:       1984
BTB BRANCH_DIRECT_CALL	ACCESS:    3331862  HIT:    3328374  MISS:       3488
BTB BRANCH_INDIRECT_CALL	ACCESS:     449927  HIT:     256803  MISS:     193124
BTB BRANCH_RETURN	ACCESS:    3781785  HIT:    2869562  MISS:     912223
BTB BRANCH_OTHER ACCESS:          0  HIT:          0  MISS:          0

L2C TOTAL     ACCESS:    2698047  HIT:    1035252  MISS:    1662795  HIT %:    38.3704  MISS %:    61.6296   MPKI: 8.31397
L2C LOAD      ACCESS:     941156  HIT:     672314  MISS:     268842  HIT %:    71.4349  MISS %:    28.5651   MPKI: 1.34421
L2C DATA LOAD MPKI: 1.09512
L2C INSTRUCTION LOAD MPKI: 0.24909
L2C RFO       ACCESS:     128645  HIT:      24305  MISS:     104340  HIT %:    18.8931  MISS %:    81.1069   MPKI: 0.5217
L2C PREFETCH  ACCESS:    1314362  HIT:      76998  MISS:    1237364  HIT %:     5.8582  MISS %:    94.1418   MPKI: 6.18682
AGUS PREFETCH L1 MISS: 0
L2C DATA PREFETCH MPKI: 6.18682
L2C INSTRUCTION PREFETCH MPKI: 0
L2C WRITEBACK ACCESS:     190617  HIT:     186089  MISS:       4528  HIT %:    97.6246  MISS %:    2.37544   MPKI: 0.02264
L2C LOAD TRANSLATION ACCESS:     123239  HIT:      75540  MISS:      47699  HIT %:    61.2955  MISS %:    38.7045   MPKI: 0.238495
L2C TRANSLATION FROM L1D PREFETCHER ACCESS:         28  HIT:          6  MISS:         22  HIT %:    21.4286  MISS %:    78.5714   MPKI: 0.00011
L2C PREFETCH  REQUESTED:          0  ISSUED:          0  USEFUL:      36040  USELESS:    1200698
L2C USEFUL LOAD PREFETCHES:      36040 PREFETCH ISSUED TO LOWER LEVEL:    1244602  ACCURACY: 2.8957
L2C TIMELY PREFETCHES:      36040 LATE PREFETCHES: 7238 DROPPED PREFETCHES: 0
L2C PREFETCHES SAME FILL-ORIGIN LEVEL: 493985 DIFFERENT FILL-ORIGIN LEVEL: 0
L2C AVERAGE MISS LATENCY: 147.738 cycles
L2C RQ	ACCESS:    1193195	FORWARD:          0	MERGED:          0	TO_CACHE:    1193068
L2C WQ	ACCESS:     190617	FORWARD:        128	MERGED:          0	TO_CACHE:     190617
L2C PQ	ACCESS:    1340483	FORWARD:          0	MERGED:        141	TO_CACHE:    1340341

L2C Instructions Evicting Data 47423
L2C Translations Evicting Data 45121
L2C Data Evicting Data 1468523
L2C Instructions Evicting Instructions 1090
L2C Translations Evicting Instructions 1462
L2C Data Evicting Instructions 47181
L2C Instructions Evicting Translations 1305
L2C Translations Evicting Translations 1138
L2C Data Evicting Translations 45024
L2C Dense regions hint from L2: 0
PSCL5 TOTAL     ACCESS:      86505  HIT:      86505  MISS:          0  HIT %:        100  MISS %:          0   MPKI: 0
PSCL5 LOAD TRANSLATION ACCESS:      86491  HIT:      86491  MISS:          0  HIT %:        100  MISS %:          0   MPKI: 0
PSCL5 TRANSLATION FROM L1D PREFETCHER ACCESS:         14  HIT:         14  MISS:          0  HIT %:        100  MISS %:          0   MPKI: 0
PSCL5 PREFETCH  REQUESTED:          0  ISSUED:          0  USEFUL:          0  USELESS:          0
PSCL5 USEFUL LOAD PREFETCHES:          0 PREFETCH ISSUED TO LOWER LEVEL:          0  ACCURACY: -nan
PSCL5 TIMELY PREFETCHES:          0 LATE PREFETCHES: 0 DROPPED PREFETCHES: 0
PSCL5 PREFETCHES SAME FILL-ORIGIN LEVEL: 0 DIFFERENT FILL-ORIGIN LEVEL: 0

PSCL4 TOTAL     ACCESS:      83320  HIT:      83170  MISS:        150  HIT %:      99.82  MISS %:   0.180029   MPKI: 0.00075
PSCL4 LOAD TRANSLATION ACCESS:      83306  HIT:      83156  MISS:        150  HIT %:    99.8199  MISS %:   0.180059   MPKI: 0.00075
PSCL4 TRANSLATION FROM L1D PREFETCHER ACCESS:         14  HIT:         14  MISS:          0  HIT %:        100  MISS %:          0   MPKI: 0
PSCL4 PREFETCH  REQUESTED:          0  ISSUED:          0  USEFUL:          0  USELESS:          0
PSCL4 USEFUL LOAD PREFETCHES:          0 PREFETCH ISSUED TO LOWER LEVEL:          0  ACCURACY: -nan
PSCL4 TIMELY PREFETCHES:          0 LATE PREFETCHES: 0 DROPPED PREFETCHES: 0
PSCL4 PREFETCHES SAME FILL-ORIGIN LEVEL: 0 DIFFERENT FILL-ORIGIN LEVEL: 0

PSCL3 TOTAL     ACCESS:      86338  HIT:      85829  MISS:        509  HIT %:    99.4105  MISS %:   0.589543   MPKI: 0.002545
PSCL3 LOAD TRANSLATION ACCESS:      86328  HIT:      85819  MISS:        509  HIT %:    99.4104  MISS %:   0.589612   MPKI: 0.002545
PSCL3 TRANSLATION FROM L1D PREFETCHER ACCESS:         10  HIT:         10  MISS:          0  HIT %:        100  MISS %:          0   MPKI: 0
PSCL3 PREFETCH  REQUESTED:          0  ISSUED:          0  USEFUL:          0  USELESS:          0
PSCL3 USEFUL LOAD PREFETCHES:          0 PREFETCH ISSUED TO LOWER LEVEL:          0  ACCURACY: -nan
PSCL3 TIMELY PREFETCHES:          0 LATE PREFETCHES: 0 DROPPED PREFETCHES: 0
PSCL3 PREFETCHES SAME FILL-ORIGIN LEVEL: 0 DIFFERENT FILL-ORIGIN LEVEL: 0

PSCL2 TOTAL     ACCESS:      86505  HIT:      50402  MISS:      36103  HIT %:    58.2648  MISS %:    41.7352   MPKI: 0.180515
PSCL2 LOAD TRANSLATION ACCESS:      86501  HIT:      50398  MISS:      36103  HIT %:    58.2629  MISS %:    41.7371   MPKI: 0.180515
PSCL2 TRANSLATION FROM L1D PREFETCHER ACCESS:          4  HIT:          4  MISS:          0  HIT %:        100  MISS %:          0   MPKI: 0
PSCL2 PREFETCH  REQUESTED:          0  ISSUED:          0  USEFUL:          0  USELESS:          0
PSCL2 USEFUL LOAD PREFETCHES:          0 PREFETCH ISSUED TO LOWER LEVEL:          0  ACCURACY: -nan
PSCL2 TIMELY PREFETCHES:          0 LATE PREFETCHES: 0 DROPPED PREFETCHES: 0
PSCL2 PREFETCHES SAME FILL-ORIGIN LEVEL: 0 DIFFERENT FILL-ORIGIN LEVEL: 0

LLC TOTAL     ACCESS:    1821958  HIT:     587733  MISS:    1234225  HIT %:    32.2583  MISS %:    67.7417   MPKI: 6.17112
LLC LOAD      ACCESS:     261634  HIT:      90314  MISS:     171320  HIT %:    34.5192  MISS %:    65.4808   MPKI: 0.8566
LLC RFO       ACCESS:     104310  HIT:      62111  MISS:      42199  HIT %:    59.5446  MISS %:    40.4554   MPKI: 0.210995
LLC PREFETCH  ACCESS:    1244602  HIT:     276735  MISS:     967867  HIT %:    22.2348  MISS %:    77.7652   MPKI: 4.83934
AGUS PREFETCH L1 MISS: 0
LLC WRITEBACK ACCESS:     163691  HIT:     118660  MISS:      45031  HIT %:    72.4902  MISS %:    27.5098   MPKI: 0.225155
LLC LOAD TRANSLATION ACCESS:      47699  HIT:      39894  MISS:       7805  HIT %:     83.637  MISS %:     16.363   MPKI: 0.039025
LLC TRANSLATION FROM L1D PREFETCHER ACCESS:         22  HIT:         19  MISS:          3  HIT %:    86.3636  MISS %:    13.6364   MPKI: 1.5e-05
LLC PREFETCH  REQUESTED:          0  ISSUED:          0  USEFUL:       4422  USELESS:     969519
LLC USEFUL LOAD PREFETCHES:       4422 PREFETCH ISSUED TO LOWER LEVEL:     967867  ACCURACY: 0.456881
LLC TIMELY PREFETCHES:       4422 LATE PREFETCHES: 0 DROPPED PREFETCHES: 0
LLC PREFETCHES SAME FILL-ORIGIN LEVEL: 0 DIFFERENT FILL-ORIGIN LEVEL: 0
LLC AVERAGE MISS LATENCY: 158.947 cycles
LLC RQ	ACCESS:     413665	FORWARD:          0	MERGED:          0	TO_CACHE:     413665
LLC WQ	ACCESS:     163691	FORWARD:          0	MERGED:          0	TO_CACHE:     163691
LLC PQ	ACCESS:    1244602	FORWARD:          0	MERGED:          0	TO_CACHE:    1244602

LLC Dense regions hint to LLC: 0

RAW hits: 2352381
Loads Generated: 51890921
Loads sent to L1D: 49538541
Stores Generated: 24177353
Stores sent to L1D: 24177356
Major fault: 0 Minor fault: 6174
Allocated PAGES: 6174
=== CPU 0 L1D Prefetcher Statistics ===
[MLOP] History of tracked zone:
IIIIIIIIIIIIIIIIIIIIIIIIIIIIIIIIIIIIIIIIIIIIIIIIIIIIIIIIIIIIIIII
IIIIIIIIIIIIIIIIIIIIIIIIIIAIIIIIIIIIIIIIIIIIIIIIIIIIIIIIIIIIIIII
IIIIIIIIIIIIIIIIIIIIIIIIIIIIIIIIA11I111111111112IIIIIIIIIIIIIIII
IIIIA11I111111111112IIIIIIIIIIIIA11I111111111112IIIIIIIIIIIIIIII
IIIIIIIIIIIIIIIIIIIIIIIIIIIIIIIIIIIIA11111111222222IIIIIIIIIIIII
IIIIIIIIIIIIIIIIIIIIIIIIIIIIIIIIII2AIIIIIIIIIIIIIIIIIIIIIIIIIIII
IIIIIII1AIIIIIIIIIIIIIIIIIIIIIIIIIIIIIIIIIIIIIIIIIIIIIIIIIIIIIII
IIA11111111111111IIIIIIIIIIIIIIIIIIIIIIIIIIIIIIIIIIIIIIIIIIIIIII
IIIIIIIIIIIIIIIIIIIIIIIIIIIA11111112222222IIIIIIIIIIIIIIIIIIIIII
IIIIIIIIIIIIIIIIIIIIIIIIIIIIIIIIIIA11111111111111IIIIIIIIIIIIIII
IIIIIIIIA11111111111111IIIIIIIIIIIA11111111111111IIIIIIIIIIIIIII
IIIIIIIIIIIIIIIIIIIIIIIIIIAII122IIIIIIIIIIIIIIIIIIIIIIIIIIIIIIII
IIIIIIIIIIIIIIIIIIIIIIIIIIIIIIIIA11I111111112222IIIIIIIIIIIIIIII
IIIIA11I111111112222IIIIIIIIIIIIA11I111111112222IIIIIIIIIIIIIIII
IIIIIIIIIIIIIIIIIIIIIIIIIIIIIIIIIIIIA1222222IIIIIIIIIIIIIIIIIIII
IIIIIIIIIIIIIIIIIIIIIIIIIIIIIIIIIIIA11111112222222IIIIIIIIIIIIII
IIIIIIIIA1I1111111111111IIIIIIIIIIIIIIIIIIIIIIIIIIIIIIIIIIIIIIII
IIA11111111112222IIIIIIIIIIIIIIIIIIIIIIIIIIIIIIIIIIIIIIIIIIIIIII
IIIIIIIIIIIIIIIIIIIIIIIIIIIA22IIIIIIIIIIIIIIIIIIIIIIIIIIIIIIIIII
IIIIIIIIIIIIIIIIIIIIIIIIIIIIIIIIIIA1I1111I111111111IIIIIIIIIIIII
IIIIIIIIA1I1111I111111111IIIIIIIIIA1I1111I111111111IIIIIIIIIIIII
IIIIIIIIIIIIIIIIIIIIIIIIIIAIII2IIIIIIIIIIIIIIIIIIIIIIIIIIIIIIIII
IIIIIIIIIIIIIIIIIIIIIIIIIIIIIIIIA1II1I1111111222IIIIIIIIIIIIIIII
IIIIA1I11111111111I11IIIIIIIIIIIA1II1I1111111222IIIIIIIIIIIIIIII
IIIIIIIIIIIIIIIIIIIIIIIIIIIIIIIIIIIIA1I1111111111112IIIIIIIIIIII
IIIIIIIIIIIIIIIIIIIIIIIIIIIIIIIIIIIA12I22I2IIIIIIIIIIIIIIIIIIIII
IIIIIIIIA1I1111111111111IIIIIIIIIIIIIIIIIIIIIIIIIIIIIIIIIIIIIIII
IIA1I111111111I1111IIIIIIIIIIIIIIIIIIIIIIIIIIIIIIIIIIIIIIIIIIIII
IIIIIIIIIIIIIIIIIIIIIIIIII2AIIIIIIIIIIIIIIIIIIIIIIIIIIIIIIIIIIII
IIIIIIIIIIIIIIIIIIIIIIIIIIIIIIIIIIA1I1111111111111IIIIIIIIIIIIII
IIIIIIIIA1I1111111111111IIIIIIIIIIA1I1111111111111IIIIIIIIIIIIII
IIIIIIIIIIIIIIIIIIIIIIIIIIA2II2IIIIIIIIIIIIIIIIIIIIIIIIIIIIIIIII
IIIIIIIIIIIIIIIIIIIIIIIIIIIIIIIIA1I11111111111I1IIIIIIIIIIIIIIII
IIIIA1I11111111111I1IIIIIIIIIIIIA1I11111111111I1IIIIIIIIIIIIIIII
IIIIIIIIIIIIIIIIIIIIIIIIIIIIIIIIIIIIA11I111112222222IIIIIIIIIIII
IIIIIIIIIIIIIIIIIIIIIIIIIIIIIIIIIIIA11111111122222IIIIIIIIIIIIII
IIIIIIIIA1I1111111111111IIIIIIIIIIIIIIIIIIIIIIIIIIIIIIIIIIIIIIII
IIA1I222222222I22IIIIIIIIIIIIIIIIIIIIIIIIIIIIIIIIIIIIIIIIIIIIIII
IIIIIIIIIIIIIIIIIIIIIIIIIIIA2IIIIIIIIIIIIIIIIIIIIIIIIIIIIIIIIIII
IIIIIIIIIIIIIIIIIIIIIIIIIIIIIIIIIIA1I1111111111112IIIIIIIIIIIIII
IIIIIIIIA11222222I222IIIIII222IIIIA1I1111111111112IIIIIIIIIIIIII
IIIIIIIIIIIIIIIIIIIIIIIIIIA1II2IIIIIIIIIIIIIIIIIIIIIIIIIIIIIIIII
IIIIIIIIIIIIIIIIIIIIIIIIIIIIIIIIA11111111111111IIIIIIIIIIIIIIIII
IIIIA11111111111111IIIIIIIIIIIIIA11111111111111IIIIIIIIIIIIIIIII
IIIIIIIIIIIIIIIIIIIIIIIIIIIIIIIIIII2AIIIIIIIIIIIIIIIIIIIIIIIIIII
IIIIIIIIIIIIIIIIIIIIIIIIIIIIIIIIIIIA12I222IIIIIIIIIIIIIIIIIIIIII
IIIIIIIIA122IIIIIIIIIIIIIIIIIIIIIIIIIIIIIIIIIIIIIIIIIIIIIIIIIIII
IIA1I1111111122222IIIIIIIIIIIIIIIIIIIIIIIIIIIIIIIIIIIIIIIIIIIIII
IIIIIIIIIIIIIIIIIIIIIIIIIIIA1I1222222IIIIIIIIIIIIIIIIIIIIIIIIIII
IIIIIIIIIIIIIIIIIIIIIIIIIIIIIIIIIIA12IIIIIIIIIIIIIIIIIIIIIIIIIII
IIIIIIIIA12IIIIIIIIIIIIIIIIIIIIIIIA12IIIIIIIIIIIIIIIIIIIIIIIIIII
IIIIIIIIIIIIIIIIIIIIIIIIIIA2IIIIIIIIIIIIIIIIIIIIIIIIIIIIIIIIIIII
IIIIIIIIIIIIIIIIIIIIIIIIIIIIIIIIA11I111111111111IIIIIIIIIIIIIIII
IIIIA11I111111111111IIIIIIIIIIIIA11I111111111111IIIIIIIIIIIIIIII
IIIIIIIIIIIIIIIIIIIIIIIIIIIIIIIIIII1AIIIIIIIIIIIIIIIIIIIIIIIIIII
IIIIIIIIIIIIIIIIIIIIIIIIIIIIIIIIIIIA11I111122222222IIIIIIIIIIIII
IIIIIIIIA1I1111111111111IIIIIIIIIIIIIIIIIIIIIIIIIIIIIIIIIIIIIIII
IIA1I1112222222222IIIIIIIIIIIIIIIIIIIIIIIIIIIIIIIIIIIIIIIIIIIIII
IIIIIIIIIIIIIIIIIIIIIIIIII2AIIIIIIIIIIIIIIIIIIIIIIIIIIIIIIIIIIII
IIIIIIIIIIIIIIIIIIIIIIIIIIIIIIIIIIA1I1111112222222IIIIIIIIIIIIII
IIIIIIIIA12I2222IIIIIIIIIIIIIIIIIIA1I1111112222222IIIIIIIIIIIIII
IIIIIIIIIIIIIIIIIIIIIIIIIIA2IIIIIIIIIIIIIIIIIIIIIIIIIIIIIIIIIIII
IIIIIIIIIIIIIIIIIIIIIIIIIIIIIIIIA11111111111111IIIIIIIIIIIIIIIII
IIIIA11111111111111IIIIIIIIIIIIIA11111111111111IIIIIIIIIIIIIIIII
IIIIIIIIIIIIIIIIIIIIIIIIIIIIIIIIIII2AIIIIIIIIIIIIIIIIIIIIIIIIIII
IIIIIIIIIIIIIIIIIIIIIIIIIIIIIIIIIIIA12IIIIIIIIIIIIIIIIIIIIIIIIII
IIIIIIIIA1222IIIIIIIIIIIIIIIIIIIIIIIIIIIIIIIIIIIIIIIIIIIIIIIIIII
IIA1I1111111111112IIIIIIIIIIIIIIIIIIIIIIIIIIIIIIIIIIIIIIIIIIIIII
IIIIIIIIIIIIIIIIIIIIIIIIIIIA1I11I1122222222IIIIIIIIIIIIIIIIIIIII
IIIIIIIIIIIIIIIIIIIIIIIIIIIIIIIIIIA1I11I11112222222IIIIIIIIIIIII
IIIIIIIIA12I2IIIIIIIIIIIIIIIIIIIIIA1I11I11112222222IIIIIIIIIIIII
IIIIIIIIIIIIIIIIIIIIIIIIIIA2IIIIIIIIIIIIIIIIIIIIIIIIIIIIIIIIIIII
IIIIIIIIIIIIIIIIIIIIIIIIIIIIIIIIA1I1111111111111IIIIIIIIIIIIIIII
IIIIA11112I2I22222222IIIIIIIIIIIA1I1111111111111IIIIIIIIIIIIIIII
IIIIIIIIIIIIIIIIIIIIIIIIIIIIIIIIIIIIA1I1111111111122IIIIIIIIIIII
IIIIIIIIIIIIIIIIIIIIIIIIIIIIIIIIIIIA12I22IIIIIIIIIIIIIIIIIIIIIII
IIIIIIIIA1I11111222222I22IIIIIIIIIIIIIIIIIIIIIIIIIIIIIIIIIIIIIII
IIA11222222222222IIIIIIIIIIIIIIIIIIIIIIIIIIIIIIIIIIIIIIIIIIIIIII
IIIIIIIIIIIIIIIIIIIIIIIIIIIA1I12I2222222IIIIIIIIIIIIIIIIIIIIIIII
[MLOP] Prefetch Degree Mean: 7.06983
[MLOP] Prefetch Degree SD: 5.86707
[MLOP] Max Score Left Mean (%): 25.8475
[MLOP] Max Score Left SD (%): 12.6407
[MLOP] Max Score Right Mean (%): 49.9782
[MLOP] Max Score Right SD (%): 14.3368

DRAM Statistics
 CHANNEL 0
 RQ ROW_BUFFER_HIT:     485378  ROW_BUFFER_MISS:     703805
 DBUS_CONGESTED:        850
 WQ ROW_BUFFER_HIT:       5597  ROW_BUFFER_MISS:      50112  FULL:          0

 AVG_CONGESTED_CYCLE: 4
 All warmup complete: 2
Channel 0 Bank busy for read cycles: 0
Channel 0 Bank busy for write cycles: 0
Channel 0
Rank 0
0banks busy for read cycles: 235905377
0banks busy for write cycles: 29624
1banks busy for read cycles: 10282238
1banks busy for write cycles: 4346834
2banks busy for read cycles: 5932976
2banks busy for write cycles: 1342673
3banks busy for read cycles: 3053171
3banks busy for write cycles: 537140
4banks busy for read cycles: 2373056
4banks busy for write cycles: 274853
5banks busy for read cycles: 2038864
5banks busy for write cycles: 142567
6banks busy for read cycles: 2175766
6banks busy for write cycles: 69102
7banks busy for read cycles: 2975229
7banks busy for write cycles: 40040
8banks busy for read cycles: 5621375
8banks busy for write cycles: 25717

CPU 0 Branch Prediction Accuracy: 99.7854% MPKI: 0.39192 Average ROB Occupancy at Mispredict: 18.6744
Branch types
NOT_BRANCH: 163480475 81.7402%
BRANCH_DIRECT_JUMP: 2289018 1.14451%
BRANCH_INDIRECT: 12541857 6.27093%
BRANCH_CONDITIONAL: 14124865 7.06243%
BRANCH_DIRECT_CALL: 3331862 1.66593%
BRANCH_INDIRECT_CALL: 449927 0.224964%
BRANCH_RETURN: 3781785 1.89089%
BRANCH_OTHER: 0 0%

DRAM PAGES: 1048576
Allocated PAGES: 6174
