
*** ChampSim Multicore Out-of-Order Simulator ***

Warmup Instructions: 50000000
Simulation Instructions: 200000000
Number of CPUs: 1
LLC sets: 2048
LLC ways: 16
Off-chip DRAM Size: 4096 MB Channels: 1 Width: 64-bit Data Rate: 6400 MT/s
CPU 0 runs traces/spec2k17/srv_2.champsimtrace.xz
.xz
BTB has LRU replacement policy
ITLB has LRU replacement policy
DTLB has LRU replacement policy
STLB has LRU replacement policy
L1I has LRU replacement policy
L1D has LRU replacement policy
Initialize SRRIP state for L2C
Initialize DRRIP state for LLC
Heartbeat CPU 0 instructions: 10000002 cycles: 2781374 heartbeat IPC: 3.59535 cumulative IPC: 3.59535 (Simulation time: 0 hr 0 min 40 sec) 
Heartbeat CPU 0 instructions: 20000002 cycles: 5553666 heartbeat IPC: 3.60712 cumulative IPC: 3.60123 (Simulation time: 0 hr 1 min 21 sec) 
Heartbeat CPU 0 instructions: 30000001 cycles: 8327782 heartbeat IPC: 3.60475 cumulative IPC: 3.6024 (Simulation time: 0 hr 1 min 51 sec) 
*** Reached end of trace for Core: 0 Repeating trace: traces/spec2k17/srv_2.champsimtrace.xz
Heartbeat CPU 0 instructions: 40000000 cycles: 11101193 heartbeat IPC: 3.60567 cumulative IPC: 3.60322 (Simulation time: 0 hr 2 min 32 sec) 
Heartbeat CPU 0 instructions: 50000000 cycles: 13871769 heartbeat IPC: 3.60936 cumulative IPC: 3.60444 (Simulation time: 0 hr 3 min 13 sec) 

Warmup complete CPU 0 instructions: 50000004 cycles: 13871770 (Simulation time: 0 hr 3 min 13 sec) 

Heartbeat CPU 0 instructions: 60000000 cycles: 36754484 heartbeat IPC: 0.437011 cumulative IPC: 0.437011 (Simulation time: 0 hr 3 min 58 sec) 
*** Reached end of trace for Core: 0 Repeating trace: traces/spec2k17/srv_2.champsimtrace.xz
Heartbeat CPU 0 instructions: 70000000 cycles: 59483821 heartbeat IPC: 0.43996 cumulative IPC: 0.438481 (Simulation time: 0 hr 4 min 51 sec) 
Heartbeat CPU 0 instructions: 80000001 cycles: 81490027 heartbeat IPC: 0.454417 cumulative IPC: 0.443667 (Simulation time: 0 hr 5 min 50 sec) 
Heartbeat CPU 0 instructions: 90000000 cycles: 104275177 heartbeat IPC: 0.438882 cumulative IPC: 0.442461 (Simulation time: 0 hr 6 min 42 sec) 
*** Reached end of trace for Core: 0 Repeating trace: traces/spec2k17/srv_2.champsimtrace.xz
Heartbeat CPU 0 instructions: 100000000 cycles: 126785594 heartbeat IPC: 0.444239 cumulative IPC: 0.442816 (Simulation time: 0 hr 7 min 35 sec) 
Heartbeat CPU 0 instructions: 110000000 cycles: 148846200 heartbeat IPC: 0.453297 cumulative IPC: 0.444529 (Simulation time: 0 hr 8 min 30 sec) 
Heartbeat CPU 0 instructions: 120000001 cycles: 171162556 heartbeat IPC: 0.448102 cumulative IPC: 0.445036 (Simulation time: 0 hr 9 min 28 sec) 
*** Reached end of trace for Core: 0 Repeating trace: traces/spec2k17/srv_2.champsimtrace.xz
Heartbeat CPU 0 instructions: 130000001 cycles: 194266032 heartbeat IPC: 0.432835 cumulative IPC: 0.443473 (Simulation time: 0 hr 10 min 23 sec) 
Heartbeat CPU 0 instructions: 140000000 cycles: 216333212 heartbeat IPC: 0.453162 cumulative IPC: 0.444529 (Simulation time: 0 hr 11 min 15 sec) 
Heartbeat CPU 0 instructions: 150000001 cycles: 238794346 heartbeat IPC: 0.445214 cumulative IPC: 0.444597 (Simulation time: 0 hr 12 min 14 sec) 
*** Reached end of trace for Core: 0 Repeating trace: traces/spec2k17/srv_2.champsimtrace.xz
Heartbeat CPU 0 instructions: 160000002 cycles: 261512177 heartbeat IPC: 0.440183 cumulative IPC: 0.444192 (Simulation time: 0 hr 13 min 4 sec) 
Heartbeat CPU 0 instructions: 170000001 cycles: 283878126 heartbeat IPC: 0.447108 cumulative IPC: 0.444434 (Simulation time: 0 hr 13 min 54 sec) 
Heartbeat CPU 0 instructions: 180000000 cycles: 306276026 heartbeat IPC: 0.44647 cumulative IPC: 0.44459 (Simulation time: 0 hr 14 min 46 sec) 
*** Reached end of trace for Core: 0 Repeating trace: traces/spec2k17/srv_2.champsimtrace.xz
Heartbeat CPU 0 instructions: 190000000 cycles: 329033005 heartbeat IPC: 0.439426 cumulative IPC: 0.444217 (Simulation time: 0 hr 15 min 39 sec) 
Heartbeat CPU 0 instructions: 200000000 cycles: 351285643 heartbeat IPC: 0.449385 cumulative IPC: 0.444558 (Simulation time: 0 hr 16 min 36 sec) 
Heartbeat CPU 0 instructions: 210000000 cycles: 373216674 heartbeat IPC: 0.455975 cumulative IPC: 0.445255 (Simulation time: 0 hr 17 min 28 sec) 
*** Reached end of trace for Core: 0 Repeating trace: traces/spec2k17/srv_2.champsimtrace.xz
Heartbeat CPU 0 instructions: 220000000 cycles: 396321677 heartbeat IPC: 0.432807 cumulative IPC: 0.444503 (Simulation time: 0 hr 18 min 22 sec) 
Heartbeat CPU 0 instructions: 230000002 cycles: 418681121 heartbeat IPC: 0.447238 cumulative IPC: 0.444654 (Simulation time: 0 hr 19 min 22 sec) 
Heartbeat CPU 0 instructions: 240000002 cycles: 440600447 heartbeat IPC: 0.456218 cumulative IPC: 0.445248 (Simulation time: 0 hr 20 min 16 sec) 
*** Reached end of trace for Core: 0 Repeating trace: traces/spec2k17/srv_2.champsimtrace.xz
Heartbeat CPU 0 instructions: 250000002 cycles: 463581676 heartbeat IPC: 0.435138 cumulative IPC: 0.444731 (Simulation time: 0 hr 21 min 6 sec) 
Finished CPU 0 instructions: 200000002 cycles: 449709907 cumulative IPC: 0.444731 (Simulation time: 0 hr 21 min 6 sec) 

ChampSim completed all CPUs

Region of Interest Statistics

CPU 0 cumulative IPC: 0.444731 instructions: 200000002 cycles: 449709907
ITLB TOTAL     ACCESS:   31283013  HIT:   30504268  MISS:     778745  HIT %:    97.5106  MISS %:    2.48935   MPKI: 3.89372
ITLB LOAD TRANSLATION ACCESS:   31283013  HIT:   30504268  MISS:     778745  HIT %:    97.5106  MISS %:    2.48935   MPKI: 3.89372
ITLB PREFETCH  REQUESTED:          0  ISSUED:          0  USEFUL:          0  USELESS:          0
ITLB USEFUL LOAD PREFETCHES:          0 PREFETCH ISSUED TO LOWER LEVEL:          0  ACCURACY: -nan
ITLB TIMELY PREFETCHES:          0 LATE PREFETCHES: 0 DROPPED PREFETCHES: 0
ITLB PREFETCHES SAME FILL-ORIGIN LEVEL: 0 DIFFERENT FILL-ORIGIN LEVEL: 0
ITLB AVERAGE MISS LATENCY: 14.1563 cycles
ITLB RQ	ACCESS:   38367941	FORWARD:          0	MERGED:    6890573	TO_CACHE:   31477368

DTLB TOTAL     ACCESS:   37269513  HIT:   34675253  MISS:    2594260  HIT %:    93.0392  MISS %:    6.96081   MPKI: 12.9713
DTLB LOAD TRANSLATION ACCESS:   37269513  HIT:   34675253  MISS:    2594260  HIT %:    93.0392  MISS %:    6.96081   MPKI: 12.9713
DTLB PREFETCH  REQUESTED:          0  ISSUED:          0  USEFUL:          0  USELESS:          0
DTLB USEFUL LOAD PREFETCHES:          0 PREFETCH ISSUED TO LOWER LEVEL:          0  ACCURACY: -nan
DTLB TIMELY PREFETCHES:          0 LATE PREFETCHES: 0 DROPPED PREFETCHES: 0
DTLB PREFETCHES SAME FILL-ORIGIN LEVEL: 0 DIFFERENT FILL-ORIGIN LEVEL: 0
DTLB AVERAGE MISS LATENCY: 14.1927 cycles
DTLB RQ	ACCESS:   47684653	FORWARD:          0	MERGED:   10273482	TO_CACHE:   37411171

STLB TOTAL     ACCESS:    4386497  HIT:    4052805  MISS:     333692  HIT %:    92.3927  MISS %:    7.60725   MPKI: 1.66846
STLB LOAD TRANSLATION ACCESS:    3373005  HIT:    3039313  MISS:     333692  HIT %:     90.107  MISS %:    9.89302   MPKI: 1.66846
STLB TRANSLATION FROM L1D PREFETCHER ACCESS:    1013492  HIT:    1013492  MISS:          0  HIT %:        100  MISS %:          0   MPKI: 0
STLB PREFETCH  REQUESTED:          0  ISSUED:          0  USEFUL:          0  USELESS:          0
STLB USEFUL LOAD PREFETCHES:          0 PREFETCH ISSUED TO LOWER LEVEL:          0  ACCURACY: -nan
STLB TIMELY PREFETCHES:          0 LATE PREFETCHES: 0 DROPPED PREFETCHES: 0
STLB PREFETCHES SAME FILL-ORIGIN LEVEL: 0 DIFFERENT FILL-ORIGIN LEVEL: 0
STLB AVERAGE MISS LATENCY: 52.1587 cycles
STLB RQ	ACCESS:    4959766	FORWARD:          0	MERGED:     573269	TO_CACHE:    4386497

STLB Hit, L1D data hit: 0
STLB Hit, L2C data hit: 0
STLB Hit, LLC data hit: 0
STLB Hit, LLC data miss: 0
STLB STLB hints to L2: 0
L1D TOTAL     ACCESS:   48150248  HIT:   44939247  MISS:    3211001  HIT %:    93.3313  MISS %:    6.66871   MPKI: 16.055
L1D LOAD      ACCESS:   27639446  HIT:   25650734  MISS:    1988712  HIT %:    92.8048  MISS %:    7.19519   MPKI: 9.94356
L1D RFO       ACCESS:   19579456  HIT:   19253545  MISS:     325911  HIT %:    98.3354  MISS %:    1.66456   MPKI: 1.62955
L1D PREFETCH  ACCESS:     931346  HIT:      34968  MISS:     896378  HIT %:    3.75457  MISS %:    96.2454   MPKI: 4.48189
AGUS PREFETCH L1 MISS: 0
L1D PREFETCH  REQUESTED:    3183935  ISSUED:    3183935  USEFUL:     261863  USELESS:     634462
L1D USEFUL LOAD PREFETCHES:     261863 PREFETCH ISSUED TO LOWER LEVEL:    1500957  ACCURACY: 17.4464
L1D TIMELY PREFETCHES:     261863 LATE PREFETCHES: 23951 DROPPED PREFETCHES: 0
L1D PREFETCHES SAME FILL-ORIGIN LEVEL: 921566 DIFFERENT FILL-ORIGIN LEVEL: 579391
L1D AVERAGE MISS LATENCY: 1.8713e+06 cycles
L1D RQ	ACCESS:   42251142	FORWARD:          0	MERGED:   14263307	TO_CACHE:   27740187
L1D WQ	ACCESS:   20224318	FORWARD:     247670	MERGED:     279852	TO_CACHE:   19944466
L1D PQ	ACCESS:    1597174	FORWARD:          0	MERGED:      10391	TO_CACHE:    1586761

L1D UNIQUE REGIONS ACCESSED: 0
L1D REGIONS CONFLICTS: 0
L1D Cross Page Prefetch Requests: 0
L1D Same Page Prefetch Requests: 2034918
L1D ROI Sum of L1D PQ occupancy: 20763039
L1D PREFETCHES PUSHED FROM L2C: 0
L1I TOTAL     ACCESS:   36559066  HIT:   31410778  MISS:    5148288  HIT %:    85.9179  MISS %:    14.0821   MPKI: 25.7414
L1I LOAD      ACCESS:   36559066  HIT:   31410778  MISS:    5148288  HIT %:    85.9179  MISS %:    14.0821   MPKI: 25.7414
L1I PREFETCH  REQUESTED:          0  ISSUED:          0  USEFUL:          0  USELESS:          0
L1I USEFUL LOAD PREFETCHES:          0 PREFETCH ISSUED TO LOWER LEVEL:          0  ACCURACY: -nan
L1I TIMELY PREFETCHES:          0 LATE PREFETCHES: 0 DROPPED PREFETCHES: 0
L1I PREFETCHES SAME FILL-ORIGIN LEVEL: 0 DIFFERENT FILL-ORIGIN LEVEL: 0
L1I AVERAGE MISS LATENCY: 27.4665 cycles
L1I RQ	ACCESS:   57172233	FORWARD:          0	MERGED:   18804292	TO_CACHE:   38367941

BTB TOTAL     ACCESS:   22017286  HIT:   17637200  MISS:    4380086  HIT %:    80.1061  MISS %:    19.8939   MPKI: 21.9004
BTB BRANCH_DIRECT_JUMP	ACCESS:    1737856  HIT:    1493758  MISS:     244098
BTB BRANCH_INDIRECT	ACCESS:    9415712  HIT:    7279334  MISS:    2136378
BTB BRANCH_CONDITIONAL	ACCESS:    4567442  HIT:    4164173  MISS:     403269
BTB BRANCH_DIRECT_CALL	ACCESS:    2474421  HIT:    1994045  MISS:     480376
BTB BRANCH_INDIRECT_CALL	ACCESS:     673221  HIT:     632799  MISS:      40422
BTB BRANCH_RETURN	ACCESS:    3148634  HIT:    2073091  MISS:    1075543
BTB BRANCH_OTHER ACCESS:          0  HIT:          0  MISS:          0

L2C TOTAL     ACCESS:   10419307  HIT:    6016215  MISS:    4403092  HIT %:     57.741  MISS %:     42.259   MPKI: 22.0155
L2C LOAD      ACCESS:    7112857  HIT:    4200146  MISS:    2912711  HIT %:    59.0501  MISS %:    40.9499   MPKI: 14.5636
L2C DATA LOAD MPKI: 3.92994
L2C INSTRUCTION LOAD MPKI: 10.6336
L2C RFO       ACCESS:     324670  HIT:     189169  MISS:     135501  HIT %:     58.265  MISS %:     41.735   MPKI: 0.677505
L2C PREFETCH  ACCESS:    1493218  HIT:     382617  MISS:    1110601  HIT %:    25.6237  MISS %:    74.3763   MPKI: 5.553
AGUS PREFETCH L1 MISS: 0
L2C DATA PREFETCH MPKI: 5.553
L2C INSTRUCTION PREFETCH MPKI: 0
L2C WRITEBACK ACCESS:    1048033  HIT:    1006022  MISS:      42011  HIT %:    95.9914  MISS %:    4.00856   MPKI: 0.210055
L2C LOAD TRANSLATION ACCESS:     440529  HIT:     238261  MISS:     202268  HIT %:    54.0852  MISS %:    45.9148   MPKI: 1.01134
L2C PREFETCH  REQUESTED:          0  ISSUED:          0  USEFUL:      82681  USELESS:    1027577
L2C USEFUL LOAD PREFETCHES:      82681 PREFETCH ISSUED TO LOWER LEVEL:    1113381  ACCURACY: 7.42612
L2C TIMELY PREFETCHES:      82681 LATE PREFETCHES: 2780 DROPPED PREFETCHES: 0
L2C PREFETCHES SAME FILL-ORIGIN LEVEL: 498980 DIFFERENT FILL-ORIGIN LEVEL: 0
L2C AVERAGE MISS LATENCY: 44.6733 cycles
L2C RQ	ACCESS:    7878253	FORWARD:          0	MERGED:          0	TO_CACHE:    7878056
L2C WQ	ACCESS:    1048034	FORWARD:        198	MERGED:          0	TO_CACHE:    1048034
L2C PQ	ACCESS:    1500957	FORWARD:          0	MERGED:          5	TO_CACHE:    1500951

L2C Instructions Evicting Data 986207
L2C Translations Evicting Data 98909
L2C Data Evicting Data 970758
L2C Instructions Evicting Instructions 1048646
L2C Translations Evicting Instructions 92698
L2C Data Evicting Instructions 963308
L2C Instructions Evicting Translations 91870
L2C Translations Evicting Translations 10661
L2C Data Evicting Translations 98024
L2C Dense regions hint from L2: 0
PSCL5 TOTAL     ACCESS:     333692  HIT:     333692  MISS:          0  HIT %:        100  MISS %:          0   MPKI: 0
PSCL5 LOAD TRANSLATION ACCESS:     333692  HIT:     333692  MISS:          0  HIT %:        100  MISS %:          0   MPKI: 0
PSCL5 PREFETCH  REQUESTED:          0  ISSUED:          0  USEFUL:          0  USELESS:          0
PSCL5 USEFUL LOAD PREFETCHES:          0 PREFETCH ISSUED TO LOWER LEVEL:          0  ACCURACY: -nan
PSCL5 TIMELY PREFETCHES:          0 LATE PREFETCHES: 0 DROPPED PREFETCHES: 0
PSCL5 PREFETCHES SAME FILL-ORIGIN LEVEL: 0 DIFFERENT FILL-ORIGIN LEVEL: 0

PSCL4 TOTAL     ACCESS:     315039  HIT:     314638  MISS:        401  HIT %:    99.8727  MISS %:   0.127286   MPKI: 0.002005
PSCL4 LOAD TRANSLATION ACCESS:     315039  HIT:     314638  MISS:        401  HIT %:    99.8727  MISS %:   0.127286   MPKI: 0.002005
PSCL4 PREFETCH  REQUESTED:          0  ISSUED:          0  USEFUL:          0  USELESS:          0
PSCL4 USEFUL LOAD PREFETCHES:          0 PREFETCH ISSUED TO LOWER LEVEL:          0  ACCURACY: -nan
PSCL4 TIMELY PREFETCHES:          0 LATE PREFETCHES: 0 DROPPED PREFETCHES: 0
PSCL4 PREFETCHES SAME FILL-ORIGIN LEVEL: 0 DIFFERENT FILL-ORIGIN LEVEL: 0

PSCL3 TOTAL     ACCESS:     332823  HIT:     332019  MISS:        804  HIT %:    99.7584  MISS %:    0.24157   MPKI: 0.00402
PSCL3 LOAD TRANSLATION ACCESS:     332823  HIT:     332019  MISS:        804  HIT %:    99.7584  MISS %:    0.24157   MPKI: 0.00402
PSCL3 PREFETCH  REQUESTED:          0  ISSUED:          0  USEFUL:          0  USELESS:          0
PSCL3 USEFUL LOAD PREFETCHES:          0 PREFETCH ISSUED TO LOWER LEVEL:          0  ACCURACY: -nan
PSCL3 TIMELY PREFETCHES:          0 LATE PREFETCHES: 0 DROPPED PREFETCHES: 0
PSCL3 PREFETCHES SAME FILL-ORIGIN LEVEL: 0 DIFFERENT FILL-ORIGIN LEVEL: 0

PSCL2 TOTAL     ACCESS:     333692  HIT:     228060  MISS:     105632  HIT %:    68.3445  MISS %:    31.6555   MPKI: 0.52816
PSCL2 LOAD TRANSLATION ACCESS:     333692  HIT:     228060  MISS:     105632  HIT %:    68.3445  MISS %:    31.6555   MPKI: 0.52816
PSCL2 PREFETCH  REQUESTED:          0  ISSUED:          0  USEFUL:          0  USELESS:          0
PSCL2 USEFUL LOAD PREFETCHES:          0 PREFETCH ISSUED TO LOWER LEVEL:          0  ACCURACY: -nan
PSCL2 TIMELY PREFETCHES:          0 LATE PREFETCHES: 0 DROPPED PREFETCHES: 0
PSCL2 PREFETCHES SAME FILL-ORIGIN LEVEL: 0 DIFFERENT FILL-ORIGIN LEVEL: 0

LLC TOTAL     ACCESS:    4811521  HIT:    4364856  MISS:     446665  HIT %:    90.7168  MISS %:    9.28324   MPKI: 2.23332
LLC LOAD      ACCESS:    2910140  HIT:    2746576  MISS:     163564  HIT %:    94.3795  MISS %:    5.62049   MPKI: 0.81782
LLC RFO       ACCESS:     135287  HIT:      94370  MISS:      40917  HIT %:    69.7554  MISS %:    30.2446   MPKI: 0.204585
LLC PREFETCH  ACCESS:    1113381  HIT:     892720  MISS:     220661  HIT %:     80.181  MISS %:     19.819   MPKI: 1.1033
AGUS PREFETCH L1 MISS: 0
LLC WRITEBACK ACCESS:     450445  HIT:     447415  MISS:       3030  HIT %:    99.3273  MISS %:   0.672668   MPKI: 0.01515
LLC LOAD TRANSLATION ACCESS:     202268  HIT:     183775  MISS:      18493  HIT %:    90.8572  MISS %:    9.14282   MPKI: 0.092465
LLC PREFETCH  REQUESTED:          0  ISSUED:          0  USEFUL:       7477  USELESS:     214346
LLC USEFUL LOAD PREFETCHES:       7477 PREFETCH ISSUED TO LOWER LEVEL:     220661  ACCURACY: 3.38846
LLC TIMELY PREFETCHES:       7477 LATE PREFETCHES: 0 DROPPED PREFETCHES: 0
LLC PREFETCHES SAME FILL-ORIGIN LEVEL: 0 DIFFERENT FILL-ORIGIN LEVEL: 0
LLC AVERAGE MISS LATENCY: 147.647 cycles
LLC RQ	ACCESS:    3247700	FORWARD:          0	MERGED:          0	TO_CACHE:    3247695
LLC WQ	ACCESS:     450446	FORWARD:          5	MERGED:          0	TO_CACHE:     450446
LLC PQ	ACCESS:    1113381	FORWARD:          0	MERGED:          0	TO_CACHE:    1113381

LLC Dense regions hint to LLC: 0

RAW hits: 2622047
Loads Generated: 44873189
Loads sent to L1D: 42251142
Stores Generated: 20224314
Stores sent to L1D: 20224318
Major fault: 0 Minor fault: 6527
Allocated PAGES: 6527
=== CPU 0 L1D Prefetcher Statistics ===
[MLOP] History of tracked zone:
IIIIIIIIIIIIIIIIIIIIIIIIIIIIIIIIIIIIIIIIIIIIIIIIIIIIIIIIIIIIIIII
IIIIIIIIIIIIIIIIAIIIIIIIIIIIIIIIIIIIIIIIIIIIIIIIIIIIIIIIIIIIIIII
IIAIIIIIIIIIIIIIAIIIIIIIIIIIIIIIIIIIIIIIIIIIIIIIIIIIIIIIIIIIIIII
IIAIAIIIIIIIIIIIAIIIIIIIIIIIIIIIIIIIIIIIIIIIIIIIIIIIIIIIIIIIIIII
IIAIAIAIIIIIIIIIAIIIIIIIIIIIIIIIIIIIIIIIIIIIIIIIIIIIIIIIIIIIIIII
IIAIAIAIIIIIIIIIAIIIIIIIIAIIIIIIIIIIIIIIIIIIIIIIIIIIIIIIIIIIIIII
IIAIAIAAIIIIIIIIAIIIIIIIIAIIIIIIIIIIIIIIIIIIIIIIIIIIIIIIIIIIIIII
IIAIAIAAIIIIIIIIAIIA1IIIIAIIIIIIIIIIIIIIIIIIIIIIIIIIIIIIIIIIIIII
IIAIA1AAIIIIIIIIAIIA1IIIIAIIIIIIIIIIIIIIIIIIIIIIIIIIIIIIIIIIIIII
IIAIA1AAIIIIIIIIAIIA1III2AIIIIIIIIIIIIIIIIIIIIIIIIIIIIIIIIIIIIII
IIAIA1AAIIIIIII2AIIA1III2AIIIIIIIIIIIIIIIIIIIIIIIIIIIIIIIIIIIIII
I2AIA1AAIIIIIII2AIIA1III2AIIIIIIIIIIIIIIIIIIIIIIIIIIIIIIIIIIIIII
I2A2A1AAIIIIIII2AIIA1III2AIIIIIIIIIIIIIIIIIIIIIIIIIIIIIIIIIIIIII
I2A2A1AAIIIIII2AAIIA1III2AIIIIIIIIIIIIIIIIIIIIIIIIIIIIIIIIIIIIII
I2A2A1AAIIIIII2AA1IA1III2AIIIIIIIIIIIIIIIIIIIIIIIIIIIIIIIIIIIIII
I2A1A1AAIIIIII2AA1IA1III2AIIIIIIIIIIIIIIIIIIIIIIIIIIIIIIIIIIIIII
I2A1A1AA1IIIII2AA1IA1III2AIIIIIIIIIIIIIIIIIIIIIIIIIIIIIIIIIIIIII
I2A1A1AA1IIIII2AA1IA1III2A1IIIIIIIIIIIIIIIIIIIIIIIIIIIIIIIIIIIII
I2A1A1AA1IIIII2AA1IAAIII2A1IIIIIIIIIIIIIIIIIIIIIIIIIIIIIIIIIIIII
I2A1A1AA1IIIII2AA12AAIII2A1IIIIIIIIIIIIIIIIIIIIIIIIIIIIIIIIIIIII
I2A1A1AA1IIIII2AA12AAIII2A12IIIIIIIIIIIIIIIIIIIIIIIIIIIIIIIIIIII
I2A1A1AA12IIII2AA12AAIII2A12IIIIIIIIIIIIIIIIIIIIIIIIIIIIIIIIIIII
IIIIIIIIIIIIIIIAIIIIIIIIIIIIIIIIIIIIIIIIIIIIIIIIIIIIIIIIIIIIIIII
IIIIIIIIIIIIIIIIAIIIIIIIIIIIIIIIIIIIIIIIIIIIIIIIIIIIIIIIIIIIIIII
IIAIIIIIIIIIIIIIAIIIIIIIIIIIIIIIIIIIIIIIIIIIIIIIIIIIIIIIIIIIIIII
IIAIAIIIIIIIIIIIAIIIIIIIIIIIIIIIIIIIIIIIIIIIIIIIIIIIIIIIIIIIIIII
IIAIAIAIIIIIIIIIAIIIIIIIIIIIIIIIIIIIIIIIIIIIIIIIIIIIIIIIIIIIIIII
IIAIAIA1IIIIIIIIAIIIIIIIIIIIIIIIIIIIIIIIIIIIIIIIIIIIIIIIIIIIIIII
IIAIAIAA1IIIIIIIAIIIIIIIIIIIIIIIIIIIIIIIIIIIIIIIIIIIIIIIIIIIIIII
IIAIAIAA1IIIIIIIAIIIIIIIIA1IIIIIIIIIIIIIIIIIIIIIIIIIIIIIIIIIIIII
IIAIAIAA1IIIIIIIA1IIIIIIIA1IIIIIIIIIIIIIIIIIIIIIIIIIIIIIIIIIIIII
IIA1AIAA1IIIIIIIA1IIIIIIIA1IIIIIIIIIIIIIIIIIIIIIIIIIIIIIIIIIIIII
IIA1A1AA1IIIIIIIA1IIIIIIIA1IIIIIIIIIIIIIIIIIIIIIIIIIIIIIIIIIIIII
IIA1A1AA1IIIIIIIA1IIA1IIIA1IIIIIIIIIIIIIIIIIIIIIIIIIIIIIIIIIIIII
IIA1A1AA1IIIIIIAA122A1IIIA1IIIIIIIIIIIIIIIIIIIIIIIIIIIIIIIIIIIII
IIA1A1AA122IIIIAA122A1IIIA1IIIIIIIIIIIIIIIIIIIIIIIIIIIIIIIIIIIII
IIA1A1AA122IIIIAA122A1IIIA1I22IIIIIIIIIIIIIIIIIIIIIIIIIIIIIIIIII
IIA1A1AA1222IIIAA122A1IIIA1I22IIIIIIIIIIIIIIIIIIIIIIIIIIIIIIIIII
IIA1A1AA12222IIAA122A1IIIA1I22IIIIIIIIIIIIIIIIIIIIIIIIIIIIIIIIII
IIA1A1AA12222IIAA122A1IIIA12222IIIIIIIIIIIIIIIIIIIIIIIIIIIIIIIII
IIA1A1AA12222IIAA122A12IIA12222IIIIIIIIIIIIIIIIIIIIIIIIIIIIIIIII
IIA1A1AA12222IIAA122A122IA12222IIIIIIIIIIIIIIIIIIIIIIIIIIIIIIIII
IIIIIIIIIIIIIIIA1IIIIIIIIIIIIIIIIIIIIIIIIIIIIIIIIIIIIIIIIIIIIIII
IIIIIIIIIIIIIIIAA1IIIIIIIIIIIIIIIIIIIIIIIIIIIIIIIIIIIIIIIIIIIIII
IIA1IIIIIIIIIIIAA1IIIIIIIIIIIIIIIIIIIIIIIIIIIIIIIIIIIIIIIIIIIIII
IIA1A1IIIIIIIIIAA1IIIIIIIIIIIIIIIIIIIIIIIIIIIIIIIIIIIIIIIIIIIIII
IIA1A1A1IIIIIIIAA1IIIIIIIIIIIIIIIIIIIIIIIIIIIIIIIIIIIIIIIIIIIIII
IIA1A1AAIIIIIIIAA1IIIIIIIIIIIIIIIIIIIIIIIIIIIIIIIIIIIIIIIIIIIIII
IIA1A1AAIIIIIIIAA1IIIIIIIAIIIIIIIIIIIIIIIIIIIIIIIIIIIIIIIIIIIIII
IIA1A1AA122IIIIAA1IIIIIIIAIIIIIIIIIIIIIIIIIIIIIIIIIIIIIIIIIIIIII
IIA1A1AA122IIIIAA1IIA122IAIIIIIIIIIIIIIIIIIIIIIIIIIIIIIIIIIIIIII
IIA1A1AA122IIIIAA1IIA122IA122IIIIIIIIIIIIIIIIIIIIIIIIIIIIIIIIIII
IIA1A1AA122IIIIAA122A122IA122IIIIIIIIIIIIIIIIIIIIIIIIIIIIIIIIIII
IIIIIIIA12IIIIIIIIIIIIIIIIIIIIIIIIIIIIIIIIIIIIIIIIIIIIIIIIIIIIII
IIIIIIAA12IIIIIIIIIIIIIIIIIIIIIIIIIIIIIIIIIIIIIIIIIIIIIIIIIIIIII
IIIIIIAA12IIIIIIIIIIIIIIIAIIIIIIIIIIIIIIIIIIIIIIIIIIIIIIIIIIIIII
IIIIIIAA12IIIIIIAIIIIIIIIAIIIIIIIIIIIIIIIIIIIIIIIIIIIIIIIIIIIIII
IIAIIIAA12IIIIIIAIIIIIIIIAIIIIIIIIIIIIIIIIIIIIIIIIIIIIIIIIIIIIII
IIAIAIAA12IIIIIIAIIIIIIIIAIIIIIIIIIIIIIIIIIIIIIIIIIIIIIIIIIIIIII
IIAIAIAA12IIIIIIAIIIAIIIIAIIIIIIIIIIIIIIIIIIIIIIIIIIIIIIIIIIIIII
IIAIAIAA12IIIIIIAIIIAIIIIA1IIIIIIIIIIIIIIIIIIIIIIIIIIIIIIIIIIIII
IIAIAIAA12IIIIIIA1IIAIIIIA1IIIIIIIIIIIIIIIIIIIIIIIIIIIIIIIIIIIII
IIA1AIAA12IIIIIIA1IIAIIIIA1IIIIIIIIIIIIIIIIIIIIIIIIIIIIIIIIIIIII
IIA1A1AA12IIIIIIA1IIAIIIIA1IIIIIIIIIIIIIIIIIIIIIIIIIIIIIIIIIIIII
IIA1A1AA12IIIIIAA1IIAIIIIA1IIIIIIIIIIIIIIIIIIIIIIIIIIIIIIIIIIIII
IIA1A1AA12IIIIIAA12IAIIIIA1IIIIIIIIIIIIIIIIIIIIIIIIIIIIIIIIIIIII
IIA1A1AA12IIIIIAA12IAIIIIA12IIIIIIIIIIIIIIIIIIIIIIIIIIIIIIIIIIII
IIA1A1AA12IIIIIAA12IA12IIA12IIIIIIIIIIIIIIIIIIIIIIIIIIIIIIIIIIII
IIA1A1AA122IIIIAA12IA12IIA12IIIIIIIIIIIIIIIIIIIIIIIIIIIIIIIIIIII
IIA1A1AA122I2IIAA12IA12IIA12IIIIIIIIIIIIIIIIIIIIIIIIIIIIIIIIIIII
IIA1A1AA122I2IIAA12IA12IIA12I2I2IIIIIIIIIIIIIIIIIIIIIIIIIIIIIIII
IIA1A1AA122222IAA12IA12IIA12I2I2IIIIIIIIIIIIIIIIIIIIIIIIIIIIIIII
IIA1A1AA122222IAA122A12IIA12I2I2IIIIIIIIIIIIIIIIIIIIIIIIIIIIIIII
IIA1A1AA122222IAA122A122IA12I2I2IIIIIIIIIIIIIIIIIIIIIIIIIIIIIIII
IIA1A1AA122222IAA122A122IA122222IIIIIIIIIIIIIIIIIIIIIIIIIIIIIIII
IIIIIIIIIIIIIIIA1IIIIIIIIIIIIIIIIIIIIIIIIIIIIIIIIIIIIIIIIIIIIIII
IIIIIIIIIIIIIIIIAIIIIIIIIIIIIIIIIIIIIIIIIIIIIIIIIIIIIIIIIIIIIIII
IIAIIIIIIIIIIIIIAIIIIIIIIIIIIIIIIIIIIIIIIIIIIIIIIIIIIIIIIIIIIIII
IIAIAIIIIIIIIIIIAIIIIIIIIIIIIIIIIIIIIIIIIIIIIIIIIIIIIIIIIIIIIIII
IIAIAIAIIIIIIIIIAIIIIIIIIIIIIIIIIIIIIIIIIIIIIIIIIIIIIIIIIIIIIIII
IIAIAIAAIIIIIIIIAIIIIIIIIIIIIIIIIIIIIIIIIIIIIIIIIIIIIIIIIIIIIIII
IIAIAIAAIIIIIIIIAIIIIIIIIA112IIII2IIIIIIIIIIIIIIIIIIIIIIIIIIIIII
IIAIAIAA112IIII2AIIIIIIIIA112IIII2IIIIIIIIIIIIIIIIIIIIIIIIIIIIII
IIAIAIAA112IIII2A112IIII2A112IIII2IIIIIIIIIIIIIIIIIIIIIIIIIIIIII
IIA1A2AA112IIII2A112IIII2A112IIII2IIIIIIIIIIIIIIIIIIIIIIIIIIIIII
IIA1A1AA112I2II2A112IIII2A112IIII2IIIIIIIIIIIIIIIIIIIIIIIIIIIIII
IIA1A1AA112I2I22A112IIII2A112IIII2IIIIIIIIIIIIIIIIIIIIIIIIIIIIII
IIA1A1AA112I2I22A112A1122A112IIII2IIIIIIIIIIIIIIIIIIIIIIIIIIIIII
IIA1A1AA112I2I2AA112A1122A112IIII2IIIIIIIIIIIIIIIIIIIIIIIIIIIIII
IIIIIIIIIIIIIIIAIIIIIIIIIIIIIIIIIIIIIIIIIIIIIIIIIIIIIIIIIIIIIIII
IIIIIIIIIIIIIIIAA12IIIIIIIIIIIIIIIIIIIIIIIIIIIIIIIIIIIIIIIIIIIII
IIA12IIIIIIIIIIAA12IIIIIIIIIIIIIIIIIIIIIIIIIIIIIIIIIIIIIIIIIIIII
IIA1A12IIIIIIIIAA12IIIIIIIIIIIIIIIIIIIIIIIIIIIIIIIIIIIIIIIIIIIII
IIA1A1A12IIIIIIAA12IIIIIIIIIIIIIIIIIIIIIIIIIIIIIIIIIIIIIIIIIIIII
IIA1A1AA12IIIIIAA12IIIIIIIIIIIIIIIIIIIIIIIIIIIIIIIIIIIIIIIIIIIII
IIA1A1AA12IIIIIAA12IIIIIIA12IIIIIIIIIIIIIIIIIIIIIIIIIIIIIIIIIIII
IIA1A1AA12IIIIIAA12IAIIIIA12IIIIIIIIIIIIIIIIIIIIIIIIIIIIIIIIIIII
IIA1A1AA12IIIIIAA12IAIIAIA12IIIIIIIIIIIIIIIIIIIIIIIIIIIIIIIIIIII
IIA1A1AA12IIIIIAA12IA12AIA12IIIIIIIIIIIIIIIIIIIIIIIIIIIIIIIIIIII
IIA1A1AA12IIIIIAA11IA12A2A12IIIIIIIIIIIIIIIIIIIIIIIIIIIIIIIIIIII
IIA1A1AA122IIIIAA11IA12A2A12IIIIIIIIIIIIIIIIIIIIIIIIIIIIIIIIIIII
IIA1A1AA122I2IIAA11IA12A2A12IIIIIIIIIIIIIIIIIIIIIIIIIIIIIIIIIIII
IIA1A1AA12222I2AA11IA12A2A12IIIIIIIIIIIIIIIIIIIIIIIIIIIIIIIIIIII
IIA1A1AA11222I2AA11IA12A2A12IIIIIIIIIIIIIIIIIIIIIIIIIIIIIIIIIIII
IIA1A1AA11222I2AA11IA11A2A122IIIIIIIIIIIIIIIIIIIIIIIIIIIIIIIIIII
IIIIIIIA11II2II2IIIIIIIIIIIIIIIIIIIIIIIIIIIIIIIIIIIIIIIIIIIIIIII
IIIIIIAA11II2II2IIIIIIIIIIIIIIIIIIIIIIIIIIIIIIIIIIIIIIIIIIIIIIII
IIIIIIAA11II2II2IIIIIIIIIA11II2II2IIIIIIIIIIIIIIIIIIIIIIIIIIIIII
IIIIA1AA11II2II2IIIIIIIIIA11II2II2IIIIIIIIIIIIIIIIIIIIIIIIIIIIII
IIIIA1AA11I22I22IIIIIIIIIA11II2II2IIIIIIIIIIIIIIIIIIIIIIIIIIIIII
IIIIA1AA11I22I22IIIIA1IIIA11II2II2IIIIIIIIIIIIIIIIIIIIIIIIIIIIII
IIIIA1AA11I22I22A1IIA1IIIA11II2II2IIIIIIIIIIIIIIIIIIIIIIIIIIIIII
IIA1A1AA11I22I22A1IIA1IIIA11II2II2IIIIIIIIIIIIIIIIIIIIIIIIIIIIII
IIA1A1AA11I22I2AA1IIA1IIIA11II2II2IIIIIIIIIIIIIIIIIIIIIIIIIIIIII
IIIIIIIIIIIIIIIIA1IIIIIIIIIIIIIIIIIIIIIIIIIIIIIIIIIIIIIIIIIIIIII
IIA1IIIIIIIIIIIIA1IIIIIIIIIIIIIIIIIIIIIIIIIIIIIIIIIIIIIIIIIIIIII
IIA1A1IIIIIIIIIIA1IIIIIIIIIIIIIIIIIIIIIIIIIIIIIIIIIIIIIIIIIIIIII
IIA1A1A1IIIIIIIIA1IIIIIIIIIIIIIIIIIIIIIIIIIIIIIIIIIIIIIIIIIIIIII
IIA1A1AA1IIIIIIIA1IIIIIIIIIIIIIIIIIIIIIIIIIIIIIIIIIIIIIIIIIIIIII
IIA1A1AA1IIIIIIIA1IIIIIIIA1IIIIIIIIIIIIIIIIIIIIIIIIIIIIIIIIIIIII
IIA1A1AA1IIIIIIIA1IIAIIIIA1IIIIIIIIIIIIIIIIIIIIIIIIIIIIIIIIIIIII
IIA1A1AA1IIIIIIAA1IIAIIIIA1IIIIIIIIIIIIIIIIIIIIIIIIIIIIIIIIIIIII
IIA1A1AA12IIIIIAA1IIAIIIIA1IIIIIIIIIIIIIIIIIIIIIIIIIIIIIIIIIIIII
IIA1A1AA12IIIIIAA1IIAIIIIA12IIIIIIIIIIIIIIIIIIIIIIIIIIIIIIIIIIII
IIA1A1AA12IIIIIAA12IAIIIIA12IIIIIIIIIIIIIIIIIIIIIIIIIIIIIIIIIIII
IIA1A1AA12IIIIIAA12IA12IIA12IIIIIIIIIIIIIIIIIIIIIIIIIIIIIIIIIIII
IIIIIIIAIIIIIIIIIIIIIIIIIIIIIIIIIIIIIIIIIIIIIIIIIIIIIIIIIIIIIIII
IIIIIIAAIIIIIIIIIIIIIIIIIIIIIIIIIIIIIIIIIIIIIIIIIIIIIIIIIIIIIIII
IIIIIIAAIIIIIIIIIIIIIIIIIAIIIIIIIIIIIIIIIIIIIIIIIIIIIIIIIIIIIIII
IIIIIIAAIIIIIIIIAIIIIIIIIAIIIIIIIIIIIIIIIIIIIIIIIIIIIIIIIIIIIIII
IIAIIIAAIIIIIIIIAIIIIIIIIAIIIIIIIIIIIIIIIIIIIIIIIIIIIIIIIIIIIIII
IIAIAIAAIIIIIIIIAIIIIIIIIAIIIIIIIIIIIIIIIIIIIIIIIIIIIIIIIIIIIIII
IIAIAIAAIIIIIIIIAIIIAIIIIAIIIIIIIIIIIIIIIIIIIIIIIIIIIIIIIIIIIIII
IIAIAIAA12IIIIIIAIIIAIIIIAIIIIIIIIIIIIIIIIIIIIIIIIIIIIIIIIIIIIII
IIAIAIAA12IIIIIIAIIIA12IIAIIIIIIIIIIIIIIIIIIIIIIIIIIIIIIIIIIIIII
IIAIA1AA12IIIIIIAIIIA12IIAIIIIIIIIIIIIIIIIIIIIIIIIIIIIIIIIIIIIII
IIAIA1AA12IIIIIIAIIIA12IIA12IIIIIIIIIIIIIIIIIIIIIIIIIIIIIIIIIIII
IIAIA1AA12IIIIIAAIIIA12IIA12IIIIIIIIIIIIIIIIIIIIIIIIIIIIIIIIIIII
IIAIA1AA12IIIIIAA1IIA12IIA12IIIIIIIIIIIIIIIIIIIIIIIIIIIIIIIIIIII
IIA1A1AA12IIIIIAA1IIA12IIA12IIIIIIIIIIIIIIIIIIIIIIIIIIIIIIIIIIII
IIIIIIIIIIIIIIIIAIIIIIIIIIIIIIIIIIIIIIIIIIIIIIIIIIIIIIIIIIIIIIII
IIAIIIIIIIIIIIIIAIIIIIIIIIIIIIIIIIIIIIIIIIIIIIIIIIIIIIIIIIIIIIII
IIAIAIIIIIIIIIIIAIIIIIIIIIIIIIIIIIIIIIIIIIIIIIIIIIIIIIIIIIIIIIII
IIAIAIAIIIIIIIIIAIIIIIIIIIIIIIIIIIIIIIIIIIIIIIIIIIIIIIIIIIIIIIII
IIAIAIAA12II2IIIAIIIIIIIIIIIIIIIIIIIIIIIIIIIIIIIIIIIIIIIIIIIIIII
IIAIAIAA12I22IIIAIIIIIIIIIIIIIIIIIIIIIIIIIIIIIIIIIIIIIIIIIIIIIII
IIAIAIAA12I22IIIAIIIIIIIIA12II2IIIIIIIIIIIIIIIIIIIIIIIIIIIIIIIII
IIAIAIAA12I22IIIA12II2IIIA12II2IIIIIIIIIIIIIIIIIIIIIIIIIIIIIIIII
IIA1AIAA12I22IIIA12II2IIIA12II2IIIIIIIIIIIIIIIIIIIIIIIIIIIIIIIII
IIA1A1AA12I22IIIA12II2IIIA12II2IIIIIIIIIIIIIIIIIIIIIIIIIIIIIIIII
IIA1A1AA12I22IIIA12IA12IIA12II2IIIIIIIIIIIIIIIIIIIIIIIIIIIIIIIII
IIA1A1AA12I22IIAA12IA12IIA12II2IIIIIIIIIIIIIIIIIIIIIIIIIIIIIIIII
IIA1A1AA12222IIAA12IA12IIA12II2IIIIIIIIIIIIIIIIIIIIIIIIIIIIIIIII
IIA1A1AA12222IIAA12IA122IA12II2IIIIIIIIIIIIIIIIIIIIIIIIIIIIIIIII
IIA1A1AA12222IIAA12IA122IA122I2IIIIIIIIIIIIIIIIIIIIIIIIIIIIIIIII
IIA1A1AA12222IIAA122A122IA122I2IIIIIIIIIIIIIIIIIIIIIIIIIIIIIIIII
IIA1A1AA12222IIAA12AA122IA122I2IIIIIIIIIIIIIIIIIIIIIIIIIIIIIIIII
IIIIIIIIIIIIIIIIA1IIIIIIIIIIIIIIIIIIIIIIIIIIIIIIIIIIIIIIIIIIIIII
IIA1IIIIIIIIIIIIA1IIIIIIIIIIIIIIIIIIIIIIIIIIIIIIIIIIIIIIIIIIIIII
IIA1A1IIIIIIIIIIA1IIIIIIIIIIIIIIIIIIIIIIIIIIIIIIIIIIIIIIIIIIIIII
IIA1A1A1IIIIIIIIA1IIIIIIIIIIIIIIIIIIIIIIIIIIIIIIIIIIIIIIIIIIIIII
IIA1A1A1IIIIIIIIA1IIIIIIIA1IIIIIIIIIIIIIIIIIIIIIIIIIIIIIIIIIIIII
IIA1A1AA1IIIIIIIA1IIIIIIIA1IIIIIIIIIIIIIIIIIIIIIIIIIIIIIIIIIIIII
IIA1A1AA1IIIIIIAA1IIIIIIIA1IIIIIIIIIIIIIIIIIIIIIIIIIIIIIIIIIIIII
IIA1A1AA122IIIIAA1IIIIIIIA1IIIIIIIIIIIIIIIIIIIIIIIIIIIIIIIIIIIII
IIA1A1AA122IIIIAA1IIA122IA1IIIIIIIIIIIIIIIIIIIIIIIIIIIIIIIIIIIII
IIA1A1AA122IIIIAA1IIA122IA122IIIIIIIIIIIIIIIIIIIIIIIIIIIIIIIIIII
IIA1A1AA122IIIIAA122A122IA122IIIIIIIIIIIIIIIIIIIIIIIIIIIIIIIIIII
IIIIIIIIIIIIIIIAIIIIIIIIIIIIIIIIIIIIIIIIIIIIIIIIIIIIIIIIIIIIIIII
IIIIIIIIIIIIIIIAA12IIIIIIIIIIIIIIIIIIIIIIIIIIIIIIIIIIIIIIIIIIIII
IIA12IIIIIIIIIIAA12IIIIIIIIIIIIIIIIIIIIIIIIIIIIIIIIIIIIIIIIIIIII
IIA1A12IIIIIIIIAA12IIIIIIIIIIIIIIIIIIIIIIIIIIIIIIIIIIIIIIIIIIIII
IIA1A1A12IIIIIIAA12IIIIIIIIIIIIIIIIIIIIIIIIIIIIIIIIIIIIIIIIIIIII
IIA1A1AA12IIIIIAA12IIIIIIIIIIIIIIIIIIIIIIIIIIIIIIIIIIIIIIIIIIIII
IIA1A1AA12IIIIIAA12IIIIIIA12IIIIIIIIIIIIIIIIIIIIIIIIIIIIIIIIIIII
IIA1A1AA12IIIIIAA12IAIIIIA12IIIIIIIIIIIIIIIIIIIIIIIIIIIIIIIIIIII
IIA1A1AA12IIIIIAA122AIIIIA12IIIIIIIIIIIIIIIIIIIIIIIIIIIIIIIIIIII
IIA1A1AA122IIIIAA122AIIIIA12IIIIIIIIIIIIIIIIIIIIIIIIIIIIIIIIIIII
IIIIIIIAIIIIIIIIIIIIIIIIIIIIIIIIIIIIIIIIIIIIIIIIIIIIIIIIIIIIIIII
IIIIIIAAIIIIIIIIIIIIIIIIIIIIIIIIIIIIIIIIIIIIIIIIIIIIIIIIIIIIIIII
IIIIIIAAIIIIIIIIIIIIIIIIIAIIIIIIIIIIIIIIIIIIIIIIIIIIIIIIIIIIIIII
IIIIIIAAIIIIIIIIAIIIIIIIIAIIIIIIIIIIIIIIIIIIIIIIIIIIIIIIIIIIIIII
IIAIIIAAIIIIIIIIAIIIIIIIIAIIIIIIIIIIIIIIIIIIIIIIIIIIIIIIIIIIIIII
IIAIAIAAIIIIIIIIAIIIIIIIIAIIIIIIIIIIIIIIIIIIIIIIIIIIIIIIIIIIIIII
IIAIAIAA1I2IIIIIAIIIIIIIIAIIIIIIIIIIIIIIIIIIIIIIIIIIIIIIIIIIIIII
IIAIAIAA1I2IIIIIAIIIA1I2IAIIIIIIIIIIIIIIIIIIIIIIIIIIIIIIIIIIIIII
IIAIA1AA1I2IIIIIAIIIA1I2IAIIIIIIIIIIIIIIIIIIIIIIIIIIIIIIIIIIIIII
IIAIA1AA122IIIIIAIIIA1I2IAIIIIIIIIIIIIIIIIIIIIIIIIIIIIIIIIIIIIII
IIAIA1AA122IIIIIAIIIA1I2IA1I2IIIIIIIIIIIIIIIIIIIIIIIIIIIIIIIIIII
IIAIA1AA122IIIIIA1I2A1I2IA1I2IIIIIIIIIIIIIIIIIIIIIIIIIIIIIIIIIII
IIA1A1AA122IIIIIA1I2A1I2IA1I2IIIIIIIIIIIIIIIIIIIIIIIIIIIIIIIIIII
IIA1A1AA122IIIIAA122A1I2IA1I2IIIIIIIIIIIIIIIIIIIIIIIIIIIIIIIIIII
IIIIIIIIIIIIIIIIA1IIIIIIIIIIIIIIIIIIIIIIIIIIIIIIIIIIIIIIIIIIIIII
IIA1IIIIIIIIIIIIA1IIIIIIIIIIIIIIIIIIIIIIIIIIIIIIIIIIIIIIIIIIIIII
IIA1A1IIIIIIIIIIA1IIIIIIIIIIIIIIIIIIIIIIIIIIIIIIIIIIIIIIIIIIIIII
IIA1A1A1IIIIIIIIA1IIIIIIIIIIIIIIIIIIIIIIIIIIIIIIIIIIIIIIIIIIIIII
IIA1A1AAIIIIIIIIA1IIIIIIIIIIIIIIIIIIIIIIIIIIIIIIIIIIIIIIIIIIIIII
IIA1A1AAIIIIIIIIA1IIIIIIIAIIIIIIIIIIIIIIIIIIIIIIIIIIIIIIIIIIIIII
IIA1A1AA122IIIIIA1IIIIIIIAIIIIIIIIIIIIIIIIIIIIIIIIIIIIIIIIIIIIII
IIA1A1AA122IIIIIA1IIA122IAIIIIIIIIIIIIIIIIIIIIIIIIIIIIIIIIIIIIII
IIA1A1AA122IIIIIA1IIA122IA122IIIIIIIIIIIIIIIIIIIIIIIIIIIIIIIIIII
IIA1A1AA122IIIIIA122A122IA122IIIIIIIIIIIIIIIIIIIIIIIIIIIIIIIIIII
IIA1A1AA122IIIIAA122A122IA122IIIIIIIIIIIIIIIIIIIIIIIIIIIIIIIIIII
IIIIIIIIIIIIIIIA1IIIIIIIIIIIIIIIIIIIIIIIIIIIIIIIIIIIIIIIIIIIIIII
IIIIIIIIIIIIIIIAAIIIIIIIIIIIIIIIIIIIIIIIIIIIIIIIIIIIIIIIIIIIIIII
IIAIIIIIIIIIIIIAAIIIIIIIIIIIIIIIIIIIIIIIIIIIIIIIIIIIIIIIIIIIIIII
IIAIAIIIIIIIIIIAAIIIIIIIIIIIIIIIIIIIIIIIIIIIIIIIIIIIIIIIIIIIIIII
IIAIAIAIIIIIIIIAAIIIIIIIIIIIIIIIIIIIIIIIIIIIIIIIIIIIIIIIIIIIIIII
IIIIIIIA1IIIIIIIIIIIIIIIIIIIIIIIIIIIIIIIIIIIIIIIIIIIIIIIIIIIIIII
IIIIIIAA1IIIIIIIIIIIIIIIIIIIIIIIIIIIIIIIIIIIIIIIIIIIIIIIIIIIIIII
IIIIIIAA1IIIIIIIIIIIIIIIIA1IIIIIIIIIIIIIIIIIIIIIIIIIIIIIIIIIIIII
IIIIIIAA1IIIIIIIA1IIIIIIIA1IIIIIIIIIIIIIIIIIIIIIIIIIIIIIIIIIIIII
IIA1IIAA1IIIIIIIA1IIIIIIIA1IIIIIIIIIIIIIIIIIIIIIIIIIIIIIIIIIIIII
IIA1A1AA1IIIIIIIA1IIIIIIIA1IIIIIIIIIIIIIIIIIIIIIIIIIIIIIIIIIIIII
IIA1A1AA1IIIIIIIA1IIA1IIIA1IIIIIIIIIIIIIIIIIIIIIIIIIIIIIIIIIIIII
IIA1A1AA1IIIIIIAA1IIA1IIIA1IIIIIIIIIIIIIIIIIIIIIIIIIIIIIIIIIIIII
IIA1A1AA1IIIIIIAA12IA1IIIA1IIIIIIIIIIIIIIIIIIIIIIIIIIIIIIIIIIIII
IIA1A1AA12IIIIIAA12IA1IIIA1IIIIIIIIIIIIIIIIIIIIIIIIIIIIIIIIIIIII
IIA1A1AA12IIIIIAA12IA1IIIA12IIIIIIIIIIIIIIIIIIIIIIIIIIIIIIIIIIII
IIA1A1AA11II2IIAA12IA1IIIA12IIIIIIIIIIIIIIIIIIIIIIIIIIIIIIIIIIII
IIA1A1AA11II2IIAA12IA1IIIA11II2II22IIIIIIIIIIIIIIIIIIIIIIIIIIIII
IIA1A1AA11II2IIAA11IA1II2A11II2II22IIIIIIIIIIIIIIIIIIIIIIIIIIIII
IIA1A1AA11222IIAA11IA1II2A11II2II22IIIIIIIIIIIIIIIIIIIIIIIIIIIII
IIA1A1AA112222IAA11IA1II2A11II2II22IIIIIIIIIIIIIIIIIIIIIIIIIIIII
IIA1A1AA1122222AA11IA1II2A11II2II22IIIIIIIIIIIIIIIIIIIIIIIIIIIII
IIA1A1AA1122222AA11IA11I2A11222II22IIIIIIIIIIIIIIIIIIIIIIIIIIIII
IIIIIIIIIIIIIIIAIIIIIIIIIIIIIIIIIIIIIIIIIIIIIIIIIIIIIIIIIIIIIIII
IIIIIIIIIIIIIIIIA1IIIIIIIIIIIIIIIIIIIIIIIIIIIIIIIIIIIIIIIIIIIIII
IIA1IIIIIIIIIIIIA1IIIIIIIIIIIIIIIIIIIIIIIIIIIIIIIIIIIIIIIIIIIIII
IIA1A1IIIIIIIIIIA1IIIIIIIIIIIIIIIIIIIIIIIIIIIIIIIIIIIIIIIIIIIIII
IIA1A1A1IIIIIIIIA1IIIIIIIIIIIIIIIIIIIIIIIIIIIIIIIIIIIIIIIIIIIIII
IIA1A1A1IIIIIIIIA1IIIIIIIA1IIIIIIIIIIIIIIIIIIIIIIIIIIIIIIIIIIIII
IIA1A1AA1IIIIIIIA1IIIIIIIA1IIIIIIIIIIIIIIIIIIIIIIIIIIIIIIIIIIIII
IIA1A1AA1IIIIIIAA1IIIIIIIA1IIIIIIIIIIIIIIIIIIIIIIIIIIIIIIIIIIIII
IIA1A1AA12IIIIIAA1IIIIIIIA1IIIIIIIIIIIIIIIIIIIIIIIIIIIIIIIIIIIII
IIA1A1AA12IIIIIAA1IIIIIIIA12IIIIIIIIIIIIIIIIIIIIIIIIIIIIIIIIIIII
IIA1A1AA12IIIIIAA12IIIIIIA12IIIIIIIIIIIIIIIIIIIIIIIIIIIIIIIIIIII
IIA1A1AA12IIIIIAA12IA12IIA12IIIIIIIIIIIIIIIIIIIIIIIIIIIIIIIIIIII
IIIIIIIAIIIIIIIIIIIIIIIIIIIIIIIIIIIIIIIIIIIIIIIIIIIIIIIIIIIIIIII
IIIIIIAAIIIIIIIIIIIIIIIIIIIIIIIIIIIIIIIIIIIIIIIIIIIIIIIIIIIIIIII
IIIIIIAAIIIIIIIIIIIIIIIIIAIIIIIIIIIIIIIIIIIIIIIIIIIIIIIIIIIIIIII
IIIIIIAAIIIIIIIIA11II2IIIAIIIIIIIIIIIIIIIIIIIIIIIIIIIIIIIIIIIIII
IIA11IAAIIIIIIIIA11II2IIIAIIIIIIIIIIIIIIIIIIIIIIIIIIIIIIIIIIIIII
IIA1A1AAI2IIIIIIA11II2IIIAIIIIIIIIIIIIIIIIIIIIIIIIIIIIIIIIIIIIII
IIA1A1AA12I2IIIIA11II2IIIAIIIIIIIIIIIIIIIIIIIIIIIIIIIIIIIIIIIIII
IIA1A1AA11I22IIIA11II2IIIAIIIIIIIIIIIIIIIIIIIIIIIIIIIIIIIIIIIIII
IIA1A1AA11I22IIIA11IA11IIAIIIIIIIIIIIIIIIIIIIIIIIIIIIIIIIIIIIIII
IIA1A1AA11I22IIIA11IA11IIA11II2IIIIIIIIIIIIIIIIIIIIIIIIIIIIIIIII
IIIIIIIIIIIIIIIAIIIIIIIIIIIIIIIIIIIIIIIIIIIIIIIIIIIIIIIIIIIIIIII
IIIIIIIIIIIIIIIIA1IIIIIIIIIIIIIIIIIIIIIIIIIIIIIIIIIIIIIIIIIIIIII
IIA1IIIIIIIIIIIIA1IIIIIIIIIIIIIIIIIIIIIIIIIIIIIIIIIIIIIIIIIIIIII
IIA1A1IIIIIIIIIIA1IIIIIIIIIIIIIIIIIIIIIIIIIIIIIIIIIIIIIIIIIIIIII
IIA1A1A1IIIIIIIIA1IIIIIIIIIIIIIIIIIIIIIIIIIIIIIIIIIIIIIIIIIIIIII
IIA1A1A1IIIIIIIIA1IIIIIIIA1IIIIIIIIIIIIIIIIIIIIIIIIIIIIIIIIIIIII
IIA1A1AA1IIIIIIIA1IIIIIIIA1IIIIIIIIIIIIIIIIIIIIIIIIIIIIIIIIIIIII
IIA1A1AA1IIIIIIAA1IIIIIIIA1IIIIIIIIIIIIIIIIIIIIIIIIIIIIIIIIIIIII
IIA1A1AA12IIIIIAA1IIIIIIIA1IIIIIIIIIIIIIIIIIIIIIIIIIIIIIIIIIIIII
IIA1A1AA12IIIIIAA1IIIIIIIA12IIIIIIIIIIIIIIIIIIIIIIIIIIIIIIIIIIII
IIA1A1AA12IIIIIAA12IIIIIIA12IIIIIIIIIIIIIIIIIIIIIIIIIIIIIIIIIIII
IIA1A1AA12IIIIIAA12IAIIIIA12IIIIIIIIIIIIIIIIIIIIIIIIIIIIIIIIIIII
IIIIIIIAIIIIIIIIIIIIIIIIIIIIIIIIIIIIIIIIIIIIIIIIIIIIIIIIIIIIIIII
IIIIIIIA12II2IIIIIIIIIIIIIIIIIIIIIIIIIIIIIIIIIIIIIIIIIIIIIIIIIII
IIIIIIAA12I22IIIIIIIIIIIIIIIIIIIIIIIIIIIIIIIIIIIIIIIIIIIIIIIIIII
IIIIIIAA12I22IIIIIIIIIIIIA12II2IIIIIIIIIIIIIIIIIIIIIIIIIIIIIIIII
IIIIIIAA12I22IIIA12II2IIIA12II2IIIIIIIIIIIIIIIIIIIIIIIIIIIIIIIII
IIA12IAA12I22IIIA12II2IIIA12II2IIIIIIIIIIIIIIIIIIIIIIIIIIIIIIIII
IIA1A1AA12I22IIIA12II2IIIA12II2IIIIIIIIIIIIIIIIIIIIIIIIIIIIIIIII
IIA1A1AA12I22IIIA12IA12IIA12II2IIIIIIIIIIIIIIIIIIIIIIIIIIIIIIIII
IIA1A1AA12I22IIAA12IA12IIA12II2IIIIIIIIIIIIIIIIIIIIIIIIIIIIIIIII
IIIIIIIIIIIIIIIIA1I2IIIIIIIIIIIIIIIIIIIIIIIIIIIIIIIIIIIIIIIIIIII
IIA1I2IIIIIIIIIIA1I2IIIIIIIIIIIIIIIIIIIIIIIIIIIIIIIIIIIIIIIIIIII
IIA1A1I2IIIIIIIIA1I2IIIIIIIIIIIIIIIIIIIIIIIIIIIIIIIIIIIIIIIIIIII
IIA1A1A1I2IIIIIIA1I2IIIIIIIIIIIIIIIIIIIIIIIIIIIIIIIIIIIIIIIIIIII
IIA1A1A1I2IIIIIIA1I2IIIIIA1I2IIIIIIIIIIIIIIIIIIIIIIIIIIIIIIIIIII
IIA1A1AA122IIIIIA1I2IIIIIA1I2IIIIIIIIIIIIIIIIIIIIIIIIIIIIIIIIIII
IIA1A1AA122IIIIAA1I2IIIIIA1I2IIIIIIIIIIIIIIIIIIIIIIIIIIIIIIIIIII
IIA1A1AA122IIIIAA1I2AIIIIA1I2IIIIIIIIIIIIIIIIIIIIIIIIIIIIIIIIIII
IIIIIIIA1IIIIIIIIIIIIIIIIIIIIIIIIIIIIIIIIIIIIIIIIIIIIIIIIIIIIIII
IIIIIIAA1IIIIIIIIIIIIIIIIIIIIIIIIIIIIIIIIIIIIIIIIIIIIIIIIIIIIIII
IIIIIIAA1IIIIIIIIIIIIIIIIA1IIIIIIIIIIIIIIIIIIIIIIIIIIIIIIIIIIIII
IIIIIIAA1IIIIIIIA1IIIIIIIA1IIIIIIIIIIIIIIIIIIIIIIIIIIIIIIIIIIIII
IIA1IIAA1IIIIIIIA1IIIIIIIA1IIIIIIIIIIIIIIIIIIIIIIIIIIIIIIIIIIIII
IIA1A1AA1IIIIIIIA1IIIIIIIA1IIIIIIIIIIIIIIIIIIIIIIIIIIIIIIIIIIIII
IIA1A1AA1IIIIIIIA1IIA1IIIA1IIIIIIIIIIIIIIIIIIIIIIIIIIIIIIIIIIIII
IIA1A1AA12IIIIIIA1IIA1IIIA1IIIIIIIIIIIIIIIIIIIIIIIIIIIIIIIIIIIII
IIA1A1AA12IIIIIIA1IIA1IIIA1I2IIIIIIIIIIIIIIIIIIIIIIIIIIIIIIIIIII
IIA1A1AA122IIIIIA1IIA1IIIA1I2IIIIIIIIIIIIIIIIIIIIIIIIIIIIIIIIIII
IIIIIIIIIIIIIIIA1I2IIIIIIIIIIIIIIIIIIIIIIIIIIIIIIIIIIIIIIIIIIIII
IIIIIIIIIIIIIIIIA1I2IIIIIIIIIIIIIIIIIIIIIIIIIIIIIIIIIIIIIIIIIIII
IIA1I2IIIIIIIIIIA1I2IIIIIIIIIIIIIIIIIIIIIIIIIIIIIIIIIIIIIIIIIIII
IIA1A1I2IIIIIIIIA1I2IIIIIIIIIIIIIIIIIIIIIIIIIIIIIIIIIIIIIIIIIIII
IIA1A1A1I2IIIIIIA1I2IIIIIIIIIIIIIIIIIIIIIIIIIIIIIIIIIIIIIIIIIIII
IIA1A1A1I2IIIIIIA1I2IIIIIA1I2IIIIIIIIIIIIIIIIIIIIIIIIIIIIIIIIIII
IIA1A1AA122IIIIIA1I2IIIIIA1I2IIIIIIIIIIIIIIIIIIIIIIIIIIIIIIIIIII
IIA1A1AA122IIIIAA1I2IIIIIA1I2IIIIIIIIIIIIIIIIIIIIIIIIIIIIIIIIIII
IIA1A1AA122IIIIAA1I2IIIIIA122IIIIIIIIIIIIIIIIIIIIIIIIIIIIIIIIIII
IIA1A1AA122IIIIAA122IIIIIA122IIIIIIIIIIIIIIIIIIIIIIIIIIIIIIIIIII
IIA1A1AA122IIIIAA122AIIIIA122IIIIIIIIIIIIIIIIIIIIIIIIIIIIIIIIIII
IIIIIIIA1IIIIIIIIIIIIIIIIIIIIIIIIIIIIIIIIIIIIIIIIIIIIIIIIIIIIIII
IIIIIIAA1IIIIIIIIIIIIIIIIIIIIIIIIIIIIIIIIIIIIIIIIIIIIIIIIIIIIIII
IIIIIIAA1IIIIIIIIIIIIIIIIA1IIIIIIIIIIIIIIIIIIIIIIIIIIIIIIIIIIIII
IIIIIIAA1IIIIIIIA1IIIIIIIA1IIIIIIIIIIIIIIIIIIIIIIIIIIIIIIIIIIIII
IIA1IIAA1IIIIIIIA1IIIIIIIA1IIIIIIIIIIIIIIIIIIIIIIIIIIIIIIIIIIIII
IIA1A1AA1IIIIIIIA1IIIIIIIA1IIIIIIIIIIIIIIIIIIIIIIIIIIIIIIIIIIIII
IIA1A1AA1IIIIIIIA1IIA1IIIA1IIIIIIIIIIIIIIIIIIIIIIIIIIIIIIIIIIIII
IIA1A1AA1IIIIIIAA122A1I2IA1IIIIIIIIIIIIIIIIIIIIIIIIIIIIIIIIIIIII
IIA1A1AA1IIIIIIAA122A1I22A1IIIIIIIIIIIIIIIIIIIIIIIIIIIIIIIIIIIII
IIA1A1AA1I2IIIIAA122A1I22A1IIIIIIIIIIIIIIIIIIIIIIIIIIIIIIIIIIIII
IIA1A1AA1I2I2IIAA122A1I22A1IIIIIIIIIIIIIIIIIIIIIIIIIIIIIIIIIIIII
IIA1A1AA122I2I2AA122A1I22A1IIIIIIIIIIIIIIIIIIIIIIIIIIIIIIIIIIIII
IIA1A1AA122I2I2AA122A1I22A1I22III2IIIIIIIIIIIIIIIIIIIIIIIIIIIIII
IIA1A1AA12222I2AA122A1I22A1I22III2IIIIIIIIIIIIIIIIIIIIIIIIIIIIII
IIIIIIIIIIIIIIIIAIIIIIIIIIIIIIIIIIIIIIIIIIIIIIIIIIIIIIIIIIIIIIII
IIAIIIIIIIIIIIIIAIIIIIIIIIIIIIIIIIIIIIIIIIIIIIIIIIIIIIIIIIIIIIII
IIAIAIIIIIIIIIIIAIIIIIIIIIIIIIIIIIIIIIIIIIIIIIIIIIIIIIIIIIIIIIII
IIAIAIAIIIIIIIIIAIIIIIIIIIIIIIIIIIIIIIIIIIIIIIIIIIIIIIIIIIIIIIII
IIAIAIAIIIIIIIIIAIIIIIIIIAIIIIIIIIIIIIIIIIIIIIIIIIIIIIIIIIIIIIII
IIAIAIAAIIIIIIIIAIIIIIIIIAIIIIIIIIIIIIIIIIIIIIIIIIIIIIIIIIIIIIII
IIAIAIAAIIIIIIIAAIIIIIIIIAIIIIIIIIIIIIIIIIIIIIIIIIIIIIIIIIIIIIII
IIAIAIAAIIIIIIIAA1IIIIIIIAIIIIIIIIIIIIIIIIIIIIIIIIIIIIIIIIIIIIII
IIA1AIAAIIIIIIIAA1IIIIIIIAIIIIIIIIIIIIIIIIIIIIIIIIIIIIIIIIIIIIII
IIA1A1AAIIIIIIIAA1IIIIIIIAIIIIIIIIIIIIIIIIIIIIIIIIIIIIIIIIIIIIII
IIA1A1AA1IIIIIIAA1IIIIIIIAIIIIIIIIIIIIIIIIIIIIIIIIIIIIIIIIIIIIII
IIA1A1AA1IIIIIIAA1IIIIIIIA1IIIIIIIIIIIIIIIIIIIIIIIIIIIIIIIIIIIII
IIA1A1AA1IIIIIIAA1IIAIIIIA1IIIIIIIIIIIIIIIIIIIIIIIIIIIIIIIIIIIII
IIIIIIIA1IIIIIIIIIIIIIIIIIIIIIIIIIIIIIIIIIIIIIIIIIIIIIIIIIIIIIII
IIIIIIAA1IIIIIIIIIIIIIIIIIIIIIIIIIIIIIIIIIIIIIIIIIIIIIIIIIIIIIII
IIIIIIAA1IIIIIIIIIIIIIIIIA1IIIIIIIIIIIIIIIIIIIIIIIIIIIIIIIIIIIII
IIIIIIAA1IIIIIIIA1IIIIIIIA1IIIIIIIIIIIIIIIIIIIIIIIIIIIIIIIIIIIII
IIA1IIAA1IIIIIIIA1IIIIIIIA1IIIIIIIIIIIIIIIIIIIIIIIIIIIIIIIIIIIII
IIA1A1AA1IIIIIIIA1IIIIIIIA1IIIIIIIIIIIIIIIIIIIIIIIIIIIIIIIIIIIII
IIA1A1AA1IIIIIIIA1IIA1IIIA1IIIIIIIIIIIIIIIIIIIIIIIIIIIIIIIIIIIII
IIA1A1AA1IIIIIIAA122A1IIIA1IIIIIIIIIIIIIIIIIIIIIIIIIIIIIIIIIIIII
IIA1A1AA122IIIIAA122A1IIIA1IIIIIIIIIIIIIIIIIIIIIIIIIIIIIIIIIIIII
IIA1A1AA122IIIIAA122A1IIIA1I22IIIIIIIIIIIIIIIIIIIIIIIIIIIIIIIIII
IIA1A1AA1222IIIAA122A1IIIA1I22IIIIIIIIIIIIIIIIIIIIIIIIIIIIIIIIII
IIIIIIIIIIIIIIIA1I22IIIIIIIIIIIIIIIIIIIIIIIIIIIIIIIIIIIIIIIIIIII
IIIIIIIIIIIIIIIIAIIIIIIIIIIIIIIIIIIIIIIIIIIIIIIIIIIIIIIIIIIIIIII
IIAIIIIIIIIIIIIIAIIIIIIIIIIIIIIIIIIIIIIIIIIIIIIIIIIIIIIIIIIIIIII
IIAIAIIIIIIIIIIIAIIIIIIIIIIIIIIIIIIIIIIIIIIIIIIIIIIIIIIIIIIIIIII
IIAIAIAIIIIIIIIIAIIIIIIIIIIIIIIIIIIIIIIIIIIIIIIIIIIIIIIIIIIIIIII
IIAIAIAIIIIIIIIIAIIIIIIIIAIIIIIIIIIIIIIIIIIIIIIIIIIIIIIIIIIIIIII
IIAIAIAAIIIIIIIIAIIIIIIIIAIIIIIIIIIIIIIIIIIIIIIIIIIIIIIIIIIIIIII
IIAIAIAAIIIIIIIAAIIIIIIIIAIIIIIIIIIIIIIIIIIIIIIIIIIIIIIIIIIIIIII
IIAIAIAAIIIIIIIAA1IIIIIIIAIIIIIIIIIIIIIIIIIIIIIIIIIIIIIIIIIIIIII
IIA1AIAAIIIIIIIAA1IIIIIIIAIIIIIIIIIIIIIIIIIIIIIIIIIIIIIIIIIIIIII
IIA1A1AAIIIIIIIAA1IIIIIIIAIIIIIIIIIIIIIIIIIIIIIIIIIIIIIIIIIIIIII
IIA1A1AA1IIIIIIAA1IIIIIIIAIIIIIIIIIIIIIIIIIIIIIIIIIIIIIIIIIIIIII
IIA1A1AA1IIIIIIAA1IIIIIIIA1IIIIIIIIIIIIIIIIIIIIIIIIIIIIIIIIIIIII
IIA1A1AA1IIIIIIAA1IIAIIIIA1IIIIIIIIIIIIIIIIIIIIIIIIIIIIIIIIIIIII
IIIIIIIA12IIIIIIIIIIIIIIIIIIIIIIIIIIIIIIIIIIIIIIIIIIIIIIIIIIIIII
IIIIIIAA12IIIIIIIIIIIIIIIIIIIIIIIIIIIIIIIIIIIIIIIIIIIIIIIIIIIIII
IIIIIIAA12IIIIIIIIIIIIIIIA12IIIIIIIIIIIIIIIIIIIIIIIIIIIIIIIIIIII
IIIIIIAA12IIIIIIA12IIIIIIA12IIIIIIIIIIIIIIIIIIIIIIIIIIIIIIIIIIII
IIA12IAA12IIIIIIA12IIIIIIA12IIIIIIIIIIIIIIIIIIIIIIIIIIIIIIIIIIII
IIA1A1AA12IIIIIIA12IIIIIIA12IIIIIIIIIIIIIIIIIIIIIIIIIIIIIIIIIIII
IIA1A1AA12IIIIIIA12IA12IIA12IIIIIIIIIIIIIIIIIIIIIIIIIIIIIIIIIIII
IIA1A1AA12IIIIIAA12IA12IIA12IIIIIIIIIIIIIIIIIIIIIIIIIIIIIIIIIIII
IIA1A1AA122IIIIAA12IA12IIA12IIIIIIIIIIIIIIIIIIIIIIIIIIIIIIIIIIII
IIA1A1AA122I2IIAA12IA12IIA12IIIIIIIIIIIIIIIIIIIIIIIIIIIIIIIIIIII
IIA1A1AA122I2IIAA12IA12IIA12I2I2IIIIIIIIIIIIIIIIIIIIIIIIIIIIIIII
IIA1A1AA122222IAA12IA12IIA12I2I2IIIIIIIIIIIIIIIIIIIIIIIIIIIIIIII
IIA1A1AA122222IAA122A12IIA12I2I2IIIIIIIIIIIIIIIIIIIIIIIIIIIIIIII
IIIIIIIIIIIIIIIIAIIIIIIIIIIIIIIIIIIIIIIIIIIIIIIIIIIIIIIIIIIIIIII
IIAIIIIIIIIIIIIIAIIIIIIIIIIIIIIIIIIIIIIIIIIIIIIIIIIIIIIIIIIIIIII
IIAIAIIIIIIIIIIIAIIIIIIIIIIIIIIIIIIIIIIIIIIIIIIIIIIIIIIIIIIIIIII
IIAIAIAIIIIIIIIIAIIIIIIIIIIIIIIIIIIIIIIIIIIIIIIIIIIIIIIIIIIIIIII
IIAIAIAIIIIIIIIIAIIIIIIIIAIIIIIIIIIIIIIIIIIIIIIIIIIIIIIIIIIIIIII
IIAIAIAAIIIIIIIIAIIIIIIIIAIIIIIIIIIIIIIIIIIIIIIIIIIIIIIIIIIIIIII
IIAIAIAAIIIIIIIIAIIIIIIAIAIIIIIIIIIIIIIIIIIIIIIIIIIIIIIIIIIIIIII
IIAIAIAAIIIIIIIAAIIIIIIAIAIIIIIIIIIIIIIIIIIIIIIIIIIIIIIIIIIIIIII
IIAIAIAAIIIIIIIAA1IIIIIAIAIIIIIIIIIIIIIIIIIIIIIIIIIIIIIIIIIIIIII
IIA1AIAAIIIIIIIAA1IIIIIAIAIIIIIIIIIIIIIIIIIIIIIIIIIIIIIIIIIIIIII
IIA1A1AAIIIIIIIAA1IIIIIAIAIIIIIIIIIIIIIIIIIIIIIIIIIIIIIIIIIIIIII
IIA1A1AA1IIIIIIAA1IIIIIAIAIIIIIIIIIIIIIIIIIIIIIIIIIIIIIIIIIIIIII
IIA1A1AA1IIIIIIAA1IIIIIAIA1IIIIIIIIIIIIIIIIIIIIIIIIIIIIIIIIIIIII
IIA1A1AA1IIIIIIAA1IIAIIAIA1IIIIIIIIIIIIIIIIIIIIIIIIIIIIIIIIIIIII
IIIIIIIA12II2IIIIIIIIIIIIIIIIIIIIIIIIIIIIIIIIIIIIIIIIIIIIIIIIIII
IIIIIIAA12I22IIIIIIIIIIIIIIIIIIIIIIIIIIIIIIIIIIIIIIIIIIIIIIIIIII
IIIIIIAA12I22IIIIIIIIIIIIA12II2IIIIIIIIIIIIIIIIIIIIIIIIIIIIIIIII
IIIIIIAA12I22IIIA12II2IIIA12II2IIIIIIIIIIIIIIIIIIIIIIIIIIIIIIIII
IIA12IAA12I22IIIA12II2IIIA12II2IIIIIIIIIIIIIIIIIIIIIIIIIIIIIIIII
IIA1A1AA12I22IIIA12II2IIIA12II2IIIIIIIIIIIIIIIIIIIIIIIIIIIIIIIII
IIA1A1AA12I22IIIA12IA12IIA12II2IIIIIIIIIIIIIIIIIIIIIIIIIIIIIIIII
IIIIIIIIIIIIIIIA1I2IIIIIIIIIIIIIIIIIIIIIIIIIIIIIIIIIIIIIIIIIIIII
IIIIIIIIIIIIIIIAA122IIIIIIIIIIIIIIIIIIIIIIIIIIIIIIIIIIIIIIIIIIII
IIA1I2IIIIIIIIIAA122IIIIIIIIIIIIIIIIIIIIIIIIIIIIIIIIIIIIIIIIIIII
IIA1A1I2IIIIIIIAA122IIIIIIIIIIIIIIIIIIIIIIIIIIIIIIIIIIIIIIIIIIII
IIA1A1A1I2IIIIIAA122IIIIIIIIIIIIIIIIIIIIIIIIIIIIIIIIIIIIIIIIIIII
IIA1A1A1I2IIIIIAA122IIIIIA1I2IIIIIIIIIIIIIIIIIIIIIIIIIIIIIIIIIII
IIA1A1AA122IIIIAA122IIIIIA1I2IIIIIIIIIIIIIIIIIIIIIIIIIIIIIIIIIII
IIIIIIIIIIIIIIIIAIIIIIIIIIIIIIIIIIIIIIIIIIIIIIIIIIIIIIIIIIIIIIII
IIAIIIIIIIIIIIIIAIIIIIIIIIIIIIIIIIIIIIIIIIIIIIIIIIIIIIIIIIIIIIII
IIAIAIIIIIIIIIIIAIIIIIIIIIIIIIIIIIIIIIIIIIIIIIIIIIIIIIIIIIIIIIII
IIAIAIAIIIIIIIIIAIIIIIIIIIIIIIIIIIIIIIIIIIIIIIIIIIIIIIIIIIIIIIII
IIAIAIAIIIIIIIIIAIIIIIIIIAIIIIIIIIIIIIIIIIIIIIIIIIIIIIIIIIIIIIII
IIAIAIAAIIIIIIIIAIIIIIIIIAIIIIIIIIIIIIIIIIIIIIIIIIIIIIIIIIIIIIII
IIAIAIAAIIIIIIIAA2IIIIIIIAIIIIIIIIIIIIIIIIIIIIIIIIIIIIIIIIIIIIII
IIAIAIAAIIIIIIIAA12IIIIIIAIIIIIIIIIIIIIIIIIIIIIIIIIIIIIIIIIIIIII
IIA1AIAAIIIIIIIAA12IIIIIIAIIIIIIIIIIIIIIIIIIIIIIIIIIIIIIIIIIIIII
IIA1A1AAIIIIIIIAA12IIIIIIAIIIIIIIIIIIIIIIIIIIIIIIIIIIIIIIIIIIIII
IIA1A1AA2IIIIIIAA12IIIIIIAIIIIIIIIIIIIIIIIIIIIIIIIIIIIIIIIIIIIII
IIA1A1AA12IIIIIAA12IIIIIIAIIIIIIIIIIIIIIIIIIIIIIIIIIIIIIIIIIIIII
IIA1A1AA12IIIIIAA12IIIIIIA12IIIIIIIIIIIIIIIIIIIIIIIIIIIIIIIIIIII
IIA1A1AA12IIIIIAA12IAIIIIA12IIIIIIIIIIIIIIIIIIIIIIIIIIIIIIIIIIII
IIIIIIIIIIIIIIIA12IIIIIIIIIIIIIIIIIIIIIIIIIIIIIIIIIIIIIIIIIIIIII
IIIIIIIIIIIIIIIIAIIIIIIIIIIIIIIIIIIIIIIIIIIIIIIIIIIIIIIIIIIIIIII
IIAIIIIIIIIIIIIIAIIIIIIIIIIIIIIIIIIIIIIIIIIIIIIIIIIIIIIIIIIIIIII
IIAIAIIIIIIIIIIIAIIIIIIIIIIIIIIIIIIIIIIIIIIIIIIIIIIIIIIIIIIIIIII
IIAIAIAIIIIIIIIIAIIIIIIIIIIIIIIIIIIIIIIIIIIIIIIIIIIIIIIIIIIIIIII
IIAIAIAAIIIIIIIIAIIIIIIIIIIIIIIIIIIIIIIIIIIIIIIIIIIIIIIIIIIIIIII
IIAIAIAA11II2IIIAIIIIIIIIIIIIIIIIIIIIIIIIIIIIIIIIIIIIIIIIIIIIIII
IIAIAIAA11II2IIIAIIIIIIIIA11II2IIIIIIIIIIIIIIIIIIIIIIIIIIIIIIIII
IIAIAIAA11II2IIIA11II2IIIA11II2IIIIIIIIIIIIIIIIIIIIIIIIIIIIIIIII
IIA1AIAA11II2IIIA11II2IIIA11II2IIIIIIIIIIIIIIIIIIIIIIIIIIIIIIIII
IIA1A1AA11II2IIIA11II2IIIA11II2IIIIIIIIIIIIIIIIIIIIIIIIIIIIIIIII
IIA1A1AA11I22IIIA11II2IIIA11II2IIIIIIIIIIIIIIIIIIIIIIIIIIIIIIIII
IIA1A1AA11I22IIIA11IA11IIA11II2IIIIIIIIIIIIIIIIIIIIIIIIIIIIIIIII
IIA1A1AA11I22IIAA11IA11IIA11II2IIIIIIIIIIIIIIIIIIIIIIIIIIIIIIIII
IIIIIIIIIIIIIIIIAIIIIIIIIIIIIIIIIIIIIIIIIIIIIIIIIIIIIIIIIIIIIIII
IIAIIIIIIIIIIIIIAIIIIIIIIIIIIIIIIIIIIIIIIIIIIIIIIIIIIIIIIIIIIIII
IIAIAIIIIIIIIIIIAIIIIIIIIIIIIIIIIIIIIIIIIIIIIIIIIIIIIIIIIIIIIIII
IIAIAIAIIIIIIIIIAIIIIIIIIIIIIIIIIIIIIIIIIIIIIIIIIIIIIIIIIIIIIIII
IIAIA1AIIIIIIIIIAIIIIIIIIIIIIIIIIIIIIIIIIIIIIIIIIIIIIIIIIIIIIIII
IIAIA1AA1IIIIIIIAIIIIIIIIIIIIIIIIIIIIIIIIIIIIIIIIIIIIIIIIIIIIIII
IIAIA1AA1IIIIIIIAIIIIIIIIA1IIIIIIIIIIIIIIIIIIIIIIIIIIIIIIIIIIIII
IIAIA1AA1IIIIIIIA1IIIIIIIA1IIIIIIIIIIIIIIIIIIIIIIIIIIIIIIIIIIIII
IIA1A1AA1IIIIIIIA1IIIIIIIA1IIIIIIIIIIIIIIIIIIIIIIIIIIIIIIIIIIIII
IIA1A1AA1IIIIIIIA1IIA1IIIA1IIIIIIIIIIIIIIIIIIIIIIIIIIIIIIIIIIIII
IIA1A1AA1IIIIIIAA1I2A1IIIA1IIIIIIIIIIIIIIIIIIIIIIIIIIIIIIIIIIIII
IIA1A1AA1I2IIIIAA1I2A1IIIA1IIIIIIIIIIIIIIIIIIIIIIIIIIIIIIIIIIIII
IIA1A1AA1I2IIIIAA1I2A1IIIA1II2IIIIIIIIIIIIIIIIIIIIIIIIIIIIIIIIII
IIA1A1AA1I22IIIAA1I2A1IIIA1II2IIIIIIIIIIIIIIIIIIIIIIIIIIIIIIIIII
IIA1A1AA1222IIIAA1I2A1IIIA1II2IIIIIIIIIIIIIIIIIIIIIIIIIIIIIIIIII
IIA1A1AA1222IIIAA1I2A1IIIA12I2IIIIIIIIIIIIIIIIIIIIIIIIIIIIIIIIII
IIA1A1AA1222IIIAA122A1IIIA12I2IIIIIIIIIIIIIIIIIIIIIIIIIIIIIIIIII
IIA1A1AA1222IIIAA122A12IIA12I2IIIIIIIIIIIIIIIIIIIIIIIIIIIIIIIIII
IIIIIIIIIIIIIIIIA1IIIIIIIIIIIIIIIIIIIIIIIIIIIIIIIIIIIIIIIIIIIIII
IIA1IIIIIIIIIIIIA1IIIIIIIIIIIIIIIIIIIIIIIIIIIIIIIIIIIIIIIIIIIIII
IIA1A1IIIIIIIIIIA1IIIIIIIIIIIIIIIIIIIIIIIIIIIIIIIIIIIIIIIIIIIIII
IIA1A1A1IIIIIIIIA1IIIIIIIIIIIIIIIIIIIIIIIIIIIIIIIIIIIIIIIIIIIIII
IIA1A1A1IIIIIIIIA1IIIIIIIA1IIIIIIIIIIIIIIIIIIIIIIIIIIIIIIIIIIIII
IIA1A1AA1IIIIIIIA1IIIIIIIA1IIIIIIIIIIIIIIIIIIIIIIIIIIIIIIIIIIIII
IIA1A1AA1IIIIIIAA1IIIIIIIA1IIIIIIIIIIIIIIIIIIIIIIIIIIIIIIIIIIIII
IIA1A1AA11II2IIAA1IIIIIIIA1IIIIIIIIIIIIIIIIIIIIIIIIIIIIIIIIIIIII
IIA1A1AA11II2IIAA1IIIIIIIA11II2III2IIIIIIIIIIIIIIIIIIIIIIIIIIIII
IIA1A1AA11II2IIAA11II2IIIA11II2III2IIIIIIIIIIIIIIIIIIIIIIIIIIIII
IIA1A1AA11I22IIAA11II2IIIA11II2III2IIIIIIIIIIIIIIIIIIIIIIIIIIIII
IIA1A1AA11I222IAA11II2IIIA11II2III2IIIIIIIIIIIIIIIIIIIIIIIIIIIII
IIA1A1AA11I222IAA11IA11IIA11I22III2IIIIIIIIIIIIIIIIIIIIIIIIIIIII
IIIIIIIA11II2III2IIIIIIIIIIIIIIIIIIIIIIIIIIIIIIIIIIIIIIIIIIIIIII
IIIIIIAA11II2III2IIIIIIIIIIIIIIIIIIIIIIIIIIIIIIIIIIIIIIIIIIIIIII
IIIIIIAA11II2III2IIIIIIIIAIIIIIIIIIIIIIIIIIIIIIIIIIIIIIIIIIIIIII
IIIIIIAA11II2IIIAIIIIIIIIAIIIIIIIIIIIIIIIIIIIIIIIIIIIIIIIIIIIIII
IIAIIIAA11II2IIIAIIIIIIIIAIIIIIIIIIIIIIIIIIIIIIIIIIIIIIIIIIIIIII
IIAIAIAA11II2IIIAIIIIIIIIAIIIIIIIIIIIIIIIIIIIIIIIIIIIIIIIIIIIIII
IIAIAIAA11II2IIIAIIIAIIIIAIIIIIIIIIIIIIIIIIIIIIIIIIIIIIIIIIIIIII
IIAIAIAA11II2IIIAIIIAIIIIA1IIIIIIIIIIIIIIIIIIIIIIIIIIIIIIIIIIIII
IIAIAIAA11II2IIIA1IIAIIIIA1IIIIIIIIIIIIIIIIIIIIIIIIIIIIIIIIIIIII
IIA1AIAA11II2IIIA1IIAIIIIA1IIIIIIIIIIIIIIIIIIIIIIIIIIIIIIIIIIIII
IIA1A1AA11II2IIIA1IIAIIIIA1IIIIIIIIIIIIIIIIIIIIIIIIIIIIIIIIIIIII
IIA1A1AA11II2IIAA1IIAIIIIA1IIIIIIIIIIIIIIIIIIIIIIIIIIIIIIIIIIIII
IIIIIIIIIIIIIIIA1IIIIIIIIIIIIIIIIIIIIIIIIIIIIIIIIIIIIIIIIIIIIIII
IIIIIIIIIIIIIIIAA1IIIIIIIIIIIIIIIIIIIIIIIIIIIIIIIIIIIIIIIIIIIIII
IIA1IIIIIIIIIIIAA1IIIIIIIIIIIIIIIIIIIIIIIIIIIIIIIIIIIIIIIIIIIIII
IIA1A1IIIIIIIIIAA1IIIIIIIIIIIIIIIIIIIIIIIIIIIIIIIIIIIIIIIIIIIIII
IIA1A1A1IIIIIIIAA1IIIIIIIIIIIIIIIIIIIIIIIIIIIIIIIIIIIIIIIIIIIIII
IIA1A1AA1IIIIIIAA1IIIIIIIIIIIIIIIIIIIIIIIIIIIIIIIIIIIIIIIIIIIIII
IIA1A1AA1IIIIIIAA1IIIIIIIA1IIIIIIIIIIIIIIIIIIIIIIIIIIIIIIIIIIIII
IIA1A1AA1IIIIIIAA1IIAIIIIA1IIIIIIIIIIIIIIIIIIIIIIIIIIIIIIIIIIIII
IIA1A1AA1IIIIIIAA1IIAIIIIA12IIIIIIIIIIIIIIIIIIIIIIIIIIIIIIIIIIII
IIA1A1AA12IIIIIAA1IIAIIIIA12IIIIIIIIIIIIIIIIIIIIIIIIIIIIIIIIIIII
IIA1A1AA12IIIIIAA12IAIIIIA12IIIIIIIIIIIIIIIIIIIIIIIIIIIIIIIIIIII
IIIIIIIIIIIIIIIIA12IIIIIIIIIIIIIIIIIIIIIIIIIIIIIIIIIIIIIIIIIIIII
IIA12IIIIIIIIIIIA12IIIIIIIIIIIIIIIIIIIIIIIIIIIIIIIIIIIIIIIIIIIII
IIA1A12IIIIIIIIIA12IIIIIIIIIIIIIIIIIIIIIIIIIIIIIIIIIIIIIIIIIIIII
IIA1A1A12IIIIIIIA12IIIIIIIIIIIIIIIIIIIIIIIIIIIIIIIIIIIIIIIIIIIII
IIA1A1A12IIIIIIIA12IIIIIIA12IIIIIIIIIIIIIIIIIIIIIIIIIIIIIIIIIIII
IIA1A1AA12IIIIIIA12IIIIIIA12IIIIIIIIIIIIIIIIIIIIIIIIIIIIIIIIIIII
IIA1A1AA12IIIIIAA12IIIIIIA12IIIIIIIIIIIIIIIIIIIIIIIIIIIIIIIIIIII
IIA1A1AA122IIIIAA12IIIIIIA12IIIIIIIIIIIIIIIIIIIIIIIIIIIIIIIIIIII
IIA1A1AA122IIIIAA12IA1I2IA12IIIIIIIIIIIIIIIIIIIIIIIIIIIIIIIIIIII
IIIIIIIA1I2IIIIIIIIIIIIIIIIIIIIIIIIIIIIIIIIIIIIIIIIIIIIIIIIIIIII
IIIIIIAA122IIIIIIIIIIIIIIIIIIIIIIIIIIIIIIIIIIIIIIIIIIIIIIIIIIIII
IIIIIIAA122IIIIIIIIIIIIIIA1I2IIIIIIIIIIIIIIIIIIIIIIIIIIIIIIIIIII
IIIIIIAA122IIIIIA1I2IIIIIA1I2IIIIIIIIIIIIIIIIIIIIIIIIIIIIIIIIIII
IIA1I2AA122IIIIIA1I2IIIIIA1I2IIIIIIIIIIIIIIIIIIIIIIIIIIIIIIIIIII
IIA1A1AA122IIIIIA1I2IIIIIA1I2IIIIIIIIIIIIIIIIIIIIIIIIIIIIIIIIIII
IIA1A1AA122IIIIIA1I2AIIIIA1I2IIIIIIIIIIIIIIIIIIIIIIIIIIIIIIIIIII
IIA1A1AA122IIIIIA1I2AIIIIA122IIIIIIIIIIIIIIIIIIIIIIIIIIIIIIIIIII
IIIIIIIIIIIIIIIA12IIIIIIIIIIIIIIIIIIIIIIIIIIIIIIIIIIIIIIIIIIIIII
IIIIIIIIIIIIIIIIAIIIIIIIIIIIIIIIIIIIIIIIIIIIIIIIIIIIIIIIIIIIIIII
IIAIIIIIIIIIIIIIAIIIIIIIIIIIIIIIIIIIIIIIIIIIIIIIIIIIIIIIIIIIIIII
IIAIAIIIIIIIIIIIAIIIIIIIIIIIIIIIIIIIIIIIIIIIIIIIIIIIIIIIIIIIIIII
IIAIAIAIIIIIIIIIAIIIIIIIIIIIIIIIIIIIIIIIIIIIIIIIIIIIIIIIIIIIIIII
IIAIAIAIIIIIIIIIAIIIIIIIIAIIIIIIIIIIIIIIIIIIIIIIIIIIIIIIIIIIIIII
IIAIAIAAIIIIIIIIAIIIIIIIIAIIIIIIIIIIIIIIIIIIIIIIIIIIIIIIIIIIIIII
IIAIAIAAIIIIIIIAAIIIIIIIIAIIIIIIIIIIIIIIIIIIIIIIIIIIIIIIIIIIIIII
IIAIAIAAIIIIIIIAA12IIIIIIAIIIIIIIIIIIIIIIIIIIIIIIIIIIIIIIIIIIIII
IIA1AIAAIIIIIIIAA12IIIIIIAIIIIIIIIIIIIIIIIIIIIIIIIIIIIIIIIIIIIII
IIA1A1AAIIIIIIIAA12IIIIIIAIIIIIIIIIIIIIIIIIIIIIIIIIIIIIIIIIIIIII
IIA1A1AA2IIIIIIAA12IIIIIIAIIIIIIIIIIIIIIIIIIIIIIIIIIIIIIIIIIIIII
IIA1A1AA12IIIIIAA12IIIIIIAIIIIIIIIIIIIIIIIIIIIIIIIIIIIIIIIIIIIII
IIA1A1AA12IIIIIAA12IIIIIIA12IIIIIIIIIIIIIIIIIIIIIIIIIIIIIIIIIIII
IIA1A1AA11II2IIAA12IIIIIIA12IIIIIIIIIIIIIIIIIIIIIIIIIIIIIIIIIIII
IIA1A1AA11II2IIAA12IIIIIIA11II2IIIIIIIIIIIIIIIIIIIIIIIIIIIIIIIII
IIA1A1AA11II2IIAA11II2IIIA11II2IIIIIIIIIIIIIIIIIIIIIIIIIIIIIIIII
IIA1A1AA11I22IIAA11II2IIIA11II2IIIIIIIIIIIIIIIIIIIIIIIIIIIIIIIII
IIA1A1AA11I22IIAA11IA11IIA11II2IIIIIIIIIIIIIIIIIIIIIIIIIIIIIIIII
IIIIIIIIIIIIIIIAIIIIIIIIIIIIIIIIIIIIIIIIIIIIIIIIIIIIIIIIIIIIIIII
IIIIIIIIIIIIIIIIA1IIIIIIIIIIIIIIIIIIIIIIIIIIIIIIIIIIIIIIIIIIIIII
IIA1IIIIIIIIIIIIA1IIIIIIIIIIIIIIIIIIIIIIIIIIIIIIIIIIIIIIIIIIIIII
IIA1A1IIIIIIIIIIA1IIIIIIIIIIIIIIIIIIIIIIIIIIIIIIIIIIIIIIIIIIIIII
IIA1A1A1IIIIIIIIA1IIIIIIIIIIIIIIIIIIIIIIIIIIIIIIIIIIIIIIIIIIIIII
IIA1A1AA1IIIIIIIA1IIIIIIIIIIIIIIIIIIIIIIIIIIIIIIIIIIIIIIIIIIIIII
IIA1A1AA1IIIIIIIA1IIIIIIIA1IIIIIIIIIIIIIIIIIIIIIIIIIIIIIIIIIIIII
IIA1A1AA1IIIIIIIA1IIAIIIIA1IIIIIIIIIIIIIIIIIIIIIIIIIIIIIIIIIIIII
IIA1A1AA1IIIIIIAA1IIAIIIIA1IIIIIIIIIIIIIIIIIIIIIIIIIIIIIIIIIIIII
IIA1A1AA1IIIIIIAA12IAIIIIA1IIIIIIIIIIIIIIIIIIIIIIIIIIIIIIIIIIIII
IIA1A1AA12IIIIIAA12IAIIIIA1IIIIIIIIIIIIIIIIIIIIIIIIIIIIIIIIIIIII
IIA1A1AA12IIIIIAA12IAIIIIA12IIIIIIIIIIIIIIIIIIIIIIIIIIIIIIIIIIII
IIIIIIIA12IIIIIIIIIIIIIIIIIIIIIIIIIIIIIIIIIIIIIIIIIIIIIIIIIIIIII
IIIIIIAA12IIIIIIIIIIIIIIIIIIIIIIIIIIIIIIIIIIIIIIIIIIIIIIIIIIIIII
IIIIIIAA12IIIIIIIIIIIIIIIA12IIIIIIIIIIIIIIIIIIIIIIIIIIIIIIIIIIII
IIIIIIAA12IIIIIIA12IIIIIIA12IIIIIIIIIIIIIIIIIIIIIIIIIIIIIIIIIIII
IIA12IAA12IIIIIIA12IIIIIIA12IIIIIIIIIIIIIIIIIIIIIIIIIIIIIIIIIIII
IIA1A1AA12IIIIIIA12IIIIIIA12IIIIIIIIIIIIIIIIIIIIIIIIIIIIIIIIIIII
IIA1A1AA12IIIIIIA12IA12IIA12IIIIIIIIIIIIIIIIIIIIIIIIIIIIIIIIIIII
IIA1A1AA12IIIIIAA12IA12IIA12IIIIIIIIIIIIIIIIIIIIIIIIIIIIIIIIIIII
IIA1A1AA12IIIIIAA122A12IIA12IIIIIIIIIIIIIIIIIIIIIIIIIIIIIIIIIIII
IIA1A1AA122IIIIAA122A12IIA12IIIIIIIIIIIIIIIIIIIIIIIIIIIIIIIIIIII
IIA1A1AA122I2IIAA122A12IIA12IIIIIIIIIIIIIIIIIIIIIIIIIIIIIIIIIIII
IIA1A1AA122I2IIAA122A12IIA122II2IIIIIIIIIIIIIIIIIIIIIIIIIIIIIIII
IIA1A1AA122I22IAA122A12IIA122II2IIIIIIIIIIIIIIIIIIIIIIIIIIIIIIII
IIIIIIIIIIIIIIIIAIIIIIIIIIIIIIIIIIIIIIIIIIIIIIIIIIIIIIIIIIIIIIII
IIAIIIIIIIIIIIIIAIIIIIIIIIIIIIIIIIIIIIIIIIIIIIIIIIIIIIIIIIIIIIII
IIAIAIIIIIIIIIIIAIIIIIIIIIIIIIIIIIIIIIIIIIIIIIIIIIIIIIIIIIIIIIII
IIAIAIAIIIIIIIIIAIIIIIIIIIIIIIIIIIIIIIIIIIIIIIIIIIIIIIIIIIIIIIII
IIAIAIAIIIIIIIIIAIIIIIIIIAIIIIIIIIIIIIIIIIIIIIIIIIIIIIIIIIIIIIII
IIAIAIAAIIIIIIIIAIIIIIIIIAIIIIIIIIIIIIIIIIIIIIIIIIIIIIIIIIIIIIII
IIAIAIAAIIIIIIIAAIIIIIIIIAIIIIIIIIIIIIIIIIIIIIIIIIIIIIIIIIIIIIII
IIAIAIAAIIIIIIIAA1IIIIIIIAIIIIIIIIIIIIIIIIIIIIIIIIIIIIIIIIIIIIII
IIA1AIAAIIIIIIIAA1IIIIIIIAIIIIIIIIIIIIIIIIIIIIIIIIIIIIIIIIIIIIII
IIA1A1AAIIIIIIIAA1IIIIIIIAIIIIIIIIIIIIIIIIIIIIIIIIIIIIIIIIIIIIII
IIIIIIIA1IIIIIIIIIIIIIIIIIIIIIIIIIIIIIIIIIIIIIIIIIIIIIIIIIIIIIII
IIIIIIAA1IIIIIIIIIIIIIIIIIIIIIIIIIIIIIIIIIIIIIIIIIIIIIIIIIIIIIII
IIIIIIAA1IIIIIIIIIIIIIIIIA1IIIIIIIIIIIIIIIIIIIIIIIIIIIIIIIIIIIII
IIIIIIAA1IIIIIIIA1IIIIIIIA1IIIIIIIIIIIIIIIIIIIIIIIIIIIIIIIIIIIII
IIA1IIAA1IIIIIIIA1IIIIIIIA1IIIIIIIIIIIIIIIIIIIIIIIIIIIIIIIIIIIII
IIA1A1AA1IIIIIIIA1IIIIIIIA1IIIIIIIIIIIIIIIIIIIIIIIIIIIIIIIIIIIII
IIA1A1AA1IIIIIIIA1IIAIIIIA1IIIIIIIIIIIIIIIIIIIIIIIIIIIIIIIIIIIII
IIA1A1AA1IIIIIIIA1IIA1IIIA1IIIIIIIIIIIIIIIIIIIIIIIIIIIIIIIIIIIII
IIA1A1AA1IIIIIIAA12IA1IIIA1IIIIIIIIIIIIIIIIIIIIIIIIIIIIIIIIIIIII
IIIIIIIIIIIIIIIIA1I2IIIIIIIIIIIIIIIIIIIIIIIIIIIIIIIIIIIIIIIIIIII
IIA1I2IIIIIIIIIIA1I2IIIIIIIIIIIIIIIIIIIIIIIIIIIIIIIIIIIIIIIIIIII
IIA1A1I2IIIIIIIIA1I2IIIIIIIIIIIIIIIIIIIIIIIIIIIIIIIIIIIIIIIIIIII
IIA1A1A1I2IIIIIIA1I2IIIIIIIIIIIIIIIIIIIIIIIIIIIIIIIIIIIIIIIIIIII
IIA1A1A1I2IIIIIIA1I2IIIIIA1I2IIIIIIIIIIIIIIIIIIIIIIIIIIIIIIIIIII
IIA1A1AA122IIIIIA1I2IIIIIA1I2IIIIIIIIIIIIIIIIIIIIIIIIIIIIIIIIIII
IIA1A1AA122IIIIAA1I2IIIIIA1I2IIIIIIIIIIIIIIIIIIIIIIIIIIIIIIIIIII
IIA1A1AA122IIIIAA122IIIIIA1I2IIIIIIIIIIIIIIIIIIIIIIIIIIIIIIIIIII
IIA1A1AA122IIIIAA122IIIIIA122IIIIIIIIIIIIIIIIIIIIIIIIIIIIIIIIIII
IIA1A1AA122IIIIAA122AIIIIA122IIIIIIIIIIIIIIIIIIIIIIIIIIIIIIIIIII
IIIIIIIIIIIIIIIIA1IIIIIIIIIIIIIIIIIIIIIIIIIIIIIIIIIIIIIIIIIIIIII
IIA1IIIIIIIIIIIIA1IIIIIIIIIIIIIIIIIIIIIIIIIIIIIIIIIIIIIIIIIIIIII
IIA1A1IIIIIIIIIIA1IIIIIIIIIIIIIIIIIIIIIIIIIIIIIIIIIIIIIIIIIIIIII
IIA1A1A1IIIIIIIIA1IIIIIIIIIIIIIIIIIIIIIIIIIIIIIIIIIIIIIIIIIIIIII
IIA1A1A1IIIIIIIIA1IIIIIIIA1IIIIIIIIIIIIIIIIIIIIIIIIIIIIIIIIIIIII
IIA1A1AA1IIIIIIIA1IIIIIIIA1IIIIIIIIIIIIIIIIIIIIIIIIIIIIIIIIIIIII
IIA1A1AA1IIIIIIAA1IIIIIIIA1IIIIIIIIIIIIIIIIIIIIIIIIIIIIIIIIIIIII
IIA1A1AA12IIIIIAA1IIIIIIIA1IIIIIIIIIIIIIIIIIIIIIIIIIIIIIIIIIIIII
IIA1A1AA12IIIIIAA1IIIIIIIA12IIIIIIIIIIIIIIIIIIIIIIIIIIIIIIIIIIII
IIA1A1AA12IIIIIAA12IIIIIIA12IIIIIIIIIIIIIIIIIIIIIIIIIIIIIIIIIIII
IIA1A1AA12IIIIIAA12IA12IIA12IIIIIIIIIIIIIIIIIIIIIIIIIIIIIIIIIIII
IIA1A1AA121IIIIAA12IA12IIA12IIIIIIIIIIIIIIIIIIIIIIIIIIIIIIIIIIII
IIA1A1AA1212IIIAA12IA12IIA12IIIIIIIIIIIIIIIIIIIIIIIIIIIIIIIIIIII
IIA1A1AA12112IIAA12IA12IIA12IIIIIIIIIIIIIIIIIIIIIIIIIIIIIIIIIIII
IIA1A1AA12112IIAA12IA12I1A12IIIIIIIIIIIIIIIIIIIIIIIIIIIIIIIIIIII
IIA1A1AA12112IIAA12IA12I1A12I12IIIIIIIIIIIIIIIIIIIIIIIIIIIIIIIII
IIA1A1AA12112IIAA12AA12I1A12I12IIIIIIIIIIIIIIIIIIIIIIIIIIIIIIIII
IIIIIIIIIIIIIIIIA1IIIIIIIIIIIIIIIIIIIIIIIIIIIIIIIIIIIIIIIIIIIIII
IIA1IIIIIIIIIIIIA1IIIIIIIIIIIIIIIIIIIIIIIIIIIIIIIIIIIIIIIIIIIIII
IIA1A1IIIIIIIIIIA1IIIIIIIIIIIIIIIIIIIIIIIIIIIIIIIIIIIIIIIIIIIIII
IIA1A1A1IIIIIIIIA1IIIIIIIIIIIIIIIIIIIIIIIIIIIIIIIIIIIIIIIIIIIIII
IIA1A1A1IIIIIIIIA1IIIIIIIA1IIIIIIIIIIIIIIIIIIIIIIIIIIIIIIIIIIIII
IIA1A1AA1IIIIIIIA1IIIIIIIA1IIIIIIIIIIIIIIIIIIIIIIIIIIIIIIIIIIIII
IIA1A1AA1IIIIIIAA1IIIIIIIA1IIIIIIIIIIIIIIIIIIIIIIIIIIIIIIIIIIIII
IIA1A1AA1IIIIIIAA12IIIIIIA1IIIIIIIIIIIIIIIIIIIIIIIIIIIIIIIIIIIII
IIA1A1AA1IIIIIIAA12IIIIIIA12IIIIIIIIIIIIIIIIIIIIIIIIIIIIIIIIIIII
IIA1A1AA12IIIIIAA12IIIIIIA12IIIIIIIIIIIIIIIIIIIIIIIIIIIIIIIIIIII
IIA1A1AA12IIIIIAA12IA1IIIA12IIIIIIIIIIIIIIIIIIIIIIIIIIIIIIIIIIII
IIIIIIIA1IIIIIIIIIIIIIIIIIIIIIIIIIIIIIIIIIIIIIIIIIIIIIIIIIIIIIII
IIIIIIAA1IIIIIIIIIIIIIIIIIIIIIIIIIIIIIIIIIIIIIIIIIIIIIIIIIIIIIII
IIIIIIAA1IIIIIIIIIIIIIIIIA1IIIIIIIIIIIIIIIIIIIIIIIIIIIIIIIIIIIII
IIIIIIAA1IIIIIIIA1IIIIIIIA1IIIIIIIIIIIIIIIIIIIIIIIIIIIIIIIIIIIII
IIA1IIAA1IIIIIIIA1IIIIIIIA1IIIIIIIIIIIIIIIIIIIIIIIIIIIIIIIIIIIII
IIA1A1AA1IIIIIIIA1IIIIIIIA1IIIIIIIIIIIIIIIIIIIIIIIIIIIIIIIIIIIII
IIA1A1AA1IIIIIIIA1IIAIIIIA1IIIIIIIIIIIIIIIIIIIIIIIIIIIIIIIIIIIII
IIA1A1AA1IIIIIIIA1IIAIIIIA12IIIIIIIIIIIIIIIIIIIIIIIIIIIIIIIIIIII
IIA1A1AA12IIIIIIA1IIAIIIIA12IIIIIIIIIIIIIIIIIIIIIIIIIIIIIIIIIIII
IIIIIIIIIIIIIIIA12IIIIIIIIIIIIIIIIIIIIIIIIIIIIIIIIIIIIIIIIIIIIII
IIIIIIIIIIIIIIIIA12IIIIIIIIIIIIIIIIIIIIIIIIIIIIIIIIIIIIIIIIIIIII
IIA12IIIIIIIIIIIA12IIIIIIIIIIIIIIIIIIIIIIIIIIIIIIIIIIIIIIIIIIIII
IIA1A12IIIIIIIIIA12IIIIIIIIIIIIIIIIIIIIIIIIIIIIIIIIIIIIIIIIIIIII
IIA1A1A12IIIIIIIA12IIIIIIIIIIIIIIIIIIIIIIIIIIIIIIIIIIIIIIIIIIIII
IIA1A1A12IIIIIIIA12IIIIIIA12IIIIIIIIIIIIIIIIIIIIIIIIIIIIIIIIIIII
IIA1A1AA12IIIIIIA12IIIIIIA12IIIIIIIIIIIIIIIIIIIIIIIIIIIIIIIIIIII
IIA1A1AA12IIIIIAA12IIIIIIA12IIIIIIIIIIIIIIIIIIIIIIIIIIIIIIIIIIII
IIA1A1AA12IIIIIAA12IAIIIIA12IIIIIIIIIIIIIIIIIIIIIIIIIIIIIIIIIIII
IIIIIIIIIIIIIIIIAIIIIIIIIIIIIIIIIIIIIIIIIIIIIIIIIIIIIIIIIIIIIIII
IIAIIIIIIIIIIIIIAIIIIIIIIIIIIIIIIIIIIIIIIIIIIIIIIIIIIIIIIIIIIIII
IIAIAIIIIIIIIIIIAIIIIIIIIIIIIIIIIIIIIIIIIIIIIIIIIIIIIIIIIIIIIIII
IIAIAIAIIIIIIIIIAIIIIIIIIIIIIIIIIIIIIIIIIIIIIIIIIIIIIIIIIIIIIIII
IIAIAIAIIIIIIIIIAIIIIIIIIAIIIIIIIIIIIIIIIIIIIIIIIIIIIIIIIIIIIIII
IIAIAIAAIIIIIIIIAIIIIIIIIAIIIIIIIIIIIIIIIIIIIIIIIIIIIIIIIIIIIIII
IIAIAIAAIIIIIIIAAIIIIIIIIAIIIIIIIIIIIIIIIIIIIIIIIIIIIIIIIIIIIIII
IIAIAIAAIIIIIIIAA1IIIIIIIAIIIIIIIIIIIIIIIIIIIIIIIIIIIIIIIIIIIIII
IIA1AIAAIIIIIIIAA1IIIIIIIAIIIIIIIIIIIIIIIIIIIIIIIIIIIIIIIIIIIIII
IIA1A1AAIIIIIIIAA1IIIIIIIAIIIIIIIIIIIIIIIIIIIIIIIIIIIIIIIIIIIIII
IIA1A1AA1IIIIIIAA1IIIIIIIAIIIIIIIIIIIIIIIIIIIIIIIIIIIIIIIIIIIIII
IIA1A1AA1IIIIIIAA1IIIIIIIA1IIIIIIIIIIIIIIIIIIIIIIIIIIIIIIIIIIIII
IIA1A1AA1IIIIIIAA1IIAIIIIA1IIIIIIIIIIIIIIIIIIIIIIIIIIIIIIIIIIIII
IIIIIIIA12IIIIIIIIIIIIIIIIIIIIIIIIIIIIIIIIIIIIIIIIIIIIIIIIIIIIII
IIIIIIAA12IIIIIIIIIIIIIIIIIIIIIIIIIIIIIIIIIIIIIIIIIIIIIIIIIIIIII
IIIIIIAA12IIIIIIIIIIIIIIIA12IIIIIIIIIIIIIIIIIIIIIIIIIIIIIIIIIIII
IIIIIIAA12IIIIIIA12IIIIIIA12IIIIIIIIIIIIIIIIIIIIIIIIIIIIIIIIIIII
IIA12IAA12IIIIIIA12IIIIIIA12IIIIIIIIIIIIIIIIIIIIIIIIIIIIIIIIIIII
IIA1A1AA12IIIIIIA12IIIIIIA12IIIIIIIIIIIIIIIIIIIIIIIIIIIIIIIIIIII
IIA1A1AA12IIIIIIA12IA12IIA12IIIIIIIIIIIIIIIIIIIIIIIIIIIIIIIIIIII
IIIIIIIIIIIIIIIAIIIIIIIIIIIIIIIIIIIIIIIIIIIIIIIIIIIIIIIIIIIIIIII
IIIIIIIIIIIIIIIIAIIIIIIIIIIIIIIIIIIIIIIIIIIIIIIIIIIIIIIIIIIIIIII
IIAIIIIIIIIIIIIIAIIIIIIIIIIIIIIIIIIIIIIIIIIIIIIIIIIIIIIIIIIIIIII
IIAIAIIIIIIIIIIIAIIIIIIIIIIIIIIIIIIIIIIIIIIIIIIIIIIIIIIIIIIIIIII
IIAIAIAIIIIIIIIIAIIIIIIIIIIIIIIIIIIIIIIIIIIIIIIIIIIIIIIIIIIIIIII
IIAIAIAIIIIIIIIIAIIIIIIIIAIIIIIIIIIIIIIIIIIIIIIIIIIIIIIIIIIIIIII
IIAIAIAAIIIIIIIIAIIIIIIIIAIIIIIIIIIIIIIIIIIIIIIIIIIIIIIIIIIIIIII
IIAIAIAAIIIIIIIIAIIIIIIIIA1IIIIIIIIIIIIIIIIIIIIIIIIIIIIIIIIIIIII
IIAIAIAA1IIIIIIIAIIIIIIIIA1IIIIIIIIIIIIIIIIIIIIIIIIIIIIIIIIIIIII
IIAIAIAA1IIIIIIIA1IIIIIIIA1IIIIIIIIIIIIIIIIIIIIIIIIIIIIIIIIIIIII
IIA1AIAA1IIIIIIIA1IIIIIIIA1IIIIIIIIIIIIIIIIIIIIIIIIIIIIIIIIIIIII
IIA1A1AA1IIIIIIIA1IIIIIIIA1IIIIIIIIIIIIIIIIIIIIIIIIIIIIIIIIIIIII
IIA1A1AA1IIIIIIAA1IIIIIIIA1IIIIIIIIIIIIIIIIIIIIIIIIIIIIIIIIIIIII
IIIIIIIA1IIIIIIIIIIIIIIIIIIIIIIIIIIIIIIIIIIIIIIIIIIIIIIIIIIIIIII
IIIIIIAA1IIIIIIIIIIIIIIIIIIIIIIIIIIIIIIIIIIIIIIIIIIIIIIIIIIIIIII
IIIIIIAA1IIIIIIIIIIIIIIIIA1IIIIIIIIIIIIIIIIIIIIIIIIIIIIIIIIIIIII
IIIIIIAA1IIIIIIIA1IIIIIIIA1IIIIIIIIIIIIIIIIIIIIIIIIIIIIIIIIIIIII
IIA1IIAA1IIIIIIIA1IIIIIIIA1IIIIIIIIIIIIIIIIIIIIIIIIIIIIIIIIIIIII
IIA1A1AA1IIIIIIIA1IIIIIIIA1IIIIIIIIIIIIIIIIIIIIIIIIIIIIIIIIIIIII
IIA1A1AA1IIIIIIIA1IIAIIIIA1IIIIIIIIIIIIIIIIIIIIIIIIIIIIIIIIIIIII
IIA1A1AA1IIIIIIIA1IIA1IIIA1IIIIIIIIIIIIIIIIIIIIIIIIIIIIIIIIIIIII
IIA1A1AA1IIIIIIAA1I2A1IIIA1IIIIIIIIIIIIIIIIIIIIIIIIIIIIIIIIIIIII
IIA1A1AA1IIIIIIAA1I2A12IIA1IIIIIIIIIIIIIIIIIIIIIIIIIIIIIIIIIIIII
IIA1A1AA1I2IIIIAA1I2A12IIA1IIIIIIIIIIIIIIIIIIIIIIIIIIIIIIIIIIIII
IIA1A1AA1I2I2IIAA1I2A12IIA1IIIIIIIIIIIIIIIIIIIIIIIIIIIIIIIIIIIII
IIA1A1AA1I2I2IIAA1I2A12IIA1II2I2IIIIIIIIIIIIIIIIIIIIIIIIIIIIIIII
IIA1A1AA1I2222IAA1I2A12IIA1II2I2IIIIIIIIIIIIIIIIIIIIIIIIIIIIIIII
IIIIIIIIIIIIIIIAIIIIIIIIIIIIIIIIIIIIIIIIIIIIIIIIIIIIIIIIIIIIIIII
IIIIIIIIIIIIIIIAAIIIIIIIIIIIIIIIIIIIIIIIIIIIIIIIIIIIIIIIIIIIIIII
IIAIIIIIIIIIIIIAAIIIIIIIIIIIIIIIIIIIIIIIIIIIIIIIIIIIIIIIIIIIIIII
IIAIAIIIIIIIIIIAAIIIIIIIIIIIIIIIIIIIIIIIIIIIIIIIIIIIIIIIIIIIIIII
IIAIAIAIIIIIIIIAAIIIIIIIIIIIIIIIIIIIIIIIIIIIIIIIIIIIIIIIIIIIIIII
IIAIAIAA12IIIIIAAIIIIIIIIIIIIIIIIIIIIIIIIIIIIIIIIIIIIIIIIIIIIIII
IIAIAIAA12IIIIIAAIIIIIIIIA12IIIIIIIIIIIIIIIIIIIIIIIIIIIIIIIIIIII
IIAIAIAA12IIIIIAA12IIIIIIA12IIIIIIIIIIIIIIIIIIIIIIIIIIIIIIIIIIII
IIA1AIAA12IIIIIAA12IIIIIIA12IIIIIIIIIIIIIIIIIIIIIIIIIIIIIIIIIIII
IIA1A1AA12IIIIIAA12IIIIIIA12IIIIIIIIIIIIIIIIIIIIIIIIIIIIIIIIIIII
IIA1A1AA12IIIIIAA12IIIIA1A12IIIIIIIIIIIIIIIIIIIIIIIIIIIIIIIIIIII
IIA1A1AA12IIIIIAA12IA12A1A12IIIIIIIIIIIIIIIIIIIIIIIIIIIIIIIIIIII
IIIIIIIIIIIIIIIIA1IIIIIIIIIIIIIIIIIIIIIIIIIIIIIIIIIIIIIIIIIIIIII
IIA1IIIIIIIIIIIIA1IIIIIIIIIIIIIIIIIIIIIIIIIIIIIIIIIIIIIIIIIIIIII
IIA1A1IIIIIIIIIIA1IIIIIIIIIIIIIIIIIIIIIIIIIIIIIIIIIIIIIIIIIIIIII
IIA1A1A1IIIIIIIIA1IIIIIIIIIIIIIIIIIIIIIIIIIIIIIIIIIIIIIIIIIIIIII
IIA1A1A1IIIIIIIIA1IIIIIIIA1IIIIIIIIIIIIIIIIIIIIIIIIIIIIIIIIIIIII
IIA1A1AA1IIIIIIIA1IIIIIIIA1IIIIIIIIIIIIIIIIIIIIIIIIIIIIIIIIIIIII
IIA1A1AA1IIIIIIAA1IIIIIIIA1IIIIIIIIIIIIIIIIIIIIIIIIIIIIIIIIIIIII
IIA1A1AA12I2IIIAA1IIIIIIIA1IIIIIIIIIIIIIIIIIIIIIIIIIIIIIIIIIIIII
IIA1A1AA12I2IIIAA1IIIIIIIA12I2IIIIIIIIIIIIIIIIIIIIIIIIIIIIIIIIII
IIA1A1AA12I2IIIAA12I2IIIIA12I2IIIIIIIIIIIIIIIIIIIIIIIIIIIIIIIIII
IIA1A1AA1222IIIAA12I2IIIIA12I2IIIIIIIIIIIIIIIIIIIIIIIIIIIIIIIIII
IIA1A1AA1222IIIAA12IA12I2A12I2IIIIIIIIIIIIIIIIIIIIIIIIIIIIIIIIII
IIIIIIIAIIIIIIIIIIIIIIIIIIIIIIIIIIIIIIIIIIIIIIIIIIIIIIIIIIIIIIII
IIIIIIAAIIIIIIIIIIIIIIIIIIIIIIIIIIIIIIIIIIIIIIIIIIIIIIIIIIIIIIII
IIIIIIAAIIIIIIIIIIIIIIIIIAIIIIIIIIIIIIIIIIIIIIIIIIIIIIIIIIIIIIII
IIIIIIAAIIIIIIIIAIIIIIIIIAIIIIIIIIIIIIIIIIIIIIIIIIIIIIIIIIIIIIII
IIAIIIAAIIIIIIIIAIIIIIIIIAIIIIIIIIIIIIIIIIIIIIIIIIIIIIIIIIIIIIII
IIAIAIAAIIIIIIIIAIIIIIIIIAIIIIIIIIIIIIIIIIIIIIIIIIIIIIIIIIIIIIII
IIAIAIAAIIIIIIIIAIIIAIIIIAIIIIIIIIIIIIIIIIIIIIIIIIIIIIIIIIIIIIII
IIAIAIAA12IIIIIIAIIIAIIIIAIIIIIIIIIIIIIIIIIIIIIIIIIIIIIIIIIIIIII
IIAIAIAA12IIIIIIAIIIA12IIAIIIIIIIIIIIIIIIIIIIIIIIIIIIIIIIIIIIIII
IIAIA1AA12IIIIIIAIIIA12IIAIIIIIIIIIIIIIIIIIIIIIIIIIIIIIIIIIIIIII
IIAIA1AA12IIIIIIAIIIA12IIA12IIIIIIIIIIIIIIIIIIIIIIIIIIIIIIIIIIII
IIIIIIIIIIIIIIIAIIIIIIIIIIIIIIIIIIIIIIIIIIIIIIIIIIIIIIIIIIIIIIII
IIIIIIIIIIIIIIIIA1IIIIIIIIIIIIIIIIIIIIIIIIIIIIIIIIIIIIIIIIIIIIII
IIA1IIIIIIIIIIIIA1IIIIIIIIIIIIIIIIIIIIIIIIIIIIIIIIIIIIIIIIIIIIII
IIA1A1IIIIIIIIIIA1IIIIIIIIIIIIIIIIIIIIIIIIIIIIIIIIIIIIIIIIIIIIII
IIA1A1A1IIIIIIIIA1IIIIIIIIIIIIIIIIIIIIIIIIIIIIIIIIIIIIIIIIIIIIII
IIA1A1A1IIIIIIIIA1IIIIIIIA1IIIIIIIIIIIIIIIIIIIIIIIIIIIIIIIIIIIII
IIA1A1AA1IIIIIIIA1IIIIIIIA1IIIIIIIIIIIIIIIIIIIIIIIIIIIIIIIIIIIII
IIA1A1AA1IIIIIIAA1IIIIIIIA1IIIIIIIIIIIIIIIIIIIIIIIIIIIIIIIIIIIII
IIA1A1AA1IIIIIIAA1IIAIIIIA1IIIIIIIIIIIIIIIIIIIIIIIIIIIIIIIIIIIII
IIIIIIIIIIIIIIIAIIIIIIIIIIIIIIIIIIIIIIIIIIIIIIIIIIIIIIIIIIIIIIII
IIIIIIIIIIIIIIIIA12IIIIIIIIIIIIIIIIIIIIIIIIIIIIIIIIIIIIIIIIIIIII
IIA12IIIIIIIIIIIA12IIIIIIIIIIIIIIIIIIIIIIIIIIIIIIIIIIIIIIIIIIIII
IIA1A12IIIIIIIIIA12IIIIIIIIIIIIIIIIIIIIIIIIIIIIIIIIIIIIIIIIIIIII
IIA1A1A12IIIIIIIA12IIIIIIIIIIIIIIIIIIIIIIIIIIIIIIIIIIIIIIIIIIIII
IIA1A1A12IIIIIIIA12IIIIIIA12IIIIIIIIIIIIIIIIIIIIIIIIIIIIIIIIIIII
IIA1A1AA12IIIIIIA12IIIIIIA12IIIIIIIIIIIIIIIIIIIIIIIIIIIIIIIIIIII
IIA1A1AA12IIIIIAA12IIIIIIA12IIIIIIIIIIIIIIIIIIIIIIIIIIIIIIIIIIII
IIA1A1AA12IIIIIAA12IAIIIIA12IIIIIIIIIIIIIIIIIIIIIIIIIIIIIIIIIIII
IIA1A1AA122IIIIAA12IAIIIIA12IIIIIIIIIIIIIIIIIIIIIIIIIIIIIIIIIIII
IIA1A1AA122IIIIAA12IAIIIIA12I2IIIIIIIIIIIIIIIIIIIIIIIIIIIIIIIIII
IIA1A1AA1222IIIAA12IAIIIIA12I2IIIIIIIIIIIIIIIIIIIIIIIIIIIIIIIIII
IIA1A1AA1222IIIAA12AAII2IA12I2IIIIIIIIIIIIIIIIIIIIIIIIIIIIIIIIII
IIIIIIIIIIIIIIIAIIIIIIIIIIIIIIIIIIIIIIIIIIIIIIIIIIIIIIIIIIIIIIII
IIIIIIIIIIIIIIIIAIIIIIIIIIIIIIIIIIIIIIIIIIIIIIIIIIIIIIIIIIIIIIII
IIAIIIIIIIIIIIIIAIIIIIIIIIIIIIIIIIIIIIIIIIIIIIIIIIIIIIIIIIIIIIII
IIAIAIIIIIIIIIIIAIIIIIIIIIIIIIIIIIIIIIIIIIIIIIIIIIIIIIIIIIIIIIII
IIAIAIAIIIIIIIIIAIIIIIIIIIIIIIIIIIIIIIIIIIIIIIIIIIIIIIIIIIIIIIII
IIAIAIAA1IIIIIIIAIIIIIIIIIIIIIIIIIIIIIIIIIIIIIIIIIIIIIIIIIIIIIII
IIAIAIAA1IIIIIIIAIIIIIIIIA1IIIIIIIIIIIIIIIIIIIIIIIIIIIIIIIIIIIII
IIAIAIAA1IIIIIIIA1IIIIIIIA1IIIIIIIIIIIIIIIIIIIIIIIIIIIIIIIIIIIII
IIA1AIAA1IIIIIIIA1IIIIIIIA1IIIIIIIIIIIIIIIIIIIIIIIIIIIIIIIIIIIII
IIA1A1AA1IIIIIIIA1IIIIIIIA1IIIIIIIIIIIIIIIIIIIIIIIIIIIIIIIIIIIII
IIA1A1AA1IIIIIIIA1IIA1IIIA1IIIIIIIIIIIIIIIIIIIIIIIIIIIIIIIIIIIII
IIA1A1AA1IIIIIIAA12IA1IIIA1IIIIIIIIIIIIIIIIIIIIIIIIIIIIIIIIIIIII
IIA1A1AA1IIIIIIAA122A1IIIA1IIIIIIIIIIIIIIIIIIIIIIIIIIIIIIIIIIIII
IIA1A1AA12IIIIIAA122A1IIIA1IIIIIIIIIIIIIIIIIIIIIIIIIIIIIIIIIIIII
IIA1A1AA12IIIIIAA122A1IIIA1I2IIIIIIIIIIIIIIIIIIIIIIIIIIIIIIIIIII
IIA1A1AA122IIIIAA122A1IIIA1I2IIIIIIIIIIIIIIIIIIIIIIIIIIIIIIIIIII
IIA1A1AA122I2IIAA122A1IIIA1I2IIIIIIIIIIIIIIIIIIIIIIIIIIIIIIIIIII
IIA1A1AA12222IIAA122A1IIIA1I2IIIIIIIIIIIIIIIIIIIIIIIIIIIIIIIIIII
IIA1A1AA12222IIAA122A1IIIA122I2IIIIIIIIIIIIIIIIIIIIIIIIIIIIIIIII
IIA1A1AA12222IIAA122A12IIA122I2IIIIIIIIIIIIIIIIIIIIIIIIIIIIIIIII
IIA1A1AA12222IIAA122A122IA122I2IIIIIIIIIIIIIIIIIIIIIIIIIIIIIIIII
IIIIIIIIIIIIIIIA1IIIIIIIIIIIIIIIIIIIIIIIIIIIIIIIIIIIIIIIIIIIIIII
IIIIIIIIIIIIIIIAA1IIIIIIIIIIIIIIIIIIIIIIIIIIIIIIIIIIIIIIIIIIIIII
IIA1IIIIIIIIIIIAA1IIIIIIIIIIIIIIIIIIIIIIIIIIIIIIIIIIIIIIIIIIIIII
IIA1A1IIIIIIIIIAA1IIIIIIIIIIIIIIIIIIIIIIIIIIIIIIIIIIIIIIIIIIIIII
IIA1A1A1IIIIIIIAA1IIIIIIIIIIIIIIIIIIIIIIIIIIIIIIIIIIIIIIIIIIIIII
IIA1A1AAIIIIIIIAA1IIIIIIIIIIIIIIIIIIIIIIIIIIIIIIIIIIIIIIIIIIIIII
IIA1A1AAIIIIIIIAA1IIIIIIIAIIIIIIIIIIIIIIIIIIIIIIIIIIIIIIIIIIIIII
IIA1A1AAIIIIIIIAA1IIA1IIIAIIIIIIIIIIIIIIIIIIIIIIIIIIIIIIIIIIIIII
IIA1A1AA1IIIIIIAA1IIA1IIIAIIIIIIIIIIIIIIIIIIIIIIIIIIIIIIIIIIIIII
IIA1A1AA1IIIIIIAA1IIA1IIIA1IIIIIIIIIIIIIIIIIIIIIIIIIIIIIIIIIIIII
IIIIIIIA1IIIIIIIIIIIIIIIIIIIIIIIIIIIIIIIIIIIIIIIIIIIIIIIIIIIIIII
IIIIIIAA1IIIIIIIIIIIIIIIIIIIIIIIIIIIIIIIIIIIIIIIIIIIIIIIIIIIIIII
IIIIIIAA1IIIIIIIIIIIIIIIIA1IIIIIIIIIIIIIIIIIIIIIIIIIIIIIIIIIIIII
IIIIIIAA1IIIIIIIA1IIIIIIIA1IIIIIIIIIIIIIIIIIIIIIIIIIIIIIIIIIIIII
IIA1IIAA1IIIIIIIA1IIIIIIIA1IIIIIIIIIIIIIIIIIIIIIIIIIIIIIIIIIIIII
IIA1A1AA1IIIIIIIA1IIIIIIIA1IIIIIIIIIIIIIIIIIIIIIIIIIIIIIIIIIIIII
IIA1A1AA1IIIIIIIA1IIAIIIIA1IIIIIIIIIIIIIIIIIIIIIIIIIIIIIIIIIIIII
IIA1A1AA1IIIIIIAA1IIAIIIIA1IIIIIIIIIIIIIIIIIIIIIIIIIIIIIIIIIIIII
IIA1A1AA1IIIIIIAA1IIA1IIIA1IIIIIIIIIIIIIIIIIIIIIIIIIIIIIIIIIIIII
IIA1A1AA1IIIIIIAA11IA1IIIA1IIIIIIIIIIIIIIIIIIIIIIIIIIIIIIIIIIIII
IIA1A1AA12IIIIIAA11IA1IIIA1IIIIIIIIIIIIIIIIIIIIIIIIIIIIIIIIIIIII
IIA1A1AA12I2IIIAA11IA1IIIA1IIIIIIIIIIIIIIIIIIIIIIIIIIIIIIIIIIIII
IIA1A1AA11I22IIAA11IA1IIIA1IIIIIIIIIIIIIIIIIIIIIIIIIIIIIIIIIIIII
IIA1A1AA11I22IIAA11IA11IIA1IIIIIIIIIIIIIIIIIIIIIIIIIIIIIIIIIIIII
IIA1A1AA11I22IIAA11IA11IIA11II2IIIIIIIIIIIIIIIIIIIIIIIIIIIIIIIII
IIIIIIIIIIIIIIIAIIIIIIIIIIIIIIIIIIIIIIIIIIIIIIIIIIIIIIIIIIIIIIII
IIIIIIIIIIIIIIIIA12IIIIIIIIIIIIIIIIIIIIIIIIIIIIIIIIIIIIIIIIIIIII
IIA12IIIIIIIIIIIA12IIIIIIIIIIIIIIIIIIIIIIIIIIIIIIIIIIIIIIIIIIIII
IIA1A12IIIIIIIIIA12IIIIIIIIIIIIIIIIIIIIIIIIIIIIIIIIIIIIIIIIIIIII
IIA1A1A12IIIIIIIA12IIIIIIIIIIIIIIIIIIIIIIIIIIIIIIIIIIIIIIIIIIIII
IIA1A1AA12IIIIIIA12IIIIIIIIIIIIIIIIIIIIIIIIIIIIIIIIIIIIIIIIIIIII
IIA1A1AA12IIIIIIA12IIIIIIA12IIIIIIIIIIIIIIIIIIIIIIIIIIIIIIIIIIII
IIA1A1AA12IIIIIIA12IAIIIIA12IIIIIIIIIIIIIIIIIIIIIIIIIIIIIIIIIIII
IIA1A1AA12IIIIIAA12IAIIIIA12IIIIIIIIIIIIIIIIIIIIIIIIIIIIIIIIIIII
IIA1A1AA122I2IIAA12IAIIIIA12IIIIIIIIIIIIIIIIIIIIIIIIIIIIIIIIIIII
IIA1A1AA12222IIAA12IAIIIIA12IIIIIIIIIIIIIIIIIIIIIIIIIIIIIIIIIIII
IIA1A1AA12222IIAA12IAIIIIA122I2IIIIIIIIIIIIIIIIIIIIIIIIIIIIIIIII
IIA1A1AA12222IIAA122A2IIIA122I2IIIIIIIIIIIIIIIIIIIIIIIIIIIIIIIII
IIA1A1AA12222IIAA122A122IA122I2IIIIIIIIIIIIIIIIIIIIIIIIIIIIIIIII
IIA1A1AA12222IIAA122A122IA12222IIIIIIIIIIIIIIIIIIIIIIIIIIIIIIIII
IIIIIIIIIIIIIIIAIIIIIIIIIIIIIIIIIIIIIIIIIIIIIIIIIIIIIIIIIIIIIIII
IIIIIIIIIIIIIIIAAIIIIIIIIIIIIIIIIIIIIIIIIIIIIIIIIIIIIIIIIIIIIIII
IIAIIIIIIIIIIIIAAIIIIIIIIIIIIIIIIIIIIIIIIIIIIIIIIIIIIIIIIIIIIIII
IIAIAIIIIIIIIIIAAIIIIIIIIIIIIIIIIIIIIIIIIIIIIIIIIIIIIIIIIIIIIIII
IIAIAIAIIIIIIIIAAIIIIIIIIIIIIIIIIIIIIIIIIIIIIIIIIIIIIIIIIIIIIIII
IIAIAIAA12II2IIAAIIIIIIIIIIIIIIIIIIIIIIIIIIIIIIIIIIIIIIIIIIIIIII
IIAIAIAA12I22IIAAIIIIIIIIIIIIIIIIIIIIIIIIIIIIIIIIIIIIIIIIIIIIIII
IIAIAIAA12I22IIAAIIIIIIIIA12II2IIIIIIIIIIIIIIIIIIIIIIIIIIIIIIIII
IIAIAIAA12I22IIAA12II2IIIA12II2IIIIIIIIIIIIIIIIIIIIIIIIIIIIIIIII
IIA1AIAA12I22IIAA12II2IIIA12II2IIIIIIIIIIIIIIIIIIIIIIIIIIIIIIIII
IIA1A1AA12I22IIAA12II2IIIA12II2IIIIIIIIIIIIIIIIIIIIIIIIIIIIIIIII
IIA1A1AA12I22IIAA12IA12IIA12II2IIIIIIIIIIIIIIIIIIIIIIIIIIIIIIIII
IIA1A1AA12I22IIAA12IA12AIA12II2IIIIIIIIIIIIIIIIIIIIIIIIIIIIIIIII
IIA1A1AA11I22IIAA12IA12AIA12II2IIIIIIIIIIIIIIIIIIIIIIIIIIIIIIIII
IIA1A1AA11I22IIAA12IA12AIA11II2IIIIIIIIIIIIIIIIIIIIIIIIIIIIIIIII
IIA1A1AA11I22IIAA11IA12AIA11II2IIIIIIIIIIIIIIIIIIIIIIIIIIIIIIIII
IIA1A1AA11I22IIAA11IA11AIA11II2IIIIIIIIIIIIIIIIIIIIIIIIIIIIIIIII
IIIIIIIA1IIIIIIIIIIIIIIIIIIIIIIIIIIIIIIIIIIIIIIIIIIIIIIIIIIIIIII
IIIIIIAA1IIIIIIIIIIIIIIIIIIIIIIIIIIIIIIIIIIIIIIIIIIIIIIIIIIIIIII
IIIIIIAA1IIIIIIIIIIIIIIIIA1IIIIIIIIIIIIIIIIIIIIIIIIIIIIIIIIIIIII
IIIIA1AA1IIIIIIIIIIIIIIIIA1IIIIIIIIIIIIIIIIIIIIIIIIIIIIIIIIIIIII
IIIIA1AA1IIIIIIIIIIIAIIIIA1IIIIIIIIIIIIIIIIIIIIIIIIIIIIIIIIIIIII
IIIIA1AA1IIIIIIIAIIIAIIIIA1IIIIIIIIIIIIIIIIIIIIIIIIIIIIIIIIIIIII
IIAIA1AA1IIIIIIIAIIIAIIIIA1IIIIIIIIIIIIIIIIIIIIIIIIIIIIIIIIIIIII
IIAIA1AA1IIIIIIAAIIIAIIIIA1IIIIIIIIIIIIIIIIIIIIIIIIIIIIIIIIIIIII
IIAIA1AA1IIIIIIAA1IIAIIIIA1IIIIIIIIIIIIIIIIIIIIIIIIIIIIIIIIIIIII
IIA1A1AA1IIIIIIAA1IIAIIIIA1IIIIIIIIIIIIIIIIIIIIIIIIIIIIIIIIIIIII
IIIIIIIIIIIIIIIIAIIIIIIIIIIIIIIIIIIIIIIIIIIIIIIIIIIIIIIIIIIIIIII
IIAIIIIIIIIIIIIIAIIIIIIIIIIIIIIIIIIIIIIIIIIIIIIIIIIIIIIIIIIIIIII
IIAIAIIIIIIIIIIIAIIIIIIIIIIIIIIIIIIIIIIIIIIIIIIIIIIIIIIIIIIIIIII
IIAIAIAIIIIIIIIIAIIIIIIIIIIIIIIIIIIIIIIIIIIIIIIIIIIIIIIIIIIIIIII
IIAIAIA1IIIIIIIIAIIIIIIIIIIIIIIIIIIIIIIIIIIIIIIIIIIIIIIIIIIIIIII
IIAIAIAA1IIIIIIIAIIIIIIIIIIIIIIIIIIIIIIIIIIIIIIIIIIIIIIIIIIIIIII
IIAIAIAA1IIIIIIIAIIIIIIIIA1IIIIIIIIIIIIIIIIIIIIIIIIIIIIIIIIIIIII
IIAIAIAA1IIIIIIIA1IIIIIIIA1IIIIIIIIIIIIIIIIIIIIIIIIIIIIIIIIIIIII
IIA1AIAA1IIIIIIIA1IIIIIIIA1IIIIIIIIIIIIIIIIIIIIIIIIIIIIIIIIIIIII
IIA1A1AA1IIIIIIIA1IIIIIIIA1IIIIIIIIIIIIIIIIIIIIIIIIIIIIIIIIIIIII
IIA1A1AA1IIIIIIIA1IIA1IIIA1IIIIIIIIIIIIIIIIIIIIIIIIIIIIIIIIIIIII
IIA1A1AA1IIIIIIAA1IIA1IIIA1IIIIIIIIIIIIIIIIIIIIIIIIIIIIIIIIIIIII
IIA1A1AA1IIIIIIAA12IA1IIIA1IIIIIIIIIIIIIIIIIIIIIIIIIIIIIIIIIIIII
IIA1A1AA1IIIIIIAA12IA1IIIA12IIIIIIIIIIIIIIIIIIIIIIIIIIIIIIIIIIII
IIA1A1AA12IIIIIAA12IA1IIIA12IIIIIIIIIIIIIIIIIIIIIIIIIIIIIIIIIIII
IIA1A1AA12IIIIIAA12IA12IIA12IIIIIIIIIIIIIIIIIIIIIIIIIIIIIIIIIIII
IIIIIIIA12IIIIIIIIIIIIIIIIIIIIIIIIIIIIIIIIIIIIIIIIIIIIIIIIIIIIII
IIIIIIAA12IIIIIIIIIIIIIIIIIIIIIIIIIIIIIIIIIIIIIIIIIIIIIIIIIIIIII
IIIIIIAA12IIIIIIIIIIIIIIIA12IIIIIIIIIIIIIIIIIIIIIIIIIIIIIIIIIIII
IIIIIIAA12IIIIIIA12IIIIIIA12IIIIIIIIIIIIIIIIIIIIIIIIIIIIIIIIIIII
IIA12IAA12IIIIIIA12IIIIIIA12IIIIIIIIIIIIIIIIIIIIIIIIIIIIIIIIIIII
IIA1A1AA12IIIIIIA12IIIIIIA12IIIIIIIIIIIIIIIIIIIIIIIIIIIIIIIIIIII
IIA1A1AA12IIIIIIA12IA12IIA12IIIIIIIIIIIIIIIIIIIIIIIIIIIIIIIIIIII
IIA1A1AA12IIIIIAA12IA12IIA12IIIIIIIIIIIIIIIIIIIIIIIIIIIIIIIIIIII
IIIIIIIIIIIIIIIIA12IIIIIIIIIIIIIIIIIIIIIIIIIIIIIIIIIIIIIIIIIIIII
IIA12IIIIIIIIIIIA12IIIIIIIIIIIIIIIIIIIIIIIIIIIIIIIIIIIIIIIIIIIII
IIA1A12IIIIIIIIIA12IIIIIIIIIIIIIIIIIIIIIIIIIIIIIIIIIIIIIIIIIIIII
IIA1A1A12IIIIIIIA12IIIIIIIIIIIIIIIIIIIIIIIIIIIIIIIIIIIIIIIIIIIII
IIA1A1AA12IIIIIIA12IIIIIIIIIIIIIIIIIIIIIIIIIIIIIIIIIIIIIIIIIIIII
IIA1A1AA12IIIIIIA12IIIIIIA12IIIIIIIIIIIIIIIIIIIIIIIIIIIIIIIIIIII
IIA1A1AA12IIIIIIA12IAIIIIA12IIIIIIIIIIIIIIIIIIIIIIIIIIIIIIIIIIII
IIA1A1AA12IIIIIAA12IAIIIIA12IIIIIIIIIIIIIIIIIIIIIIIIIIIIIIIIIIII
IIA1A1AA11II2IIAA12IAIIIIA12IIIIIIIIIIIIIIIIIIIIIIIIIIIIIIIIIIII
IIA1A1AA11II2IIAA12IAIIIIA11II2IIIIIIIIIIIIIIIIIIIIIIIIIIIIIIIII
IIA1A1AA11I22IIAA12IAIIIIA11II2IIIIIIIIIIIIIIIIIIIIIIIIIIIIIIIII
IIA1A1AA11I22IIAA12IA11IIA11II2IIIIIIIIIIIIIIIIIIIIIIIIIIIIIIIII
IIA1A1AA11I22IIAA11IA11IIA11II2IIIIIIIIIIIIIIIIIIIIIIIIIIIIIIIII
IIA1A1AA11I22IIAA11AA11IIA11II2IIIIIIIIIIIIIIIIIIIIIIIIIIIIIIIII
IIA1A1AA11222IIAA11AA11IIA11II2IIIIIIIIIIIIIIIIIIIIIIIIIIIIIIIII
IIA1A1AA11222I2AA11AA11IIA11II2IIIIIIIIIIIIIIIIIIIIIIIIIIIIIIIII
IIA1A1AA11222I2AA11AA11IIA112I2II2IIIIIIIIIIIIIIIIIIIIIIIIIIIIII
IIA1A1AA11222I2AA11AA11I2A112I2II2IIIIIIIIIIIIIIIIIIIIIIIIIIIIII
IIA1A1AA11222I2AA11AA1122A112I2II2IIIIIIIIIIIIIIIIIIIIIIIIIIIIII
IIIIIIIIIIIIIIIIAIIIIIIIIIIIIIIIIIIIIIIIIIIIIIIIIIIIIIIIIIIIIIII
IIAIIIIIIIIIIIIIAIIIIIIIIIIIIIIIIIIIIIIIIIIIIIIIIIIIIIIIIIIIIIII
IIAIAIIIIIIIIIIIAIIIIIIIIIIIIIIIIIIIIIIIIIIIIIIIIIIIIIIIIIIIIIII
IIAIAIAIIIIIIIIIAIIIIIIIIIIIIIIIIIIIIIIIIIIIIIIIIIIIIIIIIIIIIIII
IIAIAIAIIIIIIIIIAIIIIIIIIAIIIIIIIIIIIIIIIIIIIIIIIIIIIIIIIIIIIIII
IIAIAIAAIIIIIIIIAIIIIIIIIAIIIIIIIIIIIIIIIIIIIIIIIIIIIIIIIIIIIIII
IIAIAIAAIIIIIIIAAIIIIIIIIAIIIIIIIIIIIIIIIIIIIIIIIIIIIIIIIIIIIIII
IIAIAIAAIIIIIIIAA12IIIIIIAIIIIIIIIIIIIIIIIIIIIIIIIIIIIIIIIIIIIII
IIA1AIAAIIIIIIIAA12IIIIIIAIIIIIIIIIIIIIIIIIIIIIIIIIIIIIIIIIIIIII
IIA1A1AAIIIIIIIAA12IIIIIIAIIIIIIIIIIIIIIIIIIIIIIIIIIIIIIIIIIIIII
IIA1A1AA2IIIIIIAA12IIIIIIAIIIIIIIIIIIIIIIIIIIIIIIIIIIIIIIIIIIIII
IIA1A1AA12IIIIIAA12IIIIIIAIIIIIIIIIIIIIIIIIIIIIIIIIIIIIIIIIIIIII
IIA1A1AA12IIIIIAA12IIIIIIA12IIIIIIIIIIIIIIIIIIIIIIIIIIIIIIIIIIII
IIA1A1AA12IIIIIAA12IAIIIIA12IIIIIIIIIIIIIIIIIIIIIIIIIIIIIIIIIIII
IIA1A1AA112IIIIAA12IAIIIIA12IIIIIIIIIIIIIIIIIIIIIIIIIIIIIIIIIIII
IIA1A1AA112IIIIAA12IAIIIIA112IIII2IIIIIIIIIIIIIIIIIIIIIIIIIIIIII
IIA1A1AA112IIIIAA112AIII2A112IIII2IIIIIIIIIIIIIIIIIIIIIIIIIIIIII
IIA1A1AA112I2IIAA112AIII2A112IIII2IIIIIIIIIIIIIIIIIIIIIIIIIIIIII
IIA1A1AA112I2I2AA112AIII2A112IIII2IIIIIIIIIIIIIIIIIIIIIIIIIIIIII
IIA1A1AA112I2I2AA112A1122A112IIII2IIIIIIIIIIIIIIIIIIIIIIIIIIIIII
IIIIIIIIIIIIIIIA12IIIIIIIIIIIIIIIIIIIIIIIIIIIIIIIIIIIIIIIIIIIIII
IIIIIIIIIIIIIIIAA12IIIIIIIIIIIIIIIIIIIIIIIIIIIIIIIIIIIIIIIIIIIII
IIA12IIIIIIIIIIAA12IIIIIIIIIIIIIIIIIIIIIIIIIIIIIIIIIIIIIIIIIIIII
IIA1A12IIIIIIIIAA12IIIIIIIIIIIIIIIIIIIIIIIIIIIIIIIIIIIIIIIIIIIII
IIA1A1A12IIIIIIAA12IIIIIIIIIIIIIIIIIIIIIIIIIIIIIIIIIIIIIIIIIIIII
IIA1A1AA2IIIIIIAA12IIIIIIIIIIIIIIIIIIIIIIIIIIIIIIIIIIIIIIIIIIIII
IIA1A1AA2IIIIIIAA12IIIIIIAIIIIIIIIIIIIIIIIIIIIIIIIIIIIIIIIIIIIII
IIA1A1AA2IIIIIIAA11II2IIIAIIIIIIIIIIIIIIIIIIIIIIIIIIIIIIIIIIIIII
IIA1A1AA22IIIIIAA11II2IIIAIIIIIIIIIIIIIIIIIIIIIIIIIIIIIIIIIIIIII
IIA1A1AA12I2IIIAA11II2IIIAIIIIIIIIIIIIIIIIIIIIIIIIIIIIIIIIIIIIII
IIA1A1AA11I22IIAA11II2IIIAIIIIIIIIIIIIIIIIIIIIIIIIIIIIIIIIIIIIII
IIA1A1AA11I22IIAA11IA11IIAIIIIIIIIIIIIIIIIIIIIIIIIIIIIIIIIIIIIII
IIA1A1AA11I22IIAA11IA11IIA11II2IIIIIIIIIIIIIIIIIIIIIIIIIIIIIIIII
IIIIIIIA1IIIIIIIIIIIIIIIIIIIIIIIIIIIIIIIIIIIIIIIIIIIIIIIIIIIIIII
IIIIIIAA1IIIIIIIIIIIIIIIIIIIIIIIIIIIIIIIIIIIIIIIIIIIIIIIIIIIIIII
IIIIIIAA1IIIIIIIIIIIIIIIIA1IIIIIIIIIIIIIIIIIIIIIIIIIIIIIIIIIIIII
IIIIIIAA1IIIIIIIA1IIIIIIIA1IIIIIIIIIIIIIIIIIIIIIIIIIIIIIIIIIIIII
IIA1IIAA1IIIIIIIA1IIIIIIIA1IIIIIIIIIIIIIIIIIIIIIIIIIIIIIIIIIIIII
IIA1A1AA1IIIIIIIA1IIIIIIIA1IIIIIIIIIIIIIIIIIIIIIIIIIIIIIIIIIIIII
IIA1A1AA1IIIIIIIA1IIA1IIIA1IIIIIIIIIIIIIIIIIIIIIIIIIIIIIIIIIIIII
IIA1A1AA1IIIIIIAA12IA1IIIA1IIIIIIIIIIIIIIIIIIIIIIIIIIIIIIIIIIIII
IIA1A1AA1IIIIIIAA122A1IIIA1IIIIIIIIIIIIIIIIIIIIIIIIIIIIIIIIIIIII
IIA1A1AA12IIIIIAA122A1IIIA1IIIIIIIIIIIIIIIIIIIIIIIIIIIIIIIIIIIII
IIA1A1AA12IIIIIAA122A1IIIA1I2IIIIIIIIIIIIIIIIIIIIIIIIIIIIIIIIIII
IIA1A1AA122IIIIAA122A1IIIA1I2IIIIIIIIIIIIIIIIIIIIIIIIIIIIIIIIIII
IIIIIIIIIIIIIIIIAIIIIIIIIIIIIIIIIIIIIIIIIIIIIIIIIIIIIIIIIIIIIIII
IIAIIIIIIIIIIIIIAIIIIIIIIIIIIIIIIIIIIIIIIIIIIIIIIIIIIIIIIIIIIIII
IIAIAIIIIIIIIIIIAIIIIIIIIIIIIIIIIIIIIIIIIIIIIIIIIIIIIIIIIIIIIIII
IIAIAIAIIIIIIIIIAIIIIIIIIIIIIIIIIIIIIIIIIIIIIIIIIIIIIIIIIIIIIIII
IIAIAIAA1IIIIIIIAIIIIIIIIIIIIIIIIIIIIIIIIIIIIIIIIIIIIIIIIIIIIIII
IIAIAIAA1IIIIIIIAIIIIIIIIA1IIIIIIIIIIIIIIIIIIIIIIIIIIIIIIIIIIIII
IIAIAIAA1IIIIIIIA1IIIIIIIA1IIIIIIIIIIIIIIIIIIIIIIIIIIIIIIIIIIIII
IIA1AIAA1IIIIIIIA1IIIIIIIA1IIIIIIIIIIIIIIIIIIIIIIIIIIIIIIIIIIIII
IIA1A1AA1IIIIIIIA1IIIIIIIA1IIIIIIIIIIIIIIIIIIIIIIIIIIIIIIIIIIIII
IIA1A1AA1IIIIIIIA1IIA1IIIA1IIIIIIIIIIIIIIIIIIIIIIIIIIIIIIIIIIIII
IIA1A1AA1IIIIIIAA12IA1IIIA1IIIIIIIIIIIIIIIIIIIIIIIIIIIIIIIIIIIII
IIA1A1AA1IIIIIIAA122A1IIIA1IIIIIIIIIIIIIIIIIIIIIIIIIIIIIIIIIIIII
IIA1A1AA12IIIIIAA122A1IIIA1IIIIIIIIIIIIIIIIIIIIIIIIIIIIIIIIIIIII
IIA1A1AA122IIIIAA122A1IIIA1IIIIIIIIIIIIIIIIIIIIIIIIIIIIIIIIIIIII
IIA1A1AA122IIIIAA122A1IIIA1I2IIIIIIIIIIIIIIIIIIIIIIIIIIIIIIIIIII
IIIIIIIIIIIIIIIAIIIIIIIIIIIIIIIIIIIIIIIIIIIIIIIIIIIIIIIIIIIIIIII
IIIIIIIIIIIIIIIAA12IIIIIIIIIIIIIIIIIIIIIIIIIIIIIIIIIIIIIIIIIIIII
IIA12IIIIIIIIIIAA12IIIIIIIIIIIIIIIIIIIIIIIIIIIIIIIIIIIIIIIIIIIII
IIA1A12IIIIIIIIAA12IIIIIIIIIIIIIIIIIIIIIIIIIIIIIIIIIIIIIIIIIIIII
IIA1A1A12IIIIIIAA12IIIIIIIIIIIIIIIIIIIIIIIIIIIIIIIIIIIIIIIIIIIII
IIIIIIIA12IIIIIIIIIIIIIIIIIIIIIIIIIIIIIIIIIIIIIIIIIIIIIIIIIIIIII
IIIIIIAA12IIIIIIIIIIIIIIIIIIIIIIIIIIIIIIIIIIIIIIIIIIIIIIIIIIIIII
IIIIIIAA12IIIIIIIIIIIIIIIA12IIIIIIIIIIIIIIIIIIIIIIIIIIIIIIIIIIII
IIIIIIAA12IIIIIIA12IIIIIIA12IIIIIIIIIIIIIIIIIIIIIIIIIIIIIIIIIIII
IIA12IAA12IIIIIIA12IIIIIIA12IIIIIIIIIIIIIIIIIIIIIIIIIIIIIIIIIIII
IIA1A1AA12IIIIIIA12IIIIIIA12IIIIIIIIIIIIIIIIIIIIIIIIIIIIIIIIIIII
IIA1A1AA12IIIIIIA12IAIIIIA12IIIIIIIIIIIIIIIIIIIIIIIIIIIIIIIIIIII
IIA1A1AA12IIIIIAA12IAIIIIA12IIIIIIIIIIIIIIIIIIIIIIIIIIIIIIIIIIII
IIA1A1AA12II2IIAA12IAIIIIA12IIIIIIIIIIIIIIIIIIIIIIIIIIIIIIIIIIII
IIA1A1AA12II2IIAA12IA12IIA12IIIIIIIIIIIIIIIIIIIIIIIIIIIIIIIIIIII
IIA1A1AA12I22IIAA12IA12IIA12IIIIIIIIIIIIIIIIIIIIIIIIIIIIIIIIIIII
IIA1A1AA12I22IIAA12IA12IIA12II2IIIIIIIIIIIIIIIIIIIIIIIIIIIIIIIII
IIA1A1AA12I22IIAA12IA12IIA122I2IIIIIIIIIIIIIIIIIIIIIIIIIIIIIIIII
IIA1A1AA12222IIAA12IA12IIA122I2IIIIIIIIIIIIIIIIIIIIIIIIIIIIIIIII
IIIIIIIIIIIIIIIA1I2IIIIIIIIIIIIIIIIIIIIIIIIIIIIIIIIIIIIIIIIIIIII
IIIIIIIIIIIIIIIIA1I2IIIIIIIIIIIIIIIIIIIIIIIIIIIIIIIIIIIIIIIIIIII
IIA1I2IIIIIIIIIIA1I2IIIIIIIIIIIIIIIIIIIIIIIIIIIIIIIIIIIIIIIIIIII
IIA1A1I2IIIIIIIIA1I2IIIIIIIIIIIIIIIIIIIIIIIIIIIIIIIIIIIIIIIIIIII
IIA1A1A1I2IIIIIIA1I2IIIIIIIIIIIIIIIIIIIIIIIIIIIIIIIIIIIIIIIIIIII
IIA1A1A1I2IIIIIIA1I2IIIIIA1I2IIIIIIIIIIIIIIIIIIIIIIIIIIIIIIIIIII
IIA1A1AA122IIIIIA1I2IIIIIA1I2IIIIIIIIIIIIIIIIIIIIIIIIIIIIIIIIIII
IIA1A1AA122IIIIAA1I2IIIIIA1I2IIIIIIIIIIIIIIIIIIIIIIIIIIIIIIIIIII
IIA1A1AA122IIIIAA122IIIIIA1I2IIIIIIIIIIIIIIIIIIIIIIIIIIIIIIIIIII
IIA1A1AA122IIIIAA122IIIIIA122IIIIIIIIIIIIIIIIIIIIIIIIIIIIIIIIIII
IIA1A1AA122IIIIAA122AIIIIA122IIIIIIIIIIIIIIIIIIIIIIIIIIIIIIIIIII
IIIIIIIA1IIIIIIIIIIIIIIIIIIIIIIIIIIIIIIIIIIIIIIIIIIIIIIIIIIIIIII
IIIIIIAA1IIIIIIIIIIIIIIIIIIIIIIIIIIIIIIIIIIIIIIIIIIIIIIIIIIIIIII
IIIIIIAA1IIIIIIIIIIIIIIIIA1IIIIIIIIIIIIIIIIIIIIIIIIIIIIIIIIIIIII
IIIIIIAA1IIIIIIIA1IIIIIIIA1IIIIIIIIIIIIIIIIIIIIIIIIIIIIIIIIIIIII
IIA1IIAA1IIIIIIIA1IIIIIIIA1IIIIIIIIIIIIIIIIIIIIIIIIIIIIIIIIIIIII
IIA1A1AA1IIIIIIIA1IIIIIIIA1IIIIIIIIIIIIIIIIIIIIIIIIIIIIIIIIIIIII
IIA1A1AA1IIIIIIIA1IIA1IIIA1IIIIIIIIIIIIIIIIIIIIIIIIIIIIIIIIIIIII
IIA1A1AA122III2IA1IIA1IIIA1IIIIIIIIIIIIIIIIIIIIIIIIIIIIIIIIIIIII
IIA1A1AA122III2IA1IIA1IIIA1I22III2IIIIIIIIIIIIIIIIIIIIIIIIIIIIII
IIA1A1AA1222II22A1IIA1IIIA1I22III2IIIIIIIIIIIIIIIIIIIIIIIIIIIIII
IIIIIIIIIIIIIIIA1I22III2IIIIIIIIIIIIIIIIIIIIIIIIIIIIIIIIIIIIIIII
IIIIIIIIIIIIIIIIA1I22III2IIIIIIIIIIIIIIIIIIIIIIIIIIIIIIIIIIIIIII
IIA1I22III2IIIIIA1I22III2IIIIIIIIIIIIIIIIIIIIIIIIIIIIIIIIIIIIIII
IIA1A1222I2I2IIIA1I22III2IIIIIIIIIIIIIIIIIIIIIIIIIIIIIIIIIIIIIII
IIA1A1A1222I2I2IA1I22III2IIIIIIIIIIIIIIIIIIIIIIIIIIIIIIIIIIIIIII
IIA1A1A1222I2I2IA1I22III2A1I22III2IIIIIIIIIIIIIIIIIIIIIIIIIIIIII
IIA1A1AA12222I22A1I22III2A1I22III2IIIIIIIIIIIIIIIIIIIIIIIIIIIIII
IIA1A1AA12222I2AA1I22III2A1I22III2IIIIIIIIIIIIIIIIIIIIIIIIIIIIII
IIA1A1AA12222I2AA1I22III2A1222III2IIIIIIIIIIIIIIIIIIIIIIIIIIIIII
IIA1A1AA12222I2AA1222III2A1222III2IIIIIIIIIIIIIIIIIIIIIIIIIIIIII
IIA1A1AA12222I2AA122AIII2A1222III2IIIIIIIIIIIIIIIIIIIIIIIIIIIIII
IIIIIIIA1IIIIIIIIIIIIIIIIIIIIIIIIIIIIIIIIIIIIIIIIIIIIIIIIIIIIIII
IIIIIIAA1IIIIIIIIIIIIIIIIIIIIIIIIIIIIIIIIIIIIIIIIIIIIIIIIIIIIIII
IIIIIIAA1IIIIIIIIIIIIIIIIA1IIIIIIIIIIIIIIIIIIIIIIIIIIIIIIIIIIIII
IIIIIIAA1IIIIIIIA1IIIIIIIA1IIIIIIIIIIIIIIIIIIIIIIIIIIIIIIIIIIIII
IIA1IIAA1IIIIIIIA1IIIIIIIA1IIIIIIIIIIIIIIIIIIIIIIIIIIIIIIIIIIIII
IIA1A1AA1IIIIIIIA1IIIIIIIA1IIIIIIIIIIIIIIIIIIIIIIIIIIIIIIIIIIIII
IIA1A1AA1IIIIIIIA1IIA1IIIA1IIIIIIIIIIIIIIIIIIIIIIIIIIIIIIIIIIIII
IIA1A1AA12II2IIIA1IIA1IIIA1IIIIIIIIIIIIIIIIIIIIIIIIIIIIIIIIIIIII
IIA1A1AA12II2IIIA1IIA1IIIA1I2II2IIIIIIIIIIIIIIIIIIIIIIIIIIIIIIII
IIA1A1AA122I22IIA1IIA1IIIA1I2II2IIIIIIIIIIIIIIIIIIIIIIIIIIIIIIII
IIA1A1AA122I22IAA12IA1IIIA1I2II2IIIIIIIIIIIIIIIIIIIIIIIIIIIIIIII
IIIIIIIIIIIIIIIIA1I2II2IIIIIIIIIIIIIIIIIIIIIIIIIIIIIIIIIIIIIIIII
IIA1I2II2IIIIIIIA1I2II2IIIIIIIIIIIIIIIIIIIIIIIIIIIIIIIIIIIIIIIII
IIA1A1I22I2IIIIIA1I2II2IIIIIIIIIIIIIIIIIIIIIIIIIIIIIIIIIIIIIIIII
IIA1A1A1222I2IIIA1I2II2IIIIIIIIIIIIIIIIIIIIIIIIIIIIIIIIIIIIIIIII
IIA1A1A1222I2IIIA1I2II2IIA1I2II2IIIIIIIIIIIIIIIIIIIIIIIIIIIIIIII
IIA1A1AA122I22IIA1I2II2IIA1I2II2IIIIIIIIIIIIIIIIIIIIIIIIIIIIIIII
IIA1A1AA122I22IAA1I2II2IIA1I2II2IIIIIIIIIIIIIIIIIIIIIIIIIIIIIIII
IIA1A1AA122I22IAA1I2A12IIA1I2II2IIIIIIIIIIIIIIIIIIIIIIIIIIIIIIII
IIIIIIIA1IIIIIIIIIIIIIIIIIIIIIIIIIIIIIIIIIIIIIIIIIIIIIIIIIIIIIII
IIIIIIAA1IIIIIIIIIIIIIIIIIIIIIIIIIIIIIIIIIIIIIIIIIIIIIIIIIIIIIII
[...]
IIA1A1AA1I22IIIAA1II2IIIIA1IIIIIIIIIIIIIIIIIIIIIIIIIIIIIIIIIIIII
IIA1A1AA1I22IIIAA1II2IIIIA1II2IIIIIIIIIIIIIIIIIIIIIIIIIIIIIIIIII
IIA1A1AA1I22IIIAA1IIAIIIIA1II2IIIIIIIIIIIIIIIIIIIIIIIIIIIIIIIIII
IIIIIIIIIIIIIIIA1IIIIIIIIIIIIIIIIIIIIIIIIIIIIIIIIIIIIIIIIIIIIIII
IIIIIIIIIIIIIIIIAIIIIIIIIIIIIIIIIIIIIIIIIIIIIIIIIIIIIIIIIIIIIIII
IIAIIIIIIIIIIIIIAIIIIIIIIIIIIIIIIIIIIIIIIIIIIIIIIIIIIIIIIIIIIIII
IIAIAIIIIIIIIIIIAIIIIIIIIIIIIIIIIIIIIIIIIIIIIIIIIIIIIIIIIIIIIIII
IIAIAIAIIIIIIIIIAIIIIIIIIIIIIIIIIIIIIIIIIIIIIIIIIIIIIIIIIIIIIIII
IIAIAIAA1IIIIIIIAIIIIIIIIIIIIIIIIIIIIIIIIIIIIIIIIIIIIIIIIIIIIIII
IIAIAIAA1IIIIIIIAIIIIIIIIA1IIIIIIIIIIIIIIIIIIIIIIIIIIIIIIIIIIIII
IIAIAIAA1IIIIIIIA1IIIIIIIA1IIIIIIIIIIIIIIIIIIIIIIIIIIIIIIIIIIIII
IIA1AIAA1IIIIIIIA1IIIIIIIA1IIIIIIIIIIIIIIIIIIIIIIIIIIIIIIIIIIIII
IIA1A1AA1IIIIIIIA1IIIIIIIA1IIIIIIIIIIIIIIIIIIIIIIIIIIIIIIIIIIIII
IIA1A1AA1IIIIIIIA1IIA1IIIA1IIIIIIIIIIIIIIIIIIIIIIIIIIIIIIIIIIIII
IIA1A1AA1IIIIIIAA12IA1IIIA1IIIIIIIIIIIIIIIIIIIIIIIIIIIIIIIIIIIII
IIA1A1AA1IIIIIIAA122A1IIIA1IIIIIIIIIIIIIIIIIIIIIIIIIIIIIIIIIIIII
IIA1A1AA12IIIIIAA122A1IIIA1IIIIIIIIIIIIIIIIIIIIIIIIIIIIIIIIIIIII
IIA1A1AA12IIIIIAA122A1IIIA1I2IIIIIIIIIIIIIIIIIIIIIIIIIIIIIIIIIII
IIA1A1AA122IIIIAA122A1IIIA1I2IIIIIIIIIIIIIIIIIIIIIIIIIIIIIIIIIII
IIA1A1AA122I2IIAA122A1IIIA1I2IIIIIIIIIIIIIIIIIIIIIIIIIIIIIIIIIII
IIA1A1AA12222I2AA122A1IIIA1I2IIIIIIIIIIIIIIIIIIIIIIIIIIIIIIIIIII
IIA1A1AA12222I2AA122A1IIIA122I2II2IIIIIIIIIIIIIIIIIIIIIIIIIIIIII
IIA1A1AA12222I2AA122A1II2A122I2II2IIIIIIIIIIIIIIIIIIIIIIIIIIIIII
IIA1A1AA12222I2AA122A12I2A122I2II2IIIIIIIIIIIIIIIIIIIIIIIIIIIIII
IIIIIIIAIIIIIIIIIIIIIIIIIIIIIIIIIIIIIIIIIIIIIIIIIIIIIIIIIIIIIIII
IIIIIIAAIIIIIIIIIIIIIIIIIIIIIIIIIIIIIIIIIIIIIIIIIIIIIIIIIIIIIIII
IIIIIIAAIIIIIIIIIIIIIIIIIAIIIIIIIIIIIIIIIIIIIIIIIIIIIIIIIIIIIIII
IIIIIIAAIIIIIIIIAIIIIIIIIAIIIIIIIIIIIIIIIIIIIIIIIIIIIIIIIIIIIIII
IIAIIIAAIIIIIIIIAIIIIIIIIAIIIIIIIIIIIIIIIIIIIIIIIIIIIIIIIIIIIIII
IIAIAIAAIIIIIIIIAIIIIIIIIAIIIIIIIIIIIIIIIIIIIIIIIIIIIIIIIIIIIIII
IIAIAIAA12IIIIIIAIIIIIIIIAIIIIIIIIIIIIIIIIIIIIIIIIIIIIIIIIIIIIII
IIAIAIAA12IIIIIIAIIIA12IIAIIIIIIIIIIIIIIIIIIIIIIIIIIIIIIIIIIIIII
IIAIA1AA12IIIIIIAIIIA12IIAIIIIIIIIIIIIIIIIIIIIIIIIIIIIIIIIIIIIII
IIAIA1AA12IIIIIIAIIIA12IIA12IIIIIIIIIIIIIIIIIIIIIIIIIIIIIIIIIIII
IIAIA1AA12IIIIIIA12IA12IIA12IIIIIIIIIIIIIIIIIIIIIIIIIIIIIIIIIIII
IIA1A1AA12IIIIIIA12IA12IIA12IIIIIIIIIIIIIIIIIIIIIIIIIIIIIIIIIIII
IIA1A1AA12IIIIIAA12IA12IIA12IIIIIIIIIIIIIIIIIIIIIIIIIIIIIIIIIIII
IIA1A1AA12IIIIIAA122A12IIA12IIIIIIIIIIIIIIIIIIIIIIIIIIIIIIIIIIII
IIA1A1AA12IIIIIAA122A12IIA122IIIIIIIIIIIIIIIIIIIIIIIIIIIIIIIIIII
IIA1A1AA122IIIIAA122A12IIA122IIIIIIIIIIIIIIIIIIIIIIIIIIIIIIIIIII
IIIIIIIIIIIIIIIIA1IIIIIIIIIIIIIIIIIIIIIIIIIIIIIIIIIIIIIIIIIIIIII
IIA1IIIIIIIIIIIIA1IIIIIIIIIIIIIIIIIIIIIIIIIIIIIIIIIIIIIIIIIIIIII
IIA1A1IIIIIIIIIIA1IIIIIIIIIIIIIIIIIIIIIIIIIIIIIIIIIIIIIIIIIIIIII
IIA1A1A1IIIIIIIIA1IIIIIIIIIIIIIIIIIIIIIIIIIIIIIIIIIIIIIIIIIIIIII
IIA1A1A1IIIIIIIIA1IIIIIIIA1IIIIIIIIIIIIIIIIIIIIIIIIIIIIIIIIIIIII
IIA1A1AA1IIIIIIIA1IIIIIIIA1IIIIIIIIIIIIIIIIIIIIIIIIIIIIIIIIIIIII
IIA1A1AA1IIIIIIAA1IIIIIIIA1IIIIIIIIIIIIIIIIIIIIIIIIIIIIIIIIIIIII
IIIIIIIAIIIIIIIIIIIIIIIIIIIIIIIIIIIIIIIIIIIIIIIIIIIIIIIIIIIIIIII
IIIIIIAAIIIIIIIIIIIIIIIIIIIIIIIIIIIIIIIIIIIIIIIIIIIIIIIIIIIIIIII
IIIIIIAAIIIIIIIIIIIIIIIIIAIIIIIIIIIIIIIIIIIIIIIIIIIIIIIIIIIIIIII
IIIIIIAAIIIIIIIIAIIIIIIIIAIIIIIIIIIIIIIIIIIIIIIIIIIIIIIIIIIIIIII
IIAIIIAAIIIIIIIIAIIIIIIIIAIIIIIIIIIIIIIIIIIIIIIIIIIIIIIIIIIIIIII
IIAIAIAAIIIIIIIIAIIIIIIIIAIIIIIIIIIIIIIIIIIIIIIIIIIIIIIIIIIIIIII
IIAIAIAA1IIIIIIIAIIIIIIIIAIIIIIIIIIIIIIIIIIIIIIIIIIIIIIIIIIIIIII
IIAIAIAA1IIIIIIIAIIIA1IIIAIIIIIIIIIIIIIIIIIIIIIIIIIIIIIIIIIIIIII
IIAIA1AA1IIIIIIIAIIIA1IIIAIIIIIIIIIIIIIIIIIIIIIIIIIIIIIIIIIIIIII
IIAIA1AA1IIIIIIIAIIIA1IIIA1IIIIIIIIIIIIIIIIIIIIIIIIIIIIIIIIIIIII
IIAIA1AA1IIIIIIIA1IIA1IIIA1IIIIIIIIIIIIIIIIIIIIIIIIIIIIIIIIIIIII
IIA1A1AA1IIIIIIIA1IIA1IIIA1IIIIIIIIIIIIIIIIIIIIIIIIIIIIIIIIIIIII
IIA1A1AA1IIIIIIAA1IIA1IIIA1IIIIIIIIIIIIIIIIIIIIIIIIIIIIIIIIIIIII
IIIIIIIIIIIIIIIIAIIIIIIIIIIIIIIIIIIIIIIIIIIIIIIIIIIIIIIIIIIIIIII
IIAIIIIIIIIIIIIIAIIIIIIIIIIIIIIIIIIIIIIIIIIIIIIIIIIIIIIIIIIIIIII
IIAIAIIIIIIIIIIIAIIIIIIIIIIIIIIIIIIIIIIIIIIIIIIIIIIIIIIIIIIIIIII
IIAIAIAIIIIIIIIIAIIIIIIIIIIIIIIIIIIIIIIIIIIIIIIIIIIIIIIIIIIIIIII
IIAIAIAIIIIIIIIIAIIIIIIIIAIIIIIIIIIIIIIIIIIIIIIIIIIIIIIIIIIIIIII
IIAIAIAAIIIIIIIIAIIIIIIIIAIIIIIIIIIIIIIIIIIIIIIIIIIIIIIIIIIIIIII
IIAIAIAAIIIIIIIAAIIIIIIIIAIIIIIIIIIIIIIIIIIIIIIIIIIIIIIIIIIIIIII
IIAIAIAAIIIIIIIAA1IIIIIIIAIIIIIIIIIIIIIIIIIIIIIIIIIIIIIIIIIIIIII
IIA1AIAAIIIIIIIAA1IIIIIIIAIIIIIIIIIIIIIIIIIIIIIIIIIIIIIIIIIIIIII
IIA1A1AAIIIIIIIAA1IIIIIIIAIIIIIIIIIIIIIIIIIIIIIIIIIIIIIIIIIIIIII
IIA1A1AAIIIIIIIAA1IIIIIIIA1IIIIIIIIIIIIIIIIIIIIIIIIIIIIIIIIIIIII
IIA1A1AA1IIIIIIAA1IIIIIIIA1IIIIIIIIIIIIIIIIIIIIIIIIIIIIIIIIIIIII
IIA1A1AA12IIIIIAA1IIIIIIIA1IIIIIIIIIIIIIIIIIIIIIIIIIIIIIIIIIIIII
IIA1A1AA12IIIIIAA1IIA12IIA1IIIIIIIIIIIIIIIIIIIIIIIIIIIIIIIIIIIII
IIA1A1AA12IIIIIAA1IIA12IIA12IIIIIIIIIIIIIIIIIIIIIIIIIIIIIIIIIIII
IIA1A1AA12IIIIIAA12IA12IIA12IIIIIIIIIIIIIIIIIIIIIIIIIIIIIIIIIIII
IIIIIIIIIIIIIIIIAIIIIIIIIIIIIIIIIIIIIIIIIIIIIIIIIIIIIIIIIIIIIIII
IIAIIIIIIIIIIIIIAIIIIIIIIIIIIIIIIIIIIIIIIIIIIIIIIIIIIIIIIIIIIIII
IIAIAIIIIIIIIIIIAIIIIIIIIIIIIIIIIIIIIIIIIIIIIIIIIIIIIIIIIIIIIIII
IIAIAIAIIIIIIIIIAIIIIIIIIIIIIIIIIIIIIIIIIIIIIIIIIIIIIIIIIIIIIIII
IIAIAIAIIIIIIIIIAIIIIIIIIAIIIIIIIIIIIIIIIIIIIIIIIIIIIIIIIIIIIIII
IIAIAIAAIIIIIIIIAIIIIIIIIAIIIIIIIIIIIIIIIIIIIIIIIIIIIIIIIIIIIIII
IIAIAIAAIIIIIIIAAIIIIIIIIAIIIIIIIIIIIIIIIIIIIIIIIIIIIIIIIIIIIIII
IIAIAIAAIIIIIIIAA1IIIIIIIAIIIIIIIIIIIIIIIIIIIIIIIIIIIIIIIIIIIIII
IIA1AIAAIIIIIIIAA1IIIIIIIAIIIIIIIIIIIIIIIIIIIIIIIIIIIIIIIIIIIIII
IIA1A1AAIIIIIIIAA1IIIIIIIAIIIIIIIIIIIIIIIIIIIIIIIIIIIIIIIIIIIIII
IIA1A1AA1IIIIIIAA1IIIIIIIAIIIIIIIIIIIIIIIIIIIIIIIIIIIIIIIIIIIIII
IIA1A1AA1IIIIIIAA1IIIIIIIA1IIIIIIIIIIIIIIIIIIIIIIIIIIIIIIIIIIIII
IIA1A1AA1IIIIIIAA1IIAIIIIA1IIIIIIIIIIIIIIIIIIIIIIIIIIIIIIIIIIIII
IIA1A1AA1IIIIIIAA1IIA1IIIA1IIIIIIIIIIIIIIIIIIIIIIIIIIIIIIIIIIIII
IIA1A1AA1IIIIIIAA12IA1IIIA1IIIIIIIIIIIIIIIIIIIIIIIIIIIIIIIIIIIII
IIA1A1AA12II2IIAA12IA1IIIA1IIIIIIIIIIIIIIIIIIIIIIIIIIIIIIIIIIIII
IIA1A1AA12II2IIAA12AA12IIA1IIIIIIIIIIIIIIIIIIIIIIIIIIIIIIIIIIIII
IIA1A1AA122I2IIAA12AA12IIA1IIIIIIIIIIIIIIIIIIIIIIIIIIIIIIIIIIIII
IIA1A1AA122I2IIAA12AA12IIA1I2II2IIIIIIIIIIIIIIIIIIIIIIIIIIIIIIII
IIA1A1AA122I22IAA12AA12IIA1I2II2IIIIIIIIIIIIIIIIIIIIIIIIIIIIIIII
IIIIIIIIIIIIIIIIA1I2IIIIIIIIIIIIIIIIIIIIIIIIIIIIIIIIIIIIIIIIIIII
IIA1I2IIIIIIIIIIA1I2IIIIIIIIIIIIIIIIIIIIIIIIIIIIIIIIIIIIIIIIIIII
IIA1A1I2IIIIIIIIA1I2IIIIIIIIIIIIIIIIIIIIIIIIIIIIIIIIIIIIIIIIIIII
IIA1A1A1I2IIIIIIA1I2IIIIIIIIIIIIIIIIIIIIIIIIIIIIIIIIIIIIIIIIIIII
IIA1A1A1I2IIIIIIA1I2IIIIIA1I2IIIIIIIIIIIIIIIIIIIIIIIIIIIIIIIIIII
IIA1A1AA122IIIIIA1I2IIIIIA1I2IIIIIIIIIIIIIIIIIIIIIIIIIIIIIIIIIII
IIA1A1AA122IIIIAA1I2IIIIIA1I2IIIIIIIIIIIIIIIIIIIIIIIIIIIIIIIIIII
IIA1A1AA122IIIIAA1I2AIIIIA1I2IIIIIIIIIIIIIIIIIIIIIIIIIIIIIIIIIII
IIIIIIIA1IIIIIIIIIIIIIIIIIIIIIIIIIIIIIIIIIIIIIIIIIIIIIIIIIIIIIII
IIIIIIAA1IIIIIIIIIIIIIIIIIIIIIIIIIIIIIIIIIIIIIIIIIIIIIIIIIIIIIII
IIIIIIAA1IIIIIIIIIIIIIIIIA1IIIIIIIIIIIIIIIIIIIIIIIIIIIIIIIIIIIII
IIIIIIAA1IIIIIIIA1IIIIIIIA1IIIIIIIIIIIIIIIIIIIIIIIIIIIIIIIIIIIII
IIA1IIAA1IIIIIIIA1IIIIIIIA1IIIIIIIIIIIIIIIIIIIIIIIIIIIIIIIIIIIII
IIA1A1AA1IIIIIIIA1IIIIIIIA1IIIIIIIIIIIIIIIIIIIIIIIIIIIIIIIIIIIII
IIA1A1AA1IIIIIIIA1IIAIIIIA1IIIIIIIIIIIIIIIIIIIIIIIIIIIIIIIIIIIII
IIA1A1AA1I2IIIIIA1IIAIIIIA1IIIIIIIIIIIIIIIIIIIIIIIIIIIIIIIIIIIII
IIA1A1AA122IIIIIA1IIAIIIIA1IIIIIIIIIIIIIIIIIIIIIIIIIIIIIIIIIIIII
IIA1A1AA122IIIIIA1IIAIIIIA1I2IIIIIIIIIIIIIIIIIIIIIIIIIIIIIIIIIII
IIIIIIIIIIIIIIIA1I2IIIIIIIIIIIIIIIIIIIIIIIIIIIIIIIIIIIIIIIIIIIII
IIIIIIIIIIIIIIIIA1I2IIIIIIIIIIIIIIIIIIIIIIIIIIIIIIIIIIIIIIIIIIII
IIA1I2IIIIIIIIIIA1I2IIIIIIIIIIIIIIIIIIIIIIIIIIIIIIIIIIIIIIIIIIII
IIA1A1I2IIIIIIIIA1I2IIIIIIIIIIIIIIIIIIIIIIIIIIIIIIIIIIIIIIIIIIII
IIA1A1A1I2IIIIIIA1I2IIIIIIIIIIIIIIIIIIIIIIIIIIIIIIIIIIIIIIIIIIII
IIA1A1A1I2IIIIIIA1I2IIIIIA1I2IIIIIIIIIIIIIIIIIIIIIIIIIIIIIIIIIII
IIA1A1AA122IIIIIA1I2IIIIIA1I2IIIIIIIIIIIIIIIIIIIIIIIIIIIIIIIIIII
IIA1A1AA122IIIIAA1I2IIIIIA1I2IIIIIIIIIIIIIIIIIIIIIIIIIIIIIIIIIII
IIA1A1AA122IIIIAA1I2AIIIIA1I2IIIIIIIIIIIIIIIIIIIIIIIIIIIIIIIIIII
IIIIIIIIIIIIIIIIAIIIIIIIIIIIIIIIIIIIIIIIIIIIIIIIIIIIIIIIIIIIIIII
IIAIIIIIIIIIIIIIAIIIIIIIIIIIIIIIIIIIIIIIIIIIIIIIIIIIIIIIIIIIIIII
IIAIAIIIIIIIIIIIAIIIIIIIIIIIIIIIIIIIIIIIIIIIIIIIIIIIIIIIIIIIIIII
IIAIAIAIIIIIIIIIAIIIIIIIIIIIIIIIIIIIIIIIIIIIIIIIIIIIIIIIIIIIIIII
IIAIAIAIIIIIIIIIAIIIIIIIIAIIIIIIIIIIIIIIIIIIIIIIIIIIIIIIIIIIIIII
IIAIAIAAIIIIIIIIAIIIIIIIIAIIIIIIIIIIIIIIIIIIIIIIIIIIIIIIIIIIIIII
IIAIAIAAIIIIIIIAAIIIIIIIIAIIIIIIIIIIIIIIIIIIIIIIIIIIIIIIIIIIIIII
IIAIAIAAIIIIIIIAA1IIIIIIIAIIIIIIIIIIIIIIIIIIIIIIIIIIIIIIIIIIIIII
IIA1AIAAIIIIIIIAA1IIIIIIIAIIIIIIIIIIIIIIIIIIIIIIIIIIIIIIIIIIIIII
IIA1A1AAIIIIIIIAA1IIIIIIIAIIIIIIIIIIIIIIIIIIIIIIIIIIIIIIIIIIIIII
IIA1A1AA1IIIIIIAA1IIIIIIIAIIIIIIIIIIIIIIIIIIIIIIIIIIIIIIIIIIIIII
IIA1A1AA1IIIIIIAA1IIIIIIIA1IIIIIIIIIIIIIIIIIIIIIIIIIIIIIIIIIIIII
IIA1A1AA1IIIIIIAA1IIAIIIIA1IIIIIIIIIIIIIIIIIIIIIIIIIIIIIIIIIIIII
IIIIIIIA12IIIIIIIIIIIIIIIIIIIIIIIIIIIIIIIIIIIIIIIIIIIIIIIIIIIIII
IIIIIIAA12IIIIIIIIIIIIIIIIIIIIIIIIIIIIIIIIIIIIIIIIIIIIIIIIIIIIII
IIIIIIAA12IIIIIIIIIIIIIIIA12IIIIIIIIIIIIIIIIIIIIIIIIIIIIIIIIIIII
IIIIIIAA12IIIIIIA12IIIIIIA12IIIIIIIIIIIIIIIIIIIIIIIIIIIIIIIIIIII
IIA12IAA12IIIIIIA12IIIIIIA12IIIIIIIIIIIIIIIIIIIIIIIIIIIIIIIIIIII
IIA1A1AA12IIIIIIA12IIIIIIA12IIIIIIIIIIIIIIIIIIIIIIIIIIIIIIIIIIII
IIA1A1AA12IIIIIIA12IA12IIA12IIIIIIIIIIIIIIIIIIIIIIIIIIIIIIIIIIII
IIA1A1AA12IIIIIIA122A12IIA12IIIIIIIIIIIIIIIIIIIIIIIIIIIIIIIIIIII
IIA1A1AA12IIIIIIA122A12IIA122IIIIIIIIIIIIIIIIIIIIIIIIIIIIIIIIIII
IIA1A1AA122IIIIIA122A12IIA122IIIIIIIIIIIIIIIIIIIIIIIIIIIIIIIIIII
IIIIIIIIIIIIIIIAIIIIIIIIIIIIIIIIIIIIIIIIIIIIIIIIIIIIIIIIIIIIIIII
IIIIIIIIIIIIIIIIAIIIIIIIIIIIIIIIIIIIIIIIIIIIIIIIIIIIIIIIIIIIIIII
IIAIIIIIIIIIIIIIAIIIIIIIIIIIIIIIIIIIIIIIIIIIIIIIIIIIIIIIIIIIIIII
IIAIAIIIIIIIIIIIAIIIIIIIIIIIIIIIIIIIIIIIIIIIIIIIIIIIIIIIIIIIIIII
IIAIAIAIIIIIIIIIAIIIIIIIIIIIIIIIIIIIIIIIIIIIIIIIIIIIIIIIIIIIIIII
IIAIAIAIIIIIIIIIAIIIIIIIIAIIIIIIIIIIIIIIIIIIIIIIIIIIIIIIIIIIIIII
IIAIAIAAIIIIIIIIAIIIIIIIIAIIIIIIIIIIIIIIIIIIIIIIIIIIIIIIIIIIIIII
IIAIAIAAIIIIIIIIAIIIIIIIIA2IIIIIIIIIIIIIIIIIIIIIIIIIIIIIIIIIIIII
IIAIAIAA2IIIIIIIAIIIIIIIIA2IIIIIIIIIIIIIIIIIIIIIIIIIIIIIIIIIIIII
IIAIAIAA2IIIIIIIA2IIIIIIIA2IIIIIIIIIIIIIIIIIIIIIIIIIIIIIIIIIIIII
IIA2AIAA2IIIIIIIA2IIIIIIIA2IIIIIIIIIIIIIIIIIIIIIIIIIIIIIIIIIIIII
IIA2A2AA2IIIIIIIA2IIIIIIIA2IIIIIIIIIIIIIIIIIIIIIIIIIIIIIIIIIIIII
IIA2A2AA2IIIIIIAA2IIIIIIIA2IIIIIIIIIIIIIIIIIIIIIIIIIIIIIIIIIIIII
IIIIIIIA1I2IIIIIIIIIIIIIIIIIIIIIIIIIIIIIIIIIIIIIIIIIIIIIIIIIIIII
IIIIIIAA122IIIIIIIIIIIIIIIIIIIIIIIIIIIIIIIIIIIIIIIIIIIIIIIIIIIII
IIIIIIAA122IIIIIIIIIIIIIIA1I2IIIIIIIIIIIIIIIIIIIIIIIIIIIIIIIIIII
IIIIIIAA122IIIIIA1I2IIIIIA1I2IIIIIIIIIIIIIIIIIIIIIIIIIIIIIIIIIII
IIA1I2AA122IIIIIA1I2IIIIIA1I2IIIIIIIIIIIIIIIIIIIIIIIIIIIIIIIIIII
IIA1A1AA122IIIIIA1I2IIIIIA1I2IIIIIIIIIIIIIIIIIIIIIIIIIIIIIIIIIII
IIA1A1AA122IIIIIA1I2A1I2IA1I2IIIIIIIIIIIIIIIIIIIIIIIIIIIIIIIIIII
IIA1A1AA11222IIIA1I2A1I2IA1I2IIIIIIIIIIIIIIIIIIIIIIIIIIIIIIIIIII
IIA1A1AA11222IIIA1I2A1122A1I2IIIIIIIIIIIIIIIIIIIIIIIIIIIIIIIIIII
IIA1A1AA11222IIIA1I2A1122A11222IIIIIIIIIIIIIIIIIIIIIIIIIIIIIIIII
IIA1A1AA11222IIIA112A1122A11222IIIIIIIIIIIIIIIIIIIIIIIIIIIIIIIII
IIA1A1AA11222IIAA112A1122A11222IIIIIIIIIIIIIIIIIIIIIIIIIIIIIIIII
IIIIIIIIIIIIIIIA1IIIIIIIIIIIIIIIIIIIIIIIIIIIIIIIIIIIIIIIIIIIIIII
IIIIIIIIIIIIIIIAA1IIIIIIIIIIIIIIIIIIIIIIIIIIIIIIIIIIIIIIIIIIIIII
IIA1IIIIIIIIIIIAA1IIIIIIIIIIIIIIIIIIIIIIIIIIIIIIIIIIIIIIIIIIIIII
IIA1A1IIIIIIIIIAA1IIIIIIIIIIIIIIIIIIIIIIIIIIIIIIIIIIIIIIIIIIIIII
IIA1A1A1IIIIIIIAA1IIIIIIIIIIIIIIIIIIIIIIIIIIIIIIIIIIIIIIIIIIIIII
IIA1A1AA1IIIIIIAA1IIIIIIIIIIIIIIIIIIIIIIIIIIIIIIIIIIIIIIIIIIIIII
IIA1A1AA1IIIIIIAA1IIIIIIIAIIIIIIIIIIIIIIIIIIIIIIIIIIIIIIIIIIIIII
IIA1A1AA1IIIIIIAA1IIIIIAIAIIIIIIIIIIIIIIIIIIIIIIIIIIIIIIIIIIIIII
IIA1A1AA1IIIIIIAA1IIAIIAIAIIIIIIIIIIIIIIIIIIIIIIIIIIIIIIIIIIIIII
IIA1A1AA1IIIIIIAA1IIAIIAIA1IIIIIIIIIIIIIIIIIIIIIIIIIIIIIIIIIIIII
IIIIIIIIIIIIIIIIAIIIIIIIIIIIIIIIIIIIIIIIIIIIIIIIIIIIIIIIIIIIIIII
IIAIIIIIIIIIIIIIAIIIIIIIIIIIIIIIIIIIIIIIIIIIIIIIIIIIIIIIIIIIIIII
IIAIAIIIIIIIIIIIAIIIIIIIIIIIIIIIIIIIIIIIIIIIIIIIIIIIIIIIIIIIIIII
IIAIAIAIIIIIIIIIAIIIIIIIIIIIIIIIIIIIIIIIIIIIIIIIIIIIIIIIIIIIIIII
IIAIAIAIIIIIIIIIAIIIIIIIIAIIIIIIIIIIIIIIIIIIIIIIIIIIIIIIIIIIIIII
IIAIAIAAIIIIIIIIAIIIIIIIIAIIIIIIIIIIIIIIIIIIIIIIIIIIIIIIIIIIIIII
IIAIAIAAIIIIIIIAAIIIIIIIIAIIIIIIIIIIIIIIIIIIIIIIIIIIIIIIIIIIIIII
IIAIAIAAIIIIIIIAA1IIIIIIIAIIIIIIIIIIIIIIIIIIIIIIIIIIIIIIIIIIIIII
IIA1AIAAIIIIIIIAA1IIIIIIIAIIIIIIIIIIIIIIIIIIIIIIIIIIIIIIIIIIIIII
IIA1A1AAIIIIIIIAA1IIIIIIIAIIIIIIIIIIIIIIIIIIIIIIIIIIIIIIIIIIIIII
IIA1A1AAIIIIIIIAA1IIIIIIIA1IIIIIIIIIIIIIIIIIIIIIIIIIIIIIIIIIIIII
IIA1A1AA1IIIIIIAA1IIIIIIIA1IIIIIIIIIIIIIIIIIIIIIIIIIIIIIIIIIIIII
IIA1A1AA1IIIIIIAA1IIAIIIIA1IIIIIIIIIIIIIIIIIIIIIIIIIIIIIIIIIIIII
IIIIIIIA1IIIIIIIIIIIIIIIIIIIIIIIIIIIIIIIIIIIIIIIIIIIIIIIIIIIIIII
IIIIIIAA1IIIIIIIIIIIIIIIIIIIIIIIIIIIIIIIIIIIIIIIIIIIIIIIIIIIIIII
IIIIIIAA1IIIIIIIIIIIIIIIIA1IIIIIIIIIIIIIIIIIIIIIIIIIIIIIIIIIIIII
IIIIIIAA1IIIIIIIA1IIIIIIIA1IIIIIIIIIIIIIIIIIIIIIIIIIIIIIIIIIIIII
IIA1IIAA1IIIIIIIA1IIIIIIIA1IIIIIIIIIIIIIIIIIIIIIIIIIIIIIIIIIIIII
IIA1A1AA1IIIIIIIA1IIIIIIIA1IIIIIIIIIIIIIIIIIIIIIIIIIIIIIIIIIIIII
IIA1A1AA1IIIIIIIA1IIA1IIIA1IIIIIIIIIIIIIIIIIIIIIIIIIIIIIIIIIIIII
IIA1A1AA1I2IIIIIA1IIA1IIIA1IIIIIIIIIIIIIIIIIIIIIIIIIIIIIIIIIIIII
IIA1A1AA122IIIIIA1IIA1IIIA1IIIIIIIIIIIIIIIIIIIIIIIIIIIIIIIIIIIII
IIA1A1AA122IIIIIA1IIA1IIIA1I2IIIIIIIIIIIIIIIIIIIIIIIIIIIIIIIIIII
IIIIIIIIIIIIIIIA1I2IIIIIIIIIIIIIIIIIIIIIIIIIIIIIIIIIIIIIIIIIIIII
IIIIIIIIIIIIIIIIA1I2IIIIIIIIIIIIIIIIIIIIIIIIIIIIIIIIIIIIIIIIIIII
IIA1I2IIIIIIIIIIA1I2IIIIIIIIIIIIIIIIIIIIIIIIIIIIIIIIIIIIIIIIIIII
IIA1A1I2IIIIIIIIA1I2IIIIIIIIIIIIIIIIIIIIIIIIIIIIIIIIIIIIIIIIIIII
IIA1A1A1I2IIIIIIA1I2IIIIIIIIIIIIIIIIIIIIIIIIIIIIIIIIIIIIIIIIIIII
IIA1A1A1I2IIIIIIA1I2IIIIIA1I2IIIIIIIIIIIIIIIIIIIIIIIIIIIIIIIIIII
IIA1A1AA122IIIIIA1I2IIIIIA1I2IIIIIIIIIIIIIIIIIIIIIIIIIIIIIIIIIII
IIA1A1AA122IIIIAA1I2IIIIIA1I2IIIIIIIIIIIIIIIIIIIIIIIIIIIIIIIIIII
IIA1A1AA122I2IIAA1I2IIIIIA1I2IIIIIIIIIIIIIIIIIIIIIIIIIIIIIIIIIII
IIA1A1AA12222IIAA1I2IIIIIA1I2IIIIIIIIIIIIIIIIIIIIIIIIIIIIIIIIIII
IIA1A1AA12222IIAA1I2IIIIIA122I2IIIIIIIIIIIIIIIIIIIIIIIIIIIIIIIII
IIA1A1AA12222IIAA122I2IIIA122I2IIIIIIIIIIIIIIIIIIIIIIIIIIIIIIIII
IIA1A1AA12222IIAA122A12IIA122I2IIIIIIIIIIIIIIIIIIIIIIIIIIIIIIIII
IIIIIIIIIIIIIIIA1I2IIIIIIIIIIIIIIIIIIIIIIIIIIIIIIIIIIIIIIIIIIIII
IIIIIIIIIIIIIIIIAIIIIIIIIIIIIIIIIIIIIIIIIIIIIIIIIIIIIIIIIIIIIIII
IIAIIIIIIIIIIIIIAIIIIIIIIIIIIIIIIIIIIIIIIIIIIIIIIIIIIIIIIIIIIIII
IIAIAIIIIIIIIIIIAIIIIIIIIIIIIIIIIIIIIIIIIIIIIIIIIIIIIIIIIIIIIIII
IIAIAIAIIIIIIIIIAIIIIIIIIIIIIIIIIIIIIIIIIIIIIIIIIIIIIIIIIIIIIIII
IIAIAIAIIIIIIIIIAIIIIIIIIAIIIIIIIIIIIIIIIIIIIIIIIIIIIIIIIIIIIIII
IIAIAIAAIIIIIIIIAIIIIIIIIAIIIIIIIIIIIIIIIIIIIIIIIIIIIIIIIIIIIIII
IIAIAIAAIIIIIIIAAIIIIIIIIAIIIIIIIIIIIIIIIIIIIIIIIIIIIIIIIIIIIIII
IIAIAIAA1IIIIIIAAIIIIIIIIAIIIIIIIIIIIIIIIIIIIIIIIIIIIIIIIIIIIIII
IIAIAIAA1IIIIIIAAIIIIIIIIA1IIIIIIIIIIIIIIIIIIIIIIIIIIIIIIIIIIIII
IIAIAIAA1IIIIIIAA1IIIIIIIA1IIIIIIIIIIIIIIIIIIIIIIIIIIIIIIIIIIIII
IIA1AIAA1IIIIIIAA1IIIIIIIA1IIIIIIIIIIIIIIIIIIIIIIIIIIIIIIIIIIIII
IIA1A1AA1IIIIIIAA1IIIIIIIA1IIIIIIIIIIIIIIIIIIIIIIIIIIIIIIIIIIIII
IIA1A1AA1IIIIIIAA1IIA1IIIA1IIIIIIIIIIIIIIIIIIIIIIIIIIIIIIIIIIIII
IIA1A1AA1IIIIIIAA122A1IIIA1IIIIIIIIIIIIIIIIIIIIIIIIIIIIIIIIIIIII
IIA1A1AA122IIIIAA122A1IIIA1IIIIIIIIIIIIIIIIIIIIIIIIIIIIIIIIIIIII
IIA1A1AA122IIIIAA122A1IIIA1I22IIIIIIIIIIIIIIIIIIIIIIIIIIIIIIIIII
IIA1A1AA1222IIIAA122A1IIIA1I22IIIIIIIIIIIIIIIIIIIIIIIIIIIIIIIIII
IIA1A1AA1222IIIAA12AA1IIIA1I22IIIIIIIIIIIIIIIIIIIIIIIIIIIIIIIIII
IIIIIIIIIIIIIIIAIIIIIIIIIIIIIIIIIIIIIIIIIIIIIIIIIIIIIIIIIIIIIIII
IIIIIIIIIIIIIIIIA1IIIIIIIIIIIIIIIIIIIIIIIIIIIIIIIIIIIIIIIIIIIIII
IIA1IIIIIIIIIIIIA1IIIIIIIIIIIIIIIIIIIIIIIIIIIIIIIIIIIIIIIIIIIIII
IIA1A1IIIIIIIIIIA1IIIIIIIIIIIIIIIIIIIIIIIIIIIIIIIIIIIIIIIIIIIIII
IIA1A1A1IIIIIIIIA1IIIIIIIIIIIIIIIIIIIIIIIIIIIIIIIIIIIIIIIIIIIIII
IIA1A1AA1IIIIIIIA1IIIIIIIIIIIIIIIIIIIIIIIIIIIIIIIIIIIIIIIIIIIIII
IIA1A1AA1IIIIIIIA1IIIIIIIA1IIIIIIIIIIIIIIIIIIIIIIIIIIIIIIIIIIIII
IIA1A1AA1IIIIIIIA1IIAIIIIA1IIIIIIIIIIIIIIIIIIIIIIIIIIIIIIIIIIIII
IIA1A1AA1IIIIIIAA1IIAIIIIA1IIIIIIIIIIIIIIIIIIIIIIIIIIIIIIIIIIIII
IIA1A1AA12IIIIIAA1IIAIIIIA1IIIIIIIIIIIIIIIIIIIIIIIIIIIIIIIIIIIII
IIA1A1AA12IIIIIAA1IIAIIIIA12IIIIIIIIIIIIIIIIIIIIIIIIIIIIIIIIIIII
IIA1A1AA12IIIIIAA12IAIIIIA12IIIIIIIIIIIIIIIIIIIIIIIIIIIIIIIIIIII
IIA1A1AA12IIIIIAA12IA12IIA12IIIIIIIIIIIIIIIIIIIIIIIIIIIIIIIIIIII
IIA1A1AA12I2IIIAA12IA12IIA12IIIIIIIIIIIIIIIIIIIIIIIIIIIIIIIIIIII
IIA1A1AA12I2IIIAA12IA12I2A12IIIIIIIIIIIIIIIIIIIIIIIIIIIIIIIIIIII
IIA1A1AA1222IIIAA12IA12I2A12IIIIIIIIIIIIIIIIIIIIIIIIIIIIIIIIIIII
IIA1A1AA1222IIIAA12IA12I2A12I2IIIIIIIIIIIIIIIIIIIIIIIIIIIIIIIIII
IIIIIIIIIIIIIIIA2IIIIIIIIIIIIIIIIIIIIIIIIIIIIIIIIIIIIIIIIIIIIIII
IIIIIIIIIIIIIIIAA1IIIIIIIIIIIIIIIIIIIIIIIIIIIIIIIIIIIIIIIIIIIIII
IIA1IIIIIIIIIIIAA1IIIIIIIIIIIIIIIIIIIIIIIIIIIIIIIIIIIIIIIIIIIIII
IIA1A1IIIIIIIIIAA1IIIIIIIIIIIIIIIIIIIIIIIIIIIIIIIIIIIIIIIIIIIIII
IIA1A1A1IIIIIIIAA1IIIIIIIIIIIIIIIIIIIIIIIIIIIIIIIIIIIIIIIIIIIIII
IIA1A1AA1IIIIIIAA1IIIIIIIIIIIIIIIIIIIIIIIIIIIIIIIIIIIIIIIIIIIIII
IIA1A1AA1IIIIIIAA1IIIIIIIA1IIIIIIIIIIIIIIIIIIIIIIIIIIIIIIIIIIIII
IIA1A1AA1IIIIIIAA1IIAIIIIA1IIIIIIIIIIIIIIIIIIIIIIIIIIIIIIIIIIIII
IIA1A1AA1IIIIIIAA1I2AIIIIA1IIIIIIIIIIIIIIIIIIIIIIIIIIIIIIIIIIIII
IIA1A1AA12IIIIIAA1I2AIIIIA1IIIIIIIIIIIIIIIIIIIIIIIIIIIIIIIIIIIII
IIA1A1AA12IIIIIAA1I2AIIIIA1I2IIIIIIIIIIIIIIIIIIIIIIIIIIIIIIIIIII
IIA1A1AA122IIIIAA1I2AIIIIA1I2IIIIIIIIIIIIIIIIIIIIIIIIIIIIIIIIIII
IIA1A1AA122IIIIAA122AIIIIA1I2IIIIIIIIIIIIIIIIIIIIIIIIIIIIIIIIIII
IIIIIIIA1IIIIIIIIIIIIIIIIIIIIIIIIIIIIIIIIIIIIIIIIIIIIIIIIIIIIIII
IIIIIIAA1IIIIIIIIIIIIIIIIIIIIIIIIIIIIIIIIIIIIIIIIIIIIIIIIIIIIIII
IIIIIIAA1IIIIIIIIIIIIIIIIA1IIIIIIIIIIIIIIIIIIIIIIIIIIIIIIIIIIIII
IIIIIIAA1IIIIIIIA1IIIIIIIA1IIIIIIIIIIIIIIIIIIIIIIIIIIIIIIIIIIIII
IIA1IIAA1IIIIIIIA1IIIIIIIA1IIIIIIIIIIIIIIIIIIIIIIIIIIIIIIIIIIIII
IIA1A1AA1IIIIIIIA1IIIIIIIA1IIIIIIIIIIIIIIIIIIIIIIIIIIIIIIIIIIIII
IIA1A1AA1IIIIIIIA1IIA1IIIA1IIIIIIIIIIIIIIIIIIIIIIIIIIIIIIIIIIIII
IIA1A1AA1IIIIIIAA1IIA1IIIA1IIIIIIIIIIIIIIIIIIIIIIIIIIIIIIIIIIIII
IIA1A1AA1I2IIIIAA1IIA1IIIA1IIIIIIIIIIIIIIIIIIIIIIIIIIIIIIIIIIIII
IIA1A1AA1I2IIIIAA1IIA1IIIA1II2IIIIIIIIIIIIIIIIIIIIIIIIIIIIIIIIII
IIA1A1AA1I22IIIAA1IIA1IIIA1II2IIIIIIIIIIIIIIIIIIIIIIIIIIIIIIIIII
IIA1A1AA1I22IIIAA1I2A1IIIA1II2IIIIIIIIIIIIIIIIIIIIIIIIIIIIIIIIII
IIA1A1AA12222IIAA1I2A1IIIA1II2IIIIIIIIIIIIIIIIIIIIIIIIIIIIIIIIII
IIA1A1AA12222IIAA1I2A1IIIA12I22IIIIIIIIIIIIIIIIIIIIIIIIIIIIIIIII
IIA1A1AA12222IIAA122A1IIIA12I22IIIIIIIIIIIIIIIIIIIIIIIIIIIIIIIII
IIA1A1AA12222IIAA122A12IIA12I22IIIIIIIIIIIIIIIIIIIIIIIIIIIIIIIII
[MLOP] Prefetch Degree Mean: 0.881057
[MLOP] Prefetch Degree SD: 1.05782
[MLOP] Max Score Left Mean (%): 9.74743
[MLOP] Max Score Left SD (%): 4.90243
[MLOP] Max Score Right Mean (%): 37.1306
[MLOP] Max Score Right SD (%): 11.8256

DRAM Statistics
 CHANNEL 0
 RQ ROW_BUFFER_HIT:     111251  ROW_BUFFER_MISS:     332383
 DBUS_CONGESTED:        293
 WQ ROW_BUFFER_HIT:      43971  ROW_BUFFER_MISS:     182199  FULL:          0

 AVG_CONGESTED_CYCLE: 4
 All warmup complete: 2
Channel 0 Bank busy for read cycles: 0
Channel 0 Bank busy for write cycles: 0
Channel 0
Rank 0
0banks busy for read cycles: 386210366
0banks busy for write cycles: 105905
1banks busy for read cycles: 29358351
1banks busy for write cycles: 14841555
2banks busy for read cycles: 6384224
2banks busy for write cycles: 3998264
3banks busy for read cycles: 2093469
3banks busy for write cycles: 1752003
4banks busy for read cycles: 913561
4banks busy for write cycles: 1037460
5banks busy for read cycles: 336750
5banks busy for write cycles: 720192
6banks busy for read cycles: 139127
6banks busy for write cycles: 565999
7banks busy for read cycles: 63763
7banks busy for write cycles: 514697
8banks busy for read cycles: 49719
8banks busy for write cycles: 624503

CPU 0 Branch Prediction Accuracy: 99.8118% MPKI: 0.33607 Average ROB Occupancy at Mispredict: 39.4828
Branch types
NOT_BRANCH: 164293640 82.1468%
BRANCH_DIRECT_JUMP: 1737856 0.868928%
BRANCH_INDIRECT: 9415712 4.70786%
BRANCH_CONDITIONAL: 18256214 9.12811%
BRANCH_DIRECT_CALL: 2474421 1.23721%
BRANCH_INDIRECT_CALL: 673221 0.33661%
BRANCH_RETURN: 3148634 1.57432%
BRANCH_OTHER: 0 0%

DRAM PAGES: 1048576
Allocated PAGES: 6527
