
*** ChampSim Multicore Out-of-Order Simulator ***

Warmup Instructions: 50000000
Simulation Instructions: 200000000
Number of CPUs: 1
LLC sets: 2048
LLC ways: 16
Off-chip DRAM Size: 4096 MB Channels: 1 Width: 64-bit Data Rate: 6400 MT/s
CPU 0 runs traces/spec2k17/srv_57.champsimtrace.xz
.xz
BTB has LRU replacement policy
ITLB has LRU replacement policy
DTLB has LRU replacement policy
STLB has LRU replacement policy
L1I has LRU replacement policy
L1D has LRU replacement policy
Initialize SRRIP state for L2C
Initialize DRRIP state for LLC
Heartbeat CPU 0 instructions: 10000001 cycles: 2837622 heartbeat IPC: 3.52408 cumulative IPC: 3.52408 (Simulation time: 0 hr 0 min 53 sec) 
Heartbeat CPU 0 instructions: 20000001 cycles: 5631168 heartbeat IPC: 3.57968 cumulative IPC: 3.55166 (Simulation time: 0 hr 1 min 38 sec) 
Heartbeat CPU 0 instructions: 30000002 cycles: 8442273 heartbeat IPC: 3.55732 cumulative IPC: 3.55355 (Simulation time: 0 hr 2 min 20 sec) 
*** Reached end of trace for Core: 0 Repeating trace: traces/spec2k17/srv_57.champsimtrace.xz
Heartbeat CPU 0 instructions: 40000002 cycles: 11270765 heartbeat IPC: 3.53545 cumulative IPC: 3.54901 (Simulation time: 0 hr 3 min 5 sec) 
Heartbeat CPU 0 instructions: 50000002 cycles: 14054799 heartbeat IPC: 3.59191 cumulative IPC: 3.5575 (Simulation time: 0 hr 4 min 1 sec) 

Warmup complete CPU 0 instructions: 50000002 cycles: 14054799 (Simulation time: 0 hr 4 min 1 sec) 

Heartbeat CPU 0 instructions: 60000001 cycles: 31076800 heartbeat IPC: 0.587475 cumulative IPC: 0.587475 (Simulation time: 0 hr 4 min 51 sec) 
*** Reached end of trace for Core: 0 Repeating trace: traces/spec2k17/srv_57.champsimtrace.xz
Heartbeat CPU 0 instructions: 70000000 cycles: 48044143 heartbeat IPC: 0.589367 cumulative IPC: 0.58842 (Simulation time: 0 hr 5 min 43 sec) 
Heartbeat CPU 0 instructions: 80000001 cycles: 65366343 heartbeat IPC: 0.577294 cumulative IPC: 0.584664 (Simulation time: 0 hr 6 min 37 sec) 
Heartbeat CPU 0 instructions: 90000000 cycles: 82336995 heartbeat IPC: 0.589252 cumulative IPC: 0.585804 (Simulation time: 0 hr 7 min 43 sec) 
*** Reached end of trace for Core: 0 Repeating trace: traces/spec2k17/srv_57.champsimtrace.xz
Heartbeat CPU 0 instructions: 100000002 cycles: 98851413 heartbeat IPC: 0.605532 cumulative IPC: 0.589646 (Simulation time: 0 hr 8 min 33 sec) 
Heartbeat CPU 0 instructions: 110000000 cycles: 116471177 heartbeat IPC: 0.567544 cumulative IPC: 0.585844 (Simulation time: 0 hr 9 min 25 sec) 
Heartbeat CPU 0 instructions: 120000003 cycles: 133501602 heartbeat IPC: 0.587185 cumulative IPC: 0.586035 (Simulation time: 0 hr 10 min 21 sec) 
*** Reached end of trace for Core: 0 Repeating trace: traces/spec2k17/srv_57.champsimtrace.xz
Heartbeat CPU 0 instructions: 130000003 cycles: 150167157 heartbeat IPC: 0.60004 cumulative IPC: 0.58775 (Simulation time: 0 hr 11 min 21 sec) 
Heartbeat CPU 0 instructions: 140000000 cycles: 167569450 heartbeat IPC: 0.574637 cumulative IPC: 0.586263 (Simulation time: 0 hr 12 min 14 sec) 
Heartbeat CPU 0 instructions: 150000000 cycles: 184526296 heartbeat IPC: 0.589732 cumulative IPC: 0.586608 (Simulation time: 0 hr 13 min 5 sec) 
*** Reached end of trace for Core: 0 Repeating trace: traces/spec2k17/srv_57.champsimtrace.xz
Heartbeat CPU 0 instructions: 160000001 cycles: 201495958 heartbeat IPC: 0.589287 cumulative IPC: 0.586851 (Simulation time: 0 hr 14 min 0 sec) 
Heartbeat CPU 0 instructions: 170000000 cycles: 218616065 heartbeat IPC: 0.584108 cumulative IPC: 0.586621 (Simulation time: 0 hr 14 min 54 sec) 
Heartbeat CPU 0 instructions: 180000000 cycles: 235579488 heartbeat IPC: 0.589504 cumulative IPC: 0.586842 (Simulation time: 0 hr 15 min 48 sec) 
*** Reached end of trace for Core: 0 Repeating trace: traces/spec2k17/srv_57.champsimtrace.xz
Heartbeat CPU 0 instructions: 190000002 cycles: 252692055 heartbeat IPC: 0.584366 cumulative IPC: 0.586664 (Simulation time: 0 hr 16 min 39 sec) 
Heartbeat CPU 0 instructions: 200000000 cycles: 269737583 heartbeat IPC: 0.586664 cumulative IPC: 0.586664 (Simulation time: 0 hr 17 min 29 sec) 
Heartbeat CPU 0 instructions: 210000001 cycles: 286609179 heartbeat IPC: 0.592712 cumulative IPC: 0.587039 (Simulation time: 0 hr 18 min 29 sec) 
*** Reached end of trace for Core: 0 Repeating trace: traces/spec2k17/srv_57.champsimtrace.xz
Heartbeat CPU 0 instructions: 220000000 cycles: 303879354 heartbeat IPC: 0.579033 cumulative IPC: 0.586562 (Simulation time: 0 hr 19 min 20 sec) 
Heartbeat CPU 0 instructions: 230000002 cycles: 320845121 heartbeat IPC: 0.589422 cumulative IPC: 0.58672 (Simulation time: 0 hr 20 min 10 sec) 
Heartbeat CPU 0 instructions: 240000002 cycles: 337346812 heartbeat IPC: 0.605999 cumulative IPC: 0.587704 (Simulation time: 0 hr 21 min 4 sec) 
*** Reached end of trace for Core: 0 Repeating trace: traces/spec2k17/srv_57.champsimtrace.xz
Heartbeat CPU 0 instructions: 250000000 cycles: 354932559 heartbeat IPC: 0.568642 cumulative IPC: 0.586721 (Simulation time: 0 hr 21 min 55 sec) 
Finished CPU 0 instructions: 200000002 cycles: 340877761 cumulative IPC: 0.586721 (Simulation time: 0 hr 21 min 55 sec) 

ChampSim completed all CPUs

Region of Interest Statistics

CPU 0 cumulative IPC: 0.586721 instructions: 200000002 cycles: 340877761
ITLB TOTAL     ACCESS:   34744329  HIT:   33906156  MISS:     838173  HIT %:    97.5876  MISS %:     2.4124   MPKI: 4.19086
ITLB LOAD TRANSLATION ACCESS:   34744329  HIT:   33906156  MISS:     838173  HIT %:    97.5876  MISS %:     2.4124   MPKI: 4.19086
ITLB PREFETCH  REQUESTED:          0  ISSUED:          0  USEFUL:          0  USELESS:          0
ITLB USEFUL LOAD PREFETCHES:          0 PREFETCH ISSUED TO LOWER LEVEL:          0  ACCURACY: -nan
ITLB TIMELY PREFETCHES:          0 LATE PREFETCHES: 0 DROPPED PREFETCHES: 0
ITLB PREFETCHES SAME FILL-ORIGIN LEVEL: 0 DIFFERENT FILL-ORIGIN LEVEL: 0
ITLB AVERAGE MISS LATENCY: 9.62884 cycles
ITLB RQ	ACCESS:   39594151	FORWARD:          0	MERGED:    4556355	TO_CACHE:   35037796

DTLB TOTAL     ACCESS:   40535216  HIT:   39595430  MISS:     939786  HIT %:    97.6816  MISS %:    2.31844   MPKI: 4.69893
DTLB LOAD TRANSLATION ACCESS:   40535216  HIT:   39595430  MISS:     939786  HIT %:    97.6816  MISS %:    2.31844   MPKI: 4.69893
DTLB PREFETCH  REQUESTED:          0  ISSUED:          0  USEFUL:          0  USELESS:          0
DTLB USEFUL LOAD PREFETCHES:          0 PREFETCH ISSUED TO LOWER LEVEL:          0  ACCURACY: -nan
DTLB TIMELY PREFETCHES:          0 LATE PREFETCHES: 0 DROPPED PREFETCHES: 0
DTLB PREFETCHES SAME FILL-ORIGIN LEVEL: 0 DIFFERENT FILL-ORIGIN LEVEL: 0
DTLB AVERAGE MISS LATENCY: 19.8121 cycles
DTLB RQ	ACCESS:   55799893	FORWARD:          0	MERGED:   15209675	TO_CACHE:   40590218

STLB TOTAL     ACCESS:    2093782  HIT:    2020292  MISS:      73490  HIT %:    96.4901  MISS %:    3.50992   MPKI: 0.36745
STLB LOAD TRANSLATION ACCESS:    1777959  HIT:    1704470  MISS:      73489  HIT %:    95.8667  MISS %:    4.13333   MPKI: 0.367445
STLB TRANSLATION FROM L1D PREFETCHER ACCESS:     315823  HIT:     315822  MISS:          1  HIT %:    99.9997  MISS %: 0.000316633   MPKI: 5e-06
STLB PREFETCH  REQUESTED:          0  ISSUED:          0  USEFUL:          1  USELESS:          0
STLB USEFUL LOAD PREFETCHES:          1 PREFETCH ISSUED TO LOWER LEVEL:          0  ACCURACY: inf
STLB TIMELY PREFETCHES:          1 LATE PREFETCHES: 0 DROPPED PREFETCHES: 0
STLB PREFETCHES SAME FILL-ORIGIN LEVEL: 0 DIFFERENT FILL-ORIGIN LEVEL: 0
STLB AVERAGE MISS LATENCY: 145.363 cycles
STLB RQ	ACCESS:    2892683	FORWARD:          0	MERGED:     798901	TO_CACHE:    2093782

STLB Hit, L1D data hit: 0
STLB Hit, L2C data hit: 0
STLB Hit, LLC data hit: 0
STLB Hit, LLC data miss: 0
STLB STLB hints to L2: 0
L1D TOTAL     ACCESS:   55992750  HIT:   53938333  MISS:    2054417  HIT %:    96.3309  MISS %:    3.66908   MPKI: 10.2721
L1D LOAD      ACCESS:   33596831  HIT:   32628006  MISS:     968825  HIT %:    97.1163  MISS %:    2.88368   MPKI: 4.84412
L1D RFO       ACCESS:   21639095  HIT:   21292744  MISS:     346351  HIT %:    98.3994  MISS %:    1.60058   MPKI: 1.73175
L1D PREFETCH  ACCESS:     756824  HIT:      17583  MISS:     739241  HIT %:    2.32326  MISS %:    97.6767   MPKI: 3.6962
AGUS PREFETCH L1 MISS: 0
L1D PREFETCH  REQUESTED:    2232347  ISSUED:    2232347  USEFUL:     105262  USELESS:     634323
L1D USEFUL LOAD PREFETCHES:     105262 PREFETCH ISSUED TO LOWER LEVEL:    1075088  ACCURACY: 9.79101
L1D TIMELY PREFETCHES:     105262 LATE PREFETCHES: 15889 DROPPED PREFETCHES: 0
L1D PREFETCHES SAME FILL-ORIGIN LEVEL: 756126 DIFFERENT FILL-ORIGIN LEVEL: 318962
L1D AVERAGE MISS LATENCY: 1.557e+06 cycles
L1D RQ	ACCESS:   48186604	FORWARD:          0	MERGED:   14272727	TO_CACHE:   33637158
L1D WQ	ACCESS:   22465122	FORWARD:     276841	MERGED:     302387	TO_CACHE:   22162735
L1D PQ	ACCESS:    1117623	FORWARD:          0	MERGED:       2777	TO_CACHE:    1114724

L1D UNIQUE REGIONS ACCESSED: 0
L1D REGIONS CONFLICTS: 0
L1D Cross Page Prefetch Requests: 0
L1D Same Page Prefetch Requests: 1397989
L1D ROI Sum of L1D PQ occupancy: 15802920
L1D PREFETCHES PUSHED FROM L2C: 0
L1I TOTAL     ACCESS:   39121079  HIT:   36596061  MISS:    2525018  HIT %:    93.5456  MISS %:    6.45437   MPKI: 12.6251
L1I LOAD      ACCESS:   39121079  HIT:   36596061  MISS:    2525018  HIT %:    93.5456  MISS %:    6.45437   MPKI: 12.6251
L1I PREFETCH  REQUESTED:          0  ISSUED:          0  USEFUL:          0  USELESS:          0
L1I USEFUL LOAD PREFETCHES:          0 PREFETCH ISSUED TO LOWER LEVEL:          0  ACCURACY: -nan
L1I TIMELY PREFETCHES:          0 LATE PREFETCHES: 0 DROPPED PREFETCHES: 0
L1I PREFETCHES SAME FILL-ORIGIN LEVEL: 0 DIFFERENT FILL-ORIGIN LEVEL: 0
L1I AVERAGE MISS LATENCY: 20.4863 cycles
L1I RQ	ACCESS:   62218974	FORWARD:          0	MERGED:   22624823	TO_CACHE:   39594151

BTB TOTAL     ACCESS:   32784881  HIT:   29386582  MISS:    3398299  HIT %:    89.6346  MISS %:    10.3654   MPKI: 16.9915
BTB BRANCH_DIRECT_JUMP	ACCESS:    3353840  HIT:    3191984  MISS:     161856
BTB BRANCH_INDIRECT	ACCESS:   13231468  HIT:   11990093  MISS:    1241375
BTB BRANCH_CONDITIONAL	ACCESS:    8791342  HIT:    8583888  MISS:     207454
BTB BRANCH_DIRECT_CALL	ACCESS:    2800344  HIT:    2510637  MISS:     289707
BTB BRANCH_INDIRECT_CALL	ACCESS:     903748  HIT:     779612  MISS:     124136
BTB BRANCH_RETURN	ACCESS:    3704139  HIT:    2330368  MISS:    1373771
BTB BRANCH_OTHER ACCESS:          0  HIT:          0  MISS:          0

L2C TOTAL     ACCESS:    5633668  HIT:    4025712  MISS:    1607956  HIT %:    71.4581  MISS %:    28.5419   MPKI: 8.03978
L2C LOAD      ACCESS:    3477927  HIT:    2805879  MISS:     672048  HIT %:    80.6768  MISS %:    19.3232   MPKI: 3.36024
L2C DATA LOAD MPKI: 1.26031
L2C INSTRUCTION LOAD MPKI: 2.09992
L2C RFO       ACCESS:     345354  HIT:     252180  MISS:      93174  HIT %:    73.0207  MISS %:    26.9793   MPKI: 0.46587
L2C PREFETCH  ACCESS:    1067645  HIT:     297686  MISS:     769959  HIT %:    27.8825  MISS %:    72.1175   MPKI: 3.84979
AGUS PREFETCH L1 MISS: 0
L2C DATA PREFETCH MPKI: 3.84979
L2C INSTRUCTION PREFETCH MPKI: 0
L2C WRITEBACK ACCESS:     603654  HIT:     590032  MISS:      13622  HIT %:    97.7434  MISS %:    2.25659   MPKI: 0.06811
L2C LOAD TRANSLATION ACCESS:     139087  HIT:      79934  MISS:      59153  HIT %:    57.4705  MISS %:    42.5295   MPKI: 0.295765
L2C TRANSLATION FROM L1D PREFETCHER ACCESS:          1  HIT:          1  MISS:          0  HIT %:        100  MISS %:          0   MPKI: 0
L2C PREFETCH  REQUESTED:          0  ISSUED:          0  USEFUL:      31207  USELESS:     741131
L2C USEFUL LOAD PREFETCHES:      31207 PREFETCH ISSUED TO LOWER LEVEL:     771779  ACCURACY: 4.04352
L2C TIMELY PREFETCHES:      31207 LATE PREFETCHES: 1820 DROPPED PREFETCHES: 0
L2C PREFETCHES SAME FILL-ORIGIN LEVEL: 222957 DIFFERENT FILL-ORIGIN LEVEL: 0
L2C AVERAGE MISS LATENCY: 87.4556 cycles
L2C RQ	ACCESS:    3962397	FORWARD:          0	MERGED:          0	TO_CACHE:    3962369
L2C WQ	ACCESS:     603654	FORWARD:         28	MERGED:          0	TO_CACHE:     603654
L2C PQ	ACCESS:    1075088	FORWARD:          0	MERGED:         42	TO_CACHE:    1075046

L2C Instructions Evicting Data 200562
L2C Translations Evicting Data 50343
L2C Data Evicting Data 871832
L2C Instructions Evicting Instructions 212594
L2C Translations Evicting Instructions 5300
L2C Data Evicting Instructions 194319
L2C Instructions Evicting Translations 6829
L2C Translations Evicting Translations 3510
L2C Data Evicting Translations 49045
L2C Dense regions hint from L2: 0
PSCL5 TOTAL     ACCESS:      73490  HIT:      73490  MISS:          0  HIT %:        100  MISS %:          0   MPKI: 0
PSCL5 LOAD TRANSLATION ACCESS:      73489  HIT:      73489  MISS:          0  HIT %:        100  MISS %:          0   MPKI: 0
PSCL5 TRANSLATION FROM L1D PREFETCHER ACCESS:          1  HIT:          1  MISS:          0  HIT %:        100  MISS %:          0   MPKI: 0
PSCL5 PREFETCH  REQUESTED:          0  ISSUED:          0  USEFUL:          0  USELESS:          0
PSCL5 USEFUL LOAD PREFETCHES:          0 PREFETCH ISSUED TO LOWER LEVEL:          0  ACCURACY: -nan
PSCL5 TIMELY PREFETCHES:          0 LATE PREFETCHES: 0 DROPPED PREFETCHES: 0
PSCL5 PREFETCHES SAME FILL-ORIGIN LEVEL: 0 DIFFERENT FILL-ORIGIN LEVEL: 0

PSCL4 TOTAL     ACCESS:      72752  HIT:      72625  MISS:        127  HIT %:    99.8254  MISS %:   0.174566   MPKI: 0.000635
PSCL4 LOAD TRANSLATION ACCESS:      72751  HIT:      72624  MISS:        127  HIT %:    99.8254  MISS %:   0.174568   MPKI: 0.000635
PSCL4 TRANSLATION FROM L1D PREFETCHER ACCESS:          1  HIT:          1  MISS:          0  HIT %:        100  MISS %:          0   MPKI: 0
PSCL4 PREFETCH  REQUESTED:          0  ISSUED:          0  USEFUL:          0  USELESS:          0
PSCL4 USEFUL LOAD PREFETCHES:          0 PREFETCH ISSUED TO LOWER LEVEL:          0  ACCURACY: -nan
PSCL4 TIMELY PREFETCHES:          0 LATE PREFETCHES: 0 DROPPED PREFETCHES: 0
PSCL4 PREFETCHES SAME FILL-ORIGIN LEVEL: 0 DIFFERENT FILL-ORIGIN LEVEL: 0

PSCL3 TOTAL     ACCESS:      71672  HIT:      51122  MISS:      20550  HIT %:    71.3277  MISS %:    28.6723   MPKI: 0.10275
PSCL3 LOAD TRANSLATION ACCESS:      71671  HIT:      51121  MISS:      20550  HIT %:    71.3273  MISS %:    28.6727   MPKI: 0.10275
PSCL3 TRANSLATION FROM L1D PREFETCHER ACCESS:          1  HIT:          1  MISS:          0  HIT %:        100  MISS %:          0   MPKI: 0
PSCL3 PREFETCH  REQUESTED:          0  ISSUED:          0  USEFUL:          0  USELESS:          0
PSCL3 USEFUL LOAD PREFETCHES:          0 PREFETCH ISSUED TO LOWER LEVEL:          0  ACCURACY: -nan
PSCL3 TIMELY PREFETCHES:          0 LATE PREFETCHES: 0 DROPPED PREFETCHES: 0
PSCL3 PREFETCHES SAME FILL-ORIGIN LEVEL: 0 DIFFERENT FILL-ORIGIN LEVEL: 0

PSCL2 TOTAL     ACCESS:      73490  HIT:      28569  MISS:      44921  HIT %:    38.8747  MISS %:    61.1253   MPKI: 0.224605
PSCL2 LOAD TRANSLATION ACCESS:      73489  HIT:      28568  MISS:      44921  HIT %:    38.8738  MISS %:    61.1262   MPKI: 0.224605
PSCL2 TRANSLATION FROM L1D PREFETCHER ACCESS:          1  HIT:          1  MISS:          0  HIT %:        100  MISS %:          0   MPKI: 0
PSCL2 PREFETCH  REQUESTED:          0  ISSUED:          0  USEFUL:          0  USELESS:          0
PSCL2 USEFUL LOAD PREFETCHES:          0 PREFETCH ISSUED TO LOWER LEVEL:          0  ACCURACY: -nan
PSCL2 TIMELY PREFETCHES:          0 LATE PREFETCHES: 0 DROPPED PREFETCHES: 0
PSCL2 PREFETCHES SAME FILL-ORIGIN LEVEL: 0 DIFFERENT FILL-ORIGIN LEVEL: 0

LLC TOTAL     ACCESS:    1777034  HIT:    1112920  MISS:     664114  HIT %:     62.628  MISS %:     37.372   MPKI: 3.32057
LLC LOAD      ACCESS:     670454  HIT:     523976  MISS:     146478  HIT %:    78.1524  MISS %:    21.8476   MPKI: 0.73239
LLC RFO       ACCESS:      92948  HIT:      48240  MISS:      44708  HIT %:       51.9  MISS %:       48.1   MPKI: 0.22354
LLC PREFETCH  ACCESS:     771778  HIT:     338539  MISS:     433239  HIT %:    43.8648  MISS %:    56.1352   MPKI: 2.16619
AGUS PREFETCH L1 MISS: 0
LLC WRITEBACK ACCESS:     182701  HIT:     177937  MISS:       4764  HIT %:    97.3925  MISS %:    2.60754   MPKI: 0.02382
LLC LOAD TRANSLATION ACCESS:      59153  HIT:      24228  MISS:      34925  HIT %:    40.9582  MISS %:    59.0418   MPKI: 0.174625
LLC PREFETCH  REQUESTED:          0  ISSUED:          0  USEFUL:       8197  USELESS:     427822
LLC USEFUL LOAD PREFETCHES:       8197 PREFETCH ISSUED TO LOWER LEVEL:     433239  ACCURACY: 1.89203
LLC TIMELY PREFETCHES:       8197 LATE PREFETCHES: 0 DROPPED PREFETCHES: 0
LLC PREFETCHES SAME FILL-ORIGIN LEVEL: 0 DIFFERENT FILL-ORIGIN LEVEL: 0
LLC AVERAGE MISS LATENCY: 139.827 cycles
LLC RQ	ACCESS:     822555	FORWARD:          0	MERGED:          0	TO_CACHE:     822555
LLC WQ	ACCESS:     182701	FORWARD:          1	MERGED:          0	TO_CACHE:     182701
LLC PQ	ACCESS:     771779	FORWARD:          0	MERGED:          0	TO_CACHE:     771778

LLC Dense regions hint to LLC: 0

RAW hits: 2596686
Loads Generated: 50783293
Loads sent to L1D: 48186604
Stores Generated: 22465114
Stores sent to L1D: 22465122
Major fault: 0 Minor fault: 8932
Allocated PAGES: 8932
=== CPU 0 L1D Prefetcher Statistics ===
[MLOP] History of tracked zone:
IIIIIIIIIIIIIIIIIIIIIIIIIIIIIIIIIIIIIIIIIIIIIIIIIIIIIIIIIIIIIIII
IIIIIIIIIIIIIIIIIIIIIIIIIIIIIIIIIIIIIIIIIIIIIIIIAIIIIIIIIIIIIIII
IIIIIIIIIIIIIIIIIIIIIIIIIIIIIIIIIIIIIIIIIIIIIIIIA1IIIIIIIIIIIIII
IIIIIIIIIIIIIIIIIIIIIIIIIIIIIIIIIIIIIIIIIIIIIIIIA11I1IIIIIIIIIII
IIIIIIIIIIIIIIIIIIIIIIIIIIIIIIIIIIIIIIIIIIIIIIIIA11I1111I2IIIIII
IIIIIIIIIIIIIIIIIIIIIIIIIIIIIIIIIIIIIIIIIIIIIIIIA11I1111I2I222II
IIIIIIIIIIIIIIIIIIIIIIIIIIIIIIIIIIIIIIIIIIIIIIIIA1IIIIIIIIIIIIII
IIIIIIIIIIIIIIIIIIIIIIIIIIIIIIIIIIIIIIIIIIIIIIIIA111111IIIIIIIII
IIIIIIIIIIIIIIIIIIIIIIIIIIIIIIIIIIIIIIIIIIIIIIIIA1111111I11IIIII
IIIIIIIIIIIIIIIIIIIIIIIIIIIIIIIIIIIIIIIIIIIIIIIIA11111111111II1I
IIIIIIIIIIIIIIIIIIIIIIIIIIIIIIIIIIIIIIIIIIIIIIIIA11111111111I21I
IIIIIIIIIIIIIIIIIIIIIIIIIIIIIIIIIIIIIIIIIIIIIIIIA111111111112212
IIIIIIIIIIIIIIIIIIIIIIIIIIIIIIIIIIIIIIIIIIIIIIIIA111IIIIIIIIIIII
IIIIIIIIIIIIIIIIIIIIIIIIIIIIIIIIIIIIIIIIIIIIIIIIA11111IIIIIIIIII
IIIIIIIIIIIIIIIIIIIIIIIIIIIIIIIIIIIIIIIIIIIIIIIIA1111111IIIIIIII
IIIIIIIIIIIIIIIIIIIIIIIIIIIIIIIIIIIIIIIIIIIIIIIIA11111111I1I2222
IIIIIIIIIIIIIIIIIIIIIIIIIIIIIIIIIIIIIIIIIIIIIIIIA111111111112222
IIIIIIIIIIIIIIIIIIIIIIIIIIIIIIIIIIIIIIIIIIIIIIIIA1IIIIIIIIIIIIII
IIIIIIIIIIIIIIIIIIIIIIIIIIIIIIIIIIIIIIIIIIIIIIIIA11IIIIIIIIIIIII
IIIIIIIIIIIIIIIIIIIIIIIIIIIIIIIIIIIIIIIIIIIIIIIIA11111IIIIIIIIII
IIIIIIIIIIIIIIIIIIIIIIIIIIIIIIIIIIIIIIIIIIIIIIIIA11111112I2IIIII
IIIIIIIIIIIIIIIIIIIIIIIIIIIIIIIIIIIIIIIIIIIIIIIIA1111111111IIIII
IIIIIIIIIIIIIIIIIIIIIIIIIIIIIIIIIIIIIIIIIIIIIIIIA111111111111I1I
IIIIIIIIIIIIIIIIIIIIIIIIIIIIIIIIIIIIIIIIIIIIIIIIA11111111111121I
IIIIIIIIIIIIIIIIIIIIIIIIIIIIIIIIIIIIIIIIIIIIIIIIA111111111111212
IIIIIIIIIIIIIIIIIIIIIIIIIIIIIIIIIIIIIIIIIIIIIII2A111111111111212
IIIIIIIIIIIIIIIIIIIIIIIIIIIIIIIIIIIIIIIIIIIIIIIIA1111111111IIIII
IIIIIIIIIIIIIIIIIIIIIIIIIIIIIIIIIIIIIIIIIIIIIII2A1111111111IIIII
IIIIIIIIIIIIIIIIIIIIIIIIIIIIIIIIIIIIIIIIIIIIIII2A111111111122II2
IIIIIIIIIIIIIIIIIIIIIIIIIIIIIIIIIIIIIIIIIIIIIII2A111111111122I22
IIIIIIIIIIIIIIIIIIIIIIIIIIIIIIIIIIIIIIIIIIIIIII1A111111111122I22
IIIIIIIIIIIIIIIIIIIIIIIIIIIIIIIIIIIIIIIIIIIIIIIIA11111112I2IIIII
IIIIIIIIIIIIIIIIIIIIIIIIIIIIIIIIIIIIIIIIIIIIIII2A11111112I2IIIII
IIIIIIIIIIIIIIIIIIIIIIIIIIIIIIIIIIIIIIIIIIIIIII2A11111112I11II2I
IIIIIIIIIIIIIIIIIIIIIIIIIIIIIIIIIIIIIIIIIIIIIII2A11111112211I22I
IIIIIIIIIIIIIIIIIIIIIIIIIIIIIIIIIIIIIIIIIIIIIII2A11111112211222I
IIIIIIIIIIIIIIIIIIIIIIIIIIIIIIIIIIIIIIIIIIIIIII2A111111112112222
IIIIIIIIIIIIIIIIIIIIIIIIIIIIIIIIIIIIIIIIIIIIIIIIA1111111111IIIII
IIIIIIIIIIIIIIIIIIIIIIIIIIIIIIIIIIIIIIIIIIIIIIIIA11111111112III2
IIIIIIIIIIIIIIIIIIIIIIIIIIIIIIIIIIIIIIIIIIIIIIIIA111111111122I22
IIIIIIIIIIIIIIIIIIIIIIIIIIIIIIIIIIIIIIIIIIIIIII2A111111111122I22
IIIIIIIIIIIIIIIIIIIIIIIIIIIIIIIIIIIIIIIIIIIIIII2A111111111112222
IIIIIIIIIIIIIIIIIIIIIIIIIIIIIIIIIIIIIIIIIIIIIII1A111111111112222
IIIIIIIIIIIIIIIIIIIIIIIIIIIIIIIIIIIIIIIIIIIIIIIIA1I1I12222IIIIII
IIIIIIIIIIIIIIIIIIIIIIIIIIIIIIIIIIIIIIIIIIIIIIIIA1I1112212I1II1I
IIIIIIIIIIIIIIIIIIIIIIIIIIIIIIIIIIIIIIIIIIIIIIIIA1I1112111112212
IIIIIIIIIIIIIIIIIIIIIIIIIIIIIIIIIIIIIIIIIIIIIIIIA1111111111IIIII
IIIIIIIIIIIIIIIIIIIIIIIIIIIIIIIIIIIIIIIIIIIIIIIIA11111111111II22
IIIIIIIIIIIIIIIIIIIIIIIIIIIIIIIIIIIIIIIIIIIIIIIIA11111111111I222
IIIIIIIIIIIIIIIIIIIIIIIIIIIIIIIIIIIIIIIIIIIIIIIIA1I1I112222IIIII
IIIIIIIIIIIIIIIIIIIIIIIIIIIIIIIIIIIIIIIIIIIIIII2A1I1I112222IIIII
IIIIIIIIIIIIIIIIIIIIIIIIIIIIIIIIIIIIIIIIIIIIIII2A1I111112222II2I
IIIIIIIIIIIIIIIIIIIIIIIIIIIIIIIIIIIIIIIIIIIIIII2A11111112222I22I
IIIIIIIIIIIIIIIIIIIIIIIIIIIIIIIIIIIIIIIIIIIIIII2A111111122111222
IIIIIIIIIIIIIIIIIIIIIIIIIIIIIIIIIIIIIIIIIIIIIII2A111111112111222
IIIIIIIIIIIIIIIIIIIIIIIIIIIIIIIIIIIIIIIIIIIIIIIIA2IIIIIIIIIIIIII
IIIIIIIIIIIIIIIIIIIIIIIIIIIIIIIIIIIIIIIIIIIIIIIIA2I1I1III1II1I22
IIIIIIIIIIIIIIIIIIIIIIIIIIIIIIIIIIIIIIIIIIIIIIIIA1I1I1III1II1I22
IIIIIIIIIIIIIIIIIIIIIIIIIIIIIIIIIIIIIIIIIIIIIIIIA1I1I1I1I1I21222
IIIIIIIIIIIIIIIIIIIIIIIIIIIIIIIIIIIIIIIIIIIIIIIIA1I111I1I1I21222
IIIIIIIIIIIIIIIIIIIIIIIIIIIIIIIIIIIIIIIIIIIIIIIIA11111I121I21222
IIIIIIIIIIIIIIIIIIIIIIIIIIIIIIIIIIIIIIIIIIIIIIIIA11111I121221222
IIIIIIIIIIIIIIIIIIIIIIIIIIIIIIIIIIIIIIIIIIIIIIIIA1I1111222IIIIII
IIIIIIIIIIIIIIIIIIIIIIIIIIIIIIIIIIIIIIIIIIIIIIIIA1I11112222IIIII
IIIIIIIIIIIIIIIIIIIIIIIIIIIIIIIIIIIIIIIIIIIIIIIIA11111121221II2I
IIIIIIIIIIIIIIIIIIIIIIIIIIIIIIIIIIIIIIIIIIIIIIIIA111111111112I22
IIIIIIIIIIIIIIIIIIIIIIIIIIIIIIIIIIIIIIIIIIIIIIIIA111111111112222
IIIIIIIIIIIIIIIIIIIIIIIIIIIIIIIIIIIIIIIIIIIIIIIIA1IIIIIIIIIIIIII
IIIIIIIIIIIIIIIIIIIIIIIIIIIIIIIIIIIIIIIIIIIIIIIIA112IIIIIIIIIIII
IIIIIIIIIIIIIIIIIIIIIIIIIIIIIIIIIIIIIIIIIIIIIIIIA11211II1I1I1III
IIIIIIIIIIIIIIIIIIIIIIIIIIIIIIIIIIIIIIIIIIIIIIIIA11111I1121212I2
IIIIIIIIIIIIIIIIIIIIIIIIIIIIIIIIIIIIIIIIIIIIIIIIA11111I112121222
IIIIIIIIIIIIIIIIIIIIIIIIIIIIIIIIIIIIIIIIIIIIIIIIA1I1I111122IIIII
IIIIIIIIIIIIIIIIIIIIIIIIIIIIIIIIIIIIIIIIIIIIIII2A1I1I111122IIIII
IIIIIIIIIIIIIIIIIIIIIIIIIIIIIIIIIIIIIIIIIIIIIII2A1I111111222II2I
IIIIIIIIIIIIIIIIIIIIIIIIIIIIIIIIIIIIIIIIIIIIIII2A11111111222II2I
IIIIIIIIIIIIIIIIIIIIIIIIIIIIIIIIIIIIIIIIIIIIIII2A111111111122I22
IIIIIIIIIIIIIIIIIIIIIIIIIIIIIIIIIIIIIIIIIIIIIIIIA122IIIIIIIIIIII
IIIIIIIIIIIIIIIIIIIIIIIIIIIIIIIIIIIIIIIIIIIIIIIIA122I2I2I2IIIIII
IIIIIIIIIIIIIIIIIIIIIIIIIIIIIIIIIIIIIIIIIIIIIIIIA11222I222IIIIII
IIIIIIIIIIIIIIIIIIIIIIIIIIIIIIIIIIIIIIIIIIIIIIIIA11212I12211I2I2
IIIIIIIIIIIIIIIIIIIIIIIIIIIIIIIIIIIIIIIIIIIIIIIIA11111I122112222
IIIIIIIIIIIIIIIIIIIIIIIIIIIIIIIIIIIIIIIIIIIIIII2A11111I122112222
IIIIIIIIIIIIIIIIIIIIIIIIIIIIIIIIIIIIIIIIIIIIIII2A11111I112112222
IIIIIIIIIIIIIIIIIIIIIIIIIIIIIIIIIIIIIIIIIIIIIII1AIIIIIIIIIIIIIII
IIIIIIIIIIIIIIIIIIIIIIIIIIIIIIIIIIIIIIIIIIIIIII1A1IIIIIIIIIIIIII
IIIIIIIIIIIIIIIIIIIIIIIIIIIIIIIIIIIIIIIIIIIIIII1A1I222IIIIIIIIII
IIIIIIIIIIIIIIIIIIIIIIIIIIIIIIIIIIIIIIIIIIIIIII1A1I212I22I2III2I
IIIIIIIIIIIIIIIIIIIIIIIIIIIIIIIIIIIIIIIIIIIIIII1A12212I22I2III2I
IIIIIIIIIIIIIIIIIIIIIIIIIIIIIIIIIIIIIIIIIIIIIII1A11212I22I22II2I
IIIIIIIIIIIIIIIIIIIIIIIIIIIIIIIIIIIIIIIIIIIIIII1A11111I11122II22
IIIIIIIIIIIIIIIIIIIIIIIIIIIIIIIIIIIIIIIIIIIIIII1A11111I111112222
IIIIIIIIIIIIIIIIIIIIIIIIIIIIIIIIIIIIIIIIIIIIIIIIA1I2IIIIIIIIIIII
IIIIIIIIIIIIIIIIIIIIIIIIIIIIIIIIIIIIIIIIIIIIIIIIA1I1II11I1II1I2I
IIIIIIIIIIIIIIIIIIIIIIIIIIIIIIIIIIIIIIIIIIIIIIIIA1I1I111I1I2122I
IIIIIIIIIIIIIIIIIIIIIIIIIIIIIIIIIIIIIIIIIIIIIIIIA111I11111221222
IIIIIIIIIIIIIIIIIIIIIIIIIIIIIIIIIIIIIIIIIIIIIIIIA111211111221222
[MLOP] Prefetch Degree Mean: 4.51891
[MLOP] Prefetch Degree SD: 4.20505
[MLOP] Max Score Left Mean (%): 19.1017
[MLOP] Max Score Left SD (%): 15.2062
[MLOP] Max Score Right Mean (%): 49.1408
[MLOP] Max Score Right SD (%): 11.1966

DRAM Statistics
 CHANNEL 0
 RQ ROW_BUFFER_HIT:     325188  ROW_BUFFER_MISS:     334158
 DBUS_CONGESTED:        741
 WQ ROW_BUFFER_HIT:      14357  ROW_BUFFER_MISS:      90289  FULL:          0

 AVG_CONGESTED_CYCLE: 4
 All warmup complete: 2
Channel 0 Bank busy for read cycles: 0
Channel 0 Bank busy for write cycles: 0
Channel 0
Rank 0
0banks busy for read cycles: 303092186
0banks busy for write cycles: 40893
1banks busy for read cycles: 14509547
1banks busy for write cycles: 5399707
2banks busy for read cycles: 4984631
2banks busy for write cycles: 2091225
3banks busy for read cycles: 2195252
3banks busy for write cycles: 1130480
4banks busy for read cycles: 1438016
4banks busy for write cycles: 673018
5banks busy for read cycles: 1137096
5banks busy for write cycles: 406088
6banks busy for read cycles: 841751
6banks busy for write cycles: 239613
7banks busy for read cycles: 837509
7banks busy for write cycles: 140669
8banks busy for read cycles: 1621771
8banks busy for write cycles: 98310

CPU 0 Branch Prediction Accuracy: 99.8045% MPKI: 0.370935 Average ROB Occupancy at Mispredict: 33.0667
Branch types
NOT_BRANCH: 162058956 81.0295%
BRANCH_DIRECT_JUMP: 3353840 1.67692%
BRANCH_INDIRECT: 13231468 6.61573%
BRANCH_CONDITIONAL: 13947212 6.97361%
BRANCH_DIRECT_CALL: 2800344 1.40017%
BRANCH_INDIRECT_CALL: 903748 0.451874%
BRANCH_RETURN: 3704139 1.85207%
BRANCH_OTHER: 0 0%

DRAM PAGES: 1048576
Allocated PAGES: 8932
