
*** ChampSim Multicore Out-of-Order Simulator ***

Warmup Instructions: 50000000
Simulation Instructions: 200000000
Number of CPUs: 1
LLC sets: 2048
LLC ways: 16
Off-chip DRAM Size: 4096 MB Channels: 1 Width: 64-bit Data Rate: 6400 MT/s
CPU 0 runs traces/spec2k17/srv_41.champsimtrace.xz
.xz
BTB has LRU replacement policy
ITLB has LRU replacement policy
DTLB has LRU replacement policy
STLB has LRU replacement policy
L1I has LRU replacement policy
L1D has LRU replacement policy
Initialize SRRIP state for L2C
Initialize DRRIP state for LLC
Heartbeat CPU 0 instructions: 10000000 cycles: 2873149 heartbeat IPC: 3.4805 cumulative IPC: 3.4805 (Simulation time: 0 hr 0 min 36 sec) 
Heartbeat CPU 0 instructions: 20000003 cycles: 5737244 heartbeat IPC: 3.49151 cumulative IPC: 3.48599 (Simulation time: 0 hr 1 min 14 sec) 
Heartbeat CPU 0 instructions: 30000002 cycles: 8619715 heartbeat IPC: 3.46925 cumulative IPC: 3.48039 (Simulation time: 0 hr 1 min 51 sec) 
*** Reached end of trace for Core: 0 Repeating trace: traces/spec2k17/srv_41.champsimtrace.xz
Heartbeat CPU 0 instructions: 40000001 cycles: 11472270 heartbeat IPC: 3.50563 cumulative IPC: 3.48667 (Simulation time: 0 hr 2 min 27 sec) 
Heartbeat CPU 0 instructions: 50000000 cycles: 14340471 heartbeat IPC: 3.48651 cumulative IPC: 3.48664 (Simulation time: 0 hr 3 min 9 sec) 

Warmup complete CPU 0 instructions: 50000004 cycles: 14340472 (Simulation time: 0 hr 3 min 9 sec) 

Heartbeat CPU 0 instructions: 60000002 cycles: 40429594 heartbeat IPC: 0.383302 cumulative IPC: 0.383301 (Simulation time: 0 hr 3 min 59 sec) 
*** Reached end of trace for Core: 0 Repeating trace: traces/spec2k17/srv_41.champsimtrace.xz
Heartbeat CPU 0 instructions: 70000002 cycles: 60990946 heartbeat IPC: 0.486349 cumulative IPC: 0.42872 (Simulation time: 0 hr 4 min 50 sec) 
Heartbeat CPU 0 instructions: 80000002 cycles: 83873424 heartbeat IPC: 0.437016 cumulative IPC: 0.43145 (Simulation time: 0 hr 5 min 49 sec) 
Heartbeat CPU 0 instructions: 90000000 cycles: 109462100 heartbeat IPC: 0.390798 cumulative IPC: 0.420514 (Simulation time: 0 hr 6 min 42 sec) 
*** Reached end of trace for Core: 0 Repeating trace: traces/spec2k17/srv_41.champsimtrace.xz
Heartbeat CPU 0 instructions: 100000001 cycles: 130461747 heartbeat IPC: 0.476199 cumulative IPC: 0.430584 (Simulation time: 0 hr 7 min 30 sec) 
Heartbeat CPU 0 instructions: 110000000 cycles: 153995259 heartbeat IPC: 0.424926 cumulative IPC: 0.429631 (Simulation time: 0 hr 8 min 22 sec) 
Heartbeat CPU 0 instructions: 120000001 cycles: 179177387 heartbeat IPC: 0.397107 cumulative IPC: 0.424662 (Simulation time: 0 hr 9 min 19 sec) 
*** Reached end of trace for Core: 0 Repeating trace: traces/spec2k17/srv_41.champsimtrace.xz
Heartbeat CPU 0 instructions: 130000003 cycles: 200651428 heartbeat IPC: 0.465679 cumulative IPC: 0.42939 (Simulation time: 0 hr 10 min 11 sec) 
Heartbeat CPU 0 instructions: 140000000 cycles: 223615616 heartbeat IPC: 0.435461 cumulative IPC: 0.430056 (Simulation time: 0 hr 11 min 1 sec) 
Heartbeat CPU 0 instructions: 150000003 cycles: 248259486 heartbeat IPC: 0.405781 cumulative IPC: 0.427498 (Simulation time: 0 hr 11 min 55 sec) 
*** Reached end of trace for Core: 0 Repeating trace: traces/spec2k17/srv_41.champsimtrace.xz
Heartbeat CPU 0 instructions: 160000000 cycles: 269884473 heartbeat IPC: 0.462428 cumulative IPC: 0.430454 (Simulation time: 0 hr 12 min 45 sec) 
Heartbeat CPU 0 instructions: 170000000 cycles: 294435081 heartbeat IPC: 0.407322 cumulative IPC: 0.428427 (Simulation time: 0 hr 13 min 43 sec) 
Heartbeat CPU 0 instructions: 180000001 cycles: 317330090 heartbeat IPC: 0.436776 cumulative IPC: 0.429058 (Simulation time: 0 hr 14 min 33 sec) 
*** Reached end of trace for Core: 0 Repeating trace: traces/spec2k17/srv_41.champsimtrace.xz
Heartbeat CPU 0 instructions: 190000000 cycles: 339122890 heartbeat IPC: 0.458867 cumulative IPC: 0.431058 (Simulation time: 0 hr 15 min 27 sec) 
Heartbeat CPU 0 instructions: 200000000 cycles: 363976779 heartbeat IPC: 0.402352 cumulative IPC: 0.429017 (Simulation time: 0 hr 16 min 14 sec) 
Heartbeat CPU 0 instructions: 210000003 cycles: 385711188 heartbeat IPC: 0.4601 cumulative IPC: 0.430836 (Simulation time: 0 hr 17 min 2 sec) 
*** Reached end of trace for Core: 0 Repeating trace: traces/spec2k17/srv_41.champsimtrace.xz
Heartbeat CPU 0 instructions: 220000000 cycles: 409651790 heartbeat IPC: 0.4177 cumulative IPC: 0.430041 (Simulation time: 0 hr 18 min 3 sec) 
Heartbeat CPU 0 instructions: 230000000 cycles: 432785262 heartbeat IPC: 0.432274 cumulative IPC: 0.430164 (Simulation time: 0 hr 18 min 56 sec) 
Heartbeat CPU 0 instructions: 240000000 cycles: 454754536 heartbeat IPC: 0.455181 cumulative IPC: 0.431412 (Simulation time: 0 hr 19 min 46 sec) 
*** Reached end of trace for Core: 0 Repeating trace: traces/spec2k17/srv_41.champsimtrace.xz
Heartbeat CPU 0 instructions: 250000002 cycles: 479049999 heartbeat IPC: 0.4116 cumulative IPC: 0.430376 (Simulation time: 0 hr 20 min 37 sec) 
Finished CPU 0 instructions: 200000002 cycles: 464709528 cumulative IPC: 0.430376 (Simulation time: 0 hr 20 min 37 sec) 

ChampSim completed all CPUs

Region of Interest Statistics

CPU 0 cumulative IPC: 0.430376 instructions: 200000002 cycles: 464709528
ITLB TOTAL     ACCESS:   34227471  HIT:   33341365  MISS:     886106  HIT %:    97.4111  MISS %:    2.58887   MPKI: 4.43053
ITLB LOAD TRANSLATION ACCESS:   34227471  HIT:   33341365  MISS:     886106  HIT %:    97.4111  MISS %:    2.58887   MPKI: 4.43053
ITLB PREFETCH  REQUESTED:          0  ISSUED:          0  USEFUL:          0  USELESS:          0
ITLB USEFUL LOAD PREFETCHES:          0 PREFETCH ISSUED TO LOWER LEVEL:          0  ACCURACY: -nan
ITLB TIMELY PREFETCHES:          0 LATE PREFETCHES: 0 DROPPED PREFETCHES: 0
ITLB PREFETCHES SAME FILL-ORIGIN LEVEL: 0 DIFFERENT FILL-ORIGIN LEVEL: 0
ITLB AVERAGE MISS LATENCY: 10.461 cycles
ITLB RQ	ACCESS:   39107457	FORWARD:          0	MERGED:    4619319	TO_CACHE:   34488138

DTLB TOTAL     ACCESS:   38212501  HIT:   37229392  MISS:     983109  HIT %:    97.4273  MISS %:    2.57274   MPKI: 4.91554
DTLB LOAD TRANSLATION ACCESS:   38212501  HIT:   37229392  MISS:     983109  HIT %:    97.4273  MISS %:    2.57274   MPKI: 4.91554
DTLB PREFETCH  REQUESTED:          0  ISSUED:          0  USEFUL:          0  USELESS:          0
DTLB USEFUL LOAD PREFETCHES:          0 PREFETCH ISSUED TO LOWER LEVEL:          0  ACCURACY: -nan
DTLB TIMELY PREFETCHES:          0 LATE PREFETCHES: 0 DROPPED PREFETCHES: 0
DTLB PREFETCHES SAME FILL-ORIGIN LEVEL: 0 DIFFERENT FILL-ORIGIN LEVEL: 0
DTLB AVERAGE MISS LATENCY: 16.0248 cycles
DTLB RQ	ACCESS:   50591197	FORWARD:          0	MERGED:   12307359	TO_CACHE:   38283838

STLB TOTAL     ACCESS:    2554074  HIT:    2453013  MISS:     101061  HIT %:    96.0431  MISS %:    3.95685   MPKI: 0.505305
STLB LOAD TRANSLATION ACCESS:    1869215  HIT:    1768155  MISS:     101060  HIT %:    94.5935  MISS %:    5.40655   MPKI: 0.5053
STLB TRANSLATION FROM L1D PREFETCHER ACCESS:     684859  HIT:     684858  MISS:          1  HIT %:    99.9999  MISS %: 0.000146015   MPKI: 5e-06
STLB PREFETCH  REQUESTED:          0  ISSUED:          0  USEFUL:          1  USELESS:          0
STLB USEFUL LOAD PREFETCHES:          1 PREFETCH ISSUED TO LOWER LEVEL:          0  ACCURACY: inf
STLB TIMELY PREFETCHES:          1 LATE PREFETCHES: 0 DROPPED PREFETCHES: 0
STLB PREFETCHES SAME FILL-ORIGIN LEVEL: 0 DIFFERENT FILL-ORIGIN LEVEL: 0
STLB AVERAGE MISS LATENCY: 81.0235 cycles
STLB RQ	ACCESS:    3045599	FORWARD:          0	MERGED:     491525	TO_CACHE:    2554074

STLB Hit, L1D data hit: 0
STLB Hit, L2C data hit: 0
STLB Hit, LLC data hit: 0
STLB Hit, LLC data miss: 0
STLB STLB hints to L2: 0
L1D TOTAL     ACCESS:   50404616  HIT:   47430824  MISS:    2973792  HIT %:    94.1002  MISS %:    5.89984   MPKI: 14.869
L1D LOAD      ACCESS:   30462692  HIT:   28817840  MISS:    1644852  HIT %:    94.6004  MISS %:    5.39956   MPKI: 8.22426
L1D RFO       ACCESS:   19171148  HIT:   18513714  MISS:     657434  HIT %:    96.5707  MISS %:    3.42929   MPKI: 3.28717
L1D PREFETCH  ACCESS:     770776  HIT:      99270  MISS:     671506  HIT %:    12.8792  MISS %:    87.1208   MPKI: 3.35753
AGUS PREFETCH L1 MISS: 0
L1D PREFETCH  REQUESTED:    2358049  ISSUED:    2358049  USEFUL:     143716  USELESS:     527791
L1D USEFUL LOAD PREFETCHES:     143716 PREFETCH ISSUED TO LOWER LEVEL:    1038603  ACCURACY: 13.8374
L1D TIMELY PREFETCHES:     143716 LATE PREFETCHES: 14581 DROPPED PREFETCHES: 0
L1D PREFETCHES SAME FILL-ORIGIN LEVEL: 689831 DIFFERENT FILL-ORIGIN LEVEL: 348772
L1D AVERAGE MISS LATENCY: 1.54382e+06 cycles
L1D RQ	ACCESS:   41987511	FORWARD:          0	MERGED:   11145674	TO_CACHE:   30572195
L1D WQ	ACCESS:   20245042	FORWARD:     269736	MERGED:     226040	TO_CACHE:   20019002
L1D PQ	ACCESS:    1181665	FORWARD:          0	MERGED:       5187	TO_CACHE:    1176384

L1D UNIQUE REGIONS ACCESSED: 0
L1D REGIONS CONFLICTS: 0
L1D Cross Page Prefetch Requests: 0
L1D Same Page Prefetch Requests: 1459264
L1D ROI Sum of L1D PQ occupancy: 15888654
L1D PREFETCHES PUSHED FROM L2C: 0
L1I TOTAL     ACCESS:   38313292  HIT:   33574319  MISS:    4738973  HIT %:     87.631  MISS %:     12.369   MPKI: 23.6949
L1I LOAD      ACCESS:   38313292  HIT:   33574319  MISS:    4738973  HIT %:     87.631  MISS %:     12.369   MPKI: 23.6949
L1I PREFETCH  REQUESTED:          0  ISSUED:          0  USEFUL:          0  USELESS:          0
L1I USEFUL LOAD PREFETCHES:          0 PREFETCH ISSUED TO LOWER LEVEL:          0  ACCURACY: -nan
L1I TIMELY PREFETCHES:          0 LATE PREFETCHES: 0 DROPPED PREFETCHES: 0
L1I PREFETCHES SAME FILL-ORIGIN LEVEL: 0 DIFFERENT FILL-ORIGIN LEVEL: 0
L1I AVERAGE MISS LATENCY: 24.017 cycles
L1I RQ	ACCESS:   60537139	FORWARD:          0	MERGED:   21429682	TO_CACHE:   39107457

BTB TOTAL     ACCESS:   31960684  HIT:   26197910  MISS:    5762774  HIT %:    81.9692  MISS %:    18.0308   MPKI: 28.8139
BTB BRANCH_DIRECT_JUMP	ACCESS:    3125250  HIT:    2730574  MISS:     394676
BTB BRANCH_INDIRECT	ACCESS:   11716382  HIT:    9367715  MISS:    2348667
BTB BRANCH_CONDITIONAL	ACCESS:   10786856  HIT:   10320288  MISS:     466568
BTB BRANCH_DIRECT_CALL	ACCESS:    2710252  HIT:    1976262  MISS:     733990
BTB BRANCH_INDIRECT_CALL	ACCESS:     455858  HIT:     278081  MISS:     177777
BTB BRANCH_RETURN	ACCESS:    3166086  HIT:    1524990  MISS:    1641096
BTB BRANCH_OTHER ACCESS:          0  HIT:          0  MISS:          0

L2C TOTAL     ACCESS:    9474805  HIT:    6002451  MISS:    3472354  HIT %:    63.3517  MISS %:    36.6483   MPKI: 17.3618
L2C LOAD      ACCESS:    6369224  HIT:    4273108  MISS:    2096116  HIT %:    67.0899  MISS %:    32.9101   MPKI: 10.4806
L2C DATA LOAD MPKI: 3.27369
L2C INSTRUCTION LOAD MPKI: 7.20688
L2C RFO       ACCESS:     653675  HIT:     309974  MISS:     343701  HIT %:    47.4202  MISS %:    52.5798   MPKI: 1.7185
L2C PREFETCH  ACCESS:    1028771  HIT:     155053  MISS:     873718  HIT %:    15.0717  MISS %:    84.9283   MPKI: 4.36859
AGUS PREFETCH L1 MISS: 0
L2C DATA PREFETCH MPKI: 4.36859
L2C INSTRUCTION PREFETCH MPKI: 0
L2C WRITEBACK ACCESS:    1264290  HIT:    1193662  MISS:      70628  HIT %:    94.4136  MISS %:    5.58638   MPKI: 0.35314
L2C LOAD TRANSLATION ACCESS:     158842  HIT:      70652  MISS:      88190  HIT %:    44.4794  MISS %:    55.5206   MPKI: 0.44095
L2C TRANSLATION FROM L1D PREFETCHER ACCESS:          3  HIT:          2  MISS:          1  HIT %:    66.6667  MISS %:    33.3333   MPKI: 5e-06
L2C PREFETCH  REQUESTED:          0  ISSUED:          0  USEFUL:     111292  USELESS:     761378
L2C USEFUL LOAD PREFETCHES:     111292 PREFETCH ISSUED TO LOWER LEVEL:     880422  ACCURACY: 12.6408
L2C TIMELY PREFETCHES:     111292 LATE PREFETCHES: 6704 DROPPED PREFETCHES: 0
L2C PREFETCHES SAME FILL-ORIGIN LEVEL: 309206 DIFFERENT FILL-ORIGIN LEVEL: 0
L2C AVERAGE MISS LATENCY: 61.2128 cycles
L2C RQ	ACCESS:    7181779	FORWARD:          0	MERGED:          0	TO_CACHE:    7181744
L2C WQ	ACCESS:    1264290	FORWARD:         35	MERGED:          0	TO_CACHE:    1264290
L2C PQ	ACCESS:    1038603	FORWARD:          0	MERGED:          5	TO_CACHE:    1038598

L2C Instructions Evicting Data 752628
L2C Translations Evicting Data 52243
L2C Data Evicting Data 1101320
L2C Instructions Evicting Instructions 655428
L2C Translations Evicting Instructions 33244
L2C Data Evicting Instructions 720378
L2C Instructions Evicting Translations 33321
L2C Translations Evicting Translations 2704
L2C Data Evicting Translations 50460
L2C Dense regions hint from L2: 0
PSCL5 TOTAL     ACCESS:     101061  HIT:     101061  MISS:          0  HIT %:        100  MISS %:          0   MPKI: 0
PSCL5 LOAD TRANSLATION ACCESS:     101060  HIT:     101060  MISS:          0  HIT %:        100  MISS %:          0   MPKI: 0
PSCL5 TRANSLATION FROM L1D PREFETCHER ACCESS:          1  HIT:          1  MISS:          0  HIT %:        100  MISS %:          0   MPKI: 0
PSCL5 PREFETCH  REQUESTED:          0  ISSUED:          0  USEFUL:          0  USELESS:          0
PSCL5 USEFUL LOAD PREFETCHES:          0 PREFETCH ISSUED TO LOWER LEVEL:          0  ACCURACY: -nan
PSCL5 TIMELY PREFETCHES:          0 LATE PREFETCHES: 0 DROPPED PREFETCHES: 0
PSCL5 PREFETCHES SAME FILL-ORIGIN LEVEL: 0 DIFFERENT FILL-ORIGIN LEVEL: 0

PSCL4 TOTAL     ACCESS:     100521  HIT:     100206  MISS:        315  HIT %:    99.6866  MISS %:   0.313367   MPKI: 0.001575
PSCL4 LOAD TRANSLATION ACCESS:     100520  HIT:     100205  MISS:        315  HIT %:    99.6866  MISS %:    0.31337   MPKI: 0.001575
PSCL4 TRANSLATION FROM L1D PREFETCHER ACCESS:          1  HIT:          1  MISS:          0  HIT %:        100  MISS %:          0   MPKI: 0
PSCL4 PREFETCH  REQUESTED:          0  ISSUED:          0  USEFUL:          0  USELESS:          0
PSCL4 USEFUL LOAD PREFETCHES:          0 PREFETCH ISSUED TO LOWER LEVEL:          0  ACCURACY: -nan
PSCL4 TIMELY PREFETCHES:          0 LATE PREFETCHES: 0 DROPPED PREFETCHES: 0
PSCL4 PREFETCHES SAME FILL-ORIGIN LEVEL: 0 DIFFERENT FILL-ORIGIN LEVEL: 0

PSCL3 TOTAL     ACCESS:      93597  HIT:      77396  MISS:      16201  HIT %:    82.6907  MISS %:    17.3093   MPKI: 0.081005
PSCL3 LOAD TRANSLATION ACCESS:      93597  HIT:      77396  MISS:      16201  HIT %:    82.6907  MISS %:    17.3093   MPKI: 0.081005
PSCL3 PREFETCH  REQUESTED:          0  ISSUED:          0  USEFUL:          0  USELESS:          0
PSCL3 USEFUL LOAD PREFETCHES:          0 PREFETCH ISSUED TO LOWER LEVEL:          0  ACCURACY: -nan
PSCL3 TIMELY PREFETCHES:          0 LATE PREFETCHES: 0 DROPPED PREFETCHES: 0
PSCL3 PREFETCHES SAME FILL-ORIGIN LEVEL: 0 DIFFERENT FILL-ORIGIN LEVEL: 0

PSCL2 TOTAL     ACCESS:     101061  HIT:      59793  MISS:      41268  HIT %:    59.1653  MISS %:    40.8347   MPKI: 0.20634
PSCL2 LOAD TRANSLATION ACCESS:     101061  HIT:      59793  MISS:      41268  HIT %:    59.1653  MISS %:    40.8347   MPKI: 0.20634
PSCL2 PREFETCH  REQUESTED:          0  ISSUED:          0  USEFUL:          0  USELESS:          0
PSCL2 USEFUL LOAD PREFETCHES:          0 PREFETCH ISSUED TO LOWER LEVEL:          0  ACCURACY: -nan
PSCL2 TIMELY PREFETCHES:          0 LATE PREFETCHES: 0 DROPPED PREFETCHES: 0
PSCL2 PREFETCHES SAME FILL-ORIGIN LEVEL: 0 DIFFERENT FILL-ORIGIN LEVEL: 0

LLC TOTAL     ACCESS:    4071384  HIT:    3394381  MISS:     677003  HIT %:    83.3717  MISS %:    16.6283   MPKI: 3.38501
LLC LOAD      ACCESS:    2090654  HIT:    1912304  MISS:     178350  HIT %:    91.4692  MISS %:    8.53082   MPKI: 0.89175
LLC RFO       ACCESS:     342458  HIT:     201217  MISS:     141241  HIT %:    58.7567  MISS %:    41.2433   MPKI: 0.706205
LLC PREFETCH  ACCESS:     880422  HIT:     545326  MISS:     335096  HIT %:    61.9392  MISS %:    38.0608   MPKI: 1.67548
AGUS PREFETCH L1 MISS: 0
LLC WRITEBACK ACCESS:     669659  HIT:     664128  MISS:       5531  HIT %:    99.1741  MISS %:   0.825943   MPKI: 0.027655
LLC LOAD TRANSLATION ACCESS:      88190  HIT:      71405  MISS:      16785  HIT %:    80.9672  MISS %:    19.0328   MPKI: 0.083925
LLC TRANSLATION FROM L1D PREFETCHER ACCESS:          1  HIT:          1  MISS:          0  HIT %:        100  MISS %:          0   MPKI: 0
LLC PREFETCH  REQUESTED:          0  ISSUED:          0  USEFUL:      24871  USELESS:     308816
LLC USEFUL LOAD PREFETCHES:      24871 PREFETCH ISSUED TO LOWER LEVEL:     335096  ACCURACY: 7.42205
LLC TIMELY PREFETCHES:      24871 LATE PREFETCHES: 0 DROPPED PREFETCHES: 0
LLC PREFETCHES SAME FILL-ORIGIN LEVEL: 0 DIFFERENT FILL-ORIGIN LEVEL: 0
LLC AVERAGE MISS LATENCY: 163.6 cycles
LLC RQ	ACCESS:    2521304	FORWARD:          0	MERGED:          0	TO_CACHE:    2521303
LLC WQ	ACCESS:     669659	FORWARD:          1	MERGED:          0	TO_CACHE:     669659
LLC PQ	ACCESS:     880422	FORWARD:          0	MERGED:          0	TO_CACHE:     880422

LLC Dense regions hint to LLC: 0

RAW hits: 2036214
Loads Generated: 44023727
Loads sent to L1D: 41987511
Stores Generated: 20245026
Stores sent to L1D: 20245042
Major fault: 0 Minor fault: 5392
Allocated PAGES: 5392
=== CPU 0 L1D Prefetcher Statistics ===
[MLOP] History of tracked zone:
IIIIIIIIIIIIIIIIIIIIIIIIIIIIIIIIIIIIIIIIIIIIIIIIIIIIIIIIIIIIIIII
IIIIIIIIIIIIIIIIIIIIIIIIIIIAIIIIIIIIIIIIIIIIIIIIIIIIIIIIIIIIIIII
IIIIIIIIIIIA1IIIIIIIIIIIIIIAIIIIIIIIIIIIIIIIIIIIIIIIIIIIIIIIIIII
IIIIIIIIIIIA1IIIIIIIIIIIIIIA1IIIIIIIIIIIIIIIIIIIIIIIIIIIIIIIIIII
IIIIIIIIIIIA12IIIIIIIIIIIIIA1IIIIIIIIIIIIIIIIIIIIIIIIIIIIIIIIIII
IIIIIIIIIIIA12IIIIIIIIIIIIIA12IIIIIIIIIIIIIIIIIIIIIIIIIIIIIIIIII
IIIIIIIIIIIA11III1111112I2IA121IIIIIIIIIIIIIIIIIIIIIIIIIIIIIIIII
IIIIIIIIIIIIIIIIIIIIIIIIIIIA12III2I2IIIIIIIIIIIIIIIIIIIIIIIIIIII
IIIIIIIIIIIAI22IIIIIIIIIIIIA12III2I2IIIIIIIIIIIIIIIIIIIIIIIIIIII
IIIIIIIIIIIAI22IIIIIIIIIIIIA1112I222IIIIIIIIIIIIIIIIIIIIIIIIIIII
IIIIIIIIIIIA1112I22IIIIIIIIA1112I222IIIIIIIIIIIIIIIIIIIIIIIIIIII
IIIIIIIIIIIIIIIIIIIIIIIIIIIA1IIIIIIIIIIIIIIIIIIIIIIIIIIIIIIIIIII
IIIIIIIIIIIA1IIIIIIIIIIIIIIIIIIIIIIIIIIIIIIIIIIIIIIIIIIIIIIIIIII
IIIIIIIIIIIIIIIIIIIIIIIIIIIA1222II2IIIIIIIIIIIIIIIIIIIIIIIIIIIII
IIIIIIIIIIIAII2IIIIIIIIIIIIIIIIIIIIIIIIIIIIIIIIIIIIIIIIIIIIIIIII
IIIIIIIIIIIAII2IIIIIIIIIIIIAII2IIIIIIIIIIIIIIIIIIIIIIIIIIIIIIIII
IIIIIIIIIIIA2I2IIIIIIIIIIIIAII2IIIIIIIIIIIIIIIIIIIIIIIIIIIIIIIII
IIIIIIIIIIIA2I2IIIIIIIIIIIIA2I2IIIIIIIIIIIIIIIIIIIIIIIIIIIIIIIII
IIIIIIIIIIIA2I2IIIIIIIIIIIIA1I2IIIIIIIIIIIIIIIIIIIIIIIIIIIIIIIII
IIIIIIIIIIIA1I2IIIIIIIIIIIIA1I2IIIIIIIIIIIIIIIIIIIIIIIIIIIIIIIII
IIIIIIIIIIIIIIIIIIIIIIIIIIIAI2IIIIIIIIIIIIIIIIIIIIIIIIIIIIIIIIII
IIIIIIIIIIIA2IIIIIIIIIIIIIIAI2IIIIIIIIIIIIIIIIIIIIIIIIIIIIIIIIII
IIIIIIIIIIIA2IIIIIIIIIIIIIIA22IIIIIIIIIIIIIIIIIIIIIIIIIIIIIIIIII
IIIIIIIIIIIA1IIIIIIIIIIIIIIA22IIIIIIIIIIIIIIIIIIIIIIIIIIIIIIIIII
IIIIIIIIIIIA12IIIIIIIIIIIIIIIIIIIIIIIIIIIIIIIIIIIIIIIIIIIIIIIIII
IIIIIIIIIIIA12IIIIIIIIIIIIIAIIIIIIIIIIIIIIIIIIIIIIIIIIIIIIIIIIII
IIIIIIIIIIIIIIIIIIIIIIIIIIIAIIIIIIIIIIIIIIIIII2IIIIIIIIIIIIIIIII
IIIIIIIIIIIA1IIIIIIIIIIIIIIAIIIIIIIIIIIIIIIIII2IIIIIIIIIIIIIIIII
IIIIIIIIIIIA1IIIIIIIIIIIIIIA1IIIIIIIIIIIIIIIII2IIIIIIIIIIIIIIIII
IIIIIIIIIIIA12IIIIIIIIIIIIIA1IIIIIIIIIIIIIIIII2IIIIIIIIIIIIIIIII
IIIIIIIIIIIA12IIIIIIIIIIIIIA12IIIIIIIIIIIIIIII2IIIIIIIIIIIIIIIII
IIIIIIIIIIIA11II111111111IIA121IIIIIIIIIIIIIII2IIIIIIIIIIIIIIIII
IIIIIIIIIIIA11II1111111112IA121IIIIIIIIIIIIIII2IIIIIIIIIIIIIIIII
IIIIIIIIIIIA11II1111111112IA111I1111111IIIIIII1IIIIIIIIIIIIIIIII
IIIIIIIIIIIA11II1111111112IA111I1111111112IIII1IIIIIIIIIIIIIIIII
IIIIIIIIIIIAIIIIIIIIIIIIIIIIIIIIIIIIIIIIIIIIIIIIIIIIIIIIIIIIIIII
IIIIIIIIIIIAIIIIIIIIIIIIIIIAIIIIIIIIIIIIIIIIIIIIIIIIIIIIIIIIIIII
IIIIIIIIIIIIIIIIIIIIIIIIIIIA1IIIIIIIIIIIIIIIIIIIIIIIIIIIIIIIIIII
IIIIIIIIIIIAIIIIIIIIIIIIIIIA1IIIIIIIIIIIIIIIIIIIIIIIIIIIIIIIIIII
IIIIIIIIIIIA1IIIIIIIIIIIIIIIIIIIIIIIIIIIIIIIIIIIIIIIIIIIIIIIIIII
IIIIIIIIIIIAIIIIIIIIIIIIIIIIIIIIIIIIIIIIIIIIIIIIIIIIIIIIIIIIIIII
IIIIIIIIIIIAIIIIIIIIIIIIIIIAIIIIIIIIIIIIIIIIIIIIIIIIIIIIIIIIIIII
IIIIIIIIIIIAIIIIIIIIIIIIIIIA2IIIIIIIIIIIIIIIIIIIIIIIIIIIIIIIIIII
IIIIIIIIIIIA1IIIIIIIIIIIIIIA2IIIIIIIIIIIIIIIIIIIIIIIIIIIIIIIIIII
IIIIIIIIIIIA1IIIIIIIIIIIIIIA1IIIIIIIIIIIIIIIIIIIIIIIIIIIIIIIIIII
IIIIIIIIIIIA1IIIIIIIIIIIIIIIIIIIIIIIIIIIIIIIIIIIIIIIIIIIIIIIIIII
IIIIIIIIIIIA1IIIIIIIIIIIIIIA1IIIIIIIIIIIIIIIIIIIIIIIIIIIIIIIIIII
IIIIIIIIIIIA12IIIIIIIIIIIIIA1IIIIIIIIIIIIIIIIIIIIIIIIIIIIIIIIIII
IIIIIIIIIIIA12IIIII22IIIII2IIIIIIIIIIIIIIIIIIIIIIIIIIIIIIIIIIIII
IIIIIIIIIIIA12IIIII22IIIII2A12IIIII22IIIII2IIIIIIIIIIIIIIIIIIIII
IIIIIIIIIIIIIIIIIIIIIIIIIIIA1IIIIIIIIIIIIIIIIIIIIIIIIIIIIIIIIIII
IIIIIIIIIIIAIIIIIIIIIIIIIIIA1IIIIIIIIIIIIIIIIIIIIIIIIIIIIIIIIIII
IIIIIIIIIIIA12IIIIIIIIIIIIIIIIIIIIIIIIIIIIIIIIIIIIIIIIIIIIIIIIII
IIIIIIIIIIIA12IIIIIIIIIIIIIAIIIIIIIIIIIIIIIIIIIIIIIIIIIIIIIIIIII
IIIIIIIIIIIA12IIIIIIIIIIIIIA2IIIIIIIIIIIIIIIIIIIIIIIIIIIIIIIIIII
IIIIIIIIIIIA1IIIIIIIIIIIIIIIIIIIIIIIIIIIIIIIIIIIIIIIIIIIIIIIIIII
IIIIIIIIIIIA1IIIIIIIIIIIIIIA1IIIIIIIIIIIIIIIIIIIIIIIIIIIIIIIIIII
IIIIIIIIIIIA12IIIIIIIIIIIIIA1IIIIIIIIIIIIIIIIIIIIIIIIIIIIIIIIIII
IIIIIIIIIIIA1IIIIIIIIIIIIIIIIIIIIIIIIIIIIIIIIIIIIIIIIIIIIIIIIIII
IIIIIIIIIIIA1IIIIIIIIIIIIIIA1IIIIIIIIIIIIIIIIIIIIIIIIIIIIIIIIIII
IIIIIIIIIIIA111IIII111IIIII11IIIIIIIIIIIIIIIIIIIIIIIIIIIIIIIIIII
IIIIIIIIIIIA111IIII111IIIIIA111IIII111IIIII11IIIIIIIIIIIIIIIIIII
IIIIIIIIIIIIIIIIIIIIIIIIIIIAIIIIIIIIIIIIIIIIIIIIIIIIIIIIIIIIIIII
IIIIIIIIIIIA2IIIIIIIIIIIIIIAIIIIIIIIIIIIIIIIIIIIIIIIIIIIIIIIIIII
IIIIIIIIIIIA2IIIIIIIIIIIIIIA2IIIIIIIIIIIIIIIIIIIIIIIIIIIIIIIIIII
IIIIIIIIIIIA12IIIIIIIIIIIIIA2IIIIIIIIIIIIIIIIIIIIIIIIIIIIIIIIIII
IIIIIIIIIIIA12IIIIIIIIIIIIIA12IIIIIIIIIIIIIIIIIIIIIIIIIIIIIIIIII
IIIIIIIIIIIA12IIIIIIIIIIIIIA111111111I1IIIIIIIIIIIIIIIIIIIIIIIII
IIIIIIIIIIIA12IIIIIIIIIIIIIA111111111I111IIIIIIIIIIIIIIIIIIIIIII
IIIIIIIIIIIA12IIIIIIIIIIIIIA111111111I1111IIIIIIIIIIIIIIIIIIIIII
IIIIIIIIIIIA111111111I111IIA111111111I1111IIIIIIIIIIIIIIIIIIIIII
IIIIIIIIIIIA111111111I1111IA111111111I1111IIIIIIIIIIIIIIIIIIIIII
IIIIIIIIIIIAIIIIIIIIIIIIIIIIIIIIIIIIIIIIIIIIIIIIIIIIIIIIIIIIIIII
IIIIIIIIIIIAIIIIIIIIIIIIIIIAIIIIIIIIIIIIIIIIIIIIIIIIIIIIIIIIIIII
IIIIIIIIIIIAIIIIIIIIIIIIIIIA1IIIIIIIIIIIIIIIIIIIIIIIIIIIIIIIIIII
IIIIIIIIIIIA12IIIIIIIIIIIIIIIIIIIIIIIIIIIIIIIIIIIIIIIIIIIIIIIIII
IIIIIIIIIIIA12IIIIIIIIIIIIIA12IIIIIIIIIIIIIIIIIIIIIIIIIIIIIIIIII
IIIIIIIIIIIA1IIIIIIIIIIIIIIIIIIIIIIIIIIIIIIIIIIIIIIIIIIIIIIIIIII
IIIIIIIIIIIA1IIIIIIIIIIIIIIAIIIIIIIIIIIIIIIIIIIIIIIIIIIIIIIIIIII
IIIIIIIIIIIA1IIIIIIIIIIIIIIA2IIIIIIIIIIIIIIIIIIIIIIIIIIIIIIIIIII
IIIIIIIIIIIA1IIIIIIIIIIIIIIA1IIIIIIIIIIIIIIIIIIIIIIIIIIIIIIIIIII
IIIIIIIIIIIA12IIIIIIIIIIIIIA1IIIIIIIIIIIIIIIIIIIIIIIIIIIIIIIIIII
IIIIIIIIIIIA1IIIIIIIIIIIIIIIIIIIIIIIIIIIIIIIIIIIIIIIIIIIIIIIIIII
IIIIIIIIIIIA1IIIIIIIIIIIIIIA1IIIIIIIIIIIIIIIIIIIIIIIIIIIIIIIIIII
IIIIIIIIIIIA1IIIIIIIIIIIIIIA12IIIIIIIIIIIIIIIIIIIIIIIIIIIIIIIIII
IIIIIIIIIIIA12IIIIIIIIIIIIIA12IIIIIIIIIIIIIIIIIIIIIIIIIIIIIIIIII
IIIIIIIIIIIIIIIIIIIIIIIIIIIA1111III2222IIIIIIIIIIIIIIIIIIIIIIIII
IIIIIIIIIIIIIIIIIIIIIIIIIIIA1111III22222IIIIIIIIIIIIIIIIIIIIIIII
IIIIIIIIIIIAIIIIIIIIIIIIIIIA1111III22222IIIIIIIIIIIIIIIIIIIIIIII
IIIIIIIIIIIA12IIIIIIIIIIIIIA1111III22222IIIIIIIIIIIIIIIIIIIIIIII
IIIIIIIIIIIAIIIIIIIIIIIIIIIIIIIIIIIIIIIIIIIIIIIIIIIIIIIIIIIIIIII
IIIIIIIIIIIAIIIIIIIIIIIIIIIAIIIIIIIIIIIIIIIIIIIIIIIIIIIIIIIIIIII
IIIIIIIIIIIA1IIIIIIIIIIIIIIAIIIIIIIIIIIIIIIIIIIIIIIIIIIIIIIIIIII
IIIIIIIIIIIA1IIIIIIIIIIIIIIA1IIIIIIIIIIIIIIIIIIIIIIIIIIIIIIIIIII
IIIIIIIIIIIA12IIIIIIIIIIIIIA1IIIIIIIIIIIIIIIIIIIIIIIIIIIIIIIIIII
IIIIIIIIIIIA12IIIIIIIIIIIIIA12IIIIIIIIIIIIIIIIIIIIIIIIIIIIIIIIII
IIIIIIIIIIIAIIIIIIIIIIIIIIIIII2IIIIIIIIIIIIIIIIIIIIIIIIIIIIIIIII
IIIIIIIIIIIAIIIIIIIIIIIIIIIA111I2III2IIIIIIIIIIIIIIIIIIIIIIIIIII
IIIIIIIIIIIA111I2III2IIIIIIA111I2III2IIIIIIIIIIIIIIIIIIIIIIIIIII
IIIIIIIIIIIA111I21222222222A111I2III2IIIIIIIIIIIIIIIIIIIIIIIIIII
IIIIIIIIIIIA111I21222222222A111I21222222222III1IIIIIIIIIIIIIIIII
IIIIIIIIIIIIIIIIIIIIIIIIIIIA1IIIIIIIIIIIIIIIIIIIIIIIIIIIIIIIIIII
IIIIIIIIIIIAIIIIIIIIIIIIIIIIIIIIIIIIIIIIIIIIIIIIIIIIIIIIIIIIIIII
IIIIIIIIIIIAIIIIIIIIIIIIIIIA12IIIIIIIIIIIIIIIIIIIIIIIIIIIIIIIIII
IIIIIIIIIIIA12IIIIIIIIIIIIIA12IIIIIIIIIIIIIIIIIIIIIIIIIIIIIIIIII
IIIIIIIIIIIAIIIIIIIIIIIIIIIIIIIIIIIIIIIIIIIIIIIIIIIIIIIIIIIIIIII
IIIIIIIIIIIAIIIIIIIIIIIIIIIA1IIIIIIIIIIIIIIIIIIIIIIIIIIIIIIIIIII
IIIIIIIIIIIA1IIIIIIIIIIIIIIA1IIIIIIIIIIIIIIIIIIIIIIIIIIIIIIIIIII
IIIIIIIIIIIIIIIIIIIIIIIIIIIAI2IIIIIIIIIIIIIIIIIIIIIIIIIIIIIIIIII
IIIIIIIIIIIA1I1I111I12IIIIIAI2IIIIIIIIIIIIIIIIIIIIIIIIIIIIIIIIII
IIIIIIIIIIIA1I1I111I122222IAI2IIIIIIIIIIIIIIIIIIIIIIIIIIIIIIIIII
IIIIIIIIIIIA1I1I111I1222222AI2IIIIIIIIIIIIIIIIIIIIIIIIIIIIIIIIII
IIIIIIIIIIIA1I1I111I1222222A121I111I12222222IIIIIIIIIIIIIIIIIIII
IIIIIIIIIIIA121I111I1222222A121I111I12222222IIIIIIIIIIIIIIIIIIII
IIIIIIIIIIIIIIIIIIIIIIIIIIIA11IIIII112IIIII22IIIIIIIIIIIIIIIIIII
IIIIIIIIIIIAIIIIIIIIIIIIIIIA11IIIII112IIIII22IIIIIIIIIIIIIIIIIII
IIIIIIIIIIIAIIIIIIIIIIIIIIIA1111122112IIIII22IIIIIIIIIIIIIIIIIII
IIIIIIIIIIIA1111122IIIIIIIIA1111122112IIIII22IIIIIIIIIIIIIIIIIII
IIIIIIIIIIIIIIIIIIIIIIIIIIIA1IIIIIIIIIIIIIIIIIIIIIIIIIIIIIIIIIII
IIIIIIIIIIIA1IIIIIIIIIIIIIIIIIIIIIIIIIIIIIIIIIIIIIIIIIIIIIIIIIII
IIIIIIIIIIIIIIIIIIIIIIIIIIIA1122IIIIIIIIIIIIIIIIIIIIIIIIIIIIIIII
IIIIIIIIIIIA1122IIIIIIIIIIIIIIIIIIIIIIIIIIIIIIIIIIIIIIIIIIIIIIII
IIIIIIIIIIIA1122IIIIIIIIIIIA1122IIIIIIIIIIIIIIIIIIIIIIIIIIIIIIII
IIIIIIIIIIIIIIIIIIIIIIIIIIIA2IIIIIIIIIIIIIIIIIIIIIIIIIIIIIIIIIII
IIIIIIIIIIIA2IIIIIIIIIIIIIIA2IIIIIIIIIIIIIIIIIIIIIIIIIIIIIIIIIII
IIIIIIIIIIIA12IIIIIIIIIIIIIA2IIIIIIIIIIIIIIIIIIIIIIIIIIIIIIIIIII
IIIIIIIIIIIA12IIIIIIIIIIIIIA12IIIIIIIIIIIIIIIIIIIIIIIIIIIIIIIIII
IIIIIIIIIIIAIIIIIIIIIIIIIIIIIIIIIIIIIIIIIIIIIIIIIIIIIIIIIIIIIIII
IIIIIIIIIIIAIIIIIIIIIIIIIIIAIIIIIIIIIIIIIIIIIIIIIIIIIIIIIIIIIIII
IIIIIIIIIIIIIIIIIIIIIIIIIIIAI1IIIIIIIIIIIIIIIIIIIIIIIIIIIIIIIIII
IIIIIIIIIIIIIIIIIIIIIIIIIIIAI1III11111IIIIIIII1IIIIIIIIIIIIIIIII
IIIIIIIIIIIIIIIIIIIIIIIIIIIAI1III111111112IIII1IIIIIIIIIIIIIIIII
IIIIIIIIIIIAI1III111111112IAI11II111111112IIII1IIIIIIIIIIIIIIIII
IIIIIIIIIIIAI1III111111112IA211II111111112IIII1IIIIIIIIIIIIIIIII
IIIIIIIIIIIA11III111111112IA211II111111112IIII1IIIIIIIIIIIIIIIII
IIIIIIIIIIIA11III111111112IA111II111111112IIII1IIIIIIIIIIIIIIIII
IIIIIIIIIIIA11111111111111IA111II111111112IIII1IIIIIIIIIIIIIIIII
IIIIIIIIIIIA11111111111111IA11111111111111IIII1IIIIIIIIIIIIIIIII
IIIIIIIIIIIAIIIIIIIIIIIIIIIIIIIIIIIIIIIIIIIIIIIIIIIIIIIIIIIIIIII
IIIIIIIIIIIAIIIIIIIIIIIIIIIAIIIIIIIIIIIIIIIIIIIIIIIIIIIIIIIIIIII
IIIIIIIIIIIIIIIIIIIIIIIIIIIA2IIIIIIIIIIIIIIIIIIIIIIIIIIIIIIIIIII
IIIIIIIIIIIA2IIIIIIIIIIIIIIA2IIIIIIIIIIIIIIIIIIIIIIIIIIIIIIIIIII
IIIIIIIIIIIA2IIIIIIIIIIIIIIA1IIIIIIIIIIIIIIIIIIIIIIIIIIIIIIIIIII
IIIIIIIIIIIA1IIIIIIIIIIIIIIIIIIIIIIIIIIIIIIIIIIIIIIIIIIIIIIIIIII
IIIIIIIIIIIAIIIIIIIIIIIIIIIIIIIIIIIIIIIIIIIIIIIIIIIIIIIIIIIIIIII
IIIIIIIIIIIAIIIIIIIIIIIIIIIAIIIIIIIIIIIIIIIIIIIIIIIIIIIIIIIIIIII
IIIIIIIIIIIAIIIIIIIIIIIIIIIA2IIIIIIIIIIIIIIIIIIIIIIIIIIIIIIIIIII
IIIIIIIIIIIA1IIIIIIIIIIIIIIA2IIIIIIIIIIIIIIIIIIIIIIIIIIIIIIIIIII
IIIIIIIIIIIA1IIIIIIIIIIIIIIA1IIIIIIIIIIIIIIIIIIIIIIIIIIIIIIIIIII
IIIIIIIIIIIA1IIIIIIIIIIIIIIIIIIIIIIIIIIIIIIIIIIIIIIIIIIIIIIIIIII
IIIIIIIIIIIA1IIIIIIIIIIIIIIA1IIIIIIIIIIIIIIIIIIIIIIIIIIIIIIIIIII
IIIIIIIIIIIA12IIIIIIIIIIIIIA1IIIIIIIIIIIIIIIIIIIIIIIIIIIIIIIIIII
IIIIIIIIIIIA12IIIIIIIIIIIIIA12IIIIIIIIIIIIIIIIIIIIIIIIIIIIIIIIII
IIIIIIIIIIIAI2IIIII22IIIIII22IIIIIIIIIIIIIIIIIIIIIIIIIIIIIIIIIII
IIIIIIIIIIIAI2IIIII22IIIIIIA111II2IIIIIIIIIIIIIIIIIIIIIIIIIIIIII
IIIIIIIIIIIA12IIIII22IIIIIIA111II2IIIIIIIIIIIIIIIIIIIIIIIIIIIIII
IIIIIIIIIIIIIIIIIIIIIIIIIIIA1IIIIIIIIIIIIIIIIIIIIIIIIIIIIIIIIIII
IIIIIIIIIIIA1IIIIIIIIIIIIIIA1IIIIIIIIIIIIIIIIIIIIIIIIIIIIIIIIIII
IIIIIIIIIIIAIIIIIIIIIIIIIIIIIIIIIIIIIIIIIIIIIIIIIIIIIIIIIIIIIIII
IIIIIIIIIIIAIIIIIIIIIIIIIIIAIIIIIIIIIIIIIIIIIIIIIIIIIIIIIIIIIIII
IIIIIIIIIIIAIIIIIIIIIIIIIIIA2IIIIIIIIIIIIIIIIIIIIIIIIIIIIIIIIIII
IIIIIIIIIIIA1IIIIIIIIIIIIIIIIIIIIIIIIIIIIIIIIIIIIIIIIIIIIIIIIIII
IIIIIIIIIIIA1IIIIIIIIIIIIIIA1IIIIIIIIIIIIIIIIIIIIIIIIIIIIIIIIIII
IIIIIIIIIIIA1IIIIIIIIIIIIIIA12IIIIIIIIIIIIIIIIIIIIIIIIIIIIIIIIII
IIIIIIIIIIIA12IIIIIIIIIIIIIA12IIIIIIIIIIIIIIIIIIIIIIIIIIIIIIIIII
IIIIIIIIIIIA1IIIIIIIIIIIIIIIIIIIIIIIIIIIIIIIIIIIIIIIIIIIIIIIIIII
IIIIIIIIIIIA1IIIIIIIIIIIIIIA1IIIIIIIIIIIIIIIIIIIIIIIIIIIIIIIIIII
IIIIIIIIIIIA1111III111111IIIIIIIIIIIIIIIIIIIIIIIIIIIIIIIIIIIIIII
IIIIIIIIIIIA1111III1111111I1IIIIIIIIIIIIIIIIIIIIIIIIIIIIIIIIIIII
IIIIIIIIIIIA1111III1111111IA1111III111111IIIIIIIIIIIIIIIIIIIIIII
IIIIIIIIIIIA1111III1111111IA1111III1111111I1IIIIIIIIIIIIIIIIIIII
IIIIIIIIIIIIIIIIIIIIIIIIIIIA2IIIIIIIIIIIIIIIIIIIIIIIIIIIIIIIIIII
IIIIIIIIIIIA2IIIIIIIIIIIIIIA2IIIIIIIIIIIIIIIIIIIIIIIIIIIIIIIIIII
IIIIIIIIIIIA2IIIIIIIIIIIIIIA12IIIIIIIIIIIIIIIIIIIIIIIIIIIIIIIIII
IIIIIIIIIIIA12IIIIIIIIIIIIIA12IIIIIIIIIIIIIIIIIIIIIIIIIIIIIIIIII
IIIIIIIIIIIA11111IIIIIIIIIIA12IIIIIIIIIIIIIIIIIIIIIIIIIIIIIIIIII
IIIIIIIIIIIA111111111IIIIIIA12IIIIIIIIIIIIIIIIIIIIIIIIIIIIIIIIII
IIIIIIIIIIIA11111111111IIIIA12IIIIIIIIIIIIIIIIIIIIIIIIIIIIIIIIII
IIIIIIIIIIIA11111111111IIIIA11111111111I11IIIIIIIIIIIIIIIIIIIIII
IIIIIIIIIIIA11111111111I11IA11111111111I11IIIIIIIIIIIIIIIIIIIIII
IIIIIIIIIIIA1IIIIIIIIIIIIIIIIIIIIIIIIIIIIIIIIIIIIIIIIIIIIIIIIIII
IIIIIIIIIIIA1IIIIIIIIIIIIIIA1IIIIIIIIIIIIIIIIIIIIIIIIIIIIIIIIIII
IIIIIIIIIIIAI1III2IIIIIIIIIIII1IIIIIIIIIIIIIIIIIIIIIIIIIIIIIIIII
IIIIIIIIIIIA21III2IIIIIIIIIIII1IIIIIIIIIIIIIIIIIIIIIIIIIIIIIIIII
IIIIIIIIIIIA21III2IIIIIIIIIA2I1IIIIIIIIIIIIIIIIIIIIIIIIIIIIIIIII
IIIIIIIIIIIA21III2IIIIIIIIIA121IIIIIIIIIIIIIIIIIIIIIIIIIIIIIIIII
IIIIIIIIIIIA11III2IIIIIIIIIA121IIIIIIIIIIIIIIIIIIIIIIIIIIIIIIIII
IIIIIIIIIIIA1IIIIIIIIIIIIIIIIIIIIIIIIIIIIIIIIIIIIIIIIIIIIIIIIIII
IIIIIIIIIIIA1IIIIIIIIIIIIIIA1IIIIIIIIIIIIIIIIIIIIIIIIIIIIIIIIIII
IIIIIIIIIIIA1IIIIIIIIIIIIIIIIIIIIIIIIIIIIIIIIIIIIIIIIIIIIIIIIIII
IIIIIIIIIIIA1IIIIIIIIIIIIIIAIIIIIIIIIIIIIIIIIIIIIIIIIIIIIIIIIIII
IIIIIIIIIIIA1IIIIIIIIIIIIIIA1IIIIIIIIIIIIIIIIIIIIIIIIIIIIIIIIIII
IIIIIIIIIIIIIIIIIIIIIIIIIIIA122IIIIIIIIIIIIIIIIIIIIIIIIIIIIIIIII
IIIIIIIIIIIA1IIIIII111IIIIIA122IIIIIIIIIIIIIIIIIIIIIIIIIIIIIIIII
IIIIIIIIIIIA12IIIII111IIIIIA122IIIIIIIIIIIIIIIIIIIIIIIIIIIIIIIII
IIIIIIIIIIIA1IIIIIIIIIIIIIIIIIIIIIIIIIIIIIIIIIIIIIIIIIIIIIIIIIII
IIIIIIIIIIIA1IIIIIIIIIIIIIIA1IIIIIIIIIIIIIIIIIIIIIIIIIIIIIIIIIII
IIIIIIIIIIIA12IIIIIIIIIIIIIA1IIIIIIIIIIIIIIIIIIIIIIIIIIIIIIIIIII
IIIIIIIIIIIA12IIIIIIIIIIIIIA12IIIIIIIIIIIIIIIIIIIIIIIIIIIIIIIIII
IIIIIIIIIIIAIIIIIIIIIIIIIIIIII2IIIIIIIIIIIIIIIIIIIIIIIIIIIIIIIII
IIIIIIIIIIIAIIIIIIIIIIIIIIIA111I2IIIII2IIIIII2IIIIIIIIIIIIIIIIII
IIIIIIIIIIIA111I2IIIII2IIIIA111I2IIIII2IIIIII2IIIIIIIIIIIIIIIIII
IIIIIIIIIIIA111I2I22II222IIA111I2IIIII2IIIIII2IIIIIIIIIIIIIIIIII
IIIIIIIIIIIA111I2I22II222IIA111I2I22II222IIII21IIIIIIIIIIIIIIIII
IIIIIIIIIIIIIIIIIIIIIIIIIIIA1IIIIIIIIIIIIIIIIIIIIIIIIIIIIIIIIIII
IIIIIIIIIIIAI2IIIIIIIIIIIIIIIIIIIIIIIIIIIIIIIIIIIIIIIIIIIIIIIIII
IIIIIIIIIIIAI2IIIIIIIIIIIIIA1IIIIIIIIIIIIIIIIIIIIIIIIIIIIIIIIIII
IIIIIIIIIIIA12IIIIIIIIIIIIIA1IIIIIIIIIIIIIIIIIIIIIIIIIIIIIIIIIII
IIIIIIIIIIIA12IIIIIIIIIIIIIA12IIIIIIIIIIIIIIIIIIIIIIIIIIIIIIIIII
IIIIIIIIIIIA1IIIIIIIIIIIIIIIIIIIIIIIIIIIIIIIIIIIIIIIIIIIIIIIIIII
IIIIIIIIIIIA1IIIIIIIIIIIIIIA1IIIIIIIIIIIIIIIIIIIIIIIIIIIIIIIIIII
IIIIIIIIIIIA12IIIIIIIIIIIIIA1IIIIIIIIIIIIIIIIIIIIIIIIIIIIIIIIIII
IIIIIIIIIIIIIIIIIIIIIIIIIIIA1IIIIIIIIIIIIIIIIIIIIIIIIIIIIIIIIIII
IIIIIIIIIIIAI11I1111111111IA1IIIIIIIIIIIIIIIIIIIIIIIIIIIIIIIIIII
IIIIIIIIIIIA111I1111111111IA1IIIIIIIIIIIIIIIIIIIIIIIIIIIIIIIIIII
IIIIIIIIIIIA111I1111111111IA1I2IIIIIIIIIIIIIIIIIIIIIIIIIIIIIIIII
IIIIIIIIIIIIIIIIIIIIIIIIIIIAI1I1I111111111I1IIIIIIIIIIIIIIIIIIII
IIIIIIIIIIIAII111111II11111AI1I1I111111111I1IIIIIIIIIIIIIIIIIIII
IIIIIIIIIIIAII111111II11111AI111111111111111IIIIIIIIIIIIIIIIIIII
IIIIIIIIIIIA1I111111II11111AI111111111111111IIIIIIIIIIIIIIIIIIII
IIIIIIIIIIIIIIIIIIIIIIIIIIIAI2IIIIIIIIIIIIIIIIIIIIIIIIIIIIIIIIII
IIIIIIIIIIIA2IIIIIIIIIIIIIIIIIIIIIIIIIIIIIIIIIIIIIIIIIIIIIIIIIII
IIIIIIIIIIIIIIIIIIIIIIIIIIIA1IIIIIII2IIIIIIIIIIIIIIIIIIIIIIIIIII
IIIIIIIIIIIA1IIIIIII2IIIIIIIIIIIIIIIIIIIIIIIIIIIIIIIIIIIIIIIIIII
IIIIIIIIIIIA1IIIIIII2IIIIIIA1IIIIIII2IIIIIIIIIIIIIIIIIIIIIIIIIII
IIIIIIIIIIIIIIIIIIIIIIIIIIIAI2IIIIIIIIIIIIIIIIIIIIIIIIIIIIIIIIII
IIIIIIIIIIIA2IIIIIIIIIIIIIIAI2IIIIIIIIIIIIIIIIIIIIIIIIIIIIIIIIII
IIIIIIIIIIIA2IIIIIIIIIIIIIIA22IIIIIIIIIIIIIIIIIIIIIIIIIIIIIIIIII
IIIIIIIIIIIA1IIIIIIIIIIIIIIA22IIIIIIIIIIIIIIIIIIIIIIIIIIIIIIIIII
IIIIIIIIIIIAI2IIIIIIIIIIIIIIIIIIIIIIIIIIIIIIIIIIIIIIIIIIIIIIIIII
IIIIIIIIIIIAI2IIIIIIIIIIIIIA2IIIIIIIIIIIIIIIIIIIIIIIIIIIIIIIIIII
IIIIIIIIIIIIIIIIIIIIIIIIIIIAIIIIIIIIIIIIIIIIII2IIIIIIIIIIIIIIIII
IIIIIIIIIIIA1I222IIIIIIIIIIAIIIIIIIIIIIIIIIIII2IIIIIIIIIIIIIIIII
IIIIIIIIIIIA1I222IIIIIIIIIIA1I222IIIIIIIIIIIII2IIIIIIIIIIIIIIIII
IIIIIIIIIIIA12222IIIIIIIIIIA1I222IIIIIIIIIIIII2IIIIIIIIIIIIIIIII
IIIIIIIIIIIA12222IIIIIIIIIIA12222IIIIIIIIIIIII2IIIIIIIIIIIIIIIII
IIIIIIIIIIIA12222IIIIIIIIIIA11122IIIIIIIIIIIII2IIIIIIIIIIIIIIIII
IIIIIIIIIIIA11122IIIIIIIIIIA11122IIIIIIIIIIIII2IIIIIIIIIIIIIIIII
IIIIIIIIIIIA2IIIIIIIIIIIIIIIIIIIIIIIIIIIIIIIIIIIIIIIIIIIIIIIIIII
IIIIIIIIIIIA2IIIIIIIIIIIIIIA2IIIIIIIIIIIIIIIIIIIIIIIIIIIIIIIIIII
IIIIIIIIIIIIIIIIIIIIIIIIIIIA1IIIIIIIIIIIIIIIIIIIIIIIIIIIIIIIIIII
IIIIIIIIIIIAIIIIIIIIIIIIIIIA1IIIIIIIIIIIIIIIIIIIIIIIIIIIIIIIIIII
IIIIIIIIIIIA1IIIIIIIIIIIIIIIIIIIIIIIIIIIIIIIIIIIIIIIIIIIIIIIIIII
IIIIIIIIIIIA1IIIIIIIIIIIIIIA1IIIIIIIIIIIIIIIIIIIIIIIIIIIIIIIIIII
IIIIIIIIIIIA1I2IIIIIIIIIIIIA1IIIIIIIIIIIIIIIIIIIIIIIIIIIIIIIIIII
IIIIIIIIIIIAI2IIIIIIIIIIIIIIIIIIIIIIIIIIIIIIIIIIIIIIIIIIIIIIIIII
IIIIIIIIIIIAI2IIIIIIIIIIIIIA2IIIIIIIIIIIIIIIIIIIIIIIIIIIIIIIIIII
IIIIIIIIIIIA12IIIIIIIIIIIIIA2IIIIIIIIIIIIIIIIIIIIIIIIIIIIIIIIIII
IIIIIIIIIIIA12IIIIIIIIIIIIIA1IIIIIIIIIIIIIIIIIIIIIIIIIIIIIIIIIII
IIIIIIIIIIIA1111111I1111111A1IIIIIIIIIIIIIIIIIIIIIIIIIIIIIIIIIII
IIIIIIIIIIIAI111IIIIIIIIIIIIIIIIIIIIIIIIIIIIIIIIIIIIIIIIIIIIIIII
IIIIIIIIIIIAI111I11111I1111IIIIIIIIIIIIIIIIIIIIIIIIIIIIIIIIIIIII
IIIIIIIIIIIAI111I11111I1111A1IIIIII22IIIIIIIIIIIIIIIIIIIIIIIIIII
IIIIIIIIIIIA1111I11111I1111A1IIIIII22IIIIIIIIIIIIIIIIIIIIIIIIIII
IIIIIIIIIIIIIIIIIIIIIIIIIIIA1IIIIIIIIIIIIIIIIIIIIIIIIIIIIIIIIIII
IIIIIIIIIIIAIIIIIIIIIIIIIIIA1IIIIIIIIIIIIIIIIIIIIIIIIIIIIIIIIIII
IIIIIIIIIIIA1IIIIIIIIIIIIIIIIIIIIIIIIIIIIIIIIIIIIIIIIIIIIIIIIIII
IIIIIIIIIIIA1IIIIIIIIIIIIIIA1IIIIIIIIIIIIIIIIIIIIIIIIIIIIIIIIIII
IIIIIIIIIIIA1IIIIIIIIIIIIIIIIIIIIIIIIIIIIIIIIIIIIIIIIIIIIIIIIIII
IIIIIIIIIIIA1IIIIIIIIIIIIIIA1IIIIIIIIIIIIIIIIIIIIIIIIIIIIIIIIIII
IIIIIIIIIIIA1IIIIIIIIIIIIIIIIIIIIIIIIIIIIIIIIIIIIIIIIIIIIIIIIIII
IIIIIIIIIIIA1IIIIIIIIIIIIIIA1IIIIIIIIIIIIIIIIIIIIIIIIIIIIIIIIIII
IIIIIIIIIIIA1IIIIIIIIIIIIIIA1I2IIIIIIIIIIIIIIIIIIIIIIIIIIIIIIIII
IIIIIIIIIIIA1111111111I1111IIIIIIIIIIIIIIIIIIIIIIIIIIIIIIIIIIIII
IIIIIIIIIIIA1111111111I1111A1111111111I1111IIIIIIIIIIIIIIIIIIIII
IIIIIIIIIIIIIIIIIIIIIIIIIIIA1IIIIII22IIIIIIIIIIIIIIIIIIIIIIIIIII
IIIIIIIIIIIAIIIIIIIIIIIIIIIA1IIIIII22IIIIIIIIIIIIIIIIIIIIIIIIIII
IIIIIIIIIIIAIIIIIIIIIIIIIIIA12IIIII22IIIIIIIIIIIIIIIIIIIIIIIIIII
IIIIIIIIIIIA12IIIIIIIIIIIIIA12IIIII22IIIIIIIIIIIIIIIIIIIIIIIIIII
IIIIIIIIIIIA12IIII11II12II2A12IIIII22IIIIIIIIIIIIIIIIIIIIIIIIIII
IIIIIIIIIIIA12IIII11II12II2A12IIII112I12II22I2IIIIIIIIIIIIIIIIII
IIIIIIIIIIIAIIIIIIIIIIIIIIIIIIIIIIIIIIIIIIIIIIIIIIIIIIIIIIIIIIII
IIIIIIIIIIIAIIIIIIIIIIIIIIIAIIIIIIIIIIIIIIIIIIIIIIIIIIIIIIIIIIII
IIIIIIIIIIIAIIIIIIIIIIIIIIIA1IIIIIIIIIIIIIIIIIIIIIIIIIIIIIIIIIII
IIIIIIIIIIIA1IIIIIIIIIIIIIIA1IIIIIIIIIIIIIIIIIIIIIIIIIIIIIIIIIII
IIIIIIIIIIIA11I11II1I1I11I11I1IIIIIIIIIIIIIIIIIIIIIIIIIIIIIIIIII
IIIIIIIIIIIA11I11II1I1I11I1A11I11II1I1I11I11I1IIIIIIIIIIIIIIIIII
IIIIIIIIIIIA1IIIIIIIIIIIIIIIIIIIIIIIIIIIIIIIIIIIIIIIIIIIIIIIIIII
IIIIIIIIIIIA1IIIIIIIIIIIIIIA1IIIIIIIIIIIIIIIIIIIIIIIIIIIIIIIIIII
IIIIIIIIIIIA1IIIIIIIIIIIIIIIIIIIIIIIIIIIIIIIIIIIIIIIIIIIIIIIIIII
IIIIIIIIIIIA1IIIIIIIIIIIIIIA1IIIIIIIIIIIIIIIIIIIIIIIIIIIIIIIIIII
IIIIIIIIIIIIIIIIIIIIIIIIIIIA1I1IIII1111IIII11IIIIIIIIIIIIIIIIIII
IIIIIIIIIIIA1I1IIII1111IIIIA1I1IIII1111IIII11IIIIIIIIIIIIIIIIIII
IIIIIIIIIIIA121IIII1111IIIIA1I1IIII1111IIII11IIIIIIIIIIIIIIIIIII
IIIIIIIIIIIA121IIII1111IIIIA121IIII1111IIII11IIIIIIIIIIIIIIIIIII
IIIIIIIIIIIAIIIIIIIIIIIIIIIIIIIIIIIIIIIIIIIIIIIIIIIIIIIIIIIIIIII
IIIIIIIIIIIAIIIIIIIIIIIIIIIAIIIIIIIIIIIIIIIIIIIIIIIIIIIIIIIIIIII
IIIIIIIIIIIA2IIIIIIIIIIIIIIAIIIIIIIIIIIIIIIIIIIIIIIIIIIIIIIIIIII
IIIIIIIIIIIA2IIIIIIIIIIIIIIA12IIIIIIIIIIIIIIIIIIIIIIIIIIIIIIIIII
IIIIIIIIIIIA12IIIIIIIIIIIIIA12IIIIIIIIIIIIIIIIIIIIIIIIIIIIIIIIII
IIIIIIIIIIIA11II1I1I1I1II11111IIIIIIIIIIIIIIIIIIIIIIIIIIIIIIIIII
IIIIIIIIIIIA11II1I1I1I1II11A11II1I1I1I1II11111IIIIIIIIIIIIIIIIII
IIIIIIIIIIIA11II1I1I1I1II11A112I1I1I1I1II11111IIIIIIIIIIIIIIIIII
IIIIIIIIIIIA11II1I1I1I1II11A112I1I1I1I1II111112IIIIIIIIIIIIIIIII
IIIIIIIIIIIA11221I1I1I1II11A112I1I1I1I1II111112IIIIIIIIIIIIIIIII
IIIIIIIIIIIA11221I1I1I1II11A11221I1I1I1II111112IIIIIIIIIIIIIIIII
IIIIIIIIIIIIIIIIIIIIIIIIIIIA2IIIIIIIIIIIIIIIIIIIIIIIIIIIIIIIIIII
IIIIIIIIIIIA1IIIIIIIIIIIIIIIIIIIIIIIIIIIIIIIIIIIIIIIIIIIIIIIIIII
IIIIIIIIIIIA1IIIIIIIIIIIIIIAIIIIIIIIIIIIIIIIIIIIIIIIIIIIIIIIIIII
IIIIIIIIIIIA1IIIIIIIIIIIIIIA1IIIIIIIIIIIIIIIIIIIIIIIIIIIIIIIIIII
IIIIIIIIIIIA1IIIIIIIIIIIIIIIIIIIIIIIIIIIIIIIIIIIIIIIIIIIIIIIIIII
IIIIIIIIIIIA1IIIIIIIIIIIIIIAI2IIIIIIIIIIIIIIIIIIIIIIIIIIIIIIIIII
IIIIIIIIIIIA1IIIIIIIIIIIIIIA22IIIIIIIIIIIIIIIIIIIIIIIIIIIIIIIIII
IIIIIIIIIIIIIIIIIIIIIIIIIIIA111II2222222I222IIIIIIIIIIIIIIIIIIII
IIIIIIIIIIIAIIIIIIIIIIIIIIIA111II2222222I222IIIIIIIIIIIIIIIIIIII
IIIIIIIIIIIA1IIIIIIIIIIIIIIA111II2222222I222IIIIIIIIIIIIIIIIIIII
IIIIIIIIIIIA1IIIII111212II2A111II2222222I222IIIIIIIIIIIIIIIIIIII
IIIIIIIIIIIIIIIIIIIIIIIIIIIA11111111111111IIIIIIIIIIIIIIIIIIIIII
IIIIIIIIIIIIIIIIIIIIIIIIIIIA11111111111111I1IIIIIIIIIIIIIIIIIIII
IIIIIIIIIIIA1I1111111I1I111A11111111111111I1IIIIIIIIIIIIIIIIIIII
IIIIIIIIIIIA1I1111111I1I111A111111111111111111IIIIIIIIIIIIIIIIII
IIIIIIIIIIIIIIIIIIIIIIIIIIIA1IIIIIIIIIIIIIIIIIIIIIIIIIIIIIIIIIII
IIIIIIIIIIIAIIIIIIIIIIIIIIIIIIIIIIIIIIIIIIIIIIIIIIIIIIIIIIIIIIII
IIIIIIIIIIIIIIIIIIIIIIIIIIIA1IIIIIIIIIIIIIIIIIIIIIIIIIIIIIIIIIII
IIIIIIIIIIIA1IIIIIII2IIIIIIIIIIIIIIIIIIIIIIIIIIIIIIIIIIIIIIIIIII
IIIIIIIIIIIA1IIIIIII2IIIIIIA1IIIIIII2IIIIIIIIIIIIIIIIIIIIIIIIIII
IIIIIIIIIIIA12IIIIII2IIIIIIA1IIIIIII2IIIIIIIIIIIIIIIIIIIIIIIIIII
IIIIIIIIIIIA12IIIIII2IIIIIIA12IIIIII2IIIIIIIIIIIIIIIIIIIIIIIIIII
IIIIIIIIIIIIIIIIIIIIIIIIIIIAI2IIIIIIIIIIIIIIIIIIIIIIIIIIIIIIIIII
IIIIIIIIIIIA2IIIIIIIIIIIIIIAI2IIIIIIIIIIIIIIIIIIIIIIIIIIIIIIIIII
IIIIIIIIIIIA2IIIIIIIIIIIIIIA12IIIIIIIIIIIIIIIIIIIIIIIIIIIIIIIIII
IIIIIIIIIIIA1IIIIIIIIIIIIIIA12IIIIIIIIIIIIIIIIIIIIIIIIIIIIIIIIII
IIIIIIIIIIIA2IIIIIIIIIIIIIIIIIIIIIIIIIIIIIIIIIIIIIIIIIIIIIIIIIII
IIIIIIIIIIIA2IIIIIIIIIIIIIIA2IIIIIIIIIIIIIIIIIIIIIIIIIIIIIIIIIII
IIIIIIIIIIIIIIIIIIIIIIIIIIIAI1I111I11I11II22I2IIIIIIIIIIIIIIIIII
IIIIIIIIIIIAI1I111I11I11II2AI1I111I11I11II22I2IIIIIIIIIIIIIIIIII
IIIIIIIIIIIA21I111I11I11II2AI1I111I11I11II22I2IIIIIIIIIIIIIIIIII
IIIIIIIIIIIA21I111I11I11II2A11I111I11I11II22I2IIIIIIIIIIIIIIIIII
IIIIIIIIIIIA11I111I11I11II2A11I111I11I11II22I2IIIIIIIIIIIIIIIIII
IIIIIIIIIIIA11I111I11I11II2A112111I11I11II22I2IIIIIIIIIIIIIIIIII
IIIIIIIIIIIA1IIIIIIIIIIIIIIIIIIIIIIIIIIIIIIIIIIIIIIIIIIIIIIIIIII
IIIIIIIIIIIA1IIIIIIIIIIIIIIAIIIIIIIIIIIIIIIIIIIIIIIIIIIIIIIIIIII
IIIIIIIIIIIIIIIIIIIIIIIIIIIA1IIIIIIIIIIIIIIIIIIIIIIIIIIIIIIIIIII
IIIIIIIIIIIAIIIIIIIIIIIIIIIA1IIIIIIIIIIIIIIIIIIIIIIIIIIIIIIIIIII
IIIIIIIIIIIA1IIIIIIIIIIIIIIIIIIIIIIIIIIIIIIIIIIIIIIIIIIIIIIIIIII
IIIIIIIIIIIA1IIIIIIIIIIIIIIA1IIIIIIIIIIIIIIIIIIIIIIIIIIIIIIIIIII
IIIIIIIIIIIA1I2IIIIIIIIIIIIA1IIIIIIIIIIIIIIIIIIIIIIIIIIIIIIIIIII
IIIIIIIIIIIAI2IIIIIIIIIIIIIIIIIIIIIIIIIIIIIIIIIIIIIIIIIIIIIIIIII
IIIIIIIIIIIAI2IIIIIIIIIIIIIA2IIIIIIIIIIIIIIIIIIIIIIIIIIIIIIIIIII
IIIIIIIIIIIA12IIIIIIIIIIIIIA2IIIIIIIIIIIIIIIIIIIIIIIIIIIIIIIIIII
IIIIIIIIIIIA12IIIIIIIIIIIIIA1IIIIIIIIIIIIIIIIIIIIIIIIIIIIIIIIIII
IIIIIIIIIIIA1111111I1111111A1IIIIIIIIIIIIIIIIIIIIIIIIIIIIIIIIIII
IIIIIIIIIIIA11I1I1I11II11111IIIIIIIIIIIIIIIIIIIIIIIIIIIIIIIIIIII
IIIIIIIIIIIA11I1I1I11II1111A11I1I1I11II11111IIIIIIIIIIIIIIIIIIII
IIIIIIIIIIIIIIIIIIIIIIIIIIIA12IIIIIIIIIIIIIIIIIIIIIIIIIIIIIIIIII
IIIIIIIIIIIAIIIIIIIIIIIIIIIA12IIIIIIIIIIIIIIIIIIIIIIIIIIIIIIIIII
IIIIIIIIIIIAIIIIIIIIIIIIIIIIIIIIIIIIIIIIIIIIIIIIIIIIIIIIIIIIIIII
IIIIIIIIIIIAIIIIIIIIIIIIIIIAIIIIIIIIIIIIIIIIIIIIIIIIIIIIIIIIIIII
IIIIIIIIIIIAIIIIIIIIIIIIIIIA2IIIIIIIIIIIIIIIIIIIIIIIIIIIIIIIIIII
IIIIIIIIIIIA1IIIIIIIIIIIIIIIIIIIIIIIIIIIIIIIIIIIIIIIIIIIIIIIIIII
IIIIIIIIIIIA1IIIIIIIIIIIIIIA1IIIIIIIIIIIIIIIIIIIIIIIIIIIIIIIIIII
IIIIIIIIIIIA1IIIIIIIIIIIIIIA12IIIIIIIIIIIIIIIIIIIIIIIIIIIIIIIIII
IIIIIIIIIIIA12IIIIIIIIIIIIIA12IIIIIIIIIIIIIIIIIIIIIIIIIIIIIIIIII
IIIIIIIIIIIA1IIIIIIIIIIIIIIIIIIIIIIIIIIIIIIIIIIIIIIIIIIIIIIIIIII
IIIIIIIIIIIA1IIIIIIIIIIIIIIA1IIIIIIIIIIIIIIIIIIIIIIIIIIIIIIIIIII
IIIIIIIIIIIA1111111111I111IIIIIIIIIIIIIIIIIIIIIIIIIIIIIIIIIIIIII
IIIIIIIIIIIA1111111111I111I1IIIIIIIIIIIIIIIIIIIIIIIIIIIIIIIIIIII
IIIIIIIIIIIA1111111111I111IA1111111111I111I1IIIIIIIIIIIIIIIIIIII
IIIIIIIIIIIIIIIIIIIIIIIIII2AIIIIIIIIIIIIIIIIIIIIIIIIIIIIIIIIIIII
IIIIIIIIIIIA2IIIIIIIIIIIII2AIIIIIIIIIIIIIIIIIIIIIIIIIIIIIIIIIIII
IIIIIIIIIIIA2IIIIIIIIIIIII2A2IIIIIIIIIIIIIIIIIIIIIIIIIIIIIIIIIII
IIIIIIIIIIIA1IIIIIIIIIIIII2A2IIIIIIIIIIIIIIIIIIIIIIIIIIIIIIIIIII
IIIIIIIIIIIA12IIIIIIIIIIII2A2IIIIIIIIIIIIIIIIIIIIIIIIIIIIIIIIIII
IIIIIIIIIIIA12IIIIIIIIIIII2A1IIIIIIIIIIIIIIIIIIIIIIIIIIIIIIIIIII
IIIIIIIIIIIA11I1I111II1II11A1IIIIIIIIIIIIIIIIIIIIIIIIIIIIIIIIIII
IIIIIIIIIIIA11I1I111II1II11A11I1I111II1II1111IIIIIIIIIIIIIIIIIII
IIIIIIIIIIIAIIIIIIIIIIIIIIIIIIIIIIIIIIIIIIIIIIIIIIIIIIIIIIIIIIII
IIIIIIIIIIIAIIIIIIIIIIIIIIIAIIIIIIIIIIIIIIIIIIIIIIIIIIIIIIIIIIII
IIIIIIIIIIIAIIIIIIIIIIIIIIIA1IIIIIIIIIIIIIIIIIIIIIIIIIIIIIIIIIII
IIIIIIIIIIIAIIIIIIIIIIIIIIIIII1IIIIIIIIIIIIIIIIIIIIIIIIIIIIIIIII
IIIIIIIIIIIA12IIIIIIIIIIIIIIII1IIIIIIIIIIIIIIIIIIIIIIIIIIIIIIIII
IIIIIIIIIIIA12IIIIIIIIIIIIIA121IIIIIIIIIIIIIIIIIIIIIIIIIIIIIIIII
IIIIIIIIIIIA2IIIIIIIIIIIIIIIIIIIIIIIIIIIIIIIIIIIIIIIIIIIIIIIIIII
IIIIIIIIIIIA2IIIIIIIIIIIIIIA2IIIIIIIIIIIIIIIIIIIIIIIIIIIIIIIIIII
IIIIIIIIIIIA2IIIIIIIIIIIIIIA1IIIIIIIIIIIIIIIIIIIIIIIIIIIIIIIIIII
IIIIIIIIIIIA1IIIIIIIIIIIIIIA1IIIIIIIIIIIIIIIIIIIIIIIIIIIIIIIIIII
IIIIIIIIIIIAIIIIIIIIIIIIIIIIIIIIIIIIIIIIIIIIIIIIIIIIIIIIIIIIIIII
IIIIIIIIIIIAIIIIIIIIIIIIIIIA1IIIIIIIIIIIIIIIIIIIIIIIIIIIIIIIIIII
IIIIIIIIIIIAIIIIIIIIIIIIIIIA12IIIIIIIIIIIIIIIIIIIIIIIIIIIIIIIIII
IIIIIIIIIIIA12IIIIIIIIIIIIIA12IIIIIIIIIIIIIIIIIIIIIIIIIIIIIIIIII
IIIIIIIIIIIIIIIIIIIIIIIIIIIA1111I1I111122IIIIIIIIIIIIIIIIIIIIIII
IIIIIIIIIIIIIIIIIIIIIIIIIIIA1111I1I111122I2IIIIIIIIIIIIIIIIIIIII
IIIIIIIIIIIA1IIIIII22IIIIIIA1111I1I111122I2IIIIIIIIIIIIIIIIIIIII
IIIIIIIIIIIA12IIIII22IIIIIIA1111I1I111122I2IIIIIIIIIIIIIIIIIIIII
IIIIIIIIIIIA2IIIIIIIIIIIIIIIIIIIIIIIIIIIIIIIIIIIIIIIIIIIIIIIIIII
IIIIIIIIIIIA2IIIIIIIIIIIIIIA2IIIIIIIIIIIIIIIIIIIIIIIIIIIIIIIIIII
IIIIIIIIIIIA1IIIIIIIIIIIIIIA2IIIIIIIIIIIIIIIIIIIIIIIIIIIIIIIIIII
IIIIIIIIIIIA1IIIIIIIIIIIIIIA1IIIIIIIIIIIIIIIIIIIIIIIIIIIIIIIIIII
IIIIIIIIIIIA1IIIIIIIIIIIIIIA12IIIIIIIIIIIIIIIIIIIIIIIIIIIIIIIIII
IIIIIIIIIIIAIIIIIIIIIIIIIIIIII2IIIIIIIIIIIIIIIIIIIIIIIIIIIIIIIII
IIIIIIIIIIIAIIIIIIIIIIIIIIIA111I2IIIIIIIIIIIIIIIIIIIIIIIIIIIIIII
IIIIIIIIIIIA111I2IIIIIIIIIIA111I2IIIIIIIIIIIIIIIIIIIIIIIIIIIIIII
IIIIIIIIIIIA111I21I2II22II2A111I2IIIIIIIIIIIIIIIIIIIIIIIIIIIIIII
IIIIIIIIIIIA111I21I2II22II2A111I21I2II22II22I21IIIIIIIIIIIIIIIII
IIIIIIIIIIIIIIIIIIIIIIIIIIIA2IIIIIIIIIIIIIIIIIIIIIIIIIIIIIIIIIII
IIIIIIIIIIIA1IIIIIIIIIIIIIIIIIIIIIIIIIIIIIIIIIIIIIIIIIIIIIIIIIII
IIIIIIIIIIIA1IIIIIIIIIIIIIIAI2IIIIIIIIIIIIIIIIIIIIIIIIIIIIIIIIII
IIIIIIIIIIIA1IIIIIIIIIIIIIIA12IIIIIIIIIIIIIIIIIIIIIIIIIIIIIIIIII
IIIIIIIIIIIA1IIIIIIIIIIIIIIIIIIIIIIIIIIIIIIIIIIIIIIIIIIIIIIIIIII
IIIIIIIIIIIA1IIIIIIIIIIIIIIAI2IIIIIIIIIIIIIIIIIIIIIIIIIIIIIIIIII
IIIIIIIIIIIA12IIIIIIIIIIIIIAI2IIIIIIIIIIIIIIIIIIIIIIIIIIIIIIIIII
IIIIIIIIIIIA12IIIIIIIIIIIIIA22IIIIIIIIIIIIIIIIIIIIIIIIIIIIIIIIII
IIIIIIIIIIIIIIIIIIIIIIIIIIIAI11I11111IIIIIIIIIIIIIIIIIIIIIIIIIII
IIIIIIIIIIIIIIIIIIIIIIIIIIIAI11I111111111111IIIIIIIIIIIIIIIIIIII
IIIIIIIIIIIAI11I11111111111AI11I111111111111IIIIIIIIIIIIIIIIIIII
IIIIIIIIIIIAI11I11111111111A111I111111111111IIIIIIIIIIIIIIIIIIII
IIIIIIIIIIIA111I11111111111A111I111111111111IIIIIIIIIIIIIIIIIIII
IIIIIIIIIIIIIIIIIIIIIIIIIIIA1IIIIII11IIIIII11IIIIIIIIIIIIIIIIIII
IIIIIIIIIIIA1111I11I1I1I112A1IIIIII11IIIIII11IIIIIIIIIIIIIIIIIII
IIIIIIIIIIIA1111I11I1I1I112A1111I1111I1I11211IIIIIIIIIIIIIIIIIII
IIIIIIIIIIIIIIIIIIIIIIIIIIIA1IIIIIIIIIIIIIIIIIIIIIIIIIIIIIIIIIII
IIIIIIIIIIIAIIIIIIIIIIIIIIIIIIIIIIIIIIIIIIIIIIIIIIIIIIIIIIIIIIII
IIIIIIIIIIIIIIIIIIIIIIIIIIIA12IIIIIIIIIIIIIIIIIIIIIIIIIIIIIIIIII
IIIIIIIIIIIA2IIIIIII2IIIIIIIIIIIIIIIIIIIIIIIIIIIIIIIIIIIIIIIIIII
IIIIIIIIIIIA2IIIIIII2IIIIIIA2IIIIIII2IIIIIIIIIIIIIIIIIIIIIIIIIII
IIIIIIIIIIIA1111II1I2IIIIIIA2IIIIIII2IIIIIIIIIIIIIIIIIIIIIIIIIII
IIIIIIIIIIIA1111II1I2IIIIIIA1111II1I2IIIIIIIIIIIIIIIIIIIIIIIIIII
IIIIIIIIIIIIIIIIIIIIIIIIIIIA1I2IIIIIIIIIIIIIIIIIIIIIIIIIIIIIIIII
IIIIIIIIIIIAIIIIIIIIIIIIIIIA1I2IIIIIIIIIIIIIIIIIIIIIIIIIIIIIIIII
IIIIIIIIIIIA1IIIIIIIIIIIIIIA1I2IIIIIIIIIIIIIIIIIIIIIIIIIIIIIIIII
IIIIIIIIIIIA1IIIIIIIIIIIIIIA122IIIIIIIIIIIIIIIIIIIIIIIIIIIIIIIII
IIIIIIIIIIIAI2IIIIIIIIIIIIIIIIIIIIIIIIIIIIIIIIIIIIIIIIIIIIIIIIII
IIIIIIIIIIIAI2IIIIIIIIIIIIIA2IIIIIIIIIIIIIIIIIIIIIIIIIIIIIIIIIII
IIIIIIIIIIIIIIIIIIIIIIIIIIIAIIIIIIIIIIIIIIIIII2IIIIIIIIIIIIIIIII
IIIIIIIIIIIA1I222IIIIIIIIIIAIIIIIIIIIIIIIIIIII2IIIIIIIIIIIIIIIII
IIIIIIIIIIIA1I222IIIIIIIIIIA1I222IIIIIIIIIIIII2IIIIIIIIIIIIIIIII
IIIIIIIIIIIA12222IIIIIIIIIIA1I222IIIIIIIIIIIII2IIIIIIIIIIIIIIIII
IIIIIIIIIIIA12222IIIIIIIIIIA12222IIIIIIIIIIIII2IIIIIIIIIIIIIIIII
IIIIIIIIIIIA12222IIIIIIIIIIA11112IIIIIIIIIIIII2IIIIIIIIIIIIIIIII
IIIIIIIIIIIA11112IIIIIIIIIIA11112IIIIIIIIIIIII2IIIIIIIIIIIIIIIII
IIIIIIIIIIIA2IIIIIIIIIIIIIIIIIIIIIIIIIIIIIIIIIIIIIIIIIIIIIIIIIII
IIIIIIIIIIIA2IIIIIIIIIIIIIIA2IIIIIIIIIIIIIIIIIIIIIIIIIIIIIIIIIII
IIIIIIIIIIIIIIIIIIIIIIIIIIIA1IIIIIIIIIIIIIIIIIIIIIIIIIIIIIIIIIII
IIIIIIIIIIIAIIIIIIIIIIIIIIIA1IIIIIIIIIIIIIIIIIIIIIIIIIIIIIIIIIII
IIIIIIIIIIIA1IIIIIIIIIIIIIIIIIIIIIIIIIIIIIIIIIIIIIIIIIIIIIIIIIII
IIIIIIIIIIIA1IIIIIIIIIIIIIIA1IIIIIIIIIIIIIIIIIIIIIIIIIIIIIIIIIII
IIIIIIIIIIIA122IIIIIIIIIIIIA1IIIIIIIIIIIIIIIIIIIIIIIIIIIIIIIIIII
IIIIIIIIIIIAI2IIIIIIIIIIIIIIIIIIIIIIIIIIIIIIIIIIIIIIIIIIIIIIIIII
IIIIIIIIIIIAI2IIIIIIIIIIIIIA2IIIIIIIIIIIIIIIIIIIIIIIIIIIIIIIIIII
IIIIIIIIIIIA12IIIIIIIIIIIIIA2IIIIIIIIIIIIIIIIIIIIIIIIIIIIIIIIIII
IIIIIIIIIIIA12IIIIIIIIIIIIIA1IIIIIIIIIIIIIIIIIIIIIIIIIIIIIIIIIII
IIIIIIIIIIIA1111111111I1111A1IIIIIIIIIIIIIIIIIIIIIIIIIIIIIIIIIII
IIIIIIIIIIIA11I1IIIIIIIIIIIIIIIIIIIIIIIIIIIIIIIIIIIIIIIIIIIIIIII
IIIIIIIIIIIA11I1I11111I1111IIIIIIIIIIIIIIIIIIIIIIIIIIIIIIIIIIIII
IIIIIIIIIIIA11I1I11111I1111A11I1I11111I1111IIIIIIIIIIIIIIIIIIIII
IIIIIIIIIIIIIIIIIIIIIIIIIIIAIIIIIIIIIIIIIIIIIIIIIIIIIIIIIIIIIIII
IIIIIIIIIIIA1IIIIIIIIIIIIIIAIIIIIIIIIIIIIIIIIIIIIIIIIIIIIIIIIIII
IIIIIIIIIIIAI2IIIIIIIIIIIIIIIIIIIIIIIIIIIIIIIIIIIIIIIIIIIIIIIIII
IIIIIIIIIIIAI2IIIIIIIIIIIIIAI2IIIIIIIIIIIIIIIIIIIIIIIIIIIIIIIIII
IIIIIIIIIIIAI2IIIIIIIIIIIIIA22IIIIIIIIIIIIIIIIIIIIIIIIIIIIIIIIII
IIIIIIIIIIIA1IIIIIIIIIIIIIIIIIIIIIIIIIIIIIIIIIIIIIIIIIIIIIIIIIII
IIIIIIIIIIIA1IIIIIIIIIIIIIIA1IIIIIIIIIIIIIIIIIIIIIIIIIIIIIIIIIII
IIIIIIIIIIIA1IIIIIIIIIIIIIIIIIIIIIIIIIIIIIIIIIIIIIIIIIIIIIIIIIII
IIIIIIIIIIIA1IIIIIIIIIIIIIIA1IIIIIIIIIIIIIIIIIIIIIIIIIIIIIIIIIII
IIIIIIIIIIIA1111I11111I111IIIIIIIIIIIIIIIIIIIIIIIIIIIIIIIIIIIIII
IIIIIIIIIIIA1111I11111I1111IIIIIIIIIIIIIIIIIIIIIIIIIIIIIIIIIIIII
IIIIIIIIIIIA1111I11111I1111A1111I11111I1111IIIIIIIIIIIIIIIIIIIII
IIIIIIIIIIIIIIIIIIIIIIIIIIIA1IIIIII22IIIIIIIIIIIIIIIIIIIIIIIIIII
IIIIIIIIIIIAIIIIIIIIIIIIIIIA1IIIIII22IIIIIIIIIIIIIIIIIIIIIIIIIII
IIIIIIIIIIIAIIIIIIIIIIIIIIIA12IIIII22IIIIIIIIIIIIIIIIIIIIIIIIIII
IIIIIIIIIIIA12IIIIIIIIIIIIIA12IIIII22IIIIIIIIIIIIIIIIIIIIIIIIIII
IIIIIIIIIIIA12IIII11I11I2I2A12IIIII22IIIIIIIIIIIIIIIIIIIIIIIIIII
IIIIIIIIIIIA12IIII11I11I2I2A12IIII11211I2I2I2IIIIIIIIIIIIIIIIIII
IIIIIIIIIIIAIIIIIIIIIIIIIIIIIIIIIIIIIIIIIIIIIIIIIIIIIIIIIIIIIIII
IIIIIIIIIIIAIIIIIIIIIIIIIIIAIIIIIIIIIIIIIIIIIIIIIIIIIIIIIIIIIIII
IIIIIIIIIIIAIIIIIIIIIIIIIIIA1IIIIIIIIIIIIIIIIIIIIIIIIIIIIIIIIIII
IIIIIIIIIIIA1IIIIIIIIIIIIIIA1IIIIIIIIIIIIIIIIIIIIIIIIIIIIIIIIIII
IIIIIIIIIIIA1II1I111I111III111IIIIIIIIIIIIIIIIIIIIIIIIIIIIIIIIII
IIIIIIIIIIIA1II1I111I111IIIA11I1I111I111III111IIIIIIIIIIIIIIIIII
IIIIIIIIIIIAIIIIIIIIIIIIIIIIIIIIIIIIIIIIIIIIIIIIIIIIIIIIIIIIIIII
IIIIIIIIIIIAIIIIIIIIIIIIIIIAIIIIIIIIIIIIIIIIIIIIIIIIIIIIIIIIIIII
IIIIIIIIIIIAIIIIIIIIIIIIIIIA2IIIIIIIIIIIIIIIIIIIIIIIIIIIIIIIIIII
IIIIIIIIIIIA1IIIIIIIIIIIIIIA2IIIIIIIIIIIIIIIIIIIIIIIIIIIIIIIIIII
IIIIIIIIIIIA1IIIIIIIIIIIIIIA1IIIIIIIIIIIIIIIIIIIIIIIIIIIIIIIIIII
IIIIIIIIIIIA2IIIIIIIIIIIIIIIIIIIIIIIIIIIIIIIIIIIIIIIIIIIIIIIIIII
IIIIIIIIIIIA2IIIIIIIIIIIIIIA2IIIIIIIIIIIIIIIIIIIIIIIIIIIIIIIIIII
IIIIIIIIIIIA2IIIIIIIIIIIIIIA12IIIIIIIIIIIIIIIIIIIIIIIIIIIIIIIIII
IIIIIIIIIIIA12IIIIIIIIIIIIIA12IIIIIIIIIIIIIIIIIIIIIIIIIIIIIIIIII
IIIIIIIIIIIIIIIIIIIIIIIIIIIAII11I12222I2222IIIIIIIIIIIIIIIIIIIII
IIIIIIIIIIIA12IIIIIIIIIIIIIAII11I12222I2222IIIIIIIIIIIIIIIIIIIII
IIIIIIIIIIIA12IIIIIIIIIIIIIAI211I12222I2222IIIIIIIIIIIIIIIIIIIII
IIIIIIIIIIIA12IIIIIIIIIIIIIA1211I12222I2222IIIIIIIIIIIIIIIIIIIII
IIIIIIIIIIIA2IIIIIIIIIIIIIIIIIIIIIIIIIIIIIIIIIIIIIIIIIIIIIIIIIII
IIIIIIIIIIIA2IIIIIIIIIIIIIIA2IIIIIIIIIIIIIIIIIIIIIIIIIIIIIIIIIII
IIIIIIIIIIIA1IIIIIIIIIIIIIIA2IIIIIIIIIIIIIIIIIIIIIIIIIIIIIIIIIII
IIIIIIIIIIIA1IIIIIIIIIIIIIIA1IIIIIIIIIIIIIIIIIIIIIIIIIIIIIIIIIII
IIIIIIIIIIIA1IIIIIIIIIIIIIIA12IIIIIIIIIIIIIIIIIIIIIIIIIIIIIIIIII
IIIIIIIIIIIAIIIIIIIIIIIIIIIIII2IIIIIIIIIIIIIIIIIIIIIIIIIIIIIIIII
IIIIIIIIIIIAIIIIIIIIIIIIIIIA111I2IIIII2IIIIII2IIIIIIIIIIIIIIIIII
IIIIIIIIIIIA111I2IIIII2IIIIA111I2IIIII2IIIIII2IIIIIIIIIIIIIIIIII
IIIIIIIIIIIA111I2I22II22IIIA111I2IIIII2IIIIII2IIIIIIIIIIIIIIIIII
IIIIIIIIIIIA111I2I22II22IIIA111I2I22II22IIIII21IIIIIIIIIIIIIIIII
IIIIIIIIIIIIIIIIIIIIIIIIIIIA1IIIIIIIIIIIIIIIIIIIIIIIIIIIIIIIIIII
IIIIIIIIIIIAI2IIIIIIIIIIIIIIIIIIIIIIIIIIIIIIIIIIIIIIIIIIIIIIIIII
IIIIIIIIIIIAI2IIIIIIIIIIIIIA1IIIIIIIIIIIIIIIIIIIIIIIIIIIIIIIIIII
IIIIIIIIIIIA12IIIIIIIIIIIIIA1IIIIIIIIIIIIIIIIIIIIIIIIIIIIIIIIIII
IIIIIIIIIIIA1IIIIIIIIIIIIIIIIIIIIIIIIIIIIIIIIIIIIIIIIIIIIIIIIIII
IIIIIIIIIIIA1IIIIIIIIIIIIIIA1IIIIIIIIIIIIIIIIIIIIIIIIIIIIIIIIIII
IIIIIIIIIIIA1IIIIIIIIIIIIIIA12IIIIIIIIIIIIIIIIIIIIIIIIIIIIIIIIII
IIIIIIIIIIIA12IIIIIIIIIIIIIA12IIIIIIIIIIIIIIIIIIIIIIIIIIIIIIIIII
IIIIIIIIIIIIIIIIIIIIIIIIIIIAI11I11111IIIIIIIIIIIIIIIIIIIIIIIIIII
IIIIIIIIIIIIIIIIIIIIIIIIIIIAI11I11111111111IIIIIIIIIIIIIIIIIIIII
IIIIIIIIIIIAI11I11111111111AI11I11111111111IIIIIIIIIIIIIIIIIIIII
IIIIIIIIIIIAI11I11111111111A211I11111111111IIIIIIIIIIIIIIIIIIIII
IIIIIIIIIIIA211I11111111111A211I11111111111IIIIIIIIIIIIIIIIIIIII
IIIIIIIIIIIA111I11111111111A211I11111111111IIIIIIIIIIIIIIIIIIIII
IIIIIIIIIIIA111I11111111111A111I11111111111IIIIIIIIIIIIIIIIIIIII
IIIIIIIIIIIIIIIIIIIIIIIIIIIAI1I1I111111111I1IIIIIIIIIIIIIIIIIIII
IIIIIIIIIIIAI1111111II11111A21I1I111111111I1IIIIIIIIIIIIIIIIIIII
IIIIIIIIIIIAI1111111II11111A21111111111111112IIIIIIIIIIIIIIIIIII
IIIIIIIIIIIA11111111II11111A21111111111111112IIIIIIIIIIIIIIIIIII
IIIIIIIIIIIIIIIIIIIIIIIIIIIAI2IIIIIIIIIIIIIIIIIIIIIIIIIIIIIIIIII
IIIIIIIIIIIA2IIIIIIIIIIIIIIIIIIIIIIIIIIIIIIIIIIIIIIIIIIIIIIIIIII
IIIIIIIIIIIIIIIIIIIIIIIIIIIA1IIIIIIIIIIIIIIIIIIIIIIIIIIIIIIIIIII
IIIIIIIIIIIA1IIIIIII2IIIIIIIIIIIIIIIIIIIIIIIIIIIIIIIIIIIIIIIIIII
IIIIIIIIIIIA1IIIIIII2IIIIIIA1IIIIIII2IIIIIIIIIIIIIIIIIIIIIIIIIII
IIIIIIIIIIIA12IIIIII2IIIIIIA1IIIIIII2IIIIIIIIIIIIIIIIIIIIIIIIIII
IIIIIIIIIIIA12IIIIII2IIIIIIA12IIIIII2IIIIIIIIIIIIIIIIIIIIIIIIIII
IIIIIIIIIIIIIIIIIIIIIIIIIIIA2IIIIIIIIIIIIIIIIIIIIIIIIIIIIIIIIIII
IIIIIIIIIIIA2IIIIIIIIIIIIIIA2IIIIIIIIIIIIIIIIIIIIIIIIIIIIIIIIIII
IIIIIIIIIIIA1IIIIIIIIIIIIIIA2IIIIIIIIIIIIIIIIIIIIIIIIIIIIIIIIIII
IIIIIIIIIIIA1IIIIIIIIIIIIIIA1IIIIIIIIIIIIIIIIIIIIIIIIIIIIIIIIIII
IIIIIIIIIIIAIIIIIIIIIIIIIIIIIIIIIIIIIIIIIIIIIIIIIIIIIIIIIIIIIIII
IIIIIIIIIIIAIIIIIIIIIIIIIIIAIIIIIIIIIIIIIIIIIIIIIIIIIIIIIIIIIIII
IIIIIIIIIIIIIIIIIIIIIIIIIIIAIIIIIIIIIIIIIIIIII2IIIIIIIIIIIIIIIII
IIIIIIIIIIIA1IIIIIIIIIIIIIIAIIIIIIIIIIIIIIIIII2IIIIIIIIIIIIIIIII
IIIIIIIIIIIA1IIIIIIIIIIIIIIA1IIIIIIIIIIIIIIIII2IIIIIIIIIIIIIIIII
IIIIIIIIIIIA12IIIIIIIIIIIIIA1IIIIIIIIIIIIIIIII2IIIIIIIIIIIIIIIII
IIIIIIIIIIIA12IIIIIIIIIIIIIA12IIIIIIIIIIIIIIII2IIIIIIIIIIIIIIIII
IIIIIIIIIIIA12II1I11II1I1I2A12IIIIIIIIIIIIIIII2IIIIIIIIIIIIIIIII
IIIIIIIIIIIA12II1I11II1I1I2A12II1I11II1I1I2I2I2IIIIIIIIIIIIIIIII
IIIIIIIIIIIAIIIIIIIIIIIIIIIIIIIIIIIIIIIIIIIIIIIIIIIIIIIIIIIIIIII
IIIIIIIIIIIAIIIIIIIIIIIIIIIAIIIIIIIIIIIIIIIIIIIIIIIIIIIIIIIIIIII
IIIIIIIIIIIIIIIIIIIIIIIIIIIA2IIIIIIIIIIIIIIIIIIIIIIIIIIIIIIIIIII
IIIIIIIIIIIA1IIIIIIIIIIIIIIA2IIIIIIIIIIIIIIIIIIIIIIIIIIIIIIIIIII
IIIIIIIIIIIA1IIIIIIIIIIIIIIA1IIIIIIIIIIIIIIIIIIIIIIIIIIIIIIIIIII
IIIIIIIIIIIAI2IIIIIIIIIIIIIIIIIIIIIIIIIIIIIIIIIIIIIIIIIIIIIIIIII
IIIIIIIIIIIA2IIIIIIIIIIIIIIIIIIIIIIIIIIIIIIIIIIIIIIIIIIIIIIIIIII
IIIIIIIIIIIA2IIIIIIIIIIIIIIA2IIIIIIIIIIIIIIIIIIIIIIIIIIIIIIIIIII
IIIIIIIIIIIA2IIIIIIIIIIIIIIA1IIIIIIIIIIIIIIIIIIIIIIIIIIIIIIIIIII
IIIIIIIIIIIA1IIIIIIIIIIIIIIA1IIIIIIIIIIIIIIIIIIIIIIIIIIIIIIIIIII
IIIIIIIIIIIAI2IIIIIIIIIIIIIIIIIIIIIIIIIIIIIIIIIIIIIIIIIIIIIIIIII
IIIIIIIIIIIAI2IIIIIIIIIIIIIA2IIIIIIIIIIIIIIIIIIIIIIIIIIIIIIIIIII
IIIIIIIIIIIA12IIIIIIIIIIIIIA2IIIIIIIIIIIIIIIIIIIIIIIIIIIIIIIIIII
IIIIIIIIIIIA12IIIIIIIIIIIIIA1IIIIIIIIIIIIIIIIIIIIIIIIIIIIIIIIIII
IIIIIIIIIIIA111111111111111A1IIIIIIIIIIIIIIIIIIIIIIIIIIIIIIIIIII
IIIIIIIIIIIA1111IIIIIIIIIIIIIIIIIIIIIIIIIIIIIIIIIIIIIIIIIIIIIIII
IIIIIIIIIIIA1111I11I11I11222IIIIIIIIIIIIIIIIIIIIIIIIIIIIIIIIIIII
IIIIIIIIIIIA1111I11I11I1122A1IIIIIII2IIIIIIIIIIIIIIIIIIIIIIIIIII
IIIIIIIIIIIIIIIIIIIIIIIIIIIA1IIIIIIIIIIIIIIIIIIIIIIIIIIIIIIIIIII
IIIIIIIIIIIAIIIIIIIIIIIIIIIA1IIIIIIIIIIIIIIIIIIIIIIIIIIIIIIIIIII
IIIIIIIIIIIA12IIIIIIIIIIIIIIIIIIIIIIIIIIIIIIIIIIIIIIIIIIIIIIIIII
IIIIIIIIIIIA12IIIIIIIIIIIIIA12IIIIIIIIIIIIIIIIIIIIIIIIIIIIIIIIII
IIIIIIIIIIIA2IIIIIIIIIIIIIIIIIIIIIIIIIIIIIIIIIIIIIIIIIIIIIIIIIII
IIIIIIIIIIIA2IIIIIIIIIIIIIIA1IIIIIIIIIIIIIIIIIIIIIIIIIIIIIIIIIII
IIIIIIIIIIIA1IIIIIIIIIIIIIIA1IIIIIIIIIIIIIIIIIIIIIIIIIIIIIIIIIII
IIIIIIIIIIIAIIIIIIIIIIIIIIIIIIIIIIIIIIIIIIIIIIIIIIIIIIIIIIIIIIII
IIIIIIIIIIIAIIIIIIIIIIIIIIIA1I2IIIIIIIIIIIIIIIIIIIIIIIIIIIIIIIII
IIIIIIIIIIIA1IIIIIIIIIIIIIIA1I2IIIIIIIIIIIIIIIIIIIIIIIIIIIIIIIII
IIIIIIIIIIIA1IIIIII122IIIII22IIIIIIIIIIIIIIIIIIIIIIIIIIIIIIIIIII
IIIIIIIIIIIA1IIIIII122IIIIIA1IIIIII122IIIII22IIIIIIIIIIIIIIIIIII
IIIIIIIIIIIIIIIIIIIIIIIIIIIAIIIIIIIIIIIIIIIIIIIIIIIIIIIIIIIIIIII
IIIIIIIIIIIA2IIIIIIIIIIIIIIAIIIIIIIIIIIIIIIIIIIIIIIIIIIIIIIIIIII
IIIIIIIIIIIA2IIIIIIIIIIIIIIA2IIIIIIIIIIIIIIIIIIIIIIIIIIIIIIIIIII
IIIIIIIIIIIA1IIIIIIIIIIIIIIA2IIIIIIIIIIIIIIIIIIIIIIIIIIIIIIIIIII
IIIIIIIIIIIA12IIIIIIIIIIIIIA2IIIIIIIIIIIIIIIIIIIIIIIIIIIIIIIIIII
IIIIIIIIIIIA12IIIIIIIIIIIIIA22IIIIIIIIIIIIIIIIIIIIIIIIIIIIIIIIII
IIIIIIIIIIIA12IIIIIIIIIIIIIA222IIIIIIIIIIIIIIIIIIIIIIIIIIIIIIIII
IIIIIIIIIIIA12IIIIIIIIIIIIIA11211II1II1I1I1I1IIIIIIIIIIIIIIIIIII
IIIIIIIIIIIA11I11II1II1I1I1A11211II1II1I1I1I1IIIIIIIIIIIIIIIIIII
IIIIIIIIIIIAIIIIIIIIIIIIIIIIIIIIIIIIIIIIIIIIIIIIIIIIIIIIIIIIIIII
IIIIIIIIIIIAIIIIIIIIIIIIIIIAIIIIIIIIIIIIIIIIIIIIIIIIIIIIIIIIIIII
IIIIIIIIIIIAIIIIIIIIIIIIIIIA1IIIIIIIIIIIIIIIIIIIIIIIIIIIIIIIIIII
IIIIIIIIIIIAIIIIIIIIIIIIIIIIII2IIIIIIIIIIIIIIIIIIIIIIIIIIIIIIIII
IIIIIIIIIIIA12IIIIIIIIIIIIIIII2IIIIIIIIIIIIIIIIIIIIIIIIIIIIIIIII
IIIIIIIIIIIA12IIIIIIIIIIIIIA122IIIIIIIIIIIIIIIIIIIIIIIIIIIIIIIII
IIIIIIIIIIIAIIIIIIIIIIIIIIIIIIIIIIIIIIIIIIIIIIIIIIIIIIIIIIIIIIII
IIIIIIIIIIIAIIIIIIIIIIIIIIIAIIIIIIIIIIIIIIIIIIIIIIIIIIIIIIIIIIII
IIIIIIIIIIIAIIIIIIIIIIIIIIIA1IIIIIIIIIIIIIIIIIIIIIIIIIIIIIIIIIII
IIIIIIIIIIIA1IIIIIIIIIIIIIIA1IIIIIIIIIIIIIIIIIIIIIIIIIIIIIIIIIII
IIIIIIIIIIIAIIIIIIIIIIIIIIIIIIIIIIIIIIIIIIIIIIIIIIIIIIIIIIIIIIII
IIIIIIIIIIIAIIIIIIIIIIIIIIIA2IIIIIIIIIIIIIIIIIIIIIIIIIIIIIIIIIII
IIIIIIIIIIIA1IIIIIIIIIIIIIIA2IIIIIIIIIIIIIIIIIIIIIIIIIIIIIIIIIII
IIIIIIIIIIIA1IIIIIIIIIIIIIIA1IIIIIIIIIIIIIIIIIIIIIIIIIIIIIIIIIII
IIIIIIIIIIIIIIIIIIIIIIIIIIIA11IIIII1111IIIII1IIIIIIIIIIIIIIIIIII
IIIIIIIIIIIA11IIIII1111IIIIA11IIIII1111IIIII1IIIIIIIIIIIIIIIIIII
IIIIIIIIIIIAIIIIIIIIIIIIIIIIIIIIIIIIIIIIIIIIIIIIIIIIIIIIIIIIIIII
IIIIIIIIIIIAIIIIIIIIIIIIIIIAIIIIIIIIIIIIIIIIIIIIIIIIIIIIIIIIIIII
IIIIIIIIIIIA1IIIIIIIIIIIIIIAIIIIIIIIIIIIIIIIIIIIIIIIIIIIIIIIIIII
IIIIIIIIIIIA1IIIIIIIIIIIIIIA1IIIIIIIIIIIIIIIIIIIIIIIIIIIIIIIIIII
IIIIIIIIIIIA1IIIIIIIIIIIIIIA12IIIIIIIIIIIIIIIIIIIIIIIIIIIIIIIIII
IIIIIIIIIIIA12IIIIIIIIIIIIIA12IIIIIIIIIIIIIIIIIIIIIIIIIIIIIIIIII
IIIIIIIIIIIAII111I1III1II1I1I2IIIIIIIIIIIIIIIIIIIIIIIIIIIIIIIIII
IIIIIIIIIIIAII111I1III1II1IAI2111I1III1II1I1I2IIIIIIIIIIIIIIIIII
IIIIIIIIIIIA1I111I1III1II1IAI2111I1III1II1I1I2IIIIIIIIIIIIIIIIII
IIIIIIIIIIIA1I111I1III1II1IA12111I1III1II1I1I2IIIIIIIIIIIIIIIIII
IIIIIIIIIIIA12111I1III1II1IA12111I1III1II1I1I2IIIIIIIIIIIIIIIIII
IIIIIIIIIIIA12111I1III1II1IA12111I1III1II1I1I22IIIIIIIIIIIIIIIII
IIIIIIIIIIIA11111I1III1II1IA12111I1III1II1I1I22IIIIIIIIIIIIIIIII
IIIIIIIIIIIA11111I1III1II1IA11111I1III1II1I1I22IIIIIIIIIIIIIIIII
IIIIIIIIII2A11111I1III1II1IA11111I1III1II1I1I22IIIIIIIIIIIIIIIII
IIIIIIIIII2A11111I1III1II12A11111I1III1II1I1I22IIIIIIIIIIIIIIIII
IIIIIIIIIIIIIIIIIIIIIIIIIIIA2IIIIIIIIIIIIIIIIIIIIIIIIIIIIIIIIIII
IIIIIIIIIIIA1IIIIIIIIIIIIIIIIIIIIIIIIIIIIIIIIIIIIIIIIIIIIIIIIIII
IIIIIIIIIIIA1IIIIIIIIIIIIIIAIIIIIIIIIIIIIIIIIIIIIIIIIIIIIIIIIIII
IIIIIIIIIIIA1IIIIIIIIIIIIIIA1IIIIIIIIIIIIIIIIIIIIIIIIIIIIIIIIIII
IIIIIIIIIIIA1IIIIIIIIIIIIIIIIIIIIIIIIIIIIIIIIIIIIIIIIIIIIIIIIIII
IIIIIIIIIIIA1IIIIIIIIIIIIIIAI2IIIIIIIIIIIIIIIIIIIIIIIIIIIIIIIIII
IIIIIIIIIIIA1IIIIIIIIIIIIIIA22IIIIIIIIIIIIIIIIIIIIIIIIIIIIIIIIII
IIIIIIIIIIIIIIIIIIIIIIIIIIIAI1II11I1111111IIIIIIIIIIIIIIIIIIIIII
IIIIIIIIIIIIIIIIIIIIIIIIIIIAI1II11I1111111I1IIIIIIIIIIIIIIIIIIII
IIIIIIIIIIIA2IIIIIIIIIIIIIIAI1II11I1111111I1IIIIIIIIIIIIIIIIIIII
IIIIIIIIIIIA2IIIIIIIIIIIIIIA21II11I1111111I1IIIIIIIIIIIIIIIIIIII
IIIIIIIIIIIA1IIIIIIIIIIIIIIA21II11I1111111I1IIIIIIIIIIIIIIIIIIII
IIIIIIIIIIIA1IIIIIIIIIIIIIIA11II11I1111111I1IIIIIIIIIIIIIIIIIIII
IIIIIIIIIIIA1I111I111I11II1A11II11I1111111I1IIIIIIIIIIIIIIIIIIII
IIIIIIIIIIIIIIIIIIIIIIIIIIIA1IIIIII2IIIIIIIIIIIIIIIIIIIIIIIIIIII
IIIIIIIIIIIAI11112222222222A1IIIIII2IIIIIIIIIIIIIIIIIIIIIIIIIIII
IIIIIIIIIIIAI11112222222222A111112222222222IIIIIIIIIIIIIIIIIIIII
IIIIIIIIIIIA111112222222222A111112222222222IIIIIIIIIIIIIIIIIIIII
IIIIIIIIIIIIIIIIIIIIIIIIIIIAI2IIIIIIIIIIIIIIIIIIIIIIIIIIIIIIIIII
IIIIIIIIIIIA2IIIIIIIIIIIIIIIIIIIIIIIIIIIIIIIIIIIIIIIIIIIIIIIIIII
IIIIIIIIIIIIIIIIIIIIIIIIIIIA12IIIIIIIIIIIIIIIIIIIIIIIIIIIIIIIIII
IIIIIIIIIIIA2IIIIIII2IIIIIIIIIIIIIIIIIIIIIIIIIIIIIIIIIIIIIIIIIII
IIIIIIIIIIIA2IIIIIII2IIIIIIA2IIIIIII2IIIIIIIIIIIIIIIIIIIIIIIIIII
IIIIIIIIIIIA1111II2I2IIIIIIA2IIIIIII2IIIIIIIIIIIIIIIIIIIIIIIIIII
IIIIIIIIIIIA1111II2I2IIIIIIA1111II2I2IIIIIIIIIIIIIIIIIIIIIIIIIII
IIIIIIIIIIIIIIIIIIIIIIIIIIIA1I2IIIIIIIIIIIIIIIIIIIIIIIIIIIIIIIII
IIIIIIIIIIIAIIIIIIIIIIIIIIIA1I2IIIIIIIIIIIIIIIIIIIIIIIIIIIIIIIII
IIIIIIIIIIIA1IIIIIIIIIIIIIIA1I2IIIIIIIIIIIIIIIIIIIIIIIIIIIIIIIII
IIIIIIIIIIIAI2IIIIIIIIIIIIIIIIIIIIIIIIIIIIIIIIIIIIIIIIIIIIIIIIII
IIIIIIIIIIIAI2IIIIIIIIIIIIIA2IIIIIIIIIIIIIIIIIIIIIIIIIIIIIIIIIII
IIIIIIIIIIIIIIIIIIIIIIIIIIIAIIIIIIIIIIIIIIIIII2IIIIIIIIIIIIIIIII
IIIIIIIIIIIA1I222IIIIIIIIIIAIIIIIIIIIIIIIIIIII2IIIIIIIIIIIIIIIII
IIIIIIIIIIIA1I222IIIIIIIIIIA1I222IIIIIIIIIIIII2IIIIIIIIIIIIIIIII
IIIIIIIIIIIA12222IIIIIIIIIIA1I222IIIIIIIIIIIII2IIIIIIIIIIIIIIIII
IIIIIIIIIIIA12222IIIIIIIIIIA12222IIIIIIIIIIIII2IIIIIIIIIIIIIIIII
IIIIIIIIIIIA12222IIIIIIIIIIA11112IIIIIIIIIIIII2IIIIIIIIIIIIIIIII
IIIIIIIIIIIA11112IIIIIIIIIIA11112IIIIIIIIIIIII2IIIIIIIIIIIIIIIII
IIIIIIIIIIIA1IIIIIIIIIIIIIIIIIIIIIIIIIIIIIIIIIIIIIIIIIIIIIIIIIII
IIIIIIIIIIIA1IIIIIIIIIIIIIIAIIIIIIIIIIIIIIIIIIIIIIIIIIIIIIIIIIII
IIIIIIIIIIIIIIIIIIIIIIIIIIIA1IIIIIIIIIIIIIIIIIIIIIIIIIIIIIIIIIII
IIIIIIIIIIIAIIIIIIIIIIIIIIIA1IIIIIIIIIIIIIIIIIIIIIIIIIIIIIIIIIII
IIIIIIIIIIIA1IIIIIIIIIIIIIIIIIIIIIIIIIIIIIIIIIIIIIIIIIIIIIIIIIII
IIIIIIIIIIIA1IIIIIIIIIIIIIIA1IIIIIIIIIIIIIIIIIIIIIIIIIIIIIIIIIII
IIIIIIIIIIIA1I2IIIIIIIIIIIIA1IIIIIIIIIIIIIIIIIIIIIIIIIIIIIIIIIII
IIIIIIIIIIIAI2IIIIIIIIIIIIIIIIIIIIIIIIIIIIIIIIIIIIIIIIIIIIIIIIII
IIIIIIIIIIIAI2IIIIIIIIIIIIIA2IIIIIIIIIIIIIIIIIIIIIIIIIIIIIIIIIII
IIIIIIIIIIIA12IIIIIIIIIIIIIA2IIIIIIIIIIIIIIIIIIIIIIIIIIIIIIIIIII
IIIIIIIIIIIA12IIIIIIIIIIIIIA1IIIIIIIIIIIIIIIIIIIIIIIIIIIIIIIIIII
IIIIIIIIIIIA1111111I11I11I1A1IIIIIIIIIIIIIIIIIIIIIIIIIIIIIIIIIII
IIIIIIIIIIIA11I1IIIIIIIIIIIIIIIIIIIIIIIIIIIIIIIIIIIIIIIIIIIIIIII
IIIIIIIIIIIA11I1111111I11I1IIIIIIIIIIIIIIIIIIIIIIIIIIIIIIIIIIIII
IIIIIIIIIIIA11I1111111I11I1A11I1111111I11I1IIIIIIIIIIIIIIIIIIIII
IIIIIIIIIIIIIIIIIIIIIIIIIIIAIIIIIIIIIIIIIIIIIIIIIIIIIIIIIIIIIIII
IIIIIIIIIIIA1IIIIIIIIIIIIIIAIIIIIIIIIIIIIIIIIIIIIIIIIIIIIIIIIIII
IIIIIIIIIIIAI2IIIIIIIIIIIIIIIIIIIIIIIIIIIIIIIIIIIIIIIIIIIIIIIIII
IIIIIIIIIIIAI2IIIIIIIIIIIIIAI2IIIIIIIIIIIIIIIIIIIIIIIIIIIIIIIIII
IIIIIIIIIIIAI2IIIIIIIIIIIIIA22IIIIIIIIIIIIIIIIIIIIIIIIIIIIIIIIII
IIIIIIIIIIIA1IIIIIIIIIIIIIIIIIIIIIIIIIIIIIIIIIIIIIIIIIIIIIIIIIII
IIIIIIIIIIIA1IIIIIIIIIIIIIIA1IIIIIIIIIIIIIIIIIIIIIIIIIIIIIIIIIII
IIIIIIIIIIIA1IIIIIIIIIIIIIIIIIIIIIIIIIIIIIIIIIIIIIIIIIIIIIIIIIII
IIIIIIIIIIIA1IIIIIIIIIIIIIIA1IIIIIIIIIIIIIIIIIIIIIIIIIIIIIIIIIII
IIIIIIIIIIIA1111111111I1I11IIIIIIIIIIIIIIIIIIIIIIIIIIIIIIIIIIIII
IIIIIIIIIIIA1111111111I1I11A1111111111I1I11IIIIIIIIIIIIIIIIIIIII
IIIIIIIIIIIIIIIIIIIIIIIIIIIA1IIIIII22IIIIIIIIIIIIIIIIIIIIIIIIIII
IIIIIIIIIIIAIIIIIIIIIIIIIIIA1IIIIII22IIIIIIIIIIIIIIIIIIIIIIIIIII
IIIIIIIIIIIAIIIIIIIIIIIIIIIA12IIIII22IIIIIIIIIIIIIIIIIIIIIIIIIII
IIIIIIIIIIIA12IIIIIIIIIIIIIA12IIIII22IIIIIIIIIIIIIIIIIIIIIIIIIII
IIIIIIIIIIIA121I1I111I12II2A121IIII22IIIIIIIIIIIIIIIIIIIIIIIIIII
IIIIIIIIIIIA121I1I111I12II2A121I1I111I12II2III1IIIIIIIIIIIIIIIII
IIIIIIIIIIIA1IIIIIIIIIIIIIIIIIIIIIIIIIIIIIIIIIIIIIIIIIIIIIIIIIII
IIIIIIIIIIIA1IIIIIIIIIIIIIIA1IIIIIIIIIIIIIIIIIIIIIIIIIIIIIIIIIII
IIIIIIIIIIIAIIIIIIIIIIIIIIIIII1IIIIIIIIIIIIIIIIIIIIIIIIIIIIIIIII
IIIIIIIIIIIA12IIIIIIIIIIIIIIII1IIIIIIIIIIIIIIIIIIIIIIIIIIIIIIIII
IIIIIIIIIIIA12IIIIIIIIIIIIIA121IIIIIIIIIIIIIIIIIIIIIIIIIIIIIIIII
IIIIIIIIIIIAIIIIIIIIIIIIIIIIIIIIIIIIIIIIIIIIIIIIIIIIIIIIIIIIIIII
IIIIIIIIIIIAIIIIIIIIIIIIIIIAIIIIIIIIIIIIIIIIIIIIIIIIIIIIIIIIIIII
IIIIIIIIIIIAIIIIIIIIIIIIIIIA2IIIIIIIIIIIIIIIIIIIIIIIIIIIIIIIIIII
IIIIIIIIIIIA1IIIIIIIIIIIIIIA2IIIIIIIIIIIIIIIIIIIIIIIIIIIIIIIIIII
IIIIIIIIIIIA1IIIIIIIIIIIIIIA1IIIIIIIIIIIIIIIIIIIIIIIIIIIIIIIIIII
IIIIIIIIIIIA1IIIIIIIIIIIIIIIIIIIIIIIIIIIIIIIIIIIIIIIIIIIIIIIIIII
IIIIIIIIIIIA1IIIIIIIIIIIIIIA1IIIIIIIIIIIIIIIIIIIIIIIIIIIIIIIIIII
IIIIIIIIIIIIIIIIIIIIIIIIIIIA111IIII11111III1IIIIIIIIIIIIIIIIIIII
IIIIIIIIIIIA111IIII11111IIIA111IIII11111III1IIIIIIIIIIIIIIIIIIII
IIIIIIIIII2A111IIII11111IIIA111IIII11111III1IIIIIIIIIIIIIIIIIIII
IIIIIIIIII2A111IIII11111II2A111IIII11111III1IIIIIIIIIIIIIIIIIIII
IIIIIIIIIIIAI2IIIIIIIIIIIIIIIIIIIIIIIIIIIIIIIIIIIIIIIIIIIIIIIIII
IIIIIIIIIIIAI2IIIIIIIIIIIIIAI2IIIIIIIIIIIIIIIIIIIIIIIIIIIIIIIIII
IIIIIIIIIIIA12IIIIIIIIIIIIIAI2IIIIIIIIIIIIIIIIIIIIIIIIIIIIIIIIII
IIIIIIIIIIIA12IIIIIIIIIIIIIA12IIIIIIIIIIIIIIIIIIIIIIIIIIIIIIIIII
IIIIIIIIIIIAII111I111I11I12222IIIIIIIIIIIIIIIIIIIIIIIIIIIIIIIIII
IIIIIIIIIIIAII111I111I11I12A22111I111I11I12222IIIIIIIIIIIIIIIIII
IIIIIIIIIIIA1I111I111I11I12A22111I111I11I12222IIIIIIIIIIIIIIIIII
IIIIIIIIIIIA1I111I111I11I12A12111I111I11I12222IIIIIIIIIIIIIIIIII
IIIIIIIIIIIA12111I111I11I12A12111I111I11I12222IIIIIIIIIIIIIIIIII
IIIIIIIIIIIA12111I111I11I12A12111I111I11I122221IIIIIIIIIIIIIIIII
IIIIIIIIIIIIIIIIIIIIIIIIIIIA1IIIIIIIIIIIIIIIIIIIIIIIIIIIIIIIIIII
IIIIIIIIIIIAI2IIIIIIIIIIIIIIIIIIIIIIIIIIIIIIIIIIIIIIIIIIIIIIIIII
IIIIIIIIIIIAI2IIIIIIIIIIIIIA1IIIIIIIIIIIIIIIIIIIIIIIIIIIIIIIIIII
IIIIIIIIIIIAI2IIIIIIIIIIIIIA12IIIIIIIIIIIIIIIIIIIIIIIIIIIIIIIIII
IIIIIIIIIIIA1IIIIIIIIIIIIIIIIIIIIIIIIIIIIIIIIIIIIIIIIIIIIIIIIIII
IIIIIIIIIIIA1IIIIIIIIIIIIIIA1IIIIIIIIIIIIIIIIIIIIIIIIIIIIIIIIIII
IIIIIIIIIIIA1IIIIIIIIIIIIIIA12IIIIIIIIIIIIIIIIIIIIIIIIIIIIIIIIII
IIIIIIIIIIIIIIIIIIIIIIIIIIIAI11I1111111IIIIIIIIIIIIIIIIIIIIIIIII
IIIIIIIIIIIIIIIIIIIIIIIIIIIAI11I111111111111IIIIIIIIIIIIIIIIIIII
IIIIIIIIIIIAI11I11111111111AI11I111111111111IIIIIIIIIIIIIIIIIIII
IIIIIIIIIIIAI11I11111111111A111I111111111111IIIIIIIIIIIIIIIIIIII
IIIIIIIIIIIA111I11111111111A111I111111111111IIIIIIIIIIIIIIIIIIII
IIIIIIIIIIIIIIIIIIIIIIIIIIIAI111I11111111II1IIIIIIIIIIIIIIIIIIII
IIIIIIIIIIIAI111I1111I11111AI111I11111111II1IIIIIIIIIIIIIIIIIIII
IIIIIIIIIIIAI111I1111I11111AI111I11111111111IIIIIIIIIIIIIIIIIIII
IIIIIIIIIIIA1111I1111I11111AI111I11111111111IIIIIIIIIIIIIIIIIIII
IIIIIIIIIIIIIIIIIIIIIIIIIIIAI2IIIIIIIIIIIIIIIIIIIIIIIIIIIIIIIIII
IIIIIIIIIIIA2IIIIIIIIIIIIIIIIIIIIIIIIIIIIIIIIIIIIIIIIIIIIIIIIIII
IIIIIIIIIIIIIIIIIIIIIIIIIIIA1IIIIIIIIIIIIIIIIIIIIIIIIIIIIIIIIIII
IIIIIIIIIIIA1IIIIIII2IIIIIIIIIIIIIIIIIIIIIIIIIIIIIIIIIIIIIIIIIII
IIIIIIIIIIIA1IIIIIII2IIIIIIA1IIIIIII2IIIIIIIIIIIIIIIIIIIIIIIIIII
IIIIIIIIIIIA12IIIIII2IIIIIIA1IIIIIII2IIIIIIIIIIIIIIIIIIIIIIIIIII
IIIIIIIIIIIA12IIIIII2IIIIIIA12IIIIII2IIIIIIIIIIIIIIIIIIIIIIIIIII
IIIIIIIIIIIIIIIIIIIIIIIIIIIAI2IIIIIIIIIIIIIIIIIIIIIIIIIIIIIIIIII
IIIIIIIIIIIA1IIIIIIIIIIIIIIAI2IIIIIIIIIIIIIIIIIIIIIIIIIIIIIIIIII
IIIIIIIIIIIA1IIIIIIIIIIIIIIA12IIIIIIIIIIIIIIIIIIIIIIIIIIIIIIIIII
IIIIIIIIIIIA1IIIIIIIIIIIIIIIIIIIIIIIIIIIIIIIIIIIIIIIIIIIIIIIIIII
IIIIIIIIIIIA1IIIIIIIIIIIIIIA1IIIIIIIIIIIIIIIIIIIIIIIIIIIIIIIIIII
IIIIIIIIIIIIIIIIIIIIIIIIIIIAIIIIIIIIIIIIIIIIII2IIIIIIIIIIIIIIIII
IIIIIIIIIIIA1II11I1I1I11212AI2IIIIIIIIIIIIIIII2IIIIIIIIIIIIIIIII
IIIIIIIIIIIA1II11I1I1I11212A12I11I1I1I112122I22IIIIIIIIIIIIIIIII
IIIIIIIIIIIA12I11I1I1I11212A12I11I1I1I112122I22IIIIIIIIIIIIIIIII
IIIIIIIIIIIA12I11I121I11212A12111I1I1I112122I22IIIIIIIIIIIIIIIII
IIIIIIIIIIIA12I11I121I11212A12111I121I112122I21IIIIIIIIIIIIIIIII
IIIIIIIIIIIAIIIIIIIIIIIIIIIIIIIIIIIIIIIIIIIIIIIIIIIIIIIIIIIIIIII
IIIIIIIIIIIAIIIIIIIIIIIIIIIAIIIIIIIIIIIIIIIIIIIIIIIIIIIIIIIIIIII
IIIIIIIIIIIIIIIIIIIIIIIIIIIA1IIIIIIIIIIIIIIIIIIIIIIIIIIIIIIIIIII
IIIIIIIIIIIAIIIIIIIIIIIIIIIA1IIIIIIIIIIIIIIIIIIIIIIIIIIIIIIIIIII
IIIIIIIIIIIA1IIIIIIIIIIIIIIIIIIIIIIIIIIIIIIIIIIIIIIIIIIIIIIIIIII
IIIIIIIIIIIA1IIIIIIIIIIIIIIA1IIIIIIIIIIIIIIIIIIIIIIIIIIIIIIIIIII
IIIIIIIIIIIA1I2IIIIIIIIIIIIA1IIIIIIIIIIIIIIIIIIIIIIIIIIIIIIIIIII
IIIIIIIIIIIAI2IIIIIIIIIIIIIIIIIIIIIIIIIIIIIIIIIIIIIIIIIIIIIIIIII
IIIIIIIIIIIAI2IIIIIIIIIIIIIA2IIIIIIIIIIIIIIIIIIIIIIIIIIIIIIIIIII
IIIIIIIIIIIA12IIIIIIIIIIIIIA2IIIIIIIIIIIIIIIIIIIIIIIIIIIIIIIIIII
IIIIIIIIIIIA12IIIIIIIIIIIIIA1IIIIIIIIIIIIIIIIIIIIIIIIIIIIIIIIIII
IIIIIIIIIIIA111111111111111A1IIIIIIIIIIIIIIIIIIIIIIIIIIIIIIIIIII
IIIIIIIIIIIAI111IIIIIIIIIIIIIIIIIIIIIIIIIIIIIIIIIIIIIIIIIIIIIIII
IIIIIIIIIIIAI111I11111I11I1IIIIIIIIIIIIIIIIIIIIIIIIIIIIIIIIIIIII
IIIIIIIIIIIAI111I11111I11I1A1IIIIII22IIIIIIIIIIIIIIIIIIIIIIIIIII
IIIIIIIIIIIA2111I11111I11I1A1IIIIII22IIIIIIIIIIIIIIIIIIIIIIIIIII
IIIIIIIIIIIA1111I11111I11I1A1IIIIII22IIIIIIIIIIIIIIIIIIIIIIIIIII
IIIIIIIIIIIIIIIIIIIIIIIIIIIA1IIIIIIIIIIIIIIIIIIIIIIIIIIIIIIIIIII
IIIIIIIIIIIAIIIIIIIIIIIIIIIA1IIIIIIIIIIIIIIIIIIIIIIIIIIIIIIIIIII
IIIIIIIIIIIA12IIIIIIIIIIIIIIIIIIIIIIIIIIIIIIIIIIIIIIIIIIIIIIIIII
IIIIIIIIIIIA12IIIIIIIIIIIIIA12IIIIIIIIIIIIIIIIIIIIIIIIIIIIIIIIII
IIIIIIIIIIIA1IIIIIIIIIIIIIIIIIIIIIIIIIIIIIIIIIIIIIIIIIIIIIIIIIII
IIIIIIIIIIIA1IIIIIIIIIIIIIIA1IIIIIIIIIIIIIIIIIIIIIIIIIIIIIIIIIII
IIIIIIIIIIIA1IIIIIIIIIIIIIIIIIIIIIIIIIIIIIIIIIIIIIIIIIIIIIIIIIII
IIIIIIIIIIIA1IIIIIIIIIIIIIIA1IIIIIIIIIIIIIIIIIIIIIIIIIIIIIIIIIII
IIIIIIIIIIIA1IIIIIIIIIIIIIIA1I2IIIIIIIIIIIIIIIIIIIIIIIIIIIIIIIII
IIIIIIIIIIIA11I2I222III2IIIIIIIIIIIIIIIIIIIIIIIIIIIIIIIIIIIIIIII
IIIIIIIIIIIA11I2I222III2IIIA1IIIIII112IIIIII2IIIIIIIIIIIIIIIIIII
IIIIIIIIIIIIIIIIIIIIIIIIIIIAIIIIIIIIIIIIIIIIIIIIIIIIIIIIIIIIIIII
IIIIIIIIIIIA2IIIIIIIIIIIIIIAIIIIIIIIIIIIIIIIIIIIIIIIIIIIIIIIIIII
IIIIIIIIIIIA2IIIIIIIIIIIIIIA2IIIIIIIIIIIIIIIIIIIIIIIIIIIIIIIIIII
IIIIIIIIIIIA1IIIIIIIIIIIIIIA2IIIIIIIIIIIIIIIIIIIIIIIIIIIIIIIIIII
IIIIIIIIIIIA12IIIIIIIIIIIIIA2IIIIIIIIIIIIIIIIIIIIIIIIIIIIIIIIIII
IIIIIIIIIIIA12IIIIIIIIIIIIIA22IIIIIIIIIIIIIIIIIIIIIIIIIIIIIIIIII
IIIIIIIIIIIA12IIIIIIIIIIIIIA222IIIIIIIIIIIIIIIIIIIIIIIIIIIIIIIII
IIIIIIIIIIIA12IIIIIIIIIIIIIA112121IIII2IIIIIIIIIIIIIIIIIIIIIIIII
IIIIIIIIIIIA11I121IIII2IIIIA112121IIII2IIIIIIIIIIIIIIIIIIIIIIIII
IIIIIIIIIIIA1IIIIIIIIIIIIIIIIIIIIIIIIIIIIIIIIIIIIIIIIIIIIIIIIIII
IIIIIIIIIIIA1IIIIIIIIIIIIIIAIIIIIIIIIIIIIIIIIIIIIIIIIIIIIIIIIIII
IIIIIIIIIIIA1IIIIIIIIIIIIIIA1IIIIIIIIIIIIIIIIIIIIIIIIIIIIIIIIIII
IIIIIIIIIIIAIIIIIIIIIIIIIIIIII2IIIIIIIIIIIIIIIIIIIIIIIIIIIIIIIII
IIIIIIIIIIIA12IIIIIIIIIIIIIIII2IIIIIIIIIIIIIIIIIIIIIIIIIIIIIIIII
IIIIIIIIIIIA12IIIIIIIIIIIIIA122IIIIIIIIIIIIIIIIIIIIIIIIIIIIIIIII
IIIIIIIIIIIA2IIIIIIIIIIIIIIIIIIIIIIIIIIIIIIIIIIIIIIIIIIIIIIIIIII
IIIIIIIIIIIA2IIIIIIIIIIIIIIA2IIIIIIIIIIIIIIIIIIIIIIIIIIIIIIIIIII
IIIIIIIIIIIA2IIIIIIIIIIIIIIA1IIIIIIIIIIIIIIIIIIIIIIIIIIIIIIIIIII
IIIIIIIIIIIA1IIIIIIIIIIIIIIA1IIIIIIIIIIIIIIIIIIIIIIIIIIIIIIIIIII
IIIIIIIIIIIAIIIIIIIIIIIIIIIIIIIIIIIIIIIIIIIIIIIIIIIIIIIIIIIIIIII
IIIIIIIIIIIAIIIIIIIIIIIIIIIA1IIIIIIIIIIIIIIIIIIIIIIIIIIIIIIIIIII
IIIIIIIIIIIAIIIIIIIIIIIIIIIA12IIIIIIIIIIIIIIIIIIIIIIIIIIIIIIIIII
IIIIIIIIIIIA12IIIIIIIIIIIIIA12IIIIIIIIIIIIIIIIIIIIIIIIIIIIIIIIII
IIIIIIIIIIIIIIIIIIIIIIIIIIIA1111I111112222IIIIIIIIIIIIIIIIIIIIII
IIIIIIIIIIIIIIIIIIIIIIIIIIIA1111I1111122222IIIIIIIIIIIIIIIIIIIII
IIIIIIIIIIIA1IIIIII22IIIIIIA1111I1111122222IIIIIIIIIIIIIIIIIIIII
IIIIIIIIIIIA12IIIII22IIIIIIA1111I1111122222IIIIIIIIIIIIIIIIIIIII
IIIIIIIIIIIA2IIIIIIIIIIIIIIIIIIIIIIIIIIIIIIIIIIIIIIIIIIIIIIIIIII
IIIIIIIIIIIA2IIIIIIIIIIIIIIA2IIIIIIIIIIIIIIIIIIIIIIIIIIIIIIIIIII
IIIIIIIIIIIA1IIIIIIIIIIIIIIA2IIIIIIIIIIIIIIIIIIIIIIIIIIIIIIIIIII
IIIIIIIIIIIA1IIIIIIIIIIIIIIA1IIIIIIIIIIIIIIIIIIIIIIIIIIIIIIIIIII
IIIIIIIIIIIA1I2IIIIIIIIIIIIA1IIIIIIIIIIIIIIIIIIIIIIIIIIIIIIIIIII
IIIIIIIIIIIA1I2IIIIIIIIIIIIA1I2IIIIIIIIIIIIIIIIIIIIIIIIIIIIIIIII
IIIIIIIIIIIA1I2IIIIIIIIIIIIA122IIIIIIIIIIIIIIIIIIIIIIIIIIIIIIIII
IIIIIIIIIIIA122IIIIIIIIIIIIA122IIIIIIIIIIIIIIIIIIIIIIIIIIIIIIIII
IIIIIIIIIIIAIIIIIIIIIIIIIIIIII2IIIIIIIIIIIIIIIIIIIIIIIIIIIIIIIII
IIIIIIIIIIIAIIIIIIIIIIIIIIIA111I2IIIIIIIIIIIIIIIIIIIIIIIIIIIIIII
IIIIIIIIIIIA111I2IIIIIIIIIIA111I2IIIIIIIIIIIIIIIIIIIIIIIIIIIIIII
IIIIIIIIIIIA111I1111II11II2A111I2IIIIIIIIIIIIIIIIIIIIIIIIIIIIIII
IIIIIIIIIIIA111I1111II11II2A111I1111II11II22IIIIIIIIIIIIIIIIIIII
IIIIIIIIIIIIIIIIIIIIIIIIIIIA1IIIIIIIIIIIIIIIIIIIIIIIIIIIIIIIIIII
IIIIIIIIIIIAIIIIIIIIIIIIIIIIIIIIIIIIIIIIIIIIIIIIIIIIIIIIIIIIIIII
IIIIIIIIIIIAIIIIIIIIIIIIIIIAIIIIIIIIIIIIIIIIIIIIIIIIIIIIIIIIIIII
IIIIIIIIIIIA1IIIIIIIIIIIIIIAIIIIIIIIIIIIIIIIIIIIIIIIIIIIIIIIIIII
IIIIIIIIIIIA1IIIIIIIIIIIIIIA1IIIIIIIIIIIIIIIIIIIIIIIIIIIIIIIIIII
IIIIIIIIIIIAI2IIIIIIIIIIIIIIIIIIIIIIIIIIIIIIIIIIIIIIIIIIIIIIIIII
IIIIIIIIIIIAI2IIIIIIIIIIIIIAI2IIIIIIIIIIIIIIIIIIIIIIIIIIIIIIIIII
IIIIIIIIIIIA12IIIIIIIIIIIIIAI2IIIIIIIIIIIIIIIIIIIIIIIIIIIIIIIIII
IIIIIIIIIIIA12IIIIIIIIIIIIIA12IIIIIIIIIIIIIIIIIIIIIIIIIIIIIIIIII
IIIIIIIIIIIIIIIIIIIIIIIIIIIAI11II2I222I2I222IIIIIIIIIIIIIIIIIIII
IIIIIIIIIIIA1IIIIIIIIIIIIIIAI11II2I222I2I222IIIIIIIIIIIIIIIIIIII
IIIIIIIIIIIA1IIIIIIIIIIIIIIA111II2I222I2I222IIIIIIIIIIIIIIIIIIII
IIIIIIIIIIIA1IIII11I122II22A111II2I222I2I222IIIIIIIIIIIIIIIIIIII
IIIIIIIIIIIIIIIIIIIIIIIIIIIA11IIIII111IIIII11IIIIIIIIIIIIIIIIIII
[MLOP] Prefetch Degree Mean: 1.48201
[MLOP] Prefetch Degree SD: 2.58789
[MLOP] Max Score Left Mean (%): 10.054
[MLOP] Max Score Left SD (%): 8.77928
[MLOP] Max Score Right Mean (%): 38.4115
[MLOP] Max Score Right SD (%): 10.4391

DRAM Statistics
 CHANNEL 0
 RQ ROW_BUFFER_HIT:     195907  ROW_BUFFER_MISS:     475539
 DBUS_CONGESTED:        447
 WQ ROW_BUFFER_HIT:      38072  ROW_BUFFER_MISS:     242456  FULL:          0

 AVG_CONGESTED_CYCLE: 4
 All warmup complete: 2
Channel 0 Bank busy for read cycles: 0
Channel 0 Bank busy for write cycles: 0
Channel 0
Rank 0
0banks busy for read cycles: 395488295
0banks busy for write cycles: 106923
1banks busy for read cycles: 27066164
1banks busy for write cycles: 13932522
2banks busy for read cycles: 9727981
2banks busy for write cycles: 4849625
3banks busy for read cycles: 3177674
3banks busy for write cycles: 2205787
4banks busy for read cycles: 1395787
4banks busy for write cycles: 1156832
5banks busy for read cycles: 797792
5banks busy for write cycles: 706243
6banks busy for read cycles: 642222
6banks busy for write cycles: 509784
7banks busy for read cycles: 602839
7banks busy for write cycles: 448977
8banks busy for read cycles: 943056
8banks busy for write cycles: 951026

CPU 0 Branch Prediction Accuracy: 99.5917% MPKI: 0.749205 Average ROB Occupancy at Mispredict: 28.6175
Branch types
NOT_BRANCH: 163297289 81.6486%
BRANCH_DIRECT_JUMP: 3125250 1.56262%
BRANCH_INDIRECT: 11716382 5.85819%
BRANCH_CONDITIONAL: 15528542 7.76427%
BRANCH_DIRECT_CALL: 2710252 1.35513%
BRANCH_INDIRECT_CALL: 455858 0.227929%
BRANCH_RETURN: 3166086 1.58304%
BRANCH_OTHER: 0 0%

DRAM PAGES: 1048576
Allocated PAGES: 5392
