
*** ChampSim Multicore Out-of-Order Simulator ***

Warmup Instructions: 50000000
Simulation Instructions: 200000000
Number of CPUs: 1
LLC sets: 2048
LLC ways: 16
Off-chip DRAM Size: 4096 MB Channels: 1 Width: 64-bit Data Rate: 6400 MT/s
CPU 0 runs traces/spec2k17/srv_20.champsimtrace.xz
.xz
BTB has LRU replacement policy
ITLB has LRU replacement policy
DTLB has LRU replacement policy
STLB has LRU replacement policy
L1I has LRU replacement policy
L1D has LRU replacement policy
Initialize SRRIP state for L2C
Initialize DRRIP state for LLC
Heartbeat CPU 0 instructions: 10000001 cycles: 2832542 heartbeat IPC: 3.5304 cumulative IPC: 3.5304 (Simulation time: 0 hr 0 min 38 sec) 
Heartbeat CPU 0 instructions: 20000003 cycles: 5657071 heartbeat IPC: 3.54041 cumulative IPC: 3.5354 (Simulation time: 0 hr 1 min 18 sec) 
Heartbeat CPU 0 instructions: 30000003 cycles: 8484154 heartbeat IPC: 3.53721 cumulative IPC: 3.536 (Simulation time: 0 hr 2 min 0 sec) 
*** Reached end of trace for Core: 0 Repeating trace: traces/spec2k17/srv_20.champsimtrace.xz
Heartbeat CPU 0 instructions: 40000000 cycles: 11310298 heartbeat IPC: 3.53839 cumulative IPC: 3.5366 (Simulation time: 0 hr 2 min 40 sec) 
Heartbeat CPU 0 instructions: 50000003 cycles: 14134416 heartbeat IPC: 3.54093 cumulative IPC: 3.53747 (Simulation time: 0 hr 3 min 14 sec) 

Warmup complete CPU 0 instructions: 50000003 cycles: 14134416 (Simulation time: 0 hr 3 min 14 sec) 

Heartbeat CPU 0 instructions: 60000003 cycles: 46995537 heartbeat IPC: 0.304311 cumulative IPC: 0.304311 (Simulation time: 0 hr 4 min 6 sec) 
*** Reached end of trace for Core: 0 Repeating trace: traces/spec2k17/srv_20.champsimtrace.xz
Heartbeat CPU 0 instructions: 70000003 cycles: 79745491 heartbeat IPC: 0.305344 cumulative IPC: 0.304827 (Simulation time: 0 hr 4 min 54 sec) 
Heartbeat CPU 0 instructions: 80000000 cycles: 112252401 heartbeat IPC: 0.307627 cumulative IPC: 0.305754 (Simulation time: 0 hr 5 min 57 sec) 
Heartbeat CPU 0 instructions: 90000001 cycles: 144981050 heartbeat IPC: 0.305543 cumulative IPC: 0.305701 (Simulation time: 0 hr 6 min 58 sec) 
*** Reached end of trace for Core: 0 Repeating trace: traces/spec2k17/srv_20.champsimtrace.xz
Heartbeat CPU 0 instructions: 100000001 cycles: 177689736 heartbeat IPC: 0.305729 cumulative IPC: 0.305707 (Simulation time: 0 hr 7 min 55 sec) 
Heartbeat CPU 0 instructions: 110000000 cycles: 210225353 heartbeat IPC: 0.307355 cumulative IPC: 0.30598 (Simulation time: 0 hr 8 min 55 sec) 
Heartbeat CPU 0 instructions: 120000000 cycles: 242920089 heartbeat IPC: 0.30586 cumulative IPC: 0.305963 (Simulation time: 0 hr 9 min 45 sec) 
*** Reached end of trace for Core: 0 Repeating trace: traces/spec2k17/srv_20.champsimtrace.xz
Heartbeat CPU 0 instructions: 130000000 cycles: 275645302 heartbeat IPC: 0.305575 cumulative IPC: 0.305915 (Simulation time: 0 hr 10 min 43 sec) 
Heartbeat CPU 0 instructions: 140000000 cycles: 308233661 heartbeat IPC: 0.306858 cumulative IPC: 0.306019 (Simulation time: 0 hr 11 min 42 sec) 
Heartbeat CPU 0 instructions: 150000000 cycles: 340931832 heartbeat IPC: 0.305827 cumulative IPC: 0.306 (Simulation time: 0 hr 12 min 39 sec) 
*** Reached end of trace for Core: 0 Repeating trace: traces/spec2k17/srv_20.champsimtrace.xz
Heartbeat CPU 0 instructions: 160000003 cycles: 373567478 heartbeat IPC: 0.306414 cumulative IPC: 0.306038 (Simulation time: 0 hr 13 min 33 sec) 
Heartbeat CPU 0 instructions: 170000001 cycles: 406262375 heartbeat IPC: 0.305858 cumulative IPC: 0.306023 (Simulation time: 0 hr 14 min 34 sec) 
Heartbeat CPU 0 instructions: 180000001 cycles: 438776144 heartbeat IPC: 0.307562 cumulative IPC: 0.30614 (Simulation time: 0 hr 15 min 32 sec) 
*** Reached end of trace for Core: 0 Repeating trace: traces/spec2k17/srv_20.champsimtrace.xz
Heartbeat CPU 0 instructions: 190000002 cycles: 471422763 heartbeat IPC: 0.30631 cumulative IPC: 0.306153 (Simulation time: 0 hr 16 min 27 sec) 
Heartbeat CPU 0 instructions: 200000000 cycles: 504082067 heartbeat IPC: 0.306191 cumulative IPC: 0.306155 (Simulation time: 0 hr 17 min 26 sec) 
Heartbeat CPU 0 instructions: 210000002 cycles: 536580068 heartbeat IPC: 0.307711 cumulative IPC: 0.306252 (Simulation time: 0 hr 18 min 23 sec) 
*** Reached end of trace for Core: 0 Repeating trace: traces/spec2k17/srv_20.champsimtrace.xz
Heartbeat CPU 0 instructions: 220000000 cycles: 569301194 heartbeat IPC: 0.305613 cumulative IPC: 0.306214 (Simulation time: 0 hr 19 min 22 sec) 
Heartbeat CPU 0 instructions: 230000000 cycles: 601944259 heartbeat IPC: 0.306344 cumulative IPC: 0.306221 (Simulation time: 0 hr 20 min 25 sec) 
Heartbeat CPU 0 instructions: 240000000 cycles: 634445651 heartbeat IPC: 0.307679 cumulative IPC: 0.306298 (Simulation time: 0 hr 21 min 20 sec) 
*** Reached end of trace for Core: 0 Repeating trace: traces/spec2k17/srv_20.champsimtrace.xz
Heartbeat CPU 0 instructions: 250000002 cycles: 667173410 heartbeat IPC: 0.305551 cumulative IPC: 0.30626 (Simulation time: 0 hr 22 min 18 sec) 
Finished CPU 0 instructions: 200000003 cycles: 653038995 cumulative IPC: 0.30626 (Simulation time: 0 hr 22 min 18 sec) 

ChampSim completed all CPUs

Region of Interest Statistics

CPU 0 cumulative IPC: 0.30626 instructions: 200000003 cycles: 653038995
ITLB TOTAL     ACCESS:   34720106  HIT:   32686421  MISS:    2033685  HIT %:    94.1426  MISS %:    5.85737   MPKI: 10.1684
ITLB LOAD TRANSLATION ACCESS:   34720106  HIT:   32686421  MISS:    2033685  HIT %:    94.1426  MISS %:    5.85737   MPKI: 10.1684
ITLB PREFETCH  REQUESTED:          0  ISSUED:          0  USEFUL:          0  USELESS:          0
ITLB USEFUL LOAD PREFETCHES:          0 PREFETCH ISSUED TO LOWER LEVEL:          0  ACCURACY: -nan
ITLB TIMELY PREFETCHES:          0 LATE PREFETCHES: 0 DROPPED PREFETCHES: 0
ITLB PREFETCHES SAME FILL-ORIGIN LEVEL: 0 DIFFERENT FILL-ORIGIN LEVEL: 0
ITLB AVERAGE MISS LATENCY: 9.05747 cycles
ITLB RQ	ACCESS:   40947532	FORWARD:          0	MERGED:    5743074	TO_CACHE:   35204458

DTLB TOTAL     ACCESS:   46475860  HIT:   44634118  MISS:    1841742  HIT %:    96.0372  MISS %:    3.96279   MPKI: 9.20871
DTLB LOAD TRANSLATION ACCESS:   46475860  HIT:   44634118  MISS:    1841742  HIT %:    96.0372  MISS %:    3.96279   MPKI: 9.20871
DTLB PREFETCH  REQUESTED:          0  ISSUED:          0  USEFUL:          0  USELESS:          0
DTLB USEFUL LOAD PREFETCHES:          0 PREFETCH ISSUED TO LOWER LEVEL:          0  ACCURACY: -nan
DTLB TIMELY PREFETCHES:          0 LATE PREFETCHES: 0 DROPPED PREFETCHES: 0
DTLB PREFETCHES SAME FILL-ORIGIN LEVEL: 0 DIFFERENT FILL-ORIGIN LEVEL: 0
DTLB AVERAGE MISS LATENCY: 9.22982 cycles
DTLB RQ	ACCESS:   61130553	FORWARD:          0	MERGED:   14588878	TO_CACHE:   46541675

STLB TOTAL     ACCESS:    4355340  HIT:    4347062  MISS:       8278  HIT %:    99.8099  MISS %:   0.190066   MPKI: 0.04139
STLB LOAD TRANSLATION ACCESS:    3875427  HIT:    3867149  MISS:       8278  HIT %:    99.7864  MISS %:   0.213602   MPKI: 0.04139
STLB TRANSLATION FROM L1D PREFETCHER ACCESS:     479913  HIT:     479913  MISS:          0  HIT %:        100  MISS %:          0   MPKI: 0
STLB PREFETCH  REQUESTED:          0  ISSUED:          0  USEFUL:          0  USELESS:          0
STLB USEFUL LOAD PREFETCHES:          0 PREFETCH ISSUED TO LOWER LEVEL:          0  ACCURACY: -nan
STLB TIMELY PREFETCHES:          0 LATE PREFETCHES: 0 DROPPED PREFETCHES: 0
STLB PREFETCHES SAME FILL-ORIGIN LEVEL: 0 DIFFERENT FILL-ORIGIN LEVEL: 0
STLB AVERAGE MISS LATENCY: 62.2851 cycles
STLB RQ	ACCESS:    5547386	FORWARD:          0	MERGED:    1192046	TO_CACHE:    4355340

STLB Hit, L1D data hit: 0
STLB Hit, L2C data hit: 0
STLB Hit, LLC data hit: 0
STLB Hit, LLC data miss: 0
STLB STLB hints to L2: 0
L1D TOTAL     ACCESS:   60116932  HIT:   55426459  MISS:    4690473  HIT %:    92.1978  MISS %:    7.80225   MPKI: 23.4524
L1D LOAD      ACCESS:   34227344  HIT:   31400728  MISS:    2826616  HIT %:    91.7416  MISS %:    8.25836   MPKI: 14.1331
L1D RFO       ACCESS:   25032908  HIT:   23906791  MISS:    1126117  HIT %:    95.5015  MISS %:    4.49855   MPKI: 5.63058
L1D PREFETCH  ACCESS:     856680  HIT:     118940  MISS:     737740  HIT %:    13.8838  MISS %:    86.1162   MPKI: 3.6887
AGUS PREFETCH L1 MISS: 0
L1D PREFETCH  REQUESTED:    3349312  ISSUED:    3349312  USEFUL:     159171  USELESS:     578607
L1D USEFUL LOAD PREFETCHES:     159171 PREFETCH ISSUED TO LOWER LEVEL:    1537604  ACCURACY: 10.3519
L1D TIMELY PREFETCHES:     159171 LATE PREFETCHES: 21439 DROPPED PREFETCHES: 0
L1D PREFETCHES SAME FILL-ORIGIN LEVEL: 760210 DIFFERENT FILL-ORIGIN LEVEL: 777394
L1D AVERAGE MISS LATENCY: 1.52848e+06 cycles
L1D RQ	ACCESS:   47503337	FORWARD:          0	MERGED:   12865534	TO_CACHE:   34338535
L1D WQ	ACCESS:   26961101	FORWARD:     299495	MERGED:     169083	TO_CACHE:   26792018
L1D PQ	ACCESS:    1677353	FORWARD:          0	MERGED:       5167	TO_CACHE:    1671959

L1D UNIQUE REGIONS ACCESSED: 0
L1D REGIONS CONFLICTS: 0
L1D Cross Page Prefetch Requests: 0
L1D Same Page Prefetch Requests: 2117972
L1D ROI Sum of L1D PQ occupancy: 23394744
L1D PREFETCHES PUSHED FROM L2C: 0
L1I TOTAL     ACCESS:   39413046  HIT:   28796538  MISS:   10616508  HIT %:    73.0635  MISS %:    26.9365   MPKI: 53.0825
L1I LOAD      ACCESS:   39413046  HIT:   28796538  MISS:   10616508  HIT %:    73.0635  MISS %:    26.9365   MPKI: 53.0825
L1I PREFETCH  REQUESTED:          0  ISSUED:          0  USEFUL:          0  USELESS:          0
L1I USEFUL LOAD PREFETCHES:          0 PREFETCH ISSUED TO LOWER LEVEL:          0  ACCURACY: -nan
L1I TIMELY PREFETCHES:          0 LATE PREFETCHES: 0 DROPPED PREFETCHES: 0
L1I PREFETCHES SAME FILL-ORIGIN LEVEL: 0 DIFFERENT FILL-ORIGIN LEVEL: 0
L1I AVERAGE MISS LATENCY: 17.6524 cycles
L1I RQ	ACCESS:   57970396	FORWARD:          0	MERGED:   17022864	TO_CACHE:   40947532

BTB TOTAL     ACCESS:   29994003  HIT:   17272559  MISS:   12721444  HIT %:    57.5867  MISS %:    42.4133   MPKI: 63.6072
BTB BRANCH_DIRECT_JUMP	ACCESS:    2025965  HIT:    1135056  MISS:     890909
BTB BRANCH_INDIRECT	ACCESS:   11876543  HIT:    7045667  MISS:    4830876
BTB BRANCH_CONDITIONAL	ACCESS:    7549910  HIT:    6212601  MISS:    1337309
BTB BRANCH_DIRECT_CALL	ACCESS:    3602863  HIT:    1507613  MISS:    2095250
BTB BRANCH_INDIRECT_CALL	ACCESS:     667964  HIT:     262432  MISS:     405532
BTB BRANCH_RETURN	ACCESS:    4270758  HIT:    1109190  MISS:    3161568
BTB BRANCH_OTHER ACCESS:          0  HIT:          0  MISS:          0

L2C TOTAL     ACCESS:   18121487  HIT:   15449058  MISS:    2672429  HIT %:    85.2527  MISS %:    14.7473   MPKI: 13.3621
L2C LOAD      ACCESS:   13421666  HIT:   11821069  MISS:    1600597  HIT %:    88.0745  MISS %:    11.9255   MPKI: 8.00298
L2C DATA LOAD MPKI: 1.79243
L2C INSTRUCTION LOAD MPKI: 6.21055
L2C RFO       ACCESS:    1125085  HIT:     892677  MISS:     232408  HIT %:    79.3431  MISS %:    20.6569   MPKI: 1.16204
L2C PREFETCH  ACCESS:    1519265  HIT:     751883  MISS:     767382  HIT %:    49.4899  MISS %:    50.5101   MPKI: 3.83691
AGUS PREFETCH L1 MISS: 0
L2C DATA PREFETCH MPKI: 3.83691
L2C INSTRUCTION PREFETCH MPKI: 0
L2C WRITEBACK ACCESS:    2046320  HIT:    1981271  MISS:      65049  HIT %:    96.8212  MISS %:    3.17883   MPKI: 0.325245
L2C LOAD TRANSLATION ACCESS:       9151  HIT:       2158  MISS:       6993  HIT %:    23.5821  MISS %:    76.4179   MPKI: 0.034965
L2C PREFETCH  REQUESTED:          0  ISSUED:          0  USEFUL:      43016  USELESS:     724673
L2C USEFUL LOAD PREFETCHES:      43016 PREFETCH ISSUED TO LOWER LEVEL:     774624  ACCURACY: 5.55315
L2C TIMELY PREFETCHES:      43016 LATE PREFETCHES: 7242 DROPPED PREFETCHES: 0
L2C PREFETCHES SAME FILL-ORIGIN LEVEL: 421540 DIFFERENT FILL-ORIGIN LEVEL: 0
L2C AVERAGE MISS LATENCY: 37.3238 cycles
L2C RQ	ACCESS:   14555921	FORWARD:          0	MERGED:          0	TO_CACHE:   14555902
L2C WQ	ACCESS:    2046320	FORWARD:         19	MERGED:          0	TO_CACHE:    2046320
L2C PQ	ACCESS:    1537604	FORWARD:          0	MERGED:         83	TO_CACHE:    1537521

L2C Instructions Evicting Data 592025
L2C Translations Evicting Data 4963
L2C Data Evicting Data 797460
L2C Instructions Evicting Instructions 647863
L2C Translations Evicting Instructions 2012
L2C Data Evicting Instructions 556110
L2C Instructions Evicting Translations 2223
L2C Translations Evicting Translations 18
L2C Data Evicting Translations 4706
L2C Dense regions hint from L2: 0
PSCL5 TOTAL     ACCESS:       8278  HIT:       8278  MISS:          0  HIT %:        100  MISS %:          0   MPKI: 0
PSCL5 LOAD TRANSLATION ACCESS:       8278  HIT:       8278  MISS:          0  HIT %:        100  MISS %:          0   MPKI: 0
PSCL5 PREFETCH  REQUESTED:          0  ISSUED:          0  USEFUL:          0  USELESS:          0
PSCL5 USEFUL LOAD PREFETCHES:          0 PREFETCH ISSUED TO LOWER LEVEL:          0  ACCURACY: -nan
PSCL5 TIMELY PREFETCHES:          0 LATE PREFETCHES: 0 DROPPED PREFETCHES: 0
PSCL5 PREFETCHES SAME FILL-ORIGIN LEVEL: 0 DIFFERENT FILL-ORIGIN LEVEL: 0

PSCL4 TOTAL     ACCESS:       7642  HIT:       7546  MISS:         96  HIT %:    98.7438  MISS %:    1.25622   MPKI: 0.00048
PSCL4 LOAD TRANSLATION ACCESS:       7642  HIT:       7546  MISS:         96  HIT %:    98.7438  MISS %:    1.25622   MPKI: 0.00048
PSCL4 PREFETCH  REQUESTED:          0  ISSUED:          0  USEFUL:          0  USELESS:          0
PSCL4 USEFUL LOAD PREFETCHES:          0 PREFETCH ISSUED TO LOWER LEVEL:          0  ACCURACY: -nan
PSCL4 TIMELY PREFETCHES:          0 LATE PREFETCHES: 0 DROPPED PREFETCHES: 0
PSCL4 PREFETCHES SAME FILL-ORIGIN LEVEL: 0 DIFFERENT FILL-ORIGIN LEVEL: 0

PSCL3 TOTAL     ACCESS:       7845  HIT:       7749  MISS:         96  HIT %:    98.7763  MISS %:    1.22371   MPKI: 0.00048
PSCL3 LOAD TRANSLATION ACCESS:       7845  HIT:       7749  MISS:         96  HIT %:    98.7763  MISS %:    1.22371   MPKI: 0.00048
PSCL3 PREFETCH  REQUESTED:          0  ISSUED:          0  USEFUL:          0  USELESS:          0
PSCL3 USEFUL LOAD PREFETCHES:          0 PREFETCH ISSUED TO LOWER LEVEL:          0  ACCURACY: -nan
PSCL3 TIMELY PREFETCHES:          0 LATE PREFETCHES: 0 DROPPED PREFETCHES: 0
PSCL3 PREFETCHES SAME FILL-ORIGIN LEVEL: 0 DIFFERENT FILL-ORIGIN LEVEL: 0

PSCL2 TOTAL     ACCESS:       8278  HIT:       7597  MISS:        681  HIT %:    91.7734  MISS %:    8.22662   MPKI: 0.003405
PSCL2 LOAD TRANSLATION ACCESS:       8278  HIT:       7597  MISS:        681  HIT %:    91.7734  MISS %:    8.22662   MPKI: 0.003405
PSCL2 PREFETCH  REQUESTED:          0  ISSUED:          0  USEFUL:          0  USELESS:          0
PSCL2 USEFUL LOAD PREFETCHES:          0 PREFETCH ISSUED TO LOWER LEVEL:          0  ACCURACY: -nan
PSCL2 TIMELY PREFETCHES:          0 LATE PREFETCHES: 0 DROPPED PREFETCHES: 0
PSCL2 PREFETCHES SAME FILL-ORIGIN LEVEL: 0 DIFFERENT FILL-ORIGIN LEVEL: 0

LLC TOTAL     ACCESS:    2963910  HIT:    2834466  MISS:     129444  HIT %:    95.6327  MISS %:    4.36734   MPKI: 0.64722
LLC LOAD      ACCESS:    1593483  HIT:    1577792  MISS:      15691  HIT %:    99.0153  MISS %:   0.984698   MPKI: 0.078455
LLC RFO       ACCESS:     232267  HIT:     193642  MISS:      38625  HIT %:    83.3704  MISS %:    16.6296   MPKI: 0.193125
LLC PREFETCH  ACCESS:     774624  HIT:     701063  MISS:      73561  HIT %:    90.5037  MISS %:    9.49635   MPKI: 0.367805
AGUS PREFETCH L1 MISS: 0
LLC WRITEBACK ACCESS:     356543  HIT:     355685  MISS:        858  HIT %:    99.7594  MISS %:   0.240644   MPKI: 0.00429
LLC LOAD TRANSLATION ACCESS:       6993  HIT:       6284  MISS:        709  HIT %:    89.8613  MISS %:    10.1387   MPKI: 0.003545
LLC PREFETCH  REQUESTED:          0  ISSUED:          0  USEFUL:       5746  USELESS:      69274
LLC USEFUL LOAD PREFETCHES:       5746 PREFETCH ISSUED TO LOWER LEVEL:      73561  ACCURACY: 7.8112
LLC TIMELY PREFETCHES:       5746 LATE PREFETCHES: 0 DROPPED PREFETCHES: 0
LLC PREFETCHES SAME FILL-ORIGIN LEVEL: 0 DIFFERENT FILL-ORIGIN LEVEL: 0
LLC AVERAGE MISS LATENCY: 166.916 cycles
LLC RQ	ACCESS:    1832756	FORWARD:          0	MERGED:          0	TO_CACHE:    1832743
LLC WQ	ACCESS:     356543	FORWARD:         13	MERGED:          0	TO_CACHE:     356543
LLC PQ	ACCESS:     774624	FORWARD:          0	MERGED:          0	TO_CACHE:     774624

LLC Dense regions hint to LLC: 0

RAW hits: 1434598
Loads Generated: 48937935
Loads sent to L1D: 47503337
Stores Generated: 26961103
Stores sent to L1D: 26961101
Major fault: 0 Minor fault: 1949
Allocated PAGES: 1949
=== CPU 0 L1D Prefetcher Statistics ===
[MLOP] History of tracked zone:
IIIIIIIIIIIIIIIIIIIIIIIIIIIIIIIIIIIIIIIIIIIIIIIIIIIIIIIIIIIIIIII
IIIIIIIIIIIIIIIIIIIIIIIIIIIIIIIIIIIIIIIIIIIIIIIIAIIIIIIIIIIIIIII
IIIIIIIIIIIIIIIIIIIIIIIIIIIIIIIIIIIIIIIIIIIIIIIIAIIIIIAIIIIIIIII
IIIIIIIIIIIIIIIIIIIIIIIIIIIIIIIIIIIIAIIIIIIIIIIIAIIIIIAIIIIIIIII
IIIIIIIIIIIIIIIIIIIIIIIIIIIIIIIIIIIIAIIIIIIIIIIIAIIIIIA2IIIIIIII
IIIIIIIIIIIIIIIIIIIIIIIIIIIIIIIIIIIIA2IIIIIIIIIIAIIIIIA2IIIIIIII
IIIIIIIIIIIIIIIIIIIIIIIIIIIIIIIIIIIIA2IIIIIIIIIIAIIIIIA12IIIIIII
IIIIIIIIIIIIIIIIIIIIIIIIIIIIIIIIIIIIA2IIIIIIIIIIA12IIIA12IIIIIII
IIIIIIIIIIIIIIIIIIIIIIIIIIIIIIIIIIIIA12IIIIIIIIIA12IIIA12IIIIIII
IIIIIIIIIIIIIIIIIIIIIIIIIIIIIIIIIIIIA12IIIIIIIIIA12IIIA12IIIIIIA
IIIIIIIIIIIIIIIIIIIIIIIIIIIIIIIIIIIIA12IIIIIIIIIA12IIIA11122I2IA
IIIIIIIIIIIIIIIIIIIIIIIIIIIIIIIIIIIIA11122I2IIIIA12IIIA11122I2IA
IIIIIIIIIIIIIIIIIIIIIIIIIIIIIIIIIIIIA11122I2IIIIA11122A11122I2IA
IIIIIIIIIIIIIIIIIIIIIIIIIIIIIIIIIIIIA11122I2IIIIA11122A1112222IA
IIIIIIIIIIIIIIIIIIIIIIIIIIIIIIIIIIIIA1112222IIIIA11122A1112222IA
IIIIIIIIIIIIIIIIIIIIIIIIIIIIIIIIIIIIA1112222IIIIA11122A11122222A
IIIIIIIIIIIIIIIIIIIIIIIIIIIIIIIIIIIIA11122222IIIA11122A11122222A
IIIIIIIIIIIIIIIIIIIIIIIIIIIIIIIIIIIIA111222222IIA11122A11122222A
IIIIIIIIIIIIIIIIIIIIIIIIIIIIIIIIIIIIA111222222IIA11122A1112222AA
IIIIIIIIIIIIIIIIIIIIIIIIIIIIIIIIIIIIA111222222IIA11122A1111222AA
IIIIIIIIIIIIIIIIIIIIIIIIIIIIIIIIIIIIA111122222IIA11122A1111222AA
IIIIIIIIIIIIIIIIIIIIIIIIIIIIIIIIIIIIA111122222IIA11112A1111222AA
IIIIIIIIIIIIIIIIIIIIIIIIIIIIIIIIIIIIA111122222IIAA1112A1111222AA
IIIIIIIIIIIIIIIIIIIIIIIIIIIIIIIIIIIIA111122222IIAA1112A1111122AA
IIIIIIIIIIIIIIIIIIIIIIIIIIIIIIIIIIIIA11111222222AA1112A1111122AA
IIIIIIIIIIIIIIIIIIIIIIIIIIIIIIIIIIIIA11111222222AA1111A1111122AA
IIIIIIIIIIIIIIIIIIIIIIIIIIIIIIIIIIIIA11111222222AA1111A1111111AA
IIIIIIIIIIIIIIIIIIIIIIIIIIIIIIIIIIIIA11111112222AA1111A1111111AA
IIIIIIIIIIIIIIIIIIIIIIIIIIIIIIIIIIIIA11111112222AA1111A1A11111AA
IIIIIIIIIIIIIIIIIIIIIIIIIIIIIIIIIIIIA111111A1111AA1111A1A11111AA
IIIIIIIIIIIIIIIIIIIIIIIIIIIIIIIIIIIIA111111A1111AAA111A1A11111AA
IIIIIIIIIIIIIIIIIIIIIIIIIIIIIIIIIIIIA111111A1111AAA11AA1A11111AA
IIIIIIIIIIIIIIIIIIIIIIIIIIIIIIIIIIIIA111111A111AAAA11AA1A11111AA
IIIIIIIIIIIIIIIIIIIIIIIIIIIIIIIIIIIIA111111A111AAAA1AAA1A11111AA
IIIIIIIIIIIIIIIIIIIIIIIIIIIIIIIIIIIIA111111A111AAAA1AAAAA11111AA
IIIIIIIIIIIIIIIIIIIIIIIIIIIIIIIIIIIIA1A1111A111AAAA1AAAAA11111AA
IIIIIIIIIIIIIIIIIIIIIIIIIIIIIIIIIIIIA1A1111A111AAAA1AAAAA1111AAA
IIIIIIIIIIIIIIIIIIIIIIIIIIIIIIIIIIIIAAA1111A111AAAA1AAAAA1111AAA
[MLOP] Prefetch Degree Mean: 4.80906
[MLOP] Prefetch Degree SD: 4.08918
[MLOP] Max Score Left Mean (%): 16.6217
[MLOP] Max Score Left SD (%): 13.463
[MLOP] Max Score Right Mean (%): 47.7319
[MLOP] Max Score Right SD (%): 14.8505

DRAM Statistics
 CHANNEL 0
 RQ ROW_BUFFER_HIT:      52643  ROW_BUFFER_MISS:      75841
 DBUS_CONGESTED:         53
 WQ ROW_BUFFER_HIT:       4253  ROW_BUFFER_MISS:      42005  FULL:          0

 AVG_CONGESTED_CYCLE: 5
 All warmup complete: 2
Channel 0 Bank busy for read cycles: 0
Channel 0 Bank busy for write cycles: 0
Channel 0
Rank 0
0banks busy for read cycles: 644899007
0banks busy for write cycles: 12493
1banks busy for read cycles: 2564477
1banks busy for write cycles: 1346431
2banks busy for read cycles: 767062
2banks busy for write cycles: 429496
3banks busy for read cycles: 480072
3banks busy for write cycles: 262192
4banks busy for read cycles: 379591
4banks busy for write cycles: 190041
5banks busy for read cycles: 318650
5banks busy for write cycles: 140692
6banks busy for read cycles: 288096
6banks busy for write cycles: 99162
7banks busy for read cycles: 228841
7banks busy for write cycles: 82377
8banks busy for read cycles: 265783
8banks busy for write cycles: 284533

CPU 0 Branch Prediction Accuracy: 99.8849% MPKI: 0.202245 Average ROB Occupancy at Mispredict: 31.932
Branch types
NOT_BRANCH: 164866966 82.4335%
BRANCH_DIRECT_JUMP: 2025965 1.01298%
BRANCH_INDIRECT: 11876543 5.93827%
BRANCH_CONDITIONAL: 12688705 6.34435%
BRANCH_DIRECT_CALL: 3602863 1.80143%
BRANCH_INDIRECT_CALL: 667964 0.333982%
BRANCH_RETURN: 4270758 2.13538%
BRANCH_OTHER: 0 0%

DRAM PAGES: 1048576
Allocated PAGES: 1949
