
*** ChampSim Multicore Out-of-Order Simulator ***

Warmup Instructions: 50000000
Simulation Instructions: 200000000
Number of CPUs: 1
LLC sets: 2048
LLC ways: 16
Off-chip DRAM Size: 4096 MB Channels: 1 Width: 64-bit Data Rate: 6400 MT/s
CPU 0 runs traces/spec2k17/client_003.champsimtrace.xz
.xz
BTB has LRU replacement policy
ITLB has LRU replacement policy
DTLB has LRU replacement policy
STLB has LRU replacement policy
L1I has LRU replacement policy
History Sets: 8
History Ways: 16
BERTI Size: 16
BERTI Stride Size: 16
L1D has LRU replacement policy
Initialize SRRIP state for L2C
Initialize DRRIP state for LLC
Heartbeat CPU 0 instructions: 10000002 cycles: 2756321 heartbeat IPC: 3.62803 cumulative IPC: 3.62803 (Simulation time: 0 hr 0 min 34 sec) 
Heartbeat CPU 0 instructions: 20000001 cycles: 5528825 heartbeat IPC: 3.60685 cumulative IPC: 3.61741 (Simulation time: 0 hr 1 min 10 sec) 
Heartbeat CPU 0 instructions: 30000003 cycles: 8282398 heartbeat IPC: 3.63165 cumulative IPC: 3.62214 (Simulation time: 0 hr 1 min 49 sec) 
Heartbeat CPU 0 instructions: 40000003 cycles: 11038348 heartbeat IPC: 3.62851 cumulative IPC: 3.62373 (Simulation time: 0 hr 2 min 33 sec) 
Heartbeat CPU 0 instructions: 50000000 cycles: 13807733 heartbeat IPC: 3.61091 cumulative IPC: 3.62116 (Simulation time: 0 hr 3 min 21 sec) 

Warmup complete CPU 0 instructions: 50000004 cycles: 13807734 (Simulation time: 0 hr 3 min 21 sec) 

Heartbeat CPU 0 instructions: 60000001 cycles: 29565032 heartbeat IPC: 0.634627 cumulative IPC: 0.634626 (Simulation time: 0 hr 4 min 22 sec) 
Heartbeat CPU 0 instructions: 70000002 cycles: 45005540 heartbeat IPC: 0.647647 cumulative IPC: 0.641071 (Simulation time: 0 hr 5 min 15 sec) 
Heartbeat CPU 0 instructions: 80000003 cycles: 60998727 heartbeat IPC: 0.625266 cumulative IPC: 0.635715 (Simulation time: 0 hr 6 min 6 sec) 
Heartbeat CPU 0 instructions: 90000000 cycles: 79021620 heartbeat IPC: 0.55485 cumulative IPC: 0.613366 (Simulation time: 0 hr 6 min 58 sec) 
Heartbeat CPU 0 instructions: 100000000 cycles: 89551199 heartbeat IPC: 0.949706 cumulative IPC: 0.660123 (Simulation time: 0 hr 7 min 42 sec) 
*** Reached end of trace for Core: 0 Repeating trace: traces/spec2k17/client_003.champsimtrace.xz
Heartbeat CPU 0 instructions: 110000000 cycles: 105528867 heartbeat IPC: 0.625874 cumulative IPC: 0.654157 (Simulation time: 0 hr 8 min 30 sec) 
Heartbeat CPU 0 instructions: 120000002 cycles: 127863318 heartbeat IPC: 0.447739 cumulative IPC: 0.613736 (Simulation time: 0 hr 9 min 21 sec) 
Heartbeat CPU 0 instructions: 130000001 cycles: 143675582 heartbeat IPC: 0.63242 cumulative IPC: 0.616011 (Simulation time: 0 hr 10 min 14 sec) 
Heartbeat CPU 0 instructions: 140000001 cycles: 159579959 heartbeat IPC: 0.628758 cumulative IPC: 0.617402 (Simulation time: 0 hr 11 min 9 sec) 
Heartbeat CPU 0 instructions: 150000000 cycles: 174681057 heartbeat IPC: 0.662203 cumulative IPC: 0.621607 (Simulation time: 0 hr 12 min 0 sec) 
Heartbeat CPU 0 instructions: 160000001 cycles: 190108871 heartbeat IPC: 0.64818 cumulative IPC: 0.623932 (Simulation time: 0 hr 12 min 42 sec) 
Heartbeat CPU 0 instructions: 170000002 cycles: 204972981 heartbeat IPC: 0.672761 cumulative IPC: 0.627729 (Simulation time: 0 hr 13 min 26 sec) 
Heartbeat CPU 0 instructions: 180000003 cycles: 220498249 heartbeat IPC: 0.644111 cumulative IPC: 0.62896 (Simulation time: 0 hr 14 min 14 sec) 
Heartbeat CPU 0 instructions: 190000002 cycles: 239757013 heartbeat IPC: 0.519244 cumulative IPC: 0.619608 (Simulation time: 0 hr 15 min 4 sec) 
Heartbeat CPU 0 instructions: 200000001 cycles: 250018903 heartbeat IPC: 0.974479 cumulative IPC: 0.635025 (Simulation time: 0 hr 15 min 44 sec) 
*** Reached end of trace for Core: 0 Repeating trace: traces/spec2k17/client_003.champsimtrace.xz
Heartbeat CPU 0 instructions: 210000000 cycles: 265120908 heartbeat IPC: 0.662164 cumulative IPC: 0.636656 (Simulation time: 0 hr 16 min 32 sec) 
Heartbeat CPU 0 instructions: 220000000 cycles: 284878665 heartbeat IPC: 0.50613 cumulative IPC: 0.627142 (Simulation time: 0 hr 17 min 20 sec) 
Heartbeat CPU 0 instructions: 230000000 cycles: 304303471 heartbeat IPC: 0.514806 cumulative IPC: 0.61963 (Simulation time: 0 hr 18 min 6 sec) 
Heartbeat CPU 0 instructions: 240000003 cycles: 319990786 heartbeat IPC: 0.637458 cumulative IPC: 0.620544 (Simulation time: 0 hr 18 min 57 sec) 
Heartbeat CPU 0 instructions: 250000003 cycles: 335259850 heartbeat IPC: 0.654919 cumulative IPC: 0.622177 (Simulation time: 0 hr 19 min 50 sec) 
Finished CPU 0 instructions: 200000003 cycles: 321452117 cumulative IPC: 0.622177 (Simulation time: 0 hr 19 min 50 sec) 

ChampSim completed all CPUs

Region of Interest Statistics

CPU 0 cumulative IPC: 0.622177 instructions: 200000003 cycles: 321452117
ITLB TOTAL     ACCESS:   33364624  HIT:   33034473  MISS:     330151  HIT %:    99.0105  MISS %:   0.989524   MPKI: 1.65075
ITLB LOAD TRANSLATION ACCESS:   33364624  HIT:   33034473  MISS:     330151  HIT %:    99.0105  MISS %:   0.989524   MPKI: 1.65075
ITLB PREFETCH  REQUESTED:          0  ISSUED:          0  USEFUL:          0  USELESS:          0
ITLB USEFUL LOAD PREFETCHES:          0 PREFETCH ISSUED TO LOWER LEVEL:          0  ACCURACY: -nan
ITLB TIMELY PREFETCHES:          0 LATE PREFETCHES: 0 DROPPED PREFETCHES: 0
ITLB PREFETCHES SAME FILL-ORIGIN LEVEL: 0 DIFFERENT FILL-ORIGIN LEVEL: 0
ITLB AVERAGE MISS LATENCY: 9.91783 cycles
ITLB RQ	ACCESS:   38109829	FORWARD:          0	MERGED:    4649562	TO_CACHE:   33460267

DTLB TOTAL     ACCESS:   38458540  HIT:   38019547  MISS:     438993  HIT %:    98.8585  MISS %:    1.14147   MPKI: 2.19496
DTLB LOAD TRANSLATION ACCESS:   38458540  HIT:   38019547  MISS:     438993  HIT %:    98.8585  MISS %:    1.14147   MPKI: 2.19496
DTLB PREFETCH  REQUESTED:          0  ISSUED:          0  USEFUL:          0  USELESS:          0
DTLB USEFUL LOAD PREFETCHES:          0 PREFETCH ISSUED TO LOWER LEVEL:          0  ACCURACY: -nan
DTLB TIMELY PREFETCHES:          0 LATE PREFETCHES: 0 DROPPED PREFETCHES: 0
DTLB PREFETCHES SAME FILL-ORIGIN LEVEL: 0 DIFFERENT FILL-ORIGIN LEVEL: 0
DTLB AVERAGE MISS LATENCY: 11.2629 cycles
DTLB RQ	ACCESS:   53538795	FORWARD:          0	MERGED:   15021826	TO_CACHE:   38516969

STLB TOTAL     ACCESS:    2968604  HIT:    2954130  MISS:      14474  HIT %:    99.5124  MISS %:   0.487569   MPKI: 0.07237
STLB LOAD TRANSLATION ACCESS:     769144  HIT:     755448  MISS:      13696  HIT %:    98.2193  MISS %:    1.78068   MPKI: 0.06848
STLB TRANSLATION FROM L1D PREFETCHER ACCESS:    2199460  HIT:    2198682  MISS:        778  HIT %:    99.9646  MISS %:  0.0353723   MPKI: 0.00389
STLB PREFETCH  REQUESTED:          0  ISSUED:          0  USEFUL:        766  USELESS:         14
STLB USEFUL LOAD PREFETCHES:        766 PREFETCH ISSUED TO LOWER LEVEL:          0  ACCURACY: inf
STLB TIMELY PREFETCHES:        766 LATE PREFETCHES: 10 DROPPED PREFETCHES: 13355
STLB PREFETCHES SAME FILL-ORIGIN LEVEL: 0 DIFFERENT FILL-ORIGIN LEVEL: 0
STLB AVERAGE MISS LATENCY: 92.5051 cycles
STLB RQ	ACCESS:   14542077	FORWARD:          0	MERGED:   11557928	TO_CACHE:    2984149

STLB Hit, L1D data hit: 0
STLB Hit, L2C data hit: 0
STLB Hit, LLC data hit: 0
STLB Hit, LLC data miss: 0
STLB STLB hints to L2: 0
L1D TOTAL     ACCESS:   63491095  HIT:   62123968  MISS:    1367127  HIT %:    97.8467  MISS %:    2.15326   MPKI: 6.83563
L1D LOAD      ACCESS:   26250161  HIT:   25806276  MISS:     443885  HIT %:     98.309  MISS %:    1.69098   MPKI: 2.21942
L1D RFO       ACCESS:   24980358  HIT:   24208019  MISS:     772339  HIT %:    96.9082  MISS %:    3.09179   MPKI: 3.86169
L1D PREFETCH  ACCESS:   12260576  HIT:   12109673  MISS:     150903  HIT %:    98.7692  MISS %:     1.2308   MPKI: 0.754515
L1D PREFETCH  REQUESTED:   28552737  ISSUED:   28529651  USEFUL:     145286  USELESS:       5627
L1D USEFUL LOAD PREFETCHES:     145286 PREFETCH ISSUED TO LOWER LEVEL:    1150216  ACCURACY: 12.6312
L1D TIMELY PREFETCHES:     145286 LATE PREFETCHES: 2535 DROPPED PREFETCHES: 40477
L1D PREFETCHES SAME FILL-ORIGIN LEVEL: 153441 DIFFERENT FILL-ORIGIN LEVEL: 996775
L1D AVERAGE MISS LATENCY: 114.464 cycles
L1D RQ	ACCESS:   42852702	FORWARD:          0	MERGED:   15950539	TO_CACHE:   26304292
L1D WQ	ACCESS:   28298364	FORWARD:     597880	MERGED:    1063861	TO_CACHE:   27234503
L1D PQ	ACCESS:   14756718	FORWARD:          0	MERGED:     983776	TO_CACHE:   13772933

L1D UNIQUE REGIONS ACCESSED: 0
L1D REGIONS CONFLICTS: 0
L1D Cross Page Prefetch Requests: 1329995
L1D Same Page Prefetch Requests: 13720508
L1D ROI Sum of L1D PQ occupancy: 210062466
L1D PREFETCHES PUSHED FROM L2C: 0
L1I TOTAL     ACCESS:   37640116  HIT:   35714392  MISS:    1925724  HIT %:    94.8839  MISS %:    5.11615   MPKI: 9.62862
L1I LOAD      ACCESS:   37640116  HIT:   35714392  MISS:    1925724  HIT %:    94.8839  MISS %:    5.11615   MPKI: 9.62862
L1I PREFETCH  REQUESTED:          0  ISSUED:          0  USEFUL:          0  USELESS:          0
L1I USEFUL LOAD PREFETCHES:          0 PREFETCH ISSUED TO LOWER LEVEL:          0  ACCURACY: -nan
L1I TIMELY PREFETCHES:          0 LATE PREFETCHES: 0 DROPPED PREFETCHES: 0
L1I PREFETCHES SAME FILL-ORIGIN LEVEL: 0 DIFFERENT FILL-ORIGIN LEVEL: 0
L1I AVERAGE MISS LATENCY: 22.9619 cycles
L1I RQ	ACCESS:   61222418	FORWARD:          0	MERGED:   23112589	TO_CACHE:   38109829

BTB TOTAL     ACCESS:   31972587  HIT:   29330609  MISS:    2641978  HIT %:    91.7367  MISS %:    8.26326   MPKI: 13.2099
BTB BRANCH_DIRECT_JUMP	ACCESS:    1668733  HIT:    1599654  MISS:      69079
BTB BRANCH_INDIRECT	ACCESS:   12964857  HIT:   12148638  MISS:     816219
BTB BRANCH_CONDITIONAL	ACCESS:    9737527  HIT:    9606081  MISS:     131446
BTB BRANCH_DIRECT_CALL	ACCESS:    3293738  HIT:    3140897  MISS:     152841
BTB BRANCH_INDIRECT_CALL	ACCESS:     505068  HIT:     384959  MISS:     120109
BTB BRANCH_RETURN	ACCESS:    3802664  HIT:    2450380  MISS:    1352284
BTB BRANCH_OTHER ACCESS:          0  HIT:          0  MISS:          0

L2C TOTAL     ACCESS:    5017347  HIT:    3767049  MISS:    1250298  HIT %:    75.0805  MISS %:    24.9195   MPKI: 6.25149
L2C LOAD      ACCESS:    2367064  HIT:    1983187  MISS:     383877  HIT %:    83.7826  MISS %:    16.2174   MPKI: 1.91938
L2C DATA LOAD MPKI: 0.761455
L2C INSTRUCTION LOAD MPKI: 1.15793
L2C RFO       ACCESS:     772331  HIT:     130714  MISS:     641617  HIT %:    16.9246  MISS %:    83.0754   MPKI: 3.20808
L2C PREFETCH  ACCESS:     976113  HIT:     787043  MISS:     189070  HIT %:    80.6303  MISS %:    19.3697   MPKI: 0.94535
L2C DATA PREFETCH MPKI: 0.94535
L2C INSTRUCTION PREFETCH MPKI: 0
L2C WRITEBACK ACCESS:     873583  HIT:     843491  MISS:      30092  HIT %:    96.5553  MISS %:    3.44466   MPKI: 0.15046
L2C LOAD TRANSLATION ACCESS:      14100  HIT:       8782  MISS:       5318  HIT %:    62.2837  MISS %:    37.7163   MPKI: 0.02659
L2C TRANSLATION FROM L1D PREFETCHER ACCESS:      14156  HIT:      13832  MISS:        324  HIT %:    97.7112  MISS %:    2.28878   MPKI: 0.00162
L2C PREFETCH  REQUESTED:          0  ISSUED:          0  USEFUL:      28784  USELESS:     160817
L2C USEFUL LOAD PREFETCHES:      28784 PREFETCH ISSUED TO LOWER LEVEL:     191280  ACCURACY: 15.0481
L2C TIMELY PREFETCHES:      28784 LATE PREFETCHES: 2210 DROPPED PREFETCHES: 0
L2C PREFETCHES SAME FILL-ORIGIN LEVEL: 90506 DIFFERENT FILL-ORIGIN LEVEL: 0
L2C AVERAGE MISS LATENCY: 136.951 cycles
L2C RQ	ACCESS:    3167665	FORWARD:          0	MERGED:          0	TO_CACHE:    3167650
L2C WQ	ACCESS:     873583	FORWARD:         15	MERGED:          0	TO_CACHE:     873583
L2C PQ	ACCESS:    1150216	FORWARD:          0	MERGED:        251	TO_CACHE:    1149965

L2C Instructions Evicting Data 148329
L2C Translations Evicting Data 4118
L2C Data Evicting Data 839128
L2C Instructions Evicting Instructions 81724
L2C Translations Evicting Instructions 1436
L2C Data Evicting Instructions 139941
L2C Instructions Evicting Translations 1533
L2C Translations Evicting Translations 88
L2C Data Evicting Translations 3909
L2C Dense regions hint from L2: 0
PSCL5 TOTAL     ACCESS:      27832  HIT:      27832  MISS:          0  HIT %:        100  MISS %:          0   MPKI: 0
PSCL5 LOAD TRANSLATION ACCESS:      13689  HIT:      13689  MISS:          0  HIT %:        100  MISS %:          0   MPKI: 0
PSCL5 TRANSLATION FROM L1D PREFETCHER ACCESS:      14143  HIT:      14143  MISS:          0  HIT %:        100  MISS %:          0   MPKI: 0
PSCL5 PREFETCH  REQUESTED:          0  ISSUED:          0  USEFUL:          0  USELESS:          0
PSCL5 USEFUL LOAD PREFETCHES:          0 PREFETCH ISSUED TO LOWER LEVEL:          0  ACCURACY: -nan
PSCL5 TIMELY PREFETCHES:          0 LATE PREFETCHES: 0 DROPPED PREFETCHES: 0
PSCL5 PREFETCHES SAME FILL-ORIGIN LEVEL: 0 DIFFERENT FILL-ORIGIN LEVEL: 0

PSCL4 TOTAL     ACCESS:      27560  HIT:      27560  MISS:          0  HIT %:        100  MISS %:          0   MPKI: 0
PSCL4 LOAD TRANSLATION ACCESS:      13689  HIT:      13689  MISS:          0  HIT %:        100  MISS %:          0   MPKI: 0
PSCL4 TRANSLATION FROM L1D PREFETCHER ACCESS:      13871  HIT:      13871  MISS:          0  HIT %:        100  MISS %:          0   MPKI: 0
PSCL4 PREFETCH  REQUESTED:          0  ISSUED:          0  USEFUL:          0  USELESS:          0
PSCL4 USEFUL LOAD PREFETCHES:          0 PREFETCH ISSUED TO LOWER LEVEL:          0  ACCURACY: -nan
PSCL4 TIMELY PREFETCHES:          0 LATE PREFETCHES: 0 DROPPED PREFETCHES: 0
PSCL4 PREFETCHES SAME FILL-ORIGIN LEVEL: 0 DIFFERENT FILL-ORIGIN LEVEL: 0

PSCL3 TOTAL     ACCESS:      27409  HIT:      27389  MISS:         20  HIT %:     99.927  MISS %:  0.0729687   MPKI: 0.0001
PSCL3 LOAD TRANSLATION ACCESS:      13543  HIT:      13523  MISS:         20  HIT %:    99.8523  MISS %:   0.147678   MPKI: 0.0001
PSCL3 TRANSLATION FROM L1D PREFETCHER ACCESS:      13866  HIT:      13866  MISS:          0  HIT %:        100  MISS %:          0   MPKI: 0
PSCL3 PREFETCH  REQUESTED:          0  ISSUED:          0  USEFUL:          0  USELESS:          0
PSCL3 USEFUL LOAD PREFETCHES:          0 PREFETCH ISSUED TO LOWER LEVEL:          0  ACCURACY: -nan
PSCL3 TIMELY PREFETCHES:          0 LATE PREFETCHES: 0 DROPPED PREFETCHES: 0
PSCL3 PREFETCHES SAME FILL-ORIGIN LEVEL: 0 DIFFERENT FILL-ORIGIN LEVEL: 0

PSCL2 TOTAL     ACCESS:      27516  HIT:      27108  MISS:        408  HIT %:    98.5172  MISS %:    1.48277   MPKI: 0.00204
PSCL2 LOAD TRANSLATION ACCESS:      13693  HIT:      13285  MISS:        408  HIT %:    97.0204  MISS %:    2.97962   MPKI: 0.00204
PSCL2 TRANSLATION FROM L1D PREFETCHER ACCESS:      13823  HIT:      13823  MISS:          0  HIT %:        100  MISS %:          0   MPKI: 0
PSCL2 PREFETCH  REQUESTED:          0  ISSUED:          0  USEFUL:          0  USELESS:          0
PSCL2 USEFUL LOAD PREFETCHES:          0 PREFETCH ISSUED TO LOWER LEVEL:          0  ACCURACY: -nan
PSCL2 TIMELY PREFETCHES:          0 LATE PREFETCHES: 0 DROPPED PREFETCHES: 0
PSCL2 PREFETCHES SAME FILL-ORIGIN LEVEL: 0 DIFFERENT FILL-ORIGIN LEVEL: 0

LLC TOTAL     ACCESS:    1918417  HIT:    1173064  MISS:     745353  HIT %:    61.1475  MISS %:    38.8525   MPKI: 3.72676
LLC LOAD      ACCESS:     381946  HIT:     278668  MISS:     103278  HIT %:    72.9601  MISS %:    27.0399   MPKI: 0.51639
LLC RFO       ACCESS:     641336  HIT:     153231  MISS:     488105  HIT %:    23.8925  MISS %:    76.1075   MPKI: 2.44052
LLC PREFETCH  ACCESS:     191280  HIT:      51327  MISS:     139953  HIT %:    26.8334  MISS %:    73.1666   MPKI: 0.699765
LLC WRITEBACK ACCESS:     698213  HIT:     687440  MISS:      10773  HIT %:    98.4571  MISS %:    1.54294   MPKI: 0.053865
LLC LOAD TRANSLATION ACCESS:       5318  HIT:       2294  MISS:       3024  HIT %:    43.1365  MISS %:    56.8635   MPKI: 0.01512
LLC TRANSLATION FROM L1D PREFETCHER ACCESS:        324  HIT:        104  MISS:        220  HIT %:    32.0988  MISS %:    67.9012   MPKI: 0.0011
LLC PREFETCH  REQUESTED:          0  ISSUED:          0  USEFUL:       4604  USELESS:     136234
LLC USEFUL LOAD PREFETCHES:       4604 PREFETCH ISSUED TO LOWER LEVEL:     139953  ACCURACY: 3.28968
LLC TIMELY PREFETCHES:       4604 LATE PREFETCHES: 0 DROPPED PREFETCHES: 0
LLC PREFETCHES SAME FILL-ORIGIN LEVEL: 0 DIFFERENT FILL-ORIGIN LEVEL: 0
LLC AVERAGE MISS LATENCY: 181.417 cycles
LLC RQ	ACCESS:    1028925	FORWARD:          0	MERGED:          0	TO_CACHE:    1028923
LLC WQ	ACCESS:     698215	FORWARD:          2	MERGED:          0	TO_CACHE:     698215
LLC PQ	ACCESS:     191280	FORWARD:          0	MERGED:          0	TO_CACHE:     191280

LLC Dense regions hint to LLC: 0

RAW hits: 4047967
Loads Generated: 46900669
Loads sent to L1D: 42852702
Stores Generated: 28298347
Stores sent to L1D: 28298364
Major fault: 0 Minor fault: 5106
Allocated PAGES: 5106

DRAM Statistics
 CHANNEL 0
 RQ ROW_BUFFER_HIT:     314071  ROW_BUFFER_MISS:     420507
 DBUS_CONGESTED:        910
 WQ ROW_BUFFER_HIT:     103587  ROW_BUFFER_MISS:     409161  FULL:          0

 AVG_CONGESTED_CYCLE: 5
 All warmup complete: 2
Channel 0 Bank busy for read cycles: 0
Channel 0 Bank busy for write cycles: 0
Channel 0
Rank 0
0banks busy for read cycles: 249157329
0banks busy for write cycles: 122234
1banks busy for read cycles: 27812542
1banks busy for write cycles: 16084778
2banks busy for read cycles: 6934789
2banks busy for write cycles: 5486784
3banks busy for read cycles: 1519543
3banks busy for write cycles: 1789474
4banks busy for read cycles: 1060498
4banks busy for write cycles: 895193
5banks busy for read cycles: 763783
5banks busy for write cycles: 639786
6banks busy for read cycles: 641722
6banks busy for write cycles: 574417
7banks busy for read cycles: 640989
7banks busy for write cycles: 874412
8banks busy for read cycles: 2173422
8banks busy for write cycles: 4280423

CPU 0 Branch Prediction Accuracy: 98.7615% MPKI: 2.30067 Average ROB Occupancy at Mispredict: 17.4199
Branch types
NOT_BRANCH: 162847965 81.424%
BRANCH_DIRECT_JUMP: 1668733 0.834366%
BRANCH_INDIRECT: 12964857 6.48243%
BRANCH_CONDITIONAL: 14916687 7.45834%
BRANCH_DIRECT_CALL: 3293738 1.64687%
BRANCH_INDIRECT_CALL: 505068 0.252534%
BRANCH_RETURN: 3802664 1.90133%
BRANCH_OTHER: 0 0%

DRAM PAGES: 1048576
Allocated PAGES: 5106
