
*** ChampSim Multicore Out-of-Order Simulator ***

Warmup Instructions: 50000000
Simulation Instructions: 200000000
Number of CPUs: 1
LLC sets: 2048
LLC ways: 16
Off-chip DRAM Size: 4096 MB Channels: 1 Width: 64-bit Data Rate: 6400 MT/s
CPU 0 runs traces/spec2k17/server_038.champsimtrace.xz
.xz
BTB has LRU replacement policy
ITLB has LRU replacement policy
DTLB has LRU replacement policy
STLB has LRU replacement policy
L1I has LRU replacement policy
History Sets: 8
History Ways: 16
BERTI Size: 16
BERTI Stride Size: 16
L1D has LRU replacement policy
Initialize SRRIP state for L2C
Initialize DRRIP state for LLC
Heartbeat CPU 0 instructions: 10000000 cycles: 2787082 heartbeat IPC: 3.58798 cumulative IPC: 3.58798 (Simulation time: 0 hr 0 min 33 sec) 
Heartbeat CPU 0 instructions: 20000002 cycles: 5572091 heartbeat IPC: 3.59065 cumulative IPC: 3.58932 (Simulation time: 0 hr 1 min 3 sec) 
Heartbeat CPU 0 instructions: 30000003 cycles: 8355882 heartbeat IPC: 3.59222 cumulative IPC: 3.59029 (Simulation time: 0 hr 1 min 35 sec) 
Heartbeat CPU 0 instructions: 40000001 cycles: 11140130 heartbeat IPC: 3.59163 cumulative IPC: 3.59062 (Simulation time: 0 hr 2 min 12 sec) 
Heartbeat CPU 0 instructions: 50000001 cycles: 13924693 heartbeat IPC: 3.59123 cumulative IPC: 3.59074 (Simulation time: 0 hr 2 min 47 sec) 

Warmup complete CPU 0 instructions: 50000001 cycles: 13924693 (Simulation time: 0 hr 2 min 47 sec) 

Heartbeat CPU 0 instructions: 60000000 cycles: 34082419 heartbeat IPC: 0.496088 cumulative IPC: 0.496088 (Simulation time: 0 hr 3 min 34 sec) 
Heartbeat CPU 0 instructions: 70000000 cycles: 54055360 heartbeat IPC: 0.500677 cumulative IPC: 0.498372 (Simulation time: 0 hr 4 min 20 sec) 
Heartbeat CPU 0 instructions: 80000000 cycles: 74022334 heartbeat IPC: 0.500827 cumulative IPC: 0.499188 (Simulation time: 0 hr 5 min 7 sec) 
Heartbeat CPU 0 instructions: 90000001 cycles: 94018138 heartbeat IPC: 0.500105 cumulative IPC: 0.499417 (Simulation time: 0 hr 6 min 2 sec) 
Heartbeat CPU 0 instructions: 100000002 cycles: 114004050 heartbeat IPC: 0.500353 cumulative IPC: 0.499604 (Simulation time: 0 hr 6 min 50 sec) 
*** Reached end of trace for Core: 0 Repeating trace: traces/spec2k17/server_038.champsimtrace.xz
Heartbeat CPU 0 instructions: 110000000 cycles: 134103213 heartbeat IPC: 0.497533 cumulative IPC: 0.499257 (Simulation time: 0 hr 7 min 35 sec) 
Heartbeat CPU 0 instructions: 120000003 cycles: 154145850 heartbeat IPC: 0.498937 cumulative IPC: 0.499211 (Simulation time: 0 hr 8 min 26 sec) 
Heartbeat CPU 0 instructions: 130000001 cycles: 174121605 heartbeat IPC: 0.500607 cumulative IPC: 0.499385 (Simulation time: 0 hr 9 min 16 sec) 
Heartbeat CPU 0 instructions: 140000001 cycles: 194101882 heartbeat IPC: 0.500494 cumulative IPC: 0.499508 (Simulation time: 0 hr 10 min 11 sec) 
Heartbeat CPU 0 instructions: 150000002 cycles: 214081847 heartbeat IPC: 0.500501 cumulative IPC: 0.499607 (Simulation time: 0 hr 11 min 2 sec) 
Heartbeat CPU 0 instructions: 160000000 cycles: 234112199 heartbeat IPC: 0.499242 cumulative IPC: 0.499574 (Simulation time: 0 hr 11 min 51 sec) 
Heartbeat CPU 0 instructions: 170000002 cycles: 254042543 heartbeat IPC: 0.501748 cumulative IPC: 0.499755 (Simulation time: 0 hr 12 min 41 sec) 
Heartbeat CPU 0 instructions: 180000000 cycles: 273962696 heartbeat IPC: 0.502004 cumulative IPC: 0.499927 (Simulation time: 0 hr 13 min 24 sec) 
Heartbeat CPU 0 instructions: 190000002 cycles: 293889542 heartbeat IPC: 0.501836 cumulative IPC: 0.500063 (Simulation time: 0 hr 14 min 15 sec) 
Heartbeat CPU 0 instructions: 200000001 cycles: 313822710 heartbeat IPC: 0.501676 cumulative IPC: 0.50017 (Simulation time: 0 hr 15 min 8 sec) 
*** Reached end of trace for Core: 0 Repeating trace: traces/spec2k17/server_038.champsimtrace.xz
Heartbeat CPU 0 instructions: 210000003 cycles: 333877743 heartbeat IPC: 0.498628 cumulative IPC: 0.500073 (Simulation time: 0 hr 15 min 53 sec) 
Heartbeat CPU 0 instructions: 220000000 cycles: 353923466 heartbeat IPC: 0.498859 cumulative IPC: 0.500002 (Simulation time: 0 hr 16 min 44 sec) 
Heartbeat CPU 0 instructions: 230000003 cycles: 373858560 heartbeat IPC: 0.501628 cumulative IPC: 0.500092 (Simulation time: 0 hr 17 min 34 sec) 
Heartbeat CPU 0 instructions: 240000001 cycles: 393865231 heartbeat IPC: 0.499833 cumulative IPC: 0.500078 (Simulation time: 0 hr 18 min 24 sec) 
Heartbeat CPU 0 instructions: 250000001 cycles: 413848251 heartbeat IPC: 0.500425 cumulative IPC: 0.500096 (Simulation time: 0 hr 19 min 20 sec) 
Finished CPU 0 instructions: 200000000 cycles: 399923558 cumulative IPC: 0.500096 (Simulation time: 0 hr 19 min 20 sec) 

ChampSim completed all CPUs

Region of Interest Statistics

CPU 0 cumulative IPC: 0.500096 instructions: 200000000 cycles: 399923558
ITLB TOTAL     ACCESS:   35174176  HIT:   32681465  MISS:    2492711  HIT %:    92.9132  MISS %:    7.08676   MPKI: 12.4636
ITLB LOAD TRANSLATION ACCESS:   35174176  HIT:   32681465  MISS:    2492711  HIT %:    92.9132  MISS %:    7.08676   MPKI: 12.4636
ITLB PREFETCH  REQUESTED:          0  ISSUED:          0  USEFUL:          0  USELESS:          0
ITLB USEFUL LOAD PREFETCHES:          0 PREFETCH ISSUED TO LOWER LEVEL:          0  ACCURACY: -nan
ITLB TIMELY PREFETCHES:          0 LATE PREFETCHES: 0 DROPPED PREFETCHES: 0
ITLB PREFETCHES SAME FILL-ORIGIN LEVEL: 0 DIFFERENT FILL-ORIGIN LEVEL: 0
ITLB AVERAGE MISS LATENCY: 9.01447 cycles
ITLB RQ	ACCESS:   41436878	FORWARD:          0	MERGED:    5451544	TO_CACHE:   35985334

DTLB TOTAL     ACCESS:   40143772  HIT:   38147541  MISS:    1996231  HIT %:    95.0273  MISS %:     4.9727   MPKI: 9.98115
DTLB LOAD TRANSLATION ACCESS:   40143772  HIT:   38147541  MISS:    1996231  HIT %:    95.0273  MISS %:     4.9727   MPKI: 9.98115
DTLB PREFETCH  REQUESTED:          0  ISSUED:          0  USEFUL:          0  USELESS:          0
DTLB USEFUL LOAD PREFETCHES:          0 PREFETCH ISSUED TO LOWER LEVEL:          0  ACCURACY: -nan
DTLB TIMELY PREFETCHES:          0 LATE PREFETCHES: 0 DROPPED PREFETCHES: 0
DTLB PREFETCHES SAME FILL-ORIGIN LEVEL: 0 DIFFERENT FILL-ORIGIN LEVEL: 0
DTLB AVERAGE MISS LATENCY: 9.64552 cycles
DTLB RQ	ACCESS:   55972131	FORWARD:          0	MERGED:   15675296	TO_CACHE:   40296835

STLB TOTAL     ACCESS:    4491743  HIT:    4468936  MISS:      22807  HIT %:    99.4922  MISS %:   0.507754   MPKI: 0.114035
STLB LOAD TRANSLATION ACCESS:    4488942  HIT:    4466166  MISS:      22776  HIT %:    99.4926  MISS %:    0.50738   MPKI: 0.11388
STLB TRANSLATION FROM L1D PREFETCHER ACCESS:       2801  HIT:       2770  MISS:         31  HIT %:    98.8933  MISS %:    1.10675   MPKI: 0.000155
STLB PREFETCH  REQUESTED:          0  ISSUED:          0  USEFUL:         31  USELESS:          0
STLB USEFUL LOAD PREFETCHES:         31 PREFETCH ISSUED TO LOWER LEVEL:          0  ACCURACY: inf
STLB TIMELY PREFETCHES:         31 LATE PREFETCHES: 16 DROPPED PREFETCHES: 137
STLB PREFETCHES SAME FILL-ORIGIN LEVEL: 0 DIFFERENT FILL-ORIGIN LEVEL: 0
STLB AVERAGE MISS LATENCY: 57.1044 cycles
STLB RQ	ACCESS:    4500570	FORWARD:          0	MERGED:       8552	TO_CACHE:    4492018

STLB Hit, L1D data hit: 0
STLB Hit, L2C data hit: 0
STLB Hit, LLC data hit: 0
STLB Hit, LLC data miss: 0
STLB STLB hints to L2: 0
L1D TOTAL     ACCESS:   55562433  HIT:   53871744  MISS:    1690689  HIT %:    96.9571  MISS %:    3.04286   MPKI: 8.45345
L1D LOAD      ACCESS:   31355578  HIT:   29920325  MISS:    1435253  HIT %:    95.4227  MISS %:    4.57735   MPKI: 7.17626
L1D RFO       ACCESS:   24205681  HIT:   23950464  MISS:     255217  HIT %:    98.9456  MISS %:    1.05437   MPKI: 1.27608
L1D PREFETCH  ACCESS:       1174  HIT:        955  MISS:        219  HIT %:    81.3458  MISS %:    18.6542   MPKI: 0.001095
L1D PREFETCH  REQUESTED:      43900  ISSUED:      43328  USEFUL:        132  USELESS:         87
L1D USEFUL LOAD PREFETCHES:        132 PREFETCH ISSUED TO LOWER LEVEL:       7863  ACCURACY: 1.67875
L1D TIMELY PREFETCHES:        132 LATE PREFETCHES: 293 DROPPED PREFETCHES: 451
L1D PREFETCHES SAME FILL-ORIGIN LEVEL: 512 DIFFERENT FILL-ORIGIN LEVEL: 7351
L1D AVERAGE MISS LATENCY: 30.7745 cycles
L1D RQ	ACCESS:   46005349	FORWARD:          0	MERGED:   14290557	TO_CACHE:   31464107
L1D WQ	ACCESS:   24697059	FORWARD:     250685	MERGED:     189035	TO_CACHE:   24508024
L1D PQ	ACCESS:      31700	FORWARD:          0	MERGED:      20072	TO_CACHE:      11628

L1D UNIQUE REGIONS ACCESSED: 0
L1D REGIONS CONFLICTS: 0
L1D Cross Page Prefetch Requests: 4278
L1D Same Page Prefetch Requests: 41522
L1D ROI Sum of L1D PQ occupancy: 569989
L1D PREFETCHES PUSHED FROM L2C: 0
L1I TOTAL     ACCESS:   37494408  HIT:   22055916  MISS:   15438492  HIT %:    58.8245  MISS %:    41.1755   MPKI: 77.1925
L1I LOAD      ACCESS:   37494408  HIT:   22055916  MISS:   15438492  HIT %:    58.8245  MISS %:    41.1755   MPKI: 77.1925
L1I PREFETCH  REQUESTED:          0  ISSUED:          0  USEFUL:          0  USELESS:          0
L1I USEFUL LOAD PREFETCHES:          0 PREFETCH ISSUED TO LOWER LEVEL:          0  ACCURACY: -nan
L1I TIMELY PREFETCHES:          0 LATE PREFETCHES: 0 DROPPED PREFETCHES: 0
L1I PREFETCHES SAME FILL-ORIGIN LEVEL: 0 DIFFERENT FILL-ORIGIN LEVEL: 0
L1I AVERAGE MISS LATENCY: 14.1235 cycles
L1I RQ	ACCESS:   62467452	FORWARD:          0	MERGED:   21030574	TO_CACHE:   41436878

BTB TOTAL     ACCESS:   28064303  HIT:   24482602  MISS:    3581701  HIT %:    87.2375  MISS %:    12.7625   MPKI: 17.9085
BTB BRANCH_DIRECT_JUMP	ACCESS:    2068715  HIT:    1958904  MISS:     109811
BTB BRANCH_INDIRECT	ACCESS:   12589489  HIT:   11340070  MISS:    1249419
BTB BRANCH_CONDITIONAL	ACCESS:    3946651  HIT:    3830860  MISS:     115791
BTB BRANCH_DIRECT_CALL	ACCESS:    3834255  HIT:    3580644  MISS:     253611
BTB BRANCH_INDIRECT_CALL	ACCESS:     895479  HIT:     719752  MISS:     175727
BTB BRANCH_RETURN	ACCESS:    4729714  HIT:    3052372  MISS:    1677342
BTB BRANCH_OTHER ACCESS:          0  HIT:          0  MISS:          0

L2C TOTAL     ACCESS:   18058903  HIT:   17510991  MISS:     547912  HIT %:     96.966  MISS %:    3.03403   MPKI: 2.73956
L2C LOAD      ACCESS:   16873391  HIT:   16457257  MISS:     416134  HIT %:    97.5338  MISS %:    2.46621   MPKI: 2.08067
L2C DATA LOAD MPKI: 1.97447
L2C INSTRUCTION LOAD MPKI: 0.1062
L2C RFO       ACCESS:     255217  HIT:     158918  MISS:      96299  HIT %:    62.2678  MISS %:    37.7322   MPKI: 0.481495
L2C PREFETCH  ACCESS:       3265  HIT:       1107  MISS:       2158  HIT %:    33.9051  MISS %:    66.0949   MPKI: 0.01079
L2C DATA PREFETCH MPKI: 0.01079
L2C INSTRUCTION PREFETCH MPKI: 0
L2C WRITEBACK ACCESS:     895394  HIT:     880834  MISS:      14560  HIT %:    98.3739  MISS %:     1.6261   MPKI: 0.0728
L2C LOAD TRANSLATION ACCESS:      31437  HIT:      12714  MISS:      18723  HIT %:    40.4428  MISS %:    59.5572   MPKI: 0.093615
L2C TRANSLATION FROM L1D PREFETCHER ACCESS:        199  HIT:        161  MISS:         38  HIT %:    80.9045  MISS %:    19.0955   MPKI: 0.00019
L2C PREFETCH  REQUESTED:          0  ISSUED:          0  USEFUL:       1505  USELESS:        840
L2C USEFUL LOAD PREFETCHES:       1505 PREFETCH ISSUED TO LOWER LEVEL:       4271  ACCURACY: 35.2376
L2C TIMELY PREFETCHES:       1505 LATE PREFETCHES: 2113 DROPPED PREFETCHES: 0
L2C PREFETCHES SAME FILL-ORIGIN LEVEL: 4101 DIFFERENT FILL-ORIGIN LEVEL: 0
L2C AVERAGE MISS LATENCY: 51.2626 cycles
L2C RQ	ACCESS:   17160305	FORWARD:          0	MERGED:          0	TO_CACHE:   17160244
L2C WQ	ACCESS:     895394	FORWARD:         61	MERGED:          0	TO_CACHE:     895394
L2C PQ	ACCESS:       7863	FORWARD:          0	MERGED:        264	TO_CACHE:       7599

L2C Instructions Evicting Data 19103
L2C Translations Evicting Data 17231
L2C Data Evicting Data 457957
L2C Instructions Evicting Instructions 1295
L2C Translations Evicting Instructions 839
L2C Data Evicting Instructions 18404
L2C Instructions Evicting Translations 842
L2C Translations Evicting Translations 691
L2C Data Evicting Translations 16990
L2C Dense regions hint from L2: 0
PSCL5 TOTAL     ACCESS:      22956  HIT:      22956  MISS:          0  HIT %:        100  MISS %:          0   MPKI: 0
PSCL5 LOAD TRANSLATION ACCESS:      22772  HIT:      22772  MISS:          0  HIT %:        100  MISS %:          0   MPKI: 0
PSCL5 TRANSLATION FROM L1D PREFETCHER ACCESS:        184  HIT:        184  MISS:          0  HIT %:        100  MISS %:          0   MPKI: 0
PSCL5 PREFETCH  REQUESTED:          0  ISSUED:          0  USEFUL:          0  USELESS:          0
PSCL5 USEFUL LOAD PREFETCHES:          0 PREFETCH ISSUED TO LOWER LEVEL:          0  ACCURACY: -nan
PSCL5 TIMELY PREFETCHES:          0 LATE PREFETCHES: 0 DROPPED PREFETCHES: 0
PSCL5 PREFETCHES SAME FILL-ORIGIN LEVEL: 0 DIFFERENT FILL-ORIGIN LEVEL: 0

PSCL4 TOTAL     ACCESS:      22354  HIT:      22344  MISS:         10  HIT %:    99.9553  MISS %:  0.0447347   MPKI: 5e-05
PSCL4 LOAD TRANSLATION ACCESS:      22170  HIT:      22160  MISS:         10  HIT %:    99.9549  MISS %:   0.045106   MPKI: 5e-05
PSCL4 TRANSLATION FROM L1D PREFETCHER ACCESS:        184  HIT:        184  MISS:          0  HIT %:        100  MISS %:          0   MPKI: 0
PSCL4 PREFETCH  REQUESTED:          0  ISSUED:          0  USEFUL:          0  USELESS:          0
PSCL4 USEFUL LOAD PREFETCHES:          0 PREFETCH ISSUED TO LOWER LEVEL:          0  ACCURACY: -nan
PSCL4 TIMELY PREFETCHES:          0 LATE PREFETCHES: 0 DROPPED PREFETCHES: 0
PSCL4 PREFETCHES SAME FILL-ORIGIN LEVEL: 0 DIFFERENT FILL-ORIGIN LEVEL: 0

PSCL3 TOTAL     ACCESS:      22889  HIT:      22820  MISS:         69  HIT %:    99.6985  MISS %:   0.301455   MPKI: 0.000345
PSCL3 LOAD TRANSLATION ACCESS:      22707  HIT:      22638  MISS:         69  HIT %:    99.6961  MISS %:   0.303871   MPKI: 0.000345
PSCL3 TRANSLATION FROM L1D PREFETCHER ACCESS:        182  HIT:        182  MISS:          0  HIT %:        100  MISS %:          0   MPKI: 0
PSCL3 PREFETCH  REQUESTED:          0  ISSUED:          0  USEFUL:          0  USELESS:          0
PSCL3 USEFUL LOAD PREFETCHES:          0 PREFETCH ISSUED TO LOWER LEVEL:          0  ACCURACY: -nan
PSCL3 TIMELY PREFETCHES:          0 LATE PREFETCHES: 0 DROPPED PREFETCHES: 0
PSCL3 PREFETCHES SAME FILL-ORIGIN LEVEL: 0 DIFFERENT FILL-ORIGIN LEVEL: 0

PSCL2 TOTAL     ACCESS:      22936  HIT:      14327  MISS:       8609  HIT %:    62.4651  MISS %:    37.5349   MPKI: 0.043045
PSCL2 LOAD TRANSLATION ACCESS:      22772  HIT:      14163  MISS:       8609  HIT %:    62.1948  MISS %:    37.8052   MPKI: 0.043045
PSCL2 TRANSLATION FROM L1D PREFETCHER ACCESS:        164  HIT:        164  MISS:          0  HIT %:        100  MISS %:          0   MPKI: 0
PSCL2 PREFETCH  REQUESTED:          0  ISSUED:          0  USEFUL:          0  USELESS:          0
PSCL2 USEFUL LOAD PREFETCHES:          0 PREFETCH ISSUED TO LOWER LEVEL:          0  ACCURACY: -nan
PSCL2 TIMELY PREFETCHES:          0 LATE PREFETCHES: 0 DROPPED PREFETCHES: 0
PSCL2 PREFETCHES SAME FILL-ORIGIN LEVEL: 0 DIFFERENT FILL-ORIGIN LEVEL: 0

LLC TOTAL     ACCESS:     793092  HIT:     715785  MISS:      77307  HIT %:    90.2525  MISS %:    9.74755   MPKI: 0.386535
LLC LOAD      ACCESS:     414020  HIT:     360424  MISS:      53596  HIT %:    87.0547  MISS %:    12.9453   MPKI: 0.26798
LLC RFO       ACCESS:      96295  HIT:      77365  MISS:      18930  HIT %:    80.3417  MISS %:    19.6583   MPKI: 0.09465
LLC PREFETCH  ACCESS:       4271  HIT:        484  MISS:       3787  HIT %:    11.3322  MISS %:    88.6678   MPKI: 0.018935
LLC WRITEBACK ACCESS:     259745  HIT:     259196  MISS:        549  HIT %:    99.7886  MISS %:   0.211361   MPKI: 0.002745
LLC LOAD TRANSLATION ACCESS:      18723  HIT:      18300  MISS:        423  HIT %:    97.7407  MISS %:    2.25925   MPKI: 0.002115
LLC TRANSLATION FROM L1D PREFETCHER ACCESS:         38  HIT:         16  MISS:         22  HIT %:    42.1053  MISS %:    57.8947   MPKI: 0.00011
LLC PREFETCH  REQUESTED:          0  ISSUED:          0  USEFUL:         69  USELESS:       3826
LLC USEFUL LOAD PREFETCHES:         69 PREFETCH ISSUED TO LOWER LEVEL:       3787  ACCURACY: 1.82202
LLC TIMELY PREFETCHES:         69 LATE PREFETCHES: 0 DROPPED PREFETCHES: 0
LLC PREFETCHES SAME FILL-ORIGIN LEVEL: 0 DIFFERENT FILL-ORIGIN LEVEL: 0
LLC AVERAGE MISS LATENCY: 158.995 cycles
LLC RQ	ACCESS:     529081	FORWARD:          0	MERGED:          0	TO_CACHE:     529076
LLC WQ	ACCESS:     259745	FORWARD:          5	MERGED:          0	TO_CACHE:     259745
LLC PQ	ACCESS:       4271	FORWARD:          0	MERGED:          0	TO_CACHE:       4271

LLC Dense regions hint to LLC: 0

RAW hits: 2094401
Loads Generated: 48099750
Loads sent to L1D: 46005349
Stores Generated: 24697058
Stores sent to L1D: 24697059
Major fault: 0 Minor fault: 5748
Allocated PAGES: 5748

DRAM Statistics
 CHANNEL 0
 RQ ROW_BUFFER_HIT:      20143  ROW_BUFFER_MISS:      56608
 DBUS_CONGESTED:         11
 WQ ROW_BUFFER_HIT:       3725  ROW_BUFFER_MISS:      26650  FULL:          0

 AVG_CONGESTED_CYCLE: 5
 All warmup complete: 2
Channel 0 Bank busy for read cycles: 0
Channel 0 Bank busy for write cycles: 0
Channel 0
Rank 0
0banks busy for read cycles: 388010260
0banks busy for write cycles: 20871
1banks busy for read cycles: 6985326
1banks busy for write cycles: 3215666
2banks busy for read cycles: 759714
2banks busy for write cycles: 593672
3banks busy for read cycles: 22768
3banks busy for write cycles: 59907
4banks busy for read cycles: 22203
4banks busy for write cycles: 61045
5banks busy for read cycles: 24768
5banks busy for write cycles: 15663
6banks busy for read cycles: 24995
6banks busy for write cycles: 12436
7banks busy for read cycles: 31908
7banks busy for write cycles: 9175
8banks busy for read cycles: 44780
8banks busy for write cycles: 8402

CPU 0 Branch Prediction Accuracy: 99.9778% MPKI: 0.038155 Average ROB Occupancy at Mispredict: 24.2897
Branch types
NOT_BRANCH: 165656544 82.8283%
BRANCH_DIRECT_JUMP: 2068715 1.03436%
BRANCH_INDIRECT: 12589489 6.29474%
BRANCH_CONDITIONAL: 10225815 5.11291%
BRANCH_DIRECT_CALL: 3834255 1.91713%
BRANCH_INDIRECT_CALL: 895479 0.44774%
BRANCH_RETURN: 4729714 2.36486%
BRANCH_OTHER: 0 0%

DRAM PAGES: 1048576
Allocated PAGES: 5748
