
*** ChampSim Multicore Out-of-Order Simulator ***

Warmup Instructions: 50000000
Simulation Instructions: 200000000
Number of CPUs: 1
LLC sets: 2048
LLC ways: 16
Off-chip DRAM Size: 4096 MB Channels: 1 Width: 64-bit Data Rate: 6400 MT/s
CPU 0 runs traces/spec2k17/server_031.champsimtrace.xz
.xz
BTB has LRU replacement policy
ITLB has LRU replacement policy
DTLB has LRU replacement policy
STLB has LRU replacement policy
L1I has LRU replacement policy
History Sets: 8
History Ways: 16
BERTI Size: 16
BERTI Stride Size: 16
L1D has LRU replacement policy
Initialize SRRIP state for L2C
Initialize DRRIP state for LLC
Heartbeat CPU 0 instructions: 10000000 cycles: 2836900 heartbeat IPC: 3.52497 cumulative IPC: 3.52497 (Simulation time: 0 hr 0 min 41 sec) 
Heartbeat CPU 0 instructions: 20000000 cycles: 5668395 heartbeat IPC: 3.5317 cumulative IPC: 3.52834 (Simulation time: 0 hr 1 min 21 sec) 
Heartbeat CPU 0 instructions: 30000002 cycles: 8499273 heartbeat IPC: 3.53247 cumulative IPC: 3.52971 (Simulation time: 0 hr 1 min 59 sec) 
Heartbeat CPU 0 instructions: 40000003 cycles: 11329840 heartbeat IPC: 3.53286 cumulative IPC: 3.5305 (Simulation time: 0 hr 2 min 35 sec) 
Heartbeat CPU 0 instructions: 50000002 cycles: 14161596 heartbeat IPC: 3.53138 cumulative IPC: 3.53068 (Simulation time: 0 hr 3 min 11 sec) 

Warmup complete CPU 0 instructions: 50000002 cycles: 14161596 (Simulation time: 0 hr 3 min 11 sec) 

Heartbeat CPU 0 instructions: 60000003 cycles: 47403803 heartbeat IPC: 0.300822 cumulative IPC: 0.300822 (Simulation time: 0 hr 4 min 21 sec) 
Heartbeat CPU 0 instructions: 70000001 cycles: 80993015 heartbeat IPC: 0.297715 cumulative IPC: 0.29926 (Simulation time: 0 hr 5 min 17 sec) 
Heartbeat CPU 0 instructions: 80000001 cycles: 113426180 heartbeat IPC: 0.308326 cumulative IPC: 0.302223 (Simulation time: 0 hr 6 min 22 sec) 
*** Reached end of trace for Core: 0 Repeating trace: traces/spec2k17/server_031.champsimtrace.xz
Heartbeat CPU 0 instructions: 90000003 cycles: 146689737 heartbeat IPC: 0.300629 cumulative IPC: 0.301823 (Simulation time: 0 hr 7 min 19 sec) 
Heartbeat CPU 0 instructions: 100000000 cycles: 179823899 heartbeat IPC: 0.301803 cumulative IPC: 0.301819 (Simulation time: 0 hr 8 min 18 sec) 
Heartbeat CPU 0 instructions: 110000000 cycles: 213173365 heartbeat IPC: 0.299855 cumulative IPC: 0.30149 (Simulation time: 0 hr 9 min 25 sec) 
Heartbeat CPU 0 instructions: 120000002 cycles: 246152701 heartbeat IPC: 0.30322 cumulative IPC: 0.301736 (Simulation time: 0 hr 10 min 26 sec) 
Heartbeat CPU 0 instructions: 130000000 cycles: 279301254 heartbeat IPC: 0.301672 cumulative IPC: 0.301728 (Simulation time: 0 hr 11 min 33 sec) 
Heartbeat CPU 0 instructions: 140000003 cycles: 312198470 heartbeat IPC: 0.303977 cumulative IPC: 0.301976 (Simulation time: 0 hr 12 min 32 sec) 
Heartbeat CPU 0 instructions: 150000001 cycles: 345658315 heartbeat IPC: 0.298866 cumulative IPC: 0.301662 (Simulation time: 0 hr 13 min 39 sec) 
Heartbeat CPU 0 instructions: 160000000 cycles: 378234918 heartbeat IPC: 0.306969 cumulative IPC: 0.302137 (Simulation time: 0 hr 14 min 33 sec) 
*** Reached end of trace for Core: 0 Repeating trace: traces/spec2k17/server_031.champsimtrace.xz
Heartbeat CPU 0 instructions: 170000003 cycles: 411220680 heartbeat IPC: 0.303161 cumulative IPC: 0.302222 (Simulation time: 0 hr 15 min 31 sec) 
Heartbeat CPU 0 instructions: 180000000 cycles: 444342818 heartbeat IPC: 0.301913 cumulative IPC: 0.302198 (Simulation time: 0 hr 16 min 31 sec) 
Heartbeat CPU 0 instructions: 190000000 cycles: 477586058 heartbeat IPC: 0.300813 cumulative IPC: 0.302099 (Simulation time: 0 hr 17 min 25 sec) 
Heartbeat CPU 0 instructions: 200000001 cycles: 510644497 heartbeat IPC: 0.302495 cumulative IPC: 0.302125 (Simulation time: 0 hr 18 min 17 sec) 
Heartbeat CPU 0 instructions: 210000001 cycles: 543548918 heartbeat IPC: 0.303911 cumulative IPC: 0.302236 (Simulation time: 0 hr 19 min 14 sec) 
Heartbeat CPU 0 instructions: 220000000 cycles: 576543179 heartbeat IPC: 0.303083 cumulative IPC: 0.302286 (Simulation time: 0 hr 20 min 13 sec) 
Heartbeat CPU 0 instructions: 230000000 cycles: 609743718 heartbeat IPC: 0.3012 cumulative IPC: 0.302225 (Simulation time: 0 hr 21 min 5 sec) 
Heartbeat CPU 0 instructions: 240000000 cycles: 642605736 heartbeat IPC: 0.304303 cumulative IPC: 0.302334 (Simulation time: 0 hr 22 min 2 sec) 
*** Reached end of trace for Core: 0 Repeating trace: traces/spec2k17/server_031.champsimtrace.xz
Heartbeat CPU 0 instructions: 250000000 cycles: 675372076 heartbeat IPC: 0.305191 cumulative IPC: 0.302476 (Simulation time: 0 hr 22 min 55 sec) 
Finished CPU 0 instructions: 200000003 cycles: 661210513 cumulative IPC: 0.302476 (Simulation time: 0 hr 22 min 55 sec) 

ChampSim completed all CPUs

Region of Interest Statistics

CPU 0 cumulative IPC: 0.302476 instructions: 200000003 cycles: 661210513
ITLB TOTAL     ACCESS:   35266541  HIT:   33002410  MISS:    2264131  HIT %:    93.5799  MISS %:    6.42005   MPKI: 11.3207
ITLB LOAD TRANSLATION ACCESS:   35266541  HIT:   33002410  MISS:    2264131  HIT %:    93.5799  MISS %:    6.42005   MPKI: 11.3207
ITLB PREFETCH  REQUESTED:          0  ISSUED:          0  USEFUL:          0  USELESS:          0
ITLB USEFUL LOAD PREFETCHES:          0 PREFETCH ISSUED TO LOWER LEVEL:          0  ACCURACY: -nan
ITLB TIMELY PREFETCHES:          0 LATE PREFETCHES: 0 DROPPED PREFETCHES: 0
ITLB PREFETCHES SAME FILL-ORIGIN LEVEL: 0 DIFFERENT FILL-ORIGIN LEVEL: 0
ITLB AVERAGE MISS LATENCY: 9.13723 cycles
ITLB RQ	ACCESS:   41640715	FORWARD:          0	MERGED:    5833915	TO_CACHE:   35806800

DTLB TOTAL     ACCESS:   46113792  HIT:   43969277  MISS:    2144515  HIT %:    95.3495  MISS %:    4.65049   MPKI: 10.7226
DTLB LOAD TRANSLATION ACCESS:   46113792  HIT:   43969277  MISS:    2144515  HIT %:    95.3495  MISS %:    4.65049   MPKI: 10.7226
DTLB PREFETCH  REQUESTED:          0  ISSUED:          0  USEFUL:          0  USELESS:          0
DTLB USEFUL LOAD PREFETCHES:          0 PREFETCH ISSUED TO LOWER LEVEL:          0  ACCURACY: -nan
DTLB TIMELY PREFETCHES:          0 LATE PREFETCHES: 0 DROPPED PREFETCHES: 0
DTLB PREFETCHES SAME FILL-ORIGIN LEVEL: 0 DIFFERENT FILL-ORIGIN LEVEL: 0
DTLB AVERAGE MISS LATENCY: 10.3714 cycles
DTLB RQ	ACCESS:   60935707	FORWARD:          0	MERGED:   14756933	TO_CACHE:   46178774

STLB TOTAL     ACCESS:    4706552  HIT:    4651456  MISS:      55096  HIT %:    98.8294  MISS %:    1.17062   MPKI: 0.27548
STLB LOAD TRANSLATION ACCESS:    4408646  HIT:    4353644  MISS:      55002  HIT %:    98.7524  MISS %:    1.24759   MPKI: 0.27501
STLB TRANSLATION FROM L1D PREFETCHER ACCESS:     297906  HIT:     297812  MISS:         94  HIT %:    99.9684  MISS %:  0.0315536   MPKI: 0.00047
STLB PREFETCH  REQUESTED:          0  ISSUED:          0  USEFUL:         67  USELESS:         27
STLB USEFUL LOAD PREFETCHES:         67 PREFETCH ISSUED TO LOWER LEVEL:          0  ACCURACY: inf
STLB TIMELY PREFETCHES:         67 LATE PREFETCHES: 5 DROPPED PREFETCHES: 3424
STLB PREFETCHES SAME FILL-ORIGIN LEVEL: 0 DIFFERENT FILL-ORIGIN LEVEL: 0
STLB AVERAGE MISS LATENCY: 58.5997 cycles
STLB RQ	ACCESS:    6674841	FORWARD:          0	MERGED:    1962609	TO_CACHE:    4712232

STLB Hit, L1D data hit: 0
STLB Hit, L2C data hit: 0
STLB Hit, LLC data hit: 0
STLB Hit, LLC data miss: 0
STLB STLB hints to L2: 0
L1D TOTAL     ACCESS:   60427517  HIT:   55528751  MISS:    4898766  HIT %:    91.8932  MISS %:    8.10685   MPKI: 24.4938
L1D LOAD      ACCESS:   33883540  HIT:   30462976  MISS:    3420564  HIT %:    89.9049  MISS %:    10.0951   MPKI: 17.1028
L1D RFO       ACCESS:   25129006  HIT:   23938485  MISS:    1190521  HIT %:    95.2624  MISS %:    4.73764   MPKI: 5.9526
L1D PREFETCH  ACCESS:    1414971  HIT:    1127290  MISS:     287681  HIT %:    79.6688  MISS %:    20.3312   MPKI: 1.4384
L1D PREFETCH  REQUESTED:    4926276  ISSUED:    4874635  USEFUL:     192882  USELESS:      94823
L1D USEFUL LOAD PREFETCHES:     192882 PREFETCH ISSUED TO LOWER LEVEL:    1113136  ACCURACY: 17.3278
L1D TIMELY PREFETCHES:     192882 LATE PREFETCHES: 8550 DROPPED PREFETCHES: 10624
L1D PREFETCHES SAME FILL-ORIGIN LEVEL: 296231 DIFFERENT FILL-ORIGIN LEVEL: 816905
L1D AVERAGE MISS LATENCY: 21.0447 cycles
L1D RQ	ACCESS:   46620841	FORWARD:          0	MERGED:   12266709	TO_CACHE:   34033702
L1D WQ	ACCESS:   27052930	FORWARD:     320430	MERGED:     150925	TO_CACHE:   26902005
L1D PQ	ACCESS:    2608441	FORWARD:          0	MERGED:     342247	TO_CACHE:    2266194

L1D UNIQUE REGIONS ACCESSED: 0
L1D REGIONS CONFLICTS: 0
L1D Cross Page Prefetch Requests: 269387
L1D Same Page Prefetch Requests: 3065273
L1D ROI Sum of L1D PQ occupancy: 33824277
L1D PREFETCHES PUSHED FROM L2C: 0
L1I TOTAL     ACCESS:   39955069  HIT:   28453624  MISS:   11501445  HIT %:    71.2141  MISS %:    28.7859   MPKI: 57.5072
L1I LOAD      ACCESS:   39955069  HIT:   28453624  MISS:   11501445  HIT %:    71.2141  MISS %:    28.7859   MPKI: 57.5072
L1I PREFETCH  REQUESTED:          0  ISSUED:          0  USEFUL:          0  USELESS:          0
L1I USEFUL LOAD PREFETCHES:          0 PREFETCH ISSUED TO LOWER LEVEL:          0  ACCURACY: -nan
L1I TIMELY PREFETCHES:          0 LATE PREFETCHES: 0 DROPPED PREFETCHES: 0
L1I PREFETCHES SAME FILL-ORIGIN LEVEL: 0 DIFFERENT FILL-ORIGIN LEVEL: 0
L1I AVERAGE MISS LATENCY: 15.5827 cycles
L1I RQ	ACCESS:   58732919	FORWARD:          0	MERGED:   17092204	TO_CACHE:   41640715

BTB TOTAL     ACCESS:   30618908  HIT:   17904735  MISS:   12714173  HIT %:    58.4761  MISS %:    41.5239   MPKI: 63.5709
BTB BRANCH_DIRECT_JUMP	ACCESS:    2097826  HIT:    1276069  MISS:     821757
BTB BRANCH_INDIRECT	ACCESS:   12319460  HIT:    7406288  MISS:    4913172
BTB BRANCH_CONDITIONAL	ACCESS:    6937859  HIT:    5651432  MISS:    1286427
BTB BRANCH_DIRECT_CALL	ACCESS:    3904059  HIT:    1837298  MISS:    2066761
BTB BRANCH_INDIRECT_CALL	ACCESS:     727839  HIT:     354479  MISS:     373360
BTB BRANCH_RETURN	ACCESS:    4631865  HIT:    1379169  MISS:    3252696
BTB BRANCH_OTHER ACCESS:          0  HIT:          0  MISS:          0

L2C TOTAL     ACCESS:   19538056  HIT:   18451722  MISS:    1086334  HIT %:    94.4399  MISS %:    5.56009   MPKI: 5.43167
L2C LOAD      ACCESS:   14913433  HIT:   14004680  MISS:     908753  HIT %:    93.9065  MISS %:    6.09352   MPKI: 4.54376
L2C DATA LOAD MPKI: 1.76891
L2C INSTRUCTION LOAD MPKI: 2.77485
L2C RFO       ACCESS:    1190520  HIT:    1109447  MISS:      81073  HIT %:    93.1901  MISS %:    6.80988   MPKI: 0.405365
L2C PREFETCH  ACCESS:    1106115  HIT:    1077514  MISS:      28601  HIT %:    97.4143  MISS %:    2.58572   MPKI: 0.143005
L2C DATA PREFETCH MPKI: 0.143005
L2C INSTRUCTION PREFETCH MPKI: 0
L2C WRITEBACK ACCESS:    2237765  HIT:    2208200  MISS:      29565  HIT %:    98.6788  MISS %:    1.32118   MPKI: 0.147825
L2C LOAD TRANSLATION ACCESS:      83675  HIT:      45750  MISS:      37925  HIT %:    54.6758  MISS %:    45.3242   MPKI: 0.189625
L2C TRANSLATION FROM L1D PREFETCHER ACCESS:       6548  HIT:       6131  MISS:        417  HIT %:    93.6316  MISS %:    6.36836   MPKI: 0.002085
L2C PREFETCH  REQUESTED:          0  ISSUED:          0  USEFUL:       1914  USELESS:      27203
L2C USEFUL LOAD PREFETCHES:       1914 PREFETCH ISSUED TO LOWER LEVEL:      29295  ACCURACY: 6.53354
L2C TIMELY PREFETCHES:       1914 LATE PREFETCHES: 694 DROPPED PREFETCHES: 0
L2C PREFETCHES SAME FILL-ORIGIN LEVEL: 23484 DIFFERENT FILL-ORIGIN LEVEL: 0
L2C AVERAGE MISS LATENCY: 45.9638 cycles
L2C RQ	ACCESS:   16194204	FORWARD:          0	MERGED:          0	TO_CACHE:   16194177
L2C WQ	ACCESS:    2237765	FORWARD:         27	MERGED:          0	TO_CACHE:    2237765
L2C PQ	ACCESS:    1113136	FORWARD:          0	MERGED:        358	TO_CACHE:    1112778

L2C Instructions Evicting Data 194058
L2C Translations Evicting Data 27084
L2C Data Evicting Data 260831
L2C Instructions Evicting Instructions 352990
L2C Translations Evicting Instructions 7909
L2C Data Evicting Instructions 175923
L2C Instructions Evicting Translations 7922
L2C Translations Evicting Translations 3349
L2C Data Evicting Translations 26703
L2C Dense regions hint from L2: 0
PSCL5 TOTAL     ACCESS:      58524  HIT:      58524  MISS:          0  HIT %:        100  MISS %:          0   MPKI: 0
PSCL5 LOAD TRANSLATION ACCESS:      55001  HIT:      55001  MISS:          0  HIT %:        100  MISS %:          0   MPKI: 0
PSCL5 TRANSLATION FROM L1D PREFETCHER ACCESS:       3523  HIT:       3523  MISS:          0  HIT %:        100  MISS %:          0   MPKI: 0
PSCL5 PREFETCH  REQUESTED:          0  ISSUED:          0  USEFUL:          0  USELESS:          0
PSCL5 USEFUL LOAD PREFETCHES:          0 PREFETCH ISSUED TO LOWER LEVEL:          0  ACCURACY: -nan
PSCL5 TIMELY PREFETCHES:          0 LATE PREFETCHES: 0 DROPPED PREFETCHES: 0
PSCL5 PREFETCHES SAME FILL-ORIGIN LEVEL: 0 DIFFERENT FILL-ORIGIN LEVEL: 0

PSCL4 TOTAL     ACCESS:      56547  HIT:      55796  MISS:        751  HIT %:    98.6719  MISS %:     1.3281   MPKI: 0.003755
PSCL4 LOAD TRANSLATION ACCESS:      53115  HIT:      52364  MISS:        751  HIT %:    98.5861  MISS %:    1.41391   MPKI: 0.003755
PSCL4 TRANSLATION FROM L1D PREFETCHER ACCESS:       3432  HIT:       3432  MISS:          0  HIT %:        100  MISS %:          0   MPKI: 0
PSCL4 PREFETCH  REQUESTED:          0  ISSUED:          0  USEFUL:          0  USELESS:          0
PSCL4 USEFUL LOAD PREFETCHES:          0 PREFETCH ISSUED TO LOWER LEVEL:          0  ACCURACY: -nan
PSCL4 TIMELY PREFETCHES:          0 LATE PREFETCHES: 0 DROPPED PREFETCHES: 0
PSCL4 PREFETCHES SAME FILL-ORIGIN LEVEL: 0 DIFFERENT FILL-ORIGIN LEVEL: 0

PSCL3 TOTAL     ACCESS:      58323  HIT:      57569  MISS:        754  HIT %:    98.7072  MISS %:     1.2928   MPKI: 0.00377
PSCL3 LOAD TRANSLATION ACCESS:      54838  HIT:      54084  MISS:        754  HIT %:     98.625  MISS %:    1.37496   MPKI: 0.00377
PSCL3 TRANSLATION FROM L1D PREFETCHER ACCESS:       3485  HIT:       3485  MISS:          0  HIT %:        100  MISS %:          0   MPKI: 0
PSCL3 PREFETCH  REQUESTED:          0  ISSUED:          0  USEFUL:          0  USELESS:          0
PSCL3 USEFUL LOAD PREFETCHES:          0 PREFETCH ISSUED TO LOWER LEVEL:          0  ACCURACY: -nan
PSCL3 TIMELY PREFETCHES:          0 LATE PREFETCHES: 0 DROPPED PREFETCHES: 0
PSCL3 PREFETCHES SAME FILL-ORIGIN LEVEL: 0 DIFFERENT FILL-ORIGIN LEVEL: 0

PSCL2 TOTAL     ACCESS:      55535  HIT:      28333  MISS:      27202  HIT %:    51.0183  MISS %:    48.9817   MPKI: 0.13601
PSCL2 LOAD TRANSLATION ACCESS:      55021  HIT:      27819  MISS:      27202  HIT %:    50.5607  MISS %:    49.4393   MPKI: 0.13601
PSCL2 TRANSLATION FROM L1D PREFETCHER ACCESS:        514  HIT:        514  MISS:          0  HIT %:        100  MISS %:          0   MPKI: 0
PSCL2 PREFETCH  REQUESTED:          0  ISSUED:          0  USEFUL:          0  USELESS:          0
PSCL2 USEFUL LOAD PREFETCHES:          0 PREFETCH ISSUED TO LOWER LEVEL:          0  ACCURACY: -nan
PSCL2 TIMELY PREFETCHES:          0 LATE PREFETCHES: 0 DROPPED PREFETCHES: 0
PSCL2 PREFETCHES SAME FILL-ORIGIN LEVEL: 0 DIFFERENT FILL-ORIGIN LEVEL: 0

LLC TOTAL     ACCESS:    1164581  HIT:    1032981  MISS:     131600  HIT %:    88.6998  MISS %:    11.3002   MPKI: 0.658
LLC LOAD      ACCESS:     908064  HIT:     799759  MISS:     108305  HIT %:     88.073  MISS %:     11.927   MPKI: 0.541525
LLC RFO       ACCESS:      81067  HIT:      67982  MISS:      13085  HIT %:     83.859  MISS %:     16.141   MPKI: 0.065425
LLC PREFETCH  ACCESS:      29295  HIT:      23447  MISS:       5848  HIT %:    80.0375  MISS %:    19.9625   MPKI: 0.02924
LLC WRITEBACK ACCESS:     107813  HIT:     107016  MISS:        797  HIT %:    99.2608  MISS %:   0.739243   MPKI: 0.003985
LLC LOAD TRANSLATION ACCESS:      37925  HIT:      34387  MISS:       3538  HIT %:    90.6711  MISS %:    9.32894   MPKI: 0.01769
LLC TRANSLATION FROM L1D PREFETCHER ACCESS:        417  HIT:        390  MISS:         27  HIT %:    93.5252  MISS %:    6.47482   MPKI: 0.000135
LLC PREFETCH  REQUESTED:          0  ISSUED:          0  USEFUL:        390  USELESS:       7518
LLC USEFUL LOAD PREFETCHES:        390 PREFETCH ISSUED TO LOWER LEVEL:       5848  ACCURACY: 6.66895
LLC TIMELY PREFETCHES:        390 LATE PREFETCHES: 0 DROPPED PREFETCHES: 0
LLC PREFETCHES SAME FILL-ORIGIN LEVEL: 0 DIFFERENT FILL-ORIGIN LEVEL: 0
LLC AVERAGE MISS LATENCY: 138.611 cycles
LLC RQ	ACCESS:    1027474	FORWARD:          0	MERGED:          0	TO_CACHE:    1027473
LLC WQ	ACCESS:     107813	FORWARD:          1	MERGED:          0	TO_CACHE:     107813
LLC PQ	ACCESS:      29295	FORWARD:          0	MERGED:          0	TO_CACHE:      29295

LLC Dense regions hint to LLC: 0

RAW hits: 1454514
Loads Generated: 48075355
Loads sent to L1D: 46620841
Stores Generated: 27052894
Stores sent to L1D: 27052930
Major fault: 0 Minor fault: 6261
Allocated PAGES: 6261

DRAM Statistics
 CHANNEL 0
 RQ ROW_BUFFER_HIT:      48836  ROW_BUFFER_MISS:      81932
 DBUS_CONGESTED:        115
 WQ ROW_BUFFER_HIT:       2114  ROW_BUFFER_MISS:      10994  FULL:          0

 AVG_CONGESTED_CYCLE: 5
 All warmup complete: 2
Channel 0 Bank busy for read cycles: 0
Channel 0 Bank busy for write cycles: 0
Channel 0
Rank 0
0banks busy for read cycles: 649745599
0banks busy for write cycles: 8187
1banks busy for read cycles: 7753042
1banks busy for write cycles: 1317936
2banks busy for read cycles: 993757
2banks busy for write cycles: 219836
3banks busy for read cycles: 287434
3banks busy for write cycles: 84481
4banks busy for read cycles: 186936
4banks busy for write cycles: 45418
5banks busy for read cycles: 139414
5banks busy for write cycles: 18644
6banks busy for read cycles: 126926
6banks busy for write cycles: 10317
7banks busy for read cycles: 118864
7banks busy for write cycles: 6102
8banks busy for read cycles: 137363
8banks busy for write cycles: 10258

CPU 0 Branch Prediction Accuracy: 99.767% MPKI: 0.417705 Average ROB Occupancy at Mispredict: 43.3876
Branch types
NOT_BRANCH: 164151436 82.0757%
BRANCH_DIRECT_JUMP: 2097826 1.04891%
BRANCH_INDIRECT: 12319460 6.15973%
BRANCH_CONDITIONAL: 12167282 6.08364%
BRANCH_DIRECT_CALL: 3904059 1.95203%
BRANCH_INDIRECT_CALL: 727839 0.363919%
BRANCH_RETURN: 4631865 2.31593%
BRANCH_OTHER: 0 0%

DRAM PAGES: 1048576
Allocated PAGES: 6261
