
*** ChampSim Multicore Out-of-Order Simulator ***

Warmup Instructions: 50000000
Simulation Instructions: 200000000
Number of CPUs: 1
LLC sets: 2048
LLC ways: 16
Off-chip DRAM Size: 4096 MB Channels: 1 Width: 64-bit Data Rate: 6400 MT/s
CPU 0 runs traces/spec2k17/server_022.champsimtrace.xz
.xz
BTB has LRU replacement policy
ITLB has LRU replacement policy
DTLB has LRU replacement policy
STLB has LRU replacement policy
L1I has LRU replacement policy
History Sets: 8
History Ways: 16
BERTI Size: 16
BERTI Stride Size: 16
L1D has LRU replacement policy
Initialize SRRIP state for L2C
Initialize DRRIP state for LLC
Heartbeat CPU 0 instructions: 10000001 cycles: 2938824 heartbeat IPC: 3.40272 cumulative IPC: 3.40272 (Simulation time: 0 hr 0 min 46 sec) 
Heartbeat CPU 0 instructions: 20000003 cycles: 5880787 heartbeat IPC: 3.39909 cumulative IPC: 3.40091 (Simulation time: 0 hr 1 min 31 sec) 
Heartbeat CPU 0 instructions: 30000000 cycles: 8816777 heartbeat IPC: 3.40601 cumulative IPC: 3.4026 (Simulation time: 0 hr 2 min 18 sec) 
Heartbeat CPU 0 instructions: 40000002 cycles: 11756705 heartbeat IPC: 3.40144 cumulative IPC: 3.40231 (Simulation time: 0 hr 3 min 7 sec) 
Heartbeat CPU 0 instructions: 50000002 cycles: 14695924 heartbeat IPC: 3.40226 cumulative IPC: 3.4023 (Simulation time: 0 hr 3 min 54 sec) 

Warmup complete CPU 0 instructions: 50000002 cycles: 14695924 (Simulation time: 0 hr 3 min 54 sec) 

Heartbeat CPU 0 instructions: 60000002 cycles: 34426399 heartbeat IPC: 0.50683 cumulative IPC: 0.50683 (Simulation time: 0 hr 5 min 11 sec) 
Heartbeat CPU 0 instructions: 70000000 cycles: 53968189 heartbeat IPC: 0.511724 cumulative IPC: 0.509265 (Simulation time: 0 hr 6 min 12 sec) 
Heartbeat CPU 0 instructions: 80000003 cycles: 72483441 heartbeat IPC: 0.540095 cumulative IPC: 0.519143 (Simulation time: 0 hr 7 min 25 sec) 
Heartbeat CPU 0 instructions: 90000002 cycles: 91079456 heartbeat IPC: 0.53775 cumulative IPC: 0.523673 (Simulation time: 0 hr 8 min 23 sec) 
Heartbeat CPU 0 instructions: 100000000 cycles: 109861431 heartbeat IPC: 0.532425 cumulative IPC: 0.5254 (Simulation time: 0 hr 9 min 26 sec) 
*** Reached end of trace for Core: 0 Repeating trace: traces/spec2k17/server_022.champsimtrace.xz
Heartbeat CPU 0 instructions: 110000000 cycles: 128385632 heartbeat IPC: 0.539834 cumulative IPC: 0.527752 (Simulation time: 0 hr 10 min 38 sec) 
Heartbeat CPU 0 instructions: 120000001 cycles: 146985339 heartbeat IPC: 0.537643 cumulative IPC: 0.529143 (Simulation time: 0 hr 11 min 39 sec) 
Heartbeat CPU 0 instructions: 130000000 cycles: 165496426 heartbeat IPC: 0.540217 cumulative IPC: 0.530502 (Simulation time: 0 hr 12 min 55 sec) 
Heartbeat CPU 0 instructions: 140000000 cycles: 184029787 heartbeat IPC: 0.539568 cumulative IPC: 0.531494 (Simulation time: 0 hr 13 min 59 sec) 
Heartbeat CPU 0 instructions: 150000000 cycles: 202568176 heartbeat IPC: 0.539421 cumulative IPC: 0.532277 (Simulation time: 0 hr 15 min 7 sec) 
Heartbeat CPU 0 instructions: 160000001 cycles: 221322007 heartbeat IPC: 0.533224 cumulative IPC: 0.532363 (Simulation time: 0 hr 16 min 6 sec) 
Heartbeat CPU 0 instructions: 170000001 cycles: 239843462 heartbeat IPC: 0.539914 cumulative IPC: 0.532984 (Simulation time: 0 hr 17 min 15 sec) 
Heartbeat CPU 0 instructions: 180000003 cycles: 258420901 heartbeat IPC: 0.538287 cumulative IPC: 0.533388 (Simulation time: 0 hr 18 min 21 sec) 
Heartbeat CPU 0 instructions: 190000003 cycles: 276833351 heartbeat IPC: 0.543111 cumulative IPC: 0.534071 (Simulation time: 0 hr 19 min 25 sec) 
Heartbeat CPU 0 instructions: 200000002 cycles: 295240650 heartbeat IPC: 0.543263 cumulative IPC: 0.534674 (Simulation time: 0 hr 20 min 33 sec) 
Heartbeat CPU 0 instructions: 210000002 cycles: 313775953 heartbeat IPC: 0.539511 cumulative IPC: 0.534974 (Simulation time: 0 hr 21 min 34 sec) 
*** Reached end of trace for Core: 0 Repeating trace: traces/spec2k17/server_022.champsimtrace.xz
Heartbeat CPU 0 instructions: 220000000 cycles: 332295608 heartbeat IPC: 0.539967 cumulative IPC: 0.535265 (Simulation time: 0 hr 22 min 42 sec) 
Heartbeat CPU 0 instructions: 230000003 cycles: 350835420 heartbeat IPC: 0.53938 cumulative IPC: 0.535492 (Simulation time: 0 hr 23 min 45 sec) 
Heartbeat CPU 0 instructions: 240000000 cycles: 369250740 heartbeat IPC: 0.543026 cumulative IPC: 0.535883 (Simulation time: 0 hr 24 min 58 sec) 
Heartbeat CPU 0 instructions: 250000002 cycles: 387739022 heartbeat IPC: 0.540883 cumulative IPC: 0.536131 (Simulation time: 0 hr 26 min 5 sec) 
Finished CPU 0 instructions: 200000000 cycles: 373043098 cumulative IPC: 0.536131 (Simulation time: 0 hr 26 min 5 sec) 

ChampSim completed all CPUs

Region of Interest Statistics

CPU 0 cumulative IPC: 0.536131 instructions: 200000000 cycles: 373043098
ITLB TOTAL     ACCESS:   33716089  HIT:   32173370  MISS:    1542719  HIT %:    95.4244  MISS %:    4.57562   MPKI: 7.71359
ITLB LOAD TRANSLATION ACCESS:   33716089  HIT:   32173370  MISS:    1542719  HIT %:    95.4244  MISS %:    4.57562   MPKI: 7.71359
ITLB PREFETCH  REQUESTED:          0  ISSUED:          0  USEFUL:          0  USELESS:          0
ITLB USEFUL LOAD PREFETCHES:          0 PREFETCH ISSUED TO LOWER LEVEL:          0  ACCURACY: -nan
ITLB TIMELY PREFETCHES:          0 LATE PREFETCHES: 0 DROPPED PREFETCHES: 0
ITLB PREFETCHES SAME FILL-ORIGIN LEVEL: 0 DIFFERENT FILL-ORIGIN LEVEL: 0
ITLB AVERAGE MISS LATENCY: 9.22711 cycles
ITLB RQ	ACCESS:   40654055	FORWARD:          0	MERGED:    6441717	TO_CACHE:   34212338

DTLB TOTAL     ACCESS:   40378684  HIT:   38855025  MISS:    1523659  HIT %:    96.2266  MISS %:    3.77342   MPKI: 7.61829
DTLB LOAD TRANSLATION ACCESS:   40378684  HIT:   38855025  MISS:    1523659  HIT %:    96.2266  MISS %:    3.77342   MPKI: 7.61829
DTLB PREFETCH  REQUESTED:          0  ISSUED:          0  USEFUL:          0  USELESS:          0
DTLB USEFUL LOAD PREFETCHES:          0 PREFETCH ISSUED TO LOWER LEVEL:          0  ACCURACY: -nan
DTLB TIMELY PREFETCHES:          0 LATE PREFETCHES: 0 DROPPED PREFETCHES: 0
DTLB PREFETCHES SAME FILL-ORIGIN LEVEL: 0 DIFFERENT FILL-ORIGIN LEVEL: 0
DTLB AVERAGE MISS LATENCY: 15.0759 cycles
DTLB RQ	ACCESS:   61369426	FORWARD:          0	MERGED:   20601473	TO_CACHE:   40767953

STLB TOTAL     ACCESS:    4291096  HIT:    4217150  MISS:      73946  HIT %:    98.2768  MISS %:    1.72324   MPKI: 0.36973
STLB LOAD TRANSLATION ACCESS:    3066378  HIT:    2999767  MISS:      66611  HIT %:    97.8277  MISS %:     2.1723   MPKI: 0.333055
STLB TRANSLATION FROM L1D PREFETCHER ACCESS:    1224718  HIT:    1217383  MISS:       7335  HIT %:    99.4011  MISS %:   0.598913   MPKI: 0.036675
STLB PREFETCH  REQUESTED:          0  ISSUED:          0  USEFUL:       7015  USELESS:        317
STLB USEFUL LOAD PREFETCHES:       7015 PREFETCH ISSUED TO LOWER LEVEL:          0  ACCURACY: inf
STLB TIMELY PREFETCHES:       7015 LATE PREFETCHES: 472 DROPPED PREFETCHES: 11397
STLB PREFETCHES SAME FILL-ORIGIN LEVEL: 0 DIFFERENT FILL-ORIGIN LEVEL: 0
STLB AVERAGE MISS LATENCY: 137.215 cycles
STLB RQ	ACCESS:   11119913	FORWARD:          0	MERGED:    6797696	TO_CACHE:    4322217

STLB Hit, L1D data hit: 0
STLB Hit, L2C data hit: 0
STLB Hit, LLC data hit: 0
STLB Hit, LLC data miss: 0
STLB STLB hints to L2: 0
L1D TOTAL     ACCESS:   52809558  HIT:   45954182  MISS:    6855376  HIT %:    87.0187  MISS %:    12.9813   MPKI: 34.2769
L1D LOAD      ACCESS:   26940008  HIT:   24475621  MISS:    2464387  HIT %:    90.8523  MISS %:    9.14768   MPKI: 12.3219
L1D RFO       ACCESS:   21900193  HIT:   18198312  MISS:    3701881  HIT %:    83.0966  MISS %:    16.9034   MPKI: 18.5094
L1D PREFETCH  ACCESS:    3969357  HIT:    3280249  MISS:     689108  HIT %:    82.6393  MISS %:    17.3607   MPKI: 3.44554
L1D PREFETCH  REQUESTED:   20551232  ISSUED:   20146426  USEFUL:     613272  USELESS:      75836
L1D USEFUL LOAD PREFETCHES:     613272 PREFETCH ISSUED TO LOWER LEVEL:    3371123  ACCURACY: 18.1919
L1D TIMELY PREFETCHES:     613272 LATE PREFETCHES: 188640 DROPPED PREFETCHES: 38037
L1D PREFETCHES SAME FILL-ORIGIN LEVEL: 877752 DIFFERENT FILL-ORIGIN LEVEL: 2493371
L1D AVERAGE MISS LATENCY: 150.379 cycles
L1D RQ	ACCESS:   45252599	FORWARD:          0	MERGED:   17629623	TO_CACHE:   27335166
L1D WQ	ACCESS:   34236669	FORWARD:     287810	MERGED:     202409	TO_CACHE:   34034260
L1D PQ	ACCESS:   12092891	FORWARD:          0	MERGED:    4039356	TO_CACHE:    8053535

L1D UNIQUE REGIONS ACCESSED: 0
L1D REGIONS CONFLICTS: 0
L1D Cross Page Prefetch Requests: 1460188
L1D Same Page Prefetch Requests: 13459622
L1D ROI Sum of L1D PQ occupancy: 159333841
L1D PREFETCHES PUSHED FROM L2C: 0
L1I TOTAL     ACCESS:   37986771  HIT:   28857567  MISS:    9129204  HIT %:    75.9674  MISS %:    24.0326   MPKI: 45.646
L1I LOAD      ACCESS:   37986771  HIT:   28857567  MISS:    9129204  HIT %:    75.9674  MISS %:    24.0326   MPKI: 45.646
L1I PREFETCH  REQUESTED:          0  ISSUED:          0  USEFUL:          0  USELESS:          0
L1I USEFUL LOAD PREFETCHES:          0 PREFETCH ISSUED TO LOWER LEVEL:          0  ACCURACY: -nan
L1I TIMELY PREFETCHES:          0 LATE PREFETCHES: 0 DROPPED PREFETCHES: 0
L1I PREFETCHES SAME FILL-ORIGIN LEVEL: 0 DIFFERENT FILL-ORIGIN LEVEL: 0
L1I AVERAGE MISS LATENCY: 16.781 cycles
L1I RQ	ACCESS:   58786644	FORWARD:          0	MERGED:   18132589	TO_CACHE:   40654055

BTB TOTAL     ACCESS:   25686189  HIT:   24135279  MISS:    1550910  HIT %:    93.9621  MISS %:    6.03791   MPKI: 7.75455
BTB BRANCH_DIRECT_JUMP	ACCESS:    1661001  HIT:    1650247  MISS:      10754
BTB BRANCH_INDIRECT	ACCESS:    9967569  HIT:    9455075  MISS:     512494
BTB BRANCH_CONDITIONAL	ACCESS:    7219465  HIT:    7204509  MISS:      14956
BTB BRANCH_DIRECT_CALL	ACCESS:    2825890  HIT:    2790312  MISS:      35578
BTB BRANCH_INDIRECT_CALL	ACCESS:     593170  HIT:     481443  MISS:     111727
BTB BRANCH_RETURN	ACCESS:    3419094  HIT:    2553693  MISS:     865401
BTB BRANCH_OTHER ACCESS:          0  HIT:          0  MISS:          0

L2C TOTAL     ACCESS:   21499090  HIT:   14690701  MISS:    6808389  HIT %:    68.3317  MISS %:    31.6683   MPKI: 34.0419
L2C LOAD      ACCESS:   11404773  HIT:    9387230  MISS:    2017543  HIT %:    82.3097  MISS %:    17.6903   MPKI: 10.0877
L2C DATA LOAD MPKI: 7.09996
L2C INSTRUCTION LOAD MPKI: 2.98775
L2C RFO       ACCESS:    3701870  HIT:     148887  MISS:    3552983  HIT %:    4.02194  MISS %:    95.9781   MPKI: 17.7649
L2C PREFETCH  ACCESS:    1944114  HIT:     920794  MISS:    1023320  HIT %:    47.3632  MISS %:    52.6368   MPKI: 5.1166
L2C DATA PREFETCH MPKI: 5.1166
L2C INSTRUCTION PREFETCH MPKI: 0
L2C WRITEBACK ACCESS:    4352940  HIT:    4180093  MISS:     172847  HIT %:    96.0292  MISS %:    3.97081   MPKI: 0.864235
L2C LOAD TRANSLATION ACCESS:      74061  HIT:      39159  MISS:      34902  HIT %:     52.874  MISS %:     47.126   MPKI: 0.17451
L2C TRANSLATION FROM L1D PREFETCHER ACCESS:      21332  HIT:      14538  MISS:       6794  HIT %:    68.1511  MISS %:    31.8489   MPKI: 0.03397
L2C PREFETCH  REQUESTED:          0  ISSUED:          0  USEFUL:     219025  USELESS:     811110
L2C USEFUL LOAD PREFETCHES:     219025 PREFETCH ISSUED TO LOWER LEVEL:    1111686  ACCURACY: 19.7021
L2C TIMELY PREFETCHES:     219025 LATE PREFETCHES: 88366 DROPPED PREFETCHES: 0
L2C PREFETCHES SAME FILL-ORIGIN LEVEL: 837648 DIFFERENT FILL-ORIGIN LEVEL: 0
L2C AVERAGE MISS LATENCY: 170.354 cycles
L2C RQ	ACCESS:   15202223	FORWARD:          0	MERGED:          0	TO_CACHE:   15202038
L2C WQ	ACCESS:    4352940	FORWARD:        185	MERGED:          0	TO_CACHE:    4352940
L2C PQ	ACCESS:    3369875	FORWARD:          0	MERGED:      29289	TO_CACHE:    3340586

L2C Instructions Evicting Data 548878
L2C Translations Evicting Data 38180
L2C Data Evicting Data 5425881
L2C Instructions Evicting Instructions 45315
L2C Translations Evicting Instructions 3320
L2C Data Evicting Instructions 533017
L2C Instructions Evicting Translations 3358
L2C Translations Evicting Translations 196
L2C Data Evicting Translations 37397
L2C Dense regions hint from L2: 0
PSCL5 TOTAL     ACCESS:      85307  HIT:      85307  MISS:          0  HIT %:        100  MISS %:          0   MPKI: 0
PSCL5 LOAD TRANSLATION ACCESS:      66139  HIT:      66139  MISS:          0  HIT %:        100  MISS %:          0   MPKI: 0
PSCL5 TRANSLATION FROM L1D PREFETCHER ACCESS:      19168  HIT:      19168  MISS:          0  HIT %:        100  MISS %:          0   MPKI: 0
PSCL5 PREFETCH  REQUESTED:          0  ISSUED:          0  USEFUL:          0  USELESS:          0
PSCL5 USEFUL LOAD PREFETCHES:          0 PREFETCH ISSUED TO LOWER LEVEL:          0  ACCURACY: -nan
PSCL5 TIMELY PREFETCHES:          0 LATE PREFETCHES: 0 DROPPED PREFETCHES: 0
PSCL5 PREFETCHES SAME FILL-ORIGIN LEVEL: 0 DIFFERENT FILL-ORIGIN LEVEL: 0

PSCL4 TOTAL     ACCESS:      76385  HIT:      76304  MISS:         81  HIT %:     99.894  MISS %:   0.106042   MPKI: 0.000405
PSCL4 LOAD TRANSLATION ACCESS:      59691  HIT:      59610  MISS:         81  HIT %:    99.8643  MISS %:   0.135699   MPKI: 0.000405
PSCL4 TRANSLATION FROM L1D PREFETCHER ACCESS:      16694  HIT:      16694  MISS:          0  HIT %:        100  MISS %:          0   MPKI: 0
PSCL4 PREFETCH  REQUESTED:          0  ISSUED:          0  USEFUL:          0  USELESS:          0
PSCL4 USEFUL LOAD PREFETCHES:          0 PREFETCH ISSUED TO LOWER LEVEL:          0  ACCURACY: -nan
PSCL4 TIMELY PREFETCHES:          0 LATE PREFETCHES: 0 DROPPED PREFETCHES: 0
PSCL4 PREFETCHES SAME FILL-ORIGIN LEVEL: 0 DIFFERENT FILL-ORIGIN LEVEL: 0

PSCL3 TOTAL     ACCESS:      85163  HIT:      84998  MISS:        165  HIT %:    99.8063  MISS %:   0.193746   MPKI: 0.000825
PSCL3 LOAD TRANSLATION ACCESS:      66109  HIT:      65944  MISS:        165  HIT %:    99.7504  MISS %:   0.249588   MPKI: 0.000825
PSCL3 TRANSLATION FROM L1D PREFETCHER ACCESS:      19054  HIT:      19054  MISS:          0  HIT %:        100  MISS %:          0   MPKI: 0
PSCL3 PREFETCH  REQUESTED:          0  ISSUED:          0  USEFUL:          0  USELESS:          0
PSCL3 USEFUL LOAD PREFETCHES:          0 PREFETCH ISSUED TO LOWER LEVEL:          0  ACCURACY: -nan
PSCL3 TIMELY PREFETCHES:          0 LATE PREFETCHES: 0 DROPPED PREFETCHES: 0
PSCL3 PREFETCHES SAME FILL-ORIGIN LEVEL: 0 DIFFERENT FILL-ORIGIN LEVEL: 0

PSCL2 TOTAL     ACCESS:      83492  HIT:      75518  MISS:       7974  HIT %:    90.4494  MISS %:    9.55062   MPKI: 0.03987
PSCL2 LOAD TRANSLATION ACCESS:      66405  HIT:      58431  MISS:       7974  HIT %:    87.9919  MISS %:    12.0081   MPKI: 0.03987
PSCL2 TRANSLATION FROM L1D PREFETCHER ACCESS:      17087  HIT:      17087  MISS:          0  HIT %:        100  MISS %:          0   MPKI: 0
PSCL2 PREFETCH  REQUESTED:          0  ISSUED:          0  USEFUL:          0  USELESS:          0
PSCL2 USEFUL LOAD PREFETCHES:          0 PREFETCH ISSUED TO LOWER LEVEL:          0  ACCURACY: -nan
PSCL2 TIMELY PREFETCHES:          0 LATE PREFETCHES: 0 DROPPED PREFETCHES: 0
PSCL2 PREFETCHES SAME FILL-ORIGIN LEVEL: 0 DIFFERENT FILL-ORIGIN LEVEL: 0

LLC TOTAL     ACCESS:   10691341  HIT:    4511776  MISS:    6179565  HIT %:    42.2003  MISS %:    57.7997   MPKI: 30.8978
LLC LOAD      ACCESS:    1929181  HIT:    1638890  MISS:     290291  HIT %:    84.9526  MISS %:    15.0474   MPKI: 1.45145
LLC RFO       ACCESS:    3552952  HIT:     990117  MISS:    2562835  HIT %:    27.8674  MISS %:    72.1326   MPKI: 12.8142
LLC PREFETCH  ACCESS:    1111686  HIT:      51528  MISS:    1060158  HIT %:    4.63512  MISS %:    95.3649   MPKI: 5.30079
LLC WRITEBACK ACCESS:    4055826  HIT:    1821028  MISS:    2234798  HIT %:    44.8991  MISS %:    55.1009   MPKI: 11.174
LLC LOAD TRANSLATION ACCESS:      34902  HIT:       8477  MISS:      26425  HIT %:     24.288  MISS %:     75.712   MPKI: 0.132125
LLC TRANSLATION FROM L1D PREFETCHER ACCESS:       6794  HIT:       1736  MISS:       5058  HIT %:     25.552  MISS %:     74.448   MPKI: 0.02529
LLC PREFETCH  REQUESTED:          0  ISSUED:          0  USEFUL:       3950  USELESS:    1065681
LLC USEFUL LOAD PREFETCHES:       3950 PREFETCH ISSUED TO LOWER LEVEL:    1060158  ACCURACY: 0.372586
LLC TIMELY PREFETCHES:       3950 LATE PREFETCHES: 0 DROPPED PREFETCHES: 0
LLC PREFETCHES SAME FILL-ORIGIN LEVEL: 0 DIFFERENT FILL-ORIGIN LEVEL: 0
LLC AVERAGE MISS LATENCY: 156.793 cycles
LLC RQ	ACCESS:    5523856	FORWARD:          0	MERGED:          0	TO_CACHE:    5523829
LLC WQ	ACCESS:    4055826	FORWARD:         27	MERGED:          0	TO_CACHE:    4055826
LLC PQ	ACCESS:    1111686	FORWARD:          0	MERGED:          0	TO_CACHE:    1111686

LLC Dense regions hint to LLC: 0

RAW hits: 2474487
Loads Generated: 47727087
Loads sent to L1D: 45252599
Stores Generated: 34236660
Stores sent to L1D: 34236669
Major fault: 0 Minor fault: 23678
Allocated PAGES: 23678

DRAM Statistics
 CHANNEL 0
 RQ ROW_BUFFER_HIT:    2263254  ROW_BUFFER_MISS:    1681050
 DBUS_CONGESTED:       2488
 WQ ROW_BUFFER_HIT:     567970  ROW_BUFFER_MISS:    2063240  FULL:      94549

 AVG_CONGESTED_CYCLE: 3
 All warmup complete: 2
Channel 0 Bank busy for read cycles: 0
Channel 0 Bank busy for write cycles: 0
Channel 0
Rank 0
0banks busy for read cycles: 182983184
0banks busy for write cycles: 244660
1banks busy for read cycles: 26832870
1banks busy for write cycles: 34125810
2banks busy for read cycles: 10058112
2banks busy for write cycles: 11428560
3banks busy for read cycles: 13193681
3banks busy for write cycles: 5010592
4banks busy for read cycles: 4371091
4banks busy for write cycles: 3319358
5banks busy for read cycles: 3754763
5banks busy for write cycles: 2866178
6banks busy for read cycles: 4677613
6banks busy for write cycles: 2905314
7banks busy for read cycles: 6515938
7banks busy for write cycles: 5298994
8banks busy for read cycles: 22396548
8banks busy for write cycles: 33059833

CPU 0 Branch Prediction Accuracy: 99.9426% MPKI: 0.08767 Average ROB Occupancy at Mispredict: 96.6606
Branch types
NOT_BRANCH: 169469634 84.7348%
BRANCH_DIRECT_JUMP: 1661001 0.8305%
BRANCH_INDIRECT: 9967569 4.98378%
BRANCH_CONDITIONAL: 12063601 6.0318%
BRANCH_DIRECT_CALL: 2825890 1.41294%
BRANCH_INDIRECT_CALL: 593170 0.296585%
BRANCH_RETURN: 3419094 1.70955%
BRANCH_OTHER: 0 0%

DRAM PAGES: 1048576
Allocated PAGES: 23678
