
*** ChampSim Multicore Out-of-Order Simulator ***

Warmup Instructions: 50000000
Simulation Instructions: 200000000
Number of CPUs: 1
LLC sets: 2048
LLC ways: 16
Off-chip DRAM Size: 4096 MB Channels: 1 Width: 64-bit Data Rate: 6400 MT/s
CPU 0 runs traces/spec2k17/server_011.champsimtrace.xz
.xz
BTB has LRU replacement policy
ITLB has LRU replacement policy
DTLB has LRU replacement policy
STLB has LRU replacement policy
L1I has LRU replacement policy
History Sets: 8
History Ways: 16
BERTI Size: 16
BERTI Stride Size: 16
L1D has LRU replacement policy
Initialize SRRIP state for L2C
Initialize DRRIP state for LLC
Heartbeat CPU 0 instructions: 10000002 cycles: 2779886 heartbeat IPC: 3.59727 cumulative IPC: 3.59727 (Simulation time: 0 hr 0 min 38 sec) 
Heartbeat CPU 0 instructions: 20000000 cycles: 5554872 heartbeat IPC: 3.60362 cumulative IPC: 3.60044 (Simulation time: 0 hr 1 min 19 sec) 
Heartbeat CPU 0 instructions: 30000000 cycles: 8356320 heartbeat IPC: 3.56958 cumulative IPC: 3.5901 (Simulation time: 0 hr 2 min 1 sec) 
Heartbeat CPU 0 instructions: 40000001 cycles: 11132121 heartbeat IPC: 3.60256 cumulative IPC: 3.59321 (Simulation time: 0 hr 2 min 42 sec) 
Heartbeat CPU 0 instructions: 50000000 cycles: 13910034 heartbeat IPC: 3.59982 cumulative IPC: 3.59453 (Simulation time: 0 hr 3 min 18 sec) 

Warmup complete CPU 0 instructions: 50000004 cycles: 13910035 (Simulation time: 0 hr 3 min 18 sec) 

Heartbeat CPU 0 instructions: 60000001 cycles: 38063677 heartbeat IPC: 0.414016 cumulative IPC: 0.414016 (Simulation time: 0 hr 4 min 7 sec) 
Heartbeat CPU 0 instructions: 70000000 cycles: 62094534 heartbeat IPC: 0.416132 cumulative IPC: 0.415071 (Simulation time: 0 hr 4 min 54 sec) 
Heartbeat CPU 0 instructions: 80000001 cycles: 87879892 heartbeat IPC: 0.387817 cumulative IPC: 0.405571 (Simulation time: 0 hr 5 min 45 sec) 
Heartbeat CPU 0 instructions: 90000003 cycles: 113618343 heartbeat IPC: 0.388524 cumulative IPC: 0.40117 (Simulation time: 0 hr 6 min 37 sec) 
Heartbeat CPU 0 instructions: 100000003 cycles: 136800031 heartbeat IPC: 0.431375 cumulative IPC: 0.406868 (Simulation time: 0 hr 7 min 32 sec) 
*** Reached end of trace for Core: 0 Repeating trace: traces/spec2k17/server_011.champsimtrace.xz
Heartbeat CPU 0 instructions: 110000000 cycles: 160527407 heartbeat IPC: 0.421454 cumulative IPC: 0.409228 (Simulation time: 0 hr 8 min 20 sec) 
Heartbeat CPU 0 instructions: 120000003 cycles: 184809088 heartbeat IPC: 0.411833 cumulative IPC: 0.409599 (Simulation time: 0 hr 9 min 20 sec) 
Heartbeat CPU 0 instructions: 130000000 cycles: 209131107 heartbeat IPC: 0.41115 cumulative IPC: 0.409792 (Simulation time: 0 hr 10 min 15 sec) 
Heartbeat CPU 0 instructions: 140000002 cycles: 235750715 heartbeat IPC: 0.375663 cumulative IPC: 0.405697 (Simulation time: 0 hr 11 min 8 sec) 
Heartbeat CPU 0 instructions: 150000000 cycles: 259997581 heartbeat IPC: 0.412424 cumulative IPC: 0.406359 (Simulation time: 0 hr 12 min 16 sec) 
Heartbeat CPU 0 instructions: 160000002 cycles: 283895379 heartbeat IPC: 0.418449 cumulative IPC: 0.40743 (Simulation time: 0 hr 13 min 15 sec) 
Heartbeat CPU 0 instructions: 170000000 cycles: 307849109 heartbeat IPC: 0.417471 cumulative IPC: 0.408248 (Simulation time: 0 hr 14 min 9 sec) 
Heartbeat CPU 0 instructions: 180000002 cycles: 334643240 heartbeat IPC: 0.373216 cumulative IPC: 0.405321 (Simulation time: 0 hr 15 min 5 sec) 
Heartbeat CPU 0 instructions: 190000001 cycles: 359190132 heartbeat IPC: 0.407384 cumulative IPC: 0.405468 (Simulation time: 0 hr 16 min 2 sec) 
Heartbeat CPU 0 instructions: 200000002 cycles: 382466005 heartbeat IPC: 0.429629 cumulative IPC: 0.406994 (Simulation time: 0 hr 16 min 50 sec) 
*** Reached end of trace for Core: 0 Repeating trace: traces/spec2k17/server_011.champsimtrace.xz
Heartbeat CPU 0 instructions: 210000003 cycles: 406087605 heartbeat IPC: 0.423341 cumulative IPC: 0.407978 (Simulation time: 0 hr 17 min 40 sec) 
Heartbeat CPU 0 instructions: 220000000 cycles: 430453229 heartbeat IPC: 0.410414 cumulative IPC: 0.408121 (Simulation time: 0 hr 18 min 32 sec) 
Heartbeat CPU 0 instructions: 230000002 cycles: 454354169 heartbeat IPC: 0.418394 cumulative IPC: 0.408678 (Simulation time: 0 hr 19 min 22 sec) 
Heartbeat CPU 0 instructions: 240000001 cycles: 481351414 heartbeat IPC: 0.370408 cumulative IPC: 0.406468 (Simulation time: 0 hr 20 min 21 sec) 
Heartbeat CPU 0 instructions: 250000000 cycles: 505164544 heartbeat IPC: 0.419936 cumulative IPC: 0.407121 (Simulation time: 0 hr 21 min 19 sec) 
Finished CPU 0 instructions: 200000000 cycles: 491254512 cumulative IPC: 0.407121 (Simulation time: 0 hr 21 min 19 sec) 

ChampSim completed all CPUs

Region of Interest Statistics

CPU 0 cumulative IPC: 0.407121 instructions: 200000000 cycles: 491254512
ITLB TOTAL     ACCESS:   32107714  HIT:   31346435  MISS:     761279  HIT %:     97.629  MISS %:    2.37102   MPKI: 3.8064
ITLB LOAD TRANSLATION ACCESS:   32107714  HIT:   31346435  MISS:     761279  HIT %:     97.629  MISS %:    2.37102   MPKI: 3.8064
ITLB PREFETCH  REQUESTED:          0  ISSUED:          0  USEFUL:          0  USELESS:          0
ITLB USEFUL LOAD PREFETCHES:          0 PREFETCH ISSUED TO LOWER LEVEL:          0  ACCURACY: -nan
ITLB TIMELY PREFETCHES:          0 LATE PREFETCHES: 0 DROPPED PREFETCHES: 0
ITLB PREFETCHES SAME FILL-ORIGIN LEVEL: 0 DIFFERENT FILL-ORIGIN LEVEL: 0
ITLB AVERAGE MISS LATENCY: 15.5912 cycles
ITLB RQ	ACCESS:   38679214	FORWARD:          0	MERGED:    6386671	TO_CACHE:   32292543

DTLB TOTAL     ACCESS:   38372071  HIT:   35997245  MISS:    2374826  HIT %:    93.8111  MISS %:    6.18894   MPKI: 11.8741
DTLB LOAD TRANSLATION ACCESS:   38372071  HIT:   35997245  MISS:    2374826  HIT %:    93.8111  MISS %:    6.18894   MPKI: 11.8741
DTLB PREFETCH  REQUESTED:          0  ISSUED:          0  USEFUL:          0  USELESS:          0
DTLB USEFUL LOAD PREFETCHES:          0 PREFETCH ISSUED TO LOWER LEVEL:          0  ACCURACY: -nan
DTLB TIMELY PREFETCHES:          0 LATE PREFETCHES: 0 DROPPED PREFETCHES: 0
DTLB PREFETCHES SAME FILL-ORIGIN LEVEL: 0 DIFFERENT FILL-ORIGIN LEVEL: 0
DTLB AVERAGE MISS LATENCY: 14.2039 cycles
DTLB RQ	ACCESS:   48877761	FORWARD:          0	MERGED:   10367941	TO_CACHE:   38509820

STLB TOTAL     ACCESS:    3258867  HIT:    2832917  MISS:     425950  HIT %:    86.9295  MISS %:    13.0705   MPKI: 2.12975
STLB LOAD TRANSLATION ACCESS:    3136105  HIT:    2711195  MISS:     424910  HIT %:     86.451  MISS %:     13.549   MPKI: 2.12455
STLB TRANSLATION FROM L1D PREFETCHER ACCESS:     122762  HIT:     121722  MISS:       1040  HIT %:    99.1528  MISS %:   0.847168   MPKI: 0.0052
STLB PREFETCH  REQUESTED:          0  ISSUED:          0  USEFUL:       1017  USELESS:         23
STLB USEFUL LOAD PREFETCHES:       1017 PREFETCH ISSUED TO LOWER LEVEL:          0  ACCURACY: inf
STLB TIMELY PREFETCHES:       1017 LATE PREFETCHES: 5 DROPPED PREFETCHES: 1226
STLB PREFETCHES SAME FILL-ORIGIN LEVEL: 0 DIFFERENT FILL-ORIGIN LEVEL: 0
STLB AVERAGE MISS LATENCY: 40.6689 cycles
STLB RQ	ACCESS:    3688153	FORWARD:          0	MERGED:     427838	TO_CACHE:    3260315

STLB Hit, L1D data hit: 0
STLB Hit, L2C data hit: 0
STLB Hit, LLC data hit: 0
STLB Hit, LLC data miss: 0
STLB STLB hints to L2: 0
L1D TOTAL     ACCESS:   48623319  HIT:   46110838  MISS:    2512481  HIT %:    94.8328  MISS %:    5.16723   MPKI: 12.5624
L1D LOAD      ACCESS:   29045441  HIT:   26937798  MISS:    2107643  HIT %:    92.7436  MISS %:    7.25636   MPKI: 10.5382
L1D RFO       ACCESS:   19263232  HIT:   18904459  MISS:     358773  HIT %:    98.1375  MISS %:    1.86248   MPKI: 1.79387
L1D PREFETCH  ACCESS:     314646  HIT:     268581  MISS:      46065  HIT %:    85.3597  MISS %:    14.6403   MPKI: 0.230325
L1D PREFETCH  REQUESTED:    1317126  ISSUED:    1299966  USEFUL:      41274  USELESS:       4791
L1D USEFUL LOAD PREFETCHES:      41274 PREFETCH ISSUED TO LOWER LEVEL:     260834  ACCURACY: 15.8239
L1D TIMELY PREFETCHES:      41274 LATE PREFETCHES: 687 DROPPED PREFETCHES: 1715
L1D PREFETCHES SAME FILL-ORIGIN LEVEL: 46752 DIFFERENT FILL-ORIGIN LEVEL: 214082
L1D AVERAGE MISS LATENCY: 45.5109 cycles
L1D RQ	ACCESS:   43701880	FORWARD:          0	MERGED:   14311861	TO_CACHE:   29179674
L1D WQ	ACCESS:   19987410	FORWARD:     210357	MERGED:     289323	TO_CACHE:   19698087
L1D PQ	ACCESS:     747918	FORWARD:          0	MERGED:     195858	TO_CACHE:     552048

L1D UNIQUE REGIONS ACCESSED: 0
L1D REGIONS CONFLICTS: 0
L1D Cross Page Prefetch Requests: 100137
L1D Same Page Prefetch Requests: 838019
L1D ROI Sum of L1D PQ occupancy: 8187433
L1D PREFETCHES PUSHED FROM L2C: 0
L1I TOTAL     ACCESS:   37141762  HIT:   32273498  MISS:    4868264  HIT %:    86.8927  MISS %:    13.1073   MPKI: 24.3413
L1I LOAD      ACCESS:   37141762  HIT:   32273498  MISS:    4868264  HIT %:    86.8927  MISS %:    13.1073   MPKI: 24.3413
L1I PREFETCH  REQUESTED:          0  ISSUED:          0  USEFUL:          0  USELESS:          0
L1I USEFUL LOAD PREFETCHES:          0 PREFETCH ISSUED TO LOWER LEVEL:          0  ACCURACY: -nan
L1I TIMELY PREFETCHES:          0 LATE PREFETCHES: 0 DROPPED PREFETCHES: 0
L1I PREFETCHES SAME FILL-ORIGIN LEVEL: 0 DIFFERENT FILL-ORIGIN LEVEL: 0
L1I AVERAGE MISS LATENCY: 29.0613 cycles
L1I RQ	ACCESS:   57586078	FORWARD:          0	MERGED:   18906864	TO_CACHE:   38679214

BTB TOTAL     ACCESS:   23884119  HIT:   18824312  MISS:    5059807  HIT %:    78.8152  MISS %:    21.1848   MPKI: 25.299
BTB BRANCH_DIRECT_JUMP	ACCESS:    1754249  HIT:    1463659  MISS:     290590
BTB BRANCH_INDIRECT	ACCESS:    9786566  HIT:    7419553  MISS:    2367013
BTB BRANCH_CONDITIONAL	ACCESS:    5653971  HIT:    5194175  MISS:     459796
BTB BRANCH_DIRECT_CALL	ACCESS:    2532331  HIT:    1980726  MISS:     551605
BTB BRANCH_INDIRECT_CALL	ACCESS:     808488  HIT:     692902  MISS:     115586
BTB BRANCH_RETURN	ACCESS:    3348514  HIT:    2073297  MISS:    1275217
BTB BRANCH_OTHER ACCESS:          0  HIT:          0  MISS:          0

L2C TOTAL     ACCESS:    9111123  HIT:    5436273  MISS:    3674850  HIT %:    59.6663  MISS %:    40.3337   MPKI: 18.3742
L2C LOAD      ACCESS:    6975146  HIT:    3800464  MISS:    3174682  HIT %:    54.4858  MISS %:    45.5142   MPKI: 15.8734
L2C DATA LOAD MPKI: 5.13091
L2C INSTRUCTION LOAD MPKI: 10.7425
L2C RFO       ACCESS:     358773  HIT:     178692  MISS:     180081  HIT %:    49.8064  MISS %:    50.1936   MPKI: 0.900405
L2C PREFETCH  ACCESS:     244058  HIT:     177136  MISS:      66922  HIT %:    72.5795  MISS %:    27.4205   MPKI: 0.33461
L2C DATA PREFETCH MPKI: 0.33461
L2C INSTRUCTION PREFETCH MPKI: 0
L2C WRITEBACK ACCESS:     991585  HIT:     938590  MISS:      52995  HIT %:    94.6555  MISS %:    5.34447   MPKI: 0.264975
L2C LOAD TRANSLATION ACCESS:     539096  HIT:     339091  MISS:     200005  HIT %:    62.8999  MISS %:    37.1001   MPKI: 1.00002
L2C TRANSLATION FROM L1D PREFETCHER ACCESS:       2465  HIT:       2300  MISS:        165  HIT %:    93.3063  MISS %:    6.69371   MPKI: 0.000825
L2C PREFETCH  REQUESTED:          0  ISSUED:          0  USEFUL:      16837  USELESS:      50330
L2C USEFUL LOAD PREFETCHES:      16837 PREFETCH ISSUED TO LOWER LEVEL:      67983  ACCURACY: 24.7665
L2C TIMELY PREFETCHES:      16837 LATE PREFETCHES: 1061 DROPPED PREFETCHES: 0
L2C PREFETCHES SAME FILL-ORIGIN LEVEL: 58399 DIFFERENT FILL-ORIGIN LEVEL: 0
L2C AVERAGE MISS LATENCY: 43.4582 cycles
L2C RQ	ACCESS:    7875554	FORWARD:          0	MERGED:          0	TO_CACHE:    7875480
L2C WQ	ACCESS:     991585	FORWARD:         75	MERGED:          0	TO_CACHE:     991585
L2C PQ	ACCESS:     260834	FORWARD:          0	MERGED:        324	TO_CACHE:     260509

L2C Instructions Evicting Data 769143
L2C Translations Evicting Data 76127
L2C Data Evicting Data 461304
L2C Instructions Evicting Instructions 1266307
L2C Translations Evicting Instructions 113983
L2C Data Evicting Instructions 737568
L2C Instructions Evicting Translations 113051
L2C Translations Evicting Translations 10060
L2C Data Evicting Translations 74312
L2C Dense regions hint from L2: 0
PSCL5 TOTAL     ACCESS:     427176  HIT:     427176  MISS:          0  HIT %:        100  MISS %:          0   MPKI: 0
PSCL5 LOAD TRANSLATION ACCESS:     424905  HIT:     424905  MISS:          0  HIT %:        100  MISS %:          0   MPKI: 0
PSCL5 TRANSLATION FROM L1D PREFETCHER ACCESS:       2271  HIT:       2271  MISS:          0  HIT %:        100  MISS %:          0   MPKI: 0
PSCL5 PREFETCH  REQUESTED:          0  ISSUED:          0  USEFUL:          0  USELESS:          0
PSCL5 USEFUL LOAD PREFETCHES:          0 PREFETCH ISSUED TO LOWER LEVEL:          0  ACCURACY: -nan
PSCL5 TIMELY PREFETCHES:          0 LATE PREFETCHES: 0 DROPPED PREFETCHES: 0
PSCL5 PREFETCHES SAME FILL-ORIGIN LEVEL: 0 DIFFERENT FILL-ORIGIN LEVEL: 0

PSCL4 TOTAL     ACCESS:     409449  HIT:     408122  MISS:       1327  HIT %:    99.6759  MISS %:   0.324094   MPKI: 0.006635
PSCL4 LOAD TRANSLATION ACCESS:     407225  HIT:     405898  MISS:       1327  HIT %:    99.6741  MISS %:   0.325864   MPKI: 0.006635
PSCL4 TRANSLATION FROM L1D PREFETCHER ACCESS:       2224  HIT:       2224  MISS:          0  HIT %:        100  MISS %:          0   MPKI: 0
PSCL4 PREFETCH  REQUESTED:          0  ISSUED:          0  USEFUL:          0  USELESS:          0
PSCL4 USEFUL LOAD PREFETCHES:          0 PREFETCH ISSUED TO LOWER LEVEL:          0  ACCURACY: -nan
PSCL4 TIMELY PREFETCHES:          0 LATE PREFETCHES: 0 DROPPED PREFETCHES: 0
PSCL4 PREFETCHES SAME FILL-ORIGIN LEVEL: 0 DIFFERENT FILL-ORIGIN LEVEL: 0

PSCL3 TOTAL     ACCESS:     423794  HIT:     420317  MISS:       3477  HIT %:    99.1796  MISS %:   0.820446   MPKI: 0.017385
PSCL3 LOAD TRANSLATION ACCESS:     421523  HIT:     418046  MISS:       3477  HIT %:    99.1751  MISS %:   0.824866   MPKI: 0.017385
PSCL3 TRANSLATION FROM L1D PREFETCHER ACCESS:       2271  HIT:       2271  MISS:          0  HIT %:        100  MISS %:          0   MPKI: 0
PSCL3 PREFETCH  REQUESTED:          0  ISSUED:          0  USEFUL:          0  USELESS:          0
PSCL3 USEFUL LOAD PREFETCHES:          0 PREFETCH ISSUED TO LOWER LEVEL:          0  ACCURACY: -nan
PSCL3 TIMELY PREFETCHES:          0 LATE PREFETCHES: 0 DROPPED PREFETCHES: 0
PSCL3 PREFETCHES SAME FILL-ORIGIN LEVEL: 0 DIFFERENT FILL-ORIGIN LEVEL: 0

PSCL2 TOTAL     ACCESS:     427037  HIT:     317561  MISS:     109476  HIT %:    74.3638  MISS %:    25.6362   MPKI: 0.54738
PSCL2 LOAD TRANSLATION ACCESS:     424960  HIT:     315484  MISS:     109476  HIT %:    74.2385  MISS %:    25.7615   MPKI: 0.54738
PSCL2 TRANSLATION FROM L1D PREFETCHER ACCESS:       2077  HIT:       2077  MISS:          0  HIT %:        100  MISS %:          0   MPKI: 0
PSCL2 PREFETCH  REQUESTED:          0  ISSUED:          0  USEFUL:          0  USELESS:          0
PSCL2 USEFUL LOAD PREFETCHES:          0 PREFETCH ISSUED TO LOWER LEVEL:          0  ACCURACY: -nan
PSCL2 TIMELY PREFETCHES:          0 LATE PREFETCHES: 0 DROPPED PREFETCHES: 0
PSCL2 PREFETCHES SAME FILL-ORIGIN LEVEL: 0 DIFFERENT FILL-ORIGIN LEVEL: 0

LLC TOTAL     ACCESS:    4089283  HIT:    3755836  MISS:     333447  HIT %:    91.8458  MISS %:    8.15417   MPKI: 1.66724
LLC LOAD      ACCESS:    3173621  HIT:    2923304  MISS:     250317  HIT %:    92.1126  MISS %:    7.88743   MPKI: 1.25158
LLC RFO       ACCESS:     180079  HIT:     118038  MISS:      62041  HIT %:    65.5479  MISS %:    34.4521   MPKI: 0.310205
LLC PREFETCH  ACCESS:      67983  HIT:      58515  MISS:       9468  HIT %:     86.073  MISS %:     13.927   MPKI: 0.04734
LLC WRITEBACK ACCESS:     467430  HIT:     462138  MISS:       5292  HIT %:    98.8679  MISS %:    1.13215   MPKI: 0.02646
LLC LOAD TRANSLATION ACCESS:     200005  HIT:     193723  MISS:       6282  HIT %:    96.8591  MISS %:    3.14092   MPKI: 0.03141
LLC TRANSLATION FROM L1D PREFETCHER ACCESS:        165  HIT:        118  MISS:         47  HIT %:    71.5152  MISS %:    28.4848   MPKI: 0.000235
LLC PREFETCH  REQUESTED:          0  ISSUED:          0  USEFUL:        842  USELESS:       8645
LLC USEFUL LOAD PREFETCHES:        842 PREFETCH ISSUED TO LOWER LEVEL:       9468  ACCURACY: 8.89311
LLC TIMELY PREFETCHES:        842 LATE PREFETCHES: 0 DROPPED PREFETCHES: 0
LLC PREFETCHES SAME FILL-ORIGIN LEVEL: 0 DIFFERENT FILL-ORIGIN LEVEL: 0
LLC AVERAGE MISS LATENCY: 153.098 cycles
LLC RQ	ACCESS:    3553872	FORWARD:          0	MERGED:          0	TO_CACHE:    3553870
LLC WQ	ACCESS:     467430	FORWARD:          2	MERGED:          0	TO_CACHE:     467430
LLC PQ	ACCESS:      67983	FORWARD:          0	MERGED:          0	TO_CACHE:      67983

LLC Dense regions hint to LLC: 0

RAW hits: 2669283
Loads Generated: 46371163
Loads sent to L1D: 43701880
Stores Generated: 19987388
Stores sent to L1D: 19987410
Major fault: 0 Minor fault: 7361
Allocated PAGES: 7361

DRAM Statistics
 CHANNEL 0
 RQ ROW_BUFFER_HIT:      61220  ROW_BUFFER_MISS:     266934
 DBUS_CONGESTED:        143
 WQ ROW_BUFFER_HIT:      34335  ROW_BUFFER_MISS:     185090  FULL:          0

 AVG_CONGESTED_CYCLE: 4
 All warmup complete: 2
Channel 0 Bank busy for read cycles: 0
Channel 0 Bank busy for write cycles: 0
Channel 0
Rank 0
0banks busy for read cycles: 429959781
0banks busy for write cycles: 125786
1banks busy for read cycles: 30704943
1banks busy for write cycles: 18161893
2banks busy for read cycles: 3942804
2banks busy for write cycles: 4261640
3banks busy for read cycles: 538583
3banks busy for write cycles: 1432259
4banks busy for read cycles: 252684
4banks busy for write cycles: 615855
5banks busy for read cycles: 109394
5banks busy for write cycles: 312858
6banks busy for read cycles: 70128
6banks busy for write cycles: 203270
7banks busy for read cycles: 41406
7banks busy for write cycles: 178209
8banks busy for read cycles: 80126
8banks busy for write cycles: 262894

CPU 0 Branch Prediction Accuracy: 98.8611% MPKI: 2.07212 Average ROB Occupancy at Mispredict: 13.5897
Branch types
NOT_BRANCH: 163610883 81.8054%
BRANCH_DIRECT_JUMP: 1754249 0.877124%
BRANCH_INDIRECT: 9786566 4.89328%
BRANCH_CONDITIONAL: 18158639 9.07932%
BRANCH_DIRECT_CALL: 2532331 1.26617%
BRANCH_INDIRECT_CALL: 808488 0.404244%
BRANCH_RETURN: 3348514 1.67426%
BRANCH_OTHER: 0 0%

DRAM PAGES: 1048576
Allocated PAGES: 7361
