
*** ChampSim Multicore Out-of-Order Simulator ***

Warmup Instructions: 50000000
Simulation Instructions: 200000000
Number of CPUs: 1
LLC sets: 2048
LLC ways: 16
Off-chip DRAM Size: 4096 MB Channels: 1 Width: 64-bit Data Rate: 6400 MT/s
CPU 0 runs traces/spec2k17/server_018.champsimtrace.xz
.xz
BTB has LRU replacement policy
ITLB has LRU replacement policy
DTLB has LRU replacement policy
STLB has LRU replacement policy
L1I has LRU replacement policy
History Sets: 8
History Ways: 16
BERTI Size: 16
BERTI Stride Size: 16
L1D has LRU replacement policy
Initialize SRRIP state for L2C
Initialize DRRIP state for LLC
Heartbeat CPU 0 instructions: 10000001 cycles: 2938192 heartbeat IPC: 3.40345 cumulative IPC: 3.40345 (Simulation time: 0 hr 0 min 42 sec) 
Heartbeat CPU 0 instructions: 20000000 cycles: 5874941 heartbeat IPC: 3.40513 cumulative IPC: 3.40429 (Simulation time: 0 hr 1 min 27 sec) 
Heartbeat CPU 0 instructions: 30000000 cycles: 8793251 heartbeat IPC: 3.42664 cumulative IPC: 3.41171 (Simulation time: 0 hr 2 min 12 sec) 
Heartbeat CPU 0 instructions: 40000001 cycles: 11655215 heartbeat IPC: 3.4941 cumulative IPC: 3.43194 (Simulation time: 0 hr 2 min 51 sec) 
Heartbeat CPU 0 instructions: 50000001 cycles: 14589217 heartbeat IPC: 3.40831 cumulative IPC: 3.42719 (Simulation time: 0 hr 3 min 36 sec) 

Warmup complete CPU 0 instructions: 50000001 cycles: 14589217 (Simulation time: 0 hr 3 min 36 sec) 

Heartbeat CPU 0 instructions: 60000001 cycles: 35628983 heartbeat IPC: 0.47529 cumulative IPC: 0.47529 (Simulation time: 0 hr 4 min 40 sec) 
Heartbeat CPU 0 instructions: 70000000 cycles: 56370909 heartbeat IPC: 0.482115 cumulative IPC: 0.478679 (Simulation time: 0 hr 5 min 54 sec) 
Heartbeat CPU 0 instructions: 80000002 cycles: 77194242 heartbeat IPC: 0.480231 cumulative IPC: 0.479195 (Simulation time: 0 hr 6 min 55 sec) 
Heartbeat CPU 0 instructions: 90000000 cycles: 98143383 heartbeat IPC: 0.477346 cumulative IPC: 0.478731 (Simulation time: 0 hr 8 min 9 sec) 
Heartbeat CPU 0 instructions: 100000001 cycles: 118787562 heartbeat IPC: 0.484398 cumulative IPC: 0.479854 (Simulation time: 0 hr 9 min 13 sec) 
*** Reached end of trace for Core: 0 Repeating trace: traces/spec2k17/server_018.champsimtrace.xz
Heartbeat CPU 0 instructions: 110000000 cycles: 138449083 heartbeat IPC: 0.508608 cumulative IPC: 0.484418 (Simulation time: 0 hr 10 min 25 sec) 
Heartbeat CPU 0 instructions: 120000000 cycles: 158071421 heartbeat IPC: 0.509623 cumulative IPC: 0.487865 (Simulation time: 0 hr 11 min 28 sec) 
Heartbeat CPU 0 instructions: 130000000 cycles: 177626001 heartbeat IPC: 0.511389 cumulative IPC: 0.490687 (Simulation time: 0 hr 12 min 35 sec) 
Heartbeat CPU 0 instructions: 140000003 cycles: 203975324 heartbeat IPC: 0.379517 cumulative IPC: 0.47522 (Simulation time: 0 hr 13 min 39 sec) 
Heartbeat CPU 0 instructions: 150000001 cycles: 228887632 heartbeat IPC: 0.401408 cumulative IPC: 0.466639 (Simulation time: 0 hr 14 min 52 sec) 
Heartbeat CPU 0 instructions: 160000001 cycles: 250354152 heartbeat IPC: 0.465842 cumulative IPC: 0.466566 (Simulation time: 0 hr 15 min 47 sec) 
Heartbeat CPU 0 instructions: 170000000 cycles: 271143338 heartbeat IPC: 0.481019 cumulative IPC: 0.467738 (Simulation time: 0 hr 16 min 57 sec) 
Heartbeat CPU 0 instructions: 180000000 cycles: 291391177 heartbeat IPC: 0.49388 cumulative IPC: 0.46965 (Simulation time: 0 hr 18 min 6 sec) 
Heartbeat CPU 0 instructions: 190000001 cycles: 311641855 heartbeat IPC: 0.493811 cumulative IPC: 0.471297 (Simulation time: 0 hr 19 min 15 sec) 
Heartbeat CPU 0 instructions: 200000001 cycles: 331681109 heartbeat IPC: 0.499021 cumulative IPC: 0.473049 (Simulation time: 0 hr 20 min 29 sec) 
Heartbeat CPU 0 instructions: 210000001 cycles: 351540212 heartbeat IPC: 0.503547 cumulative IPC: 0.474847 (Simulation time: 0 hr 21 min 37 sec) 
*** Reached end of trace for Core: 0 Repeating trace: traces/spec2k17/server_018.champsimtrace.xz
Heartbeat CPU 0 instructions: 220000000 cycles: 371309926 heartbeat IPC: 0.505824 cumulative IPC: 0.476563 (Simulation time: 0 hr 22 min 48 sec) 
Heartbeat CPU 0 instructions: 230000003 cycles: 391009019 heartbeat IPC: 0.507638 cumulative IPC: 0.47819 (Simulation time: 0 hr 23 min 50 sec) 
Heartbeat CPU 0 instructions: 240000000 cycles: 410732828 heartbeat IPC: 0.507001 cumulative IPC: 0.479624 (Simulation time: 0 hr 25 min 4 sec) 
Heartbeat CPU 0 instructions: 250000002 cycles: 440239169 heartbeat IPC: 0.33891 cumulative IPC: 0.46987 (Simulation time: 0 hr 26 min 6 sec) 
Finished CPU 0 instructions: 200000001 cycles: 425649952 cumulative IPC: 0.46987 (Simulation time: 0 hr 26 min 6 sec) 

ChampSim completed all CPUs

Region of Interest Statistics

CPU 0 cumulative IPC: 0.46987 instructions: 200000001 cycles: 425649952
ITLB TOTAL     ACCESS:   33533361  HIT:   32117327  MISS:    1416034  HIT %:    95.7772  MISS %:    4.22276   MPKI: 7.08017
ITLB LOAD TRANSLATION ACCESS:   33533361  HIT:   32117327  MISS:    1416034  HIT %:    95.7772  MISS %:    4.22276   MPKI: 7.08017
ITLB PREFETCH  REQUESTED:          0  ISSUED:          0  USEFUL:          0  USELESS:          0
ITLB USEFUL LOAD PREFETCHES:          0 PREFETCH ISSUED TO LOWER LEVEL:          0  ACCURACY: -nan
ITLB TIMELY PREFETCHES:          0 LATE PREFETCHES: 0 DROPPED PREFETCHES: 0
ITLB PREFETCHES SAME FILL-ORIGIN LEVEL: 0 DIFFERENT FILL-ORIGIN LEVEL: 0
ITLB AVERAGE MISS LATENCY: 9.41291 cycles
ITLB RQ	ACCESS:   40203229	FORWARD:          0	MERGED:    6213797	TO_CACHE:   33989432

DTLB TOTAL     ACCESS:   39036460  HIT:   37429703  MISS:    1606757  HIT %:     95.884  MISS %:    4.11604   MPKI: 8.03378
DTLB LOAD TRANSLATION ACCESS:   39036460  HIT:   37429703  MISS:    1606757  HIT %:     95.884  MISS %:    4.11604   MPKI: 8.03378
DTLB PREFETCH  REQUESTED:          0  ISSUED:          0  USEFUL:          0  USELESS:          0
DTLB USEFUL LOAD PREFETCHES:          0 PREFETCH ISSUED TO LOWER LEVEL:          0  ACCURACY: -nan
DTLB TIMELY PREFETCHES:          0 LATE PREFETCHES: 0 DROPPED PREFETCHES: 0
DTLB PREFETCHES SAME FILL-ORIGIN LEVEL: 0 DIFFERENT FILL-ORIGIN LEVEL: 0
DTLB AVERAGE MISS LATENCY: 17.5205 cycles
DTLB RQ	ACCESS:   58777620	FORWARD:          0	MERGED:   19372084	TO_CACHE:   39405536

STLB TOTAL     ACCESS:    4355195  HIT:    4207023  MISS:     148172  HIT %:    96.5978  MISS %:    3.40219   MPKI: 0.74086
STLB LOAD TRANSLATION ACCESS:    3022791  HIT:    2885568  MISS:     137223  HIT %:    95.4604  MISS %:    4.53961   MPKI: 0.686115
STLB TRANSLATION FROM L1D PREFETCHER ACCESS:    1332404  HIT:    1321455  MISS:      10949  HIT %:    99.1783  MISS %:   0.821748   MPKI: 0.054745
STLB PREFETCH  REQUESTED:          0  ISSUED:          0  USEFUL:      10559  USELESS:        386
STLB USEFUL LOAD PREFETCHES:      10559 PREFETCH ISSUED TO LOWER LEVEL:          0  ACCURACY: inf
STLB TIMELY PREFETCHES:      10559 LATE PREFETCHES: 334 DROPPED PREFETCHES: 11696
STLB PREFETCHES SAME FILL-ORIGIN LEVEL: 0 DIFFERENT FILL-ORIGIN LEVEL: 0
STLB AVERAGE MISS LATENCY: 100.379 cycles
STLB RQ	ACCESS:   11178960	FORWARD:          0	MERGED:    6792591	TO_CACHE:    4386369

STLB Hit, L1D data hit: 0
STLB Hit, L2C data hit: 0
STLB Hit, LLC data hit: 0
STLB Hit, LLC data miss: 0
STLB STLB hints to L2: 0
L1D TOTAL     ACCESS:   51436907  HIT:   44753316  MISS:    6683591  HIT %:    87.0062  MISS %:    12.9938   MPKI: 33.418
L1D LOAD      ACCESS:   26146067  HIT:   23519178  MISS:    2626889  HIT %:     89.953  MISS %:     10.047   MPKI: 13.1344
L1D RFO       ACCESS:   21037457  HIT:   17628790  MISS:    3408667  HIT %:    83.7972  MISS %:    16.2028   MPKI: 17.0433
L1D PREFETCH  ACCESS:    4253383  HIT:    3605348  MISS:     648035  HIT %:    84.7642  MISS %:    15.2358   MPKI: 3.24017
L1D PREFETCH  REQUESTED:   20660712  ISSUED:   20259237  USEFUL:     578465  USELESS:      69596
L1D USEFUL LOAD PREFETCHES:     578465 PREFETCH ISSUED TO LOWER LEVEL:    3350843  ACCURACY: 17.2633
L1D TIMELY PREFETCHES:     578465 LATE PREFETCHES: 183069 DROPPED PREFETCHES: 39424
L1D PREFETCHES SAME FILL-ORIGIN LEVEL: 831105 DIFFERENT FILL-ORIGIN LEVEL: 2519738
L1D AVERAGE MISS LATENCY: 164.313 cycles
L1D RQ	ACCESS:   44269431	FORWARD:          0	MERGED:   17481699	TO_CACHE:   26523976
L1D WQ	ACCESS:   32470506	FORWARD:     263757	MERGED:     216862	TO_CACHE:   32253644
L1D PQ	ACCESS:   12103068	FORWARD:          0	MERGED:    3946898	TO_CACHE:    8156169

L1D UNIQUE REGIONS ACCESSED: 0
L1D REGIONS CONFLICTS: 0
L1D Cross Page Prefetch Requests: 1404893
L1D Same Page Prefetch Requests: 13607973
L1D ROI Sum of L1D PQ occupancy: 169178817
L1D PREFETCHES PUSHED FROM L2C: 0
L1I TOTAL     ACCESS:   37725139  HIT:   29267186  MISS:    8457953  HIT %:    77.5801  MISS %:    22.4199   MPKI: 42.2898
L1I LOAD      ACCESS:   37725139  HIT:   29267186  MISS:    8457953  HIT %:    77.5801  MISS %:    22.4199   MPKI: 42.2898
L1I PREFETCH  REQUESTED:          0  ISSUED:          0  USEFUL:          0  USELESS:          0
L1I USEFUL LOAD PREFETCHES:          0 PREFETCH ISSUED TO LOWER LEVEL:          0  ACCURACY: -nan
L1I TIMELY PREFETCHES:          0 LATE PREFETCHES: 0 DROPPED PREFETCHES: 0
L1I PREFETCHES SAME FILL-ORIGIN LEVEL: 0 DIFFERENT FILL-ORIGIN LEVEL: 0
L1I AVERAGE MISS LATENCY: 17.2308 cycles
L1I RQ	ACCESS:   58261668	FORWARD:          0	MERGED:   18058439	TO_CACHE:   40203229

BTB TOTAL     ACCESS:   25716647  HIT:   24056122  MISS:    1660525  HIT %:     93.543  MISS %:      6.457   MPKI: 8.30262
BTB BRANCH_DIRECT_JUMP	ACCESS:    1725252  HIT:    1715409  MISS:       9843
BTB BRANCH_INDIRECT	ACCESS:    9825525  HIT:    9169775  MISS:     655750
BTB BRANCH_CONDITIONAL	ACCESS:    7516536  HIT:    7503101  MISS:      13435
BTB BRANCH_DIRECT_CALL	ACCESS:    2628850  HIT:    2596394  MISS:      32456
BTB BRANCH_INDIRECT_CALL	ACCESS:     695837  HIT:     593013  MISS:     102824
BTB BRANCH_RETURN	ACCESS:    3324647  HIT:    2478430  MISS:     846217
BTB BRANCH_OTHER ACCESS:          0  HIT:          0  MISS:          0

L2C TOTAL     ACCESS:   20708739  HIT:   14012596  MISS:    6696143  HIT %:    67.6651  MISS %:    32.3349   MPKI: 33.4807
L2C LOAD      ACCESS:   10901601  HIT:    8726975  MISS:    2174626  HIT %:    80.0522  MISS %:    19.9478   MPKI: 10.8731
L2C DATA LOAD MPKI: 8.12826
L2C INSTRUCTION LOAD MPKI: 2.74486
L2C RFO       ACCESS:    3408650  HIT:     134819  MISS:    3273831  HIT %:     3.9552  MISS %:    96.0448   MPKI: 16.3692
L2C PREFETCH  ACCESS:    1991737  HIT:    1016516  MISS:     975221  HIT %:    51.0367  MISS %:    48.9633   MPKI: 4.8761
L2C DATA PREFETCH MPKI: 4.8761
L2C INSTRUCTION PREFETCH MPKI: 0
L2C WRITEBACK ACCESS:    4216196  HIT:    4042806  MISS:     173390  HIT %:    95.8875  MISS %:    4.11247   MPKI: 0.86695
L2C LOAD TRANSLATION ACCESS:     164194  HIT:      70554  MISS:      93640  HIT %:    42.9699  MISS %:    57.0301   MPKI: 0.4682
L2C TRANSLATION FROM L1D PREFETCHER ACCESS:      26361  HIT:      20926  MISS:       5435  HIT %:    79.3824  MISS %:    20.6176   MPKI: 0.027175
L2C PREFETCH  REQUESTED:          0  ISSUED:          0  USEFUL:     214808  USELESS:     766061
L2C USEFUL LOAD PREFETCHES:     214808 PREFETCH ISSUED TO LOWER LEVEL:    1065308  ACCURACY: 20.1639
L2C TIMELY PREFETCHES:     214808 LATE PREFETCHES: 90087 DROPPED PREFETCHES: 0
L2C PREFETCHES SAME FILL-ORIGIN LEVEL: 815744 DIFFERENT FILL-ORIGIN LEVEL: 0
L2C AVERAGE MISS LATENCY: 187.103 cycles
L2C RQ	ACCESS:   14500996	FORWARD:          0	MERGED:          0	TO_CACHE:   14500807
L2C WQ	ACCESS:    4216196	FORWARD:        189	MERGED:          0	TO_CACHE:    4216196
L2C PQ	ACCESS:    3348252	FORWARD:          0	MERGED:      28607	TO_CACHE:    3319645

L2C Instructions Evicting Data 495346
L2C Translations Evicting Data 89688
L2C Data Evicting Data 5305390
L2C Instructions Evicting Instructions 45588
L2C Translations Evicting Instructions 7837
L2C Data Evicting Instructions 481493
L2C Instructions Evicting Translations 8039
L2C Translations Evicting Translations 1550
L2C Data Evicting Translations 87822
L2C Dense regions hint from L2: 0
PSCL5 TOTAL     ACCESS:     159835  HIT:     159835  MISS:          0  HIT %:        100  MISS %:          0   MPKI: 0
PSCL5 LOAD TRANSLATION ACCESS:     136890  HIT:     136890  MISS:          0  HIT %:        100  MISS %:          0   MPKI: 0
PSCL5 TRANSLATION FROM L1D PREFETCHER ACCESS:      22945  HIT:      22945  MISS:          0  HIT %:        100  MISS %:          0   MPKI: 0
PSCL5 PREFETCH  REQUESTED:          0  ISSUED:          0  USEFUL:          0  USELESS:          0
PSCL5 USEFUL LOAD PREFETCHES:          0 PREFETCH ISSUED TO LOWER LEVEL:          0  ACCURACY: -nan
PSCL5 TIMELY PREFETCHES:          0 LATE PREFETCHES: 0 DROPPED PREFETCHES: 0
PSCL5 PREFETCHES SAME FILL-ORIGIN LEVEL: 0 DIFFERENT FILL-ORIGIN LEVEL: 0

PSCL4 TOTAL     ACCESS:     152604  HIT:     152216  MISS:        388  HIT %:    99.7457  MISS %:   0.254253   MPKI: 0.00194
PSCL4 LOAD TRANSLATION ACCESS:     131593  HIT:     131205  MISS:        388  HIT %:    99.7052  MISS %:   0.294849   MPKI: 0.00194
PSCL4 TRANSLATION FROM L1D PREFETCHER ACCESS:      21011  HIT:      21011  MISS:          0  HIT %:        100  MISS %:          0   MPKI: 0
PSCL4 PREFETCH  REQUESTED:          0  ISSUED:          0  USEFUL:          0  USELESS:          0
PSCL4 USEFUL LOAD PREFETCHES:          0 PREFETCH ISSUED TO LOWER LEVEL:          0  ACCURACY: -nan
PSCL4 TIMELY PREFETCHES:          0 LATE PREFETCHES: 0 DROPPED PREFETCHES: 0
PSCL4 PREFETCHES SAME FILL-ORIGIN LEVEL: 0 DIFFERENT FILL-ORIGIN LEVEL: 0

PSCL3 TOTAL     ACCESS:     159509  HIT:     159105  MISS:        404  HIT %:    99.7467  MISS %:   0.253277   MPKI: 0.00202
PSCL3 LOAD TRANSLATION ACCESS:     136778  HIT:     136374  MISS:        404  HIT %:    99.7046  MISS %:   0.295369   MPKI: 0.00202
PSCL3 TRANSLATION FROM L1D PREFETCHER ACCESS:      22731  HIT:      22731  MISS:          0  HIT %:        100  MISS %:          0   MPKI: 0
PSCL3 PREFETCH  REQUESTED:          0  ISSUED:          0  USEFUL:          0  USELESS:          0
PSCL3 USEFUL LOAD PREFETCHES:          0 PREFETCH ISSUED TO LOWER LEVEL:          0  ACCURACY: -nan
PSCL3 TIMELY PREFETCHES:          0 LATE PREFETCHES: 0 DROPPED PREFETCHES: 0
PSCL3 PREFETCHES SAME FILL-ORIGIN LEVEL: 0 DIFFERENT FILL-ORIGIN LEVEL: 0

PSCL2 TOTAL     ACCESS:     157279  HIT:     130034  MISS:      27245  HIT %:    82.6773  MISS %:    17.3227   MPKI: 0.136225
PSCL2 LOAD TRANSLATION ACCESS:     137579  HIT:     110334  MISS:      27245  HIT %:    80.1968  MISS %:    19.8032   MPKI: 0.136225
PSCL2 TRANSLATION FROM L1D PREFETCHER ACCESS:      19700  HIT:      19700  MISS:          0  HIT %:        100  MISS %:          0   MPKI: 0
PSCL2 PREFETCH  REQUESTED:          0  ISSUED:          0  USEFUL:          0  USELESS:          0
PSCL2 USEFUL LOAD PREFETCHES:          0 PREFETCH ISSUED TO LOWER LEVEL:          0  ACCURACY: -nan
PSCL2 TIMELY PREFETCHES:          0 LATE PREFETCHES: 0 DROPPED PREFETCHES: 0
PSCL2 PREFETCHES SAME FILL-ORIGIN LEVEL: 0 DIFFERENT FILL-ORIGIN LEVEL: 0

LLC TOTAL     ACCESS:   10461302  HIT:    4385628  MISS:    6075674  HIT %:    41.9224  MISS %:    58.0776   MPKI: 30.3784
LLC LOAD      ACCESS:    2084545  HIT:    1423192  MISS:     661353  HIT %:    68.2735  MISS %:    31.7265   MPKI: 3.30676
LLC RFO       ACCESS:    3273804  HIT:     806204  MISS:    2467600  HIT %:    24.6259  MISS %:    75.3741   MPKI: 12.338
LLC PREFETCH  ACCESS:    1065308  HIT:      40958  MISS:    1024350  HIT %:    3.84471  MISS %:    96.1553   MPKI: 5.12175
LLC WRITEBACK ACCESS:    3938570  HIT:    2054272  MISS:    1884298  HIT %:    52.1578  MISS %:    47.8422   MPKI: 9.42149
LLC LOAD TRANSLATION ACCESS:      93640  HIT:      59333  MISS:      34307  HIT %:    63.3629  MISS %:    36.6371   MPKI: 0.171535
LLC TRANSLATION FROM L1D PREFETCHER ACCESS:       5435  HIT:       1669  MISS:       3766  HIT %:    30.7084  MISS %:    69.2916   MPKI: 0.01883
LLC PREFETCH  REQUESTED:          0  ISSUED:          0  USEFUL:       5805  USELESS:    1027250
LLC USEFUL LOAD PREFETCHES:       5805 PREFETCH ISSUED TO LOWER LEVEL:    1024350  ACCURACY: 0.566701
LLC TIMELY PREFETCHES:       5805 LATE PREFETCHES: 0 DROPPED PREFETCHES: 0
LLC PREFETCHES SAME FILL-ORIGIN LEVEL: 0 DIFFERENT FILL-ORIGIN LEVEL: 0
LLC AVERAGE MISS LATENCY: 175.856 cycles
LLC RQ	ACCESS:    5457445	FORWARD:          0	MERGED:          0	TO_CACHE:    5457424
LLC WQ	ACCESS:    3938570	FORWARD:         21	MERGED:          0	TO_CACHE:    3938570
LLC PQ	ACCESS:    1065308	FORWARD:          0	MERGED:          0	TO_CACHE:    1065308

LLC Dense regions hint to LLC: 0

RAW hits: 2580975
Loads Generated: 46850406
Loads sent to L1D: 44269431
Stores Generated: 32470488
Stores sent to L1D: 32470506
Major fault: 0 Minor fault: 22612
Allocated PAGES: 22612

DRAM Statistics
 CHANNEL 0
 RQ ROW_BUFFER_HIT:    2080982  ROW_BUFFER_MISS:    2109910
 DBUS_CONGESTED:       1976
 WQ ROW_BUFFER_HIT:     603329  ROW_BUFFER_MISS:    2145463  FULL:      54229

 AVG_CONGESTED_CYCLE: 3
 All warmup complete: 2
Channel 0 Bank busy for read cycles: 0
Channel 0 Bank busy for write cycles: 0
Channel 0
Rank 0
0banks busy for read cycles: 169795917
0banks busy for write cycles: 259007
1banks busy for read cycles: 64382444
1banks busy for write cycles: 38851698
2banks busy for read cycles: 19630674
2banks busy for write cycles: 17854762
3banks busy for read cycles: 13334124
3banks busy for write cycles: 9084279
4banks busy for read cycles: 4031725
4banks busy for write cycles: 5306828
5banks busy for read cycles: 3504267
5banks busy for write cycles: 3648113
6banks busy for read cycles: 4498088
6banks busy for write cycles: 3077930
7banks busy for read cycles: 6559102
7banks busy for write cycles: 5205499
8banks busy for read cycles: 22773036
8banks busy for write cycles: 33852460

CPU 0 Branch Prediction Accuracy: 99.9405% MPKI: 0.09271 Average ROB Occupancy at Mispredict: 96.531
Branch types
NOT_BRANCH: 168823618 84.4118%
BRANCH_DIRECT_JUMP: 1725252 0.862626%
BRANCH_INDIRECT: 9825525 4.91276%
BRANCH_CONDITIONAL: 12976223 6.48811%
BRANCH_DIRECT_CALL: 2628850 1.31442%
BRANCH_INDIRECT_CALL: 695837 0.347918%
BRANCH_RETURN: 3324647 1.66232%
BRANCH_OTHER: 0 0%

DRAM PAGES: 1048576
Allocated PAGES: 22612
