
*** ChampSim Multicore Out-of-Order Simulator ***

Warmup Instructions: 50000000
Simulation Instructions: 200000000
Number of CPUs: 1
LLC sets: 2048
LLC ways: 16
Off-chip DRAM Size: 4096 MB Channels: 1 Width: 64-bit Data Rate: 6400 MT/s
CPU 0 runs traces/spec2k17/srv_31.champsimtrace.xz
.xz
BTB has LRU replacement policy
ITLB has LRU replacement policy
DTLB has LRU replacement policy
STLB has LRU replacement policy
L1I has LRU replacement policy
History Sets: 8
History Ways: 16
BERTI Size: 16
BERTI Stride Size: 16
L1D has LRU replacement policy
Initialize SRRIP state for L2C
Initialize DRRIP state for LLC
Heartbeat CPU 0 instructions: 10000000 cycles: 2807442 heartbeat IPC: 3.56196 cumulative IPC: 3.56196 (Simulation time: 0 hr 0 min 41 sec) 
Heartbeat CPU 0 instructions: 20000002 cycles: 5613039 heartbeat IPC: 3.5643 cumulative IPC: 3.56313 (Simulation time: 0 hr 1 min 26 sec) 
Heartbeat CPU 0 instructions: 30000002 cycles: 8419767 heartbeat IPC: 3.56287 cumulative IPC: 3.56304 (Simulation time: 0 hr 2 min 9 sec) 
*** Reached end of trace for Core: 0 Repeating trace: traces/spec2k17/srv_31.champsimtrace.xz
Heartbeat CPU 0 instructions: 40000000 cycles: 11223786 heartbeat IPC: 3.56631 cumulative IPC: 3.56386 (Simulation time: 0 hr 2 min 53 sec) 
Heartbeat CPU 0 instructions: 50000003 cycles: 14028337 heartbeat IPC: 3.56563 cumulative IPC: 3.56421 (Simulation time: 0 hr 3 min 33 sec) 

Warmup complete CPU 0 instructions: 50000003 cycles: 14028337 (Simulation time: 0 hr 3 min 33 sec) 

Heartbeat CPU 0 instructions: 60000001 cycles: 28022411 heartbeat IPC: 0.714588 cumulative IPC: 0.714588 (Simulation time: 0 hr 4 min 19 sec) 
*** Reached end of trace for Core: 0 Repeating trace: traces/spec2k17/srv_31.champsimtrace.xz
Heartbeat CPU 0 instructions: 70000000 cycles: 42021327 heartbeat IPC: 0.714341 cumulative IPC: 0.714464 (Simulation time: 0 hr 5 min 9 sec) 
Heartbeat CPU 0 instructions: 80000000 cycles: 55801171 heartbeat IPC: 0.725698 cumulative IPC: 0.71817 (Simulation time: 0 hr 5 min 58 sec) 
Heartbeat CPU 0 instructions: 90000001 cycles: 69691040 heartbeat IPC: 0.719949 cumulative IPC: 0.718614 (Simulation time: 0 hr 6 min 45 sec) 
*** Reached end of trace for Core: 0 Repeating trace: traces/spec2k17/srv_31.champsimtrace.xz
Heartbeat CPU 0 instructions: 100000000 cycles: 83510746 heartbeat IPC: 0.723604 cumulative IPC: 0.719607 (Simulation time: 0 hr 7 min 35 sec) 
Heartbeat CPU 0 instructions: 110000000 cycles: 97236197 heartbeat IPC: 0.728574 cumulative IPC: 0.721086 (Simulation time: 0 hr 8 min 21 sec) 
Heartbeat CPU 0 instructions: 120000001 cycles: 111330570 heartbeat IPC: 0.709503 cumulative IPC: 0.719408 (Simulation time: 0 hr 9 min 11 sec) 
*** Reached end of trace for Core: 0 Repeating trace: traces/spec2k17/srv_31.champsimtrace.xz
Heartbeat CPU 0 instructions: 130000000 cycles: 125156756 heartbeat IPC: 0.723265 cumulative IPC: 0.719888 (Simulation time: 0 hr 9 min 56 sec) 
Heartbeat CPU 0 instructions: 140000000 cycles: 138864986 heartbeat IPC: 0.729489 cumulative IPC: 0.720942 (Simulation time: 0 hr 10 min 44 sec) 
Heartbeat CPU 0 instructions: 150000002 cycles: 152957501 heartbeat IPC: 0.709597 cumulative IPC: 0.719791 (Simulation time: 0 hr 11 min 36 sec) 
*** Reached end of trace for Core: 0 Repeating trace: traces/spec2k17/srv_31.champsimtrace.xz
Heartbeat CPU 0 instructions: 160000002 cycles: 166807831 heartbeat IPC: 0.722004 cumulative IPC: 0.719992 (Simulation time: 0 hr 12 min 28 sec) 
Heartbeat CPU 0 instructions: 170000002 cycles: 180481051 heartbeat IPC: 0.731357 cumulative IPC: 0.720925 (Simulation time: 0 hr 13 min 16 sec) 
Heartbeat CPU 0 instructions: 180000002 cycles: 194360341 heartbeat IPC: 0.720498 cumulative IPC: 0.720893 (Simulation time: 0 hr 14 min 1 sec) 
Heartbeat CPU 0 instructions: 190000001 cycles: 208179107 heartbeat IPC: 0.723654 cumulative IPC: 0.721089 (Simulation time: 0 hr 14 min 48 sec) 
*** Reached end of trace for Core: 0 Repeating trace: traces/spec2k17/srv_31.champsimtrace.xz
Heartbeat CPU 0 instructions: 200000003 cycles: 222108866 heartbeat IPC: 0.717888 cumulative IPC: 0.720875 (Simulation time: 0 hr 15 min 35 sec) 
Heartbeat CPU 0 instructions: 210000003 cycles: 235931831 heartbeat IPC: 0.723434 cumulative IPC: 0.721034 (Simulation time: 0 hr 16 min 21 sec) 
Heartbeat CPU 0 instructions: 220000000 cycles: 249757715 heartbeat IPC: 0.723281 cumulative IPC: 0.721166 (Simulation time: 0 hr 17 min 12 sec) 
*** Reached end of trace for Core: 0 Repeating trace: traces/spec2k17/srv_31.champsimtrace.xz
Heartbeat CPU 0 instructions: 230000003 cycles: 263706993 heartbeat IPC: 0.716883 cumulative IPC: 0.720927 (Simulation time: 0 hr 18 min 7 sec) 
Heartbeat CPU 0 instructions: 240000001 cycles: 277467389 heartbeat IPC: 0.726723 cumulative IPC: 0.721229 (Simulation time: 0 hr 18 min 53 sec) 
Heartbeat CPU 0 instructions: 250000003 cycles: 291328773 heartbeat IPC: 0.721429 cumulative IPC: 0.721239 (Simulation time: 0 hr 19 min 40 sec) 
Finished CPU 0 instructions: 200000000 cycles: 277300436 cumulative IPC: 0.721239 (Simulation time: 0 hr 19 min 40 sec) 

ChampSim completed all CPUs

Region of Interest Statistics

CPU 0 cumulative IPC: 0.721239 instructions: 200000000 cycles: 277300436
ITLB TOTAL     ACCESS:   32444463  HIT:   32337759  MISS:     106704  HIT %:    99.6711  MISS %:   0.328882   MPKI: 0.53352
ITLB LOAD TRANSLATION ACCESS:   32444463  HIT:   32337759  MISS:     106704  HIT %:    99.6711  MISS %:   0.328882   MPKI: 0.53352
ITLB PREFETCH  REQUESTED:          0  ISSUED:          0  USEFUL:          0  USELESS:          0
ITLB USEFUL LOAD PREFETCHES:          0 PREFETCH ISSUED TO LOWER LEVEL:          0  ACCURACY: -nan
ITLB TIMELY PREFETCHES:          0 LATE PREFETCHES: 0 DROPPED PREFETCHES: 0
ITLB PREFETCHES SAME FILL-ORIGIN LEVEL: 0 DIFFERENT FILL-ORIGIN LEVEL: 0
ITLB AVERAGE MISS LATENCY: 10.6304 cycles
ITLB RQ	ACCESS:   38243741	FORWARD:          0	MERGED:    5764430	TO_CACHE:   32479311

DTLB TOTAL     ACCESS:   40758606  HIT:   38949673  MISS:    1808933  HIT %:    95.5618  MISS %:    4.43816   MPKI: 9.04467
DTLB LOAD TRANSLATION ACCESS:   40758606  HIT:   38949673  MISS:    1808933  HIT %:    95.5618  MISS %:    4.43816   MPKI: 9.04467
DTLB PREFETCH  REQUESTED:          0  ISSUED:          0  USEFUL:          0  USELESS:          0
DTLB USEFUL LOAD PREFETCHES:          0 PREFETCH ISSUED TO LOWER LEVEL:          0  ACCURACY: -nan
DTLB TIMELY PREFETCHES:          0 LATE PREFETCHES: 0 DROPPED PREFETCHES: 0
DTLB PREFETCHES SAME FILL-ORIGIN LEVEL: 0 DIFFERENT FILL-ORIGIN LEVEL: 0
DTLB AVERAGE MISS LATENCY: 10.6307 cycles
DTLB RQ	ACCESS:   54734001	FORWARD:          0	MERGED:   13776324	TO_CACHE:   40957677

STLB TOTAL     ACCESS:    2583367  HIT:    2496725  MISS:      86642  HIT %:    96.6462  MISS %:    3.35384   MPKI: 0.43321
STLB LOAD TRANSLATION ACCESS:    1915637  HIT:    1830127  MISS:      85510  HIT %:    95.5362  MISS %:    4.46379   MPKI: 0.42755
STLB TRANSLATION FROM L1D PREFETCHER ACCESS:     667730  HIT:     666598  MISS:       1132  HIT %:    99.8305  MISS %:    0.16953   MPKI: 0.00566
STLB PREFETCH  REQUESTED:          0  ISSUED:          0  USEFUL:       1079  USELESS:         52
STLB USEFUL LOAD PREFETCHES:       1079 PREFETCH ISSUED TO LOWER LEVEL:          0  ACCURACY: inf
STLB TIMELY PREFETCHES:       1079 LATE PREFETCHES: 20 DROPPED PREFETCHES: 6501
STLB PREFETCHES SAME FILL-ORIGIN LEVEL: 0 DIFFERENT FILL-ORIGIN LEVEL: 0
STLB AVERAGE MISS LATENCY: 36.4046 cycles
STLB RQ	ACCESS:    6240214	FORWARD:          0	MERGED:    3646848	TO_CACHE:    2593366

STLB Hit, L1D data hit: 0
STLB Hit, L2C data hit: 0
STLB Hit, LLC data hit: 0
STLB Hit, LLC data miss: 0
STLB STLB hints to L2: 0
L1D TOTAL     ACCESS:   58209130  HIT:   57710123  MISS:     499007  HIT %:    99.1427  MISS %:   0.857266   MPKI: 2.49504
L1D LOAD      ACCESS:   30715625  HIT:   30389260  MISS:     326365  HIT %:    98.9375  MISS %:    1.06254   MPKI: 1.63183
L1D RFO       ACCESS:   23414882  HIT:   23295535  MISS:     119347  HIT %:    99.4903  MISS %:   0.509706   MPKI: 0.596735
L1D PREFETCH  ACCESS:    4078623  HIT:    4025328  MISS:      53295  HIT %:    98.6933  MISS %:    1.30669   MPKI: 0.266475
L1D PREFETCH  REQUESTED:    9234154  ISSUED:    9225892  USEFUL:      41024  USELESS:      12277
L1D USEFUL LOAD PREFETCHES:      41024 PREFETCH ISSUED TO LOWER LEVEL:     240433  ACCURACY: 17.0625
L1D TIMELY PREFETCHES:      41024 LATE PREFETCHES: 7335 DROPPED PREFETCHES: 14136
L1D PREFETCHES SAME FILL-ORIGIN LEVEL: 60630 DIFFERENT FILL-ORIGIN LEVEL: 179803
L1D AVERAGE MISS LATENCY: 109.739 cycles
L1D RQ	ACCESS:   49485762	FORWARD:          0	MERGED:   18537660	TO_CACHE:   30826700
L1D WQ	ACCESS:   24164282	FORWARD:     121402	MERGED:     256981	TO_CACHE:   23907301
L1D PQ	ACCESS:    4901315	FORWARD:          0	MERGED:     576738	TO_CACHE:    4324577

L1D UNIQUE REGIONS ACCESSED: 0
L1D REGIONS CONFLICTS: 0
L1D Cross Page Prefetch Requests: 240627
L1D Same Page Prefetch Requests: 6115962
L1D ROI Sum of L1D PQ occupancy: 64267316
L1D PREFETCHES PUSHED FROM L2C: 0
L1I TOTAL     ACCESS:   38051372  HIT:   37413001  MISS:     638371  HIT %:    98.3223  MISS %:    1.67766   MPKI: 3.19185
L1I LOAD      ACCESS:   38051372  HIT:   37413001  MISS:     638371  HIT %:    98.3223  MISS %:    1.67766   MPKI: 3.19185
L1I PREFETCH  REQUESTED:          0  ISSUED:          0  USEFUL:          0  USELESS:          0
L1I USEFUL LOAD PREFETCHES:          0 PREFETCH ISSUED TO LOWER LEVEL:          0  ACCURACY: -nan
L1I TIMELY PREFETCHES:          0 LATE PREFETCHES: 0 DROPPED PREFETCHES: 0
L1I PREFETCHES SAME FILL-ORIGIN LEVEL: 0 DIFFERENT FILL-ORIGIN LEVEL: 0
L1I AVERAGE MISS LATENCY: 16.8982 cycles
L1I RQ	ACCESS:   60442686	FORWARD:          0	MERGED:   22198945	TO_CACHE:   38243741

BTB TOTAL     ACCESS:   29625893  HIT:   27968825  MISS:    1657068  HIT %:    94.4067  MISS %:    5.59331   MPKI: 8.28534
BTB BRANCH_DIRECT_JUMP	ACCESS:    2289443  HIT:    2287950  MISS:       1493
BTB BRANCH_INDIRECT	ACCESS:   12552908  HIT:   12006835  MISS:     546073
BTB BRANCH_CONDITIONAL	ACCESS:    7216617  HIT:    7214548  MISS:       2069
BTB BRANCH_DIRECT_CALL	ACCESS:    3333261  HIT:    3329718  MISS:       3543
BTB BRANCH_INDIRECT_CALL	ACCESS:     450198  HIT:     257229  MISS:     192969
BTB BRANCH_RETURN	ACCESS:    3783466  HIT:    2872545  MISS:     910921
BTB BRANCH_OTHER ACCESS:          0  HIT:          0  MISS:          0

L2C TOTAL     ACCESS:    1540698  HIT:    1030365  MISS:     510333  HIT %:    66.8765  MISS %:    33.1235   MPKI: 2.55166
L2C LOAD      ACCESS:     957281  HIT:     654374  MISS:     302907  HIT %:    68.3576  MISS %:    31.6424   MPKI: 1.51453
L2C DATA LOAD MPKI: 1.29676
L2C INSTRUCTION LOAD MPKI: 0.217775
L2C RFO       ACCESS:     119341  HIT:       8300  MISS:     111041  HIT %:    6.95486  MISS %:    93.0451   MPKI: 0.555205
L2C PREFETCH  ACCESS:     167951  HIT:     104886  MISS:      63065  HIT %:    62.4504  MISS %:    37.5496   MPKI: 0.315325
L2C DATA PREFETCH MPKI: 0.315325
L2C INSTRUCTION PREFETCH MPKI: 0
L2C WRITEBACK ACCESS:     164527  HIT:     157844  MISS:       6683  HIT %:    95.9381  MISS %:    4.06195   MPKI: 0.033415
L2C LOAD TRANSLATION ACCESS:     122099  HIT:      95807  MISS:      26292  HIT %:    78.4667  MISS %:    21.5333   MPKI: 0.13146
L2C TRANSLATION FROM L1D PREFETCHER ACCESS:       9499  HIT:       9154  MISS:        345  HIT %:     96.368  MISS %:    3.63196   MPKI: 0.001725
L2C PREFETCH  REQUESTED:          0  ISSUED:          0  USEFUL:      17693  USELESS:      46320
L2C USEFUL LOAD PREFETCHES:      17693 PREFETCH ISSUED TO LOWER LEVEL:      74796  ACCURACY: 23.655
L2C TIMELY PREFETCHES:      17693 LATE PREFETCHES: 11731 DROPPED PREFETCHES: 0
L2C PREFETCHES SAME FILL-ORIGIN LEVEL: 55320 DIFFERENT FILL-ORIGIN LEVEL: 0
L2C AVERAGE MISS LATENCY: 110.169 cycles
L2C RQ	ACCESS:    1208346	FORWARD:          0	MERGED:          0	TO_CACHE:    1208220
L2C WQ	ACCESS:     164527	FORWARD:        127	MERGED:          0	TO_CACHE:     164527
L2C PQ	ACCESS:     240428	FORWARD:          0	MERGED:       2128	TO_CACHE:     238299

L2C Instructions Evicting Data 38336
L2C Translations Evicting Data 22579
L2C Data Evicting Data 373273
L2C Instructions Evicting Instructions 3080
L2C Translations Evicting Instructions 2434
L2C Data Evicting Instructions 37834
L2C Instructions Evicting Translations 2139
L2C Translations Evicting Translations 1624
L2C Data Evicting Translations 22351
L2C Dense regions hint from L2: 0
PSCL5 TOTAL     ACCESS:      93143  HIT:      93143  MISS:          0  HIT %:        100  MISS %:          0   MPKI: 0
PSCL5 LOAD TRANSLATION ACCESS:      85490  HIT:      85490  MISS:          0  HIT %:        100  MISS %:          0   MPKI: 0
PSCL5 TRANSLATION FROM L1D PREFETCHER ACCESS:       7653  HIT:       7653  MISS:          0  HIT %:        100  MISS %:          0   MPKI: 0
PSCL5 PREFETCH  REQUESTED:          0  ISSUED:          0  USEFUL:          0  USELESS:          0
PSCL5 USEFUL LOAD PREFETCHES:          0 PREFETCH ISSUED TO LOWER LEVEL:          0  ACCURACY: -nan
PSCL5 TIMELY PREFETCHES:          0 LATE PREFETCHES: 0 DROPPED PREFETCHES: 0
PSCL5 PREFETCHES SAME FILL-ORIGIN LEVEL: 0 DIFFERENT FILL-ORIGIN LEVEL: 0

PSCL4 TOTAL     ACCESS:      90166  HIT:      90022  MISS:        144  HIT %:    99.8403  MISS %:   0.159705   MPKI: 0.00072
PSCL4 LOAD TRANSLATION ACCESS:      83039  HIT:      82895  MISS:        144  HIT %:    99.8266  MISS %:   0.173412   MPKI: 0.00072
PSCL4 TRANSLATION FROM L1D PREFETCHER ACCESS:       7127  HIT:       7127  MISS:          0  HIT %:        100  MISS %:          0   MPKI: 0
PSCL4 PREFETCH  REQUESTED:          0  ISSUED:          0  USEFUL:          0  USELESS:          0
PSCL4 USEFUL LOAD PREFETCHES:          0 PREFETCH ISSUED TO LOWER LEVEL:          0  ACCURACY: -nan
PSCL4 TIMELY PREFETCHES:          0 LATE PREFETCHES: 0 DROPPED PREFETCHES: 0
PSCL4 PREFETCHES SAME FILL-ORIGIN LEVEL: 0 DIFFERENT FILL-ORIGIN LEVEL: 0

PSCL3 TOTAL     ACCESS:      92840  HIT:      92269  MISS:        571  HIT %:     99.385  MISS %:   0.615037   MPKI: 0.002855
PSCL3 LOAD TRANSLATION ACCESS:      85317  HIT:      84746  MISS:        571  HIT %:    99.3307  MISS %:   0.669269   MPKI: 0.002855
PSCL3 TRANSLATION FROM L1D PREFETCHER ACCESS:       7523  HIT:       7523  MISS:          0  HIT %:        100  MISS %:          0   MPKI: 0
PSCL3 PREFETCH  REQUESTED:          0  ISSUED:          0  USEFUL:          0  USELESS:          0
PSCL3 USEFUL LOAD PREFETCHES:          0 PREFETCH ISSUED TO LOWER LEVEL:          0  ACCURACY: -nan
PSCL3 TIMELY PREFETCHES:          0 LATE PREFETCHES: 0 DROPPED PREFETCHES: 0
PSCL3 PREFETCHES SAME FILL-ORIGIN LEVEL: 0 DIFFERENT FILL-ORIGIN LEVEL: 0

PSCL2 TOTAL     ACCESS:      91558  HIT:      55403  MISS:      36155  HIT %:    60.5114  MISS %:    39.4886   MPKI: 0.180775
PSCL2 LOAD TRANSLATION ACCESS:      85735  HIT:      49580  MISS:      36155  HIT %:    57.8294  MISS %:    42.1706   MPKI: 0.180775
PSCL2 TRANSLATION FROM L1D PREFETCHER ACCESS:       5823  HIT:       5823  MISS:          0  HIT %:        100  MISS %:          0   MPKI: 0
PSCL2 PREFETCH  REQUESTED:          0  ISSUED:          0  USEFUL:          0  USELESS:          0
PSCL2 USEFUL LOAD PREFETCHES:          0 PREFETCH ISSUED TO LOWER LEVEL:          0  ACCURACY: -nan
PSCL2 TIMELY PREFETCHES:          0 LATE PREFETCHES: 0 DROPPED PREFETCHES: 0
PSCL2 PREFETCHES SAME FILL-ORIGIN LEVEL: 0 DIFFERENT FILL-ORIGIN LEVEL: 0

LLC TOTAL     ACCESS:     652283  HIT:     385837  MISS:     266446  HIT %:    59.1518  MISS %:    40.8482   MPKI: 1.33223
LLC LOAD      ACCESS:     291176  HIT:     119854  MISS:     171322  HIT %:     41.162  MISS %:     58.838   MPKI: 0.85661
LLC RFO       ACCESS:     111041  HIT:      70195  MISS:      40846  HIT %:    63.2154  MISS %:    36.7846   MPKI: 0.20423
LLC PREFETCH  ACCESS:      74796  HIT:      23411  MISS:      51385  HIT %:    31.2998  MISS %:    68.7002   MPKI: 0.256925
LLC WRITEBACK ACCESS:     148633  HIT:     147537  MISS:       1096  HIT %:    99.2626  MISS %:   0.737387   MPKI: 0.00548
LLC LOAD TRANSLATION ACCESS:      26292  HIT:      24663  MISS:       1629  HIT %:    93.8042  MISS %:     6.1958   MPKI: 0.008145
LLC TRANSLATION FROM L1D PREFETCHER ACCESS:        345  HIT:        177  MISS:        168  HIT %:    51.3043  MISS %:    48.6957   MPKI: 0.00084
LLC PREFETCH  REQUESTED:          0  ISSUED:          0  USEFUL:       1591  USELESS:      50695
LLC USEFUL LOAD PREFETCHES:       1591 PREFETCH ISSUED TO LOWER LEVEL:      51385  ACCURACY: 3.09623
LLC TIMELY PREFETCHES:       1591 LATE PREFETCHES: 0 DROPPED PREFETCHES: 0
LLC PREFETCHES SAME FILL-ORIGIN LEVEL: 0 DIFFERENT FILL-ORIGIN LEVEL: 0
LLC AVERAGE MISS LATENCY: 158.025 cycles
LLC RQ	ACCESS:     428854	FORWARD:          0	MERGED:          0	TO_CACHE:     428854
LLC WQ	ACCESS:     148633	FORWARD:          0	MERGED:          0	TO_CACHE:     148633
LLC PQ	ACCESS:      74796	FORWARD:          0	MERGED:          0	TO_CACHE:      74796

LLC Dense regions hint to LLC: 0

RAW hits: 2385610
Loads Generated: 51871374
Loads sent to L1D: 49485762
Stores Generated: 24164278
Stores sent to L1D: 24164282
Major fault: 0 Minor fault: 6162
Allocated PAGES: 6162

DRAM Statistics
 CHANNEL 0
 RQ ROW_BUFFER_HIT:      72253  ROW_BUFFER_MISS:     193051
 DBUS_CONGESTED:        199
 WQ ROW_BUFFER_HIT:      10133  ROW_BUFFER_MISS:      43539  FULL:          0

 AVG_CONGESTED_CYCLE: 5
 All warmup complete: 2
Channel 0 Bank busy for read cycles: 0
Channel 0 Bank busy for write cycles: 0
Channel 0
Rank 0
0banks busy for read cycles: 246597455
0banks busy for write cycles: 28686
1banks busy for read cycles: 21739520
1banks busy for write cycles: 4962381
2banks busy for read cycles: 1115866
2banks busy for write cycles: 606420
3banks busy for read cycles: 390272
3banks busy for write cycles: 161455
4banks busy for read cycles: 255091
4banks busy for write cycles: 93982
5banks busy for read cycles: 208127
5banks busy for write cycles: 81426
6banks busy for read cycles: 209401
6banks busy for write cycles: 74323
7banks busy for read cycles: 215538
7banks busy for write cycles: 86623
8banks busy for read cycles: 327034
8banks busy for write cycles: 146837

CPU 0 Branch Prediction Accuracy: 99.7859% MPKI: 0.39104 Average ROB Occupancy at Mispredict: 19.4321
Branch types
NOT_BRANCH: 163463153 81.7316%
BRANCH_DIRECT_JUMP: 2289443 1.14472%
BRANCH_INDIRECT: 12552908 6.27645%
BRANCH_CONDITIONAL: 14127333 7.06367%
BRANCH_DIRECT_CALL: 3333261 1.66663%
BRANCH_INDIRECT_CALL: 450198 0.225099%
BRANCH_RETURN: 3783466 1.89173%
BRANCH_OTHER: 0 0%

DRAM PAGES: 1048576
Allocated PAGES: 6162
