
*** ChampSim Multicore Out-of-Order Simulator ***

Warmup Instructions: 50000000
Simulation Instructions: 200000000
Number of CPUs: 1
LLC sets: 2048
LLC ways: 16
Off-chip DRAM Size: 4096 MB Channels: 1 Width: 64-bit Data Rate: 6400 MT/s
CPU 0 runs traces/spec2k17/srv_63.champsimtrace.xz
.xz
BTB has LRU replacement policy
ITLB has LRU replacement policy
DTLB has LRU replacement policy
STLB has LRU replacement policy
L1I has LRU replacement policy
History Sets: 8
History Ways: 16
BERTI Size: 16
BERTI Stride Size: 16
L1D has LRU replacement policy
Initialize SRRIP state for L2C
Initialize DRRIP state for LLC
Heartbeat CPU 0 instructions: 10000000 cycles: 2772631 heartbeat IPC: 3.60668 cumulative IPC: 3.60668 (Simulation time: 0 hr 0 min 36 sec) 
Heartbeat CPU 0 instructions: 20000003 cycles: 5539582 heartbeat IPC: 3.61409 cumulative IPC: 3.61038 (Simulation time: 0 hr 1 min 16 sec) 
Heartbeat CPU 0 instructions: 30000003 cycles: 8306651 heartbeat IPC: 3.61393 cumulative IPC: 3.61156 (Simulation time: 0 hr 1 min 56 sec) 
*** Reached end of trace for Core: 0 Repeating trace: traces/spec2k17/srv_63.champsimtrace.xz
Heartbeat CPU 0 instructions: 40000001 cycles: 11071247 heartbeat IPC: 3.61716 cumulative IPC: 3.61296 (Simulation time: 0 hr 2 min 34 sec) 
Heartbeat CPU 0 instructions: 50000001 cycles: 13836596 heartbeat IPC: 3.61618 cumulative IPC: 3.61361 (Simulation time: 0 hr 3 min 12 sec) 

Warmup complete CPU 0 instructions: 50000001 cycles: 13836596 (Simulation time: 0 hr 3 min 12 sec) 

Heartbeat CPU 0 instructions: 60000000 cycles: 36429558 heartbeat IPC: 0.442616 cumulative IPC: 0.442616 (Simulation time: 0 hr 4 min 2 sec) 
*** Reached end of trace for Core: 0 Repeating trace: traces/spec2k17/srv_63.champsimtrace.xz
Heartbeat CPU 0 instructions: 70000001 cycles: 58401449 heartbeat IPC: 0.455127 cumulative IPC: 0.448784 (Simulation time: 0 hr 4 min 54 sec) 
Heartbeat CPU 0 instructions: 80000001 cycles: 80543644 heartbeat IPC: 0.451626 cumulative IPC: 0.449728 (Simulation time: 0 hr 5 min 46 sec) 
Heartbeat CPU 0 instructions: 90000000 cycles: 102895322 heartbeat IPC: 0.447394 cumulative IPC: 0.449142 (Simulation time: 0 hr 6 min 36 sec) 
*** Reached end of trace for Core: 0 Repeating trace: traces/spec2k17/srv_63.champsimtrace.xz
Heartbeat CPU 0 instructions: 100000002 cycles: 125063968 heartbeat IPC: 0.451088 cumulative IPC: 0.44953 (Simulation time: 0 hr 7 min 23 sec) 
Heartbeat CPU 0 instructions: 110000000 cycles: 146991343 heartbeat IPC: 0.456051 cumulative IPC: 0.450604 (Simulation time: 0 hr 8 min 14 sec) 
Heartbeat CPU 0 instructions: 120000000 cycles: 169120437 heartbeat IPC: 0.451894 cumulative IPC: 0.450787 (Simulation time: 0 hr 9 min 9 sec) 
*** Reached end of trace for Core: 0 Repeating trace: traces/spec2k17/srv_63.champsimtrace.xz
Heartbeat CPU 0 instructions: 130000000 cycles: 191421035 heartbeat IPC: 0.448418 cumulative IPC: 0.45049 (Simulation time: 0 hr 10 min 3 sec) 
Heartbeat CPU 0 instructions: 140000003 cycles: 213418622 heartbeat IPC: 0.454595 cumulative IPC: 0.450942 (Simulation time: 0 hr 10 min 54 sec) 
Heartbeat CPU 0 instructions: 150000003 cycles: 235267361 heartbeat IPC: 0.457692 cumulative IPC: 0.451608 (Simulation time: 0 hr 11 min 51 sec) 
*** Reached end of trace for Core: 0 Repeating trace: traces/spec2k17/srv_63.champsimtrace.xz
Heartbeat CPU 0 instructions: 160000000 cycles: 257834664 heartbeat IPC: 0.443119 cumulative IPC: 0.450823 (Simulation time: 0 hr 12 min 47 sec) 
Heartbeat CPU 0 instructions: 170000003 cycles: 279674892 heartbeat IPC: 0.457871 cumulative IPC: 0.451402 (Simulation time: 0 hr 13 min 38 sec) 
Heartbeat CPU 0 instructions: 180000003 cycles: 301591579 heartbeat IPC: 0.456273 cumulative IPC: 0.451773 (Simulation time: 0 hr 14 min 28 sec) 
*** Reached end of trace for Core: 0 Repeating trace: traces/spec2k17/srv_63.champsimtrace.xz
Heartbeat CPU 0 instructions: 190000000 cycles: 324072254 heartbeat IPC: 0.444826 cumulative IPC: 0.45127 (Simulation time: 0 hr 15 min 20 sec) 
Heartbeat CPU 0 instructions: 200000000 cycles: 345931047 heartbeat IPC: 0.457482 cumulative IPC: 0.451679 (Simulation time: 0 hr 16 min 15 sec) 
Heartbeat CPU 0 instructions: 210000002 cycles: 367698961 heartbeat IPC: 0.459392 cumulative IPC: 0.452153 (Simulation time: 0 hr 17 min 8 sec) 
*** Reached end of trace for Core: 0 Repeating trace: traces/spec2k17/srv_63.champsimtrace.xz
Heartbeat CPU 0 instructions: 220000000 cycles: 390149657 heartbeat IPC: 0.44542 cumulative IPC: 0.451752 (Simulation time: 0 hr 18 min 0 sec) 
Heartbeat CPU 0 instructions: 230000001 cycles: 411929858 heartbeat IPC: 0.459133 cumulative IPC: 0.452155 (Simulation time: 0 hr 18 min 57 sec) 
Heartbeat CPU 0 instructions: 240000002 cycles: 434099299 heartbeat IPC: 0.451071 cumulative IPC: 0.452098 (Simulation time: 0 hr 19 min 49 sec) 
*** Reached end of trace for Core: 0 Repeating trace: traces/spec2k17/srv_63.champsimtrace.xz
Heartbeat CPU 0 instructions: 250000000 cycles: 456164697 heartbeat IPC: 0.453198 cumulative IPC: 0.452153 (Simulation time: 0 hr 20 min 40 sec) 
Finished CPU 0 instructions: 200000001 cycles: 442328102 cumulative IPC: 0.452153 (Simulation time: 0 hr 20 min 40 sec) 

ChampSim completed all CPUs

Region of Interest Statistics

CPU 0 cumulative IPC: 0.452153 instructions: 200000001 cycles: 442328102
ITLB TOTAL     ACCESS:   31326633  HIT:   30546055  MISS:     780578  HIT %:    97.5083  MISS %:    2.49174   MPKI: 3.90289
ITLB LOAD TRANSLATION ACCESS:   31326633  HIT:   30546055  MISS:     780578  HIT %:    97.5083  MISS %:    2.49174   MPKI: 3.90289
ITLB PREFETCH  REQUESTED:          0  ISSUED:          0  USEFUL:          0  USELESS:          0
ITLB USEFUL LOAD PREFETCHES:          0 PREFETCH ISSUED TO LOWER LEVEL:          0  ACCURACY: -nan
ITLB TIMELY PREFETCHES:          0 LATE PREFETCHES: 0 DROPPED PREFETCHES: 0
ITLB PREFETCHES SAME FILL-ORIGIN LEVEL: 0 DIFFERENT FILL-ORIGIN LEVEL: 0
ITLB AVERAGE MISS LATENCY: 13.8815 cycles
ITLB RQ	ACCESS:   38370512	FORWARD:          0	MERGED:    6848204	TO_CACHE:   31522308

DTLB TOTAL     ACCESS:   37058823  HIT:   34448785  MISS:    2610038  HIT %:     92.957  MISS %:    7.04296   MPKI: 13.0502
DTLB LOAD TRANSLATION ACCESS:   37058823  HIT:   34448785  MISS:    2610038  HIT %:     92.957  MISS %:    7.04296   MPKI: 13.0502
DTLB PREFETCH  REQUESTED:          0  ISSUED:          0  USEFUL:          0  USELESS:          0
DTLB USEFUL LOAD PREFETCHES:          0 PREFETCH ISSUED TO LOWER LEVEL:          0  ACCURACY: -nan
DTLB TIMELY PREFETCHES:          0 LATE PREFETCHES: 0 DROPPED PREFETCHES: 0
DTLB PREFETCHES SAME FILL-ORIGIN LEVEL: 0 DIFFERENT FILL-ORIGIN LEVEL: 0
DTLB AVERAGE MISS LATENCY: 13.7184 cycles
DTLB RQ	ACCESS:   47578451	FORWARD:          0	MERGED:   10369351	TO_CACHE:   37209100

STLB TOTAL     ACCESS:    3446944  HIT:    3091275  MISS:     355669  HIT %:    89.6816  MISS %:    10.3184   MPKI: 1.77834
STLB LOAD TRANSLATION ACCESS:    3390616  HIT:    3035377  MISS:     355239  HIT %:    89.5229  MISS %:    10.4771   MPKI: 1.77619
STLB TRANSLATION FROM L1D PREFETCHER ACCESS:      56328  HIT:      55898  MISS:        430  HIT %:    99.2366  MISS %:   0.763386   MPKI: 0.00215
STLB PREFETCH  REQUESTED:          0  ISSUED:          0  USEFUL:        320  USELESS:        110
STLB USEFUL LOAD PREFETCHES:        320 PREFETCH ISSUED TO LOWER LEVEL:          0  ACCURACY: inf
STLB TIMELY PREFETCHES:        320 LATE PREFETCHES: 0 DROPPED PREFETCHES: 1376
STLB PREFETCHES SAME FILL-ORIGIN LEVEL: 0 DIFFERENT FILL-ORIGIN LEVEL: 0
STLB AVERAGE MISS LATENCY: 45.1491 cycles
STLB RQ	ACCESS:    3580404	FORWARD:          0	MERGED:     132083	TO_CACHE:    3448321

STLB Hit, L1D data hit: 0
STLB Hit, L2C data hit: 0
STLB Hit, LLC data hit: 0
STLB Hit, LLC data miss: 0
STLB STLB hints to L2: 0
L1D TOTAL     ACCESS:   47117459  HIT:   44673912  MISS:    2443547  HIT %:    94.8139  MISS %:    5.18608   MPKI: 12.2177
L1D LOAD      ACCESS:   27499069  HIT:   25393893  MISS:    2105176  HIT %:    92.3446  MISS %:    7.65544   MPKI: 10.5259
L1D RFO       ACCESS:   19561403  HIT:   19226289  MISS:     335114  HIT %:    98.2869  MISS %:    1.71314   MPKI: 1.67557
L1D PREFETCH  ACCESS:      56987  HIT:      53730  MISS:       3257  HIT %:    94.2847  MISS %:    5.71534   MPKI: 0.016285
L1D PREFETCH  REQUESTED:     379616  ISSUED:     379616  USEFUL:       2576  USELESS:        681
L1D USEFUL LOAD PREFETCHES:       2576 PREFETCH ISSUED TO LOWER LEVEL:     133363  ACCURACY: 1.93157
L1D TIMELY PREFETCHES:       2576 LATE PREFETCHES: 104 DROPPED PREFETCHES: 2508
L1D PREFETCHES SAME FILL-ORIGIN LEVEL: 3361 DIFFERENT FILL-ORIGIN LEVEL: 130002
L1D AVERAGE MISS LATENCY: 44.15 cycles
L1D RQ	ACCESS:   42095856	FORWARD:          0	MERGED:   14218200	TO_CACHE:   27625834
L1D WQ	ACCESS:   20271818	FORWARD:     251857	MERGED:     319201	TO_CACHE:   19952617
L1D PQ	ACCESS:     189828	FORWARD:          0	MERGED:          5	TO_CACHE:     189788

L1D UNIQUE REGIONS ACCESSED: 0
L1D REGIONS CONFLICTS: 0
L1D Cross Page Prefetch Requests: 15220
L1D Same Page Prefetch Requests: 212669
L1D ROI Sum of L1D PQ occupancy: 2828203
L1D PREFETCHES PUSHED FROM L2C: 0
L1I TOTAL     ACCESS:   36572934  HIT:   31428410  MISS:    5144524  HIT %:    85.9335  MISS %:    14.0665   MPKI: 25.7226
L1I LOAD      ACCESS:   36572934  HIT:   31428410  MISS:    5144524  HIT %:    85.9335  MISS %:    14.0665   MPKI: 25.7226
L1I PREFETCH  REQUESTED:          0  ISSUED:          0  USEFUL:          0  USELESS:          0
L1I USEFUL LOAD PREFETCHES:          0 PREFETCH ISSUED TO LOWER LEVEL:          0  ACCURACY: -nan
L1I TIMELY PREFETCHES:          0 LATE PREFETCHES: 0 DROPPED PREFETCHES: 0
L1I PREFETCHES SAME FILL-ORIGIN LEVEL: 0 DIFFERENT FILL-ORIGIN LEVEL: 0
L1I AVERAGE MISS LATENCY: 25.1763 cycles
L1I RQ	ACCESS:   57230907	FORWARD:          0	MERGED:   18860395	TO_CACHE:   38370512

BTB TOTAL     ACCESS:   22132994  HIT:   17703037  MISS:    4429957  HIT %:    79.9848  MISS %:    20.0152   MPKI: 22.1498
BTB BRANCH_DIRECT_JUMP	ACCESS:    1771716  HIT:    1521380  MISS:     250336
BTB BRANCH_INDIRECT	ACCESS:    9488973  HIT:    7332684  MISS:    2156289
BTB BRANCH_CONDITIONAL	ACCESS:    4504476  HIT:    4096603  MISS:     407873
BTB BRANCH_DIRECT_CALL	ACCESS:    2499396  HIT:    2015019  MISS:     484377
BTB BRANCH_INDIRECT_CALL	ACCESS:     683762  HIT:     642808  MISS:      40954
BTB BRANCH_RETURN	ACCESS:    3184671  HIT:    2094543  MISS:    1090128
BTB BRANCH_OTHER ACCESS:          0  HIT:          0  MISS:          0

L2C TOTAL     ACCESS:    9198378  HIT:    6020335  MISS:    3178043  HIT %:      65.45  MISS %:      34.55   MPKI: 15.8902
L2C LOAD      ACCESS:    7249343  HIT:    4479581  MISS:    2769762  HIT %:    61.7929  MISS %:    38.2071   MPKI: 13.8488
L2C DATA LOAD MPKI: 4.59996
L2C INSTRUCTION LOAD MPKI: 9.24884
L2C RFO       ACCESS:     335113  HIT:     198491  MISS:     136622  HIT %:    59.2311  MISS %:    40.7689   MPKI: 0.68311
L2C PREFETCH  ACCESS:     132845  HIT:      89300  MISS:      43545  HIT %:    67.2212  MISS %:    32.7788   MPKI: 0.217725
L2C DATA PREFETCH MPKI: 0.217725
L2C INSTRUCTION PREFETCH MPKI: 0
L2C WRITEBACK ACCESS:    1013329  HIT:     966796  MISS:      46533  HIT %:    95.4079  MISS %:    4.59209   MPKI: 0.232665
L2C LOAD TRANSLATION ACCESS:     465274  HIT:     284195  MISS:     181079  HIT %:    61.0812  MISS %:    38.9188   MPKI: 0.905395
L2C TRANSLATION FROM L1D PREFETCHER ACCESS:       2474  HIT:       1972  MISS:        502  HIT %:     79.709  MISS %:     20.291   MPKI: 0.00251
L2C PREFETCH  REQUESTED:          0  ISSUED:          0  USEFUL:      16159  USELESS:      27941
L2C USEFUL LOAD PREFETCHES:      16159 PREFETCH ISSUED TO LOWER LEVEL:      43651  ACCURACY: 37.0186
L2C TIMELY PREFETCHES:      16159 LATE PREFETCHES: 106 DROPPED PREFETCHES: 0
L2C PREFETCHES SAME FILL-ORIGIN LEVEL: 42509 DIFFERENT FILL-ORIGIN LEVEL: 0
L2C AVERAGE MISS LATENCY: 43.944 cycles
L2C RQ	ACCESS:    8052459	FORWARD:          0	MERGED:          0	TO_CACHE:    8052205
L2C WQ	ACCESS:    1013329	FORWARD:        254	MERGED:          0	TO_CACHE:    1013329
L2C PQ	ACCESS:     133363	FORWARD:          0	MERGED:          0	TO_CACHE:     133363

L2C Instructions Evicting Data 667669
L2C Translations Evicting Data 67245
L2C Data Evicting Data 395085
L2C Instructions Evicting Instructions 1078831
L2C Translations Evicting Instructions 102540
L2C Data Evicting Instructions 641082
L2C Instructions Evicting Translations 103269
L2C Translations Evicting Translations 11796
L2C Data Evicting Translations 63993
L2C Dense regions hint from L2: 0
PSCL5 TOTAL     ACCESS:     357045  HIT:     357045  MISS:          0  HIT %:        100  MISS %:          0   MPKI: 0
PSCL5 LOAD TRANSLATION ACCESS:     355239  HIT:     355239  MISS:          0  HIT %:        100  MISS %:          0   MPKI: 0
PSCL5 TRANSLATION FROM L1D PREFETCHER ACCESS:       1806  HIT:       1806  MISS:          0  HIT %:        100  MISS %:          0   MPKI: 0
PSCL5 PREFETCH  REQUESTED:          0  ISSUED:          0  USEFUL:          0  USELESS:          0
PSCL5 USEFUL LOAD PREFETCHES:          0 PREFETCH ISSUED TO LOWER LEVEL:          0  ACCURACY: -nan
PSCL5 TIMELY PREFETCHES:          0 LATE PREFETCHES: 0 DROPPED PREFETCHES: 0
PSCL5 PREFETCHES SAME FILL-ORIGIN LEVEL: 0 DIFFERENT FILL-ORIGIN LEVEL: 0

PSCL4 TOTAL     ACCESS:     336876  HIT:     336441  MISS:        435  HIT %:    99.8709  MISS %:   0.129128   MPKI: 0.002175
PSCL4 LOAD TRANSLATION ACCESS:     335077  HIT:     334642  MISS:        435  HIT %:    99.8702  MISS %:   0.129821   MPKI: 0.002175
PSCL4 TRANSLATION FROM L1D PREFETCHER ACCESS:       1799  HIT:       1799  MISS:          0  HIT %:        100  MISS %:          0   MPKI: 0
PSCL4 PREFETCH  REQUESTED:          0  ISSUED:          0  USEFUL:          0  USELESS:          0
PSCL4 USEFUL LOAD PREFETCHES:          0 PREFETCH ISSUED TO LOWER LEVEL:          0  ACCURACY: -nan
PSCL4 TIMELY PREFETCHES:          0 LATE PREFETCHES: 0 DROPPED PREFETCHES: 0
PSCL4 PREFETCHES SAME FILL-ORIGIN LEVEL: 0 DIFFERENT FILL-ORIGIN LEVEL: 0

PSCL3 TOTAL     ACCESS:     356080  HIT:     355212  MISS:        868  HIT %:    99.7562  MISS %:   0.243765   MPKI: 0.00434
PSCL3 LOAD TRANSLATION ACCESS:     354274  HIT:     353406  MISS:        868  HIT %:     99.755  MISS %:   0.245008   MPKI: 0.00434
PSCL3 TRANSLATION FROM L1D PREFETCHER ACCESS:       1806  HIT:       1806  MISS:          0  HIT %:        100  MISS %:          0   MPKI: 0
PSCL3 PREFETCH  REQUESTED:          0  ISSUED:          0  USEFUL:          0  USELESS:          0
PSCL3 USEFUL LOAD PREFETCHES:          0 PREFETCH ISSUED TO LOWER LEVEL:          0  ACCURACY: -nan
PSCL3 TIMELY PREFETCHES:          0 LATE PREFETCHES: 0 DROPPED PREFETCHES: 0
PSCL3 PREFETCHES SAME FILL-ORIGIN LEVEL: 0 DIFFERENT FILL-ORIGIN LEVEL: 0

PSCL2 TOTAL     ACCESS:     356548  HIT:     247645  MISS:     108903  HIT %:    69.4563  MISS %:    30.5437   MPKI: 0.544515
PSCL2 LOAD TRANSLATION ACCESS:     355410  HIT:     246507  MISS:     108903  HIT %:    69.3585  MISS %:    30.6415   MPKI: 0.544515
PSCL2 TRANSLATION FROM L1D PREFETCHER ACCESS:       1138  HIT:       1138  MISS:          0  HIT %:        100  MISS %:          0   MPKI: 0
PSCL2 PREFETCH  REQUESTED:          0  ISSUED:          0  USEFUL:          0  USELESS:          0
PSCL2 USEFUL LOAD PREFETCHES:          0 PREFETCH ISSUED TO LOWER LEVEL:          0  ACCURACY: -nan
PSCL2 TIMELY PREFETCHES:          0 LATE PREFETCHES: 0 DROPPED PREFETCHES: 0
PSCL2 PREFETCHES SAME FILL-ORIGIN LEVEL: 0 DIFFERENT FILL-ORIGIN LEVEL: 0

LLC TOTAL     ACCESS:    3544393  HIT:    3243949  MISS:     300444  HIT %:    91.5234  MISS %:     8.4766   MPKI: 1.50222
LLC LOAD      ACCESS:    2769656  HIT:    2547337  MISS:     222319  HIT %:     91.973  MISS %:    8.02695   MPKI: 1.11159
LLC RFO       ACCESS:     136619  HIT:      90743  MISS:      45876  HIT %:    66.4205  MISS %:    33.5795   MPKI: 0.22938
LLC PREFETCH  ACCESS:      43651  HIT:      25393  MISS:      18258  HIT %:    58.1728  MISS %:    41.8272   MPKI: 0.09129
LLC WRITEBACK ACCESS:     412886  HIT:     410626  MISS:       2260  HIT %:    99.4526  MISS %:   0.547367   MPKI: 0.0113
LLC LOAD TRANSLATION ACCESS:     181079  HIT:     169362  MISS:      11717  HIT %:    93.5293  MISS %:    6.47066   MPKI: 0.058585
LLC TRANSLATION FROM L1D PREFETCHER ACCESS:        502  HIT:        488  MISS:         14  HIT %:    97.2112  MISS %:    2.78884   MPKI: 7e-05
LLC PREFETCH  REQUESTED:          0  ISSUED:          0  USEFUL:       1190  USELESS:      16609
LLC USEFUL LOAD PREFETCHES:       1190 PREFETCH ISSUED TO LOWER LEVEL:      18258  ACCURACY: 6.51769
LLC TIMELY PREFETCHES:       1190 LATE PREFETCHES: 0 DROPPED PREFETCHES: 0
LLC PREFETCHES SAME FILL-ORIGIN LEVEL: 0 DIFFERENT FILL-ORIGIN LEVEL: 0
LLC AVERAGE MISS LATENCY: 152.178 cycles
LLC RQ	ACCESS:    3087859	FORWARD:          0	MERGED:          0	TO_CACHE:    3087856
LLC WQ	ACCESS:     412886	FORWARD:          3	MERGED:          0	TO_CACHE:     412886
LLC PQ	ACCESS:      43651	FORWARD:          0	MERGED:          0	TO_CACHE:      43651

LLC Dense regions hint to LLC: 0

RAW hits: 2756818
Loads Generated: 44852676
Loads sent to L1D: 42095856
Stores Generated: 20271815
Stores sent to L1D: 20271818
Major fault: 0 Minor fault: 6260
Allocated PAGES: 6260

DRAM Statistics
 CHANNEL 0
 RQ ROW_BUFFER_HIT:      56065  ROW_BUFFER_MISS:     242118
 DBUS_CONGESTED:        183
 WQ ROW_BUFFER_HIT:      30593  ROW_BUFFER_MISS:     184123  FULL:          0

 AVG_CONGESTED_CYCLE: 4
 All warmup complete: 2
Channel 0 Bank busy for read cycles: 0
Channel 0 Bank busy for write cycles: 0
Channel 0
Rank 0
0banks busy for read cycles: 386911410
0banks busy for write cycles: 115879
1banks busy for read cycles: 26722898
1banks busy for write cycles: 16202308
2banks busy for read cycles: 3658647
2banks busy for write cycles: 3976863
3banks busy for read cycles: 516705
3banks busy for write cycles: 1442385
4banks busy for read cycles: 278618
4banks busy for write cycles: 769299
5banks busy for read cycles: 129303
5banks busy for write cycles: 450060
6banks busy for read cycles: 120562
6banks busy for write cycles: 338792
7banks busy for read cycles: 71953
7banks busy for write cycles: 273783
8banks busy for read cycles: 67944
8banks busy for write cycles: 280694

CPU 0 Branch Prediction Accuracy: 99.8245% MPKI: 0.314415 Average ROB Occupancy at Mispredict: 42.6067
Branch types
NOT_BRANCH: 164177127 82.0886%
BRANCH_DIRECT_JUMP: 1771716 0.885858%
BRANCH_INDIRECT: 9488973 4.74449%
BRANCH_CONDITIONAL: 18194015 9.09701%
BRANCH_DIRECT_CALL: 2499396 1.2497%
BRANCH_INDIRECT_CALL: 683762 0.341881%
BRANCH_RETURN: 3184671 1.59234%
BRANCH_OTHER: 0 0%

DRAM PAGES: 1048576
Allocated PAGES: 6260
