
*** ChampSim Multicore Out-of-Order Simulator ***

Warmup Instructions: 50000000
Simulation Instructions: 200000000
Number of CPUs: 1
LLC sets: 2048
LLC ways: 16
Off-chip DRAM Size: 4096 MB Channels: 1 Width: 64-bit Data Rate: 6400 MT/s
CPU 0 runs traces/spec2k17/srv_69.champsimtrace.xz
.xz
BTB has LRU replacement policy
ITLB has LRU replacement policy
DTLB has LRU replacement policy
STLB has LRU replacement policy
L1I has LRU replacement policy
History Sets: 8
History Ways: 16
BERTI Size: 16
BERTI Stride Size: 16
L1D has LRU replacement policy
Initialize SRRIP state for L2C
Initialize DRRIP state for LLC
Heartbeat CPU 0 instructions: 10000001 cycles: 2780204 heartbeat IPC: 3.59686 cumulative IPC: 3.59686 (Simulation time: 0 hr 0 min 39 sec) 
Heartbeat CPU 0 instructions: 20000003 cycles: 5562693 heartbeat IPC: 3.59391 cumulative IPC: 3.59538 (Simulation time: 0 hr 1 min 15 sec) 
Heartbeat CPU 0 instructions: 30000000 cycles: 8334896 heartbeat IPC: 3.60724 cumulative IPC: 3.59932 (Simulation time: 0 hr 1 min 54 sec) 
*** Reached end of trace for Core: 0 Repeating trace: traces/spec2k17/srv_69.champsimtrace.xz
Heartbeat CPU 0 instructions: 40000003 cycles: 11109076 heartbeat IPC: 3.60467 cumulative IPC: 3.60066 (Simulation time: 0 hr 2 min 30 sec) 
Heartbeat CPU 0 instructions: 50000003 cycles: 13889642 heartbeat IPC: 3.59639 cumulative IPC: 3.59981 (Simulation time: 0 hr 3 min 10 sec) 

Warmup complete CPU 0 instructions: 50000003 cycles: 13889642 (Simulation time: 0 hr 3 min 10 sec) 

Heartbeat CPU 0 instructions: 60000000 cycles: 37254809 heartbeat IPC: 0.427987 cumulative IPC: 0.427987 (Simulation time: 0 hr 4 min 2 sec) 
*** Reached end of trace for Core: 0 Repeating trace: traces/spec2k17/srv_69.champsimtrace.xz
Heartbeat CPU 0 instructions: 70000001 cycles: 60806195 heartbeat IPC: 0.424603 cumulative IPC: 0.426289 (Simulation time: 0 hr 4 min 48 sec) 
Heartbeat CPU 0 instructions: 80000000 cycles: 84657403 heartbeat IPC: 0.419266 cumulative IPC: 0.423922 (Simulation time: 0 hr 5 min 39 sec) 
Heartbeat CPU 0 instructions: 90000001 cycles: 108791073 heartbeat IPC: 0.414359 cumulative IPC: 0.42149 (Simulation time: 0 hr 6 min 38 sec) 
*** Reached end of trace for Core: 0 Repeating trace: traces/spec2k17/srv_69.champsimtrace.xz
Heartbeat CPU 0 instructions: 100000000 cycles: 132487033 heartbeat IPC: 0.422013 cumulative IPC: 0.421594 (Simulation time: 0 hr 7 min 27 sec) 
Heartbeat CPU 0 instructions: 110000000 cycles: 155944041 heartbeat IPC: 0.426312 cumulative IPC: 0.422373 (Simulation time: 0 hr 8 min 16 sec) 
Heartbeat CPU 0 instructions: 120000002 cycles: 180266912 heartbeat IPC: 0.411136 cumulative IPC: 0.420731 (Simulation time: 0 hr 9 min 9 sec) 
*** Reached end of trace for Core: 0 Repeating trace: traces/spec2k17/srv_69.champsimtrace.xz
Heartbeat CPU 0 instructions: 130000000 cycles: 203813235 heartbeat IPC: 0.424695 cumulative IPC: 0.421222 (Simulation time: 0 hr 10 min 8 sec) 
Heartbeat CPU 0 instructions: 140000003 cycles: 227890708 heartbeat IPC: 0.415326 cumulative IPC: 0.420559 (Simulation time: 0 hr 10 min 57 sec) 
Heartbeat CPU 0 instructions: 150000000 cycles: 251793098 heartbeat IPC: 0.418368 cumulative IPC: 0.420339 (Simulation time: 0 hr 11 min 49 sec) 
*** Reached end of trace for Core: 0 Repeating trace: traces/spec2k17/srv_69.champsimtrace.xz
Heartbeat CPU 0 instructions: 160000001 cycles: 275244839 heartbeat IPC: 0.426408 cumulative IPC: 0.420883 (Simulation time: 0 hr 12 min 50 sec) 
Heartbeat CPU 0 instructions: 170000000 cycles: 298914102 heartbeat IPC: 0.422489 cumulative IPC: 0.421016 (Simulation time: 0 hr 14 min 8 sec) 
Heartbeat CPU 0 instructions: 180000003 cycles: 323075605 heartbeat IPC: 0.413882 cumulative IPC: 0.420459 (Simulation time: 0 hr 15 min 21 sec) 
*** Reached end of trace for Core: 0 Repeating trace: traces/spec2k17/srv_69.champsimtrace.xz
Heartbeat CPU 0 instructions: 190000000 cycles: 346448252 heartbeat IPC: 0.42785 cumulative IPC: 0.420978 (Simulation time: 0 hr 16 min 34 sec) 
Heartbeat CPU 0 instructions: 200000000 cycles: 370319533 heartbeat IPC: 0.418913 cumulative IPC: 0.42084 (Simulation time: 0 hr 17 min 50 sec) 
Heartbeat CPU 0 instructions: 210000002 cycles: 394442151 heartbeat IPC: 0.414549 cumulative IPC: 0.420441 (Simulation time: 0 hr 18 min 56 sec) 
*** Reached end of trace for Core: 0 Repeating trace: traces/spec2k17/srv_69.champsimtrace.xz
Heartbeat CPU 0 instructions: 220000000 cycles: 417737682 heartbeat IPC: 0.429267 cumulative IPC: 0.42095 (Simulation time: 0 hr 19 min 50 sec) 
Heartbeat CPU 0 instructions: 230000003 cycles: 441765647 heartbeat IPC: 0.416182 cumulative IPC: 0.420683 (Simulation time: 0 hr 20 min 43 sec) 
Heartbeat CPU 0 instructions: 240000000 cycles: 465849269 heartbeat IPC: 0.41522 cumulative IPC: 0.420392 (Simulation time: 0 hr 21 min 51 sec) 
*** Reached end of trace for Core: 0 Repeating trace: traces/spec2k17/srv_69.champsimtrace.xz
Heartbeat CPU 0 instructions: 250000003 cycles: 488984161 heartbeat IPC: 0.432248 cumulative IPC: 0.420969 (Simulation time: 0 hr 22 min 42 sec) 
Finished CPU 0 instructions: 200000000 cycles: 475094519 cumulative IPC: 0.420969 (Simulation time: 0 hr 22 min 42 sec) 

ChampSim completed all CPUs

Region of Interest Statistics

CPU 0 cumulative IPC: 0.420969 instructions: 200000000 cycles: 475094519
ITLB TOTAL     ACCESS:   31682107  HIT:   30866643  MISS:     815464  HIT %:    97.4261  MISS %:    2.57389   MPKI: 4.07732
ITLB LOAD TRANSLATION ACCESS:   31682107  HIT:   30866643  MISS:     815464  HIT %:    97.4261  MISS %:    2.57389   MPKI: 4.07732
ITLB PREFETCH  REQUESTED:          0  ISSUED:          0  USEFUL:          0  USELESS:          0
ITLB USEFUL LOAD PREFETCHES:          0 PREFETCH ISSUED TO LOWER LEVEL:          0  ACCURACY: -nan
ITLB TIMELY PREFETCHES:          0 LATE PREFETCHES: 0 DROPPED PREFETCHES: 0
ITLB PREFETCHES SAME FILL-ORIGIN LEVEL: 0 DIFFERENT FILL-ORIGIN LEVEL: 0
ITLB AVERAGE MISS LATENCY: 15.4298 cycles
ITLB RQ	ACCESS:   38412593	FORWARD:          0	MERGED:    6538222	TO_CACHE:   31874371

DTLB TOTAL     ACCESS:   37914827  HIT:   35452561  MISS:    2462266  HIT %:    93.5058  MISS %:     6.4942   MPKI: 12.3113
DTLB LOAD TRANSLATION ACCESS:   37914827  HIT:   35452561  MISS:    2462266  HIT %:    93.5058  MISS %:     6.4942   MPKI: 12.3113
DTLB PREFETCH  REQUESTED:          0  ISSUED:          0  USEFUL:          0  USELESS:          0
DTLB USEFUL LOAD PREFETCHES:          0 PREFETCH ISSUED TO LOWER LEVEL:          0  ACCURACY: -nan
DTLB TIMELY PREFETCHES:          0 LATE PREFETCHES: 0 DROPPED PREFETCHES: 0
DTLB PREFETCHES SAME FILL-ORIGIN LEVEL: 0 DIFFERENT FILL-ORIGIN LEVEL: 0
DTLB AVERAGE MISS LATENCY: 14.2815 cycles
DTLB RQ	ACCESS:   48351715	FORWARD:          0	MERGED:   10292574	TO_CACHE:   38059141

STLB TOTAL     ACCESS:    3354094  HIT:    2900910  MISS:     453184  HIT %:    86.4886  MISS %:    13.5114   MPKI: 2.26592
STLB LOAD TRANSLATION ACCESS:    3277730  HIT:    2825542  MISS:     452188  HIT %:    86.2042  MISS %:    13.7958   MPKI: 2.26094
STLB TRANSLATION FROM L1D PREFETCHER ACCESS:      76364  HIT:      75368  MISS:        996  HIT %:    98.6957  MISS %:    1.30428   MPKI: 0.00498
STLB PREFETCH  REQUESTED:          0  ISSUED:          0  USEFUL:        916  USELESS:         80
STLB USEFUL LOAD PREFETCHES:        916 PREFETCH ISSUED TO LOWER LEVEL:          0  ACCURACY: inf
STLB TIMELY PREFETCHES:        916 LATE PREFETCHES: 66 DROPPED PREFETCHES: 1017
STLB PREFETCHES SAME FILL-ORIGIN LEVEL: 0 DIFFERENT FILL-ORIGIN LEVEL: 0
STLB AVERAGE MISS LATENCY: 40.2403 cycles
STLB RQ	ACCESS:    3600505	FORWARD:          0	MERGED:     245143	TO_CACHE:    3355362

STLB Hit, L1D data hit: 0
STLB Hit, L2C data hit: 0
STLB Hit, LLC data hit: 0
STLB Hit, LLC data miss: 0
STLB STLB hints to L2: 0
L1D TOTAL     ACCESS:   47975515  HIT:   45524266  MISS:    2451249  HIT %:    94.8906  MISS %:    5.10938   MPKI: 12.2562
L1D LOAD      ACCESS:   28296720  HIT:   26225823  MISS:    2070897  HIT %:    92.6815  MISS %:    7.31851   MPKI: 10.3545
L1D RFO       ACCESS:   19507814  HIT:   19164500  MISS:     343314  HIT %:    98.2401  MISS %:    1.75988   MPKI: 1.71657
L1D PREFETCH  ACCESS:     170981  HIT:     133943  MISS:      37038  HIT %:    78.3379  MISS %:    21.6621   MPKI: 0.18519
L1D PREFETCH  REQUESTED:     845082  ISSUED:     838483  USEFUL:      32976  USELESS:       4081
L1D USEFUL LOAD PREFETCHES:      32976 PREFETCH ISSUED TO LOWER LEVEL:     166783  ACCURACY: 19.7718
L1D TIMELY PREFETCHES:      32976 LATE PREFETCHES: 461 DROPPED PREFETCHES: 1727
L1D PREFETCHES SAME FILL-ORIGIN LEVEL: 37499 DIFFERENT FILL-ORIGIN LEVEL: 129284
L1D AVERAGE MISS LATENCY: 46.7955 cycles
L1D RQ	ACCESS:   42629204	FORWARD:          0	MERGED:   13983812	TO_CACHE:   28429161
L1D WQ	ACCESS:   20255400	FORWARD:     216231	MERGED:     332846	TO_CACHE:   19922554
L1D PQ	ACCESS:     515708	FORWARD:          0	MERGED:     192933	TO_CACHE:     322775

L1D UNIQUE REGIONS ACCESSED: 0
L1D REGIONS CONFLICTS: 0
L1D Cross Page Prefetch Requests: 63418
L1D Same Page Prefetch Requests: 602360
L1D ROI Sum of L1D PQ occupancy: 4839258
L1D PREFETCHES PUSHED FROM L2C: 0
L1I TOTAL     ACCESS:   36780494  HIT:   31721731  MISS:    5058763  HIT %:    86.2461  MISS %:    13.7539   MPKI: 25.2938
L1I LOAD      ACCESS:   36780494  HIT:   31721731  MISS:    5058763  HIT %:    86.2461  MISS %:    13.7539   MPKI: 25.2938
L1I PREFETCH  REQUESTED:          0  ISSUED:          0  USEFUL:          0  USELESS:          0
L1I USEFUL LOAD PREFETCHES:          0 PREFETCH ISSUED TO LOWER LEVEL:          0  ACCURACY: -nan
L1I TIMELY PREFETCHES:          0 LATE PREFETCHES: 0 DROPPED PREFETCHES: 0
L1I PREFETCHES SAME FILL-ORIGIN LEVEL: 0 DIFFERENT FILL-ORIGIN LEVEL: 0
L1I AVERAGE MISS LATENCY: 27.4829 cycles
L1I RQ	ACCESS:   57431713	FORWARD:          0	MERGED:   19019120	TO_CACHE:   38412593

BTB TOTAL     ACCESS:   23164671  HIT:   18167925  MISS:    4996746  HIT %:    78.4295  MISS %:    21.5705   MPKI: 24.9837
BTB BRANCH_DIRECT_JUMP	ACCESS:    1914726  HIT:    1629531  MISS:     285195
BTB BRANCH_INDIRECT	ACCESS:    9756590  HIT:    7380331  MISS:    2376259
BTB BRANCH_CONDITIONAL	ACCESS:    4774695  HIT:    4326607  MISS:     448088
BTB BRANCH_DIRECT_CALL	ACCESS:    2648257  HIT:    2097355  MISS:     550902
BTB BRANCH_INDIRECT_CALL	ACCESS:     697289  HIT:     631848  MISS:      65441
BTB BRANCH_RETURN	ACCESS:    3373114  HIT:    2102253  MISS:    1270861
BTB BRANCH_OTHER ACCESS:          0  HIT:          0  MISS:          0

L2C TOTAL     ACCESS:    9161452  HIT:    5443204  MISS:    3718248  HIT %:    59.4142  MISS %:    40.5858   MPKI: 18.5912
L2C LOAD      ACCESS:    7129080  HIT:    3914090  MISS:    3214990  HIT %:    54.9032  MISS %:    45.0968   MPKI: 16.075
L2C DATA LOAD MPKI: 5.32742
L2C INSTRUCTION LOAD MPKI: 10.7475
L2C RFO       ACCESS:     343314  HIT:     167843  MISS:     175471  HIT %:    48.8891  MISS %:    51.1109   MPKI: 0.877355
L2C PREFETCH  ACCESS:     151681  HIT:      89562  MISS:      62119  HIT %:    59.0463  MISS %:    40.9537   MPKI: 0.310595
L2C DATA PREFETCH MPKI: 0.310595
L2C INSTRUCTION PREFETCH MPKI: 0
L2C WRITEBACK ACCESS:     962324  HIT:     905231  MISS:      57093  HIT %:    94.0672  MISS %:    5.93283   MPKI: 0.285465
L2C LOAD TRANSLATION ACCESS:     572635  HIT:     364511  MISS:     208124  HIT %:     63.655  MISS %:     36.345   MPKI: 1.04062
L2C TRANSLATION FROM L1D PREFETCHER ACCESS:       2418  HIT:       1967  MISS:        451  HIT %:    81.3482  MISS %:    18.6518   MPKI: 0.002255
L2C PREFETCH  REQUESTED:          0  ISSUED:          0  USEFUL:      14027  USELESS:      48617
L2C USEFUL LOAD PREFETCHES:      14027 PREFETCH ISSUED TO LOWER LEVEL:      62714  ACCURACY: 22.3666
L2C TIMELY PREFETCHES:      14027 LATE PREFETCHES: 595 DROPPED PREFETCHES: 0
L2C PREFETCHES SAME FILL-ORIGIN LEVEL: 53322 DIFFERENT FILL-ORIGIN LEVEL: 0
L2C AVERAGE MISS LATENCY: 41.977 cycles
L2C RQ	ACCESS:    8047566	FORWARD:          0	MERGED:          0	TO_CACHE:    8047447
L2C WQ	ACCESS:     962324	FORWARD:        119	MERGED:          0	TO_CACHE:     962324
L2C PQ	ACCESS:     166783	FORWARD:          0	MERGED:        302	TO_CACHE:     166481

L2C Instructions Evicting Data 777130
L2C Translations Evicting Data 75945
L2C Data Evicting Data 485304
L2C Instructions Evicting Instructions 1248289
L2C Translations Evicting Instructions 122440
L2C Data Evicting Instructions 746558
L2C Instructions Evicting Translations 124086
L2C Translations Evicting Translations 10190
L2C Data Evicting Translations 71213
L2C Dense regions hint from L2: 0
PSCL5 TOTAL     ACCESS:     454201  HIT:     454201  MISS:          0  HIT %:        100  MISS %:          0   MPKI: 0
PSCL5 LOAD TRANSLATION ACCESS:     452122  HIT:     452122  MISS:          0  HIT %:        100  MISS %:          0   MPKI: 0
PSCL5 TRANSLATION FROM L1D PREFETCHER ACCESS:       2079  HIT:       2079  MISS:          0  HIT %:        100  MISS %:          0   MPKI: 0
PSCL5 PREFETCH  REQUESTED:          0  ISSUED:          0  USEFUL:          0  USELESS:          0
PSCL5 USEFUL LOAD PREFETCHES:          0 PREFETCH ISSUED TO LOWER LEVEL:          0  ACCURACY: -nan
PSCL5 TIMELY PREFETCHES:          0 LATE PREFETCHES: 0 DROPPED PREFETCHES: 0
PSCL5 PREFETCHES SAME FILL-ORIGIN LEVEL: 0 DIFFERENT FILL-ORIGIN LEVEL: 0

PSCL4 TOTAL     ACCESS:     424017  HIT:     422774  MISS:       1243  HIT %:    99.7069  MISS %:   0.293149   MPKI: 0.006215
PSCL4 LOAD TRANSLATION ACCESS:     422103  HIT:     420860  MISS:       1243  HIT %:    99.7055  MISS %:   0.294478   MPKI: 0.006215
PSCL4 TRANSLATION FROM L1D PREFETCHER ACCESS:       1914  HIT:       1914  MISS:          0  HIT %:        100  MISS %:          0   MPKI: 0
PSCL4 PREFETCH  REQUESTED:          0  ISSUED:          0  USEFUL:          0  USELESS:          0
PSCL4 USEFUL LOAD PREFETCHES:          0 PREFETCH ISSUED TO LOWER LEVEL:          0  ACCURACY: -nan
PSCL4 TIMELY PREFETCHES:          0 LATE PREFETCHES: 0 DROPPED PREFETCHES: 0
PSCL4 PREFETCHES SAME FILL-ORIGIN LEVEL: 0 DIFFERENT FILL-ORIGIN LEVEL: 0

PSCL3 TOTAL     ACCESS:     450652  HIT:     446838  MISS:       3814  HIT %:    99.1537  MISS %:   0.846329   MPKI: 0.01907
PSCL3 LOAD TRANSLATION ACCESS:     448573  HIT:     444759  MISS:       3814  HIT %:    99.1497  MISS %:   0.850252   MPKI: 0.01907
PSCL3 TRANSLATION FROM L1D PREFETCHER ACCESS:       2079  HIT:       2079  MISS:          0  HIT %:        100  MISS %:          0   MPKI: 0
PSCL3 PREFETCH  REQUESTED:          0  ISSUED:          0  USEFUL:          0  USELESS:          0
PSCL3 USEFUL LOAD PREFETCHES:          0 PREFETCH ISSUED TO LOWER LEVEL:          0  ACCURACY: -nan
PSCL3 TIMELY PREFETCHES:          0 LATE PREFETCHES: 0 DROPPED PREFETCHES: 0
PSCL3 PREFETCHES SAME FILL-ORIGIN LEVEL: 0 DIFFERENT FILL-ORIGIN LEVEL: 0

PSCL2 TOTAL     ACCESS:     453971  HIT:     338406  MISS:     115565  HIT %:    74.5435  MISS %:    25.4565   MPKI: 0.577825
PSCL2 LOAD TRANSLATION ACCESS:     452231  HIT:     336666  MISS:     115565  HIT %:    74.4456  MISS %:    25.5544   MPKI: 0.577825
PSCL2 TRANSLATION FROM L1D PREFETCHER ACCESS:       1740  HIT:       1740  MISS:          0  HIT %:        100  MISS %:          0   MPKI: 0
PSCL2 PREFETCH  REQUESTED:          0  ISSUED:          0  USEFUL:          0  USELESS:          0
PSCL2 USEFUL LOAD PREFETCHES:          0 PREFETCH ISSUED TO LOWER LEVEL:          0  ACCURACY: -nan
PSCL2 TIMELY PREFETCHES:          0 LATE PREFETCHES: 0 DROPPED PREFETCHES: 0
PSCL2 PREFETCHES SAME FILL-ORIGIN LEVEL: 0 DIFFERENT FILL-ORIGIN LEVEL: 0

LLC TOTAL     ACCESS:    4133585  HIT:    3828960  MISS:     304625  HIT %:    92.6305  MISS %:    7.36951   MPKI: 1.52313
LLC LOAD      ACCESS:    3214395  HIT:    2978453  MISS:     235942  HIT %:    92.6598  MISS %:    7.34017   MPKI: 1.17971
LLC RFO       ACCESS:     175470  HIT:     126566  MISS:      48904  HIT %:    72.1297  MISS %:    27.8703   MPKI: 0.24452
LLC PREFETCH  ACCESS:      62714  HIT:      53096  MISS:       9618  HIT %:    84.6637  MISS %:    15.3363   MPKI: 0.04809
LLC WRITEBACK ACCESS:     472431  HIT:     469020  MISS:       3411  HIT %:     99.278  MISS %:    0.72201   MPKI: 0.017055
LLC LOAD TRANSLATION ACCESS:     208124  HIT:     201631  MISS:       6493  HIT %:    96.8802  MISS %:    3.11977   MPKI: 0.032465
LLC TRANSLATION FROM L1D PREFETCHER ACCESS:        451  HIT:        194  MISS:        257  HIT %:    43.0155  MISS %:    56.9845   MPKI: 0.001285
LLC PREFETCH  REQUESTED:          0  ISSUED:          0  USEFUL:        954  USELESS:       8675
LLC USEFUL LOAD PREFETCHES:        954 PREFETCH ISSUED TO LOWER LEVEL:       9618  ACCURACY: 9.9189
LLC TIMELY PREFETCHES:        954 LATE PREFETCHES: 0 DROPPED PREFETCHES: 0
LLC PREFETCHES SAME FILL-ORIGIN LEVEL: 0 DIFFERENT FILL-ORIGIN LEVEL: 0
LLC AVERAGE MISS LATENCY: 151.819 cycles
LLC RQ	ACCESS:    3598441	FORWARD:          0	MERGED:          0	TO_CACHE:    3598440
LLC WQ	ACCESS:     472431	FORWARD:          1	MERGED:          0	TO_CACHE:     472431
LLC PQ	ACCESS:      62714	FORWARD:          0	MERGED:          0	TO_CACHE:      62714

LLC Dense regions hint to LLC: 0

RAW hits: 2748907
Loads Generated: 45378115
Loads sent to L1D: 42629204
Stores Generated: 20255404
Stores sent to L1D: 20255400
Major fault: 0 Minor fault: 5460
Allocated PAGES: 5460

DRAM Statistics
 CHANNEL 0
 RQ ROW_BUFFER_HIT:      55446  ROW_BUFFER_MISS:     245768
 DBUS_CONGESTED:        110
 WQ ROW_BUFFER_HIT:      29567  ROW_BUFFER_MISS:     177544  FULL:          0

 AVG_CONGESTED_CYCLE: 5
 All warmup complete: 2
Channel 0 Bank busy for read cycles: 0
Channel 0 Bank busy for write cycles: 0
Channel 0
Rank 0
0banks busy for read cycles: 419069447
0banks busy for write cycles: 115626
1banks busy for read cycles: 27304017
1banks busy for write cycles: 16365466
2banks busy for read cycles: 3975663
2banks busy for write cycles: 3788127
3banks busy for read cycles: 648646
3banks busy for write cycles: 1380262
4banks busy for read cycles: 256433
4banks busy for write cycles: 749768
5banks busy for read cycles: 105204
5banks busy for write cycles: 484750
6banks busy for read cycles: 65193
6banks busy for write cycles: 297619
7banks busy for read cycles: 34727
7banks busy for write cycles: 223942
8banks busy for read cycles: 31364
8banks busy for write cycles: 198266

CPU 0 Branch Prediction Accuracy: 99.7309% MPKI: 0.485 Average ROB Occupancy at Mispredict: 30.7152
Branch types
NOT_BRANCH: 163956016 81.978%
BRANCH_DIRECT_JUMP: 1914726 0.957363%
BRANCH_INDIRECT: 9756590 4.87829%
BRANCH_CONDITIONAL: 17653765 8.82688%
BRANCH_DIRECT_CALL: 2648257 1.32413%
BRANCH_INDIRECT_CALL: 697289 0.348645%
BRANCH_RETURN: 3373114 1.68656%
BRANCH_OTHER: 0 0%

DRAM PAGES: 1048576
Allocated PAGES: 5460
