
*** ChampSim Multicore Out-of-Order Simulator ***

Warmup Instructions: 50000000
Simulation Instructions: 200000000
Number of CPUs: 1
LLC sets: 2048
LLC ways: 16
Off-chip DRAM Size: 4096 MB Channels: 1 Width: 64-bit Data Rate: 6400 MT/s
CPU 0 runs traces/spec2k17/srv_25.champsimtrace.xz
.xz
BTB has LRU replacement policy
ITLB has LRU replacement policy
DTLB has LRU replacement policy
STLB has LRU replacement policy
L1I has LRU replacement policy
History Sets: 8
History Ways: 16
BERTI Size: 16
BERTI Stride Size: 16
L1D has LRU replacement policy
Initialize SRRIP state for L2C
Initialize DRRIP state for LLC
Heartbeat CPU 0 instructions: 10000002 cycles: 2837962 heartbeat IPC: 3.52366 cumulative IPC: 3.52366 (Simulation time: 0 hr 0 min 37 sec) 
Heartbeat CPU 0 instructions: 20000001 cycles: 5671774 heartbeat IPC: 3.52882 cumulative IPC: 3.52623 (Simulation time: 0 hr 1 min 14 sec) 
Heartbeat CPU 0 instructions: 30000002 cycles: 8500713 heartbeat IPC: 3.53489 cumulative IPC: 3.52912 (Simulation time: 0 hr 1 min 52 sec) 
*** Reached end of trace for Core: 0 Repeating trace: traces/spec2k17/srv_25.champsimtrace.xz
Heartbeat CPU 0 instructions: 40000002 cycles: 11329629 heartbeat IPC: 3.53492 cumulative IPC: 3.53057 (Simulation time: 0 hr 2 min 29 sec) 
Heartbeat CPU 0 instructions: 50000002 cycles: 14161200 heartbeat IPC: 3.53161 cumulative IPC: 3.53077 (Simulation time: 0 hr 3 min 3 sec) 

Warmup complete CPU 0 instructions: 50000002 cycles: 14161200 (Simulation time: 0 hr 3 min 3 sec) 

Heartbeat CPU 0 instructions: 60000002 cycles: 47054459 heartbeat IPC: 0.304014 cumulative IPC: 0.304014 (Simulation time: 0 hr 3 min 57 sec) 
*** Reached end of trace for Core: 0 Repeating trace: traces/spec2k17/srv_25.champsimtrace.xz
Heartbeat CPU 0 instructions: 70000001 cycles: 79900763 heartbeat IPC: 0.304448 cumulative IPC: 0.304231 (Simulation time: 0 hr 4 min 53 sec) 
Heartbeat CPU 0 instructions: 80000003 cycles: 113067334 heartbeat IPC: 0.301508 cumulative IPC: 0.303318 (Simulation time: 0 hr 5 min 50 sec) 
Heartbeat CPU 0 instructions: 90000001 cycles: 145935032 heartbeat IPC: 0.30425 cumulative IPC: 0.30355 (Simulation time: 0 hr 6 min 44 sec) 
*** Reached end of trace for Core: 0 Repeating trace: traces/spec2k17/srv_25.champsimtrace.xz
Heartbeat CPU 0 instructions: 100000002 cycles: 178742719 heartbeat IPC: 0.304807 cumulative IPC: 0.303801 (Simulation time: 0 hr 7 min 39 sec) 
Heartbeat CPU 0 instructions: 110000000 cycles: 211735425 heartbeat IPC: 0.303097 cumulative IPC: 0.303683 (Simulation time: 0 hr 8 min 42 sec) 
Heartbeat CPU 0 instructions: 120000000 cycles: 244581398 heartbeat IPC: 0.304451 cumulative IPC: 0.303793 (Simulation time: 0 hr 9 min 36 sec) 
*** Reached end of trace for Core: 0 Repeating trace: traces/spec2k17/srv_25.champsimtrace.xz
Heartbeat CPU 0 instructions: 130000000 cycles: 277361264 heartbeat IPC: 0.305065 cumulative IPC: 0.303951 (Simulation time: 0 hr 10 min 29 sec) 
Heartbeat CPU 0 instructions: 140000000 cycles: 310300491 heartbeat IPC: 0.303589 cumulative IPC: 0.303911 (Simulation time: 0 hr 11 min 26 sec) 
Heartbeat CPU 0 instructions: 150000000 cycles: 343153873 heartbeat IPC: 0.304383 cumulative IPC: 0.303958 (Simulation time: 0 hr 12 min 18 sec) 
*** Reached end of trace for Core: 0 Repeating trace: traces/spec2k17/srv_25.champsimtrace.xz
Heartbeat CPU 0 instructions: 160000000 cycles: 375850327 heartbeat IPC: 0.305844 cumulative IPC: 0.304129 (Simulation time: 0 hr 13 min 16 sec) 
Heartbeat CPU 0 instructions: 170000003 cycles: 408760673 heartbeat IPC: 0.303856 cumulative IPC: 0.304106 (Simulation time: 0 hr 14 min 16 sec) 
Heartbeat CPU 0 instructions: 180000000 cycles: 441711648 heartbeat IPC: 0.303481 cumulative IPC: 0.304058 (Simulation time: 0 hr 15 min 10 sec) 
*** Reached end of trace for Core: 0 Repeating trace: traces/spec2k17/srv_25.champsimtrace.xz
Heartbeat CPU 0 instructions: 190000001 cycles: 474391665 heartbeat IPC: 0.305997 cumulative IPC: 0.304195 (Simulation time: 0 hr 16 min 2 sec) 
Heartbeat CPU 0 instructions: 200000001 cycles: 507193978 heartbeat IPC: 0.304857 cumulative IPC: 0.304239 (Simulation time: 0 hr 17 min 2 sec) 
Heartbeat CPU 0 instructions: 210000000 cycles: 540245979 heartbeat IPC: 0.302554 cumulative IPC: 0.304133 (Simulation time: 0 hr 17 min 49 sec) 
*** Reached end of trace for Core: 0 Repeating trace: traces/spec2k17/srv_25.champsimtrace.xz
Heartbeat CPU 0 instructions: 220000000 cycles: 572846923 heartbeat IPC: 0.30674 cumulative IPC: 0.304286 (Simulation time: 0 hr 18 min 43 sec) 
Heartbeat CPU 0 instructions: 230000000 cycles: 605638604 heartbeat IPC: 0.304955 cumulative IPC: 0.304323 (Simulation time: 0 hr 19 min 31 sec) 
Heartbeat CPU 0 instructions: 240000003 cycles: 638751311 heartbeat IPC: 0.301999 cumulative IPC: 0.3042 (Simulation time: 0 hr 20 min 33 sec) 
Heartbeat CPU 0 instructions: 250000001 cycles: 671281379 heartbeat IPC: 0.307408 cumulative IPC: 0.304358 (Simulation time: 0 hr 21 min 27 sec) 
Finished CPU 0 instructions: 200000003 cycles: 657120180 cumulative IPC: 0.304358 (Simulation time: 0 hr 21 min 27 sec) 

ChampSim completed all CPUs

Region of Interest Statistics

CPU 0 cumulative IPC: 0.304358 instructions: 200000003 cycles: 657120180
ITLB TOTAL     ACCESS:   35342972  HIT:   33079554  MISS:    2263418  HIT %:    93.5958  MISS %:    6.40415   MPKI: 11.3171
ITLB LOAD TRANSLATION ACCESS:   35342972  HIT:   33079554  MISS:    2263418  HIT %:    93.5958  MISS %:    6.40415   MPKI: 11.3171
ITLB PREFETCH  REQUESTED:          0  ISSUED:          0  USEFUL:          0  USELESS:          0
ITLB USEFUL LOAD PREFETCHES:          0 PREFETCH ISSUED TO LOWER LEVEL:          0  ACCURACY: -nan
ITLB TIMELY PREFETCHES:          0 LATE PREFETCHES: 0 DROPPED PREFETCHES: 0
ITLB PREFETCHES SAME FILL-ORIGIN LEVEL: 0 DIFFERENT FILL-ORIGIN LEVEL: 0
ITLB AVERAGE MISS LATENCY: 9.11899 cycles
ITLB RQ	ACCESS:   41710354	FORWARD:          0	MERGED:    5823565	TO_CACHE:   35886789

DTLB TOTAL     ACCESS:   46000658  HIT:   43842838  MISS:    2157820  HIT %:    95.3092  MISS %:    4.69085   MPKI: 10.7891
DTLB LOAD TRANSLATION ACCESS:   46000658  HIT:   43842838  MISS:    2157820  HIT %:    95.3092  MISS %:    4.69085   MPKI: 10.7891
DTLB PREFETCH  REQUESTED:          0  ISSUED:          0  USEFUL:          0  USELESS:          0
DTLB USEFUL LOAD PREFETCHES:          0 PREFETCH ISSUED TO LOWER LEVEL:          0  ACCURACY: -nan
DTLB TIMELY PREFETCHES:          0 LATE PREFETCHES: 0 DROPPED PREFETCHES: 0
DTLB PREFETCHES SAME FILL-ORIGIN LEVEL: 0 DIFFERENT FILL-ORIGIN LEVEL: 0
DTLB AVERAGE MISS LATENCY: 10.3214 cycles
DTLB RQ	ACCESS:   60844880	FORWARD:          0	MERGED:   14782460	TO_CACHE:   46062420

STLB TOTAL     ACCESS:    4867183  HIT:    4811232  MISS:      55951  HIT %:    98.8504  MISS %:    1.14956   MPKI: 0.279755
STLB LOAD TRANSLATION ACCESS:    4421237  HIT:    4365356  MISS:      55881  HIT %:    98.7361  MISS %:    1.26392   MPKI: 0.279405
STLB TRANSLATION FROM L1D PREFETCHER ACCESS:     445946  HIT:     445876  MISS:         70  HIT %:    99.9843  MISS %:   0.015697   MPKI: 0.00035
STLB PREFETCH  REQUESTED:          0  ISSUED:          0  USEFUL:         34  USELESS:         36
STLB USEFUL LOAD PREFETCHES:         34 PREFETCH ISSUED TO LOWER LEVEL:          0  ACCURACY: inf
STLB TIMELY PREFETCHES:         34 LATE PREFETCHES: 0 DROPPED PREFETCHES: 8760
STLB PREFETCHES SAME FILL-ORIGIN LEVEL: 0 DIFFERENT FILL-ORIGIN LEVEL: 0
STLB AVERAGE MISS LATENCY: 55.3006 cycles
STLB RQ	ACCESS:    7919407	FORWARD:          0	MERGED:    3043385	TO_CACHE:    4876022

STLB Hit, L1D data hit: 0
STLB Hit, L2C data hit: 0
STLB Hit, LLC data hit: 0
STLB Hit, LLC data miss: 0
STLB STLB hints to L2: 0
L1D TOTAL     ACCESS:   61447935  HIT:   56320654  MISS:    5127281  HIT %:    91.6559  MISS %:    8.34411   MPKI: 25.6364
L1D LOAD      ACCESS:   33853744  HIT:   30397043  MISS:    3456701  HIT %:    89.7893  MISS %:    10.2107   MPKI: 17.2835
L1D RFO       ACCESS:   25067590  HIT:   23860495  MISS:    1207095  HIT %:    95.1846  MISS %:    4.81536   MPKI: 6.03547
L1D PREFETCH  ACCESS:    2526601  HIT:    2063116  MISS:     463485  HIT %:    81.6558  MISS %:    18.3442   MPKI: 2.31742
L1D PREFETCH  REQUESTED:    7648554  ISSUED:    7561280  USEFUL:     317833  USELESS:     145652
L1D USEFUL LOAD PREFETCHES:     317833 PREFETCH ISSUED TO LOWER LEVEL:    1404927  ACCURACY: 22.6227
L1D TIMELY PREFETCHES:     317833 LATE PREFETCHES: 8340 DROPPED PREFETCHES: 17498
L1D PREFETCHES SAME FILL-ORIGIN LEVEL: 471825 DIFFERENT FILL-ORIGIN LEVEL: 933102
L1D AVERAGE MISS LATENCY: 18.8421 cycles
L1D RQ	ACCESS:   46555091	FORWARD:          0	MERGED:   12236067	TO_CACHE:   33995490
L1D WQ	ACCESS:   26999502	FORWARD:     323534	MERGED:     150112	TO_CACHE:   26849390
L1D PQ	ACCESS:    4063110	FORWARD:          0	MERGED:     564940	TO_CACHE:    3498170

L1D UNIQUE REGIONS ACCESSED: 0
L1D REGIONS CONFLICTS: 0
L1D Cross Page Prefetch Requests: 643469
L1D Same Page Prefetch Requests: 4387919
L1D ROI Sum of L1D PQ occupancy: 51725214
L1D PREFETCHES PUSHED FROM L2C: 0
L1I TOTAL     ACCESS:   40014806  HIT:   28514052  MISS:   11500754  HIT %:    71.2588  MISS %:    28.7412   MPKI: 57.5038
L1I LOAD      ACCESS:   40014806  HIT:   28514052  MISS:   11500754  HIT %:    71.2588  MISS %:    28.7412   MPKI: 57.5038
L1I PREFETCH  REQUESTED:          0  ISSUED:          0  USEFUL:          0  USELESS:          0
L1I USEFUL LOAD PREFETCHES:          0 PREFETCH ISSUED TO LOWER LEVEL:          0  ACCURACY: -nan
L1I TIMELY PREFETCHES:          0 LATE PREFETCHES: 0 DROPPED PREFETCHES: 0
L1I PREFETCHES SAME FILL-ORIGIN LEVEL: 0 DIFFERENT FILL-ORIGIN LEVEL: 0
L1I AVERAGE MISS LATENCY: 15.6915 cycles
L1I RQ	ACCESS:   58673574	FORWARD:          0	MERGED:   16963220	TO_CACHE:   41710354

BTB TOTAL     ACCESS:   30550565  HIT:   17847955  MISS:   12702610  HIT %:     58.421  MISS %:     41.579   MPKI: 63.513
BTB BRANCH_DIRECT_JUMP	ACCESS:    2073765  HIT:    1256441  MISS:     817324
BTB BRANCH_INDIRECT	ACCESS:   12278071  HIT:    7369228  MISS:    4908843
BTB BRANCH_CONDITIONAL	ACCESS:    6949199  HIT:    5659195  MISS:    1290004
BTB BRANCH_DIRECT_CALL	ACCESS:    3898896  HIT:    1843151  MISS:    2055745
BTB BRANCH_INDIRECT_CALL	ACCESS:     725884  HIT:     351632  MISS:     374252
BTB BRANCH_RETURN	ACCESS:    4624750  HIT:    1368308  MISS:    3256442
BTB BRANCH_OTHER ACCESS:          0  HIT:          0  MISS:          0

L2C TOTAL     ACCESS:   19935517  HIT:   18786163  MISS:    1149354  HIT %:    94.2346  MISS %:    5.76536   MPKI: 5.74677
L2C LOAD      ACCESS:   14949015  HIT:   13989053  MISS:     959962  HIT %:    93.5784  MISS %:    6.42157   MPKI: 4.79981
L2C DATA LOAD MPKI: 1.73204
L2C INSTRUCTION LOAD MPKI: 3.06777
L2C RFO       ACCESS:    1207095  HIT:    1131785  MISS:      75310  HIT %:    93.7611  MISS %:    6.23895   MPKI: 0.37655
L2C PREFETCH  ACCESS:    1398490  HIT:    1357722  MISS:      40768  HIT %:    97.0849  MISS %:    2.91514   MPKI: 0.20384
L2C DATA PREFETCH MPKI: 0.20384
L2C INSTRUCTION PREFETCH MPKI: 0
L2C WRITEBACK ACCESS:    2279337  HIT:    2249107  MISS:      30230  HIT %:    98.6737  MISS %:    1.32626   MPKI: 0.15115
L2C LOAD TRANSLATION ACCESS:      85047  HIT:      42537  MISS:      42510  HIT %:    50.0159  MISS %:    49.9841   MPKI: 0.21255
L2C TRANSLATION FROM L1D PREFETCHER ACCESS:      16533  HIT:      15959  MISS:        574  HIT %:    96.5282  MISS %:    3.47184   MPKI: 0.00287
L2C PREFETCH  REQUESTED:          0  ISSUED:          0  USEFUL:       1685  USELESS:      39772
L2C USEFUL LOAD PREFETCHES:       1685 PREFETCH ISSUED TO LOWER LEVEL:      41696  ACCURACY: 4.04116
L2C TIMELY PREFETCHES:       1685 LATE PREFETCHES: 928 DROPPED PREFETCHES: 0
L2C PREFETCHES SAME FILL-ORIGIN LEVEL: 25107 DIFFERENT FILL-ORIGIN LEVEL: 0
L2C AVERAGE MISS LATENCY: 35.4898 cycles
L2C RQ	ACCESS:   16257790	FORWARD:          0	MERGED:          0	TO_CACHE:   16257690
L2C WQ	ACCESS:    2279337	FORWARD:        100	MERGED:          0	TO_CACHE:    2279337
L2C PQ	ACCESS:    1404927	FORWARD:          0	MERGED:        927	TO_CACHE:    1404000

L2C Instructions Evicting Data 209341
L2C Translations Evicting Data 28520
L2C Data Evicting Data 244917
L2C Instructions Evicting Instructions 393357
L2C Translations Evicting Instructions 10905
L2C Data Evicting Instructions 189220
L2C Instructions Evicting Translations 10856
L2C Translations Evicting Translations 3659
L2C Data Evicting Translations 28349
L2C Dense regions hint from L2: 0
PSCL5 TOTAL     ACCESS:      64711  HIT:      64711  MISS:          0  HIT %:        100  MISS %:          0   MPKI: 0
PSCL5 LOAD TRANSLATION ACCESS:      55881  HIT:      55881  MISS:          0  HIT %:        100  MISS %:          0   MPKI: 0
PSCL5 TRANSLATION FROM L1D PREFETCHER ACCESS:       8830  HIT:       8830  MISS:          0  HIT %:        100  MISS %:          0   MPKI: 0
PSCL5 PREFETCH  REQUESTED:          0  ISSUED:          0  USEFUL:          0  USELESS:          0
PSCL5 USEFUL LOAD PREFETCHES:          0 PREFETCH ISSUED TO LOWER LEVEL:          0  ACCURACY: -nan
PSCL5 TIMELY PREFETCHES:          0 LATE PREFETCHES: 0 DROPPED PREFETCHES: 0
PSCL5 PREFETCHES SAME FILL-ORIGIN LEVEL: 0 DIFFERENT FILL-ORIGIN LEVEL: 0

PSCL4 TOTAL     ACCESS:      63172  HIT:      62471  MISS:        701  HIT %:    98.8903  MISS %:    1.10967   MPKI: 0.003505
PSCL4 LOAD TRANSLATION ACCESS:      54620  HIT:      53919  MISS:        701  HIT %:    98.7166  MISS %:    1.28341   MPKI: 0.003505
PSCL4 TRANSLATION FROM L1D PREFETCHER ACCESS:       8552  HIT:       8552  MISS:          0  HIT %:        100  MISS %:          0   MPKI: 0
PSCL4 PREFETCH  REQUESTED:          0  ISSUED:          0  USEFUL:          0  USELESS:          0
PSCL4 USEFUL LOAD PREFETCHES:          0 PREFETCH ISSUED TO LOWER LEVEL:          0  ACCURACY: -nan
PSCL4 TIMELY PREFETCHES:          0 LATE PREFETCHES: 0 DROPPED PREFETCHES: 0
PSCL4 PREFETCHES SAME FILL-ORIGIN LEVEL: 0 DIFFERENT FILL-ORIGIN LEVEL: 0

PSCL3 TOTAL     ACCESS:      64470  HIT:      63769  MISS:        701  HIT %:    98.9127  MISS %:    1.08733   MPKI: 0.003505
PSCL3 LOAD TRANSLATION ACCESS:      55712  HIT:      55011  MISS:        701  HIT %:    98.7417  MISS %:    1.25826   MPKI: 0.003505
PSCL3 TRANSLATION FROM L1D PREFETCHER ACCESS:       8758  HIT:       8758  MISS:          0  HIT %:        100  MISS %:          0   MPKI: 0
PSCL3 PREFETCH  REQUESTED:          0  ISSUED:          0  USEFUL:          0  USELESS:          0
PSCL3 USEFUL LOAD PREFETCHES:          0 PREFETCH ISSUED TO LOWER LEVEL:          0  ACCURACY: -nan
PSCL3 TIMELY PREFETCHES:          0 LATE PREFETCHES: 0 DROPPED PREFETCHES: 0
PSCL3 PREFETCHES SAME FILL-ORIGIN LEVEL: 0 DIFFERENT FILL-ORIGIN LEVEL: 0

PSCL2 TOTAL     ACCESS:      57162  HIT:      29368  MISS:      27794  HIT %:    51.3768  MISS %:    48.6232   MPKI: 0.13897
PSCL2 LOAD TRANSLATION ACCESS:      55911  HIT:      28117  MISS:      27794  HIT %:    50.2889  MISS %:    49.7111   MPKI: 0.13897
PSCL2 TRANSLATION FROM L1D PREFETCHER ACCESS:       1251  HIT:       1251  MISS:          0  HIT %:        100  MISS %:          0   MPKI: 0
PSCL2 PREFETCH  REQUESTED:          0  ISSUED:          0  USEFUL:          0  USELESS:          0
PSCL2 USEFUL LOAD PREFETCHES:          0 PREFETCH ISSUED TO LOWER LEVEL:          0  ACCURACY: -nan
PSCL2 TIMELY PREFETCHES:          0 LATE PREFETCHES: 0 DROPPED PREFETCHES: 0
PSCL2 PREFETCHES SAME FILL-ORIGIN LEVEL: 0 DIFFERENT FILL-ORIGIN LEVEL: 0

LLC TOTAL     ACCESS:    1222924  HIT:    1171344  MISS:      51580  HIT %:    95.7822  MISS %:    4.21776   MPKI: 0.2579
LLC LOAD      ACCESS:     959047  HIT:     916380  MISS:      42667  HIT %:    95.5511  MISS %:     4.4489   MPKI: 0.213335
LLC RFO       ACCESS:      75297  HIT:      71700  MISS:       3597  HIT %:    95.2229  MISS %:    4.77708   MPKI: 0.017985
LLC PREFETCH  ACCESS:      41696  HIT:      38955  MISS:       2741  HIT %:    93.4262  MISS %:    6.57377   MPKI: 0.013705
LLC WRITEBACK ACCESS:     103800  HIT:     103654  MISS:        146  HIT %:    99.8593  MISS %:   0.140655   MPKI: 0.00073
LLC LOAD TRANSLATION ACCESS:      42510  HIT:      40117  MISS:       2393  HIT %:    94.3707  MISS %:    5.62926   MPKI: 0.011965
LLC TRANSLATION FROM L1D PREFETCHER ACCESS:        574  HIT:        538  MISS:         36  HIT %:    93.7282  MISS %:    6.27178   MPKI: 0.00018
LLC PREFETCH  REQUESTED:          0  ISSUED:          0  USEFUL:        446  USELESS:       3065
LLC USEFUL LOAD PREFETCHES:        446 PREFETCH ISSUED TO LOWER LEVEL:       2741  ACCURACY: 16.2714
LLC TIMELY PREFETCHES:        446 LATE PREFETCHES: 0 DROPPED PREFETCHES: 0
LLC PREFETCHES SAME FILL-ORIGIN LEVEL: 0 DIFFERENT FILL-ORIGIN LEVEL: 0
LLC AVERAGE MISS LATENCY: 139.902 cycles
LLC RQ	ACCESS:    1077428	FORWARD:          0	MERGED:          0	TO_CACHE:    1077428
LLC WQ	ACCESS:     103800	FORWARD:          0	MERGED:          0	TO_CACHE:     103800
LLC PQ	ACCESS:      41696	FORWARD:          0	MERGED:          0	TO_CACHE:      41696

LLC Dense regions hint to LLC: 0

RAW hits: 1439417
Loads Generated: 47994507
Loads sent to L1D: 46555091
Stores Generated: 26999505
Stores sent to L1D: 26999502
Major fault: 0 Minor fault: 4375
Allocated PAGES: 4375

DRAM Statistics
 CHANNEL 0
 RQ ROW_BUFFER_HIT:      16533  ROW_BUFFER_MISS:      34901
 DBUS_CONGESTED:         29
 WQ ROW_BUFFER_HIT:        411  ROW_BUFFER_MISS:       3833  FULL:          0

 AVG_CONGESTED_CYCLE: 5
 All warmup complete: 2
Channel 0 Bank busy for read cycles: 0
Channel 0 Bank busy for write cycles: 0
Channel 0
Rank 0
0banks busy for read cycles: 652080177
0banks busy for write cycles: 3233
1banks busy for read cycles: 3644916
1banks busy for write cycles: 474917
2banks busy for read cycles: 455427
2banks busy for write cycles: 60309
3banks busy for read cycles: 159379
3banks busy for write cycles: 22184
4banks busy for read cycles: 94587
4banks busy for write cycles: 7907
5banks busy for read cycles: 54520
5banks busy for write cycles: 3644
6banks busy for read cycles: 31403
6banks busy for write cycles: 1331
7banks busy for read cycles: 19001
7banks busy for write cycles: 142
8banks busy for read cycles: 6961
8banks busy for write cycles: 143

CPU 0 Branch Prediction Accuracy: 99.8132% MPKI: 0.33529 Average ROB Occupancy at Mispredict: 48.7767
Branch types
NOT_BRANCH: 164101728 82.0509%
BRANCH_DIRECT_JUMP: 2073765 1.03688%
BRANCH_INDIRECT: 12278071 6.13904%
BRANCH_CONDITIONAL: 12296955 6.14848%
BRANCH_DIRECT_CALL: 3898896 1.94945%
BRANCH_INDIRECT_CALL: 725884 0.362942%
BRANCH_RETURN: 4624750 2.31237%
BRANCH_OTHER: 0 0%

DRAM PAGES: 1048576
Allocated PAGES: 4375
