
*** ChampSim Multicore Out-of-Order Simulator ***

Warmup Instructions: 50000000
Simulation Instructions: 200000000
Number of CPUs: 1
LLC sets: 2048
LLC ways: 16
Off-chip DRAM Size: 4096 MB Channels: 1 Width: 64-bit Data Rate: 6400 MT/s
CPU 0 runs traces/spec2k17/srv_57.champsimtrace.xz
.xz
BTB has LRU replacement policy
ITLB has LRU replacement policy
DTLB has LRU replacement policy
STLB has LRU replacement policy
L1I has LRU replacement policy
History Sets: 8
History Ways: 16
BERTI Size: 16
BERTI Stride Size: 16
L1D has LRU replacement policy
Initialize SRRIP state for L2C
Initialize DRRIP state for LLC
Heartbeat CPU 0 instructions: 10000001 cycles: 2832561 heartbeat IPC: 3.53037 cumulative IPC: 3.53037 (Simulation time: 0 hr 0 min 45 sec) 
Heartbeat CPU 0 instructions: 20000001 cycles: 5623758 heartbeat IPC: 3.58269 cumulative IPC: 3.55634 (Simulation time: 0 hr 1 min 26 sec) 
Heartbeat CPU 0 instructions: 30000002 cycles: 8431182 heartbeat IPC: 3.56198 cumulative IPC: 3.55822 (Simulation time: 0 hr 2 min 10 sec) 
*** Reached end of trace for Core: 0 Repeating trace: traces/spec2k17/srv_57.champsimtrace.xz
Heartbeat CPU 0 instructions: 40000002 cycles: 11254270 heartbeat IPC: 3.54222 cumulative IPC: 3.55421 (Simulation time: 0 hr 2 min 54 sec) 
Heartbeat CPU 0 instructions: 50000002 cycles: 14036143 heartbeat IPC: 3.5947 cumulative IPC: 3.56223 (Simulation time: 0 hr 3 min 35 sec) 

Warmup complete CPU 0 instructions: 50000002 cycles: 14036143 (Simulation time: 0 hr 3 min 35 sec) 

Heartbeat CPU 0 instructions: 60000003 cycles: 30545880 heartbeat IPC: 0.605703 cumulative IPC: 0.605703 (Simulation time: 0 hr 4 min 25 sec) 
*** Reached end of trace for Core: 0 Repeating trace: traces/spec2k17/srv_57.champsimtrace.xz
Heartbeat CPU 0 instructions: 70000000 cycles: 47034062 heartbeat IPC: 0.606495 cumulative IPC: 0.606099 (Simulation time: 0 hr 5 min 20 sec) 
Heartbeat CPU 0 instructions: 80000001 cycles: 64196529 heartbeat IPC: 0.582667 cumulative IPC: 0.598082 (Simulation time: 0 hr 6 min 8 sec) 
Heartbeat CPU 0 instructions: 90000000 cycles: 80598165 heartbeat IPC: 0.609695 cumulative IPC: 0.600943 (Simulation time: 0 hr 6 min 56 sec) 
*** Reached end of trace for Core: 0 Repeating trace: traces/spec2k17/srv_57.champsimtrace.xz
Heartbeat CPU 0 instructions: 100000002 cycles: 96817281 heartbeat IPC: 0.616557 cumulative IPC: 0.604002 (Simulation time: 0 hr 7 min 35 sec) 
Heartbeat CPU 0 instructions: 110000000 cycles: 114033458 heartbeat IPC: 0.580849 cumulative IPC: 0.600016 (Simulation time: 0 hr 8 min 21 sec) 
Heartbeat CPU 0 instructions: 120000003 cycles: 130474776 heartbeat IPC: 0.608224 cumulative IPC: 0.601175 (Simulation time: 0 hr 9 min 9 sec) 
*** Reached end of trace for Core: 0 Repeating trace: traces/spec2k17/srv_57.champsimtrace.xz
Heartbeat CPU 0 instructions: 130000003 cycles: 146888408 heartbeat IPC: 0.60925 cumulative IPC: 0.602173 (Simulation time: 0 hr 9 min 59 sec) 
Heartbeat CPU 0 instructions: 140000000 cycles: 163864500 heartbeat IPC: 0.589064 cumulative IPC: 0.600687 (Simulation time: 0 hr 10 min 51 sec) 
Heartbeat CPU 0 instructions: 150000000 cycles: 180235484 heartbeat IPC: 0.610837 cumulative IPC: 0.601687 (Simulation time: 0 hr 11 min 42 sec) 
*** Reached end of trace for Core: 0 Repeating trace: traces/spec2k17/srv_57.champsimtrace.xz
Heartbeat CPU 0 instructions: 160000001 cycles: 196964232 heartbeat IPC: 0.597773 cumulative IPC: 0.601329 (Simulation time: 0 hr 12 min 29 sec) 
Heartbeat CPU 0 instructions: 170000000 cycles: 213656344 heartbeat IPC: 0.599085 cumulative IPC: 0.601142 (Simulation time: 0 hr 13 min 18 sec) 
Heartbeat CPU 0 instructions: 180000000 cycles: 230042953 heartbeat IPC: 0.610254 cumulative IPC: 0.601833 (Simulation time: 0 hr 14 min 5 sec) 
*** Reached end of trace for Core: 0 Repeating trace: traces/spec2k17/srv_57.champsimtrace.xz
Heartbeat CPU 0 instructions: 190000002 cycles: 246939292 heartbeat IPC: 0.591844 cumulative IPC: 0.601108 (Simulation time: 0 hr 14 min 57 sec) 
Heartbeat CPU 0 instructions: 200000000 cycles: 263564654 heartbeat IPC: 0.601491 cumulative IPC: 0.601134 (Simulation time: 0 hr 15 min 44 sec) 
Heartbeat CPU 0 instructions: 210000001 cycles: 279910742 heartbeat IPC: 0.611767 cumulative IPC: 0.601787 (Simulation time: 0 hr 16 min 32 sec) 
*** Reached end of trace for Core: 0 Repeating trace: traces/spec2k17/srv_57.champsimtrace.xz
Heartbeat CPU 0 instructions: 220000000 cycles: 296953430 heartbeat IPC: 0.586762 cumulative IPC: 0.600882 (Simulation time: 0 hr 17 min 22 sec) 
Heartbeat CPU 0 instructions: 230000000 cycles: 313414228 heartbeat IPC: 0.607504 cumulative IPC: 0.601246 (Simulation time: 0 hr 18 min 12 sec) 
Heartbeat CPU 0 instructions: 240000002 cycles: 329570606 heartbeat IPC: 0.618951 cumulative IPC: 0.602153 (Simulation time: 0 hr 19 min 3 sec) 
*** Reached end of trace for Core: 0 Repeating trace: traces/spec2k17/srv_57.champsimtrace.xz
Heartbeat CPU 0 instructions: 250000000 cycles: 346762306 heartbeat IPC: 0.581676 cumulative IPC: 0.601095 (Simulation time: 0 hr 19 min 51 sec) 
Finished CPU 0 instructions: 200000002 cycles: 332726164 cumulative IPC: 0.601095 (Simulation time: 0 hr 19 min 51 sec) 

ChampSim completed all CPUs

Region of Interest Statistics

CPU 0 cumulative IPC: 0.601095 instructions: 200000002 cycles: 332726164
ITLB TOTAL     ACCESS:   34737784  HIT:   33899611  MISS:     838173  HIT %:    97.5871  MISS %:    2.41286   MPKI: 4.19086
ITLB LOAD TRANSLATION ACCESS:   34737784  HIT:   33899611  MISS:     838173  HIT %:    97.5871  MISS %:    2.41286   MPKI: 4.19086
ITLB PREFETCH  REQUESTED:          0  ISSUED:          0  USEFUL:          0  USELESS:          0
ITLB USEFUL LOAD PREFETCHES:          0 PREFETCH ISSUED TO LOWER LEVEL:          0  ACCURACY: -nan
ITLB TIMELY PREFETCHES:          0 LATE PREFETCHES: 0 DROPPED PREFETCHES: 0
ITLB PREFETCHES SAME FILL-ORIGIN LEVEL: 0 DIFFERENT FILL-ORIGIN LEVEL: 0
ITLB AVERAGE MISS LATENCY: 9.34452 cycles
ITLB RQ	ACCESS:   39585908	FORWARD:          0	MERGED:    4554522	TO_CACHE:   35031386

DTLB TOTAL     ACCESS:   40556280  HIT:   39616596  MISS:     939684  HIT %:     97.683  MISS %:    2.31699   MPKI: 4.69842
DTLB LOAD TRANSLATION ACCESS:   40556280  HIT:   39616596  MISS:     939684  HIT %:     97.683  MISS %:    2.31699   MPKI: 4.69842
DTLB PREFETCH  REQUESTED:          0  ISSUED:          0  USEFUL:          0  USELESS:          0
DTLB USEFUL LOAD PREFETCHES:          0 PREFETCH ISSUED TO LOWER LEVEL:          0  ACCURACY: -nan
DTLB TIMELY PREFETCHES:          0 LATE PREFETCHES: 0 DROPPED PREFETCHES: 0
DTLB PREFETCHES SAME FILL-ORIGIN LEVEL: 0 DIFFERENT FILL-ORIGIN LEVEL: 0
DTLB AVERAGE MISS LATENCY: 16.5515 cycles
DTLB RQ	ACCESS:   55808017	FORWARD:          0	MERGED:   15197725	TO_CACHE:   40610292

STLB TOTAL     ACCESS:    2414999  HIT:    2341451  MISS:      73548  HIT %:    96.9545  MISS %:    3.04547   MPKI: 0.36774
STLB LOAD TRANSLATION ACCESS:    1777857  HIT:    1704587  MISS:      73270  HIT %:    95.8787  MISS %:    4.12125   MPKI: 0.36635
STLB TRANSLATION FROM L1D PREFETCHER ACCESS:     637142  HIT:     636864  MISS:        278  HIT %:    99.9564  MISS %:  0.0436323   MPKI: 0.00139
STLB PREFETCH  REQUESTED:          0  ISSUED:          0  USEFUL:        264  USELESS:         14
STLB USEFUL LOAD PREFETCHES:        264 PREFETCH ISSUED TO LOWER LEVEL:          0  ACCURACY: inf
STLB TIMELY PREFETCHES:        264 LATE PREFETCHES: 0 DROPPED PREFETCHES: 6897
STLB PREFETCHES SAME FILL-ORIGIN LEVEL: 0 DIFFERENT FILL-ORIGIN LEVEL: 0
STLB AVERAGE MISS LATENCY: 100.435 cycles
STLB RQ	ACCESS:    4193494	FORWARD:          0	MERGED:    1767972	TO_CACHE:    2425522

STLB Hit, L1D data hit: 0
STLB Hit, L2C data hit: 0
STLB Hit, LLC data hit: 0
STLB Hit, LLC data miss: 0
STLB STLB hints to L2: 0
L1D TOTAL     ACCESS:   57194331  HIT:   55871903  MISS:    1322428  HIT %:    97.6878  MISS %:    2.31217   MPKI: 6.61214
L1D LOAD      ACCESS:   33595402  HIT:   32694853  MISS:     900549  HIT %:    97.3194  MISS %:    2.68057   MPKI: 4.50274
L1D RFO       ACCESS:   21657891  HIT:   21316589  MISS:     341302  HIT %:    98.4241  MISS %:    1.57588   MPKI: 1.70651
L1D PREFETCH  ACCESS:    1941038  HIT:    1860461  MISS:      80577  HIT %:    95.8488  MISS %:    4.15123   MPKI: 0.402885
L1D PREFETCH  REQUESTED:    5929700  ISSUED:    5890490  USEFUL:      68342  USELESS:      12200
L1D USEFUL LOAD PREFETCHES:      68342 PREFETCH ISSUED TO LOWER LEVEL:     511663  ACCURACY: 13.3568
L1D TIMELY PREFETCHES:      68342 LATE PREFETCHES: 5930 DROPPED PREFETCHES: 18167
L1D PREFETCHES SAME FILL-ORIGIN LEVEL: 86507 DIFFERENT FILL-ORIGIN LEVEL: 425156
L1D AVERAGE MISS LATENCY: 37.0284 cycles
L1D RQ	ACCESS:   48187122	FORWARD:          0	MERGED:   14267377	TO_CACHE:   33642206
L1D WQ	ACCESS:   22465122	FORWARD:     277542	MERGED:     299311	TO_CACHE:   22165811
L1D PQ	ACCESS:    3474853	FORWARD:          0	MERGED:    1059213	TO_CACHE:    2415637

L1D UNIQUE REGIONS ACCESSED: 0
L1D REGIONS CONFLICTS: 0
L1D Cross Page Prefetch Requests: 1050167
L1D Same Page Prefetch Requests: 3284795
L1D ROI Sum of L1D PQ occupancy: 33744176
L1D PREFETCHES PUSHED FROM L2C: 0
L1I TOTAL     ACCESS:   39118567  HIT:   36593549  MISS:    2525018  HIT %:    93.5452  MISS %:    6.45478   MPKI: 12.6251
L1I LOAD      ACCESS:   39118567  HIT:   36593549  MISS:    2525018  HIT %:    93.5452  MISS %:    6.45478   MPKI: 12.6251
L1I PREFETCH  REQUESTED:          0  ISSUED:          0  USEFUL:          0  USELESS:          0
L1I USEFUL LOAD PREFETCHES:          0 PREFETCH ISSUED TO LOWER LEVEL:          0  ACCURACY: -nan
L1I TIMELY PREFETCHES:          0 LATE PREFETCHES: 0 DROPPED PREFETCHES: 0
L1I PREFETCHES SAME FILL-ORIGIN LEVEL: 0 DIFFERENT FILL-ORIGIN LEVEL: 0
L1I AVERAGE MISS LATENCY: 18.1904 cycles
L1I RQ	ACCESS:   62213219	FORWARD:          0	MERGED:   22627311	TO_CACHE:   39585908

BTB TOTAL     ACCESS:   32784881  HIT:   29386582  MISS:    3398299  HIT %:    89.6346  MISS %:    10.3654   MPKI: 16.9915
BTB BRANCH_DIRECT_JUMP	ACCESS:    3353840  HIT:    3191984  MISS:     161856
BTB BRANCH_INDIRECT	ACCESS:   13231468  HIT:   11990093  MISS:    1241375
BTB BRANCH_CONDITIONAL	ACCESS:    8791342  HIT:    8583888  MISS:     207454
BTB BRANCH_DIRECT_CALL	ACCESS:    2800344  HIT:    2510637  MISS:     289707
BTB BRANCH_INDIRECT_CALL	ACCESS:     903748  HIT:     779612  MISS:     124136
BTB BRANCH_RETURN	ACCESS:    3704139  HIT:    2330368  MISS:    1373771
BTB BRANCH_OTHER ACCESS:          0  HIT:          0  MISS:          0

L2C TOTAL     ACCESS:    4960285  HIT:    4146858  MISS:     813427  HIT %:    83.6012  MISS %:    16.3988   MPKI: 4.06713
L2C LOAD      ACCESS:    3419622  HIT:    2827743  MISS:     591879  HIT %:    82.6917  MISS %:    17.3083   MPKI: 2.95939
L2C DATA LOAD MPKI: 1.30888
L2C INSTRUCTION LOAD MPKI: 1.65051
L2C RFO       ACCESS:     341302  HIT:     246875  MISS:      94427  HIT %:    72.3333  MISS %:    27.6667   MPKI: 0.472135
L2C PREFETCH  ACCESS:     486796  HIT:     426536  MISS:      60260  HIT %:    87.6211  MISS %:    12.3789   MPKI: 0.3013
L2C DATA PREFETCH MPKI: 0.3013
L2C INSTRUCTION PREFETCH MPKI: 0
L2C WRITEBACK ACCESS:     563200  HIT:     547516  MISS:      15684  HIT %:    97.2152  MISS %:     2.7848   MPKI: 0.07842
L2C LOAD TRANSLATION ACCESS:     138855  HIT:      87936  MISS:      50919  HIT %:    63.3294  MISS %:    36.6706   MPKI: 0.254595
L2C TRANSLATION FROM L1D PREFETCHER ACCESS:      10510  HIT:      10252  MISS:        258  HIT %:    97.5452  MISS %:     2.4548   MPKI: 0.00129
L2C PREFETCH  REQUESTED:          0  ISSUED:          0  USEFUL:      16181  USELESS:      44473
L2C USEFUL LOAD PREFETCHES:      16181 PREFETCH ISSUED TO LOWER LEVEL:      63220  ACCURACY: 25.5947
L2C TIMELY PREFETCHES:      16181 LATE PREFETCHES: 2960 DROPPED PREFETCHES: 0
L2C PREFETCHES SAME FILL-ORIGIN LEVEL: 52811 DIFFERENT FILL-ORIGIN LEVEL: 0
L2C AVERAGE MISS LATENCY: 59.3218 cycles
L2C RQ	ACCESS:    3910304	FORWARD:          0	MERGED:          0	TO_CACHE:    3910289
L2C WQ	ACCESS:     563200	FORWARD:         15	MERGED:          0	TO_CACHE:     563200
L2C PQ	ACCESS:     511658	FORWARD:          0	MERGED:       1360	TO_CACHE:     510298

L2C Instructions Evicting Data 130216
L2C Translations Evicting Data 35661
L2C Data Evicting Data 258999
L2C Instructions Evicting Instructions 189832
L2C Translations Evicting Instructions 9185
L2C Data Evicting Instructions 122722
L2C Instructions Evicting Translations 10054
L2C Translations Evicting Translations 6331
L2C Data Evicting Translations 34743
L2C Dense regions hint from L2: 0
PSCL5 TOTAL     ACCESS:      80445  HIT:      80445  MISS:          0  HIT %:        100  MISS %:          0   MPKI: 0
PSCL5 LOAD TRANSLATION ACCESS:      73270  HIT:      73270  MISS:          0  HIT %:        100  MISS %:          0   MPKI: 0
PSCL5 TRANSLATION FROM L1D PREFETCHER ACCESS:       7175  HIT:       7175  MISS:          0  HIT %:        100  MISS %:          0   MPKI: 0
PSCL5 PREFETCH  REQUESTED:          0  ISSUED:          0  USEFUL:          0  USELESS:          0
PSCL5 USEFUL LOAD PREFETCHES:          0 PREFETCH ISSUED TO LOWER LEVEL:          0  ACCURACY: -nan
PSCL5 TIMELY PREFETCHES:          0 LATE PREFETCHES: 0 DROPPED PREFETCHES: 0
PSCL5 PREFETCHES SAME FILL-ORIGIN LEVEL: 0 DIFFERENT FILL-ORIGIN LEVEL: 0

PSCL4 TOTAL     ACCESS:      79613  HIT:      79486  MISS:        127  HIT %:    99.8405  MISS %:   0.159522   MPKI: 0.000635
PSCL4 LOAD TRANSLATION ACCESS:      72526  HIT:      72399  MISS:        127  HIT %:    99.8249  MISS %:    0.17511   MPKI: 0.000635
PSCL4 TRANSLATION FROM L1D PREFETCHER ACCESS:       7087  HIT:       7087  MISS:          0  HIT %:        100  MISS %:          0   MPKI: 0
PSCL4 PREFETCH  REQUESTED:          0  ISSUED:          0  USEFUL:          0  USELESS:          0
PSCL4 USEFUL LOAD PREFETCHES:          0 PREFETCH ISSUED TO LOWER LEVEL:          0  ACCURACY: -nan
PSCL4 TIMELY PREFETCHES:          0 LATE PREFETCHES: 0 DROPPED PREFETCHES: 0
PSCL4 PREFETCHES SAME FILL-ORIGIN LEVEL: 0 DIFFERENT FILL-ORIGIN LEVEL: 0

PSCL3 TOTAL     ACCESS:      75266  HIT:      54703  MISS:      20563  HIT %:    72.6796  MISS %:    27.3204   MPKI: 0.102815
PSCL3 LOAD TRANSLATION ACCESS:      71466  HIT:      50903  MISS:      20563  HIT %:    71.2269  MISS %:    28.7731   MPKI: 0.102815
PSCL3 TRANSLATION FROM L1D PREFETCHER ACCESS:       3800  HIT:       3800  MISS:          0  HIT %:        100  MISS %:          0   MPKI: 0
PSCL3 PREFETCH  REQUESTED:          0  ISSUED:          0  USEFUL:          0  USELESS:          0
PSCL3 USEFUL LOAD PREFETCHES:          0 PREFETCH ISSUED TO LOWER LEVEL:          0  ACCURACY: -nan
PSCL3 TIMELY PREFETCHES:          0 LATE PREFETCHES: 0 DROPPED PREFETCHES: 0
PSCL3 PREFETCHES SAME FILL-ORIGIN LEVEL: 0 DIFFERENT FILL-ORIGIN LEVEL: 0

PSCL2 TOTAL     ACCESS:      78503  HIT:      33550  MISS:      44953  HIT %:    42.7372  MISS %:    57.2628   MPKI: 0.224765
PSCL2 LOAD TRANSLATION ACCESS:      73311  HIT:      28358  MISS:      44953  HIT %:    38.6818  MISS %:    61.3182   MPKI: 0.224765
PSCL2 TRANSLATION FROM L1D PREFETCHER ACCESS:       5192  HIT:       5192  MISS:          0  HIT %:        100  MISS %:          0   MPKI: 0
PSCL2 PREFETCH  REQUESTED:          0  ISSUED:          0  USEFUL:          0  USELESS:          0
PSCL2 USEFUL LOAD PREFETCHES:          0 PREFETCH ISSUED TO LOWER LEVEL:          0  ACCURACY: -nan
PSCL2 TIMELY PREFETCHES:          0 LATE PREFETCHES: 0 DROPPED PREFETCHES: 0
PSCL2 PREFETCHES SAME FILL-ORIGIN LEVEL: 0 DIFFERENT FILL-ORIGIN LEVEL: 0

LLC TOTAL     ACCESS:     960232  HIT:     782233  MISS:     177999  HIT %:    81.4629  MISS %:    18.5371   MPKI: 0.889995
LLC LOAD      ACCESS:     588919  HIT:     468476  MISS:     120443  HIT %:    79.5485  MISS %:    20.4515   MPKI: 0.602215
LLC RFO       ACCESS:      94418  HIT:      79681  MISS:      14737  HIT %:    84.3917  MISS %:    15.6083   MPKI: 0.073685
LLC PREFETCH  ACCESS:      63220  HIT:      38882  MISS:      24338  HIT %:    61.5027  MISS %:    38.4973   MPKI: 0.12169
LLC WRITEBACK ACCESS:     162498  HIT:     161884  MISS:        614  HIT %:    99.6221  MISS %:   0.377851   MPKI: 0.00307
LLC LOAD TRANSLATION ACCESS:      50919  HIT:      33057  MISS:      17862  HIT %:    64.9208  MISS %:    35.0792   MPKI: 0.08931
LLC TRANSLATION FROM L1D PREFETCHER ACCESS:        258  HIT:        253  MISS:          5  HIT %:     98.062  MISS %:    1.93798   MPKI: 2.5e-05
LLC PREFETCH  REQUESTED:          0  ISSUED:          0  USEFUL:        311  USELESS:      25018
LLC USEFUL LOAD PREFETCHES:        311 PREFETCH ISSUED TO LOWER LEVEL:      24338  ACCURACY: 1.27784
LLC TIMELY PREFETCHES:        311 LATE PREFETCHES: 0 DROPPED PREFETCHES: 0
LLC PREFETCHES SAME FILL-ORIGIN LEVEL: 0 DIFFERENT FILL-ORIGIN LEVEL: 0
LLC AVERAGE MISS LATENCY: 137.669 cycles
LLC RQ	ACCESS:     734523	FORWARD:          0	MERGED:          0	TO_CACHE:     734514
LLC WQ	ACCESS:     162498	FORWARD:          9	MERGED:          0	TO_CACHE:     162498
LLC PQ	ACCESS:      63220	FORWARD:          0	MERGED:          0	TO_CACHE:      63220

LLC Dense regions hint to LLC: 0

RAW hits: 2596168
Loads Generated: 50783291
Loads sent to L1D: 48187122
Stores Generated: 22465114
Stores sent to L1D: 22465122
Major fault: 0 Minor fault: 8932
Allocated PAGES: 8932

DRAM Statistics
 CHANNEL 0
 RQ ROW_BUFFER_HIT:      63776  ROW_BUFFER_MISS:     113601
 DBUS_CONGESTED:        183
 WQ ROW_BUFFER_HIT:       6528  ROW_BUFFER_MISS:      36605  FULL:          0

 AVG_CONGESTED_CYCLE: 5
 All warmup complete: 2
Channel 0 Bank busy for read cycles: 0
Channel 0 Bank busy for write cycles: 0
Channel 0
Rank 0
0banks busy for read cycles: 312546813
0banks busy for write cycles: 29642
1banks busy for read cycles: 10513730
1banks busy for write cycles: 4563256
2banks busy for read cycles: 2827766
2banks busy for write cycles: 853629
3banks busy for read cycles: 729103
3banks busy for write cycles: 150883
4banks busy for read cycles: 191438
4banks busy for write cycles: 37414
5banks busy for read cycles: 65336
5banks busy for write cycles: 22918
6banks busy for read cycles: 33666
6banks busy for write cycles: 23485
7banks busy for read cycles: 31349
7banks busy for write cycles: 21905
8banks busy for read cycles: 44996
8banks busy for write cycles: 38836

CPU 0 Branch Prediction Accuracy: 99.8045% MPKI: 0.370935 Average ROB Occupancy at Mispredict: 33.0448
Branch types
NOT_BRANCH: 162058956 81.0295%
BRANCH_DIRECT_JUMP: 3353840 1.67692%
BRANCH_INDIRECT: 13231468 6.61573%
BRANCH_CONDITIONAL: 13947212 6.97361%
BRANCH_DIRECT_CALL: 2800344 1.40017%
BRANCH_INDIRECT_CALL: 903748 0.451874%
BRANCH_RETURN: 3704139 1.85207%
BRANCH_OTHER: 0 0%

DRAM PAGES: 1048576
Allocated PAGES: 8932
