
*** ChampSim Multicore Out-of-Order Simulator ***

Warmup Instructions: 50000000
Simulation Instructions: 200000000
Number of CPUs: 1
LLC sets: 2048
LLC ways: 16
Off-chip DRAM Size: 4096 MB Channels: 1 Width: 64-bit Data Rate: 6400 MT/s
CPU 0 runs traces/spec2k17/srv_13.champsimtrace.xz
.xz
BTB has LRU replacement policy
ITLB has LRU replacement policy
DTLB has LRU replacement policy
STLB has LRU replacement policy
L1I has LRU replacement policy
History Sets: 8
History Ways: 16
BERTI Size: 16
BERTI Stride Size: 16
L1D has LRU replacement policy
Initialize SRRIP state for L2C
Initialize DRRIP state for LLC
Heartbeat CPU 0 instructions: 10000002 cycles: 2808266 heartbeat IPC: 3.56092 cumulative IPC: 3.56092 (Simulation time: 0 hr 0 min 37 sec) 
Heartbeat CPU 0 instructions: 20000000 cycles: 5613573 heartbeat IPC: 3.56467 cumulative IPC: 3.56279 (Simulation time: 0 hr 1 min 19 sec) 
Heartbeat CPU 0 instructions: 30000003 cycles: 8421416 heartbeat IPC: 3.56145 cumulative IPC: 3.56235 (Simulation time: 0 hr 1 min 59 sec) 
*** Reached end of trace for Core: 0 Repeating trace: traces/spec2k17/srv_13.champsimtrace.xz
Heartbeat CPU 0 instructions: 40000001 cycles: 11220942 heartbeat IPC: 3.57203 cumulative IPC: 3.56476 (Simulation time: 0 hr 2 min 38 sec) 
Heartbeat CPU 0 instructions: 50000003 cycles: 14027503 heartbeat IPC: 3.56308 cumulative IPC: 3.56443 (Simulation time: 0 hr 3 min 16 sec) 

Warmup complete CPU 0 instructions: 50000003 cycles: 14027503 (Simulation time: 0 hr 3 min 16 sec) 

Heartbeat CPU 0 instructions: 60000000 cycles: 44353618 heartbeat IPC: 0.329749 cumulative IPC: 0.329749 (Simulation time: 0 hr 4 min 7 sec) 
*** Reached end of trace for Core: 0 Repeating trace: traces/spec2k17/srv_13.champsimtrace.xz
Heartbeat CPU 0 instructions: 70000001 cycles: 73438657 heartbeat IPC: 0.343819 cumulative IPC: 0.336637 (Simulation time: 0 hr 4 min 57 sec) 
Heartbeat CPU 0 instructions: 80000003 cycles: 103379495 heartbeat IPC: 0.333992 cumulative IPC: 0.335751 (Simulation time: 0 hr 5 min 55 sec) 
Heartbeat CPU 0 instructions: 90000001 cycles: 133758134 heartbeat IPC: 0.329179 cumulative IPC: 0.334083 (Simulation time: 0 hr 6 min 48 sec) 
*** Reached end of trace for Core: 0 Repeating trace: traces/spec2k17/srv_13.champsimtrace.xz
Heartbeat CPU 0 instructions: 100000000 cycles: 163107398 heartbeat IPC: 0.340724 cumulative IPC: 0.335391 (Simulation time: 0 hr 7 min 43 sec) 
Heartbeat CPU 0 instructions: 110000000 cycles: 192726668 heartbeat IPC: 0.337618 cumulative IPC: 0.33576 (Simulation time: 0 hr 8 min 31 sec) 
Heartbeat CPU 0 instructions: 120000002 cycles: 223166043 heartbeat IPC: 0.328522 cumulative IPC: 0.334706 (Simulation time: 0 hr 9 min 28 sec) 
*** Reached end of trace for Core: 0 Repeating trace: traces/spec2k17/srv_13.champsimtrace.xz
Heartbeat CPU 0 instructions: 130000001 cycles: 252387081 heartbeat IPC: 0.342219 cumulative IPC: 0.335627 (Simulation time: 0 hr 10 min 15 sec) 
Heartbeat CPU 0 instructions: 140000002 cycles: 282187092 heartbeat IPC: 0.33557 cumulative IPC: 0.335621 (Simulation time: 0 hr 11 min 2 sec) 
Heartbeat CPU 0 instructions: 150000002 cycles: 312429631 heartbeat IPC: 0.33066 cumulative IPC: 0.335118 (Simulation time: 0 hr 12 min 1 sec) 
*** Reached end of trace for Core: 0 Repeating trace: traces/spec2k17/srv_13.champsimtrace.xz
Heartbeat CPU 0 instructions: 160000002 cycles: 341643710 heartbeat IPC: 0.342301 cumulative IPC: 0.335759 (Simulation time: 0 hr 12 min 52 sec) 
Heartbeat CPU 0 instructions: 170000000 cycles: 371541487 heartbeat IPC: 0.334473 cumulative IPC: 0.335651 (Simulation time: 0 hr 13 min 46 sec) 
Heartbeat CPU 0 instructions: 180000003 cycles: 401734274 heartbeat IPC: 0.331205 cumulative IPC: 0.335305 (Simulation time: 0 hr 14 min 39 sec) 
*** Reached end of trace for Core: 0 Repeating trace: traces/spec2k17/srv_13.champsimtrace.xz
Heartbeat CPU 0 instructions: 190000000 cycles: 431091781 heartbeat IPC: 0.340628 cumulative IPC: 0.33568 (Simulation time: 0 hr 15 min 34 sec) 
Heartbeat CPU 0 instructions: 200000001 cycles: 460903007 heartbeat IPC: 0.335444 cumulative IPC: 0.335664 (Simulation time: 0 hr 16 min 25 sec) 
Heartbeat CPU 0 instructions: 210000000 cycles: 490828676 heartbeat IPC: 0.334161 cumulative IPC: 0.33557 (Simulation time: 0 hr 17 min 16 sec) 
*** Reached end of trace for Core: 0 Repeating trace: traces/spec2k17/srv_13.champsimtrace.xz
Heartbeat CPU 0 instructions: 220000000 cycles: 520434486 heartbeat IPC: 0.337772 cumulative IPC: 0.335698 (Simulation time: 0 hr 18 min 9 sec) 
Heartbeat CPU 0 instructions: 230000001 cycles: 550086374 heartbeat IPC: 0.337247 cumulative IPC: 0.335784 (Simulation time: 0 hr 19 min 5 sec) 
Heartbeat CPU 0 instructions: 240000000 cycles: 580038279 heartbeat IPC: 0.333869 cumulative IPC: 0.335683 (Simulation time: 0 hr 20 min 0 sec) 
*** Reached end of trace for Core: 0 Repeating trace: traces/spec2k17/srv_13.champsimtrace.xz
Heartbeat CPU 0 instructions: 250000000 cycles: 609992854 heartbeat IPC: 0.333839 cumulative IPC: 0.33559 (Simulation time: 0 hr 20 min 59 sec) 
Finished CPU 0 instructions: 200000003 cycles: 595965353 cumulative IPC: 0.33559 (Simulation time: 0 hr 20 min 59 sec) 

ChampSim completed all CPUs

Region of Interest Statistics

CPU 0 cumulative IPC: 0.33559 instructions: 200000003 cycles: 595965353
ITLB TOTAL     ACCESS:   34416033  HIT:   32577908  MISS:    1838125  HIT %:    94.6591  MISS %:     5.3409   MPKI: 9.19062
ITLB LOAD TRANSLATION ACCESS:   34416033  HIT:   32577908  MISS:    1838125  HIT %:    94.6591  MISS %:     5.3409   MPKI: 9.19062
ITLB PREFETCH  REQUESTED:          0  ISSUED:          0  USEFUL:          0  USELESS:          0
ITLB USEFUL LOAD PREFETCHES:          0 PREFETCH ISSUED TO LOWER LEVEL:          0  ACCURACY: -nan
ITLB TIMELY PREFETCHES:          0 LATE PREFETCHES: 0 DROPPED PREFETCHES: 0
ITLB PREFETCHES SAME FILL-ORIGIN LEVEL: 0 DIFFERENT FILL-ORIGIN LEVEL: 0
ITLB AVERAGE MISS LATENCY: 9.04096 cycles
ITLB RQ	ACCESS:   40217108	FORWARD:          0	MERGED:    5358041	TO_CACHE:   34859067

DTLB TOTAL     ACCESS:   45368243  HIT:   43574639  MISS:    1793604  HIT %:    96.0466  MISS %:    3.95344   MPKI: 8.96802
DTLB LOAD TRANSLATION ACCESS:   45368243  HIT:   43574639  MISS:    1793604  HIT %:    96.0466  MISS %:    3.95344   MPKI: 8.96802
DTLB PREFETCH  REQUESTED:          0  ISSUED:          0  USEFUL:          0  USELESS:          0
DTLB USEFUL LOAD PREFETCHES:          0 PREFETCH ISSUED TO LOWER LEVEL:          0  ACCURACY: -nan
DTLB TIMELY PREFETCHES:          0 LATE PREFETCHES: 0 DROPPED PREFETCHES: 0
DTLB PREFETCHES SAME FILL-ORIGIN LEVEL: 0 DIFFERENT FILL-ORIGIN LEVEL: 0
DTLB AVERAGE MISS LATENCY: 9.20357 cycles
DTLB RQ	ACCESS:   59721454	FORWARD:          0	MERGED:   14287189	TO_CACHE:   45434265

STLB TOTAL     ACCESS:    4108852  HIT:    4099464  MISS:       9388  HIT %:    99.7715  MISS %:   0.228482   MPKI: 0.04694
STLB LOAD TRANSLATION ACCESS:    3631729  HIT:    3622609  MISS:       9120  HIT %:    99.7489  MISS %:    0.25112   MPKI: 0.0456
STLB TRANSLATION FROM L1D PREFETCHER ACCESS:     477123  HIT:     476855  MISS:        268  HIT %:    99.9438  MISS %:    0.05617   MPKI: 0.00134
STLB PREFETCH  REQUESTED:          0  ISSUED:          0  USEFUL:        242  USELESS:         26
STLB USEFUL LOAD PREFETCHES:        242 PREFETCH ISSUED TO LOWER LEVEL:          0  ACCURACY: inf
STLB TIMELY PREFETCHES:        242 LATE PREFETCHES: 0 DROPPED PREFETCHES: 12224
STLB PREFETCHES SAME FILL-ORIGIN LEVEL: 0 DIFFERENT FILL-ORIGIN LEVEL: 0
STLB AVERAGE MISS LATENCY: 45.4778 cycles
STLB RQ	ACCESS:    7055213	FORWARD:          0	MERGED:    2931422	TO_CACHE:    4123791

STLB Hit, L1D data hit: 0
STLB Hit, L2C data hit: 0
STLB Hit, LLC data hit: 0
STLB Hit, LLC data miss: 0
STLB STLB hints to L2: 0
L1D TOTAL     ACCESS:   60515638  HIT:   56613330  MISS:    3902308  HIT %:    93.5516  MISS %:    6.44843   MPKI: 19.5115
L1D LOAD      ACCESS:   33468295  HIT:   30989351  MISS:    2478944  HIT %:    92.5932  MISS %:    7.40684   MPKI: 12.3947
L1D RFO       ACCESS:   24454599  HIT:   23378680  MISS:    1075919  HIT %:    95.6003  MISS %:    4.39966   MPKI: 5.37959
L1D PREFETCH  ACCESS:    2592744  HIT:    2245299  MISS:     347445  HIT %:    86.5993  MISS %:    13.4007   MPKI: 1.73722
L1D PREFETCH  REQUESTED:    7608672  ISSUED:    7419471  USEFUL:     285908  USELESS:      61530
L1D USEFUL LOAD PREFETCHES:     285908 PREFETCH ISSUED TO LOWER LEVEL:    1143546  ACCURACY: 25.0019
L1D TIMELY PREFETCHES:     285908 LATE PREFETCHES: 7326 DROPPED PREFETCHES: 18818
L1D PREFETCHES SAME FILL-ORIGIN LEVEL: 354771 DIFFERENT FILL-ORIGIN LEVEL: 788775
L1D AVERAGE MISS LATENCY: 21.618 cycles
L1D RQ	ACCESS:   46950919	FORWARD:          0	MERGED:   13071973	TO_CACHE:   33583045
L1D WQ	ACCESS:   26311887	FORWARD:     295920	MERGED:     173478	TO_CACHE:   26138409
L1D PQ	ACCESS:    3995987	FORWARD:          0	MERGED:     572484	TO_CACHE:    3423484

L1D UNIQUE REGIONS ACCESSED: 0
L1D REGIONS CONFLICTS: 0
L1D Cross Page Prefetch Requests: 528111
L1D Same Page Prefetch Requests: 4490411
L1D ROI Sum of L1D PQ occupancy: 52598709
L1D PREFETCHES PUSHED FROM L2C: 0
L1I TOTAL     ACCESS:   38813727  HIT:   29172888  MISS:    9640839  HIT %:    75.1613  MISS %:    24.8387   MPKI: 48.2042
L1I LOAD      ACCESS:   38813727  HIT:   29172888  MISS:    9640839  HIT %:    75.1613  MISS %:    24.8387   MPKI: 48.2042
L1I PREFETCH  REQUESTED:          0  ISSUED:          0  USEFUL:          0  USELESS:          0
L1I USEFUL LOAD PREFETCHES:          0 PREFETCH ISSUED TO LOWER LEVEL:          0  ACCURACY: -nan
L1I TIMELY PREFETCHES:          0 LATE PREFETCHES: 0 DROPPED PREFETCHES: 0
L1I PREFETCHES SAME FILL-ORIGIN LEVEL: 0 DIFFERENT FILL-ORIGIN LEVEL: 0
L1I AVERAGE MISS LATENCY: 16.6549 cycles
L1I RQ	ACCESS:   57780643	FORWARD:          0	MERGED:   17563535	TO_CACHE:   40217108

BTB TOTAL     ACCESS:   30281760  HIT:   18910009  MISS:   11371751  HIT %:    62.4469  MISS %:    37.5531   MPKI: 56.8588
BTB BRANCH_DIRECT_JUMP	ACCESS:    2184471  HIT:    1385849  MISS:     798622
BTB BRANCH_INDIRECT	ACCESS:   11367631  HIT:    7108083  MISS:    4259548
BTB BRANCH_CONDITIONAL	ACCESS:    8713184  HIT:    7563917  MISS:    1149267
BTB BRANCH_DIRECT_CALL	ACCESS:    3386061  HIT:    1522950  MISS:    1863111
BTB BRANCH_INDIRECT_CALL	ACCESS:     622186  HIT:     244573  MISS:     377613
BTB BRANCH_RETURN	ACCESS:    4008227  HIT:    1084637  MISS:    2923590
BTB BRANCH_OTHER ACCESS:          0  HIT:          0  MISS:          0

L2C TOTAL     ACCESS:   16142804  HIT:   14536572  MISS:    1606232  HIT %:    90.0499  MISS %:    9.95014   MPKI: 8.03116
L2C LOAD      ACCESS:   12112417  HIT:   10947023  MISS:    1165394  HIT %:    90.3785  MISS %:    9.62148   MPKI: 5.82697
L2C DATA LOAD MPKI: 1.71263
L2C INSTRUCTION LOAD MPKI: 4.11433
L2C RFO       ACCESS:    1075916  HIT:     855506  MISS:     220410  HIT %:    79.5142  MISS %:    20.4858   MPKI: 1.10205
L2C PREFETCH  ACCESS:    1121329  HIT:     963385  MISS:     157944  HIT %:    85.9146  MISS %:    14.0854   MPKI: 0.78972
L2C DATA PREFETCH MPKI: 0.78972
L2C INSTRUCTION PREFETCH MPKI: 0
L2C WRITEBACK ACCESS:    1802255  HIT:    1747694  MISS:      54561  HIT %:    96.9726  MISS %:    3.02737   MPKI: 0.272805
L2C LOAD TRANSLATION ACCESS:      10067  HIT:       3278  MISS:       6789  HIT %:    32.5618  MISS %:    67.4382   MPKI: 0.033945
L2C TRANSLATION FROM L1D PREFETCHER ACCESS:      20820  HIT:      19686  MISS:       1134  HIT %:    94.5533  MISS %:    5.44669   MPKI: 0.00567
L2C PREFETCH  REQUESTED:          0  ISSUED:          0  USEFUL:       6402  USELESS:     152664
L2C USEFUL LOAD PREFETCHES:       6402 PREFETCH ISSUED TO LOWER LEVEL:     158500  ACCURACY: 4.03912
L2C TIMELY PREFETCHES:       6402 LATE PREFETCHES: 556 DROPPED PREFETCHES: 0
L2C PREFETCHES SAME FILL-ORIGIN LEVEL: 77940 DIFFERENT FILL-ORIGIN LEVEL: 0
L2C AVERAGE MISS LATENCY: 33.8511 cycles
L2C RQ	ACCESS:   13219265	FORWARD:          0	MERGED:          0	TO_CACHE:   13219222
L2C WQ	ACCESS:    1802255	FORWARD:         43	MERGED:          0	TO_CACHE:    1802255
L2C PQ	ACCESS:    1143546	FORWARD:          0	MERGED:        388	TO_CACHE:    1143158

L2C Instructions Evicting Data 350353
L2C Translations Evicting Data 5774
L2C Data Evicting Data 394764
L2C Instructions Evicting Instructions 470572
L2C Translations Evicting Instructions 2041
L2C Data Evicting Instructions 320435
L2C Instructions Evicting Translations 1942
L2C Translations Evicting Translations 108
L2C Data Evicting Translations 5682
L2C Dense regions hint from L2: 0
PSCL5 TOTAL     ACCESS:      21612  HIT:      21612  MISS:          0  HIT %:        100  MISS %:          0   MPKI: 0
PSCL5 LOAD TRANSLATION ACCESS:       9120  HIT:       9120  MISS:          0  HIT %:        100  MISS %:          0   MPKI: 0
PSCL5 TRANSLATION FROM L1D PREFETCHER ACCESS:      12492  HIT:      12492  MISS:          0  HIT %:        100  MISS %:          0   MPKI: 0
PSCL5 PREFETCH  REQUESTED:          0  ISSUED:          0  USEFUL:          0  USELESS:          0
PSCL5 USEFUL LOAD PREFETCHES:          0 PREFETCH ISSUED TO LOWER LEVEL:          0  ACCURACY: -nan
PSCL5 TIMELY PREFETCHES:          0 LATE PREFETCHES: 0 DROPPED PREFETCHES: 0
PSCL5 PREFETCHES SAME FILL-ORIGIN LEVEL: 0 DIFFERENT FILL-ORIGIN LEVEL: 0

PSCL4 TOTAL     ACCESS:      20761  HIT:      20730  MISS:         31  HIT %:    99.8507  MISS %:   0.149318   MPKI: 0.000155
PSCL4 LOAD TRANSLATION ACCESS:       8579  HIT:       8548  MISS:         31  HIT %:    99.6387  MISS %:   0.361347   MPKI: 0.000155
PSCL4 TRANSLATION FROM L1D PREFETCHER ACCESS:      12182  HIT:      12182  MISS:          0  HIT %:        100  MISS %:          0   MPKI: 0
PSCL4 PREFETCH  REQUESTED:          0  ISSUED:          0  USEFUL:          0  USELESS:          0
PSCL4 USEFUL LOAD PREFETCHES:          0 PREFETCH ISSUED TO LOWER LEVEL:          0  ACCURACY: -nan
PSCL4 TIMELY PREFETCHES:          0 LATE PREFETCHES: 0 DROPPED PREFETCHES: 0
PSCL4 PREFETCHES SAME FILL-ORIGIN LEVEL: 0 DIFFERENT FILL-ORIGIN LEVEL: 0

PSCL3 TOTAL     ACCESS:      21425  HIT:      21394  MISS:         31  HIT %:    99.8553  MISS %:   0.144691   MPKI: 0.000155
PSCL3 LOAD TRANSLATION ACCESS:       9102  HIT:       9071  MISS:         31  HIT %:    99.6594  MISS %:   0.340584   MPKI: 0.000155
PSCL3 TRANSLATION FROM L1D PREFETCHER ACCESS:      12323  HIT:      12323  MISS:          0  HIT %:        100  MISS %:          0   MPKI: 0
PSCL3 PREFETCH  REQUESTED:          0  ISSUED:          0  USEFUL:          0  USELESS:          0
PSCL3 USEFUL LOAD PREFETCHES:          0 PREFETCH ISSUED TO LOWER LEVEL:          0  ACCURACY: -nan
PSCL3 TIMELY PREFETCHES:          0 LATE PREFETCHES: 0 DROPPED PREFETCHES: 0
PSCL3 PREFETCHES SAME FILL-ORIGIN LEVEL: 0 DIFFERENT FILL-ORIGIN LEVEL: 0

PSCL2 TOTAL     ACCESS:      13419  HIT:      12527  MISS:        892  HIT %:    93.3527  MISS %:    6.64729   MPKI: 0.00446
PSCL2 LOAD TRANSLATION ACCESS:       9127  HIT:       8235  MISS:        892  HIT %:    90.2268  MISS %:     9.7732   MPKI: 0.00446
PSCL2 TRANSLATION FROM L1D PREFETCHER ACCESS:       4292  HIT:       4292  MISS:          0  HIT %:        100  MISS %:          0   MPKI: 0
PSCL2 PREFETCH  REQUESTED:          0  ISSUED:          0  USEFUL:          0  USELESS:          0
PSCL2 USEFUL LOAD PREFETCHES:          0 PREFETCH ISSUED TO LOWER LEVEL:          0  ACCURACY: -nan
PSCL2 TIMELY PREFETCHES:          0 LATE PREFETCHES: 0 DROPPED PREFETCHES: 0
PSCL2 PREFETCHES SAME FILL-ORIGIN LEVEL: 0 DIFFERENT FILL-ORIGIN LEVEL: 0

LLC TOTAL     ACCESS:    1854722  HIT:    1803700  MISS:      51022  HIT %:    97.2491  MISS %:    2.75092   MPKI: 0.25511
LLC LOAD      ACCESS:    1164838  HIT:    1143560  MISS:      21278  HIT %:    98.1733  MISS %:    1.82669   MPKI: 0.10639
LLC RFO       ACCESS:     220410  HIT:     198854  MISS:      21556  HIT %:      90.22  MISS %:    9.77996   MPKI: 0.10778
LLC PREFETCH  ACCESS:     158500  HIT:     150671  MISS:       7829  HIT %:    95.0606  MISS %:    4.93943   MPKI: 0.039145
LLC WRITEBACK ACCESS:     303051  HIT:     302862  MISS:        189  HIT %:    99.9376  MISS %:  0.0623657   MPKI: 0.000945
LLC LOAD TRANSLATION ACCESS:       6789  HIT:       6634  MISS:        155  HIT %:    97.7169  MISS %:    2.28311   MPKI: 0.000775
LLC TRANSLATION FROM L1D PREFETCHER ACCESS:       1134  HIT:       1119  MISS:         15  HIT %:    98.6772  MISS %:    1.32275   MPKI: 7.5e-05
LLC PREFETCH  REQUESTED:          0  ISSUED:          0  USEFUL:        868  USELESS:       7533
LLC USEFUL LOAD PREFETCHES:        868 PREFETCH ISSUED TO LOWER LEVEL:       7829  ACCURACY: 11.087
LLC TIMELY PREFETCHES:        868 LATE PREFETCHES: 0 DROPPED PREFETCHES: 0
LLC PREFETCHES SAME FILL-ORIGIN LEVEL: 0 DIFFERENT FILL-ORIGIN LEVEL: 0
LLC AVERAGE MISS LATENCY: 153.78 cycles
LLC RQ	ACCESS:    1393171	FORWARD:          0	MERGED:          0	TO_CACHE:    1393171
LLC WQ	ACCESS:     303051	FORWARD:          0	MERGED:          0	TO_CACHE:     303051
LLC PQ	ACCESS:     158500	FORWARD:          0	MERGED:          0	TO_CACHE:     158500

LLC Dense regions hint to LLC: 0

RAW hits: 1391446
Loads Generated: 48342365
Loads sent to L1D: 46950919
Stores Generated: 26311868
Stores sent to L1D: 26311887
Major fault: 0 Minor fault: 1910
Allocated PAGES: 1910

DRAM Statistics
 CHANNEL 0
 RQ ROW_BUFFER_HIT:      17720  ROW_BUFFER_MISS:      33094
 DBUS_CONGESTED:        109
 WQ ROW_BUFFER_HIT:       2693  ROW_BUFFER_MISS:      21490  FULL:          0

 AVG_CONGESTED_CYCLE: 5
 All warmup complete: 2
Channel 0 Bank busy for read cycles: 0
Channel 0 Bank busy for write cycles: 0
Channel 0
Rank 0
0banks busy for read cycles: 591470380
0banks busy for write cycles: 7428
1banks busy for read cycles: 1715964
1banks busy for write cycles: 888315
2banks busy for read cycles: 429852
2banks busy for write cycles: 220701
3banks busy for read cycles: 256058
3banks busy for write cycles: 126469
4banks busy for read cycles: 167368
4banks busy for write cycles: 95541
5banks busy for read cycles: 110660
5banks busy for write cycles: 68195
6banks busy for read cycles: 77754
6banks busy for write cycles: 60816
7banks busy for read cycles: 56772
7banks busy for write cycles: 51439
8banks busy for read cycles: 55715
8banks busy for write cycles: 105927

CPU 0 Branch Prediction Accuracy: 99.8429% MPKI: 0.27698 Average ROB Occupancy at Mispredict: 52.6996
Branch types
NOT_BRANCH: 164736751 82.3684%
BRANCH_DIRECT_JUMP: 2184471 1.09224%
BRANCH_INDIRECT: 11367631 5.68382%
BRANCH_CONDITIONAL: 13694607 6.8473%
BRANCH_DIRECT_CALL: 3386061 1.69303%
BRANCH_INDIRECT_CALL: 622186 0.311093%
BRANCH_RETURN: 4008227 2.00411%
BRANCH_OTHER: 0 0%

DRAM PAGES: 1048576
Allocated PAGES: 1910
