
*** ChampSim Multicore Out-of-Order Simulator ***

Warmup Instructions: 50000000
Simulation Instructions: 200000000
Number of CPUs: 1
LLC sets: 2048
LLC ways: 16
Off-chip DRAM Size: 4096 MB Channels: 1 Width: 64-bit Data Rate: 6400 MT/s
CPU 0 runs traces/spec2k17/srv_12.champsimtrace.xz
.xz
BTB has LRU replacement policy
ITLB has LRU replacement policy
DTLB has LRU replacement policy
STLB has LRU replacement policy
L1I has LRU replacement policy
History Sets: 8
History Ways: 16
BERTI Size: 16
BERTI Stride Size: 16
L1D has LRU replacement policy
Initialize SRRIP state for L2C
Initialize DRRIP state for LLC
Heartbeat CPU 0 instructions: 10000002 cycles: 2817362 heartbeat IPC: 3.54942 cumulative IPC: 3.54942 (Simulation time: 0 hr 0 min 35 sec) 
Heartbeat CPU 0 instructions: 20000001 cycles: 5629675 heartbeat IPC: 3.55579 cumulative IPC: 3.5526 (Simulation time: 0 hr 1 min 12 sec) 
Heartbeat CPU 0 instructions: 30000002 cycles: 8439536 heartbeat IPC: 3.5589 cumulative IPC: 3.5547 (Simulation time: 0 hr 1 min 47 sec) 
*** Reached end of trace for Core: 0 Repeating trace: traces/spec2k17/srv_12.champsimtrace.xz
Heartbeat CPU 0 instructions: 40000001 cycles: 11249805 heartbeat IPC: 3.55838 cumulative IPC: 3.55562 (Simulation time: 0 hr 2 min 29 sec) 
Heartbeat CPU 0 instructions: 50000000 cycles: 14061267 heartbeat IPC: 3.55687 cumulative IPC: 3.55587 (Simulation time: 0 hr 3 min 9 sec) 

Warmup complete CPU 0 instructions: 50000004 cycles: 14061268 (Simulation time: 0 hr 3 min 9 sec) 

Heartbeat CPU 0 instructions: 60000001 cycles: 44391664 heartbeat IPC: 0.329702 cumulative IPC: 0.329702 (Simulation time: 0 hr 4 min 1 sec) 
*** Reached end of trace for Core: 0 Repeating trace: traces/spec2k17/srv_12.champsimtrace.xz
Heartbeat CPU 0 instructions: 70000000 cycles: 74890853 heartbeat IPC: 0.327878 cumulative IPC: 0.328787 (Simulation time: 0 hr 4 min 56 sec) 
Heartbeat CPU 0 instructions: 80000001 cycles: 105271446 heartbeat IPC: 0.329158 cumulative IPC: 0.328911 (Simulation time: 0 hr 5 min 51 sec) 
Heartbeat CPU 0 instructions: 90000003 cycles: 135664553 heartbeat IPC: 0.329022 cumulative IPC: 0.328938 (Simulation time: 0 hr 6 min 41 sec) 
*** Reached end of trace for Core: 0 Repeating trace: traces/spec2k17/srv_12.champsimtrace.xz
Heartbeat CPU 0 instructions: 100000000 cycles: 166351013 heartbeat IPC: 0.325877 cumulative IPC: 0.328321 (Simulation time: 0 hr 7 min 38 sec) 
Heartbeat CPU 0 instructions: 110000000 cycles: 196750045 heartbeat IPC: 0.328958 cumulative IPC: 0.328427 (Simulation time: 0 hr 8 min 34 sec) 
Heartbeat CPU 0 instructions: 120000003 cycles: 226820326 heartbeat IPC: 0.332554 cumulative IPC: 0.329011 (Simulation time: 0 hr 9 min 24 sec) 
*** Reached end of trace for Core: 0 Repeating trace: traces/spec2k17/srv_12.champsimtrace.xz
Heartbeat CPU 0 instructions: 130000003 cycles: 257604048 heartbeat IPC: 0.324847 cumulative IPC: 0.328484 (Simulation time: 0 hr 10 min 17 sec) 
Heartbeat CPU 0 instructions: 140000003 cycles: 288022356 heartbeat IPC: 0.328749 cumulative IPC: 0.328514 (Simulation time: 0 hr 11 min 14 sec) 
Heartbeat CPU 0 instructions: 150000001 cycles: 318113869 heartbeat IPC: 0.33232 cumulative IPC: 0.32889 (Simulation time: 0 hr 12 min 8 sec) 
*** Reached end of trace for Core: 0 Repeating trace: traces/spec2k17/srv_12.champsimtrace.xz
Heartbeat CPU 0 instructions: 160000001 cycles: 348704904 heartbeat IPC: 0.326893 cumulative IPC: 0.328708 (Simulation time: 0 hr 13 min 6 sec) 
Heartbeat CPU 0 instructions: 170000001 cycles: 379078588 heartbeat IPC: 0.329232 cumulative IPC: 0.328752 (Simulation time: 0 hr 13 min 54 sec) 
Heartbeat CPU 0 instructions: 180000001 cycles: 409337481 heartbeat IPC: 0.330481 cumulative IPC: 0.328884 (Simulation time: 0 hr 14 min 47 sec) 
*** Reached end of trace for Core: 0 Repeating trace: traces/spec2k17/srv_12.champsimtrace.xz
Heartbeat CPU 0 instructions: 190000002 cycles: 439888672 heartbeat IPC: 0.32732 cumulative IPC: 0.328772 (Simulation time: 0 hr 15 min 43 sec) 
Heartbeat CPU 0 instructions: 200000001 cycles: 470015174 heartbeat IPC: 0.331934 cumulative IPC: 0.328981 (Simulation time: 0 hr 16 min 37 sec) 
Heartbeat CPU 0 instructions: 210000003 cycles: 500356676 heartbeat IPC: 0.329582 cumulative IPC: 0.329018 (Simulation time: 0 hr 17 min 29 sec) 
*** Reached end of trace for Core: 0 Repeating trace: traces/spec2k17/srv_12.champsimtrace.xz
Heartbeat CPU 0 instructions: 220000000 cycles: 530931694 heartbeat IPC: 0.327064 cumulative IPC: 0.328903 (Simulation time: 0 hr 18 min 21 sec) 
Heartbeat CPU 0 instructions: 230000001 cycles: 561292276 heartbeat IPC: 0.329374 cumulative IPC: 0.328929 (Simulation time: 0 hr 19 min 20 sec) 
Heartbeat CPU 0 instructions: 240000000 cycles: 591543189 heartbeat IPC: 0.330568 cumulative IPC: 0.329015 (Simulation time: 0 hr 20 min 12 sec) 
*** Reached end of trace for Core: 0 Repeating trace: traces/spec2k17/srv_12.champsimtrace.xz
Heartbeat CPU 0 instructions: 250000000 cycles: 621898690 heartbeat IPC: 0.32943 cumulative IPC: 0.329035 (Simulation time: 0 hr 21 min 3 sec) 
Finished CPU 0 instructions: 200000002 cycles: 607837426 cumulative IPC: 0.329035 (Simulation time: 0 hr 21 min 3 sec) 

ChampSim completed all CPUs

Region of Interest Statistics

CPU 0 cumulative IPC: 0.329035 instructions: 200000002 cycles: 607837426
ITLB TOTAL     ACCESS:   34563943  HIT:   32665782  MISS:    1898161  HIT %:    94.5083  MISS %:    5.49174   MPKI: 9.4908
ITLB LOAD TRANSLATION ACCESS:   34563943  HIT:   32665782  MISS:    1898161  HIT %:    94.5083  MISS %:    5.49174   MPKI: 9.4908
ITLB PREFETCH  REQUESTED:          0  ISSUED:          0  USEFUL:          0  USELESS:          0
ITLB USEFUL LOAD PREFETCHES:          0 PREFETCH ISSUED TO LOWER LEVEL:          0  ACCURACY: -nan
ITLB TIMELY PREFETCHES:          0 LATE PREFETCHES: 0 DROPPED PREFETCHES: 0
ITLB PREFETCHES SAME FILL-ORIGIN LEVEL: 0 DIFFERENT FILL-ORIGIN LEVEL: 0
ITLB AVERAGE MISS LATENCY: 9.03467 cycles
ITLB RQ	ACCESS:   40440648	FORWARD:          0	MERGED:    5416913	TO_CACHE:   35023735

DTLB TOTAL     ACCESS:   45409332  HIT:   43555476  MISS:    1853856  HIT %:    95.9175  MISS %:    4.08254   MPKI: 9.26928
DTLB LOAD TRANSLATION ACCESS:   45409332  HIT:   43555476  MISS:    1853856  HIT %:    95.9175  MISS %:    4.08254   MPKI: 9.26928
DTLB PREFETCH  REQUESTED:          0  ISSUED:          0  USEFUL:          0  USELESS:          0
DTLB USEFUL LOAD PREFETCHES:          0 PREFETCH ISSUED TO LOWER LEVEL:          0  ACCURACY: -nan
DTLB TIMELY PREFETCHES:          0 LATE PREFETCHES: 0 DROPPED PREFETCHES: 0
DTLB PREFETCHES SAME FILL-ORIGIN LEVEL: 0 DIFFERENT FILL-ORIGIN LEVEL: 0
DTLB AVERAGE MISS LATENCY: 9.19035 cycles
DTLB RQ	ACCESS:   59943618	FORWARD:          0	MERGED:   14471176	TO_CACHE:   45472442

STLB TOTAL     ACCESS:    4253975  HIT:    4244419  MISS:       9556  HIT %:    99.7754  MISS %:   0.224637   MPKI: 0.04778
STLB LOAD TRANSLATION ACCESS:    3752017  HIT:    3742775  MISS:       9242  HIT %:    99.7537  MISS %:   0.246321   MPKI: 0.04621
STLB TRANSLATION FROM L1D PREFETCHER ACCESS:     501958  HIT:     501644  MISS:        314  HIT %:    99.9374  MISS %:   0.062555   MPKI: 0.00157
STLB PREFETCH  REQUESTED:          0  ISSUED:          0  USEFUL:        245  USELESS:         69
STLB USEFUL LOAD PREFETCHES:        245 PREFETCH ISSUED TO LOWER LEVEL:          0  ACCURACY: inf
STLB TIMELY PREFETCHES:        245 LATE PREFETCHES: 4 DROPPED PREFETCHES: 15652
STLB PREFETCHES SAME FILL-ORIGIN LEVEL: 0 DIFFERENT FILL-ORIGIN LEVEL: 0
STLB AVERAGE MISS LATENCY: 42.5477 cycles
STLB RQ	ACCESS:    7366574	FORWARD:          0	MERGED:    3091428	TO_CACHE:    4275146

STLB Hit, L1D data hit: 0
STLB Hit, L2C data hit: 0
STLB Hit, LLC data hit: 0
STLB Hit, LLC data miss: 0
STLB STLB hints to L2: 0
L1D TOTAL     ACCESS:   60938282  HIT:   56842585  MISS:    4095697  HIT %:    93.2789  MISS %:    6.72106   MPKI: 20.4785
L1D LOAD      ACCESS:   33624536  HIT:   31011261  MISS:    2613275  HIT %:    92.2281  MISS %:    7.77193   MPKI: 13.0664
L1D RFO       ACCESS:   24532090  HIT:   23433973  MISS:    1098117  HIT %:    95.5238  MISS %:    4.47625   MPKI: 5.49058
L1D PREFETCH  ACCESS:    2781656  HIT:    2397351  MISS:     384305  HIT %:    86.1843  MISS %:    13.8157   MPKI: 1.92152
L1D PREFETCH  REQUESTED:    8125761  ISSUED:    7889504  USEFUL:     320159  USELESS:      64159
L1D USEFUL LOAD PREFETCHES:     320159 PREFETCH ISSUED TO LOWER LEVEL:    1165985  ACCURACY: 27.4582
L1D TIMELY PREFETCHES:     320159 LATE PREFETCHES: 6078 DROPPED PREFETCHES: 34032
L1D PREFETCHES SAME FILL-ORIGIN LEVEL: 390383 DIFFERENT FILL-ORIGIN LEVEL: 775602
L1D AVERAGE MISS LATENCY: 20.013 cycles
L1D RQ	ACCESS:   46851434	FORWARD:          0	MERGED:   12816113	TO_CACHE:   33739536
L1D WQ	ACCESS:   26377432	FORWARD:     295792	MERGED:     173350	TO_CACHE:   26204082
L1D PQ	ACCESS:    4274947	FORWARD:          0	MERGED:     660383	TO_CACHE:    3614557

L1D UNIQUE REGIONS ACCESSED: 0
L1D REGIONS CONFLICTS: 0
L1D Cross Page Prefetch Requests: 602768
L1D Same Page Prefetch Requests: 4760141
L1D ROI Sum of L1D PQ occupancy: 56468403
L1D PREFETCHES PUSHED FROM L2C: 0
L1I TOTAL     ACCESS:   38996758  HIT:   29093794  MISS:    9902964  HIT %:    74.6057  MISS %:    25.3943   MPKI: 49.5148
L1I LOAD      ACCESS:   38996758  HIT:   29093794  MISS:    9902964  HIT %:    74.6057  MISS %:    25.3943   MPKI: 49.5148
L1I PREFETCH  REQUESTED:          0  ISSUED:          0  USEFUL:          0  USELESS:          0
L1I USEFUL LOAD PREFETCHES:          0 PREFETCH ISSUED TO LOWER LEVEL:          0  ACCURACY: -nan
L1I TIMELY PREFETCHES:          0 LATE PREFETCHES: 0 DROPPED PREFETCHES: 0
L1I PREFETCHES SAME FILL-ORIGIN LEVEL: 0 DIFFERENT FILL-ORIGIN LEVEL: 0
L1I AVERAGE MISS LATENCY: 16.8131 cycles
L1I RQ	ACCESS:   57849661	FORWARD:          0	MERGED:   17409013	TO_CACHE:   40440648

BTB TOTAL     ACCESS:   30343267  HIT:   18703041  MISS:   11640226  HIT %:    61.6382  MISS %:    38.3618   MPKI: 58.2011
BTB BRANCH_DIRECT_JUMP	ACCESS:    2169196  HIT:    1357881  MISS:     811315
BTB BRANCH_INDIRECT	ACCESS:   11477795  HIT:    7107158  MISS:    4370637
BTB BRANCH_CONDITIONAL	ACCESS:    8505201  HIT:    7327634  MISS:    1177567
BTB BRANCH_DIRECT_CALL	ACCESS:    3457228  HIT:    1544444  MISS:    1912784
BTB BRANCH_INDIRECT_CALL	ACCESS:     638342  HIT:     254235  MISS:     384107
BTB BRANCH_RETURN	ACCESS:    4095505  HIT:    1111689  MISS:    2983816
BTB BRANCH_OTHER ACCESS:          0  HIT:          0  MISS:          0

L2C TOTAL     ACCESS:   16664474  HIT:   15036891  MISS:    1627583  HIT %:    90.2332  MISS %:    9.76678   MPKI: 8.13791
L2C LOAD      ACCESS:   12510151  HIT:   11258231  MISS:    1251920  HIT %:    89.9928  MISS %:    10.0072   MPKI: 6.2596
L2C DATA LOAD MPKI: 1.76215
L2C INSTRUCTION LOAD MPKI: 4.49744
L2C RFO       ACCESS:    1098117  HIT:     926668  MISS:     171449  HIT %:     84.387  MISS %:     15.613   MPKI: 0.857245
L2C PREFETCH  ACCESS:    1142843  HIT:    1000003  MISS:     142840  HIT %:    87.5013  MISS %:    12.4987   MPKI: 0.7142
L2C DATA PREFETCH MPKI: 0.7142
L2C INSTRUCTION PREFETCH MPKI: 0
L2C WRITEBACK ACCESS:    1875962  HIT:    1822057  MISS:      53905  HIT %:    97.1265  MISS %:    2.87346   MPKI: 0.269525
L2C LOAD TRANSLATION ACCESS:       9882  HIT:       3472  MISS:       6410  HIT %:    35.1346  MISS %:    64.8654   MPKI: 0.03205
L2C TRANSLATION FROM L1D PREFETCHER ACCESS:      27519  HIT:      26460  MISS:       1059  HIT %:    96.1517  MISS %:    3.84825   MPKI: 0.005295
L2C PREFETCH  REQUESTED:          0  ISSUED:          0  USEFUL:       8639  USELESS:     135187
L2C USEFUL LOAD PREFETCHES:       8639 PREFETCH ISSUED TO LOWER LEVEL:     144709  ACCURACY: 5.96991
L2C TIMELY PREFETCHES:       8639 LATE PREFETCHES: 1869 DROPPED PREFETCHES: 0
L2C PREFETCHES SAME FILL-ORIGIN LEVEL: 81934 DIFFERENT FILL-ORIGIN LEVEL: 0
L2C AVERAGE MISS LATENCY: 31.2066 cycles
L2C RQ	ACCESS:   13645679	FORWARD:          0	MERGED:          0	TO_CACHE:   13645669
L2C WQ	ACCESS:    1875962	FORWARD:         10	MERGED:          0	TO_CACHE:    1875962
L2C PQ	ACCESS:    1165985	FORWARD:          0	MERGED:        757	TO_CACHE:    1165228

L2C Instructions Evicting Data 354893
L2C Translations Evicting Data 5360
L2C Data Evicting Data 338203
L2C Instructions Evicting Instructions 542412
L2C Translations Evicting Instructions 2071
L2C Data Evicting Instructions 323351
L2C Instructions Evicting Translations 2184
L2C Translations Evicting Translations 38
L2C Data Evicting Translations 5166
L2C Dense regions hint from L2: 0
PSCL5 TOTAL     ACCESS:      25208  HIT:      25208  MISS:          0  HIT %:        100  MISS %:          0   MPKI: 0
PSCL5 LOAD TRANSLATION ACCESS:       9238  HIT:       9238  MISS:          0  HIT %:        100  MISS %:          0   MPKI: 0
PSCL5 TRANSLATION FROM L1D PREFETCHER ACCESS:      15970  HIT:      15970  MISS:          0  HIT %:        100  MISS %:          0   MPKI: 0
PSCL5 PREFETCH  REQUESTED:          0  ISSUED:          0  USEFUL:          0  USELESS:          0
PSCL5 USEFUL LOAD PREFETCHES:          0 PREFETCH ISSUED TO LOWER LEVEL:          0  ACCURACY: -nan
PSCL5 TIMELY PREFETCHES:          0 LATE PREFETCHES: 0 DROPPED PREFETCHES: 0
PSCL5 PREFETCHES SAME FILL-ORIGIN LEVEL: 0 DIFFERENT FILL-ORIGIN LEVEL: 0

PSCL4 TOTAL     ACCESS:      24247  HIT:      24216  MISS:         31  HIT %:    99.8721  MISS %:   0.127851   MPKI: 0.000155
PSCL4 LOAD TRANSLATION ACCESS:       8620  HIT:       8589  MISS:         31  HIT %:    99.6404  MISS %:   0.359629   MPKI: 0.000155
PSCL4 TRANSLATION FROM L1D PREFETCHER ACCESS:      15627  HIT:      15627  MISS:          0  HIT %:        100  MISS %:          0   MPKI: 0
PSCL4 PREFETCH  REQUESTED:          0  ISSUED:          0  USEFUL:          0  USELESS:          0
PSCL4 USEFUL LOAD PREFETCHES:          0 PREFETCH ISSUED TO LOWER LEVEL:          0  ACCURACY: -nan
PSCL4 TIMELY PREFETCHES:          0 LATE PREFETCHES: 0 DROPPED PREFETCHES: 0
PSCL4 PREFETCHES SAME FILL-ORIGIN LEVEL: 0 DIFFERENT FILL-ORIGIN LEVEL: 0

PSCL3 TOTAL     ACCESS:      25146  HIT:      25115  MISS:         31  HIT %:    99.8767  MISS %:    0.12328   MPKI: 0.000155
PSCL3 LOAD TRANSLATION ACCESS:       9184  HIT:       9153  MISS:         31  HIT %:    99.6625  MISS %:   0.337544   MPKI: 0.000155
PSCL3 TRANSLATION FROM L1D PREFETCHER ACCESS:      15962  HIT:      15962  MISS:          0  HIT %:        100  MISS %:          0   MPKI: 0
PSCL3 PREFETCH  REQUESTED:          0  ISSUED:          0  USEFUL:          0  USELESS:          0
PSCL3 USEFUL LOAD PREFETCHES:          0 PREFETCH ISSUED TO LOWER LEVEL:          0  ACCURACY: -nan
PSCL3 TIMELY PREFETCHES:          0 LATE PREFETCHES: 0 DROPPED PREFETCHES: 0
PSCL3 PREFETCHES SAME FILL-ORIGIN LEVEL: 0 DIFFERENT FILL-ORIGIN LEVEL: 0

PSCL2 TOTAL     ACCESS:      13659  HIT:      13077  MISS:        582  HIT %:    95.7391  MISS %:    4.26093   MPKI: 0.00291
PSCL2 LOAD TRANSLATION ACCESS:       9238  HIT:       8656  MISS:        582  HIT %:    93.6999  MISS %:    6.30006   MPKI: 0.00291
PSCL2 TRANSLATION FROM L1D PREFETCHER ACCESS:       4421  HIT:       4421  MISS:          0  HIT %:        100  MISS %:          0   MPKI: 0
PSCL2 PREFETCH  REQUESTED:          0  ISSUED:          0  USEFUL:          0  USELESS:          0
PSCL2 USEFUL LOAD PREFETCHES:          0 PREFETCH ISSUED TO LOWER LEVEL:          0  ACCURACY: -nan
PSCL2 TIMELY PREFETCHES:          0 LATE PREFETCHES: 0 DROPPED PREFETCHES: 0
PSCL2 PREFETCHES SAME FILL-ORIGIN LEVEL: 0 DIFFERENT FILL-ORIGIN LEVEL: 0

LLC TOTAL     ACCESS:    1830838  HIT:    1805640  MISS:      25198  HIT %:    98.6237  MISS %:    1.37631   MPKI: 0.12599
LLC LOAD      ACCESS:    1250057  HIT:    1238300  MISS:      11757  HIT %:    99.0595  MISS %:   0.940517   MPKI: 0.058785
LLC RFO       ACCESS:     171439  HIT:     162861  MISS:       8578  HIT %:    94.9965  MISS %:    5.00353   MPKI: 0.04289
LLC PREFETCH  ACCESS:     144709  HIT:     140118  MISS:       4591  HIT %:    96.8274  MISS %:    3.17257   MPKI: 0.022955
LLC WRITEBACK ACCESS:     257164  HIT:     257017  MISS:        147  HIT %:    99.9428  MISS %:   0.057162   MPKI: 0.000735
LLC LOAD TRANSLATION ACCESS:       6410  HIT:       6307  MISS:        103  HIT %:    98.3931  MISS %:    1.60686   MPKI: 0.000515
LLC TRANSLATION FROM L1D PREFETCHER ACCESS:       1059  HIT:       1037  MISS:         22  HIT %:    97.9226  MISS %:    2.07743   MPKI: 0.00011
LLC PREFETCH  REQUESTED:          0  ISSUED:          0  USEFUL:        845  USELESS:       3828
LLC USEFUL LOAD PREFETCHES:        845 PREFETCH ISSUED TO LOWER LEVEL:       4591  ACCURACY: 18.4056
LLC TIMELY PREFETCHES:        845 LATE PREFETCHES: 0 DROPPED PREFETCHES: 0
LLC PREFETCHES SAME FILL-ORIGIN LEVEL: 0 DIFFERENT FILL-ORIGIN LEVEL: 0
LLC AVERAGE MISS LATENCY: 142.759 cycles
LLC RQ	ACCESS:    1428969	FORWARD:          0	MERGED:          0	TO_CACHE:    1428965
LLC WQ	ACCESS:     257164	FORWARD:          4	MERGED:          0	TO_CACHE:     257164
LLC PQ	ACCESS:     144709	FORWARD:          0	MERGED:          0	TO_CACHE:     144709

LLC Dense regions hint to LLC: 0

RAW hits: 1394634
Loads Generated: 48246069
Loads sent to L1D: 46851434
Stores Generated: 26377415
Stores sent to L1D: 26377432
Major fault: 0 Minor fault: 1862
Allocated PAGES: 1862

DRAM Statistics
 CHANNEL 0
 RQ ROW_BUFFER_HIT:       7276  ROW_BUFFER_MISS:      17771
 DBUS_CONGESTED:         47
 WQ ROW_BUFFER_HIT:        687  ROW_BUFFER_MISS:       9451  FULL:          0

 AVG_CONGESTED_CYCLE: 5
 All warmup complete: 2
Channel 0 Bank busy for read cycles: 0
Channel 0 Bank busy for write cycles: 0
Channel 0
Rank 0
0banks busy for read cycles: 605179703
0banks busy for write cycles: 4704
1banks busy for read cycles: 1180520
1banks busy for write cycles: 553747
2banks busy for read cycles: 269746
2banks busy for write cycles: 135812
3banks busy for read cycles: 144523
3banks busy for write cycles: 75547
4banks busy for read cycles: 80909
4banks busy for write cycles: 47979
5banks busy for read cycles: 49622
5banks busy for write cycles: 33031
6banks busy for read cycles: 28927
6banks busy for write cycles: 17715
7banks busy for read cycles: 13059
7banks busy for write cycles: 9727
8banks busy for read cycles: 4932
8banks busy for write cycles: 7224

CPU 0 Branch Prediction Accuracy: 99.8469% MPKI: 0.27084 Average ROB Occupancy at Mispredict: 54.545
Branch types
NOT_BRANCH: 164615244 82.3076%
BRANCH_DIRECT_JUMP: 2169196 1.0846%
BRANCH_INDIRECT: 11477795 5.7389%
BRANCH_CONDITIONAL: 13546570 6.77328%
BRANCH_DIRECT_CALL: 3457228 1.72861%
BRANCH_INDIRECT_CALL: 638342 0.319171%
BRANCH_RETURN: 4095505 2.04775%
BRANCH_OTHER: 0 0%

DRAM PAGES: 1048576
Allocated PAGES: 1862
