
*** ChampSim Multicore Out-of-Order Simulator ***

Warmup Instructions: 50000000
Simulation Instructions: 200000000
Number of CPUs: 1
LLC sets: 2048
LLC ways: 16
Off-chip DRAM Size: 4096 MB Channels: 1 Width: 64-bit Data Rate: 6400 MT/s
CPU 0 runs traces/spec2k17/srv_34.champsimtrace.xz
.xz
BTB has LRU replacement policy
ITLB has LRU replacement policy
DTLB has LRU replacement policy
STLB has LRU replacement policy
L1I has LRU replacement policy
History Sets: 8
History Ways: 16
BERTI Size: 16
BERTI Stride Size: 16
L1D has LRU replacement policy
Initialize SRRIP state for L2C
Initialize DRRIP state for LLC
Heartbeat CPU 0 instructions: 10000001 cycles: 2936321 heartbeat IPC: 3.40562 cumulative IPC: 3.40562 (Simulation time: 0 hr 0 min 46 sec) 
Heartbeat CPU 0 instructions: 20000002 cycles: 5878419 heartbeat IPC: 3.39894 cumulative IPC: 3.40228 (Simulation time: 0 hr 1 min 28 sec) 
Heartbeat CPU 0 instructions: 30000001 cycles: 8811717 heartbeat IPC: 3.40913 cumulative IPC: 3.40456 (Simulation time: 0 hr 2 min 9 sec) 
*** Reached end of trace for Core: 0 Repeating trace: traces/spec2k17/srv_34.champsimtrace.xz
Heartbeat CPU 0 instructions: 40000001 cycles: 11748701 heartbeat IPC: 3.40485 cumulative IPC: 3.40463 (Simulation time: 0 hr 2 min 52 sec) 
Heartbeat CPU 0 instructions: 50000002 cycles: 14689296 heartbeat IPC: 3.40067 cumulative IPC: 3.40384 (Simulation time: 0 hr 3 min 35 sec) 

Warmup complete CPU 0 instructions: 50000002 cycles: 14689296 (Simulation time: 0 hr 3 min 35 sec) 

Heartbeat CPU 0 instructions: 60000001 cycles: 33352182 heartbeat IPC: 0.535823 cumulative IPC: 0.535823 (Simulation time: 0 hr 4 min 40 sec) 
*** Reached end of trace for Core: 0 Repeating trace: traces/spec2k17/srv_34.champsimtrace.xz
Heartbeat CPU 0 instructions: 70000001 cycles: 51817476 heartbeat IPC: 0.541556 cumulative IPC: 0.538674 (Simulation time: 0 hr 5 min 41 sec) 
Heartbeat CPU 0 instructions: 80000003 cycles: 70439682 heartbeat IPC: 0.536993 cumulative IPC: 0.538113 (Simulation time: 0 hr 6 min 39 sec) 
Heartbeat CPU 0 instructions: 90000001 cycles: 88995489 heartbeat IPC: 0.538915 cumulative IPC: 0.538313 (Simulation time: 0 hr 7 min 43 sec) 
*** Reached end of trace for Core: 0 Repeating trace: traces/spec2k17/srv_34.champsimtrace.xz
Heartbeat CPU 0 instructions: 100000000 cycles: 107439627 heartbeat IPC: 0.542178 cumulative IPC: 0.539082 (Simulation time: 0 hr 8 min 44 sec) 
Heartbeat CPU 0 instructions: 110000000 cycles: 126040773 heartbeat IPC: 0.537601 cumulative IPC: 0.538834 (Simulation time: 0 hr 9 min 50 sec) 
Heartbeat CPU 0 instructions: 120000000 cycles: 144563922 heartbeat IPC: 0.539865 cumulative IPC: 0.538981 (Simulation time: 0 hr 10 min 48 sec) 
*** Reached end of trace for Core: 0 Repeating trace: traces/spec2k17/srv_34.champsimtrace.xz
Heartbeat CPU 0 instructions: 130000002 cycles: 163033471 heartbeat IPC: 0.541432 cumulative IPC: 0.539286 (Simulation time: 0 hr 11 min 58 sec) 
Heartbeat CPU 0 instructions: 140000001 cycles: 181549888 heartbeat IPC: 0.540061 cumulative IPC: 0.539372 (Simulation time: 0 hr 12 min 57 sec) 
Heartbeat CPU 0 instructions: 150000001 cycles: 200077767 heartbeat IPC: 0.539727 cumulative IPC: 0.539408 (Simulation time: 0 hr 14 min 6 sec) 
Heartbeat CPU 0 instructions: 160000000 cycles: 218541299 heartbeat IPC: 0.541608 cumulative IPC: 0.539607 (Simulation time: 0 hr 15 min 11 sec) 
*** Reached end of trace for Core: 0 Repeating trace: traces/spec2k17/srv_34.champsimtrace.xz
Heartbeat CPU 0 instructions: 170000000 cycles: 237052774 heartbeat IPC: 0.540205 cumulative IPC: 0.539657 (Simulation time: 0 hr 16 min 17 sec) 
Heartbeat CPU 0 instructions: 180000000 cycles: 255645808 heartbeat IPC: 0.537836 cumulative IPC: 0.539516 (Simulation time: 0 hr 17 min 22 sec) 
Heartbeat CPU 0 instructions: 190000000 cycles: 274134579 heartbeat IPC: 0.540869 cumulative IPC: 0.539613 (Simulation time: 0 hr 18 min 22 sec) 
*** Reached end of trace for Core: 0 Repeating trace: traces/spec2k17/srv_34.champsimtrace.xz
Heartbeat CPU 0 instructions: 200000000 cycles: 292583283 heartbeat IPC: 0.542044 cumulative IPC: 0.539774 (Simulation time: 0 hr 19 min 27 sec) 
Heartbeat CPU 0 instructions: 210000000 cycles: 311178896 heartbeat IPC: 0.537761 cumulative IPC: 0.539648 (Simulation time: 0 hr 20 min 35 sec) 
Heartbeat CPU 0 instructions: 220000000 cycles: 329579419 heartbeat IPC: 0.543463 cumulative IPC: 0.539871 (Simulation time: 0 hr 21 min 39 sec) 
*** Reached end of trace for Core: 0 Repeating trace: traces/spec2k17/srv_34.champsimtrace.xz
Heartbeat CPU 0 instructions: 230000003 cycles: 348049977 heartbeat IPC: 0.541402 cumulative IPC: 0.539956 (Simulation time: 0 hr 22 min 50 sec) 
Heartbeat CPU 0 instructions: 240000000 cycles: 366601616 heartbeat IPC: 0.539036 cumulative IPC: 0.539907 (Simulation time: 0 hr 23 min 50 sec) 
Heartbeat CPU 0 instructions: 250000001 cycles: 385084743 heartbeat IPC: 0.541034 cumulative IPC: 0.539963 (Simulation time: 0 hr 24 min 55 sec) 
Finished CPU 0 instructions: 200000001 cycles: 370395448 cumulative IPC: 0.539963 (Simulation time: 0 hr 24 min 55 sec) 

ChampSim completed all CPUs

Region of Interest Statistics

CPU 0 cumulative IPC: 0.539963 instructions: 200000001 cycles: 370395448
ITLB TOTAL     ACCESS:   33718864  HIT:   32176709  MISS:    1542155  HIT %:    95.4264  MISS %:    4.57357   MPKI: 7.71077
ITLB LOAD TRANSLATION ACCESS:   33718864  HIT:   32176709  MISS:    1542155  HIT %:    95.4264  MISS %:    4.57357   MPKI: 7.71077
ITLB PREFETCH  REQUESTED:          0  ISSUED:          0  USEFUL:          0  USELESS:          0
ITLB USEFUL LOAD PREFETCHES:          0 PREFETCH ISSUED TO LOWER LEVEL:          0  ACCURACY: -nan
ITLB TIMELY PREFETCHES:          0 LATE PREFETCHES: 0 DROPPED PREFETCHES: 0
ITLB PREFETCHES SAME FILL-ORIGIN LEVEL: 0 DIFFERENT FILL-ORIGIN LEVEL: 0
ITLB AVERAGE MISS LATENCY: 9.20251 cycles
ITLB RQ	ACCESS:   40644409	FORWARD:          0	MERGED:    6430868	TO_CACHE:   34213541

DTLB TOTAL     ACCESS:   40346682  HIT:   38837156  MISS:    1509526  HIT %:    96.2586  MISS %:    3.74139   MPKI: 7.54763
DTLB LOAD TRANSLATION ACCESS:   40346682  HIT:   38837156  MISS:    1509526  HIT %:    96.2586  MISS %:    3.74139   MPKI: 7.54763
DTLB PREFETCH  REQUESTED:          0  ISSUED:          0  USEFUL:          0  USELESS:          0
DTLB USEFUL LOAD PREFETCHES:          0 PREFETCH ISSUED TO LOWER LEVEL:          0  ACCURACY: -nan
DTLB TIMELY PREFETCHES:          0 LATE PREFETCHES: 0 DROPPED PREFETCHES: 0
DTLB PREFETCHES SAME FILL-ORIGIN LEVEL: 0 DIFFERENT FILL-ORIGIN LEVEL: 0
DTLB AVERAGE MISS LATENCY: 14.5133 cycles
DTLB RQ	ACCESS:   61297579	FORWARD:          0	MERGED:   20559827	TO_CACHE:   40737752

STLB TOTAL     ACCESS:    4251174  HIT:    4174595  MISS:      76579  HIT %:    98.1986  MISS %:    1.80136   MPKI: 0.382895
STLB LOAD TRANSLATION ACCESS:    3051681  HIT:    2982577  MISS:      69104  HIT %:    97.7355  MISS %:    2.26446   MPKI: 0.34552
STLB TRANSLATION FROM L1D PREFETCHER ACCESS:    1199493  HIT:    1192018  MISS:       7475  HIT %:    99.3768  MISS %:    0.62318   MPKI: 0.037375
STLB PREFETCH  REQUESTED:          0  ISSUED:          0  USEFUL:       7362  USELESS:        111
STLB USEFUL LOAD PREFETCHES:       7362 PREFETCH ISSUED TO LOWER LEVEL:          0  ACCURACY: inf
STLB TIMELY PREFETCHES:       7362 LATE PREFETCHES: 493 DROPPED PREFETCHES: 13158
STLB PREFETCHES SAME FILL-ORIGIN LEVEL: 0 DIFFERENT FILL-ORIGIN LEVEL: 0
STLB AVERAGE MISS LATENCY: 118.968 cycles
STLB RQ	ACCESS:   10901923	FORWARD:          0	MERGED:    6617838	TO_CACHE:    4284085

STLB Hit, L1D data hit: 0
STLB Hit, L2C data hit: 0
STLB Hit, LLC data hit: 0
STLB Hit, LLC data miss: 0
STLB STLB hints to L2: 0
L1D TOTAL     ACCESS:   52658960  HIT:   45821210  MISS:    6837750  HIT %:     87.015  MISS %:     12.985   MPKI: 34.1887
L1D LOAD      ACCESS:   26924363  HIT:   24437558  MISS:    2486805  HIT %:    90.7637  MISS %:    9.23626   MPKI: 12.434
L1D RFO       ACCESS:   21907367  HIT:   18224697  MISS:    3682670  HIT %:    83.1898  MISS %:    16.8102   MPKI: 18.4133
L1D PREFETCH  ACCESS:    3827230  HIT:    3158955  MISS:     668275  HIT %:    82.5389  MISS %:    17.4611   MPKI: 3.34137
L1D PREFETCH  REQUESTED:   20148242  ISSUED:   19722875  USEFUL:     593460  USELESS:      74828
L1D USEFUL LOAD PREFETCHES:     593460 PREFETCH ISSUED TO LOWER LEVEL:    3341329  ACCURACY: 17.7612
L1D TIMELY PREFETCHES:     593460 LATE PREFETCHES: 191318 DROPPED PREFETCHES: 46522
L1D PREFETCHES SAME FILL-ORIGIN LEVEL: 859593 DIFFERENT FILL-ORIGIN LEVEL: 2481736
L1D AVERAGE MISS LATENCY: 147.551 cycles
L1D RQ	ACCESS:   45261110	FORWARD:          0	MERGED:   17652301	TO_CACHE:   27325311
L1D WQ	ACCESS:   34174261	FORWARD:     283498	MERGED:     201993	TO_CACHE:   33972268
L1D PQ	ACCESS:   11872633	FORWARD:          0	MERGED:    4022391	TO_CACHE:    7850242

L1D UNIQUE REGIONS ACCESSED: 0
L1D REGIONS CONFLICTS: 0
L1D Cross Page Prefetch Requests: 1444973
L1D Same Page Prefetch Requests: 13231919
L1D ROI Sum of L1D PQ occupancy: 157024935
L1D PREFETCHES PUSHED FROM L2C: 0
L1I TOTAL     ACCESS:   37976879  HIT:   28847188  MISS:    9129691  HIT %:    75.9599  MISS %:    24.0401   MPKI: 45.6485
L1I LOAD      ACCESS:   37976879  HIT:   28847188  MISS:    9129691  HIT %:    75.9599  MISS %:    24.0401   MPKI: 45.6485
L1I PREFETCH  REQUESTED:          0  ISSUED:          0  USEFUL:          0  USELESS:          0
L1I USEFUL LOAD PREFETCHES:          0 PREFETCH ISSUED TO LOWER LEVEL:          0  ACCURACY: -nan
L1I TIMELY PREFETCHES:          0 LATE PREFETCHES: 0 DROPPED PREFETCHES: 0
L1I PREFETCHES SAME FILL-ORIGIN LEVEL: 0 DIFFERENT FILL-ORIGIN LEVEL: 0
L1I AVERAGE MISS LATENCY: 16.5586 cycles
L1I RQ	ACCESS:   58811973	FORWARD:          0	MERGED:   18167564	TO_CACHE:   40644409

BTB TOTAL     ACCESS:   25683983  HIT:   24137267  MISS:    1546716  HIT %:    93.9779  MISS %:     6.0221   MPKI: 7.73358
BTB BRANCH_DIRECT_JUMP	ACCESS:    1661224  HIT:    1651564  MISS:       9660
BTB BRANCH_INDIRECT	ACCESS:    9989440  HIT:    9473851  MISS:     515589
BTB BRANCH_CONDITIONAL	ACCESS:    7185443  HIT:    7172058  MISS:      13385
BTB BRANCH_DIRECT_CALL	ACCESS:    2827619  HIT:    2794301  MISS:      33318
BTB BRANCH_INDIRECT_CALL	ACCESS:     596257  HIT:     484762  MISS:     111495
BTB BRANCH_RETURN	ACCESS:    3424000  HIT:    2560731  MISS:     863269
BTB BRANCH_OTHER ACCESS:          0  HIT:          0  MISS:          0

L2C TOTAL     ACCESS:   21461469  HIT:   14717537  MISS:    6743932  HIT %:    68.5766  MISS %:    31.4234   MPKI: 33.7197
L2C LOAD      ACCESS:   11424953  HIT:    9418462  MISS:    2006491  HIT %:    82.4376  MISS %:    17.5624   MPKI: 10.0325
L2C DATA LOAD MPKI: 7.1791
L2C INSTRUCTION LOAD MPKI: 2.85335
L2C RFO       ACCESS:    3682666  HIT:     158156  MISS:    3524510  HIT %:    4.29461  MISS %:    95.7054   MPKI: 17.6225
L2C PREFETCH  ACCESS:    1913753  HIT:     906966  MISS:    1006787  HIT %:     47.392  MISS %:     52.608   MPKI: 5.03393
L2C DATA PREFETCH MPKI: 5.03393
L2C INSTRUCTION PREFETCH MPKI: 0
L2C WRITEBACK ACCESS:    4336636  HIT:    4176804  MISS:     159832  HIT %:    96.3144  MISS %:    3.68562   MPKI: 0.79916
L2C LOAD TRANSLATION ACCESS:      78514  HIT:      39696  MISS:      38818  HIT %:    50.5591  MISS %:    49.4409   MPKI: 0.19409
L2C TRANSLATION FROM L1D PREFETCHER ACCESS:      24947  HIT:      17453  MISS:       7494  HIT %:    69.9603  MISS %:    30.0397   MPKI: 0.03747
L2C PREFETCH  REQUESTED:          0  ISSUED:          0  USEFUL:     221305  USELESS:     793549
L2C USEFUL LOAD PREFETCHES:     221305 PREFETCH ISSUED TO LOWER LEVEL:    1095091  ACCURACY: 20.2088
L2C TIMELY PREFETCHES:     221305 LATE PREFETCHES: 88304 DROPPED PREFETCHES: 0
L2C PREFETCHES SAME FILL-ORIGIN LEVEL: 837890 DIFFERENT FILL-ORIGIN LEVEL: 0
L2C AVERAGE MISS LATENCY: 167.923 cycles
L2C RQ	ACCESS:   15211325	FORWARD:          0	MERGED:          0	TO_CACHE:   15211096
L2C WQ	ACCESS:    4336636	FORWARD:        229	MERGED:          0	TO_CACHE:    4336636
L2C PQ	ACCESS:    3338611	FORWARD:          0	MERGED:      30114	TO_CACHE:    3308497

L2C Instructions Evicting Data 524579
L2C Translations Evicting Data 42042
L2C Data Evicting Data 5415016
L2C Instructions Evicting Instructions 42172
L2C Translations Evicting Instructions 4094
L2C Data Evicting Instructions 510657
L2C Instructions Evicting Translations 3920
L2C Translations Evicting Translations 176
L2C Data Evicting Translations 41444
L2C Dense regions hint from L2: 0
PSCL5 TOTAL     ACCESS:      89705  HIT:      89705  MISS:          0  HIT %:        100  MISS %:          0   MPKI: 0
PSCL5 LOAD TRANSLATION ACCESS:      68611  HIT:      68611  MISS:          0  HIT %:        100  MISS %:          0   MPKI: 0
PSCL5 TRANSLATION FROM L1D PREFETCHER ACCESS:      21094  HIT:      21094  MISS:          0  HIT %:        100  MISS %:          0   MPKI: 0
PSCL5 PREFETCH  REQUESTED:          0  ISSUED:          0  USEFUL:          0  USELESS:          0
PSCL5 USEFUL LOAD PREFETCHES:          0 PREFETCH ISSUED TO LOWER LEVEL:          0  ACCURACY: -nan
PSCL5 TIMELY PREFETCHES:          0 LATE PREFETCHES: 0 DROPPED PREFETCHES: 0
PSCL5 PREFETCHES SAME FILL-ORIGIN LEVEL: 0 DIFFERENT FILL-ORIGIN LEVEL: 0

PSCL4 TOTAL     ACCESS:      77755  HIT:      77648  MISS:        107  HIT %:    99.8624  MISS %:   0.137612   MPKI: 0.000535
PSCL4 LOAD TRANSLATION ACCESS:      60331  HIT:      60224  MISS:        107  HIT %:    99.8226  MISS %:   0.177355   MPKI: 0.000535
PSCL4 TRANSLATION FROM L1D PREFETCHER ACCESS:      17424  HIT:      17424  MISS:          0  HIT %:        100  MISS %:          0   MPKI: 0
PSCL4 PREFETCH  REQUESTED:          0  ISSUED:          0  USEFUL:          0  USELESS:          0
PSCL4 USEFUL LOAD PREFETCHES:          0 PREFETCH ISSUED TO LOWER LEVEL:          0  ACCURACY: -nan
PSCL4 TIMELY PREFETCHES:          0 LATE PREFETCHES: 0 DROPPED PREFETCHES: 0
PSCL4 PREFETCHES SAME FILL-ORIGIN LEVEL: 0 DIFFERENT FILL-ORIGIN LEVEL: 0

PSCL3 TOTAL     ACCESS:      89435  HIT:      89219  MISS:        216  HIT %:    99.7585  MISS %:   0.241516   MPKI: 0.00108
PSCL3 LOAD TRANSLATION ACCESS:      68555  HIT:      68339  MISS:        216  HIT %:    99.6849  MISS %:   0.315075   MPKI: 0.00108
PSCL3 TRANSLATION FROM L1D PREFETCHER ACCESS:      20880  HIT:      20880  MISS:          0  HIT %:        100  MISS %:          0   MPKI: 0
PSCL3 PREFETCH  REQUESTED:          0  ISSUED:          0  USEFUL:          0  USELESS:          0
PSCL3 USEFUL LOAD PREFETCHES:          0 PREFETCH ISSUED TO LOWER LEVEL:          0  ACCURACY: -nan
PSCL3 TIMELY PREFETCHES:          0 LATE PREFETCHES: 0 DROPPED PREFETCHES: 0
PSCL3 PREFETCHES SAME FILL-ORIGIN LEVEL: 0 DIFFERENT FILL-ORIGIN LEVEL: 0

PSCL2 TOTAL     ACCESS:      86163  HIT:      76342  MISS:       9821  HIT %:    88.6018  MISS %:    11.3982   MPKI: 0.049105
PSCL2 LOAD TRANSLATION ACCESS:      68843  HIT:      59022  MISS:       9821  HIT %:    85.7342  MISS %:    14.2658   MPKI: 0.049105
PSCL2 TRANSLATION FROM L1D PREFETCHER ACCESS:      17320  HIT:      17320  MISS:          0  HIT %:        100  MISS %:          0   MPKI: 0
PSCL2 PREFETCH  REQUESTED:          0  ISSUED:          0  USEFUL:          0  USELESS:          0
PSCL2 USEFUL LOAD PREFETCHES:          0 PREFETCH ISSUED TO LOWER LEVEL:          0  ACCURACY: -nan
PSCL2 TIMELY PREFETCHES:          0 LATE PREFETCHES: 0 DROPPED PREFETCHES: 0
PSCL2 PREFETCHES SAME FILL-ORIGIN LEVEL: 0 DIFFERENT FILL-ORIGIN LEVEL: 0

LLC TOTAL     ACCESS:   10614456  HIT:    4220182  MISS:    6394274  HIT %:    39.7588  MISS %:    60.2412   MPKI: 31.9714
LLC LOAD      ACCESS:    1918186  HIT:    1625521  MISS:     292665  HIT %:    84.7426  MISS %:    15.2574   MPKI: 1.46332
LLC RFO       ACCESS:    3524471  HIT:     975489  MISS:    2548982  HIT %:    27.6776  MISS %:    72.3224   MPKI: 12.7449
LLC PREFETCH  ACCESS:    1095091  HIT:      52655  MISS:    1042436  HIT %:    4.80828  MISS %:    95.1917   MPKI: 5.21218
LLC WRITEBACK ACCESS:    4030396  HIT:    1552096  MISS:    2478300  HIT %:    38.5098  MISS %:    61.4902   MPKI: 12.3915
LLC LOAD TRANSLATION ACCESS:      38818  HIT:      12140  MISS:      26678  HIT %:    31.2742  MISS %:    68.7258   MPKI: 0.13339
LLC TRANSLATION FROM L1D PREFETCHER ACCESS:       7494  HIT:       2281  MISS:       5213  HIT %:    30.4377  MISS %:    69.5623   MPKI: 0.026065
LLC PREFETCH  REQUESTED:          0  ISSUED:          0  USEFUL:       2308  USELESS:    1045764
LLC USEFUL LOAD PREFETCHES:       2308 PREFETCH ISSUED TO LOWER LEVEL:    1042436  ACCURACY: 0.221404
LLC TIMELY PREFETCHES:       2308 LATE PREFETCHES: 0 DROPPED PREFETCHES: 0
LLC PREFETCHES SAME FILL-ORIGIN LEVEL: 0 DIFFERENT FILL-ORIGIN LEVEL: 0
LLC AVERAGE MISS LATENCY: 147.832 cycles
LLC RQ	ACCESS:    5489025	FORWARD:          0	MERGED:          0	TO_CACHE:    5488985
LLC WQ	ACCESS:    4030396	FORWARD:         40	MERGED:          0	TO_CACHE:    4030396
LLC PQ	ACCESS:    1095091	FORWARD:          0	MERGED:          0	TO_CACHE:    1095091

LLC Dense regions hint to LLC: 0

RAW hits: 2483931
Loads Generated: 47745046
Loads sent to L1D: 45261110
Stores Generated: 34174248
Stores sent to L1D: 34174261
Major fault: 0 Minor fault: 8817
Allocated PAGES: 8817

DRAM Statistics
 CHANNEL 0
 RQ ROW_BUFFER_HIT:    2291000  ROW_BUFFER_MISS:    1624315
 DBUS_CONGESTED:       2849
 WQ ROW_BUFFER_HIT:     529363  ROW_BUFFER_MISS:    2090607  FULL:     123989

 AVG_CONGESTED_CYCLE: 3
 All warmup complete: 2
Channel 0 Bank busy for read cycles: 0
Channel 0 Bank busy for write cycles: 0
Channel 0
Rank 0
0banks busy for read cycles: 177366486
0banks busy for write cycles: 266237
1banks busy for read cycles: 26876716
1banks busy for write cycles: 37419462
2banks busy for read cycles: 9769668
2banks busy for write cycles: 12800395
3banks busy for read cycles: 13253786
3banks busy for write cycles: 5379696
4banks busy for read cycles: 4362650
4banks busy for write cycles: 3386717
5banks busy for read cycles: 3714525
5banks busy for write cycles: 2928196
6banks busy for read cycles: 4699272
6banks busy for write cycles: 2914270
7banks busy for read cycles: 6519359
7banks busy for write cycles: 5285666
8banks busy for read cycles: 21525561
8banks busy for write cycles: 31926787

CPU 0 Branch Prediction Accuracy: 99.9482% MPKI: 0.079205 Average ROB Occupancy at Mispredict: 102.564
Branch types
NOT_BRANCH: 169447800 84.7239%
BRANCH_DIRECT_JUMP: 1661224 0.830612%
BRANCH_INDIRECT: 9989440 4.99472%
BRANCH_CONDITIONAL: 12053307 6.02665%
BRANCH_DIRECT_CALL: 2827619 1.41381%
BRANCH_INDIRECT_CALL: 596257 0.298128%
BRANCH_RETURN: 3424000 1.712%
BRANCH_OTHER: 0 0%

DRAM PAGES: 1048576
Allocated PAGES: 8817
