
*** ChampSim Multicore Out-of-Order Simulator ***

Warmup Instructions: 50000000
Simulation Instructions: 200000000
Number of CPUs: 1
LLC sets: 2048
LLC ways: 16
Off-chip DRAM Size: 4096 MB Channels: 1 Width: 64-bit Data Rate: 6400 MT/s
CPU 0 runs traces/spec2k17/srv_20.champsimtrace.xz
.xz
BTB has LRU replacement policy
ITLB has LRU replacement policy
DTLB has LRU replacement policy
STLB has LRU replacement policy
L1I has LRU replacement policy
History Sets: 8
History Ways: 16
BERTI Size: 16
BERTI Stride Size: 16
L1D has LRU replacement policy
Initialize SRRIP state for L2C
Initialize DRRIP state for LLC
Heartbeat CPU 0 instructions: 10000001 cycles: 2825117 heartbeat IPC: 3.53968 cumulative IPC: 3.53968 (Simulation time: 0 hr 0 min 36 sec) 
Heartbeat CPU 0 instructions: 20000003 cycles: 5641359 heartbeat IPC: 3.55083 cumulative IPC: 3.54525 (Simulation time: 0 hr 1 min 16 sec) 
Heartbeat CPU 0 instructions: 30000003 cycles: 8460022 heartbeat IPC: 3.54778 cumulative IPC: 3.54609 (Simulation time: 0 hr 1 min 55 sec) 
*** Reached end of trace for Core: 0 Repeating trace: traces/spec2k17/srv_20.champsimtrace.xz
Heartbeat CPU 0 instructions: 40000000 cycles: 11278727 heartbeat IPC: 3.54773 cumulative IPC: 3.5465 (Simulation time: 0 hr 2 min 29 sec) 
Heartbeat CPU 0 instructions: 50000003 cycles: 14095497 heartbeat IPC: 3.55017 cumulative IPC: 3.54723 (Simulation time: 0 hr 3 min 7 sec) 

Warmup complete CPU 0 instructions: 50000003 cycles: 14095497 (Simulation time: 0 hr 3 min 7 sec) 

Heartbeat CPU 0 instructions: 60000003 cycles: 46343752 heartbeat IPC: 0.310094 cumulative IPC: 0.310094 (Simulation time: 0 hr 4 min 0 sec) 
*** Reached end of trace for Core: 0 Repeating trace: traces/spec2k17/srv_20.champsimtrace.xz
Heartbeat CPU 0 instructions: 70000003 cycles: 78530560 heartbeat IPC: 0.310686 cumulative IPC: 0.31039 (Simulation time: 0 hr 4 min 52 sec) 
Heartbeat CPU 0 instructions: 80000000 cycles: 110599040 heartbeat IPC: 0.311833 cumulative IPC: 0.310869 (Simulation time: 0 hr 5 min 46 sec) 
Heartbeat CPU 0 instructions: 90000001 cycles: 142722929 heartbeat IPC: 0.311295 cumulative IPC: 0.310976 (Simulation time: 0 hr 6 min 45 sec) 
*** Reached end of trace for Core: 0 Repeating trace: traces/spec2k17/srv_20.champsimtrace.xz
Heartbeat CPU 0 instructions: 100000001 cycles: 174880094 heartbeat IPC: 0.310973 cumulative IPC: 0.310975 (Simulation time: 0 hr 7 min 35 sec) 
Heartbeat CPU 0 instructions: 110000000 cycles: 207015938 heartbeat IPC: 0.311179 cumulative IPC: 0.311009 (Simulation time: 0 hr 8 min 28 sec) 
Heartbeat CPU 0 instructions: 120000000 cycles: 239100398 heartbeat IPC: 0.311677 cumulative IPC: 0.311104 (Simulation time: 0 hr 9 min 23 sec) 
*** Reached end of trace for Core: 0 Repeating trace: traces/spec2k17/srv_20.champsimtrace.xz
Heartbeat CPU 0 instructions: 130000000 cycles: 271235489 heartbeat IPC: 0.311186 cumulative IPC: 0.311115 (Simulation time: 0 hr 10 min 21 sec) 
Heartbeat CPU 0 instructions: 140000000 cycles: 303402164 heartbeat IPC: 0.310881 cumulative IPC: 0.311089 (Simulation time: 0 hr 11 min 13 sec) 
Heartbeat CPU 0 instructions: 150000000 cycles: 335483845 heartbeat IPC: 0.311704 cumulative IPC: 0.31115 (Simulation time: 0 hr 12 min 11 sec) 
*** Reached end of trace for Core: 0 Repeating trace: traces/spec2k17/srv_20.champsimtrace.xz
Heartbeat CPU 0 instructions: 160000003 cycles: 367571105 heartbeat IPC: 0.31165 cumulative IPC: 0.311195 (Simulation time: 0 hr 13 min 5 sec) 
Heartbeat CPU 0 instructions: 170000001 cycles: 399788415 heartbeat IPC: 0.310392 cumulative IPC: 0.311128 (Simulation time: 0 hr 13 min 59 sec) 
Heartbeat CPU 0 instructions: 180000001 cycles: 431734388 heartbeat IPC: 0.313029 cumulative IPC: 0.311274 (Simulation time: 0 hr 14 min 53 sec) 
*** Reached end of trace for Core: 0 Repeating trace: traces/spec2k17/srv_20.champsimtrace.xz
Heartbeat CPU 0 instructions: 190000002 cycles: 463828910 heartbeat IPC: 0.31158 cumulative IPC: 0.311296 (Simulation time: 0 hr 15 min 53 sec) 
Heartbeat CPU 0 instructions: 200000000 cycles: 496034570 heartbeat IPC: 0.310504 cumulative IPC: 0.311243 (Simulation time: 0 hr 16 min 45 sec) 
Heartbeat CPU 0 instructions: 210000002 cycles: 527981011 heartbeat IPC: 0.313024 cumulative IPC: 0.311353 (Simulation time: 0 hr 17 min 39 sec) 
*** Reached end of trace for Core: 0 Repeating trace: traces/spec2k17/srv_20.champsimtrace.xz
Heartbeat CPU 0 instructions: 220000000 cycles: 560088005 heartbeat IPC: 0.311459 cumulative IPC: 0.31136 (Simulation time: 0 hr 18 min 36 sec) 
Heartbeat CPU 0 instructions: 230000000 cycles: 592272685 heartbeat IPC: 0.310707 cumulative IPC: 0.311323 (Simulation time: 0 hr 19 min 30 sec) 
Heartbeat CPU 0 instructions: 240000000 cycles: 624329222 heartbeat IPC: 0.311949 cumulative IPC: 0.311356 (Simulation time: 0 hr 20 min 22 sec) 
*** Reached end of trace for Core: 0 Repeating trace: traces/spec2k17/srv_20.champsimtrace.xz
Heartbeat CPU 0 instructions: 250000002 cycles: 656494069 heartbeat IPC: 0.310898 cumulative IPC: 0.311333 (Simulation time: 0 hr 21 min 16 sec) 
Finished CPU 0 instructions: 200000003 cycles: 642398573 cumulative IPC: 0.311333 (Simulation time: 0 hr 21 min 16 sec) 

ChampSim completed all CPUs

Region of Interest Statistics

CPU 0 cumulative IPC: 0.311333 instructions: 200000003 cycles: 642398573
ITLB TOTAL     ACCESS:   34706399  HIT:   32672715  MISS:    2033684  HIT %:    94.1403  MISS %:    5.85968   MPKI: 10.1684
ITLB LOAD TRANSLATION ACCESS:   34706399  HIT:   32672715  MISS:    2033684  HIT %:    94.1403  MISS %:    5.85968   MPKI: 10.1684
ITLB PREFETCH  REQUESTED:          0  ISSUED:          0  USEFUL:          0  USELESS:          0
ITLB USEFUL LOAD PREFETCHES:          0 PREFETCH ISSUED TO LOWER LEVEL:          0  ACCURACY: -nan
ITLB TIMELY PREFETCHES:          0 LATE PREFETCHES: 0 DROPPED PREFETCHES: 0
ITLB PREFETCHES SAME FILL-ORIGIN LEVEL: 0 DIFFERENT FILL-ORIGIN LEVEL: 0
ITLB AVERAGE MISS LATENCY: 9.04085 cycles
ITLB RQ	ACCESS:   40931285	FORWARD:          0	MERGED:    5740433	TO_CACHE:   35190852

DTLB TOTAL     ACCESS:   46510114  HIT:   44668374  MISS:    1841740  HIT %:    96.0401  MISS %:    3.95987   MPKI: 9.2087
DTLB LOAD TRANSLATION ACCESS:   46510114  HIT:   44668374  MISS:    1841740  HIT %:    96.0401  MISS %:    3.95987   MPKI: 9.2087
DTLB PREFETCH  REQUESTED:          0  ISSUED:          0  USEFUL:          0  USELESS:          0
DTLB USEFUL LOAD PREFETCHES:          0 PREFETCH ISSUED TO LOWER LEVEL:          0  ACCURACY: -nan
DTLB TIMELY PREFETCHES:          0 LATE PREFETCHES: 0 DROPPED PREFETCHES: 0
DTLB PREFETCHES SAME FILL-ORIGIN LEVEL: 0 DIFFERENT FILL-ORIGIN LEVEL: 0
DTLB AVERAGE MISS LATENCY: 9.1753 cycles
DTLB RQ	ACCESS:   61133765	FORWARD:          0	MERGED:   14559173	TO_CACHE:   46574592

STLB TOTAL     ACCESS:    4113920  HIT:    4105601  MISS:       8319  HIT %:    99.7978  MISS %:   0.202216   MPKI: 0.041595
STLB LOAD TRANSLATION ACCESS:    3875424  HIT:    3867380  MISS:       8044  HIT %:    99.7924  MISS %:   0.207564   MPKI: 0.04022
STLB TRANSLATION FROM L1D PREFETCHER ACCESS:     238496  HIT:     238221  MISS:        275  HIT %:    99.8847  MISS %:   0.115306   MPKI: 0.001375
STLB PREFETCH  REQUESTED:          0  ISSUED:          0  USEFUL:        264  USELESS:         11
STLB USEFUL LOAD PREFETCHES:        264 PREFETCH ISSUED TO LOWER LEVEL:          0  ACCURACY: inf
STLB TIMELY PREFETCHES:        264 LATE PREFETCHES: 0 DROPPED PREFETCHES: 684
STLB PREFETCHES SAME FILL-ORIGIN LEVEL: 0 DIFFERENT FILL-ORIGIN LEVEL: 0
STLB AVERAGE MISS LATENCY: 47.0511 cycles
STLB RQ	ACCESS:    5274802	FORWARD:          0	MERGED:    1159718	TO_CACHE:    4115084

STLB Hit, L1D data hit: 0
STLB Hit, L2C data hit: 0
STLB Hit, LLC data hit: 0
STLB Hit, LLC data miss: 0
STLB STLB hints to L2: 0
L1D TOTAL     ACCESS:   60037294  HIT:   55991338  MISS:    4045956  HIT %:    93.2609  MISS %:    6.73907   MPKI: 20.2298
L1D LOAD      ACCESS:   34217936  HIT:   31448899  MISS:    2769037  HIT %:    91.9076  MISS %:    8.09236   MPKI: 13.8452
L1D RFO       ACCESS:   25007790  HIT:   23873398  MISS:    1134392  HIT %:    95.4638  MISS %:    4.53615   MPKI: 5.67196
L1D PREFETCH  ACCESS:     811568  HIT:     669041  MISS:     142527  HIT %:    82.4381  MISS %:    17.5619   MPKI: 0.712635
L1D PREFETCH  REQUESTED:    3082218  ISSUED:    3078442  USEFUL:      83095  USELESS:      59425
L1D USEFUL LOAD PREFETCHES:      83095 PREFETCH ISSUED TO LOWER LEVEL:     715544  ACCURACY: 11.6128
L1D TIMELY PREFETCHES:      83095 LATE PREFETCHES: 9447 DROPPED PREFETCHES: 1688
L1D PREFETCHES SAME FILL-ORIGIN LEVEL: 151974 DIFFERENT FILL-ORIGIN LEVEL: 563570
L1D AVERAGE MISS LATENCY: 20.0031 cycles
L1D RQ	ACCESS:   47503809	FORWARD:          0	MERGED:   12862623	TO_CACHE:   34342224
L1D WQ	ACCESS:   26961101	FORWARD:     298962	MERGED:     169560	TO_CACHE:   26791541
L1D PQ	ACCESS:    1679064	FORWARD:          0	MERGED:     279686	TO_CACHE:    1399378

L1D UNIQUE REGIONS ACCESSED: 0
L1D REGIONS CONFLICTS: 0
L1D Cross Page Prefetch Requests: 204619
L1D Same Page Prefetch Requests: 1887585
L1D ROI Sum of L1D PQ occupancy: 20240774
L1D PREFETCHES PUSHED FROM L2C: 0
L1I TOTAL     ACCESS:   39406543  HIT:   28790037  MISS:   10616506  HIT %:     73.059  MISS %:     26.941   MPKI: 53.0825
L1I LOAD      ACCESS:   39406543  HIT:   28790037  MISS:   10616506  HIT %:     73.059  MISS %:     26.941   MPKI: 53.0825
L1I PREFETCH  REQUESTED:          0  ISSUED:          0  USEFUL:          0  USELESS:          0
L1I USEFUL LOAD PREFETCHES:          0 PREFETCH ISSUED TO LOWER LEVEL:          0  ACCURACY: -nan
L1I TIMELY PREFETCHES:          0 LATE PREFETCHES: 0 DROPPED PREFETCHES: 0
L1I PREFETCHES SAME FILL-ORIGIN LEVEL: 0 DIFFERENT FILL-ORIGIN LEVEL: 0
L1I AVERAGE MISS LATENCY: 16.6905 cycles
L1I RQ	ACCESS:   57954898	FORWARD:          0	MERGED:   17023613	TO_CACHE:   40931285

BTB TOTAL     ACCESS:   29994000  HIT:   17272559  MISS:   12721441  HIT %:    57.5867  MISS %:    42.4133   MPKI: 63.6072
BTB BRANCH_DIRECT_JUMP	ACCESS:    2025964  HIT:    1135056  MISS:     890908
BTB BRANCH_INDIRECT	ACCESS:   11876543  HIT:    7045667  MISS:    4830876
BTB BRANCH_CONDITIONAL	ACCESS:    7549910  HIT:    6212601  MISS:    1337309
BTB BRANCH_DIRECT_CALL	ACCESS:    3602862  HIT:    1507613  MISS:    2095249
BTB BRANCH_INDIRECT_CALL	ACCESS:     667964  HIT:     262432  MISS:     405532
BTB BRANCH_RETURN	ACCESS:    4270757  HIT:    1109190  MISS:    3161567
BTB BRANCH_OTHER ACCESS:          0  HIT:          0  MISS:          0

L2C TOTAL     ACCESS:   17199300  HIT:   15574176  MISS:    1625124  HIT %:    90.5512  MISS %:    9.44878   MPKI: 8.12562
L2C LOAD      ACCESS:   13376096  HIT:   12130228  MISS:    1245868  HIT %:    90.6859  MISS %:    9.31414   MPKI: 6.22934
L2C DATA LOAD MPKI: 1.62139
L2C INSTRUCTION LOAD MPKI: 4.60794
L2C RFO       ACCESS:    1134390  HIT:     916172  MISS:     218218  HIT %:    80.7634  MISS %:    19.2366   MPKI: 1.09109
L2C PREFETCH  ACCESS:     699670  HIT:     613164  MISS:      86506  HIT %:    87.6362  MISS %:    12.3638   MPKI: 0.43253
L2C DATA PREFETCH MPKI: 0.43253
L2C INSTRUCTION PREFETCH MPKI: 0
L2C WRITEBACK ACCESS:    1979161  HIT:    1911351  MISS:      67810  HIT %:    96.5738  MISS %:     3.4262   MPKI: 0.33905
L2C LOAD TRANSLATION ACCESS:       8887  HIT:       2677  MISS:       6210  HIT %:    30.1227  MISS %:    69.8773   MPKI: 0.03105
L2C TRANSLATION FROM L1D PREFETCHER ACCESS:       1096  HIT:        584  MISS:        512  HIT %:    53.2847  MISS %:    46.7153   MPKI: 0.00256
L2C PREFETCH  REQUESTED:          0  ISSUED:          0  USEFUL:       5231  USELESS:      81795
L2C USEFUL LOAD PREFETCHES:       5231 PREFETCH ISSUED TO LOWER LEVEL:      87055  ACCURACY: 6.00884
L2C TIMELY PREFETCHES:       5231 LATE PREFETCHES: 549 DROPPED PREFETCHES: 0
L2C PREFETCHES SAME FILL-ORIGIN LEVEL: 53975 DIFFERENT FILL-ORIGIN LEVEL: 0
L2C AVERAGE MISS LATENCY: 30.8828 cycles
L2C RQ	ACCESS:   14520471	FORWARD:          0	MERGED:          0	TO_CACHE:   14520469
L2C WQ	ACCESS:    1979161	FORWARD:          2	MERGED:          0	TO_CACHE:    1979161
L2C PQ	ACCESS:     715544	FORWARD:          0	MERGED:        514	TO_CACHE:     715030

L2C Instructions Evicting Data 352696
L2C Translations Evicting Data 4464
L2C Data Evicting Data 312468
L2C Instructions Evicting Instructions 566576
L2C Translations Evicting Instructions 2219
L2C Data Evicting Instructions 312287
L2C Instructions Evicting Translations 2317
L2C Translations Evicting Translations 39
L2C Data Evicting Translations 4248
L2C Dense regions hint from L2: 0
PSCL5 TOTAL     ACCESS:       9003  HIT:       9003  MISS:          0  HIT %:        100  MISS %:          0   MPKI: 0
PSCL5 LOAD TRANSLATION ACCESS:       8044  HIT:       8044  MISS:          0  HIT %:        100  MISS %:          0   MPKI: 0
PSCL5 TRANSLATION FROM L1D PREFETCHER ACCESS:        959  HIT:        959  MISS:          0  HIT %:        100  MISS %:          0   MPKI: 0
PSCL5 PREFETCH  REQUESTED:          0  ISSUED:          0  USEFUL:          0  USELESS:          0
PSCL5 USEFUL LOAD PREFETCHES:          0 PREFETCH ISSUED TO LOWER LEVEL:          0  ACCURACY: -nan
PSCL5 TIMELY PREFETCHES:          0 LATE PREFETCHES: 0 DROPPED PREFETCHES: 0
PSCL5 PREFETCHES SAME FILL-ORIGIN LEVEL: 0 DIFFERENT FILL-ORIGIN LEVEL: 0

PSCL4 TOTAL     ACCESS:       8163  HIT:       8072  MISS:         91  HIT %:    98.8852  MISS %:    1.11479   MPKI: 0.000455
PSCL4 LOAD TRANSLATION ACCESS:       7282  HIT:       7191  MISS:         91  HIT %:    98.7503  MISS %:    1.24966   MPKI: 0.000455
PSCL4 TRANSLATION FROM L1D PREFETCHER ACCESS:        881  HIT:        881  MISS:          0  HIT %:        100  MISS %:          0   MPKI: 0
PSCL4 PREFETCH  REQUESTED:          0  ISSUED:          0  USEFUL:          0  USELESS:          0
PSCL4 USEFUL LOAD PREFETCHES:          0 PREFETCH ISSUED TO LOWER LEVEL:          0  ACCURACY: -nan
PSCL4 TIMELY PREFETCHES:          0 LATE PREFETCHES: 0 DROPPED PREFETCHES: 0
PSCL4 PREFETCHES SAME FILL-ORIGIN LEVEL: 0 DIFFERENT FILL-ORIGIN LEVEL: 0

PSCL3 TOTAL     ACCESS:       8475  HIT:       8384  MISS:         91  HIT %:    98.9263  MISS %:    1.07375   MPKI: 0.000455
PSCL3 LOAD TRANSLATION ACCESS:       7584  HIT:       7493  MISS:         91  HIT %:    98.8001  MISS %:    1.19989   MPKI: 0.000455
PSCL3 TRANSLATION FROM L1D PREFETCHER ACCESS:        891  HIT:        891  MISS:          0  HIT %:        100  MISS %:          0   MPKI: 0
PSCL3 PREFETCH  REQUESTED:          0  ISSUED:          0  USEFUL:          0  USELESS:          0
PSCL3 USEFUL LOAD PREFETCHES:          0 PREFETCH ISSUED TO LOWER LEVEL:          0  ACCURACY: -nan
PSCL3 TIMELY PREFETCHES:          0 LATE PREFETCHES: 0 DROPPED PREFETCHES: 0
PSCL3 PREFETCHES SAME FILL-ORIGIN LEVEL: 0 DIFFERENT FILL-ORIGIN LEVEL: 0

PSCL2 TOTAL     ACCESS:       8880  HIT:       8215  MISS:        665  HIT %:    92.5113  MISS %:    7.48874   MPKI: 0.003325
PSCL2 LOAD TRANSLATION ACCESS:       8048  HIT:       7383  MISS:        665  HIT %:    91.7371  MISS %:    8.26292   MPKI: 0.003325
PSCL2 TRANSLATION FROM L1D PREFETCHER ACCESS:        832  HIT:        832  MISS:          0  HIT %:        100  MISS %:          0   MPKI: 0
PSCL2 PREFETCH  REQUESTED:          0  ISSUED:          0  USEFUL:          0  USELESS:          0
PSCL2 USEFUL LOAD PREFETCHES:          0 PREFETCH ISSUED TO LOWER LEVEL:          0  ACCURACY: -nan
PSCL2 TIMELY PREFETCHES:          0 LATE PREFETCHES: 0 DROPPED PREFETCHES: 0
PSCL2 PREFETCHES SAME FILL-ORIGIN LEVEL: 0 DIFFERENT FILL-ORIGIN LEVEL: 0

LLC TOTAL     ACCESS:    1859654  HIT:    1835056  MISS:      24598  HIT %:    98.6773  MISS %:    1.32272   MPKI: 0.12299
LLC LOAD      ACCESS:    1245319  HIT:    1236718  MISS:       8601  HIT %:    99.3093  MISS %:   0.690666   MPKI: 0.043005
LLC RFO       ACCESS:     218218  HIT:     207995  MISS:      10223  HIT %:    95.3152  MISS %:    4.68476   MPKI: 0.051115
LLC PREFETCH  ACCESS:      87055  HIT:      81587  MISS:       5468  HIT %:    93.7189  MISS %:    6.28109   MPKI: 0.02734
LLC WRITEBACK ACCESS:     302340  HIT:     302221  MISS:        119  HIT %:    99.9606  MISS %:  0.0393597   MPKI: 0.000595
LLC LOAD TRANSLATION ACCESS:       6210  HIT:       6030  MISS:        180  HIT %:    97.1014  MISS %:    2.89855   MPKI: 0.0009
LLC TRANSLATION FROM L1D PREFETCHER ACCESS:        512  HIT:        505  MISS:          7  HIT %:    98.6328  MISS %:    1.36719   MPKI: 3.5e-05
LLC PREFETCH  REQUESTED:          0  ISSUED:          0  USEFUL:        409  USELESS:       5343
LLC USEFUL LOAD PREFETCHES:        409 PREFETCH ISSUED TO LOWER LEVEL:       5468  ACCURACY: 7.47988
LLC TIMELY PREFETCHES:        409 LATE PREFETCHES: 0 DROPPED PREFETCHES: 0
LLC PREFETCHES SAME FILL-ORIGIN LEVEL: 0 DIFFERENT FILL-ORIGIN LEVEL: 0
LLC AVERAGE MISS LATENCY: 141.126 cycles
LLC RQ	ACCESS:    1470259	FORWARD:          0	MERGED:          0	TO_CACHE:    1470259
LLC WQ	ACCESS:     302340	FORWARD:          0	MERGED:          0	TO_CACHE:     302340
LLC PQ	ACCESS:      87055	FORWARD:          0	MERGED:          0	TO_CACHE:      87055

LLC Dense regions hint to LLC: 0

RAW hits: 1434126
Loads Generated: 48937935
Loads sent to L1D: 47503809
Stores Generated: 26961103
Stores sent to L1D: 26961101
Major fault: 0 Minor fault: 1949
Allocated PAGES: 1949

DRAM Statistics
 CHANNEL 0
 RQ ROW_BUFFER_HIT:       7871  ROW_BUFFER_MISS:      16602
 DBUS_CONGESTED:         74
 WQ ROW_BUFFER_HIT:       1024  ROW_BUFFER_MISS:      10156  FULL:          0

 AVG_CONGESTED_CYCLE: 5
 All warmup complete: 2
Channel 0 Bank busy for read cycles: 0
Channel 0 Bank busy for write cycles: 0
Channel 0
Rank 0
0banks busy for read cycles: 639849317
0banks busy for write cycles: 4329
1banks busy for read cycles: 1089264
1banks busy for write cycles: 525168
2banks busy for read cycles: 277200
2banks busy for write cycles: 124801
3banks busy for read cycles: 134831
3banks busy for write cycles: 70276
4banks busy for read cycles: 73841
4banks busy for write cycles: 49885
5banks busy for read cycles: 43267
5banks busy for write cycles: 33379
6banks busy for read cycles: 25627
6banks busy for write cycles: 27363
7banks busy for read cycles: 14549
7banks busy for write cycles: 23239
8banks busy for read cycles: 8667
8banks busy for write cycles: 23571

CPU 0 Branch Prediction Accuracy: 99.8849% MPKI: 0.202245 Average ROB Occupancy at Mispredict: 32.0378
Branch types
NOT_BRANCH: 164866955 82.4335%
BRANCH_DIRECT_JUMP: 2025964 1.01298%
BRANCH_INDIRECT: 11876543 5.93827%
BRANCH_CONDITIONAL: 12688705 6.34435%
BRANCH_DIRECT_CALL: 3602862 1.80143%
BRANCH_INDIRECT_CALL: 667964 0.333982%
BRANCH_RETURN: 4270757 2.13538%
BRANCH_OTHER: 0 0%

DRAM PAGES: 1048576
Allocated PAGES: 1949
