
*** ChampSim Multicore Out-of-Order Simulator ***

Warmup Instructions: 50000000
Simulation Instructions: 200000000
Number of CPUs: 1
LLC sets: 2048
LLC ways: 16
Off-chip DRAM Size: 4096 MB Channels: 1 Width: 64-bit Data Rate: 6400 MT/s
CPU 0 runs traces/spec2k17/client_006.champsimtrace.xz
.xz
BTB has LRU replacement policy
ITLB has LRU replacement policy
DTLB has LRU replacement policy
STLB has LRU replacement policy
L1I has LRU replacement policy
L1D has LRU replacement policy
Initialize SRRIP state for L2C
Initialize DRRIP state for LLC
Offsets elements: -63 -62 -61 -60 -59 -58 -57 -56 -55 -54 -53 -52 -51 -50 -49 -48 -47 -46 -45 -44 -43 -42 -41 -40 -39 -38 -37 -36 -35 -34 -33 -32 -31 -30 -29 -28 -27 -26 -25 -24 -23 -22 -21 -20 -19 -18 -17 -16 -15 -14 -13 -12 -11 -10 -9 -8 -7 -6 -5 -4 -3 -2 -1 1 2 3 4 5 6 7 8 9 10 11 12 13 14 15 16 17 18 19 20 21 22 23 24 25 26 27 28 29 30 31 32 33 34 35 36 37 38 39 40 41 42 43 44 45 46 47 48 49 50 51 52 53 54 55 56 57 58 59 60 61 62 63 
Potential of Offsets elements: 
rewards of Offsets elements: 0 0 0 0 0 72 30 150 88 0 0 6 8 1 0 0 2 26 6 7 3 0 45 0 1 3 26 5 14 5 42 82 1 12 17 114 77 25 64 96 19 84 3 97 107 35 29 115 219 173 63 245 672 402 220 165 527 617 523 387 473 948 1446 752 918 640 588 569 361 311 516 361 231 9 362 258 69 31 186 199 135 47 70 51 1309 79 16 62 13 77 220 35 22 8 4 6 2 0 8 70 29 78 1 0 6 59 6 0 0 0 15 0 1 7 6 2 0 0 0 4 0 0 0 0 0 0 
Printing Sanity1
Heartbeat CPU 0 instructions: 10000000 cycles: 3270808 heartbeat IPC: 3.05735 cumulative IPC: 3.05735 (Simulation time: 0 hr 0 min 49 sec) 
Heartbeat CPU 0 instructions: 20000002 cycles: 6466254 heartbeat IPC: 3.12945 cumulative IPC: 3.09298 (Simulation time: 0 hr 1 min 45 sec) 
Heartbeat CPU 0 instructions: 30000000 cycles: 9252712 heartbeat IPC: 3.58878 cumulative IPC: 3.24229 (Simulation time: 0 hr 2 min 27 sec) 
Heartbeat CPU 0 instructions: 40000001 cycles: 12136285 heartbeat IPC: 3.46792 cumulative IPC: 3.2959 (Simulation time: 0 hr 3 min 3 sec) 
Heartbeat CPU 0 instructions: 50000001 cycles: 15301261 heartbeat IPC: 3.15958 cumulative IPC: 3.2677 (Simulation time: 0 hr 3 min 42 sec) 

Warmup complete CPU 0 instructions: 50000001 cycles: 15301261 (Simulation time: 0 hr 3 min 42 sec) 

Heartbeat CPU 0 instructions: 60000000 cycles: 33713046 heartbeat IPC: 0.54313 cumulative IPC: 0.54313 (Simulation time: 0 hr 4 min 37 sec) 
Heartbeat CPU 0 instructions: 70000000 cycles: 56971193 heartbeat IPC: 0.429957 cumulative IPC: 0.479962 (Simulation time: 0 hr 5 min 41 sec) 
Heartbeat CPU 0 instructions: 80000000 cycles: 74936760 heartbeat IPC: 0.55662 cumulative IPC: 0.503056 (Simulation time: 0 hr 6 min 42 sec) 
Heartbeat CPU 0 instructions: 90000000 cycles: 95379856 heartbeat IPC: 0.489163 cumulative IPC: 0.499509 (Simulation time: 0 hr 7 min 41 sec) 
Heartbeat CPU 0 instructions: 100000002 cycles: 113640476 heartbeat IPC: 0.547627 cumulative IPC: 0.508444 (Simulation time: 0 hr 8 min 42 sec) 
*** Reached end of trace for Core: 0 Repeating trace: traces/spec2k17/client_006.champsimtrace.xz
Heartbeat CPU 0 instructions: 110000000 cycles: 130710084 heartbeat IPC: 0.585836 cumulative IPC: 0.519891 (Simulation time: 0 hr 9 min 47 sec) 
Heartbeat CPU 0 instructions: 120000003 cycles: 147990595 heartbeat IPC: 0.578687 cumulative IPC: 0.527548 (Simulation time: 0 hr 10 min 53 sec) 
Heartbeat CPU 0 instructions: 130000002 cycles: 165069134 heartbeat IPC: 0.58553 cumulative IPC: 0.53416 (Simulation time: 0 hr 11 min 47 sec) 
Heartbeat CPU 0 instructions: 140000002 cycles: 181476070 heartbeat IPC: 0.609498 cumulative IPC: 0.541598 (Simulation time: 0 hr 12 min 31 sec) 
Heartbeat CPU 0 instructions: 150000001 cycles: 201620485 heartbeat IPC: 0.496415 cumulative IPC: 0.536713 (Simulation time: 0 hr 13 min 14 sec) 
Heartbeat CPU 0 instructions: 160000000 cycles: 218760155 heartbeat IPC: 0.583442 cumulative IPC: 0.54065 (Simulation time: 0 hr 13 min 48 sec) 
Heartbeat CPU 0 instructions: 170000000 cycles: 242443186 heartbeat IPC: 0.422243 cumulative IPC: 0.528304 (Simulation time: 0 hr 14 min 26 sec) 
Heartbeat CPU 0 instructions: 180000003 cycles: 260665220 heartbeat IPC: 0.548786 cumulative IPC: 0.529825 (Simulation time: 0 hr 15 min 0 sec) 
Heartbeat CPU 0 instructions: 190000000 cycles: 280720343 heartbeat IPC: 0.498626 cumulative IPC: 0.527468 (Simulation time: 0 hr 15 min 34 sec) 
Heartbeat CPU 0 instructions: 200000000 cycles: 298720292 heartbeat IPC: 0.555557 cumulative IPC: 0.529252 (Simulation time: 0 hr 16 min 8 sec) 
*** Reached end of trace for Core: 0 Repeating trace: traces/spec2k17/client_006.champsimtrace.xz
Heartbeat CPU 0 instructions: 210000003 cycles: 315919727 heartbeat IPC: 0.581415 cumulative IPC: 0.532236 (Simulation time: 0 hr 16 min 49 sec) 
Heartbeat CPU 0 instructions: 220000000 cycles: 333315010 heartbeat IPC: 0.574868 cumulative IPC: 0.534568 (Simulation time: 0 hr 17 min 52 sec) 
Heartbeat CPU 0 instructions: 230000000 cycles: 349437273 heartbeat IPC: 0.62026 cumulative IPC: 0.538703 (Simulation time: 0 hr 18 min 35 sec) 
Heartbeat CPU 0 instructions: 240000002 cycles: 366460956 heartbeat IPC: 0.587417 cumulative IPC: 0.541064 (Simulation time: 0 hr 19 min 11 sec) 
Heartbeat CPU 0 instructions: 250000000 cycles: 386013390 heartbeat IPC: 0.511445 cumulative IPC: 0.539502 (Simulation time: 0 hr 19 min 55 sec) 
Finished CPU 0 instructions: 200000003 cycles: 370712137 cumulative IPC: 0.539502 (Simulation time: 0 hr 19 min 55 sec) 

ChampSim completed all CPUs

Region of Interest Statistics

CPU 0 cumulative IPC: 0.539502 instructions: 200000003 cycles: 370712137
ITLB TOTAL     ACCESS:   31677942  HIT:   31182896  MISS:     495046  HIT %:    98.4373  MISS %:    1.56275   MPKI: 2.47523
ITLB LOAD TRANSLATION ACCESS:   31677942  HIT:   31182896  MISS:     495046  HIT %:    98.4373  MISS %:    1.56275   MPKI: 2.47523
ITLB PREFETCH  REQUESTED:          0  ISSUED:          0  USEFUL:          0  USELESS:          0
ITLB USEFUL LOAD PREFETCHES:          0 PREFETCH ISSUED TO LOWER LEVEL:          0  ACCURACY: -nan
ITLB TIMELY PREFETCHES:          0 LATE PREFETCHES: 0 DROPPED PREFETCHES: 0
ITLB PREFETCHES SAME FILL-ORIGIN LEVEL: 0 DIFFERENT FILL-ORIGIN LEVEL: 0
ITLB AVERAGE MISS LATENCY: 11.2952 cycles
ITLB RQ	ACCESS:   37628163	FORWARD:          0	MERGED:    5895364	TO_CACHE:   31732799

DTLB TOTAL     ACCESS:   41590822  HIT:   40343727  MISS:    1247095  HIT %:    97.0015  MISS %:    2.99849   MPKI: 6.23547
DTLB LOAD TRANSLATION ACCESS:   41590822  HIT:   40343727  MISS:    1247095  HIT %:    97.0015  MISS %:    2.99849   MPKI: 6.23547
DTLB PREFETCH  REQUESTED:          0  ISSUED:          0  USEFUL:          0  USELESS:          0
DTLB USEFUL LOAD PREFETCHES:          0 PREFETCH ISSUED TO LOWER LEVEL:          0  ACCURACY: -nan
DTLB TIMELY PREFETCHES:          0 LATE PREFETCHES: 0 DROPPED PREFETCHES: 0
DTLB PREFETCHES SAME FILL-ORIGIN LEVEL: 0 DIFFERENT FILL-ORIGIN LEVEL: 0
DTLB AVERAGE MISS LATENCY: 15.0166 cycles
DTLB RQ	ACCESS:   51225519	FORWARD:          0	MERGED:    9583092	TO_CACHE:   41642427

STLB TOTAL     ACCESS:    9003489  HIT:    8906658  MISS:      96831  HIT %:    98.9245  MISS %:    1.07548   MPKI: 0.484155
STLB LOAD TRANSLATION ACCESS:    1742141  HIT:    1662199  MISS:      79942  HIT %:    95.4113  MISS %:    4.58872   MPKI: 0.39971
STLB TRANSLATION FROM L1D PREFETCHER ACCESS:    7261348  HIT:    7244459  MISS:      16889  HIT %:    99.7674  MISS %:   0.232588   MPKI: 0.084445
STLB PREFETCH  REQUESTED:          0  ISSUED:          0  USEFUL:      15530  USELESS:       1371
STLB USEFUL LOAD PREFETCHES:      15530 PREFETCH ISSUED TO LOWER LEVEL:          0  ACCURACY: inf
STLB TIMELY PREFETCHES:      15530 LATE PREFETCHES: 177 DROPPED PREFETCHES: 187823
STLB PREFETCHES SAME FILL-ORIGIN LEVEL: 0 DIFFERENT FILL-ORIGIN LEVEL: 0
STLB AVERAGE MISS LATENCY: 56623.7 cycles
STLB RQ	ACCESS:   17833725	FORWARD:          0	MERGED:    8616076	TO_CACHE:    9217649

STLB Hit, L1D data hit: 0
STLB Hit, L2C data hit: 0
STLB Hit, LLC data hit: 0
STLB Hit, LLC data miss: 0
STLB STLB hints to L2: 0
L1D TOTAL     ACCESS:   65603077  HIT:   61560142  MISS:    4042935  HIT %:    93.8373  MISS %:    6.16272   MPKI: 20.2147
L1D LOAD      ACCESS:   34274872  HIT:   32386482  MISS:    1888390  HIT %:    94.4905  MISS %:    5.50955   MPKI: 9.44195
L1D RFO       ACCESS:   16283803  HIT:   16028981  MISS:     254822  HIT %:    98.4351  MISS %:    1.56488   MPKI: 1.27411
L1D PREFETCH  ACCESS:   15044402  HIT:   13144679  MISS:    1899723  HIT %:    87.3726  MISS %:    12.6274   MPKI: 9.49861
AGUS PREFETCH L1 MISS: 0
L1D PREFETCH  REQUESTED:   52377116  ISSUED:   52326511  USEFUL:     876669  USELESS:    1023045
L1D USEFUL LOAD PREFETCHES:     876669 PREFETCH ISSUED TO LOWER LEVEL:    1943035  ACCURACY: 45.1185
L1D TIMELY PREFETCHES:     876669 LATE PREFETCHES: 43280 DROPPED PREFETCHES: 416461
L1D PREFETCHES SAME FILL-ORIGIN LEVEL: 1943035 DIFFERENT FILL-ORIGIN LEVEL: 0
L1D AVERAGE MISS LATENCY: 1.8532e+06 cycles
L1D RQ	ACCESS:   50043596	FORWARD:          0	MERGED:   15391155	TO_CACHE:   34421961
L1D WQ	ACCESS:   17096511	FORWARD:     230557	MERGED:     292953	TO_CACHE:   16803558
L1D PQ	ACCESS:   36234927	FORWARD:          0	MERGED:   20143266	TO_CACHE:   16091584

L1D UNIQUE REGIONS ACCESSED: 0
L1D REGIONS CONFLICTS: 0
L1D Cross Page Prefetch Requests: 22615226
L1D Same Page Prefetch Requests: 24780195
L1D ROI Sum of L1D PQ occupancy: 236440650
L1D PREFETCHES PUSHED FROM L2C: 0
L1I TOTAL     ACCESS:   36758027  HIT:   34310203  MISS:    2447824  HIT %:    93.3407  MISS %:    6.65929   MPKI: 12.2391
L1I LOAD      ACCESS:   36758027  HIT:   34310203  MISS:    2447824  HIT %:    93.3407  MISS %:    6.65929   MPKI: 12.2391
L1I PREFETCH  REQUESTED:          0  ISSUED:          0  USEFUL:          0  USELESS:          0
L1I USEFUL LOAD PREFETCHES:          0 PREFETCH ISSUED TO LOWER LEVEL:          0  ACCURACY: -nan
L1I TIMELY PREFETCHES:          0 LATE PREFETCHES: 0 DROPPED PREFETCHES: 0
L1I PREFETCHES SAME FILL-ORIGIN LEVEL: 0 DIFFERENT FILL-ORIGIN LEVEL: 0
L1I AVERAGE MISS LATENCY: 20.3803 cycles
L1I RQ	ACCESS:   57363628	FORWARD:          0	MERGED:   19735465	TO_CACHE:   37628163

BTB TOTAL     ACCESS:   25851430  HIT:   24123560  MISS:    1727870  HIT %:    93.3162  MISS %:    6.68385   MPKI: 8.63935
BTB BRANCH_DIRECT_JUMP	ACCESS:    1806110  HIT:    1783873  MISS:      22237
BTB BRANCH_INDIRECT	ACCESS:    7197242  HIT:    6432278  MISS:     764964
BTB BRANCH_CONDITIONAL	ACCESS:   11207263  HIT:   11165233  MISS:      42030
BTB BRANCH_DIRECT_CALL	ACCESS:    1904339  HIT:    1877546  MISS:      26793
BTB BRANCH_INDIRECT_CALL	ACCESS:     912580  HIT:     722486  MISS:     190094
BTB BRANCH_RETURN	ACCESS:    2823896  HIT:    2142144  MISS:     681752
BTB BRANCH_OTHER ACCESS:          0  HIT:          0  MISS:          0

L2C TOTAL     ACCESS:    7740440  HIT:    5674879  MISS:    2065561  HIT %:    73.3147  MISS %:    26.6853   MPKI: 10.3278
L2C LOAD      ACCESS:    4292854  HIT:    3643352  MISS:     649502  HIT %:    84.8702  MISS %:    15.1298   MPKI: 3.24751
L2C DATA LOAD MPKI: 2.55926
L2C INSTRUCTION LOAD MPKI: 0.688245
L2C RFO       ACCESS:     254780  HIT:     116639  MISS:     138141  HIT %:    45.7803  MISS %:    54.2197   MPKI: 0.690705
L2C PREFETCH  ACCESS:    1943034  HIT:     726785  MISS:    1216249  HIT %:    37.4046  MISS %:    62.5954   MPKI: 6.08124
AGUS PREFETCH L1 MISS: 0
L2C DATA PREFETCH MPKI: 6.08124
L2C INSTRUCTION PREFETCH MPKI: 0
L2C WRITEBACK ACCESS:     884853  HIT:     874968  MISS:       9885  HIT %:    98.8829  MISS %:    1.11713   MPKI: 0.049425
L2C LOAD TRANSLATION ACCESS:      89885  HIT:      43729  MISS:      46156  HIT %:    48.6499  MISS %:    51.3501   MPKI: 0.23078
L2C TRANSLATION FROM L1D PREFETCHER ACCESS:     275034  HIT:     269406  MISS:       5628  HIT %:    97.9537  MISS %:    2.04629   MPKI: 0.02814
L2C PREFETCH  REQUESTED:          0  ISSUED:          0  USEFUL:      72643  USELESS:    1149208
L2C USEFUL LOAD PREFETCHES:      72643 PREFETCH ISSUED TO LOWER LEVEL:    1216249  ACCURACY: 5.97271
L2C TIMELY PREFETCHES:      72643 LATE PREFETCHES: 0 DROPPED PREFETCHES: 0
L2C PREFETCHES SAME FILL-ORIGIN LEVEL: 0 DIFFERENT FILL-ORIGIN LEVEL: 0
L2C AVERAGE MISS LATENCY: 126.633 cycles
L2C RQ	ACCESS:    4912639	FORWARD:          0	MERGED:          0	TO_CACHE:    4912552
L2C WQ	ACCESS:     884853	FORWARD:         90	MERGED:          0	TO_CACHE:     884853
L2C PQ	ACCESS:    1943035	FORWARD:          0	MERGED:          0	TO_CACHE:    1943032

L2C Instructions Evicting Data 116159
L2C Translations Evicting Data 45551
L2C Data Evicting Data 1704245
L2C Instructions Evicting Instructions 17021
L2C Translations Evicting Instructions 4633
L2C Data Evicting Instructions 116200
L2C Instructions Evicting Translations 4469
L2C Translations Evicting Translations 1600
L2C Data Evicting Translations 45798
L2C Dense regions hint from L2: 0
PSCL5 TOTAL     ACCESS:     284701  HIT:     284701  MISS:          0  HIT %:        100  MISS %:          0   MPKI: 0
PSCL5 LOAD TRANSLATION ACCESS:      79812  HIT:      79812  MISS:          0  HIT %:        100  MISS %:          0   MPKI: 0
PSCL5 TRANSLATION FROM L1D PREFETCHER ACCESS:     204889  HIT:     204889  MISS:          0  HIT %:        100  MISS %:          0   MPKI: 0
PSCL5 PREFETCH  REQUESTED:          0  ISSUED:          0  USEFUL:          0  USELESS:          0
PSCL5 USEFUL LOAD PREFETCHES:          0 PREFETCH ISSUED TO LOWER LEVEL:          0  ACCURACY: -nan
PSCL5 TIMELY PREFETCHES:          0 LATE PREFETCHES: 0 DROPPED PREFETCHES: 0
PSCL5 PREFETCHES SAME FILL-ORIGIN LEVEL: 0 DIFFERENT FILL-ORIGIN LEVEL: 0

PSCL4 TOTAL     ACCESS:     253093  HIT:     252953  MISS:        140  HIT %:    99.9447  MISS %:  0.0553156   MPKI: 0.0007
PSCL4 LOAD TRANSLATION ACCESS:      70597  HIT:      70457  MISS:        140  HIT %:    99.8017  MISS %:   0.198309   MPKI: 0.0007
PSCL4 TRANSLATION FROM L1D PREFETCHER ACCESS:     182496  HIT:     182496  MISS:          0  HIT %:        100  MISS %:          0   MPKI: 0
PSCL4 PREFETCH  REQUESTED:          0  ISSUED:          0  USEFUL:          0  USELESS:          0
PSCL4 USEFUL LOAD PREFETCHES:          0 PREFETCH ISSUED TO LOWER LEVEL:          0  ACCURACY: -nan
PSCL4 TIMELY PREFETCHES:          0 LATE PREFETCHES: 0 DROPPED PREFETCHES: 0
PSCL4 PREFETCHES SAME FILL-ORIGIN LEVEL: 0 DIFFERENT FILL-ORIGIN LEVEL: 0

PSCL3 TOTAL     ACCESS:     280413  HIT:     280073  MISS:        340  HIT %:    99.8788  MISS %:    0.12125   MPKI: 0.0017
PSCL3 LOAD TRANSLATION ACCESS:      79570  HIT:      79230  MISS:        340  HIT %:    99.5727  MISS %:   0.427297   MPKI: 0.0017
PSCL3 TRANSLATION FROM L1D PREFETCHER ACCESS:     200843  HIT:     200843  MISS:          0  HIT %:        100  MISS %:          0   MPKI: 0
PSCL3 PREFETCH  REQUESTED:          0  ISSUED:          0  USEFUL:          0  USELESS:          0
PSCL3 USEFUL LOAD PREFETCHES:          0 PREFETCH ISSUED TO LOWER LEVEL:          0  ACCURACY: -nan
PSCL3 TIMELY PREFETCHES:          0 LATE PREFETCHES: 0 DROPPED PREFETCHES: 0
PSCL3 PREFETCHES SAME FILL-ORIGIN LEVEL: 0 DIFFERENT FILL-ORIGIN LEVEL: 0

PSCL2 TOTAL     ACCESS:     217174  HIT:     206977  MISS:      10197  HIT %:    95.3047  MISS %:    4.69531   MPKI: 0.050985
PSCL2 LOAD TRANSLATION ACCESS:      80362  HIT:      70165  MISS:      10197  HIT %:    87.3112  MISS %:    12.6888   MPKI: 0.050985
PSCL2 TRANSLATION FROM L1D PREFETCHER ACCESS:     136812  HIT:     136812  MISS:          0  HIT %:        100  MISS %:          0   MPKI: 0
PSCL2 PREFETCH  REQUESTED:          0  ISSUED:          0  USEFUL:          0  USELESS:          0
PSCL2 USEFUL LOAD PREFETCHES:          0 PREFETCH ISSUED TO LOWER LEVEL:          0  ACCURACY: -nan
PSCL2 TIMELY PREFETCHES:          0 LATE PREFETCHES: 0 DROPPED PREFETCHES: 0
PSCL2 PREFETCHES SAME FILL-ORIGIN LEVEL: 0 DIFFERENT FILL-ORIGIN LEVEL: 0

LLC TOTAL     ACCESS:    2553008  HIT:    1356260  MISS:    1196748  HIT %:     53.124  MISS %:     46.876   MPKI: 5.98374
LLC LOAD      ACCESS:     649501  HIT:     239410  MISS:     410091  HIT %:    36.8606  MISS %:    63.1394   MPKI: 2.05045
LLC RFO       ACCESS:     138139  HIT:      23698  MISS:     114441  HIT %:    17.1552  MISS %:    82.8448   MPKI: 0.572205
LLC PREFETCH  ACCESS:    1216249  HIT:     596673  MISS:     619576  HIT %:    49.0585  MISS %:    50.9415   MPKI: 3.09788
AGUS PREFETCH L1 MISS: 0
LLC WRITEBACK ACCESS:     497335  HIT:     471854  MISS:      25481  HIT %:    94.8765  MISS %:    5.12351   MPKI: 0.127405
LLC LOAD TRANSLATION ACCESS:      46156  HIT:      21211  MISS:      24945  HIT %:     45.955  MISS %:     54.045   MPKI: 0.124725
LLC TRANSLATION FROM L1D PREFETCHER ACCESS:       5628  HIT:       3414  MISS:       2214  HIT %:     60.661  MISS %:     39.339   MPKI: 0.01107
LLC PREFETCH  REQUESTED:          0  ISSUED:          0  USEFUL:      23835  USELESS:     596781
LLC USEFUL LOAD PREFETCHES:      23835 PREFETCH ISSUED TO LOWER LEVEL:     619576  ACCURACY: 3.84699
LLC TIMELY PREFETCHES:      23835 LATE PREFETCHES: 0 DROPPED PREFETCHES: 0
LLC PREFETCHES SAME FILL-ORIGIN LEVEL: 0 DIFFERENT FILL-ORIGIN LEVEL: 0
LLC AVERAGE MISS LATENCY: 166.984 cycles
LLC RQ	ACCESS:     839427	FORWARD:          0	MERGED:          0	TO_CACHE:     839424
LLC WQ	ACCESS:     497335	FORWARD:          3	MERGED:          0	TO_CACHE:     497335
LLC PQ	ACCESS:    1216249	FORWARD:          0	MERGED:          0	TO_CACHE:    1216249

LLC Dense regions hint to LLC: 0

RAW hits: 1988883
Loads Generated: 52032481
Loads sent to L1D: 50043596
Stores Generated: 17096501
Stores sent to L1D: 17096511
Major fault: 0 Minor fault: 10830
Allocated PAGES: 10830
ucb ended
-----------------------------------------------------------------------------------------------------------------------------------------------------------------------------------------------------
Offsets elements: -63 -62 -61 -60 -59 -58 -57 -56 -55 -54 -53 -52 -51 -50 -49 -48 -47 -46 -45 -44 -43 -42 -41 -40 -39 -38 -37 -36 -35 -34 -33 -32 -31 -30 -29 -28 -27 -26 -25 -24 -23 -22 -21 -20 -19 -18 -17 -16 -15 -14 -13 -12 -11 -10 -9 -8 -7 -6 -5 -4 -3 -2 -1 1 2 3 4 5 6 7 8 9 10 11 12 13 14 15 16 17 18 19 20 21 22 23 24 25 26 27 28 29 30 31 32 33 34 35 36 37 38 39 40 41 42 43 44 45 46 47 48 49 50 51 52 53 54 55 56 57 58 59 60 61 62 63 
Potential of Offsets elements: 28.6018 28.6018 28.6018 28.6018 28.6018 100.602 58.6018 178.602 116.602 28.6018 28.6018 34.6018 36.6018 29.6018 28.6018 28.6018 30.6018 54.6018 34.6018 35.6018 31.6018 28.6018 73.6018 28.6018 29.6018 31.6018 54.6018 33.6018 42.6018 33.6018 70.6018 110.602 29.6018 40.6018 45.6018 142.602 105.602 53.6018 92.6018 124.602 47.6018 112.602 31.6018 125.602 135.602 63.6018 57.6018 143.602 247.602 201.602 91.6018 273.602 700.602 430.602 248.602 193.602 555.602 645.602 551.602 415.602 501.602 976.602 37.6653 780.602 946.602 668.602 616.602 597.602 389.602 339.602 544.602 389.602 259.602 37.6018 390.602 286.602 97.6018 59.6018 214.602 227.602 163.602 75.6018 98.6018 79.6018 1309.1 107.602 44.6018 90.6018 41.6018 105.602 248.602 63.6018 50.6018 36.6018 32.6018 34.6018 30.6018 28.6018 36.6018 98.6018 57.6018 106.602 29.6018 28.6018 34.6018 87.6018 34.6018 28.6018 28.6018 28.6018 43.6018 28.6018 29.6018 35.6018 34.6018 30.6018 28.6018 28.6018 28.6018 32.6018 28.6018 28.6018 28.6018 28.6018 28.6018 28.6018 
rewards of Offsets elements: 0 0 0 0 0 72 30 150 88 0 0 6 8 1 0 0 2 26 6 7 3 0 45 0 1 3 26 5 14 5 42 82 1 12 17 114 77 25 64 96 19 84 3 97 107 35 29 115 219 173 63 245 672 402 220 165 527 617 523 387 473 948 36 752 918 640 588 569 361 311 516 361 231 9 362 258 69 31 186 199 135 47 70 51 1309 79 16 62 13 77 220 35 22 8 4 6 2 0 8 70 29 78 1 0 6 59 6 0 0 0 15 0 1 7 6 2 0 0 0 4 0 0 0 0 0 0 Printing Sanity2
offset_index value126
offset list size126
reward size126
potential size126
-----------------------------------------------------------------------------------------------------------------------------------------------------------------------------------------------------

DRAM Statistics
 CHANNEL 0
 RQ ROW_BUFFER_HIT:     291748  ROW_BUFFER_MISS:     879506
 DBUS_CONGESTED:        860
 WQ ROW_BUFFER_HIT:      93799  ROW_BUFFER_MISS:     350202  FULL:          0

 AVG_CONGESTED_CYCLE: 4
 All warmup complete: 2
Channel 0 Bank busy for read cycles: 0
Channel 0 Bank busy for write cycles: 0
Channel 0
Rank 0
0banks busy for read cycles: 244764637
0banks busy for write cycles: 154279
1banks busy for read cycles: 50346447
1banks busy for write cycles: 20851143
2banks busy for read cycles: 18204893
2banks busy for write cycles: 8522413
3banks busy for read cycles: 8363255
3banks busy for write cycles: 4512893
4banks busy for read cycles: 3657909
4banks busy for write cycles: 2632685
5banks busy for read cycles: 1320920
5banks busy for write cycles: 1592124
6banks busy for read cycles: 594334
6banks busy for write cycles: 986625
7banks busy for read cycles: 463073
7banks busy for write cycles: 744646
8banks busy for read cycles: 897664
8banks busy for write cycles: 2102198

CPU 0 Branch Prediction Accuracy: 99.0203% MPKI: 1.6776 Average ROB Occupancy at Mispredict: 31.8483
Branch types
NOT_BRANCH: 165753053 82.8765%
BRANCH_DIRECT_JUMP: 1806110 0.903055%
BRANCH_INDIRECT: 7197242 3.59862%
BRANCH_CONDITIONAL: 19602514 9.80126%
BRANCH_DIRECT_CALL: 1904339 0.952169%
BRANCH_INDIRECT_CALL: 912580 0.45629%
BRANCH_RETURN: 2823896 1.41195%
BRANCH_OTHER: 0 0%

DRAM PAGES: 1048576
Allocated PAGES: 10830
