
*** ChampSim Multicore Out-of-Order Simulator ***

Warmup Instructions: 50000000
Simulation Instructions: 200000000
Number of CPUs: 1
LLC sets: 2048
LLC ways: 16
Off-chip DRAM Size: 4096 MB Channels: 1 Width: 64-bit Data Rate: 6400 MT/s
CPU 0 runs traces/spec2k17/server_018.champsimtrace.xz
.xz
BTB has LRU replacement policy
ITLB has LRU replacement policy
DTLB has LRU replacement policy
STLB has LRU replacement policy
L1I has LRU replacement policy
L1D has LRU replacement policy
Initialize SRRIP state for L2C
Initialize DRRIP state for LLC
Offsets elements: -63 -62 -61 -60 -59 -58 -57 -56 -55 -54 -53 -52 -51 -50 -49 -48 -47 -46 -45 -44 -43 -42 -41 -40 -39 -38 -37 -36 -35 -34 -33 -32 -31 -30 -29 -28 -27 -26 -25 -24 -23 -22 -21 -20 -19 -18 -17 -16 -15 -14 -13 -12 -11 -10 -9 -8 -7 -6 -5 -4 -3 -2 -1 1 2 3 4 5 6 7 8 9 10 11 12 13 14 15 16 17 18 19 20 21 22 23 24 25 26 27 28 29 30 31 32 33 34 35 36 37 38 39 40 41 42 43 44 45 46 47 48 49 50 51 52 53 54 55 56 57 58 59 60 61 62 63 
Potential of Offsets elements: 
rewards of Offsets elements: 65 123 0 64 15 72 119 49 61 66 76 110 14 71 96 0 100 105 81 6 113 113 132 0 92 85 98 297 29 97 179 86 146 123 117 130 110 134 142 124 142 92 175 43 150 216 16 247 152 170 174 8 182 165 233 331 381 321 322 336 507 371 774 943 400 1737 888 1578 526 636 185 497 272 249 487 70 487 416 179 377 73 663 405 162 373 129 265 149 12 364 1 40 321 0 80 0 6 229 4 8 249 4 2 42 1 198 5 0 109 2 0 0 0 83 0 0 56 1 3 2 2 0 0 3 0 0 
Printing Sanity1
Heartbeat CPU 0 instructions: 10000001 cycles: 2950421 heartbeat IPC: 3.38935 cumulative IPC: 3.38935 (Simulation time: 0 hr 0 min 48 sec) 
Heartbeat CPU 0 instructions: 20000000 cycles: 5900085 heartbeat IPC: 3.39022 cumulative IPC: 3.38978 (Simulation time: 0 hr 1 min 34 sec) 
Heartbeat CPU 0 instructions: 30000000 cycles: 8829935 heartbeat IPC: 3.41314 cumulative IPC: 3.39753 (Simulation time: 0 hr 2 min 16 sec) 
Heartbeat CPU 0 instructions: 40000001 cycles: 11699837 heartbeat IPC: 3.48444 cumulative IPC: 3.41885 (Simulation time: 0 hr 2 min 43 sec) 
Heartbeat CPU 0 instructions: 50000002 cycles: 14647129 heartbeat IPC: 3.39295 cumulative IPC: 3.41364 (Simulation time: 0 hr 3 min 14 sec) 

Warmup complete CPU 0 instructions: 50000002 cycles: 14647129 (Simulation time: 0 hr 3 min 14 sec) 

Heartbeat CPU 0 instructions: 60000001 cycles: 35731603 heartbeat IPC: 0.474283 cumulative IPC: 0.474283 (Simulation time: 0 hr 4 min 5 sec) 
Heartbeat CPU 0 instructions: 70000001 cycles: 56566261 heartbeat IPC: 0.479969 cumulative IPC: 0.477109 (Simulation time: 0 hr 4 min 57 sec) 
Heartbeat CPU 0 instructions: 80000002 cycles: 77482507 heartbeat IPC: 0.478097 cumulative IPC: 0.477438 (Simulation time: 0 hr 5 min 48 sec) 
Heartbeat CPU 0 instructions: 90000000 cycles: 98527052 heartbeat IPC: 0.475182 cumulative IPC: 0.476872 (Simulation time: 0 hr 6 min 40 sec) 
Heartbeat CPU 0 instructions: 100000001 cycles: 119062071 heartbeat IPC: 0.486973 cumulative IPC: 0.478859 (Simulation time: 0 hr 7 min 30 sec) 
*** Reached end of trace for Core: 0 Repeating trace: traces/spec2k17/server_018.champsimtrace.xz
Heartbeat CPU 0 instructions: 110000000 cycles: 138830194 heartbeat IPC: 0.505865 cumulative IPC: 0.483158 (Simulation time: 0 hr 8 min 19 sec) 
Heartbeat CPU 0 instructions: 120000000 cycles: 158629237 heartbeat IPC: 0.505075 cumulative IPC: 0.486172 (Simulation time: 0 hr 9 min 21 sec) 
Heartbeat CPU 0 instructions: 130000000 cycles: 178389884 heartbeat IPC: 0.506056 cumulative IPC: 0.488571 (Simulation time: 0 hr 10 min 38 sec) 
Heartbeat CPU 0 instructions: 140000003 cycles: 205517772 heartbeat IPC: 0.368624 cumulative IPC: 0.471524 (Simulation time: 0 hr 11 min 57 sec) 
Heartbeat CPU 0 instructions: 150000001 cycles: 230815575 heartbeat IPC: 0.395291 cumulative IPC: 0.462602 (Simulation time: 0 hr 13 min 20 sec) 
Heartbeat CPU 0 instructions: 160000001 cycles: 251682975 heartbeat IPC: 0.479216 cumulative IPC: 0.464065 (Simulation time: 0 hr 14 min 42 sec) 
Heartbeat CPU 0 instructions: 170000000 cycles: 272536965 heartbeat IPC: 0.479524 cumulative IPC: 0.465315 (Simulation time: 0 hr 16 min 4 sec) 
Heartbeat CPU 0 instructions: 180000000 cycles: 293227987 heartbeat IPC: 0.483301 cumulative IPC: 0.466651 (Simulation time: 0 hr 17 min 26 sec) 
Heartbeat CPU 0 instructions: 190000001 cycles: 314148378 heartbeat IPC: 0.478003 cumulative IPC: 0.467444 (Simulation time: 0 hr 18 min 40 sec) 
Heartbeat CPU 0 instructions: 200000001 cycles: 334982321 heartbeat IPC: 0.479986 cumulative IPC: 0.46826 (Simulation time: 0 hr 20 min 1 sec) 
Heartbeat CPU 0 instructions: 210000001 cycles: 355620371 heartbeat IPC: 0.484542 cumulative IPC: 0.469245 (Simulation time: 0 hr 21 min 23 sec) 
*** Reached end of trace for Core: 0 Repeating trace: traces/spec2k17/server_018.champsimtrace.xz
Heartbeat CPU 0 instructions: 220000000 cycles: 375350956 heartbeat IPC: 0.506827 cumulative IPC: 0.471301 (Simulation time: 0 hr 22 min 28 sec) 
Heartbeat CPU 0 instructions: 230000003 cycles: 395068311 heartbeat IPC: 0.507168 cumulative IPC: 0.47316 (Simulation time: 0 hr 23 min 17 sec) 
Heartbeat CPU 0 instructions: 240000000 cycles: 414802906 heartbeat IPC: 0.506724 cumulative IPC: 0.474815 (Simulation time: 0 hr 24 min 6 sec) 
Heartbeat CPU 0 instructions: 250000002 cycles: 445194434 heartbeat IPC: 0.329039 cumulative IPC: 0.464525 (Simulation time: 0 hr 25 min 16 sec) 
Finished CPU 0 instructions: 200000000 cycles: 430547305 cumulative IPC: 0.464525 (Simulation time: 0 hr 25 min 16 sec) 

ChampSim completed all CPUs

Region of Interest Statistics

CPU 0 cumulative IPC: 0.464525 instructions: 200000000 cycles: 430547305
ITLB TOTAL     ACCESS:   33562380  HIT:   32146346  MISS:    1416034  HIT %:    95.7809  MISS %:    4.21911   MPKI: 7.08017
ITLB LOAD TRANSLATION ACCESS:   33562380  HIT:   32146346  MISS:    1416034  HIT %:    95.7809  MISS %:    4.21911   MPKI: 7.08017
ITLB PREFETCH  REQUESTED:          0  ISSUED:          0  USEFUL:          0  USELESS:          0
ITLB USEFUL LOAD PREFETCHES:          0 PREFETCH ISSUED TO LOWER LEVEL:          0  ACCURACY: -nan
ITLB TIMELY PREFETCHES:          0 LATE PREFETCHES: 0 DROPPED PREFETCHES: 0
ITLB PREFETCHES SAME FILL-ORIGIN LEVEL: 0 DIFFERENT FILL-ORIGIN LEVEL: 0
ITLB AVERAGE MISS LATENCY: 9.40852 cycles
ITLB RQ	ACCESS:   40216828	FORWARD:          0	MERGED:    6197985	TO_CACHE:   34018843

DTLB TOTAL     ACCESS:   38972604  HIT:   37365961  MISS:    1606643  HIT %:    95.8775  MISS %:    4.12249   MPKI: 8.03322
DTLB LOAD TRANSLATION ACCESS:   38972604  HIT:   37365961  MISS:    1606643  HIT %:    95.8775  MISS %:    4.12249   MPKI: 8.03322
DTLB PREFETCH  REQUESTED:          0  ISSUED:          0  USEFUL:          0  USELESS:          0
DTLB USEFUL LOAD PREFETCHES:          0 PREFETCH ISSUED TO LOWER LEVEL:          0  ACCURACY: -nan
DTLB TIMELY PREFETCHES:          0 LATE PREFETCHES: 0 DROPPED PREFETCHES: 0
DTLB PREFETCHES SAME FILL-ORIGIN LEVEL: 0 DIFFERENT FILL-ORIGIN LEVEL: 0
DTLB AVERAGE MISS LATENCY: 17.124 cycles
DTLB RQ	ACCESS:   58737635	FORWARD:          0	MERGED:   19402608	TO_CACHE:   39335027

STLB TOTAL     ACCESS:   10754202  HIT:   10603309  MISS:     150893  HIT %:    98.5969  MISS %:    1.40311   MPKI: 0.754465
STLB LOAD TRANSLATION ACCESS:    3022677  HIT:    2882860  MISS:     139817  HIT %:    95.3744  MISS %:     4.6256   MPKI: 0.699085
STLB TRANSLATION FROM L1D PREFETCHER ACCESS:    7731525  HIT:    7720449  MISS:      11076  HIT %:    99.8567  MISS %:   0.143258   MPKI: 0.05538
STLB PREFETCH  REQUESTED:          0  ISSUED:          0  USEFUL:       9901  USELESS:       1173
STLB USEFUL LOAD PREFETCHES:       9901 PREFETCH ISSUED TO LOWER LEVEL:          0  ACCURACY: inf
STLB TIMELY PREFETCHES:       9901 LATE PREFETCHES: 1500 DROPPED PREFETCHES: 47447
STLB PREFETCHES SAME FILL-ORIGIN LEVEL: 0 DIFFERENT FILL-ORIGIN LEVEL: 0
STLB AVERAGE MISS LATENCY: 1.86296e+06 cycles
STLB RQ	ACCESS:   13686377	FORWARD:          0	MERGED:    2837715	TO_CACHE:   10848662

STLB Hit, L1D data hit: 0
STLB Hit, L2C data hit: 0
STLB Hit, LLC data hit: 0
STLB Hit, LLC data miss: 0
STLB STLB hints to L2: 0
L1D TOTAL     ACCESS:   56902744  HIT:   49183581  MISS:    7719163  HIT %:    86.4345  MISS %:    13.5655   MPKI: 38.5958
L1D LOAD      ACCESS:   26176524  HIT:   23490168  MISS:    2686356  HIT %:    89.7375  MISS %:    10.2625   MPKI: 13.4318
L1D RFO       ACCESS:   21131338  HIT:   17740588  MISS:    3390750  HIT %:    83.9539  MISS %:    16.0461   MPKI: 16.9537
L1D PREFETCH  ACCESS:    9594882  HIT:    7952825  MISS:    1642057  HIT %:    82.8861  MISS %:    17.1139   MPKI: 8.21029
AGUS PREFETCH L1 MISS: 0
L1D PREFETCH  REQUESTED:   55188404  ISSUED:   55183737  USEFUL:     642092  USELESS:     999900
L1D USEFUL LOAD PREFETCHES:     642092 PREFETCH ISSUED TO LOWER LEVEL:    2292217  ACCURACY: 28.0118
L1D TIMELY PREFETCHES:     642092 LATE PREFETCHES: 640614 DROPPED PREFETCHES: 122095
L1D PREFETCHES SAME FILL-ORIGIN LEVEL: 2292217 DIFFERENT FILL-ORIGIN LEVEL: 0
L1D AVERAGE MISS LATENCY: 1.86578e+07 cycles
L1D RQ	ACCESS:   44401072	FORWARD:          0	MERGED:   17655311	TO_CACHE:   26492708
L1D WQ	ACCESS:   32470506	FORWARD:     259711	MERGED:     225579	TO_CACHE:   32244927
L1D PQ	ACCESS:   44520037	FORWARD:          0	MERGED:   33849679	TO_CACHE:   10663700

L1D UNIQUE REGIONS ACCESSED: 0
L1D REGIONS CONFLICTS: 0
L1D Cross Page Prefetch Requests: 4167560
L1D Same Page Prefetch Requests: 51393833
L1D ROI Sum of L1D PQ occupancy: 165557051
L1D PREFETCHES PUSHED FROM L2C: 0
L1I TOTAL     ACCESS:   37748964  HIT:   29291011  MISS:    8457953  HIT %:    77.5942  MISS %:    22.4058   MPKI: 42.2898
L1I LOAD      ACCESS:   37748964  HIT:   29291011  MISS:    8457953  HIT %:    77.5942  MISS %:    22.4058   MPKI: 42.2898
L1I PREFETCH  REQUESTED:          0  ISSUED:          0  USEFUL:          0  USELESS:          0
L1I USEFUL LOAD PREFETCHES:          0 PREFETCH ISSUED TO LOWER LEVEL:          0  ACCURACY: -nan
L1I TIMELY PREFETCHES:          0 LATE PREFETCHES: 0 DROPPED PREFETCHES: 0
L1I PREFETCHES SAME FILL-ORIGIN LEVEL: 0 DIFFERENT FILL-ORIGIN LEVEL: 0
L1I AVERAGE MISS LATENCY: 16.9223 cycles
L1I RQ	ACCESS:   58344642	FORWARD:          0	MERGED:   18127814	TO_CACHE:   40216828

BTB TOTAL     ACCESS:   25716646  HIT:   24056121  MISS:    1660525  HIT %:     93.543  MISS %:      6.457   MPKI: 8.30263
BTB BRANCH_DIRECT_JUMP	ACCESS:    1725252  HIT:    1715409  MISS:       9843
BTB BRANCH_INDIRECT	ACCESS:    9825525  HIT:    9169775  MISS:     655750
BTB BRANCH_CONDITIONAL	ACCESS:    7516536  HIT:    7503101  MISS:      13435
BTB BRANCH_DIRECT_CALL	ACCESS:    2628849  HIT:    2596393  MISS:      32456
BTB BRANCH_INDIRECT_CALL	ACCESS:     695837  HIT:     593013  MISS:     102824
BTB BRANCH_RETURN	ACCESS:    3324647  HIT:    2478430  MISS:     846217
BTB BRANCH_OTHER ACCESS:          0  HIT:          0  MISS:          0

L2C TOTAL     ACCESS:   20666753  HIT:   13454473  MISS:    7212280  HIT %:     65.102  MISS %:     34.898   MPKI: 36.0614
L2C LOAD      ACCESS:   10503066  HIT:    8613163  MISS:    1889903  HIT %:    82.0062  MISS %:    17.9938   MPKI: 9.44951
L2C DATA LOAD MPKI: 6.65962
L2C INSTRUCTION LOAD MPKI: 2.7899
L2C RFO       ACCESS:    3381192  HIT:     124695  MISS:    3256497  HIT %:     3.6879  MISS %:    96.3121   MPKI: 16.2825
L2C PREFETCH  ACCESS:    2292211  HIT:     452731  MISS:    1839480  HIT %:    19.7508  MISS %:    80.2492   MPKI: 9.1974
AGUS PREFETCH L1 MISS: 0
L2C DATA PREFETCH MPKI: 9.1974
L2C INSTRUCTION PREFETCH MPKI: 0
L2C WRITEBACK ACCESS:    4245849  HIT:    4122054  MISS:     123795  HIT %:    97.0843  MISS %:    2.91567   MPKI: 0.618975
L2C LOAD TRANSLATION ACCESS:     165794  HIT:      72632  MISS:      93162  HIT %:    43.8086  MISS %:    56.1914   MPKI: 0.46581
L2C TRANSLATION FROM L1D PREFETCHER ACCESS:      78641  HIT:      69198  MISS:       9443  HIT %:    87.9923  MISS %:    12.0077   MPKI: 0.047215
L2C PREFETCH  REQUESTED:          0  ISSUED:          0  USEFUL:      53802  USELESS:    1795653
L2C USEFUL LOAD PREFETCHES:      53802 PREFETCH ISSUED TO LOWER LEVEL:    1839480  ACCURACY: 2.92485
L2C TIMELY PREFETCHES:      53802 LATE PREFETCHES: 0 DROPPED PREFETCHES: 0
L2C PREFETCHES SAME FILL-ORIGIN LEVEL: 0 DIFFERENT FILL-ORIGIN LEVEL: 0
L2C AVERAGE MISS LATENCY: 186.088 cycles
L2C RQ	ACCESS:   14129334	FORWARD:          0	MERGED:          0	TO_CACHE:   14128694
L2C WQ	ACCESS:    4245849	FORWARD:        646	MERGED:          0	TO_CACHE:    4245849
L2C PQ	ACCESS:    2292217	FORWARD:          0	MERGED:          0	TO_CACHE:    2292211

L2C Instructions Evicting Data 506363
L2C Translations Evicting Data 92966
L2C Data Evicting Data 5840122
L2C Instructions Evicting Instructions 43684
L2C Translations Evicting Instructions 7944
L2C Data Evicting Instructions 496035
L2C Instructions Evicting Translations 7932
L2C Translations Evicting Translations 1695
L2C Data Evicting Translations 91744
L2C Dense regions hint from L2: 0
PSCL5 TOTAL     ACCESS:     198343  HIT:     198343  MISS:          0  HIT %:        100  MISS %:          0   MPKI: 0
PSCL5 LOAD TRANSLATION ACCESS:     138320  HIT:     138320  MISS:          0  HIT %:        100  MISS %:          0   MPKI: 0
PSCL5 TRANSLATION FROM L1D PREFETCHER ACCESS:      60023  HIT:      60023  MISS:          0  HIT %:        100  MISS %:          0   MPKI: 0
PSCL5 PREFETCH  REQUESTED:          0  ISSUED:          0  USEFUL:          0  USELESS:          0
PSCL5 USEFUL LOAD PREFETCHES:          0 PREFETCH ISSUED TO LOWER LEVEL:          0  ACCURACY: -nan
PSCL5 TIMELY PREFETCHES:          0 LATE PREFETCHES: 0 DROPPED PREFETCHES: 0
PSCL5 PREFETCHES SAME FILL-ORIGIN LEVEL: 0 DIFFERENT FILL-ORIGIN LEVEL: 0

PSCL4 TOTAL     ACCESS:     186679  HIT:     186273  MISS:        406  HIT %:    99.7825  MISS %:   0.217486   MPKI: 0.00203
PSCL4 LOAD TRANSLATION ACCESS:     132653  HIT:     132247  MISS:        406  HIT %:    99.6939  MISS %:   0.306062   MPKI: 0.00203
PSCL4 TRANSLATION FROM L1D PREFETCHER ACCESS:      54026  HIT:      54026  MISS:          0  HIT %:        100  MISS %:          0   MPKI: 0
PSCL4 PREFETCH  REQUESTED:          0  ISSUED:          0  USEFUL:          0  USELESS:          0
PSCL4 USEFUL LOAD PREFETCHES:          0 PREFETCH ISSUED TO LOWER LEVEL:          0  ACCURACY: -nan
PSCL4 TIMELY PREFETCHES:          0 LATE PREFETCHES: 0 DROPPED PREFETCHES: 0
PSCL4 PREFETCHES SAME FILL-ORIGIN LEVEL: 0 DIFFERENT FILL-ORIGIN LEVEL: 0

PSCL3 TOTAL     ACCESS:     198198  HIT:     197784  MISS:        414  HIT %:    99.7911  MISS %:   0.208882   MPKI: 0.00207
PSCL3 LOAD TRANSLATION ACCESS:     138242  HIT:     137828  MISS:        414  HIT %:    99.7005  MISS %:   0.299475   MPKI: 0.00207
PSCL3 TRANSLATION FROM L1D PREFETCHER ACCESS:      59956  HIT:      59956  MISS:          0  HIT %:        100  MISS %:          0   MPKI: 0
PSCL3 PREFETCH  REQUESTED:          0  ISSUED:          0  USEFUL:          0  USELESS:          0
PSCL3 USEFUL LOAD PREFETCHES:          0 PREFETCH ISSUED TO LOWER LEVEL:          0  ACCURACY: -nan
PSCL3 TIMELY PREFETCHES:          0 LATE PREFETCHES: 0 DROPPED PREFETCHES: 0
PSCL3 PREFETCHES SAME FILL-ORIGIN LEVEL: 0 DIFFERENT FILL-ORIGIN LEVEL: 0

PSCL2 TOTAL     ACCESS:     180594  HIT:     153109  MISS:      27485  HIT %:    84.7808  MISS %:    15.2192   MPKI: 0.137425
PSCL2 LOAD TRANSLATION ACCESS:     139107  HIT:     111622  MISS:      27485  HIT %:    80.2418  MISS %:    19.7582   MPKI: 0.137425
PSCL2 TRANSLATION FROM L1D PREFETCHER ACCESS:      41487  HIT:      41487  MISS:          0  HIT %:        100  MISS %:          0   MPKI: 0
PSCL2 PREFETCH  REQUESTED:          0  ISSUED:          0  USEFUL:          0  USELESS:          0
PSCL2 USEFUL LOAD PREFETCHES:          0 PREFETCH ISSUED TO LOWER LEVEL:          0  ACCURACY: -nan
PSCL2 TIMELY PREFETCHES:          0 LATE PREFETCHES: 0 DROPPED PREFETCHES: 0
PSCL2 PREFETCHES SAME FILL-ORIGIN LEVEL: 0 DIFFERENT FILL-ORIGIN LEVEL: 0

LLC TOTAL     ACCESS:   11045104  HIT:    5420142  MISS:    5624962  HIT %:    49.0728  MISS %:    50.9272   MPKI: 28.1248
LLC LOAD      ACCESS:    1889902  HIT:    1329642  MISS:     560260  HIT %:    70.3551  MISS %:    29.6449   MPKI: 2.8013
LLC RFO       ACCESS:    3256480  HIT:     667452  MISS:    2589028  HIT %:    20.4961  MISS %:    79.5039   MPKI: 12.9451
LLC PREFETCH  ACCESS:    1839480  HIT:     589877  MISS:    1249603  HIT %:    32.0676  MISS %:    67.9324   MPKI: 6.24801
AGUS PREFETCH L1 MISS: 0
LLC WRITEBACK ACCESS:    3956637  HIT:    2762324  MISS:    1194313  HIT %:    69.8149  MISS %:    30.1851   MPKI: 5.97157
LLC LOAD TRANSLATION ACCESS:      93162  HIT:      63816  MISS:      29346  HIT %:       68.5  MISS %:       31.5   MPKI: 0.14673
LLC TRANSLATION FROM L1D PREFETCHER ACCESS:       9443  HIT:       7031  MISS:       2412  HIT %:    74.4573  MISS %:    25.5427   MPKI: 0.01206
LLC PREFETCH  REQUESTED:          0  ISSUED:          0  USEFUL:      21586  USELESS:    1236493
LLC USEFUL LOAD PREFETCHES:      21586 PREFETCH ISSUED TO LOWER LEVEL:    1249603  ACCURACY: 1.72743
LLC TIMELY PREFETCHES:      21586 LATE PREFETCHES: 0 DROPPED PREFETCHES: 0
LLC PREFETCHES SAME FILL-ORIGIN LEVEL: 0 DIFFERENT FILL-ORIGIN LEVEL: 0
LLC AVERAGE MISS LATENCY: 200.346 cycles
LLC RQ	ACCESS:    5249005	FORWARD:          0	MERGED:          0	TO_CACHE:    5248987
LLC WQ	ACCESS:    3956638	FORWARD:         18	MERGED:          0	TO_CACHE:    3956638
LLC PQ	ACCESS:    1839480	FORWARD:          0	MERGED:          0	TO_CACHE:    1839480

LLC Dense regions hint to LLC: 0

RAW hits: 2449334
Loads Generated: 46850406
Loads sent to L1D: 44401072
Stores Generated: 32470487
Stores sent to L1D: 32470506
Major fault: 0 Minor fault: 22612
Allocated PAGES: 22612
ucb ended
-----------------------------------------------------------------------------------------------------------------------------------------------------------------------------------------------------
Offsets elements: -63 -62 -61 -60 -59 -58 -57 -56 -55 -54 -53 -52 -51 -50 -49 -48 -47 -46 -45 -44 -43 -42 -41 -40 -39 -38 -37 -36 -35 -34 -33 -32 -31 -30 -29 -28 -27 -26 -25 -24 -23 -22 -21 -20 -19 -18 -17 -16 -15 -14 -13 -12 -11 -10 -9 -8 -7 -6 -5 -4 -3 -2 -1 1 2 3 4 5 6 7 8 9 10 11 12 13 14 15 16 17 18 19 20 21 22 23 24 25 26 27 28 29 30 31 32 33 34 35 36 37 38 39 40 41 42 43 44 45 46 47 48 49 50 51 52 53 54 55 56 57 58 59 60 61 62 63 
Potential of Offsets elements: 93.2298 151.23 28.2298 92.2298 43.2298 100.23 147.23 77.2298 89.2298 94.2298 104.23 138.23 42.2298 99.2298 124.23 28.2298 128.23 133.23 109.23 34.2298 141.23 141.23 160.23 28.2298 120.23 113.23 126.23 325.23 57.2298 125.23 207.23 114.23 174.23 151.23 145.23 158.23 138.23 162.23 170.23 152.23 170.23 120.23 203.23 71.2298 178.23 244.23 44.2298 275.23 180.23 198.23 202.23 36.2298 210.23 193.23 261.23 359.23 409.23 349.23 350.23 364.23 535.23 399.23 802.23 971.23 428.23 911.927 916.23 1578.11 554.23 664.23 213.23 525.23 300.23 277.23 515.23 98.2298 515.23 444.23 207.23 405.23 101.23 691.23 433.23 190.23 401.23 157.23 293.23 177.23 40.2298 392.23 29.2298 68.2298 349.23 28.2298 108.23 28.2298 34.2298 257.23 32.2298 36.2298 277.23 32.2298 30.2298 70.2298 29.2298 226.23 33.2298 28.2298 137.23 30.2298 28.2298 28.2298 28.2298 111.23 28.2298 28.2298 84.2298 29.2298 31.2298 30.2298 30.2298 28.2298 28.2298 31.2298 28.2298 28.2298 
rewards of Offsets elements: 65 123 0 64 15 72 119 49 61 66 76 110 14 71 96 0 100 105 81 6 113 113 132 0 92 85 98 297 29 97 179 86 146 123 117 130 110 134 142 124 142 92 175 43 150 216 16 247 152 170 174 8 182 165 233 331 381 321 322 336 507 371 774 943 400 903 888 1578 526 636 185 497 272 249 487 70 487 416 179 377 73 663 405 162 373 129 265 149 12 364 1 40 321 0 80 0 6 229 4 8 249 4 2 42 1 198 5 0 109 2 0 0 0 83 0 0 56 1 3 2 2 0 0 3 0 0 Printing Sanity2
offset_index value126
offset list size126
reward size126
potential size126
-----------------------------------------------------------------------------------------------------------------------------------------------------------------------------------------------------

DRAM Statistics
 CHANNEL 0
 RQ ROW_BUFFER_HIT:    1817511  ROW_BUFFER_MISS:    2612529
 DBUS_CONGESTED:       1511
 WQ ROW_BUFFER_HIT:     634739  ROW_BUFFER_MISS:    2285107  FULL:      20289

 AVG_CONGESTED_CYCLE: 3
 All warmup complete: 2
Channel 0 Bank busy for read cycles: 0
Channel 0 Bank busy for write cycles: 0
Channel 0
Rank 0
0banks busy for read cycles: 163150728
0banks busy for write cycles: 220612
1banks busy for read cycles: 61815412
1banks busy for write cycles: 31299214
2banks busy for read cycles: 22126592
2banks busy for write cycles: 15509372
3banks busy for read cycles: 17997495
3banks busy for write cycles: 9952366
4banks busy for read cycles: 5602760
4banks busy for write cycles: 6684663
5banks busy for read cycles: 4519061
5banks busy for write cycles: 4604538
6banks busy for read cycles: 5398913
6banks busy for write cycles: 3632706
7banks busy for read cycles: 7696619
7banks busy for write cycles: 5716458
8banks busy for read cycles: 25741894
8banks busy for write cycles: 38877903

CPU 0 Branch Prediction Accuracy: 99.9405% MPKI: 0.09271 Average ROB Occupancy at Mispredict: 106.714
Branch types
NOT_BRANCH: 168823616 84.4118%
BRANCH_DIRECT_JUMP: 1725252 0.862626%
BRANCH_INDIRECT: 9825525 4.91276%
BRANCH_CONDITIONAL: 12976223 6.48811%
BRANCH_DIRECT_CALL: 2628849 1.31442%
BRANCH_INDIRECT_CALL: 695837 0.347919%
BRANCH_RETURN: 3324647 1.66232%
BRANCH_OTHER: 0 0%

DRAM PAGES: 1048576
Allocated PAGES: 22612
