
*** ChampSim Multicore Out-of-Order Simulator ***

Warmup Instructions: 50000000
Simulation Instructions: 200000000
Number of CPUs: 1
LLC sets: 2048
LLC ways: 16
Off-chip DRAM Size: 4096 MB Channels: 1 Width: 64-bit Data Rate: 6400 MT/s
CPU 0 runs traces/spec2k17/server_023.champsimtrace.xz
.xz
BTB has LRU replacement policy
ITLB has LRU replacement policy
DTLB has LRU replacement policy
STLB has LRU replacement policy
L1I has LRU replacement policy
L1D has LRU replacement policy
Initialize SRRIP state for L2C
Initialize DRRIP state for LLC
Offsets elements: -63 -62 -61 -60 -59 -58 -57 -56 -55 -54 -53 -52 -51 -50 -49 -48 -47 -46 -45 -44 -43 -42 -41 -40 -39 -38 -37 -36 -35 -34 -33 -32 -31 -30 -29 -28 -27 -26 -25 -24 -23 -22 -21 -20 -19 -18 -17 -16 -15 -14 -13 -12 -11 -10 -9 -8 -7 -6 -5 -4 -3 -2 -1 1 2 3 4 5 6 7 8 9 10 11 12 13 14 15 16 17 18 19 20 21 22 23 24 25 26 27 28 29 30 31 32 33 34 35 36 37 38 39 40 41 42 43 44 45 46 47 48 49 50 51 52 53 54 55 56 57 58 59 60 61 62 63 
Potential of Offsets elements: 
rewards of Offsets elements: 0 0 57 6 9 54 0 6 31 8 22 0 8 296 0 0 0 11 1 2 106 0 170 11 23 36 0 2 80 135 245 244 248 13 20 2 121 40 65 181 253 208 289 43 24 16 119 70 205 278 174 89 291 209 431 5834 1239 2154 346 465 612 346 1010 3602 1879 510 495 1005 504 695 395 239 156 247 172 41 195 44 296 89 262 322 372 23 240 59 79 23 62 10 47 0 7 7 28 3 43 194 217 228 143 28 2 66 76 28 0 0 51 178 74 0 3 215 22 17 0 29 15 50 30 0 0 6 38 0 
Printing Sanity1
Heartbeat CPU 0 instructions: 10000000 cycles: 2825628 heartbeat IPC: 3.53904 cumulative IPC: 3.53904 (Simulation time: 0 hr 0 min 29 sec) 
Heartbeat CPU 0 instructions: 20000002 cycles: 5642577 heartbeat IPC: 3.54994 cumulative IPC: 3.54448 (Simulation time: 0 hr 0 min 55 sec) 
Heartbeat CPU 0 instructions: 30000002 cycles: 8459627 heartbeat IPC: 3.54981 cumulative IPC: 3.54626 (Simulation time: 0 hr 1 min 21 sec) 
Heartbeat CPU 0 instructions: 40000003 cycles: 11278428 heartbeat IPC: 3.54761 cumulative IPC: 3.54659 (Simulation time: 0 hr 1 min 46 sec) 
Heartbeat CPU 0 instructions: 50000003 cycles: 14096483 heartbeat IPC: 3.54855 cumulative IPC: 3.54698 (Simulation time: 0 hr 2 min 19 sec) 

Warmup complete CPU 0 instructions: 50000003 cycles: 14096483 (Simulation time: 0 hr 2 min 19 sec) 

Heartbeat CPU 0 instructions: 60000002 cycles: 44494811 heartbeat IPC: 0.328965 cumulative IPC: 0.328965 (Simulation time: 0 hr 3 min 6 sec) 
Heartbeat CPU 0 instructions: 70000002 cycles: 74576428 heartbeat IPC: 0.332429 cumulative IPC: 0.330688 (Simulation time: 0 hr 3 min 46 sec) 
Heartbeat CPU 0 instructions: 80000000 cycles: 104600581 heartbeat IPC: 0.333065 cumulative IPC: 0.331477 (Simulation time: 0 hr 4 min 25 sec) 
Heartbeat CPU 0 instructions: 90000000 cycles: 131005118 heartbeat IPC: 0.378723 cumulative IPC: 0.342147 (Simulation time: 0 hr 5 min 1 sec) 
Heartbeat CPU 0 instructions: 100000001 cycles: 160845287 heartbeat IPC: 0.335119 cumulative IPC: 0.340718 (Simulation time: 0 hr 5 min 40 sec) 
*** Reached end of trace for Core: 0 Repeating trace: traces/spec2k17/server_023.champsimtrace.xz
Heartbeat CPU 0 instructions: 110000000 cycles: 191532379 heartbeat IPC: 0.32587 cumulative IPC: 0.33815 (Simulation time: 0 hr 6 min 22 sec) 
Heartbeat CPU 0 instructions: 120000001 cycles: 221046245 heartbeat IPC: 0.338824 cumulative IPC: 0.338246 (Simulation time: 0 hr 7 min 10 sec) 
Heartbeat CPU 0 instructions: 130000000 cycles: 251451827 heartbeat IPC: 0.328887 cumulative IPC: 0.337047 (Simulation time: 0 hr 7 min 50 sec) 
Heartbeat CPU 0 instructions: 140000001 cycles: 281065487 heartbeat IPC: 0.337682 cumulative IPC: 0.337118 (Simulation time: 0 hr 8 min 30 sec) 
Heartbeat CPU 0 instructions: 150000001 cycles: 311112353 heartbeat IPC: 0.332813 cumulative IPC: 0.336682 (Simulation time: 0 hr 9 min 10 sec) 
Heartbeat CPU 0 instructions: 160000001 cycles: 341511406 heartbeat IPC: 0.328958 cumulative IPC: 0.335965 (Simulation time: 0 hr 9 min 58 sec) 
Heartbeat CPU 0 instructions: 170000000 cycles: 371024008 heartbeat IPC: 0.338838 cumulative IPC: 0.336203 (Simulation time: 0 hr 10 min 38 sec) 
Heartbeat CPU 0 instructions: 180000001 cycles: 401555334 heartbeat IPC: 0.327532 cumulative IPC: 0.335519 (Simulation time: 0 hr 11 min 17 sec) 
Heartbeat CPU 0 instructions: 190000003 cycles: 427693901 heartbeat IPC: 0.382577 cumulative IPC: 0.338493 (Simulation time: 0 hr 11 min 54 sec) 
Heartbeat CPU 0 instructions: 200000003 cycles: 457605994 heartbeat IPC: 0.334313 cumulative IPC: 0.338211 (Simulation time: 0 hr 12 min 37 sec) 
*** Reached end of trace for Core: 0 Repeating trace: traces/spec2k17/server_023.champsimtrace.xz
Heartbeat CPU 0 instructions: 210000000 cycles: 487781776 heartbeat IPC: 0.331391 cumulative IPC: 0.337777 (Simulation time: 0 hr 13 min 30 sec) 
Heartbeat CPU 0 instructions: 220000000 cycles: 517689984 heartbeat IPC: 0.334356 cumulative IPC: 0.337574 (Simulation time: 0 hr 14 min 17 sec) 
Heartbeat CPU 0 instructions: 230000001 cycles: 547793244 heartbeat IPC: 0.33219 cumulative IPC: 0.33727 (Simulation time: 0 hr 14 min 56 sec) 
Heartbeat CPU 0 instructions: 240000001 cycles: 577353170 heartbeat IPC: 0.338296 cumulative IPC: 0.337324 (Simulation time: 0 hr 15 min 35 sec) 
Heartbeat CPU 0 instructions: 250000001 cycles: 607514095 heartbeat IPC: 0.331555 cumulative IPC: 0.337031 (Simulation time: 0 hr 16 min 14 sec) 
Finished CPU 0 instructions: 200000002 cycles: 593417613 cumulative IPC: 0.337031 (Simulation time: 0 hr 16 min 14 sec) 

ChampSim completed all CPUs

Region of Interest Statistics

CPU 0 cumulative IPC: 0.337031 instructions: 200000002 cycles: 593417613
ITLB TOTAL     ACCESS:   34714189  HIT:   32905791  MISS:    1808398  HIT %:    94.7906  MISS %:    5.20939   MPKI: 9.04199
ITLB LOAD TRANSLATION ACCESS:   34714189  HIT:   32905791  MISS:    1808398  HIT %:    94.7906  MISS %:    5.20939   MPKI: 9.04199
ITLB PREFETCH  REQUESTED:          0  ISSUED:          0  USEFUL:          0  USELESS:          0
ITLB USEFUL LOAD PREFETCHES:          0 PREFETCH ISSUED TO LOWER LEVEL:          0  ACCURACY: -nan
ITLB TIMELY PREFETCHES:          0 LATE PREFETCHES: 0 DROPPED PREFETCHES: 0
ITLB PREFETCHES SAME FILL-ORIGIN LEVEL: 0 DIFFERENT FILL-ORIGIN LEVEL: 0
ITLB AVERAGE MISS LATENCY: 9.07956 cycles
ITLB RQ	ACCESS:   40427376	FORWARD:          0	MERGED:    5278994	TO_CACHE:   35148382

DTLB TOTAL     ACCESS:   44803155  HIT:   43026581  MISS:    1776574  HIT %:    96.0347  MISS %:    3.96529   MPKI: 8.88287
DTLB LOAD TRANSLATION ACCESS:   44803155  HIT:   43026581  MISS:    1776574  HIT %:    96.0347  MISS %:    3.96529   MPKI: 8.88287
DTLB PREFETCH  REQUESTED:          0  ISSUED:          0  USEFUL:          0  USELESS:          0
DTLB USEFUL LOAD PREFETCHES:          0 PREFETCH ISSUED TO LOWER LEVEL:          0  ACCURACY: -nan
DTLB TIMELY PREFETCHES:          0 LATE PREFETCHES: 0 DROPPED PREFETCHES: 0
DTLB PREFETCHES SAME FILL-ORIGIN LEVEL: 0 DIFFERENT FILL-ORIGIN LEVEL: 0
DTLB AVERAGE MISS LATENCY: 9.35726 cycles
DTLB RQ	ACCESS:   59140553	FORWARD:          0	MERGED:   14270210	TO_CACHE:   44870343

STLB TOTAL     ACCESS:   11652192  HIT:   11641241  MISS:      10951  HIT %:     99.906  MISS %:  0.0939823   MPKI: 0.054755
STLB LOAD TRANSLATION ACCESS:    3584972  HIT:    3574104  MISS:      10868  HIT %:    99.6968  MISS %:   0.303154   MPKI: 0.05434
STLB TRANSLATION FROM L1D PREFETCHER ACCESS:    8067220  HIT:    8067137  MISS:         83  HIT %:     99.999  MISS %: 0.00102886   MPKI: 0.000415
STLB PREFETCH  REQUESTED:          0  ISSUED:          0  USEFUL:         57  USELESS:         26
STLB USEFUL LOAD PREFETCHES:         57 PREFETCH ISSUED TO LOWER LEVEL:          0  ACCURACY: inf
STLB TIMELY PREFETCHES:         57 LATE PREFETCHES: 181 DROPPED PREFETCHES: 9525
STLB PREFETCHES SAME FILL-ORIGIN LEVEL: 0 DIFFERENT FILL-ORIGIN LEVEL: 0
STLB AVERAGE MISS LATENCY: 69.4619 cycles
STLB RQ	ACCESS:   13328974	FORWARD:          0	MERGED:    1667073	TO_CACHE:   11661901

STLB Hit, L1D data hit: 0
STLB Hit, L2C data hit: 0
STLB Hit, LLC data hit: 0
STLB Hit, LLC data miss: 0
STLB STLB hints to L2: 0
L1D TOTAL     ACCESS:   66561380  HIT:   62013842  MISS:    4547538  HIT %:    93.1679  MISS %:     6.8321   MPKI: 22.7377
L1D LOAD      ACCESS:   33246719  HIT:   30581132  MISS:    2665587  HIT %:    91.9824  MISS %:    8.01759   MPKI: 13.3279
L1D RFO       ACCESS:   24108616  HIT:   23048939  MISS:    1059677  HIT %:    95.6046  MISS %:    4.39543   MPKI: 5.29838
L1D PREFETCH  ACCESS:    9206045  HIT:    8383771  MISS:     822274  HIT %:    91.0681  MISS %:    8.93189   MPKI: 4.11137
AGUS PREFETCH L1 MISS: 0
L1D PREFETCH  REQUESTED:   49902902  ISSUED:   49902902  USEFUL:     236746  USELESS:     585528
L1D USEFUL LOAD PREFETCHES:     236746 PREFETCH ISSUED TO LOWER LEVEL:    1065305  ACCURACY: 22.2233
L1D TIMELY PREFETCHES:     236746 LATE PREFETCHES: 241907 DROPPED PREFETCHES: 9525
L1D PREFETCHES SAME FILL-ORIGIN LEVEL: 1065305 DIFFERENT FILL-ORIGIN LEVEL: 0
L1D AVERAGE MISS LATENCY: 1.6564e+07 cycles
L1D RQ	ACCESS:   46485799	FORWARD:          0	MERGED:   12839872	TO_CACHE:   33353661
L1D WQ	ACCESS:   25954686	FORWARD:     314036	MERGED:     167794	TO_CACHE:   25786892
L1D PQ	ACCESS:   40158900	FORWARD:          0	MERGED:   30393128	TO_CACHE:    9744002

L1D UNIQUE REGIONS ACCESSED: 0
L1D REGIONS CONFLICTS: 0
L1D Cross Page Prefetch Requests: 707580
L1D Same Page Prefetch Requests: 48549159
L1D ROI Sum of L1D PQ occupancy: 123366143
L1D PREFETCHES PUSHED FROM L2C: 0
L1I TOTAL     ACCESS:   39033155  HIT:   29564805  MISS:    9468350  HIT %:    75.7428  MISS %:    24.2572   MPKI: 47.3417
L1I LOAD      ACCESS:   39033155  HIT:   29564805  MISS:    9468350  HIT %:    75.7428  MISS %:    24.2572   MPKI: 47.3417
L1I PREFETCH  REQUESTED:          0  ISSUED:          0  USEFUL:          0  USELESS:          0
L1I USEFUL LOAD PREFETCHES:          0 PREFETCH ISSUED TO LOWER LEVEL:          0  ACCURACY: -nan
L1I TIMELY PREFETCHES:          0 LATE PREFETCHES: 0 DROPPED PREFETCHES: 0
L1I PREFETCHES SAME FILL-ORIGIN LEVEL: 0 DIFFERENT FILL-ORIGIN LEVEL: 0
L1I AVERAGE MISS LATENCY: 17.001 cycles
L1I RQ	ACCESS:   58056985	FORWARD:          0	MERGED:   17629609	TO_CACHE:   40427376

BTB TOTAL     ACCESS:   30427148  HIT:   19331295  MISS:   11095853  HIT %:     63.533  MISS %:     36.467   MPKI: 55.4793
BTB BRANCH_DIRECT_JUMP	ACCESS:    2146751  HIT:    1371370  MISS:     775381
BTB BRANCH_INDIRECT	ACCESS:   11246234  HIT:    7076259  MISS:    4169975
BTB BRANCH_CONDITIONAL	ACCESS:    9077308  HIT:    7961255  MISS:    1116053
BTB BRANCH_DIRECT_CALL	ACCESS:    3361644  HIT:    1552306  MISS:    1809338
BTB BRANCH_INDIRECT_CALL	ACCESS:     616815  HIT:     250442  MISS:     366373
BTB BRANCH_RETURN	ACCESS:    3978396  HIT:    1119663  MISS:    2858733
BTB BRANCH_OTHER ACCESS:          0  HIT:          0  MISS:          0

L2C TOTAL     ACCESS:   15918247  HIT:   14214140  MISS:    1704107  HIT %:    89.2946  MISS %:    10.7054   MPKI: 8.52053
L2C LOAD      ACCESS:   11891949  HIT:   10682994  MISS:    1208955  HIT %:    89.8338  MISS %:    10.1662   MPKI: 6.04477
L2C DATA LOAD MPKI: 1.6043
L2C INSTRUCTION LOAD MPKI: 4.44047
L2C RFO       ACCESS:    1058552  HIT:     841645  MISS:     216907  HIT %:    79.5091  MISS %:    20.4909   MPKI: 1.08453
L2C PREFETCH  ACCESS:    1064829  HIT:     841422  MISS:     223407  HIT %:    79.0194  MISS %:    20.9806   MPKI: 1.11703
AGUS PREFETCH L1 MISS: 0
L2C DATA PREFETCH MPKI: 1.11703
L2C INSTRUCTION PREFETCH MPKI: 0
L2C WRITEBACK ACCESS:    1874901  HIT:    1830527  MISS:      44374  HIT %:    97.6333  MISS %:    2.36674   MPKI: 0.22187
L2C LOAD TRANSLATION ACCESS:      11852  HIT:       3270  MISS:       8582  HIT %:    27.5903  MISS %:    72.4097   MPKI: 0.04291
L2C TRANSLATION FROM L1D PREFETCHER ACCESS:      16164  HIT:      14282  MISS:       1882  HIT %:    88.3568  MISS %:    11.6432   MPKI: 0.00941
L2C PREFETCH  REQUESTED:          0  ISSUED:          0  USEFUL:      15029  USELESS:     210382
L2C USEFUL LOAD PREFETCHES:      15029 PREFETCH ISSUED TO LOWER LEVEL:     223407  ACCURACY: 6.72718
L2C TIMELY PREFETCHES:      15029 LATE PREFETCHES: 0 DROPPED PREFETCHES: 0
L2C PREFETCHES SAME FILL-ORIGIN LEVEL: 0 DIFFERENT FILL-ORIGIN LEVEL: 0
L2C AVERAGE MISS LATENCY: 43.2228 cycles
L2C RQ	ACCESS:   12978598	FORWARD:          0	MERGED:          0	TO_CACHE:   12978517
L2C WQ	ACCESS:    1874901	FORWARD:        557	MERGED:          0	TO_CACHE:    1874901
L2C PQ	ACCESS:    1065305	FORWARD:          0	MERGED:          0	TO_CACHE:    1064829

L2C Instructions Evicting Data 384305
L2C Translations Evicting Data 6107
L2C Data Evicting Data 394429
L2C Instructions Evicting Instructions 499553
L2C Translations Evicting Instructions 4217
L2C Data Evicting Instructions 360938
L2C Instructions Evicting Translations 4237
L2C Translations Evicting Translations 140
L2C Data Evicting Translations 5807
L2C Dense regions hint from L2: 0
PSCL5 TOTAL     ACCESS:      20484  HIT:      20484  MISS:          0  HIT %:        100  MISS %:          0   MPKI: 0
PSCL5 LOAD TRANSLATION ACCESS:      10695  HIT:      10695  MISS:          0  HIT %:        100  MISS %:          0   MPKI: 0
PSCL5 TRANSLATION FROM L1D PREFETCHER ACCESS:       9789  HIT:       9789  MISS:          0  HIT %:        100  MISS %:          0   MPKI: 0
PSCL5 PREFETCH  REQUESTED:          0  ISSUED:          0  USEFUL:          0  USELESS:          0
PSCL5 USEFUL LOAD PREFETCHES:          0 PREFETCH ISSUED TO LOWER LEVEL:          0  ACCURACY: -nan
PSCL5 TIMELY PREFETCHES:          0 LATE PREFETCHES: 0 DROPPED PREFETCHES: 0
PSCL5 PREFETCHES SAME FILL-ORIGIN LEVEL: 0 DIFFERENT FILL-ORIGIN LEVEL: 0

PSCL4 TOTAL     ACCESS:      17059  HIT:      16998  MISS:         61  HIT %:    99.6424  MISS %:   0.357583   MPKI: 0.000305
PSCL4 LOAD TRANSLATION ACCESS:       9794  HIT:       9733  MISS:         61  HIT %:    99.3772  MISS %:    0.62283   MPKI: 0.000305
PSCL4 TRANSLATION FROM L1D PREFETCHER ACCESS:       7265  HIT:       7265  MISS:          0  HIT %:        100  MISS %:          0   MPKI: 0
PSCL4 PREFETCH  REQUESTED:          0  ISSUED:          0  USEFUL:          0  USELESS:          0
PSCL4 USEFUL LOAD PREFETCHES:          0 PREFETCH ISSUED TO LOWER LEVEL:          0  ACCURACY: -nan
PSCL4 TIMELY PREFETCHES:          0 LATE PREFETCHES: 0 DROPPED PREFETCHES: 0
PSCL4 PREFETCHES SAME FILL-ORIGIN LEVEL: 0 DIFFERENT FILL-ORIGIN LEVEL: 0

PSCL3 TOTAL     ACCESS:      20330  HIT:      20269  MISS:         61  HIT %:       99.7  MISS %:   0.300049   MPKI: 0.000305
PSCL3 LOAD TRANSLATION ACCESS:      10575  HIT:      10514  MISS:         61  HIT %:    99.4232  MISS %:   0.576832   MPKI: 0.000305
PSCL3 TRANSLATION FROM L1D PREFETCHER ACCESS:       9755  HIT:       9755  MISS:          0  HIT %:        100  MISS %:          0   MPKI: 0
PSCL3 PREFETCH  REQUESTED:          0  ISSUED:          0  USEFUL:          0  USELESS:          0
PSCL3 USEFUL LOAD PREFETCHES:          0 PREFETCH ISSUED TO LOWER LEVEL:          0  ACCURACY: -nan
PSCL3 TIMELY PREFETCHES:          0 LATE PREFETCHES: 0 DROPPED PREFETCHES: 0
PSCL3 PREFETCHES SAME FILL-ORIGIN LEVEL: 0 DIFFERENT FILL-ORIGIN LEVEL: 0

PSCL2 TOTAL     ACCESS:      14130  HIT:      13051  MISS:       1079  HIT %:    92.3638  MISS %:    7.63623   MPKI: 0.005395
PSCL2 LOAD TRANSLATION ACCESS:      10710  HIT:       9631  MISS:       1079  HIT %:    89.9253  MISS %:    10.0747   MPKI: 0.005395
PSCL2 TRANSLATION FROM L1D PREFETCHER ACCESS:       3420  HIT:       3420  MISS:          0  HIT %:        100  MISS %:          0   MPKI: 0
PSCL2 PREFETCH  REQUESTED:          0  ISSUED:          0  USEFUL:          0  USELESS:          0
PSCL2 USEFUL LOAD PREFETCHES:          0 PREFETCH ISSUED TO LOWER LEVEL:          0  ACCURACY: -nan
PSCL2 TIMELY PREFETCHES:          0 LATE PREFETCHES: 0 DROPPED PREFETCHES: 0
PSCL2 PREFETCHES SAME FILL-ORIGIN LEVEL: 0 DIFFERENT FILL-ORIGIN LEVEL: 0

LLC TOTAL     ACCESS:    1965148  HIT:    1823182  MISS:     141966  HIT %:    92.7758  MISS %:    7.22419   MPKI: 0.70983
LLC LOAD      ACCESS:    1208955  HIT:    1172398  MISS:      36557  HIT %:    96.9761  MISS %:    3.02385   MPKI: 0.182785
LLC RFO       ACCESS:     216907  HIT:     141093  MISS:      75814  HIT %:    65.0477  MISS %:    34.9523   MPKI: 0.37907
LLC PREFETCH  ACCESS:     223407  HIT:     196134  MISS:      27273  HIT %:    87.7922  MISS %:    12.2078   MPKI: 0.136365
AGUS PREFETCH L1 MISS: 0
LLC WRITEBACK ACCESS:     305415  HIT:     304148  MISS:       1267  HIT %:    99.5852  MISS %:   0.414845   MPKI: 0.006335
LLC LOAD TRANSLATION ACCESS:       8582  HIT:       7536  MISS:       1046  HIT %:    87.8117  MISS %:    12.1883   MPKI: 0.00523
LLC TRANSLATION FROM L1D PREFETCHER ACCESS:       1882  HIT:       1873  MISS:          9  HIT %:    99.5218  MISS %:   0.478215   MPKI: 4.5e-05
LLC PREFETCH  REQUESTED:          0  ISSUED:          0  USEFUL:       2192  USELESS:      27294
LLC USEFUL LOAD PREFETCHES:       2192 PREFETCH ISSUED TO LOWER LEVEL:      27273  ACCURACY: 8.03725
LLC TIMELY PREFETCHES:       2192 LATE PREFETCHES: 0 DROPPED PREFETCHES: 0
LLC PREFETCHES SAME FILL-ORIGIN LEVEL: 0 DIFFERENT FILL-ORIGIN LEVEL: 0
LLC AVERAGE MISS LATENCY: 167.75 cycles
LLC RQ	ACCESS:    1436326	FORWARD:          0	MERGED:          0	TO_CACHE:    1436326
LLC WQ	ACCESS:     305415	FORWARD:          0	MERGED:          0	TO_CACHE:     305415
LLC PQ	ACCESS:     223407	FORWARD:          0	MERGED:          0	TO_CACHE:     223407

LLC Dense regions hint to LLC: 0

RAW hits: 1417683
Loads Generated: 47903482
Loads sent to L1D: 46485799
Stores Generated: 25954684
Stores sent to L1D: 25954686
Major fault: 0 Minor fault: 2897
Allocated PAGES: 2897
ucb ended
-----------------------------------------------------------------------------------------------------------------------------------------------------------------------------------------------------
Offsets elements: -63 -62 -61 -60 -59 -58 -57 -56 -55 -54 -53 -52 -51 -50 -49 -48 -47 -46 -45 -44 -43 -42 -41 -40 -39 -38 -37 -36 -35 -34 -33 -32 -31 -30 -29 -28 -27 -26 -25 -24 -23 -22 -21 -20 -19 -18 -17 -16 -15 -14 -13 -12 -11 -10 -9 -8 -7 -6 -5 -4 -3 -2 -1 1 2 3 4 5 6 7 8 9 10 11 12 13 14 15 16 17 18 19 20 21 22 23 24 25 26 27 28 29 30 31 32 33 34 35 36 37 38 39 40 41 42 43 44 45 46 47 48 49 50 51 52 53 54 55 56 57 58 59 60 61 62 63 
Potential of Offsets elements: 28.5022 28.5022 85.5022 34.5022 37.5022 82.5022 28.5022 34.5022 59.5022 36.5022 50.5022 28.5022 36.5022 324.502 28.5022 28.5022 28.5022 39.5022 29.5022 30.5022 134.502 28.5022 198.502 39.5022 51.5022 64.5022 28.5022 30.5022 108.502 163.502 273.502 272.502 276.502 41.5022 48.5022 30.5022 149.502 68.5022 93.5022 209.502 281.502 236.502 317.502 71.5022 52.5022 44.5022 147.502 98.5022 233.502 306.502 202.502 117.502 319.502 237.502 459.502 1668.91 1267.5 2182.5 374.502 493.502 640.502 374.502 1038.5 3602.1 1907.5 538.502 523.502 1033.5 532.502 723.502 423.502 267.502 184.502 275.502 200.502 69.5022 223.502 72.5022 324.502 117.502 290.502 350.502 400.502 51.5022 268.502 87.5022 107.502 51.5022 90.5022 38.5022 75.5022 28.5022 35.5022 35.5022 56.5022 31.5022 71.5022 222.502 245.502 256.502 171.502 56.5022 30.5022 94.5022 104.502 56.5022 28.5022 28.5022 79.5022 206.502 102.502 28.5022 31.5022 243.502 50.5022 45.5022 28.5022 57.5022 43.5022 78.5022 58.5022 28.5022 28.5022 34.5022 66.5022 28.5022 
rewards of Offsets elements: 0 0 57 6 9 54 0 6 31 8 22 0 8 296 0 0 0 11 1 2 106 0 170 11 23 36 0 2 80 135 245 244 248 13 20 2 121 40 65 181 253 208 289 43 24 16 119 70 205 278 174 89 291 209 431 1661 1239 2154 346 465 612 346 1010 3602 1879 510 495 1005 504 695 395 239 156 247 172 41 195 44 296 89 262 322 372 23 240 59 79 23 62 10 47 0 7 7 28 3 43 194 217 228 143 28 2 66 76 28 0 0 51 178 74 0 3 215 22 17 0 29 15 50 30 0 0 6 38 0 Printing Sanity2
offset_index value126
offset list size126
reward size126
potential size126
-----------------------------------------------------------------------------------------------------------------------------------------------------------------------------------------------------

DRAM Statistics
 CHANNEL 0
 RQ ROW_BUFFER_HIT:      54157  ROW_BUFFER_MISS:      86532
 DBUS_CONGESTED:        100
 WQ ROW_BUFFER_HIT:       8233  ROW_BUFFER_MISS:      74423  FULL:          0

 AVG_CONGESTED_CYCLE: 4
 All warmup complete: 2
Channel 0 Bank busy for read cycles: 0
Channel 0 Bank busy for write cycles: 0
Channel 0
Rank 0
0banks busy for read cycles: 582636084
0banks busy for write cycles: 16723
1banks busy for read cycles: 3765513
1banks busy for write cycles: 2161310
2banks busy for read cycles: 662671
2banks busy for write cycles: 520969
3banks busy for read cycles: 366894
3banks busy for write cycles: 305634
4banks busy for read cycles: 259963
4banks busy for write cycles: 220885
5banks busy for read cycles: 199686
5banks busy for write cycles: 190153
6banks busy for read cycles: 209686
6banks busy for write cycles: 195167
7banks busy for read cycles: 265002
7banks busy for write cycles: 249975
8banks busy for read cycles: 552915
8banks busy for write cycles: 638384

CPU 0 Branch Prediction Accuracy: 99.7935% MPKI: 0.36428 Average ROB Occupancy at Mispredict: 45.6177
Branch types
NOT_BRANCH: 164718812 82.3594%
BRANCH_DIRECT_JUMP: 2146751 1.07338%
BRANCH_INDIRECT: 11246234 5.62312%
BRANCH_CONDITIONAL: 13931172 6.96559%
BRANCH_DIRECT_CALL: 3361644 1.68082%
BRANCH_INDIRECT_CALL: 616815 0.308407%
BRANCH_RETURN: 3978396 1.9892%
BRANCH_OTHER: 0 0%

DRAM PAGES: 1048576
Allocated PAGES: 2897
