
*** ChampSim Multicore Out-of-Order Simulator ***

Warmup Instructions: 50000000
Simulation Instructions: 200000000
Number of CPUs: 1
LLC sets: 2048
LLC ways: 16
Off-chip DRAM Size: 4096 MB Channels: 1 Width: 64-bit Data Rate: 6400 MT/s
CPU 0 runs traces/spec2k17/server_036.champsimtrace.xz
.xz
BTB has LRU replacement policy
ITLB has LRU replacement policy
DTLB has LRU replacement policy
STLB has LRU replacement policy
L1I has LRU replacement policy
L1D has LRU replacement policy
Initialize SRRIP state for L2C
Initialize DRRIP state for LLC
Offsets elements: -63 -62 -61 -60 -59 -58 -57 -56 -55 -54 -53 -52 -51 -50 -49 -48 -47 -46 -45 -44 -43 -42 -41 -40 -39 -38 -37 -36 -35 -34 -33 -32 -31 -30 -29 -28 -27 -26 -25 -24 -23 -22 -21 -20 -19 -18 -17 -16 -15 -14 -13 -12 -11 -10 -9 -8 -7 -6 -5 -4 -3 -2 -1 1 2 3 4 5 6 7 8 9 10 11 12 13 14 15 16 17 18 19 20 21 22 23 24 25 26 27 28 29 30 31 32 33 34 35 36 37 38 39 40 41 42 43 44 45 46 47 48 49 50 51 52 53 54 55 56 57 58 59 60 61 62 63 
Potential of Offsets elements: 
rewards of Offsets elements: 0 0 1 0 0 8 0 7 9 1 21 0 85 5 0 18 112 1 0 261 8 0 1 198 2 9 242 1 33 0 368 0 2 273 130 0 40 394 200 198 604 302 18 777 345 521 312 480 486 223 650 499 178 319 842 454 163 973 1312 941 2420 1422 2641 2981 1519 1744 531 1579 1219 509 285 726 470 139 641 369 266 242 744 441 88 795 234 32 494 211 133 107 432 15 28 692 2 0 17 358 2 2 309 2 2 4 179 0 11 260 3 2 2 108 0 23 148 1 0 0 72 0 11 5 1 0 1 2 0 0 
Printing Sanity1
Heartbeat CPU 0 instructions: 10000000 cycles: 2745398 heartbeat IPC: 3.64246 cumulative IPC: 3.64246 (Simulation time: 0 hr 0 min 25 sec) 
Heartbeat CPU 0 instructions: 20000002 cycles: 5490676 heartbeat IPC: 3.64262 cumulative IPC: 3.64254 (Simulation time: 0 hr 0 min 47 sec) 
Heartbeat CPU 0 instructions: 30000002 cycles: 8235708 heartbeat IPC: 3.64294 cumulative IPC: 3.64267 (Simulation time: 0 hr 1 min 8 sec) 
Heartbeat CPU 0 instructions: 40000000 cycles: 11003535 heartbeat IPC: 3.61294 cumulative IPC: 3.6352 (Simulation time: 0 hr 1 min 30 sec) 
Heartbeat CPU 0 instructions: 50000001 cycles: 13746184 heartbeat IPC: 3.64611 cumulative IPC: 3.63737 (Simulation time: 0 hr 1 min 51 sec) 

Warmup complete CPU 0 instructions: 50000001 cycles: 13746184 (Simulation time: 0 hr 1 min 51 sec) 

Heartbeat CPU 0 instructions: 60000003 cycles: 31399274 heartbeat IPC: 0.566473 cumulative IPC: 0.566473 (Simulation time: 0 hr 2 min 30 sec) 
Heartbeat CPU 0 instructions: 70000000 cycles: 48916467 heartbeat IPC: 0.570868 cumulative IPC: 0.568662 (Simulation time: 0 hr 3 min 5 sec) 
Heartbeat CPU 0 instructions: 80000002 cycles: 66435508 heartbeat IPC: 0.570808 cumulative IPC: 0.569375 (Simulation time: 0 hr 3 min 40 sec) 
Heartbeat CPU 0 instructions: 90000000 cycles: 83986608 heartbeat IPC: 0.569765 cumulative IPC: 0.569473 (Simulation time: 0 hr 4 min 15 sec) 
Heartbeat CPU 0 instructions: 100000002 cycles: 101512687 heartbeat IPC: 0.570578 cumulative IPC: 0.569693 (Simulation time: 0 hr 4 min 50 sec) 
Heartbeat CPU 0 instructions: 110000000 cycles: 119034929 heartbeat IPC: 0.570703 cumulative IPC: 0.569861 (Simulation time: 0 hr 5 min 26 sec) 
Heartbeat CPU 0 instructions: 120000000 cycles: 136567989 heartbeat IPC: 0.570351 cumulative IPC: 0.569931 (Simulation time: 0 hr 6 min 0 sec) 
*** Reached end of trace for Core: 0 Repeating trace: traces/spec2k17/server_036.champsimtrace.xz
Heartbeat CPU 0 instructions: 130000003 cycles: 154339287 heartbeat IPC: 0.562705 cumulative IPC: 0.569018 (Simulation time: 0 hr 6 min 47 sec) 
Heartbeat CPU 0 instructions: 140000000 cycles: 171806858 heartbeat IPC: 0.572489 cumulative IPC: 0.569402 (Simulation time: 0 hr 7 min 29 sec) 
Heartbeat CPU 0 instructions: 150000000 cycles: 189283021 heartbeat IPC: 0.572208 cumulative IPC: 0.569681 (Simulation time: 0 hr 8 min 23 sec) 
Heartbeat CPU 0 instructions: 160000001 cycles: 208498989 heartbeat IPC: 0.520401 cumulative IPC: 0.564819 (Simulation time: 0 hr 9 min 12 sec) 
Heartbeat CPU 0 instructions: 170000000 cycles: 226016507 heartbeat IPC: 0.570857 cumulative IPC: 0.565317 (Simulation time: 0 hr 9 min 52 sec) 
Heartbeat CPU 0 instructions: 180000000 cycles: 243629637 heartbeat IPC: 0.567758 cumulative IPC: 0.565504 (Simulation time: 0 hr 10 min 31 sec) 
Heartbeat CPU 0 instructions: 190000003 cycles: 261143763 heartbeat IPC: 0.570968 cumulative IPC: 0.565891 (Simulation time: 0 hr 11 min 6 sec) 
Heartbeat CPU 0 instructions: 200000001 cycles: 278662335 heartbeat IPC: 0.570823 cumulative IPC: 0.566217 (Simulation time: 0 hr 11 min 41 sec) 
Heartbeat CPU 0 instructions: 210000003 cycles: 296206791 heartbeat IPC: 0.569981 cumulative IPC: 0.566451 (Simulation time: 0 hr 12 min 26 sec) 
Heartbeat CPU 0 instructions: 220000000 cycles: 313732683 heartbeat IPC: 0.570584 cumulative IPC: 0.566692 (Simulation time: 0 hr 13 min 21 sec) 
Heartbeat CPU 0 instructions: 230000001 cycles: 331256686 heartbeat IPC: 0.570646 cumulative IPC: 0.56691 (Simulation time: 0 hr 14 min 16 sec) 
Heartbeat CPU 0 instructions: 240000001 cycles: 348789649 heartbeat IPC: 0.570354 cumulative IPC: 0.567091 (Simulation time: 0 hr 15 min 10 sec) 
*** Reached end of trace for Core: 0 Repeating trace: traces/spec2k17/server_036.champsimtrace.xz
Heartbeat CPU 0 instructions: 250000000 cycles: 366539298 heartbeat IPC: 0.563391 cumulative IPC: 0.566904 (Simulation time: 0 hr 16 min 5 sec) 
Finished CPU 0 instructions: 200000000 cycles: 352793117 cumulative IPC: 0.566904 (Simulation time: 0 hr 16 min 5 sec) 

ChampSim completed all CPUs

Region of Interest Statistics

CPU 0 cumulative IPC: 0.566904 instructions: 200000000 cycles: 352793117
ITLB TOTAL     ACCESS:   35602843  HIT:   33755240  MISS:    1847603  HIT %:    94.8105  MISS %:    5.18948   MPKI: 9.23802
ITLB LOAD TRANSLATION ACCESS:   35602843  HIT:   33755240  MISS:    1847603  HIT %:    94.8105  MISS %:    5.18948   MPKI: 9.23802
ITLB PREFETCH  REQUESTED:          0  ISSUED:          0  USEFUL:          0  USELESS:          0
ITLB USEFUL LOAD PREFETCHES:          0 PREFETCH ISSUED TO LOWER LEVEL:          0  ACCURACY: -nan
ITLB TIMELY PREFETCHES:          0 LATE PREFETCHES: 0 DROPPED PREFETCHES: 0
ITLB PREFETCHES SAME FILL-ORIGIN LEVEL: 0 DIFFERENT FILL-ORIGIN LEVEL: 0
ITLB AVERAGE MISS LATENCY: 9.0251 cycles
ITLB RQ	ACCESS:   40700413	FORWARD:          0	MERGED:    4730530	TO_CACHE:   35969883

DTLB TOTAL     ACCESS:   40385913  HIT:   39470921  MISS:     914992  HIT %:    97.7344  MISS %:    2.26562   MPKI: 4.57496
DTLB LOAD TRANSLATION ACCESS:   40385913  HIT:   39470921  MISS:     914992  HIT %:    97.7344  MISS %:    2.26562   MPKI: 4.57496
DTLB PREFETCH  REQUESTED:          0  ISSUED:          0  USEFUL:          0  USELESS:          0
DTLB USEFUL LOAD PREFETCHES:          0 PREFETCH ISSUED TO LOWER LEVEL:          0  ACCURACY: -nan
DTLB TIMELY PREFETCHES:          0 LATE PREFETCHES: 0 DROPPED PREFETCHES: 0
DTLB PREFETCHES SAME FILL-ORIGIN LEVEL: 0 DIFFERENT FILL-ORIGIN LEVEL: 0
DTLB AVERAGE MISS LATENCY: 9.16447 cycles
DTLB RQ	ACCESS:   58668866	FORWARD:          0	MERGED:   18210715	TO_CACHE:   40458151

STLB TOTAL     ACCESS:   11925053  HIT:   11923586  MISS:       1467  HIT %:    99.9877  MISS %:  0.0123018   MPKI: 0.007335
STLB LOAD TRANSLATION ACCESS:    2762595  HIT:    2761150  MISS:       1445  HIT %:    99.9477  MISS %:  0.0523059   MPKI: 0.007225
STLB TRANSLATION FROM L1D PREFETCHER ACCESS:    9162458  HIT:    9162436  MISS:         22  HIT %:    99.9998  MISS %: 0.00024011   MPKI: 0.00011
STLB PREFETCH  REQUESTED:          0  ISSUED:          0  USEFUL:         22  USELESS:          0
STLB USEFUL LOAD PREFETCHES:         22 PREFETCH ISSUED TO LOWER LEVEL:          0  ACCURACY: inf
STLB TIMELY PREFETCHES:         22 LATE PREFETCHES: 1 DROPPED PREFETCHES: 1147
STLB PREFETCHES SAME FILL-ORIGIN LEVEL: 0 DIFFERENT FILL-ORIGIN LEVEL: 0
STLB AVERAGE MISS LATENCY: 110.671 cycles
STLB RQ	ACCESS:   23912567	FORWARD:          0	MERGED:   11986362	TO_CACHE:   11926205

STLB Hit, L1D data hit: 0
STLB Hit, L2C data hit: 0
STLB Hit, LLC data hit: 0
STLB Hit, LLC data miss: 0
STLB STLB hints to L2: 0
L1D TOTAL     ACCESS:   79725754  HIT:   79613024  MISS:     112730  HIT %:    99.8586  MISS %:   0.141397   MPKI: 0.56365
L1D LOAD      ACCESS:   30314464  HIT:   30271713  MISS:      42751  HIT %:     99.859  MISS %:   0.141025   MPKI: 0.213755
L1D RFO       ACCESS:   28285018  HIT:   28241742  MISS:      43276  HIT %:     99.847  MISS %:      0.153   MPKI: 0.21638
L1D PREFETCH  ACCESS:   21126272  HIT:   21099569  MISS:      26703  HIT %:    99.8736  MISS %:   0.126397   MPKI: 0.133515
AGUS PREFETCH L1 MISS: 0
L1D PREFETCH  REQUESTED:   70631104  ISSUED:   70630925  USEFUL:       2671  USELESS:      24011
L1D USEFUL LOAD PREFETCHES:       2671 PREFETCH ISSUED TO LOWER LEVEL:      27351  ACCURACY: 9.76564
L1D TIMELY PREFETCHES:       2671 LATE PREFETCHES: 635 DROPPED PREFETCHES: 2103
L1D PREFETCHES SAME FILL-ORIGIN LEVEL: 27351 DIFFERENT FILL-ORIGIN LEVEL: 0
L1D AVERAGE MISS LATENCY: 1.11852e+06 cycles
L1D RQ	ACCESS:   47353935	FORWARD:          0	MERGED:   16692949	TO_CACHE:   30316956
L1D WQ	ACCESS:   28475378	FORWARD:     377788	MERGED:     123468	TO_CACHE:   28351910
L1D PQ	ACCESS:   49480953	FORWARD:          0	MERGED:   28297223	TO_CACHE:   21149972

L1D UNIQUE REGIONS ACCESSED: 0
L1D REGIONS CONFLICTS: 0
L1D Cross Page Prefetch Requests: 1509079
L1D Same Page Prefetch Requests: 61217686
L1D ROI Sum of L1D PQ occupancy: 267352422
L1D PREFETCHES PUSHED FROM L2C: 0
L1I TOTAL     ACCESS:   36329912  HIT:   21994483  MISS:   14335429  HIT %:     60.541  MISS %:     39.459   MPKI: 71.6771
L1I LOAD      ACCESS:   36329912  HIT:   21994483  MISS:   14335429  HIT %:     60.541  MISS %:     39.459   MPKI: 71.6771
L1I PREFETCH  REQUESTED:          0  ISSUED:          0  USEFUL:          0  USELESS:          0
L1I USEFUL LOAD PREFETCHES:          0 PREFETCH ISSUED TO LOWER LEVEL:          0  ACCURACY: -nan
L1I TIMELY PREFETCHES:          0 LATE PREFETCHES: 0 DROPPED PREFETCHES: 0
L1I PREFETCHES SAME FILL-ORIGIN LEVEL: 0 DIFFERENT FILL-ORIGIN LEVEL: 0
L1I AVERAGE MISS LATENCY: 14.1335 cycles
L1I RQ	ACCESS:   60651293	FORWARD:          0	MERGED:   19950880	TO_CACHE:   40700413

BTB TOTAL     ACCESS:   25908288  HIT:   23514247  MISS:    2394041  HIT %:    90.7596  MISS %:    9.24044   MPKI: 11.9702
BTB BRANCH_DIRECT_JUMP	ACCESS:    1774351  HIT:    1739635  MISS:      34716
BTB BRANCH_INDIRECT	ACCESS:   11507663  HIT:   10680987  MISS:     826676
BTB BRANCH_CONDITIONAL	ACCESS:    4376081  HIT:    4361317  MISS:      14764
BTB BRANCH_DIRECT_CALL	ACCESS:    3347214  HIT:    3281604  MISS:      65610
BTB BRANCH_INDIRECT_CALL	ACCESS:     777882  HIT:     612337  MISS:     165545
BTB BRANCH_RETURN	ACCESS:    4125097  HIT:    2838367  MISS:    1286730
BTB BRANCH_OTHER ACCESS:          0  HIT:          0  MISS:          0

L2C TOTAL     ACCESS:   14505417  HIT:   14427194  MISS:      78223  HIT %:    99.4607  MISS %:   0.539268   MPKI: 0.391115
L2C LOAD      ACCESS:   14377544  HIT:   14342845  MISS:      34699  HIT %:    99.7587  MISS %:   0.241342   MPKI: 0.173495
L2C DATA LOAD MPKI: 0.10855
L2C INSTRUCTION LOAD MPKI: 0.064945
L2C RFO       ACCESS:      43263  HIT:      10136  MISS:      33127  HIT %:    23.4288  MISS %:    76.5712   MPKI: 0.165635
L2C PREFETCH  ACCESS:      27351  HIT:      19149  MISS:       8202  HIT %:    70.0121  MISS %:    29.9879   MPKI: 0.04101
AGUS PREFETCH L1 MISS: 0
L2C DATA PREFETCH MPKI: 0.04101
L2C INSTRUCTION PREFETCH MPKI: 0
L2C WRITEBACK ACCESS:      53894  HIT:      52563  MISS:       1331  HIT %:    97.5303  MISS %:    2.46966   MPKI: 0.006655
L2C LOAD TRANSLATION ACCESS:       1645  HIT:        847  MISS:        798  HIT %:    51.4894  MISS %:    48.5106   MPKI: 0.00399
L2C TRANSLATION FROM L1D PREFETCHER ACCESS:       1720  HIT:       1654  MISS:         66  HIT %:    96.1628  MISS %:    3.83721   MPKI: 0.00033
L2C PREFETCH  REQUESTED:          0  ISSUED:          0  USEFUL:        475  USELESS:       7135
L2C USEFUL LOAD PREFETCHES:        475 PREFETCH ISSUED TO LOWER LEVEL:       8202  ACCURACY: 5.79127
L2C TIMELY PREFETCHES:        475 LATE PREFETCHES: 0 DROPPED PREFETCHES: 0
L2C PREFETCHES SAME FILL-ORIGIN LEVEL: 0 DIFFERENT FILL-ORIGIN LEVEL: 0
L2C AVERAGE MISS LATENCY: 174.593 cycles
L2C RQ	ACCESS:   14424173	FORWARD:          0	MERGED:          0	TO_CACHE:   14424172
L2C WQ	ACCESS:      53894	FORWARD:          1	MERGED:          0	TO_CACHE:      53894
L2C PQ	ACCESS:      27351	FORWARD:          0	MERGED:          0	TO_CACHE:      27351

L2C Instructions Evicting Data 10787
L2C Translations Evicting Data 686
L2C Data Evicting Data 51910
L2C Instructions Evicting Instructions 2054
L2C Translations Evicting Instructions 156
L2C Data Evicting Instructions 10441
L2C Instructions Evicting Translations 148
L2C Translations Evicting Translations 22
L2C Data Evicting Translations 688
L2C Dense regions hint from L2: 0
PSCL5 TOTAL     ACCESS:       2614  HIT:       2614  MISS:          0  HIT %:        100  MISS %:          0   MPKI: 0
PSCL5 LOAD TRANSLATION ACCESS:       1444  HIT:       1444  MISS:          0  HIT %:        100  MISS %:          0   MPKI: 0
PSCL5 TRANSLATION FROM L1D PREFETCHER ACCESS:       1170  HIT:       1170  MISS:          0  HIT %:        100  MISS %:          0   MPKI: 0
PSCL5 PREFETCH  REQUESTED:          0  ISSUED:          0  USEFUL:          0  USELESS:          0
PSCL5 USEFUL LOAD PREFETCHES:          0 PREFETCH ISSUED TO LOWER LEVEL:          0  ACCURACY: -nan
PSCL5 TIMELY PREFETCHES:          0 LATE PREFETCHES: 0 DROPPED PREFETCHES: 0
PSCL5 PREFETCHES SAME FILL-ORIGIN LEVEL: 0 DIFFERENT FILL-ORIGIN LEVEL: 0

PSCL4 TOTAL     ACCESS:       2254  HIT:       2243  MISS:         11  HIT %:     99.512  MISS %:   0.488021   MPKI: 5.5e-05
PSCL4 LOAD TRANSLATION ACCESS:       1187  HIT:       1176  MISS:         11  HIT %:    99.0733  MISS %:   0.926706   MPKI: 5.5e-05
PSCL4 TRANSLATION FROM L1D PREFETCHER ACCESS:       1067  HIT:       1067  MISS:          0  HIT %:        100  MISS %:          0   MPKI: 0
PSCL4 PREFETCH  REQUESTED:          0  ISSUED:          0  USEFUL:          0  USELESS:          0
PSCL4 USEFUL LOAD PREFETCHES:          0 PREFETCH ISSUED TO LOWER LEVEL:          0  ACCURACY: -nan
PSCL4 TIMELY PREFETCHES:          0 LATE PREFETCHES: 0 DROPPED PREFETCHES: 0
PSCL4 PREFETCHES SAME FILL-ORIGIN LEVEL: 0 DIFFERENT FILL-ORIGIN LEVEL: 0

PSCL3 TOTAL     ACCESS:       2412  HIT:       2401  MISS:         11  HIT %:    99.5439  MISS %:   0.456053   MPKI: 5.5e-05
PSCL3 LOAD TRANSLATION ACCESS:       1337  HIT:       1326  MISS:         11  HIT %:    99.1773  MISS %:   0.822737   MPKI: 5.5e-05
PSCL3 TRANSLATION FROM L1D PREFETCHER ACCESS:       1075  HIT:       1075  MISS:          0  HIT %:        100  MISS %:          0   MPKI: 0
PSCL3 PREFETCH  REQUESTED:          0  ISSUED:          0  USEFUL:          0  USELESS:          0
PSCL3 USEFUL LOAD PREFETCHES:          0 PREFETCH ISSUED TO LOWER LEVEL:          0  ACCURACY: -nan
PSCL3 TIMELY PREFETCHES:          0 LATE PREFETCHES: 0 DROPPED PREFETCHES: 0
PSCL3 PREFETCHES SAME FILL-ORIGIN LEVEL: 0 DIFFERENT FILL-ORIGIN LEVEL: 0

PSCL2 TOTAL     ACCESS:       2067  HIT:       1887  MISS:        180  HIT %:    91.2917  MISS %:    8.70827   MPKI: 0.0009
PSCL2 LOAD TRANSLATION ACCESS:       1445  HIT:       1265  MISS:        180  HIT %:    87.5433  MISS %:    12.4567   MPKI: 0.0009
PSCL2 TRANSLATION FROM L1D PREFETCHER ACCESS:        622  HIT:        622  MISS:          0  HIT %:        100  MISS %:          0   MPKI: 0
PSCL2 PREFETCH  REQUESTED:          0  ISSUED:          0  USEFUL:          0  USELESS:          0
PSCL2 USEFUL LOAD PREFETCHES:          0 PREFETCH ISSUED TO LOWER LEVEL:          0  ACCURACY: -nan
PSCL2 TIMELY PREFETCHES:          0 LATE PREFETCHES: 0 DROPPED PREFETCHES: 0
PSCL2 PREFETCHES SAME FILL-ORIGIN LEVEL: 0 DIFFERENT FILL-ORIGIN LEVEL: 0

LLC TOTAL     ACCESS:     115659  HIT:      64829  MISS:      50830  HIT %:    56.0518  MISS %:    43.9482   MPKI: 0.25415
LLC LOAD      ACCESS:      34699  HIT:      12412  MISS:      22287  HIT %:    35.7705  MISS %:    64.2295   MPKI: 0.111435
LLC RFO       ACCESS:      33127  HIT:      11283  MISS:      21844  HIT %:    34.0598  MISS %:    65.9402   MPKI: 0.10922
LLC PREFETCH  ACCESS:       8202  HIT:       2486  MISS:       5716  HIT %:    30.3097  MISS %:    69.6903   MPKI: 0.02858
AGUS PREFETCH L1 MISS: 0
LLC WRITEBACK ACCESS:      38767  HIT:      38343  MISS:        424  HIT %:    98.9063  MISS %:    1.09371   MPKI: 0.00212
LLC LOAD TRANSLATION ACCESS:        798  HIT:        274  MISS:        524  HIT %:    34.3358  MISS %:    65.6642   MPKI: 0.00262
LLC TRANSLATION FROM L1D PREFETCHER ACCESS:         66  HIT:         31  MISS:         35  HIT %:    46.9697  MISS %:    53.0303   MPKI: 0.000175
LLC PREFETCH  REQUESTED:          0  ISSUED:          0  USEFUL:        316  USELESS:       4289
LLC USEFUL LOAD PREFETCHES:        316 PREFETCH ISSUED TO LOWER LEVEL:       5716  ACCURACY: 5.52834
LLC TIMELY PREFETCHES:        316 LATE PREFETCHES: 0 DROPPED PREFETCHES: 0
LLC PREFETCHES SAME FILL-ORIGIN LEVEL: 0 DIFFERENT FILL-ORIGIN LEVEL: 0
LLC AVERAGE MISS LATENCY: 223.279 cycles
LLC RQ	ACCESS:      68690	FORWARD:          0	MERGED:          0	TO_CACHE:      68690
LLC WQ	ACCESS:      38767	FORWARD:          0	MERGED:          0	TO_CACHE:      38767
LLC PQ	ACCESS:       8202	FORWARD:          0	MERGED:          0	TO_CACHE:       8202

LLC Dense regions hint to LLC: 0

RAW hits: 2185292
Loads Generated: 49539229
Loads sent to L1D: 47353935
Stores Generated: 28475376
Stores sent to L1D: 28475378
Major fault: 0 Minor fault: 2050
Allocated PAGES: 2050
ucb ended
-----------------------------------------------------------------------------------------------------------------------------------------------------------------------------------------------------
Offsets elements: -63 -62 -61 -60 -59 -58 -57 -56 -55 -54 -53 -52 -51 -50 -49 -48 -47 -46 -45 -44 -43 -42 -41 -40 -39 -38 -37 -36 -35 -34 -33 -32 -31 -30 -29 -28 -27 -26 -25 -24 -23 -22 -21 -20 -19 -18 -17 -16 -15 -14 -13 -12 -11 -10 -9 -8 -7 -6 -5 -4 -3 -2 -1 1 2 3 4 5 6 7 8 9 10 11 12 13 14 15 16 17 18 19 20 21 22 23 24 25 26 27 28 29 30 31 32 33 34 35 36 37 38 39 40 41 42 43 44 45 46 47 48 49 50 51 52 53 54 55 56 57 58 59 60 61 62 63 
Potential of Offsets elements: 28.4057 28.4057 29.4057 28.4057 28.4057 36.4057 28.4057 35.4057 37.4057 29.4057 49.4057 28.4057 113.406 33.4057 28.4057 46.4057 140.406 29.4057 28.4057 289.406 36.4057 28.4057 29.4057 226.406 30.4057 37.4057 270.406 29.4057 61.4057 28.4057 396.406 28.4057 30.4057 301.406 158.406 28.4057 68.4057 422.406 228.406 226.406 632.406 330.406 46.4057 805.406 373.406 549.406 340.406 508.406 514.406 251.406 678.406 527.406 206.406 347.406 870.406 482.406 191.406 1001.41 1340.41 969.406 2448.41 1450.41 2641.11 2543.16 1547.41 1772.41 559.406 1607.41 1247.41 537.406 313.406 754.406 498.406 167.406 669.406 397.406 294.406 270.406 772.406 469.406 116.406 823.406 262.406 60.4057 522.406 239.406 161.406 135.406 460.406 43.4057 56.4057 720.406 30.4057 28.4057 45.4057 386.406 30.4057 30.4057 337.406 30.4057 30.4057 32.4057 207.406 28.4057 39.4057 288.406 31.4057 30.4057 30.4057 136.406 28.4057 51.4057 176.406 29.4057 28.4057 28.4057 100.406 28.4057 39.4057 33.4057 29.4057 28.4057 29.4057 30.4057 28.4057 28.4057 
rewards of Offsets elements: 0 0 1 0 0 8 0 7 9 1 21 0 85 5 0 18 112 1 0 261 8 0 1 198 2 9 242 1 33 0 368 0 2 273 130 0 40 394 200 198 604 302 18 777 345 521 312 480 486 223 650 499 178 319 842 454 163 973 1312 941 2420 1422 2641 2542 1519 1744 531 1579 1219 509 285 726 470 139 641 369 266 242 744 441 88 795 234 32 494 211 133 107 432 15 28 692 2 0 17 358 2 2 309 2 2 4 179 0 11 260 3 2 2 108 0 23 148 1 0 0 72 0 11 5 1 0 1 2 0 0 Printing Sanity2
offset_index value126
offset list size126
reward size126
potential size126
-----------------------------------------------------------------------------------------------------------------------------------------------------------------------------------------------------

DRAM Statistics
 CHANNEL 0
 RQ ROW_BUFFER_HIT:      18612  ROW_BUFFER_MISS:      31794
 DBUS_CONGESTED:         12
 WQ ROW_BUFFER_HIT:       7176  ROW_BUFFER_MISS:      20314  FULL:          0

 AVG_CONGESTED_CYCLE: 4
 All warmup complete: 2
Channel 0 Bank busy for read cycles: 0
Channel 0 Bank busy for write cycles: 0
Channel 0
Rank 0
0banks busy for read cycles: 348155078
0banks busy for write cycles: 5614
1banks busy for read cycles: 1770539
1banks busy for write cycles: 871180
2banks busy for read cycles: 363293
2banks busy for write cycles: 297368
3banks busy for read cycles: 182591
3banks busy for write cycles: 192506
4banks busy for read cycles: 79567
4banks busy for write cycles: 121181
5banks busy for read cycles: 55458
5banks busy for write cycles: 71103
6banks busy for read cycles: 55682
6banks busy for write cycles: 42802
7banks busy for read cycles: 74392
7banks busy for write cycles: 56161
8banks busy for read cycles: 162787
8banks busy for write cycles: 235816

CPU 0 Branch Prediction Accuracy: 99.9274% MPKI: 0.113335 Average ROB Occupancy at Mispredict: 10.5635
Branch types
NOT_BRANCH: 168787543 84.3938%
BRANCH_DIRECT_JUMP: 1774351 0.887176%
BRANCH_INDIRECT: 11507663 5.75383%
BRANCH_CONDITIONAL: 9680226 4.84011%
BRANCH_DIRECT_CALL: 3347214 1.67361%
BRANCH_INDIRECT_CALL: 777882 0.388941%
BRANCH_RETURN: 4125097 2.06255%
BRANCH_OTHER: 0 0%

DRAM PAGES: 1048576
Allocated PAGES: 2050
