
*** ChampSim Multicore Out-of-Order Simulator ***

Warmup Instructions: 50000000
Simulation Instructions: 200000000
Number of CPUs: 1
LLC sets: 2048
LLC ways: 16
Off-chip DRAM Size: 4096 MB Channels: 1 Width: 64-bit Data Rate: 6400 MT/s
CPU 0 runs traces/spec2k17/server_004.champsimtrace.xz
.xz
BTB has LRU replacement policy
ITLB has LRU replacement policy
DTLB has LRU replacement policy
STLB has LRU replacement policy
L1I has LRU replacement policy
L1D has LRU replacement policy
Initialize SRRIP state for L2C
Initialize DRRIP state for LLC
Offsets elements: -63 -62 -61 -60 -59 -58 -57 -56 -55 -54 -53 -52 -51 -50 -49 -48 -47 -46 -45 -44 -43 -42 -41 -40 -39 -38 -37 -36 -35 -34 -33 -32 -31 -30 -29 -28 -27 -26 -25 -24 -23 -22 -21 -20 -19 -18 -17 -16 -15 -14 -13 -12 -11 -10 -9 -8 -7 -6 -5 -4 -3 -2 -1 1 2 3 4 5 6 7 8 9 10 11 12 13 14 15 16 17 18 19 20 21 22 23 24 25 26 27 28 29 30 31 32 33 34 35 36 37 38 39 40 41 42 43 44 45 46 47 48 49 50 51 52 53 54 55 56 57 58 59 60 61 62 63 
Potential of Offsets elements: 
rewards of Offsets elements: 0 0 0 0 0 0 0 0 0 0 0 6 0 0 0 0 0 0 0 24 0 24 0 47 72 50 309 194 290 224 458 769 962 26 286 144 321 42 124 0 0 14 6 5 0 31 13 77 36 0 191 106 846 2 33 383 218 123 0 787 654 1245 1165 2531 367 668 737 890 306 257 47 54 139 217 168 138 37 0 412 527 372 3 19 0 16 174 317 187 51 56 0 506 905 938 346 24 0 9 159 0 18 2 1 136 65 420 126 4 9 0 0 2 0 117 0 0 68 3 84 220 0 0 94 110 13 0 
Printing Sanity1
Heartbeat CPU 0 instructions: 10000001 cycles: 2799840 heartbeat IPC: 3.57163 cumulative IPC: 3.57163 (Simulation time: 0 hr 0 min 39 sec) 
Heartbeat CPU 0 instructions: 20000001 cycles: 5624147 heartbeat IPC: 3.54069 cumulative IPC: 3.55609 (Simulation time: 0 hr 1 min 17 sec) 
Heartbeat CPU 0 instructions: 30000002 cycles: 9642402 heartbeat IPC: 2.48864 cumulative IPC: 3.11126 (Simulation time: 0 hr 2 min 7 sec) 
Heartbeat CPU 0 instructions: 40000003 cycles: 12920500 heartbeat IPC: 3.05055 cumulative IPC: 3.09586 (Simulation time: 0 hr 2 min 36 sec) 
Heartbeat CPU 0 instructions: 50000000 cycles: 15720820 heartbeat IPC: 3.57102 cumulative IPC: 3.1805 (Simulation time: 0 hr 2 min 59 sec) 

Warmup complete CPU 0 instructions: 50000004 cycles: 15720821 (Simulation time: 0 hr 2 min 59 sec) 

Heartbeat CPU 0 instructions: 60000003 cycles: 41355443 heartbeat IPC: 0.390098 cumulative IPC: 0.390097 (Simulation time: 0 hr 3 min 38 sec) 
Heartbeat CPU 0 instructions: 70000002 cycles: 66885881 heartbeat IPC: 0.391689 cumulative IPC: 0.390892 (Simulation time: 0 hr 4 min 16 sec) 
Heartbeat CPU 0 instructions: 80000002 cycles: 100110892 heartbeat IPC: 0.300978 cumulative IPC: 0.355492 (Simulation time: 0 hr 5 min 3 sec) 
Heartbeat CPU 0 instructions: 90000002 cycles: 133779311 heartbeat IPC: 0.297014 cumulative IPC: 0.338815 (Simulation time: 0 hr 5 min 50 sec) 
Heartbeat CPU 0 instructions: 100000002 cycles: 161340232 heartbeat IPC: 0.362833 cumulative IPC: 0.343361 (Simulation time: 0 hr 6 min 28 sec) 
*** Reached end of trace for Core: 0 Repeating trace: traces/spec2k17/server_004.champsimtrace.xz
Heartbeat CPU 0 instructions: 110000000 cycles: 186689427 heartbeat IPC: 0.39449 cumulative IPC: 0.350942 (Simulation time: 0 hr 7 min 26 sec) 
Heartbeat CPU 0 instructions: 120000000 cycles: 211561308 heartbeat IPC: 0.40206 cumulative IPC: 0.357434 (Simulation time: 0 hr 8 min 30 sec) 
Heartbeat CPU 0 instructions: 130000000 cycles: 245953762 heartbeat IPC: 0.290761 cumulative IPC: 0.347474 (Simulation time: 0 hr 9 min 25 sec) 
Heartbeat CPU 0 instructions: 140000002 cycles: 279023441 heartbeat IPC: 0.302392 cumulative IPC: 0.341812 (Simulation time: 0 hr 10 min 16 sec) 
Heartbeat CPU 0 instructions: 150000003 cycles: 304600762 heartbeat IPC: 0.390971 cumulative IPC: 0.346165 (Simulation time: 0 hr 10 min 59 sec) 
Heartbeat CPU 0 instructions: 160000000 cycles: 329978394 heartbeat IPC: 0.394048 cumulative IPC: 0.350031 (Simulation time: 0 hr 11 min 59 sec) 
Heartbeat CPU 0 instructions: 170000001 cycles: 355238408 heartbeat IPC: 0.395883 cumulative IPC: 0.353443 (Simulation time: 0 hr 13 min 2 sec) 
Heartbeat CPU 0 instructions: 180000000 cycles: 385039449 heartbeat IPC: 0.335559 cumulative IPC: 0.352 (Simulation time: 0 hr 13 min 47 sec) 
Heartbeat CPU 0 instructions: 190000000 cycles: 421951469 heartbeat IPC: 0.270914 cumulative IPC: 0.344632 (Simulation time: 0 hr 15 min 15 sec) 
Heartbeat CPU 0 instructions: 200000000 cycles: 449253596 heartbeat IPC: 0.366272 cumulative IPC: 0.345995 (Simulation time: 0 hr 16 min 0 sec) 
*** Reached end of trace for Core: 0 Repeating trace: traces/spec2k17/server_004.champsimtrace.xz
Heartbeat CPU 0 instructions: 210000000 cycles: 474650185 heartbeat IPC: 0.393754 cumulative IPC: 0.348638 (Simulation time: 0 hr 16 min 41 sec) 
Heartbeat CPU 0 instructions: 220000000 cycles: 499774086 heartbeat IPC: 0.398027 cumulative IPC: 0.351201 (Simulation time: 0 hr 17 min 22 sec) 
Heartbeat CPU 0 instructions: 230000000 cycles: 530612160 heartbeat IPC: 0.324274 cumulative IPC: 0.349588 (Simulation time: 0 hr 18 min 7 sec) 
Heartbeat CPU 0 instructions: 240000002 cycles: 567019371 heartbeat IPC: 0.274671 cumulative IPC: 0.344641 (Simulation time: 0 hr 19 min 3 sec) 
Heartbeat CPU 0 instructions: 250000001 cycles: 592607741 heartbeat IPC: 0.390803 cumulative IPC: 0.346688 (Simulation time: 0 hr 19 min 44 sec) 
Finished CPU 0 instructions: 200000001 cycles: 576886921 cumulative IPC: 0.346688 (Simulation time: 0 hr 19 min 44 sec) 

ChampSim completed all CPUs

Region of Interest Statistics

CPU 0 cumulative IPC: 0.346688 instructions: 200000001 cycles: 576886921
ITLB TOTAL     ACCESS:   36041022  HIT:   35384647  MISS:     656375  HIT %:    98.1788  MISS %:    1.82119   MPKI: 3.28187
ITLB LOAD TRANSLATION ACCESS:   36041022  HIT:   35384647  MISS:     656375  HIT %:    98.1788  MISS %:    1.82119   MPKI: 3.28187
ITLB PREFETCH  REQUESTED:          0  ISSUED:          0  USEFUL:          0  USELESS:          0
ITLB USEFUL LOAD PREFETCHES:          0 PREFETCH ISSUED TO LOWER LEVEL:          0  ACCURACY: -nan
ITLB TIMELY PREFETCHES:          0 LATE PREFETCHES: 0 DROPPED PREFETCHES: 0
ITLB PREFETCHES SAME FILL-ORIGIN LEVEL: 0 DIFFERENT FILL-ORIGIN LEVEL: 0
ITLB AVERAGE MISS LATENCY: 16.6913 cycles
ITLB RQ	ACCESS:   41934237	FORWARD:          0	MERGED:    5740469	TO_CACHE:   36193768

DTLB TOTAL     ACCESS:   42070766  HIT:   36008958  MISS:    6061808  HIT %:    85.5914  MISS %:    14.4086   MPKI: 30.309
DTLB LOAD TRANSLATION ACCESS:   42070766  HIT:   36008958  MISS:    6061808  HIT %:    85.5914  MISS %:    14.4086   MPKI: 30.309
DTLB PREFETCH  REQUESTED:          0  ISSUED:          0  USEFUL:          0  USELESS:          0
DTLB USEFUL LOAD PREFETCHES:          0 PREFETCH ISSUED TO LOWER LEVEL:          0  ACCURACY: -nan
DTLB TIMELY PREFETCHES:          0 LATE PREFETCHES: 0 DROPPED PREFETCHES: 0
DTLB PREFETCHES SAME FILL-ORIGIN LEVEL: 0 DIFFERENT FILL-ORIGIN LEVEL: 0
DTLB AVERAGE MISS LATENCY: 11.0913 cycles
DTLB RQ	ACCESS:   55373217	FORWARD:          0	MERGED:   13139926	TO_CACHE:   42233291

STLB TOTAL     ACCESS:   16923230  HIT:   16512370  MISS:     410860  HIT %:    97.5722  MISS %:    2.42779   MPKI: 2.0543
STLB LOAD TRANSLATION ACCESS:    6718183  HIT:    6311501  MISS:     406682  HIT %:    93.9465  MISS %:    6.05345   MPKI: 2.03341
STLB TRANSLATION FROM L1D PREFETCHER ACCESS:   10205047  HIT:   10200869  MISS:       4178  HIT %:    99.9591  MISS %:  0.0409405   MPKI: 0.02089
STLB PREFETCH  REQUESTED:          0  ISSUED:          0  USEFUL:       3325  USELESS:        851
STLB USEFUL LOAD PREFETCHES:       3325 PREFETCH ISSUED TO LOWER LEVEL:          0  ACCURACY: inf
STLB TIMELY PREFETCHES:       3325 LATE PREFETCHES: 5 DROPPED PREFETCHES: 192243
STLB PREFETCHES SAME FILL-ORIGIN LEVEL: 0 DIFFERENT FILL-ORIGIN LEVEL: 0
STLB AVERAGE MISS LATENCY: 43.3015 cycles
STLB RQ	ACCESS:   29346210	FORWARD:          0	MERGED:   12229572	TO_CACHE:   17116638

STLB Hit, L1D data hit: 0
STLB Hit, L2C data hit: 0
STLB Hit, LLC data hit: 0
STLB Hit, LLC data miss: 0
STLB STLB hints to L2: 0
L1D TOTAL     ACCESS:   76707148  HIT:   62932312  MISS:   13774836  HIT %:    82.0423  MISS %:    17.9577   MPKI: 68.8742
L1D LOAD      ACCESS:   36446333  HIT:   28224834  MISS:    8221499  HIT %:    77.4422  MISS %:    22.5578   MPKI: 41.1075
L1D RFO       ACCESS:   18392720  HIT:   18019030  MISS:     373690  HIT %:    97.9683  MISS %:    2.03173   MPKI: 1.86845
L1D PREFETCH  ACCESS:   21868095  HIT:   16688448  MISS:    5179647  HIT %:    76.3141  MISS %:    23.6859   MPKI: 25.8982
AGUS PREFETCH L1 MISS: 0
L1D PREFETCH  REQUESTED:   70913919  ISSUED:   70908834  USEFUL:     174025  USELESS:    5005628
L1D USEFUL LOAD PREFETCHES:     174025 PREFETCH ISSUED TO LOWER LEVEL:    5188400  ACCURACY: 3.35412
L1D TIMELY PREFETCHES:     174025 LATE PREFETCHES: 6360 DROPPED PREFETCHES: 378757
L1D PREFETCHES SAME FILL-ORIGIN LEVEL: 5188400 DIFFERENT FILL-ORIGIN LEVEL: 0
L1D AVERAGE MISS LATENCY: 189397 cycles
L1D RQ	ACCESS:   50139636	FORWARD:          0	MERGED:   13349868	TO_CACHE:   36589834
L1D WQ	ACCESS:   19208837	FORWARD:     225860	MERGED:     425454	TO_CACHE:   18783383
L1D PQ	ACCESS:   48280807	FORWARD:          0	MERGED:   25626854	TO_CACHE:   22628027

L1D UNIQUE REGIONS ACCESSED: 0
L1D REGIONS CONFLICTS: 0
L1D Cross Page Prefetch Requests: 3251026
L1D Same Page Prefetch Requests: 57325086
L1D ROI Sum of L1D PQ occupancy: 303185113
L1D PREFETCHES PUSHED FROM L2C: 0
L1I TOTAL     ACCESS:   40805890  HIT:   36838778  MISS:    3967112  HIT %:    90.2781  MISS %:    9.72191   MPKI: 19.8356
L1I LOAD      ACCESS:   40805890  HIT:   36838778  MISS:    3967112  HIT %:    90.2781  MISS %:    9.72191   MPKI: 19.8356
L1I PREFETCH  REQUESTED:          0  ISSUED:          0  USEFUL:          0  USELESS:          0
L1I USEFUL LOAD PREFETCHES:          0 PREFETCH ISSUED TO LOWER LEVEL:          0  ACCURACY: -nan
L1I TIMELY PREFETCHES:          0 LATE PREFETCHES: 0 DROPPED PREFETCHES: 0
L1I PREFETCHES SAME FILL-ORIGIN LEVEL: 0 DIFFERENT FILL-ORIGIN LEVEL: 0
L1I AVERAGE MISS LATENCY: 31.3469 cycles
L1I RQ	ACCESS:   63247406	FORWARD:          0	MERGED:   21313169	TO_CACHE:   41934237

BTB TOTAL     ACCESS:   31141352  HIT:   26161617  MISS:    4979735  HIT %:    84.0093  MISS %:    15.9907   MPKI: 24.8987
BTB BRANCH_DIRECT_JUMP	ACCESS:    2108913  HIT:    1851367  MISS:     257546
BTB BRANCH_INDIRECT	ACCESS:   15497831  HIT:   13163717  MISS:    2334114
BTB BRANCH_CONDITIONAL	ACCESS:    5913619  HIT:    5539694  MISS:     373925
BTB BRANCH_DIRECT_CALL	ACCESS:    3023382  HIT:    2531697  MISS:     491685
BTB BRANCH_INDIRECT_CALL	ACCESS:     781117  HIT:     658398  MISS:     122719
BTB BRANCH_RETURN	ACCESS:    3816490  HIT:    2416744  MISS:    1399746
BTB BRANCH_OTHER ACCESS:          0  HIT:          0  MISS:          0

L2C TOTAL     ACCESS:   19508409  HIT:   15728979  MISS:    3779430  HIT %:    80.6267  MISS %:    19.3733   MPKI: 18.8971
L2C LOAD      ACCESS:   12182088  HIT:    9423737  MISS:    2758351  HIT %:    77.3573  MISS %:    22.6427   MPKI: 13.7918
L2C DATA LOAD MPKI: 4.6347
L2C INSTRUCTION LOAD MPKI: 9.15705
L2C RFO       ACCESS:     371285  HIT:     215896  MISS:     155389  HIT %:    58.1483  MISS %:    41.8517   MPKI: 0.776945
L2C PREFETCH  ACCESS:    5188395  HIT:    4571680  MISS:     616715  HIT %:    88.1136  MISS %:    11.8864   MPKI: 3.08357
AGUS PREFETCH L1 MISS: 0
L2C DATA PREFETCH MPKI: 3.08357
L2C INSTRUCTION PREFETCH MPKI: 0
L2C WRITEBACK ACCESS:     951122  HIT:     912410  MISS:      38712  HIT %:    95.9299  MISS %:    4.07014   MPKI: 0.19356
L2C LOAD TRANSLATION ACCESS:     516272  HIT:     310207  MISS:     206065  HIT %:     60.086  MISS %:     39.914   MPKI: 1.03032
L2C TRANSLATION FROM L1D PREFETCHER ACCESS:     299247  HIT:     295049  MISS:       4198  HIT %:    98.5971  MISS %:    1.40285   MPKI: 0.02099
L2C PREFETCH  REQUESTED:          0  ISSUED:          0  USEFUL:      21574  USELESS:     599498
L2C USEFUL LOAD PREFETCHES:      21574 PREFETCH ISSUED TO LOWER LEVEL:     616715  ACCURACY: 3.49821
L2C TIMELY PREFETCHES:      21574 LATE PREFETCHES: 0 DROPPED PREFETCHES: 0
L2C PREFETCHES SAME FILL-ORIGIN LEVEL: 0 DIFFERENT FILL-ORIGIN LEVEL: 0
L2C AVERAGE MISS LATENCY: 47.5285 cycles
L2C RQ	ACCESS:   13369068	FORWARD:          0	MERGED:          0	TO_CACHE:   13368893
L2C WQ	ACCESS:     951122	FORWARD:        180	MERGED:          0	TO_CACHE:     951122
L2C PQ	ACCESS:    5188400	FORWARD:          0	MERGED:          0	TO_CACHE:    5188395

L2C Instructions Evicting Data 836341
L2C Translations Evicting Data 97986
L2C Data Evicting Data 785382
L2C Instructions Evicting Instructions 894395
L2C Translations Evicting Instructions 99640
L2C Data Evicting Instructions 818512
L2C Instructions Evicting Translations 100674
L2C Translations Evicting Translations 12637
L2C Data Evicting Translations 95151
L2C Dense regions hint from L2: 0
PSCL5 TOTAL     ACCESS:     603104  HIT:     603104  MISS:          0  HIT %:        100  MISS %:          0   MPKI: 0
PSCL5 LOAD TRANSLATION ACCESS:     406677  HIT:     406677  MISS:          0  HIT %:        100  MISS %:          0   MPKI: 0
PSCL5 TRANSLATION FROM L1D PREFETCHER ACCESS:     196427  HIT:     196427  MISS:          0  HIT %:        100  MISS %:          0   MPKI: 0
PSCL5 PREFETCH  REQUESTED:          0  ISSUED:          0  USEFUL:          0  USELESS:          0
PSCL5 USEFUL LOAD PREFETCHES:          0 PREFETCH ISSUED TO LOWER LEVEL:          0  ACCURACY: -nan
PSCL5 TIMELY PREFETCHES:          0 LATE PREFETCHES: 0 DROPPED PREFETCHES: 0
PSCL5 PREFETCHES SAME FILL-ORIGIN LEVEL: 0 DIFFERENT FILL-ORIGIN LEVEL: 0

PSCL4 TOTAL     ACCESS:     564819  HIT:     563887  MISS:        932  HIT %:     99.835  MISS %:   0.165009   MPKI: 0.00466
PSCL4 LOAD TRANSLATION ACCESS:     391071  HIT:     390139  MISS:        932  HIT %:    99.7617  MISS %:    0.23832   MPKI: 0.00466
PSCL4 TRANSLATION FROM L1D PREFETCHER ACCESS:     173748  HIT:     173748  MISS:          0  HIT %:        100  MISS %:          0   MPKI: 0
PSCL4 PREFETCH  REQUESTED:          0  ISSUED:          0  USEFUL:          0  USELESS:          0
PSCL4 USEFUL LOAD PREFETCHES:          0 PREFETCH ISSUED TO LOWER LEVEL:          0  ACCURACY: -nan
PSCL4 TIMELY PREFETCHES:          0 LATE PREFETCHES: 0 DROPPED PREFETCHES: 0
PSCL4 PREFETCHES SAME FILL-ORIGIN LEVEL: 0 DIFFERENT FILL-ORIGIN LEVEL: 0

PSCL3 TOTAL     ACCESS:     599662  HIT:     597174  MISS:       2488  HIT %:    99.5851  MISS %:     0.4149   MPKI: 0.01244
PSCL3 LOAD TRANSLATION ACCESS:     404539  HIT:     402051  MISS:       2488  HIT %:     99.385  MISS %:   0.615021   MPKI: 0.01244
PSCL3 TRANSLATION FROM L1D PREFETCHER ACCESS:     195123  HIT:     195123  MISS:          0  HIT %:        100  MISS %:          0   MPKI: 0
PSCL3 PREFETCH  REQUESTED:          0  ISSUED:          0  USEFUL:          0  USELESS:          0
PSCL3 USEFUL LOAD PREFETCHES:          0 PREFETCH ISSUED TO LOWER LEVEL:          0  ACCURACY: -nan
PSCL3 TIMELY PREFETCHES:          0 LATE PREFETCHES: 0 DROPPED PREFETCHES: 0
PSCL3 PREFETCHES SAME FILL-ORIGIN LEVEL: 0 DIFFERENT FILL-ORIGIN LEVEL: 0

PSCL2 TOTAL     ACCESS:     501290  HIT:     394300  MISS:     106990  HIT %:    78.6571  MISS %:    21.3429   MPKI: 0.53495
PSCL2 LOAD TRANSLATION ACCESS:     407440  HIT:     300450  MISS:     106990  HIT %:    73.7409  MISS %:    26.2591   MPKI: 0.53495
PSCL2 TRANSLATION FROM L1D PREFETCHER ACCESS:      93850  HIT:      93850  MISS:          0  HIT %:        100  MISS %:          0   MPKI: 0
PSCL2 PREFETCH  REQUESTED:          0  ISSUED:          0  USEFUL:          0  USELESS:          0
PSCL2 USEFUL LOAD PREFETCHES:          0 PREFETCH ISSUED TO LOWER LEVEL:          0  ACCURACY: -nan
PSCL2 TIMELY PREFETCHES:          0 LATE PREFETCHES: 0 DROPPED PREFETCHES: 0
PSCL2 PREFETCHES SAME FILL-ORIGIN LEVEL: 0 DIFFERENT FILL-ORIGIN LEVEL: 0

LLC TOTAL     ACCESS:    4167311  HIT:    3725339  MISS:     441972  HIT %:    89.3943  MISS %:    10.6057   MPKI: 2.20986
LLC LOAD      ACCESS:    2758349  HIT:    2471690  MISS:     286659  HIT %:    89.6076  MISS %:    10.3924   MPKI: 1.43329
LLC RFO       ACCESS:     155388  HIT:      95452  MISS:      59936  HIT %:    61.4282  MISS %:    38.5718   MPKI: 0.29968
LLC PREFETCH  ACCESS:     616715  HIT:     543089  MISS:      73626  HIT %:    88.0616  MISS %:    11.9384   MPKI: 0.36813
AGUS PREFETCH L1 MISS: 0
LLC WRITEBACK ACCESS:     426596  HIT:     414690  MISS:      11906  HIT %:    97.2091  MISS %:    2.79093   MPKI: 0.05953
LLC LOAD TRANSLATION ACCESS:     206065  HIT:     196433  MISS:       9632  HIT %:    95.3257  MISS %:    4.67425   MPKI: 0.04816
LLC TRANSLATION FROM L1D PREFETCHER ACCESS:       4198  HIT:       3985  MISS:        213  HIT %:    94.9262  MISS %:    5.07384   MPKI: 0.001065
LLC PREFETCH  REQUESTED:          0  ISSUED:          0  USEFUL:       5327  USELESS:      68578
LLC USEFUL LOAD PREFETCHES:       5327 PREFETCH ISSUED TO LOWER LEVEL:      73626  ACCURACY: 7.23522
LLC TIMELY PREFETCHES:       5327 LATE PREFETCHES: 0 DROPPED PREFETCHES: 0
LLC PREFETCHES SAME FILL-ORIGIN LEVEL: 0 DIFFERENT FILL-ORIGIN LEVEL: 0
LLC AVERAGE MISS LATENCY: 152.453 cycles
LLC RQ	ACCESS:    3124003	FORWARD:          0	MERGED:          0	TO_CACHE:    3124000
LLC WQ	ACCESS:     426596	FORWARD:          3	MERGED:          0	TO_CACHE:     426596
LLC PQ	ACCESS:     616715	FORWARD:          0	MERGED:          0	TO_CACHE:     616715

LLC Dense regions hint to LLC: 0

RAW hits: 2621422
Loads Generated: 52761057
Loads sent to L1D: 50139636
Stores Generated: 19208830
Stores sent to L1D: 19208837
Major fault: 0 Minor fault: 7943
Allocated PAGES: 7943
ucb ended
-----------------------------------------------------------------------------------------------------------------------------------------------------------------------------------------------------
Offsets elements: -63 -62 -61 -60 -59 -58 -57 -56 -55 -54 -53 -52 -51 -50 -49 -48 -47 -46 -45 -44 -43 -42 -41 -40 -39 -38 -37 -36 -35 -34 -33 -32 -31 -30 -29 -28 -27 -26 -25 -24 -23 -22 -21 -20 -19 -18 -17 -16 -15 -14 -13 -12 -11 -10 -9 -8 -7 -6 -5 -4 -3 -2 -1 1 2 3 4 5 6 7 8 9 10 11 12 13 14 15 16 17 18 19 20 21 22 23 24 25 26 27 28 29 30 31 32 33 34 35 36 37 38 39 40 41 42 43 44 45 46 47 48 49 50 51 52 53 54 55 56 57 58 59 60 61 62 63 
Potential of Offsets elements: 28.6445 28.6445 28.6445 28.6445 28.6445 28.6445 28.6445 28.6445 28.6445 28.6445 28.6445 34.6445 28.6445 28.6445 28.6445 28.6445 28.6445 28.6445 28.6445 52.6445 28.6445 52.6445 28.6445 75.6445 100.644 78.6445 337.644 222.644 318.644 252.644 486.644 797.644 990.644 54.6445 314.644 172.644 349.644 70.6445 152.644 28.6445 28.6445 42.6445 34.6445 33.6445 28.6445 59.6445 41.6445 105.644 64.6445 28.6445 219.644 134.644 874.644 30.6445 61.6445 411.644 246.644 151.644 28.6445 815.644 682.644 1245.1 1193.64 390.471 395.644 696.644 765.644 918.644 334.644 285.644 75.6445 82.6445 167.644 245.644 196.644 166.644 65.6445 28.6445 440.644 555.644 400.644 31.6445 47.6445 28.6445 44.6445 202.644 345.644 215.644 79.6445 84.6445 28.6445 534.644 933.644 966.644 374.644 52.6445 28.6445 37.6445 187.644 28.6445 46.6445 30.6445 29.6445 164.644 93.6445 448.644 154.644 32.6445 37.6445 28.6445 28.6445 30.6445 28.6445 145.644 28.6445 28.6445 96.6445 31.6445 112.644 248.644 28.6445 28.6445 122.644 138.644 41.6445 28.6445 
rewards of Offsets elements: 0 0 0 0 0 0 0 0 0 0 0 6 0 0 0 0 0 0 0 24 0 24 0 47 72 50 309 194 290 224 458 769 962 26 286 144 321 42 124 0 0 14 6 5 0 31 13 77 36 0 191 106 846 2 33 383 218 123 0 787 654 1245 1165 390 367 668 737 890 306 257 47 54 139 217 168 138 37 0 412 527 372 3 19 0 16 174 317 187 51 56 0 506 905 938 346 24 0 9 159 0 18 2 1 136 65 420 126 4 9 0 0 2 0 117 0 0 68 3 84 220 0 0 94 110 13 0 Printing Sanity2
offset_index value126
offset list size126
reward size126
potential size126
-----------------------------------------------------------------------------------------------------------------------------------------------------------------------------------------------------

DRAM Statistics
 CHANNEL 0
 RQ ROW_BUFFER_HIT:      94330  ROW_BUFFER_MISS:     335728
 DBUS_CONGESTED:        158
 WQ ROW_BUFFER_HIT:      32550  ROW_BUFFER_MISS:     153522  FULL:          0

 AVG_CONGESTED_CYCLE: 4
 All warmup complete: 2
Channel 0 Bank busy for read cycles: 0
Channel 0 Bank busy for write cycles: 0
Channel 0
Rank 0
0banks busy for read cycles: 513174185
0banks busy for write cycles: 105836
1banks busy for read cycles: 33604343
1banks busy for write cycles: 15612818
2banks busy for read cycles: 5595343
2banks busy for write cycles: 3414286
3banks busy for read cycles: 1495495
3banks busy for write cycles: 1145403
4banks busy for read cycles: 542747
4banks busy for write cycles: 566570
5banks busy for read cycles: 224594
5banks busy for write cycles: 334506
6banks busy for read cycles: 109505
6banks busy for write cycles: 220725
7banks busy for read cycles: 83912
7banks busy for write cycles: 187362
8banks busy for read cycles: 165501
8banks busy for write cycles: 303791

CPU 0 Branch Prediction Accuracy: 98.8897% MPKI: 2.2922 Average ROB Occupancy at Mispredict: 15.459
Branch types
NOT_BRANCH: 158710081 79.355%
BRANCH_DIRECT_JUMP: 2108913 1.05446%
BRANCH_INDIRECT: 15497831 7.74892%
BRANCH_CONDITIONAL: 16061872 8.03094%
BRANCH_DIRECT_CALL: 3023382 1.51169%
BRANCH_INDIRECT_CALL: 781117 0.390558%
BRANCH_RETURN: 3816490 1.90824%
BRANCH_OTHER: 0 0%

DRAM PAGES: 1048576
Allocated PAGES: 7943
