
*** ChampSim Multicore Out-of-Order Simulator ***

Warmup Instructions: 50000000
Simulation Instructions: 200000000
Number of CPUs: 1
LLC sets: 2048
LLC ways: 16
Off-chip DRAM Size: 4096 MB Channels: 1 Width: 64-bit Data Rate: 6400 MT/s
CPU 0 runs traces/spec2k17/server_016.champsimtrace.xz
.xz
BTB has LRU replacement policy
ITLB has LRU replacement policy
DTLB has LRU replacement policy
STLB has LRU replacement policy
L1I has LRU replacement policy
L1D has LRU replacement policy
Initialize SRRIP state for L2C
Initialize DRRIP state for LLC
Offsets elements: -63 -62 -61 -60 -59 -58 -57 -56 -55 -54 -53 -52 -51 -50 -49 -48 -47 -46 -45 -44 -43 -42 -41 -40 -39 -38 -37 -36 -35 -34 -33 -32 -31 -30 -29 -28 -27 -26 -25 -24 -23 -22 -21 -20 -19 -18 -17 -16 -15 -14 -13 -12 -11 -10 -9 -8 -7 -6 -5 -4 -3 -2 -1 1 2 3 4 5 6 7 8 9 10 11 12 13 14 15 16 17 18 19 20 21 22 23 24 25 26 27 28 29 30 31 32 33 34 35 36 37 38 39 40 41 42 43 44 45 46 47 48 49 50 51 52 53 54 55 56 57 58 59 60 61 62 63 
Potential of Offsets elements: 
rewards of Offsets elements: 15 18 113 35 5 7 60 155 486 0 17 0 0 19 162 202 90 9 0 0 0 102 145 228 201 21 6 10 96 30 0 80 87 18 86 57 13 20 117 0 4 7 64 10 154 215 307 397 5459 1213 235 299 235 156 209 108 672 721 521 484 461 723 657 615 536 2300 350 1311 585 553 175 417 461 88 373 194 66 232 205 64 118 20 20 44 42 3 8 36 14 41 85 270 259 247 13 8 36 83 5 0 117 18 40 68 42 14 3 25 82 154 6 20 0 98 7 105 82 97 23 0 0 0 55 5 99 0 
Printing Sanity1
Heartbeat CPU 0 instructions: 10000001 cycles: 2824987 heartbeat IPC: 3.53984 cumulative IPC: 3.53984 (Simulation time: 0 hr 0 min 36 sec) 
Heartbeat CPU 0 instructions: 20000001 cycles: 5644864 heartbeat IPC: 3.54625 cumulative IPC: 3.54304 (Simulation time: 0 hr 1 min 3 sec) 
Heartbeat CPU 0 instructions: 30000000 cycles: 8463103 heartbeat IPC: 3.54831 cumulative IPC: 3.5448 (Simulation time: 0 hr 1 min 31 sec) 
Heartbeat CPU 0 instructions: 40000000 cycles: 11572959 heartbeat IPC: 3.21558 cumulative IPC: 3.45633 (Simulation time: 0 hr 1 min 49 sec) 
Heartbeat CPU 0 instructions: 50000001 cycles: 14839433 heartbeat IPC: 3.06141 cumulative IPC: 3.3694 (Simulation time: 0 hr 2 min 1 sec) 

Warmup complete CPU 0 instructions: 50000001 cycles: 14839433 (Simulation time: 0 hr 2 min 1 sec) 

Heartbeat CPU 0 instructions: 60000001 cycles: 29277464 heartbeat IPC: 0.692615 cumulative IPC: 0.692615 (Simulation time: 0 hr 2 min 30 sec) 
Heartbeat CPU 0 instructions: 70000001 cycles: 59160438 heartbeat IPC: 0.334639 cumulative IPC: 0.451253 (Simulation time: 0 hr 3 min 13 sec) 
Heartbeat CPU 0 instructions: 80000000 cycles: 89979287 heartbeat IPC: 0.324477 cumulative IPC: 0.399255 (Simulation time: 0 hr 3 min 56 sec) 
Heartbeat CPU 0 instructions: 90000000 cycles: 119750729 heartbeat IPC: 0.335892 cumulative IPC: 0.381274 (Simulation time: 0 hr 4 min 38 sec) 
Heartbeat CPU 0 instructions: 100000000 cycles: 150008424 heartbeat IPC: 0.330494 cumulative IPC: 0.369907 (Simulation time: 0 hr 5 min 21 sec) 
*** Reached end of trace for Core: 0 Repeating trace: traces/spec2k17/server_016.champsimtrace.xz
Heartbeat CPU 0 instructions: 110000000 cycles: 179640214 heartbeat IPC: 0.337475 cumulative IPC: 0.364076 (Simulation time: 0 hr 6 min 2 sec) 
Heartbeat CPU 0 instructions: 120000003 cycles: 209962798 heartbeat IPC: 0.329787 cumulative IPC: 0.358747 (Simulation time: 0 hr 6 min 45 sec) 
Heartbeat CPU 0 instructions: 130000000 cycles: 239914206 heartbeat IPC: 0.333874 cumulative IPC: 0.355437 (Simulation time: 0 hr 7 min 27 sec) 
Heartbeat CPU 0 instructions: 140000000 cycles: 264372176 heartbeat IPC: 0.408865 cumulative IPC: 0.360674 (Simulation time: 0 hr 8 min 4 sec) 
Heartbeat CPU 0 instructions: 150000003 cycles: 278809332 heartbeat IPC: 0.692657 cumulative IPC: 0.378831 (Simulation time: 0 hr 8 min 37 sec) 
Heartbeat CPU 0 instructions: 160000001 cycles: 293246578 heartbeat IPC: 0.692653 cumulative IPC: 0.395105 (Simulation time: 0 hr 9 min 23 sec) 
Heartbeat CPU 0 instructions: 170000000 cycles: 318443027 heartbeat IPC: 0.396881 cumulative IPC: 0.395252 (Simulation time: 0 hr 10 min 14 sec) 
Heartbeat CPU 0 instructions: 180000003 cycles: 349006186 heartbeat IPC: 0.327191 cumulative IPC: 0.389027 (Simulation time: 0 hr 11 min 7 sec) 
Heartbeat CPU 0 instructions: 190000000 cycles: 379378446 heartbeat IPC: 0.329248 cumulative IPC: 0.384047 (Simulation time: 0 hr 11 min 49 sec) 
Heartbeat CPU 0 instructions: 200000000 cycles: 408922683 heartbeat IPC: 0.338475 cumulative IPC: 0.38063 (Simulation time: 0 hr 12 min 30 sec) 
*** Reached end of trace for Core: 0 Repeating trace: traces/spec2k17/server_016.champsimtrace.xz
Heartbeat CPU 0 instructions: 210000000 cycles: 438924115 heartbeat IPC: 0.333317 cumulative IPC: 0.377283 (Simulation time: 0 hr 13 min 16 sec) 
Heartbeat CPU 0 instructions: 220000000 cycles: 469000674 heartbeat IPC: 0.332485 cumulative IPC: 0.374316 (Simulation time: 0 hr 13 min 55 sec) 
Heartbeat CPU 0 instructions: 230000000 cycles: 498866933 heartbeat IPC: 0.334826 cumulative IPC: 0.37188 (Simulation time: 0 hr 14 min 34 sec) 
Heartbeat CPU 0 instructions: 240000000 cycles: 527894072 heartbeat IPC: 0.344505 cumulative IPC: 0.370331 (Simulation time: 0 hr 15 min 12 sec) 
Heartbeat CPU 0 instructions: 250000003 cycles: 542365947 heartbeat IPC: 0.690996 cumulative IPC: 0.379128 (Simulation time: 0 hr 15 min 38 sec) 
Finished CPU 0 instructions: 200000002 cycles: 527526514 cumulative IPC: 0.379128 (Simulation time: 0 hr 15 min 38 sec) 

ChampSim completed all CPUs

Region of Interest Statistics

CPU 0 cumulative IPC: 0.379128 instructions: 200000002 cycles: 527526514
ITLB TOTAL     ACCESS:   37660523  HIT:   36250315  MISS:    1410208  HIT %:    96.2555  MISS %:    3.74453   MPKI: 7.05104
ITLB LOAD TRANSLATION ACCESS:   37660523  HIT:   36250315  MISS:    1410208  HIT %:    96.2555  MISS %:    3.74453   MPKI: 7.05104
ITLB PREFETCH  REQUESTED:          0  ISSUED:          0  USEFUL:          0  USELESS:          0
ITLB USEFUL LOAD PREFETCHES:          0 PREFETCH ISSUED TO LOWER LEVEL:          0  ACCURACY: -nan
ITLB TIMELY PREFETCHES:          0 LATE PREFETCHES: 0 DROPPED PREFETCHES: 0
ITLB PREFETCHES SAME FILL-ORIGIN LEVEL: 0 DIFFERENT FILL-ORIGIN LEVEL: 0
ITLB AVERAGE MISS LATENCY: 9.05866 cycles
ITLB RQ	ACCESS:   42301361	FORWARD:          0	MERGED:    4301226	TO_CACHE:   38000135

DTLB TOTAL     ACCESS:   39343454  HIT:   37972585  MISS:    1370869  HIT %:    96.5156  MISS %:    3.48436   MPKI: 6.85434
DTLB LOAD TRANSLATION ACCESS:   39343454  HIT:   37972585  MISS:    1370869  HIT %:    96.5156  MISS %:    3.48436   MPKI: 6.85434
DTLB PREFETCH  REQUESTED:          0  ISSUED:          0  USEFUL:          0  USELESS:          0
DTLB USEFUL LOAD PREFETCHES:          0 PREFETCH ISSUED TO LOWER LEVEL:          0  ACCURACY: -nan
DTLB TIMELY PREFETCHES:          0 LATE PREFETCHES: 0 DROPPED PREFETCHES: 0
DTLB PREFETCHES SAME FILL-ORIGIN LEVEL: 0 DIFFERENT FILL-ORIGIN LEVEL: 0
DTLB AVERAGE MISS LATENCY: 9.29764 cycles
DTLB RQ	ACCESS:   50770903	FORWARD:          0	MERGED:   11375694	TO_CACHE:   39395209

STLB TOTAL     ACCESS:   12438577  HIT:   12430669  MISS:       7908  HIT %:    99.9364  MISS %:  0.0635764   MPKI: 0.03954
STLB LOAD TRANSLATION ACCESS:    2781077  HIT:    2773404  MISS:       7673  HIT %:    99.7241  MISS %:     0.2759   MPKI: 0.038365
STLB TRANSLATION FROM L1D PREFETCHER ACCESS:    9657500  HIT:    9657265  MISS:        235  HIT %:    99.9976  MISS %: 0.00243334   MPKI: 0.001175
STLB PREFETCH  REQUESTED:          0  ISSUED:          0  USEFUL:        224  USELESS:         11
STLB USEFUL LOAD PREFETCHES:        224 PREFETCH ISSUED TO LOWER LEVEL:          0  ACCURACY: inf
STLB TIMELY PREFETCHES:        224 LATE PREFETCHES: 109 DROPPED PREFETCHES: 16906
STLB PREFETCHES SAME FILL-ORIGIN LEVEL: 0 DIFFERENT FILL-ORIGIN LEVEL: 0
STLB AVERAGE MISS LATENCY: 965333 cycles
STLB RQ	ACCESS:   13825624	FORWARD:          0	MERGED:    1364484	TO_CACHE:   12461140

STLB Hit, L1D data hit: 0
STLB Hit, L2C data hit: 0
STLB Hit, LLC data hit: 0
STLB Hit, LLC data miss: 0
STLB STLB hints to L2: 0
L1D TOTAL     ACCESS:   60225093  HIT:   56395040  MISS:    3830053  HIT %:    93.6404  MISS %:    6.35956   MPKI: 19.1503
L1D LOAD      ACCESS:   29969882  HIT:   28030606  MISS:    1939276  HIT %:    93.5293  MISS %:    6.47075   MPKI: 9.69638
L1D RFO       ACCESS:   19429816  HIT:   18622832  MISS:     806984  HIT %:    95.8467  MISS %:    4.15333   MPKI: 4.03492
L1D PREFETCH  ACCESS:   10825395  HIT:    9741602  MISS:    1083793  HIT %:    89.9884  MISS %:    10.0116   MPKI: 5.41896
AGUS PREFETCH L1 MISS: 0
L1D PREFETCH  REQUESTED:   56143643  ISSUED:   56143643  USEFUL:     386131  USELESS:     697663
L1D USEFUL LOAD PREFETCHES:     386131 PREFETCH ISSUED TO LOWER LEVEL:    1197115  ACCURACY: 32.2551
L1D TIMELY PREFETCHES:     386131 LATE PREFETCHES: 112194 DROPPED PREFETCHES: 26338
L1D PREFETCHES SAME FILL-ORIGIN LEVEL: 1197115 DIFFERENT FILL-ORIGIN LEVEL: 0
L1D AVERAGE MISS LATENCY: 8.26956e+06 cycles
L1D RQ	ACCESS:   40502586	FORWARD:          0	MERGED:   10215505	TO_CACHE:   30040535
L1D WQ	ACCESS:   20857481	FORWARD:     251918	MERGED:     127113	TO_CACHE:   20730368
L1D PQ	ACCESS:   45099096	FORWARD:          0	MERGED:   34049177	TO_CACHE:   11044547

L1D UNIQUE REGIONS ACCESSED: 0
L1D REGIONS CONFLICTS: 0
L1D Cross Page Prefetch Requests: 2323551
L1D Same Page Prefetch Requests: 54020674
L1D ROI Sum of L1D PQ occupancy: 141471666
L1D PREFETCHES PUSHED FROM L2C: 0
L1I TOTAL     ACCESS:   41216957  HIT:   33841745  MISS:    7375212  HIT %:    82.1064  MISS %:    17.8936   MPKI: 36.8761
L1I LOAD      ACCESS:   41216957  HIT:   33841745  MISS:    7375212  HIT %:    82.1064  MISS %:    17.8936   MPKI: 36.8761
L1I PREFETCH  REQUESTED:          0  ISSUED:          0  USEFUL:          0  USELESS:          0
L1I USEFUL LOAD PREFETCHES:          0 PREFETCH ISSUED TO LOWER LEVEL:          0  ACCURACY: -nan
L1I TIMELY PREFETCHES:          0 LATE PREFETCHES: 0 DROPPED PREFETCHES: 0
L1I PREFETCHES SAME FILL-ORIGIN LEVEL: 0 DIFFERENT FILL-ORIGIN LEVEL: 0
L1I AVERAGE MISS LATENCY: 16.9999 cycles
L1I RQ	ACCESS:   60002619	FORWARD:          0	MERGED:   17701258	TO_CACHE:   42301361

BTB TOTAL     ACCESS:   31149502  HIT:   22487623  MISS:    8661879  HIT %:    72.1926  MISS %:    27.8074   MPKI: 43.3094
BTB BRANCH_DIRECT_JUMP	ACCESS:    1790889  HIT:    1185918  MISS:     604971
BTB BRANCH_INDIRECT	ACCESS:    9233189  HIT:    5986023  MISS:    3247166
BTB BRANCH_CONDITIONAL	ACCESS:   13716226  HIT:   12843151  MISS:     873075
BTB BRANCH_DIRECT_CALL	ACCESS:    2729399  HIT:    1310065  MISS:    1419334
BTB BRANCH_INDIRECT_CALL	ACCESS:     475210  HIT:     188709  MISS:     286501
BTB BRANCH_RETURN	ACCESS:    3204589  HIT:     973757  MISS:    2230832
BTB BRANCH_OTHER ACCESS:          0  HIT:          0  MISS:          0

L2C TOTAL     ACCESS:   12723944  HIT:   11309719  MISS:    1414225  HIT %:    88.8853  MISS %:    11.1147   MPKI: 7.07112
L2C LOAD      ACCESS:    9202193  HIT:    8256393  MISS:     945800  HIT %:     89.722  MISS %:     10.278   MPKI: 4.729
L2C DATA LOAD MPKI: 1.21494
L2C INSTRUCTION LOAD MPKI: 3.51405
L2C RFO       ACCESS:     805851  HIT:     645860  MISS:     159991  HIT %:    80.1463  MISS %:    19.8537   MPKI: 0.799955
L2C PREFETCH  ACCESS:    1197115  HIT:     930432  MISS:     266683  HIT %:    77.7229  MISS %:    22.2771   MPKI: 1.33341
AGUS PREFETCH L1 MISS: 0
L2C DATA PREFETCH MPKI: 1.33341
L2C INSTRUCTION PREFETCH MPKI: 0
L2C WRITEBACK ACCESS:    1479583  HIT:    1446239  MISS:      33344  HIT %:    97.7464  MISS %:    2.25361   MPKI: 0.16672
L2C LOAD TRANSLATION ACCESS:       8501  HIT:       2239  MISS:       6262  HIT %:    26.3381  MISS %:    73.6619   MPKI: 0.03131
L2C TRANSLATION FROM L1D PREFETCHER ACCESS:      30701  HIT:      28556  MISS:       2145  HIT %:    93.0133  MISS %:    6.98674   MPKI: 0.010725
L2C PREFETCH  REQUESTED:          0  ISSUED:          0  USEFUL:      14774  USELESS:     254333
L2C USEFUL LOAD PREFETCHES:      14774 PREFETCH ISSUED TO LOWER LEVEL:     266683  ACCURACY: 5.53991
L2C TIMELY PREFETCHES:      14774 LATE PREFETCHES: 0 DROPPED PREFETCHES: 0
L2C PREFETCHES SAME FILL-ORIGIN LEVEL: 0 DIFFERENT FILL-ORIGIN LEVEL: 0
L2C AVERAGE MISS LATENCY: 42.1083 cycles
L2C RQ	ACCESS:   10047352	FORWARD:          0	MERGED:          0	TO_CACHE:   10047246
L2C WQ	ACCESS:    1479583	FORWARD:        106	MERGED:          0	TO_CACHE:    1479583
L2C PQ	ACCESS:    1197115	FORWARD:          0	MERGED:          0	TO_CACHE:    1197115

L2C Instructions Evicting Data 318421
L2C Translations Evicting Data 5367
L2C Data Evicting Data 364280
L2C Instructions Evicting Instructions 381381
L2C Translations Evicting Instructions 2945
L2C Data Evicting Instructions 300155
L2C Instructions Evicting Translations 3009
L2C Translations Evicting Translations 95
L2C Data Evicting Translations 5228
L2C Dense regions hint from L2: 0
PSCL5 TOTAL     ACCESS:      24829  HIT:      24829  MISS:          0  HIT %:        100  MISS %:          0   MPKI: 0
PSCL5 LOAD TRANSLATION ACCESS:       7579  HIT:       7579  MISS:          0  HIT %:        100  MISS %:          0   MPKI: 0
PSCL5 TRANSLATION FROM L1D PREFETCHER ACCESS:      17250  HIT:      17250  MISS:          0  HIT %:        100  MISS %:          0   MPKI: 0
PSCL5 PREFETCH  REQUESTED:          0  ISSUED:          0  USEFUL:          0  USELESS:          0
PSCL5 USEFUL LOAD PREFETCHES:          0 PREFETCH ISSUED TO LOWER LEVEL:          0  ACCURACY: -nan
PSCL5 TIMELY PREFETCHES:          0 LATE PREFETCHES: 0 DROPPED PREFETCHES: 0
PSCL5 PREFETCHES SAME FILL-ORIGIN LEVEL: 0 DIFFERENT FILL-ORIGIN LEVEL: 0

PSCL4 TOTAL     ACCESS:      18766  HIT:      18725  MISS:         41  HIT %:    99.7815  MISS %:    0.21848   MPKI: 0.000205
PSCL4 LOAD TRANSLATION ACCESS:       7082  HIT:       7041  MISS:         41  HIT %:    99.4211  MISS %:   0.578933   MPKI: 0.000205
PSCL4 TRANSLATION FROM L1D PREFETCHER ACCESS:      11684  HIT:      11684  MISS:          0  HIT %:        100  MISS %:          0   MPKI: 0
PSCL4 PREFETCH  REQUESTED:          0  ISSUED:          0  USEFUL:          0  USELESS:          0
PSCL4 USEFUL LOAD PREFETCHES:          0 PREFETCH ISSUED TO LOWER LEVEL:          0  ACCURACY: -nan
PSCL4 TIMELY PREFETCHES:          0 LATE PREFETCHES: 0 DROPPED PREFETCHES: 0
PSCL4 PREFETCHES SAME FILL-ORIGIN LEVEL: 0 DIFFERENT FILL-ORIGIN LEVEL: 0

PSCL3 TOTAL     ACCESS:      24099  HIT:      24058  MISS:         41  HIT %:    99.8299  MISS %:   0.170132   MPKI: 0.000205
PSCL3 LOAD TRANSLATION ACCESS:       7444  HIT:       7403  MISS:         41  HIT %:    99.4492  MISS %:   0.550779   MPKI: 0.000205
PSCL3 TRANSLATION FROM L1D PREFETCHER ACCESS:      16655  HIT:      16655  MISS:          0  HIT %:        100  MISS %:          0   MPKI: 0
PSCL3 PREFETCH  REQUESTED:          0  ISSUED:          0  USEFUL:          0  USELESS:          0
PSCL3 USEFUL LOAD PREFETCHES:          0 PREFETCH ISSUED TO LOWER LEVEL:          0  ACCURACY: -nan
PSCL3 TIMELY PREFETCHES:          0 LATE PREFETCHES: 0 DROPPED PREFETCHES: 0
PSCL3 PREFETCHES SAME FILL-ORIGIN LEVEL: 0 DIFFERENT FILL-ORIGIN LEVEL: 0

PSCL2 TOTAL     ACCESS:      12330  HIT:      11472  MISS:        858  HIT %:    93.0414  MISS %:    6.95864   MPKI: 0.00429
PSCL2 LOAD TRANSLATION ACCESS:       7591  HIT:       6733  MISS:        858  HIT %:    88.6971  MISS %:    11.3029   MPKI: 0.00429
PSCL2 TRANSLATION FROM L1D PREFETCHER ACCESS:       4739  HIT:       4739  MISS:          0  HIT %:        100  MISS %:          0   MPKI: 0
PSCL2 PREFETCH  REQUESTED:          0  ISSUED:          0  USEFUL:          0  USELESS:          0
PSCL2 USEFUL LOAD PREFETCHES:          0 PREFETCH ISSUED TO LOWER LEVEL:          0  ACCURACY: -nan
PSCL2 TIMELY PREFETCHES:          0 LATE PREFETCHES: 0 DROPPED PREFETCHES: 0
PSCL2 PREFETCHES SAME FILL-ORIGIN LEVEL: 0 DIFFERENT FILL-ORIGIN LEVEL: 0

LLC TOTAL     ACCESS:    1611461  HIT:    1504284  MISS:     107177  HIT %:    93.3491  MISS %:    6.65092   MPKI: 0.535885
LLC LOAD      ACCESS:     945800  HIT:     926008  MISS:      19792  HIT %:    97.9074  MISS %:    2.09262   MPKI: 0.09896
LLC RFO       ACCESS:     159986  HIT:     106367  MISS:      53619  HIT %:    66.4852  MISS %:    33.5148   MPKI: 0.268095
LLC PREFETCH  ACCESS:     266683  HIT:     234234  MISS:      32449  HIT %:    87.8324  MISS %:    12.1676   MPKI: 0.162245
AGUS PREFETCH L1 MISS: 0
LLC WRITEBACK ACCESS:     230585  HIT:     229790  MISS:        795  HIT %:    99.6552  MISS %:   0.344775   MPKI: 0.003975
LLC LOAD TRANSLATION ACCESS:       6262  HIT:       5767  MISS:        495  HIT %:    92.0952  MISS %:    7.90482   MPKI: 0.002475
LLC TRANSLATION FROM L1D PREFETCHER ACCESS:       2145  HIT:       2118  MISS:         27  HIT %:    98.7413  MISS %:    1.25874   MPKI: 0.000135
LLC PREFETCH  REQUESTED:          0  ISSUED:          0  USEFUL:       2168  USELESS:      31697
LLC USEFUL LOAD PREFETCHES:       2168 PREFETCH ISSUED TO LOWER LEVEL:      32449  ACCURACY: 6.68125
LLC TIMELY PREFETCHES:       2168 LATE PREFETCHES: 0 DROPPED PREFETCHES: 0
LLC PREFETCHES SAME FILL-ORIGIN LEVEL: 0 DIFFERENT FILL-ORIGIN LEVEL: 0
LLC AVERAGE MISS LATENCY: 168.798 cycles
LLC RQ	ACCESS:    1114198	FORWARD:          0	MERGED:          0	TO_CACHE:    1114193
LLC WQ	ACCESS:     230585	FORWARD:          5	MERGED:          0	TO_CACHE:     230585
LLC PQ	ACCESS:     266683	FORWARD:          0	MERGED:          0	TO_CACHE:     266683

LLC Dense regions hint to LLC: 0

RAW hits: 1230453
Loads Generated: 41733040
Loads sent to L1D: 40502586
Stores Generated: 20857481
Stores sent to L1D: 20857481
Major fault: 0 Minor fault: 2472
Allocated PAGES: 2472
ucb ended
-----------------------------------------------------------------------------------------------------------------------------------------------------------------------------------------------------
Offsets elements: -63 -62 -61 -60 -59 -58 -57 -56 -55 -54 -53 -52 -51 -50 -49 -48 -47 -46 -45 -44 -43 -42 -41 -40 -39 -38 -37 -36 -35 -34 -33 -32 -31 -30 -29 -28 -27 -26 -25 -24 -23 -22 -21 -20 -19 -18 -17 -16 -15 -14 -13 -12 -11 -10 -9 -8 -7 -6 -5 -4 -3 -2 -1 1 2 3 4 5 6 7 8 9 10 11 12 13 14 15 16 17 18 19 20 21 22 23 24 25 26 27 28 29 30 31 32 33 34 35 36 37 38 39 40 41 42 43 44 45 46 47 48 49 50 51 52 53 54 55 56 57 58 59 60 61 62 63 
Potential of Offsets elements: 43.3655 46.3655 141.366 63.3655 33.3655 35.3655 88.3655 183.366 514.366 28.3655 45.3655 28.3655 28.3655 47.3655 190.366 230.366 118.366 37.3655 28.3655 28.3655 28.3655 130.366 173.366 256.366 229.366 49.3655 34.3655 38.3655 124.366 58.3655 28.3655 108.366 115.366 46.3655 114.366 85.3655 41.3655 48.3655 145.366 28.3655 32.3655 35.3655 92.3655 38.3655 182.366 243.366 335.366 425.366 339.188 1241.37 263.366 327.366 263.366 184.366 237.366 136.366 700.366 749.366 549.366 512.366 489.366 751.366 685.366 643.366 564.366 2300.11 378.366 1339.37 613.366 581.366 203.366 445.366 489.366 116.366 401.366 222.366 94.3655 260.366 233.366 92.3655 146.366 48.3655 48.3655 72.3655 70.3655 31.3655 36.3655 64.3655 42.3655 69.3655 113.366 298.366 287.366 275.366 41.3655 36.3655 64.3655 111.366 33.3655 28.3655 145.366 46.3655 68.3655 96.3655 70.3655 42.3655 31.3655 53.3655 110.366 182.366 34.3655 48.3655 28.3655 126.366 35.3655 133.366 110.366 125.366 51.3655 28.3655 28.3655 28.3655 83.3655 33.3655 127.366 28.3655 
rewards of Offsets elements: 15 18 113 35 5 7 60 155 486 0 17 0 0 19 162 202 90 9 0 0 0 102 145 228 201 21 6 10 96 30 0 80 87 18 86 57 13 20 117 0 4 7 64 10 154 215 307 397 331 1213 235 299 235 156 209 108 672 721 521 484 461 723 657 615 536 2300 350 1311 585 553 175 417 461 88 373 194 66 232 205 64 118 20 20 44 42 3 8 36 14 41 85 270 259 247 13 8 36 83 5 0 117 18 40 68 42 14 3 25 82 154 6 20 0 98 7 105 82 97 23 0 0 0 55 5 99 0 Printing Sanity2
offset_index value126
offset list size126
reward size126
potential size126
-----------------------------------------------------------------------------------------------------------------------------------------------------------------------------------------------------

DRAM Statistics
 CHANNEL 0
 RQ ROW_BUFFER_HIT:      42958  ROW_BUFFER_MISS:      63411
 DBUS_CONGESTED:        197
 WQ ROW_BUFFER_HIT:       5473  ROW_BUFFER_MISS:      53002  FULL:          0

 AVG_CONGESTED_CYCLE: 5
 All warmup complete: 2
Channel 0 Bank busy for read cycles: 0
Channel 0 Bank busy for write cycles: 0
Channel 0
Rank 0
0banks busy for read cycles: 519624575
0banks busy for write cycles: 12697
1banks busy for read cycles: 2866429
1banks busy for write cycles: 1631240
2banks busy for read cycles: 453529
2banks busy for write cycles: 348429
3banks busy for read cycles: 240085
3banks busy for write cycles: 204200
4banks busy for read cycles: 181352
4banks busy for write cycles: 153978
5banks busy for read cycles: 160354
5banks busy for write cycles: 141301
6banks busy for read cycles: 154483
6banks busy for write cycles: 140894
7banks busy for read cycles: 173866
7banks busy for write cycles: 169950
8banks busy for read cycles: 442193
8banks busy for write cycles: 426960

CPU 0 Branch Prediction Accuracy: 99.773% MPKI: 0.39801 Average ROB Occupancy at Mispredict: 35.9893
Branch types
NOT_BRANCH: 164926668 82.4633%
BRANCH_DIRECT_JUMP: 1790889 0.895444%
BRANCH_INDIRECT: 9233189 4.61659%
BRANCH_CONDITIONAL: 17640059 8.82003%
BRANCH_DIRECT_CALL: 2729399 1.3647%
BRANCH_INDIRECT_CALL: 475210 0.237605%
BRANCH_RETURN: 3204589 1.60229%
BRANCH_OTHER: 0 0%

DRAM PAGES: 1048576
Allocated PAGES: 2472
