
*** ChampSim Multicore Out-of-Order Simulator ***

Warmup Instructions: 50000000
Simulation Instructions: 200000000
Number of CPUs: 1
LLC sets: 2048
LLC ways: 16
Off-chip DRAM Size: 4096 MB Channels: 1 Width: 64-bit Data Rate: 6400 MT/s
CPU 0 runs traces/spec2k17/server_026.champsimtrace.xz
.xz
BTB has LRU replacement policy
ITLB has LRU replacement policy
DTLB has LRU replacement policy
STLB has LRU replacement policy
L1I has LRU replacement policy
L1D has LRU replacement policy
Initialize SRRIP state for L2C
Initialize DRRIP state for LLC
Offsets elements: -63 -62 -61 -60 -59 -58 -57 -56 -55 -54 -53 -52 -51 -50 -49 -48 -47 -46 -45 -44 -43 -42 -41 -40 -39 -38 -37 -36 -35 -34 -33 -32 -31 -30 -29 -28 -27 -26 -25 -24 -23 -22 -21 -20 -19 -18 -17 -16 -15 -14 -13 -12 -11 -10 -9 -8 -7 -6 -5 -4 -3 -2 -1 1 2 3 4 5 6 7 8 9 10 11 12 13 14 15 16 17 18 19 20 21 22 23 24 25 26 27 28 29 30 31 32 33 34 35 36 37 38 39 40 41 42 43 44 45 46 47 48 49 50 51 52 53 54 55 56 57 58 59 60 61 62 63 
Potential of Offsets elements: 
rewards of Offsets elements: 1 0 152 30 0 1 0 136 297 30 60 5 37 9 0 0 12 21 50 15 4 1 151 12 0 10 104 51 201 285 151 18 1 14 67 35 1 8 69 199 33 183 216 124 2 253 9 195 104 73 101 176 522 117 412 157 369 132 428 1723 461 566 1560 919 704 363 497 398 273 154 286 163 218 135 294 64 442 156 147 57 105 6 177 0 29 59 2 61 0 15 8 167 29 45 0 116 149 69 6 1 19 0 5 38 0 97 34 27 7 1 10 4 49 128 81 91 7 0 0 14 78 12 0 1 52 36 
Printing Sanity1
Heartbeat CPU 0 instructions: 10000003 cycles: 2845488 heartbeat IPC: 3.51434 cumulative IPC: 3.51434 (Simulation time: 0 hr 0 min 41 sec) 
Heartbeat CPU 0 instructions: 20000000 cycles: 5686093 heartbeat IPC: 3.52038 cumulative IPC: 3.51735 (Simulation time: 0 hr 1 min 21 sec) 
Heartbeat CPU 0 instructions: 30000002 cycles: 8525117 heartbeat IPC: 3.52234 cumulative IPC: 3.51901 (Simulation time: 0 hr 2 min 0 sec) 
Heartbeat CPU 0 instructions: 40000001 cycles: 11365629 heartbeat IPC: 3.52049 cumulative IPC: 3.51938 (Simulation time: 0 hr 2 min 39 sec) 
Heartbeat CPU 0 instructions: 50000000 cycles: 14204042 heartbeat IPC: 3.5231 cumulative IPC: 3.52012 (Simulation time: 0 hr 3 min 17 sec) 

Warmup complete CPU 0 instructions: 50000004 cycles: 14204043 (Simulation time: 0 hr 3 min 17 sec) 

Heartbeat CPU 0 instructions: 60000001 cycles: 46769897 heartbeat IPC: 0.30707 cumulative IPC: 0.30707 (Simulation time: 0 hr 4 min 1 sec) 
*** Reached end of trace for Core: 0 Repeating trace: traces/spec2k17/server_026.champsimtrace.xz
Heartbeat CPU 0 instructions: 70000000 cycles: 79173684 heartbeat IPC: 0.308606 cumulative IPC: 0.307836 (Simulation time: 0 hr 4 min 43 sec) 
Heartbeat CPU 0 instructions: 80000000 cycles: 111534166 heartbeat IPC: 0.309019 cumulative IPC: 0.308229 (Simulation time: 0 hr 5 min 31 sec) 
Heartbeat CPU 0 instructions: 90000003 cycles: 143934789 heartbeat IPC: 0.308636 cumulative IPC: 0.308331 (Simulation time: 0 hr 6 min 16 sec) 
Heartbeat CPU 0 instructions: 100000000 cycles: 176397830 heartbeat IPC: 0.308043 cumulative IPC: 0.308273 (Simulation time: 0 hr 6 min 58 sec) 
Heartbeat CPU 0 instructions: 110000000 cycles: 208740533 heartbeat IPC: 0.309189 cumulative IPC: 0.308425 (Simulation time: 0 hr 7 min 43 sec) 
Heartbeat CPU 0 instructions: 120000002 cycles: 241235687 heartbeat IPC: 0.307738 cumulative IPC: 0.308327 (Simulation time: 0 hr 8 min 26 sec) 
*** Reached end of trace for Core: 0 Repeating trace: traces/spec2k17/server_026.champsimtrace.xz
Heartbeat CPU 0 instructions: 130000002 cycles: 273566036 heartbeat IPC: 0.309307 cumulative IPC: 0.308449 (Simulation time: 0 hr 9 min 9 sec) 
Heartbeat CPU 0 instructions: 140000002 cycles: 305919303 heartbeat IPC: 0.309088 cumulative IPC: 0.30852 (Simulation time: 0 hr 9 min 52 sec) 
Heartbeat CPU 0 instructions: 150000000 cycles: 338303723 heartbeat IPC: 0.30879 cumulative IPC: 0.308547 (Simulation time: 0 hr 10 min 35 sec) 
Heartbeat CPU 0 instructions: 160000001 cycles: 370674724 heartbeat IPC: 0.308919 cumulative IPC: 0.308581 (Simulation time: 0 hr 11 min 18 sec) 
Heartbeat CPU 0 instructions: 170000000 cycles: 403107565 heartbeat IPC: 0.308329 cumulative IPC: 0.30856 (Simulation time: 0 hr 12 min 1 sec) 
Heartbeat CPU 0 instructions: 180000003 cycles: 435488110 heartbeat IPC: 0.308828 cumulative IPC: 0.30858 (Simulation time: 0 hr 12 min 46 sec) 
*** Reached end of trace for Core: 0 Repeating trace: traces/spec2k17/server_026.champsimtrace.xz
Heartbeat CPU 0 instructions: 190000000 cycles: 467832359 heartbeat IPC: 0.309174 cumulative IPC: 0.308623 (Simulation time: 0 hr 13 min 28 sec) 
Heartbeat CPU 0 instructions: 200000003 cycles: 500152334 heartbeat IPC: 0.309406 cumulative IPC: 0.308675 (Simulation time: 0 hr 14 min 12 sec) 
Heartbeat CPU 0 instructions: 210000000 cycles: 532523429 heartbeat IPC: 0.308917 cumulative IPC: 0.30869 (Simulation time: 0 hr 14 min 55 sec) 
Heartbeat CPU 0 instructions: 220000000 cycles: 564893779 heartbeat IPC: 0.308925 cumulative IPC: 0.308704 (Simulation time: 0 hr 15 min 38 sec) 
Heartbeat CPU 0 instructions: 230000000 cycles: 597321322 heartbeat IPC: 0.30838 cumulative IPC: 0.308686 (Simulation time: 0 hr 16 min 23 sec) 
Heartbeat CPU 0 instructions: 240000000 cycles: 629640670 heartbeat IPC: 0.309412 cumulative IPC: 0.308724 (Simulation time: 0 hr 17 min 31 sec) 
*** Reached end of trace for Core: 0 Repeating trace: traces/spec2k17/server_026.champsimtrace.xz
Heartbeat CPU 0 instructions: 250000003 cycles: 662027276 heartbeat IPC: 0.30877 cumulative IPC: 0.308726 (Simulation time: 0 hr 18 min 38 sec) 
Finished CPU 0 instructions: 200000003 cycles: 647823234 cumulative IPC: 0.308726 (Simulation time: 0 hr 18 min 38 sec) 

ChampSim completed all CPUs

Region of Interest Statistics

CPU 0 cumulative IPC: 0.308726 instructions: 200000003 cycles: 647823234
ITLB TOTAL     ACCESS:   34756039  HIT:   32744827  MISS:    2011212  HIT %:    94.2133  MISS %:    5.78665   MPKI: 10.0561
ITLB LOAD TRANSLATION ACCESS:   34756039  HIT:   32744827  MISS:    2011212  HIT %:    94.2133  MISS %:    5.78665   MPKI: 10.0561
ITLB PREFETCH  REQUESTED:          0  ISSUED:          0  USEFUL:          0  USELESS:          0
ITLB USEFUL LOAD PREFETCHES:          0 PREFETCH ISSUED TO LOWER LEVEL:          0  ACCURACY: -nan
ITLB TIMELY PREFETCHES:          0 LATE PREFETCHES: 0 DROPPED PREFETCHES: 0
ITLB PREFETCHES SAME FILL-ORIGIN LEVEL: 0 DIFFERENT FILL-ORIGIN LEVEL: 0
ITLB AVERAGE MISS LATENCY: 9.03856 cycles
ITLB RQ	ACCESS:   40939790	FORWARD:          0	MERGED:    5702774	TO_CACHE:   35237016

DTLB TOTAL     ACCESS:   46233333  HIT:   44396908  MISS:    1836425  HIT %:    96.0279  MISS %:    3.97208   MPKI: 9.18212
DTLB LOAD TRANSLATION ACCESS:   46233333  HIT:   44396908  MISS:    1836425  HIT %:    96.0279  MISS %:    3.97208   MPKI: 9.18212
DTLB PREFETCH  REQUESTED:          0  ISSUED:          0  USEFUL:          0  USELESS:          0
DTLB USEFUL LOAD PREFETCHES:          0 PREFETCH ISSUED TO LOWER LEVEL:          0  ACCURACY: -nan
DTLB TIMELY PREFETCHES:          0 LATE PREFETCHES: 0 DROPPED PREFETCHES: 0
DTLB PREFETCHES SAME FILL-ORIGIN LEVEL: 0 DIFFERENT FILL-ORIGIN LEVEL: 0
DTLB AVERAGE MISS LATENCY: 9.19939 cycles
DTLB RQ	ACCESS:   60867455	FORWARD:          0	MERGED:   14567480	TO_CACHE:   46299975

STLB TOTAL     ACCESS:   12068848  HIT:   12060081  MISS:       8767  HIT %:    99.9274  MISS %:  0.0726416   MPKI: 0.043835
STLB LOAD TRANSLATION ACCESS:    3847637  HIT:    3839387  MISS:       8250  HIT %:    99.7856  MISS %:   0.214417   MPKI: 0.04125
STLB TRANSLATION FROM L1D PREFETCHER ACCESS:    8221211  HIT:    8220694  MISS:        517  HIT %:    99.9937  MISS %: 0.00628861   MPKI: 0.002585
STLB PREFETCH  REQUESTED:          0  ISSUED:          0  USEFUL:        365  USELESS:        150
STLB USEFUL LOAD PREFETCHES:        365 PREFETCH ISSUED TO LOWER LEVEL:          0  ACCURACY: inf
STLB TIMELY PREFETCHES:        365 LATE PREFETCHES: 0 DROPPED PREFETCHES: 166815
STLB PREFETCHES SAME FILL-ORIGIN LEVEL: 0 DIFFERENT FILL-ORIGIN LEVEL: 0
STLB AVERAGE MISS LATENCY: 49.4212 cycles
STLB RQ	ACCESS:   22072570	FORWARD:          0	MERGED:    9833384	TO_CACHE:   12239186

STLB Hit, L1D data hit: 0
STLB Hit, L2C data hit: 0
STLB Hit, LLC data hit: 0
STLB Hit, LLC data miss: 0
STLB STLB hints to L2: 0
L1D TOTAL     ACCESS:   76754221  HIT:   71039561  MISS:    5714660  HIT %:    92.5546  MISS %:     7.4454   MPKI: 28.5733
L1D LOAD      ACCESS:   34143857  HIT:   31130310  MISS:    3013547  HIT %:     91.174  MISS %:    8.82603   MPKI: 15.0677
L1D RFO       ACCESS:   24981679  HIT:   23953988  MISS:    1027691  HIT %:    95.8862  MISS %:    4.11378   MPKI: 5.13845
L1D PREFETCH  ACCESS:   17628685  HIT:   15955263  MISS:    1673422  HIT %:    90.5074  MISS %:    9.49261   MPKI: 8.36711
AGUS PREFETCH L1 MISS: 0
L1D PREFETCH  REQUESTED:   58768942  ISSUED:   58768533  USEFUL:     379806  USELESS:    1293608
L1D USEFUL LOAD PREFETCHES:     379806 PREFETCH ISSUED TO LOWER LEVEL:    1679558  ACCURACY: 22.6134
L1D TIMELY PREFETCHES:     379806 LATE PREFETCHES: 5870 DROPPED PREFETCHES: 270080
L1D PREFETCHES SAME FILL-ORIGIN LEVEL: 1679558 DIFFERENT FILL-ORIGIN LEVEL: 0
L1D AVERAGE MISS LATENCY: 367025 cycles
L1D RQ	ACCESS:   47410925	FORWARD:          0	MERGED:   12844202	TO_CACHE:   34274009
L1D WQ	ACCESS:   26764780	FORWARD:     306532	MERGED:     171334	TO_CACHE:   26593446
L1D PQ	ACCESS:   40543599	FORWARD:          0	MERGED:   22304847	TO_CACHE:   18224934

L1D UNIQUE REGIONS ACCESSED: 0
L1D REGIONS CONFLICTS: 0
L1D Cross Page Prefetch Requests: 2114635
L1D Same Page Prefetch Requests: 47638556
L1D ROI Sum of L1D PQ occupancy: 240870472
L1D PREFETCHES PUSHED FROM L2C: 0
L1I TOTAL     ACCESS:   39435592  HIT:   28907850  MISS:   10527742  HIT %:     73.304  MISS %:     26.696   MPKI: 52.6387
L1I LOAD      ACCESS:   39435592  HIT:   28907850  MISS:   10527742  HIT %:     73.304  MISS %:     26.696   MPKI: 52.6387
L1I PREFETCH  REQUESTED:          0  ISSUED:          0  USEFUL:          0  USELESS:          0
L1I USEFUL LOAD PREFETCHES:          0 PREFETCH ISSUED TO LOWER LEVEL:          0  ACCURACY: -nan
L1I TIMELY PREFETCHES:          0 LATE PREFETCHES: 0 DROPPED PREFETCHES: 0
L1I PREFETCHES SAME FILL-ORIGIN LEVEL: 0 DIFFERENT FILL-ORIGIN LEVEL: 0
L1I AVERAGE MISS LATENCY: 17.4253 cycles
L1I RQ	ACCESS:   57893472	FORWARD:          0	MERGED:   16953682	TO_CACHE:   40939790

BTB TOTAL     ACCESS:   29988880  HIT:   17348500  MISS:   12640380  HIT %:    57.8498  MISS %:    42.1502   MPKI: 63.2019
BTB BRANCH_DIRECT_JUMP	ACCESS:    2009046  HIT:    1127352  MISS:     881694
BTB BRANCH_INDIRECT	ACCESS:   11800647  HIT:    6994353  MISS:    4806294
BTB BRANCH_CONDITIONAL	ACCESS:    7683211  HIT:    6358422  MISS:    1324789
BTB BRANCH_DIRECT_CALL	ACCESS:    3580654  HIT:    1498237  MISS:    2082417
BTB BRANCH_INDIRECT_CALL	ACCESS:     667350  HIT:     263513  MISS:     403837
BTB BRANCH_RETURN	ACCESS:    4247972  HIT:    1106623  MISS:    3141349
BTB BRANCH_OTHER ACCESS:          0  HIT:          0  MISS:          0

L2C TOTAL     ACCESS:   18605879  HIT:   16468765  MISS:    2137114  HIT %:    88.5138  MISS %:    11.4862   MPKI: 10.6856
L2C LOAD      ACCESS:   13535331  HIT:   11957626  MISS:    1577705  HIT %:    88.3438  MISS %:    11.6562   MPKI: 7.88852
L2C DATA LOAD MPKI: 2.06083
L2C INSTRUCTION LOAD MPKI: 5.82769
L2C RFO       ACCESS:    1027423  HIT:     806658  MISS:     220765  HIT %:    78.5127  MISS %:    21.4873   MPKI: 1.10382
L2C PREFETCH  ACCESS:    1679558  HIT:    1402281  MISS:     277277  HIT %:    83.4911  MISS %:    16.5089   MPKI: 1.38638
AGUS PREFETCH L1 MISS: 0
L2C DATA PREFETCH MPKI: 1.38638
L2C INSTRUCTION PREFETCH MPKI: 0
L2C WRITEBACK ACCESS:    2123835  HIT:    2073445  MISS:      50390  HIT %:    97.6274  MISS %:    2.37259   MPKI: 0.25195
L2C LOAD TRANSLATION ACCESS:       8659  HIT:       2618  MISS:       6041  HIT %:    30.2344  MISS %:    69.7656   MPKI: 0.030205
L2C TRANSLATION FROM L1D PREFETCHER ACCESS:     231073  HIT:     226137  MISS:       4936  HIT %:    97.8639  MISS %:    2.13612   MPKI: 0.02468
L2C PREFETCH  REQUESTED:          0  ISSUED:          0  USEFUL:      15317  USELESS:     266920
L2C USEFUL LOAD PREFETCHES:      15317 PREFETCH ISSUED TO LOWER LEVEL:     277277  ACCURACY: 5.52408
L2C TIMELY PREFETCHES:      15317 LATE PREFETCHES: 0 DROPPED PREFETCHES: 0
L2C PREFETCHES SAME FILL-ORIGIN LEVEL: 0 DIFFERENT FILL-ORIGIN LEVEL: 0
L2C AVERAGE MISS LATENCY: 34.8937 cycles
L2C RQ	ACCESS:   14802575	FORWARD:          0	MERGED:          0	TO_CACHE:   14802486
L2C WQ	ACCESS:    2123835	FORWARD:         89	MERGED:          0	TO_CACHE:    2123835
L2C PQ	ACCESS:    1679558	FORWARD:          0	MERGED:          0	TO_CACHE:    1679558

L2C Instructions Evicting Data 477658
L2C Translations Evicting Data 6998
L2C Data Evicting Data 453334
L2C Instructions Evicting Instructions 684187
L2C Translations Evicting Instructions 3693
L2C Data Evicting Instructions 450136
L2C Instructions Evicting Translations 3694
L2C Translations Evicting Translations 286
L2C Data Evicting Translations 6738
L2C Dense regions hint from L2: 0
PSCL5 TOTAL     ACCESS:     175582  HIT:     175582  MISS:          0  HIT %:        100  MISS %:          0   MPKI: 0
PSCL5 LOAD TRANSLATION ACCESS:       8250  HIT:       8250  MISS:          0  HIT %:        100  MISS %:          0   MPKI: 0
PSCL5 TRANSLATION FROM L1D PREFETCHER ACCESS:     167332  HIT:     167332  MISS:          0  HIT %:        100  MISS %:          0   MPKI: 0
PSCL5 PREFETCH  REQUESTED:          0  ISSUED:          0  USEFUL:          0  USELESS:          0
PSCL5 USEFUL LOAD PREFETCHES:          0 PREFETCH ISSUED TO LOWER LEVEL:          0  ACCURACY: -nan
PSCL5 TIMELY PREFETCHES:          0 LATE PREFETCHES: 0 DROPPED PREFETCHES: 0
PSCL5 PREFETCHES SAME FILL-ORIGIN LEVEL: 0 DIFFERENT FILL-ORIGIN LEVEL: 0

PSCL4 TOTAL     ACCESS:     175154  HIT:     175152  MISS:          2  HIT %:    99.9989  MISS %: 0.00114185   MPKI: 1e-05
PSCL4 LOAD TRANSLATION ACCESS:       8136  HIT:       8134  MISS:          2  HIT %:    99.9754  MISS %:  0.0245821   MPKI: 1e-05
PSCL4 TRANSLATION FROM L1D PREFETCHER ACCESS:     167018  HIT:     167018  MISS:          0  HIT %:        100  MISS %:          0   MPKI: 0
PSCL4 PREFETCH  REQUESTED:          0  ISSUED:          0  USEFUL:          0  USELESS:          0
PSCL4 USEFUL LOAD PREFETCHES:          0 PREFETCH ISSUED TO LOWER LEVEL:          0  ACCURACY: -nan
PSCL4 TIMELY PREFETCHES:          0 LATE PREFETCHES: 0 DROPPED PREFETCHES: 0
PSCL4 PREFETCHES SAME FILL-ORIGIN LEVEL: 0 DIFFERENT FILL-ORIGIN LEVEL: 0

PSCL3 TOTAL     ACCESS:     175476  HIT:     175474  MISS:          2  HIT %:    99.9989  MISS %: 0.00113976   MPKI: 1e-05
PSCL3 LOAD TRANSLATION ACCESS:       8144  HIT:       8142  MISS:          2  HIT %:    99.9754  MISS %:   0.024558   MPKI: 1e-05
PSCL3 TRANSLATION FROM L1D PREFETCHER ACCESS:     167332  HIT:     167332  MISS:          0  HIT %:        100  MISS %:          0   MPKI: 0
PSCL3 PREFETCH  REQUESTED:          0  ISSUED:          0  USEFUL:          0  USELESS:          0
PSCL3 USEFUL LOAD PREFETCHES:          0 PREFETCH ISSUED TO LOWER LEVEL:          0  ACCURACY: -nan
PSCL3 TIMELY PREFETCHES:          0 LATE PREFETCHES: 0 DROPPED PREFETCHES: 0
PSCL3 PREFETCHES SAME FILL-ORIGIN LEVEL: 0 DIFFERENT FILL-ORIGIN LEVEL: 0

PSCL2 TOTAL     ACCESS:     111844  HIT:     111435  MISS:        409  HIT %:    99.6343  MISS %:   0.365688   MPKI: 0.002045
PSCL2 LOAD TRANSLATION ACCESS:       8253  HIT:       7844  MISS:        409  HIT %:    95.0442  MISS %:    4.95577   MPKI: 0.002045
PSCL2 TRANSLATION FROM L1D PREFETCHER ACCESS:     103591  HIT:     103591  MISS:          0  HIT %:        100  MISS %:          0   MPKI: 0
PSCL2 PREFETCH  REQUESTED:          0  ISSUED:          0  USEFUL:          0  USELESS:          0
PSCL2 USEFUL LOAD PREFETCHES:          0 PREFETCH ISSUED TO LOWER LEVEL:          0  ACCURACY: -nan
PSCL2 TIMELY PREFETCHES:          0 LATE PREFETCHES: 0 DROPPED PREFETCHES: 0
PSCL2 PREFETCHES SAME FILL-ORIGIN LEVEL: 0 DIFFERENT FILL-ORIGIN LEVEL: 0

LLC TOTAL     ACCESS:    2404626  HIT:    2332199  MISS:      72427  HIT %:     96.988  MISS %:    3.01199   MPKI: 0.362135
LLC LOAD      ACCESS:    1577705  HIT:    1549728  MISS:      27977  HIT %:    98.2267  MISS %:    1.77327   MPKI: 0.139885
LLC RFO       ACCESS:     220764  HIT:     184264  MISS:      36500  HIT %:    83.4665  MISS %:    16.5335   MPKI: 0.1825
LLC PREFETCH  ACCESS:     277277  HIT:     270187  MISS:       7090  HIT %:     97.443  MISS %:    2.55701   MPKI: 0.03545
AGUS PREFETCH L1 MISS: 0
LLC WRITEBACK ACCESS:     317903  HIT:     317380  MISS:        523  HIT %:    99.8355  MISS %:   0.164516   MPKI: 0.002615
LLC LOAD TRANSLATION ACCESS:       6041  HIT:       5710  MISS:        331  HIT %:    94.5208  MISS %:    5.47923   MPKI: 0.001655
LLC TRANSLATION FROM L1D PREFETCHER ACCESS:       4936  HIT:       4930  MISS:          6  HIT %:    99.8784  MISS %:   0.121556   MPKI: 3e-05
LLC PREFETCH  REQUESTED:          0  ISSUED:          0  USEFUL:        683  USELESS:       6835
LLC USEFUL LOAD PREFETCHES:        683 PREFETCH ISSUED TO LOWER LEVEL:       7090  ACCURACY: 9.63329
LLC TIMELY PREFETCHES:        683 LATE PREFETCHES: 0 DROPPED PREFETCHES: 0
LLC PREFETCHES SAME FILL-ORIGIN LEVEL: 0 DIFFERENT FILL-ORIGIN LEVEL: 0
LLC AVERAGE MISS LATENCY: 165.089 cycles
LLC RQ	ACCESS:    1809447	FORWARD:          0	MERGED:          0	TO_CACHE:    1809446
LLC WQ	ACCESS:     317903	FORWARD:          1	MERGED:          0	TO_CACHE:     317903
LLC PQ	ACCESS:     277277	FORWARD:          0	MERGED:          0	TO_CACHE:     277277

LLC Dense regions hint to LLC: 0

RAW hits: 1419702
Loads Generated: 48830627
Loads sent to L1D: 47410925
Stores Generated: 26764757
Stores sent to L1D: 26764780
Major fault: 0 Minor fault: 2264
Allocated PAGES: 2264
ucb ended
-----------------------------------------------------------------------------------------------------------------------------------------------------------------------------------------------------
Offsets elements: -63 -62 -61 -60 -59 -58 -57 -56 -55 -54 -53 -52 -51 -50 -49 -48 -47 -46 -45 -44 -43 -42 -41 -40 -39 -38 -37 -36 -35 -34 -33 -32 -31 -30 -29 -28 -27 -26 -25 -24 -23 -22 -21 -20 -19 -18 -17 -16 -15 -14 -13 -12 -11 -10 -9 -8 -7 -6 -5 -4 -3 -2 -1 1 2 3 4 5 6 7 8 9 10 11 12 13 14 15 16 17 18 19 20 21 22 23 24 25 26 27 28 29 30 31 32 33 34 35 36 37 38 39 40 41 42 43 44 45 46 47 48 49 50 51 52 53 54 55 56 57 58 59 60 61 62 63 
Potential of Offsets elements: 29.534 28.534 180.534 58.534 28.534 29.534 28.534 164.534 325.534 58.534 88.534 33.534 65.534 37.534 28.534 28.534 40.534 49.534 78.534 43.534 32.534 29.534 179.534 40.534 28.534 38.534 132.534 79.534 229.534 313.534 179.534 46.534 29.534 42.534 95.534 63.534 29.534 36.534 97.534 227.534 61.534 211.534 244.534 152.534 30.534 281.534 37.534 223.534 132.534 101.534 129.534 204.534 550.534 145.534 440.534 185.534 397.534 160.534 456.534 1501.95 489.534 594.534 1560.1 947.534 732.534 391.534 525.534 426.534 301.534 182.534 314.534 191.534 246.534 163.534 322.534 92.534 470.534 184.534 175.534 85.534 133.534 34.534 205.534 28.534 57.534 87.534 30.534 89.534 28.534 43.534 36.534 195.534 57.534 73.534 28.534 144.534 177.534 97.534 34.534 29.534 47.534 28.534 33.534 66.534 28.534 125.534 62.534 55.534 35.534 29.534 38.534 32.534 77.534 156.534 109.534 119.534 35.534 28.534 28.534 42.534 106.534 40.534 28.534 29.534 80.534 64.534 
rewards of Offsets elements: 1 0 152 30 0 1 0 136 297 30 60 5 37 9 0 0 12 21 50 15 4 1 151 12 0 10 104 51 201 285 151 18 1 14 67 35 1 8 69 199 33 183 216 124 2 253 9 195 104 73 101 176 522 117 412 157 369 132 428 1501 461 566 1560 919 704 363 497 398 273 154 286 163 218 135 294 64 442 156 147 57 105 6 177 0 29 59 2 61 0 15 8 167 29 45 0 116 149 69 6 1 19 0 5 38 0 97 34 27 7 1 10 4 49 128 81 91 7 0 0 14 78 12 0 1 52 36 Printing Sanity2
offset_index value126
offset list size126
reward size126
potential size126
-----------------------------------------------------------------------------------------------------------------------------------------------------------------------------------------------------

DRAM Statistics
 CHANNEL 0
 RQ ROW_BUFFER_HIT:      24853  ROW_BUFFER_MISS:      47032
 DBUS_CONGESTED:         44
 WQ ROW_BUFFER_HIT:       4111  ROW_BUFFER_MISS:      33778  FULL:          0

 AVG_CONGESTED_CYCLE: 5
 All warmup complete: 2
Channel 0 Bank busy for read cycles: 0
Channel 0 Bank busy for write cycles: 0
Channel 0
Rank 0
0banks busy for read cycles: 642175221
0banks busy for write cycles: 9333
1banks busy for read cycles: 1849276
1banks busy for write cycles: 1099413
2banks busy for read cycles: 537103
2banks busy for write cycles: 287205
3banks busy for read cycles: 269288
3banks busy for write cycles: 146571
4banks busy for read cycles: 205808
4banks busy for write cycles: 100571
5banks busy for read cycles: 149636
5banks busy for write cycles: 88949
6banks busy for read cycles: 177053
6banks busy for write cycles: 84141
7banks busy for read cycles: 110470
7banks busy for write cycles: 88616
8banks busy for read cycles: 150195
8banks busy for write cycles: 294386

CPU 0 Branch Prediction Accuracy: 99.8683% MPKI: 0.231785 Average ROB Occupancy at Mispredict: 32.1626
Branch types
NOT_BRANCH: 164806523 82.4033%
BRANCH_DIRECT_JUMP: 2009046 1.00452%
BRANCH_INDIRECT: 11800647 5.90032%
BRANCH_CONDITIONAL: 12887721 6.44386%
BRANCH_DIRECT_CALL: 3580654 1.79033%
BRANCH_INDIRECT_CALL: 667350 0.333675%
BRANCH_RETURN: 4247972 2.12399%
BRANCH_OTHER: 0 0%

DRAM PAGES: 1048576
Allocated PAGES: 2264
