
*** ChampSim Multicore Out-of-Order Simulator ***

Warmup Instructions: 50000000
Simulation Instructions: 200000000
Number of CPUs: 1
LLC sets: 2048
LLC ways: 16
Off-chip DRAM Size: 4096 MB Channels: 1 Width: 64-bit Data Rate: 6400 MT/s
CPU 0 runs traces/spec2k17/srv_18.champsimtrace.xz
.xz
BTB has LRU replacement policy
ITLB has LRU replacement policy
DTLB has LRU replacement policy
STLB has LRU replacement policy
L1I has LRU replacement policy
L1D has LRU replacement policy
Initialize SRRIP state for L2C
Initialize DRRIP state for LLC
Offsets elements: -63 -62 -61 -60 -59 -58 -57 -56 -55 -54 -53 -52 -51 -50 -49 -48 -47 -46 -45 -44 -43 -42 -41 -40 -39 -38 -37 -36 -35 -34 -33 -32 -31 -30 -29 -28 -27 -26 -25 -24 -23 -22 -21 -20 -19 -18 -17 -16 -15 -14 -13 -12 -11 -10 -9 -8 -7 -6 -5 -4 -3 -2 -1 1 2 3 4 5 6 7 8 9 10 11 12 13 14 15 16 17 18 19 20 21 22 23 24 25 26 27 28 29 30 31 32 33 34 35 36 37 38 39 40 41 42 43 44 45 46 47 48 49 50 51 52 53 54 55 56 57 58 59 60 61 62 63 
Potential of Offsets elements: 
rewards of Offsets elements: 0 0 40 0 60 41 1 3 37 193 9 0 0 13 142 82 2 61 13 497 0 0 16 0 17 70 0 3 54 51 142 31 2 283 1 14 78 234 280 22 2 91 0 110 13 371 78 285 41 8 554 48 134 254 141 290 518 303 432 530 476 575 3169 682 2071 590 475 130 197 1197 154 155 277 99 133 544 249 57 44 167 70 80 84 37 58 168 10 178 15 286 8 87 66 307 193 9 5 16 6 84 4 2 0 108 12 4 26 34 131 10 21 0 477 1 0 0 11 0 16 18 2 3 8 0 0 0 
Printing Sanity1
Heartbeat CPU 0 instructions: 10000003 cycles: 2870155 heartbeat IPC: 3.48413 cumulative IPC: 3.48413 (Simulation time: 0 hr 0 min 27 sec) 
Heartbeat CPU 0 instructions: 20000001 cycles: 5737561 heartbeat IPC: 3.48747 cumulative IPC: 3.4858 (Simulation time: 0 hr 0 min 55 sec) 
Heartbeat CPU 0 instructions: 30000000 cycles: 8604730 heartbeat IPC: 3.48776 cumulative IPC: 3.48645 (Simulation time: 0 hr 1 min 28 sec) 
*** Reached end of trace for Core: 0 Repeating trace: traces/spec2k17/srv_18.champsimtrace.xz
Heartbeat CPU 0 instructions: 40000003 cycles: 11468682 heartbeat IPC: 3.49168 cumulative IPC: 3.48776 (Simulation time: 0 hr 2 min 2 sec) 
Heartbeat CPU 0 instructions: 50000002 cycles: 14332737 heartbeat IPC: 3.49155 cumulative IPC: 3.48852 (Simulation time: 0 hr 2 min 35 sec) 

Warmup complete CPU 0 instructions: 50000002 cycles: 14332737 (Simulation time: 0 hr 2 min 35 sec) 

Heartbeat CPU 0 instructions: 60000001 cycles: 47514342 heartbeat IPC: 0.301372 cumulative IPC: 0.301372 (Simulation time: 0 hr 3 min 38 sec) 
*** Reached end of trace for Core: 0 Repeating trace: traces/spec2k17/srv_18.champsimtrace.xz
Heartbeat CPU 0 instructions: 70000000 cycles: 80040373 heartbeat IPC: 0.307446 cumulative IPC: 0.304379 (Simulation time: 0 hr 4 min 26 sec) 
Heartbeat CPU 0 instructions: 80000001 cycles: 112843373 heartbeat IPC: 0.30485 cumulative IPC: 0.304536 (Simulation time: 0 hr 5 min 26 sec) 
Heartbeat CPU 0 instructions: 90000001 cycles: 146049418 heartbeat IPC: 0.30115 cumulative IPC: 0.303682 (Simulation time: 0 hr 6 min 29 sec) 
*** Reached end of trace for Core: 0 Repeating trace: traces/spec2k17/srv_18.champsimtrace.xz
Heartbeat CPU 0 instructions: 100000000 cycles: 178554948 heartbeat IPC: 0.30764 cumulative IPC: 0.304466 (Simulation time: 0 hr 7 min 33 sec) 
Heartbeat CPU 0 instructions: 110000000 cycles: 211194995 heartbeat IPC: 0.306372 cumulative IPC: 0.304782 (Simulation time: 0 hr 8 min 36 sec) 
Heartbeat CPU 0 instructions: 120000000 cycles: 244306785 heartbeat IPC: 0.302007 cumulative IPC: 0.304382 (Simulation time: 0 hr 9 min 39 sec) 
*** Reached end of trace for Core: 0 Repeating trace: traces/spec2k17/srv_18.champsimtrace.xz
Heartbeat CPU 0 instructions: 130000001 cycles: 276787054 heartbeat IPC: 0.307879 cumulative IPC: 0.304815 (Simulation time: 0 hr 10 min 42 sec) 
Heartbeat CPU 0 instructions: 140000003 cycles: 309474239 heartbeat IPC: 0.30593 cumulative IPC: 0.304938 (Simulation time: 0 hr 11 min 36 sec) 
Heartbeat CPU 0 instructions: 150000001 cycles: 342501723 heartbeat IPC: 0.302778 cumulative IPC: 0.304721 (Simulation time: 0 hr 12 min 16 sec) 
*** Reached end of trace for Core: 0 Repeating trace: traces/spec2k17/srv_18.champsimtrace.xz
Heartbeat CPU 0 instructions: 160000000 cycles: 375100326 heartbeat IPC: 0.306762 cumulative IPC: 0.304905 (Simulation time: 0 hr 13 min 13 sec) 
Heartbeat CPU 0 instructions: 170000000 cycles: 407675419 heartbeat IPC: 0.306983 cumulative IPC: 0.305077 (Simulation time: 0 hr 13 min 57 sec) 
Heartbeat CPU 0 instructions: 180000000 cycles: 440656534 heartbeat IPC: 0.303204 cumulative IPC: 0.304933 (Simulation time: 0 hr 14 min 37 sec) 
*** Reached end of trace for Core: 0 Repeating trace: traces/spec2k17/srv_18.champsimtrace.xz
Heartbeat CPU 0 instructions: 190000002 cycles: 473269940 heartbeat IPC: 0.306622 cumulative IPC: 0.305053 (Simulation time: 0 hr 15 min 17 sec) 
Heartbeat CPU 0 instructions: 200000001 cycles: 505794270 heartbeat IPC: 0.307462 cumulative IPC: 0.305212 (Simulation time: 0 hr 15 min 57 sec) 
Heartbeat CPU 0 instructions: 210000002 cycles: 538865372 heartbeat IPC: 0.302379 cumulative IPC: 0.305033 (Simulation time: 0 hr 16 min 37 sec) 
*** Reached end of trace for Core: 0 Repeating trace: traces/spec2k17/srv_18.champsimtrace.xz
Heartbeat CPU 0 instructions: 220000000 cycles: 571490064 heartbeat IPC: 0.306516 cumulative IPC: 0.30512 (Simulation time: 0 hr 17 min 27 sec) 
Heartbeat CPU 0 instructions: 230000003 cycles: 603921326 heartbeat IPC: 0.308345 cumulative IPC: 0.305298 (Simulation time: 0 hr 18 min 7 sec) 
Heartbeat CPU 0 instructions: 240000001 cycles: 636906372 heartbeat IPC: 0.303168 cumulative IPC: 0.305185 (Simulation time: 0 hr 18 min 55 sec) 
*** Reached end of trace for Core: 0 Repeating trace: traces/spec2k17/srv_18.champsimtrace.xz
Heartbeat CPU 0 instructions: 250000003 cycles: 669616613 heartbeat IPC: 0.305715 cumulative IPC: 0.305211 (Simulation time: 0 hr 19 min 59 sec) 
Finished CPU 0 instructions: 200000001 cycles: 655283876 cumulative IPC: 0.305211 (Simulation time: 0 hr 19 min 59 sec) 

ChampSim completed all CPUs

Region of Interest Statistics

CPU 0 cumulative IPC: 0.305211 instructions: 200000001 cycles: 655283876
ITLB TOTAL     ACCESS:   35696541  HIT:   33509560  MISS:    2186981  HIT %:    93.8734  MISS %:    6.12659   MPKI: 10.9349
ITLB LOAD TRANSLATION ACCESS:   35696541  HIT:   33509560  MISS:    2186981  HIT %:    93.8734  MISS %:    6.12659   MPKI: 10.9349
ITLB PREFETCH  REQUESTED:          0  ISSUED:          0  USEFUL:          0  USELESS:          0
ITLB USEFUL LOAD PREFETCHES:          0 PREFETCH ISSUED TO LOWER LEVEL:          0  ACCURACY: -nan
ITLB TIMELY PREFETCHES:          0 LATE PREFETCHES: 0 DROPPED PREFETCHES: 0
ITLB PREFETCHES SAME FILL-ORIGIN LEVEL: 0 DIFFERENT FILL-ORIGIN LEVEL: 0
ITLB AVERAGE MISS LATENCY: 9.20641 cycles
ITLB RQ	ACCESS:   41869825	FORWARD:          0	MERGED:    5655140	TO_CACHE:   36214685

DTLB TOTAL     ACCESS:   45093153  HIT:   43021698  MISS:    2071455  HIT %:    95.4063  MISS %:    4.59372   MPKI: 10.3573
DTLB LOAD TRANSLATION ACCESS:   45093153  HIT:   43021698  MISS:    2071455  HIT %:    95.4063  MISS %:    4.59372   MPKI: 10.3573
DTLB PREFETCH  REQUESTED:          0  ISSUED:          0  USEFUL:          0  USELESS:          0
DTLB USEFUL LOAD PREFETCHES:          0 PREFETCH ISSUED TO LOWER LEVEL:          0  ACCURACY: -nan
DTLB TIMELY PREFETCHES:          0 LATE PREFETCHES: 0 DROPPED PREFETCHES: 0
DTLB PREFETCHES SAME FILL-ORIGIN LEVEL: 0 DIFFERENT FILL-ORIGIN LEVEL: 0
DTLB AVERAGE MISS LATENCY: 10.4627 cycles
DTLB RQ	ACCESS:   59691727	FORWARD:          0	MERGED:   14535359	TO_CACHE:   45156368

STLB TOTAL     ACCESS:   12808233  HIT:   12749414  MISS:      58819  HIT %:    99.5408  MISS %:   0.459228   MPKI: 0.294095
STLB LOAD TRANSLATION ACCESS:    4258436  HIT:    4199891  MISS:      58545  HIT %:    98.6252  MISS %:     1.3748   MPKI: 0.292725
STLB TRANSLATION FROM L1D PREFETCHER ACCESS:    8549797  HIT:    8549523  MISS:        274  HIT %:    99.9968  MISS %: 0.00320475   MPKI: 0.00137
STLB PREFETCH  REQUESTED:          0  ISSUED:          0  USEFUL:        158  USELESS:        115
STLB USEFUL LOAD PREFETCHES:        158 PREFETCH ISSUED TO LOWER LEVEL:          0  ACCURACY: inf
STLB TIMELY PREFETCHES:        158 LATE PREFETCHES: 662 DROPPED PREFETCHES: 18824
STLB PREFETCHES SAME FILL-ORIGIN LEVEL: 0 DIFFERENT FILL-ORIGIN LEVEL: 0
STLB AVERAGE MISS LATENCY: 1.59031e+06 cycles
STLB RQ	ACCESS:   14647312	FORWARD:          0	MERGED:    1813016	TO_CACHE:   12834296

STLB Hit, L1D data hit: 0
STLB Hit, L2C data hit: 0
STLB Hit, LLC data hit: 0
STLB Hit, LLC data miss: 0
STLB STLB hints to L2: 0
L1D TOTAL     ACCESS:   67304500  HIT:   60425580  MISS:    6878920  HIT %:    89.7794  MISS %:    10.2206   MPKI: 34.3946
L1D LOAD      ACCESS:   33556750  HIT:   29546742  MISS:    4010008  HIT %:    88.0501  MISS %:    11.9499   MPKI: 20.05
L1D RFO       ACCESS:   24331968  HIT:   23177450  MISS:    1154518  HIT %:    95.2551  MISS %:    4.74486   MPKI: 5.77259
L1D PREFETCH  ACCESS:    9415782  HIT:    7701388  MISS:    1714394  HIT %:    81.7923  MISS %:    18.2077   MPKI: 8.57197
AGUS PREFETCH L1 MISS: 0
L1D PREFETCH  REQUESTED:   52956124  ISSUED:   52956124  USEFUL:     680773  USELESS:    1033667
L1D USEFUL LOAD PREFETCHES:     680773 PREFETCH ISSUED TO LOWER LEVEL:    2494471  ACCURACY: 27.2913
L1D TIMELY PREFETCHES:     680773 LATE PREFETCHES: 779822 DROPPED PREFETCHES: 25088
L1D PREFETCHES SAME FILL-ORIGIN LEVEL: 2494471 DIFFERENT FILL-ORIGIN LEVEL: 0
L1D AVERAGE MISS LATENCY: 3.88148e+07 cycles
L1D RQ	ACCESS:   46051204	FORWARD:          0	MERGED:   12061534	TO_CACHE:   33681648
L1D WQ	ACCESS:   26154247	FORWARD:     311998	MERGED:     144168	TO_CACHE:   26010079
L1D PQ	ACCESS:   42567248	FORWARD:          0	MERGED:   32174396	TO_CACHE:   10388876

L1D UNIQUE REGIONS ACCESSED: 0
L1D REGIONS CONFLICTS: 0
L1D Cross Page Prefetch Requests: 1390868
L1D Same Page Prefetch Requests: 51362763
L1D ROI Sum of L1D PQ occupancy: 131422500
L1D PREFETCHES PUSHED FROM L2C: 0
L1I TOTAL     ACCESS:   40220105  HIT:   29073169  MISS:   11146936  HIT %:    72.2852  MISS %:    27.7148   MPKI: 55.7347
L1I LOAD      ACCESS:   40220105  HIT:   29073169  MISS:   11146936  HIT %:    72.2852  MISS %:    27.7148   MPKI: 55.7347
L1I PREFETCH  REQUESTED:          0  ISSUED:          0  USEFUL:          0  USELESS:          0
L1I USEFUL LOAD PREFETCHES:          0 PREFETCH ISSUED TO LOWER LEVEL:          0  ACCURACY: -nan
L1I TIMELY PREFETCHES:          0 LATE PREFETCHES: 0 DROPPED PREFETCHES: 0
L1I PREFETCHES SAME FILL-ORIGIN LEVEL: 0 DIFFERENT FILL-ORIGIN LEVEL: 0
L1I AVERAGE MISS LATENCY: 16.4956 cycles
L1I RQ	ACCESS:   58314389	FORWARD:          0	MERGED:   16444564	TO_CACHE:   41869825

BTB TOTAL     ACCESS:   30554976  HIT:   18202901  MISS:   12352075  HIT %:    59.5743  MISS %:    40.4257   MPKI: 61.7604
BTB BRANCH_DIRECT_JUMP	ACCESS:    2019656  HIT:    1215832  MISS:     803824
BTB BRANCH_INDIRECT	ACCESS:   11895775  HIT:    7117895  MISS:    4777880
BTB BRANCH_CONDITIONAL	ACCESS:    7695510  HIT:    6433858  MISS:    1261652
BTB BRANCH_DIRECT_CALL	ACCESS:    3770965  HIT:    1770003  MISS:    2000962
BTB BRANCH_INDIRECT_CALL	ACCESS:     701087  HIT:     340568  MISS:     360519
BTB BRANCH_RETURN	ACCESS:    4471983  HIT:    1324745  MISS:    3147238
BTB BRANCH_OTHER ACCESS:          0  HIT:          0  MISS:          0

L2C TOTAL     ACCESS:   20483765  HIT:   18785930  MISS:    1697835  HIT %:    91.7113  MISS %:    8.28869   MPKI: 8.48917
L2C LOAD      ACCESS:   14377122  HIT:   13178013  MISS:    1199109  HIT %:    91.6596  MISS %:     8.3404   MPKI: 5.99554
L2C DATA LOAD MPKI: 1.53958
L2C INSTRUCTION LOAD MPKI: 4.45596
L2C RFO       ACCESS:    1154262  HIT:    1046125  MISS:     108137  HIT %:    90.6315  MISS %:     9.3685   MPKI: 0.540685
L2C PREFETCH  ACCESS:    2491548  HIT:    2179131  MISS:     312417  HIT %:    87.4609  MISS %:    12.5391   MPKI: 1.56208
AGUS PREFETCH L1 MISS: 0
L2C DATA PREFETCH MPKI: 1.56208
L2C INSTRUCTION PREFETCH MPKI: 0
L2C WRITEBACK ACCESS:    2336314  HIT:    2307849  MISS:      28465  HIT %:    98.7816  MISS %:    1.21837   MPKI: 0.142325
L2C LOAD TRANSLATION ACCESS:      87559  HIT:      41512  MISS:      46047  HIT %:    47.4103  MISS %:    52.5897   MPKI: 0.230235
L2C TRANSLATION FROM L1D PREFETCHER ACCESS:      36960  HIT:      33300  MISS:       3660  HIT %:    90.0974  MISS %:     9.9026   MPKI: 0.0183
L2C PREFETCH  REQUESTED:          0  ISSUED:          0  USEFUL:       8656  USELESS:     307732
L2C USEFUL LOAD PREFETCHES:       8656 PREFETCH ISSUED TO LOWER LEVEL:     312417  ACCURACY: 2.77066
L2C TIMELY PREFETCHES:       8656 LATE PREFETCHES: 0 DROPPED PREFETCHES: 0
L2C PREFETCHES SAME FILL-ORIGIN LEVEL: 0 DIFFERENT FILL-ORIGIN LEVEL: 0
L2C AVERAGE MISS LATENCY: 37.7747 cycles
L2C RQ	ACCESS:   15655904	FORWARD:          0	MERGED:          0	TO_CACHE:   15655904
L2C WQ	ACCESS:    2336314	FORWARD:       2923	MERGED:          0	TO_CACHE:    2336314
L2C PQ	ACCESS:    2494471	FORWARD:          0	MERGED:          0	TO_CACHE:    2491548

L2C Instructions Evicting Data 349865
L2C Translations Evicting Data 32501
L2C Data Evicting Data 363905
L2C Instructions Evicting Instructions 527622
L2C Translations Evicting Instructions 14101
L2C Data Evicting Instructions 332016
L2C Instructions Evicting Translations 13706
L2C Translations Evicting Translations 3105
L2C Data Evicting Translations 32549
L2C Dense regions hint from L2: 0
PSCL5 TOTAL     ACCESS:      77643  HIT:      77643  MISS:          0  HIT %:        100  MISS %:          0   MPKI: 0
PSCL5 LOAD TRANSLATION ACCESS:      57883  HIT:      57883  MISS:          0  HIT %:        100  MISS %:          0   MPKI: 0
PSCL5 TRANSLATION FROM L1D PREFETCHER ACCESS:      19760  HIT:      19760  MISS:          0  HIT %:        100  MISS %:          0   MPKI: 0
PSCL5 PREFETCH  REQUESTED:          0  ISSUED:          0  USEFUL:          0  USELESS:          0
PSCL5 USEFUL LOAD PREFETCHES:          0 PREFETCH ISSUED TO LOWER LEVEL:          0  ACCURACY: -nan
PSCL5 TIMELY PREFETCHES:          0 LATE PREFETCHES: 0 DROPPED PREFETCHES: 0
PSCL5 PREFETCHES SAME FILL-ORIGIN LEVEL: 0 DIFFERENT FILL-ORIGIN LEVEL: 0

PSCL4 TOTAL     ACCESS:      61227  HIT:      60510  MISS:        717  HIT %:    98.8289  MISS %:    1.17105   MPKI: 0.003585
PSCL4 LOAD TRANSLATION ACCESS:      55589  HIT:      54872  MISS:        717  HIT %:    98.7102  MISS %:    1.28982   MPKI: 0.003585
PSCL4 TRANSLATION FROM L1D PREFETCHER ACCESS:       5638  HIT:       5638  MISS:          0  HIT %:        100  MISS %:          0   MPKI: 0
PSCL4 PREFETCH  REQUESTED:          0  ISSUED:          0  USEFUL:          0  USELESS:          0
PSCL4 USEFUL LOAD PREFETCHES:          0 PREFETCH ISSUED TO LOWER LEVEL:          0  ACCURACY: -nan
PSCL4 TIMELY PREFETCHES:          0 LATE PREFETCHES: 0 DROPPED PREFETCHES: 0
PSCL4 PREFETCHES SAME FILL-ORIGIN LEVEL: 0 DIFFERENT FILL-ORIGIN LEVEL: 0

PSCL3 TOTAL     ACCESS:      77478  HIT:      76761  MISS:        717  HIT %:    99.0746  MISS %:   0.925424   MPKI: 0.003585
PSCL3 LOAD TRANSLATION ACCESS:      57718  HIT:      57001  MISS:        717  HIT %:    98.7578  MISS %:    1.24225   MPKI: 0.003585
PSCL3 TRANSLATION FROM L1D PREFETCHER ACCESS:      19760  HIT:      19760  MISS:          0  HIT %:        100  MISS %:          0   MPKI: 0
PSCL3 PREFETCH  REQUESTED:          0  ISSUED:          0  USEFUL:          0  USELESS:          0
PSCL3 USEFUL LOAD PREFETCHES:          0 PREFETCH ISSUED TO LOWER LEVEL:          0  ACCURACY: -nan
PSCL3 TIMELY PREFETCHES:          0 LATE PREFETCHES: 0 DROPPED PREFETCHES: 0
PSCL3 PREFETCHES SAME FILL-ORIGIN LEVEL: 0 DIFFERENT FILL-ORIGIN LEVEL: 0

PSCL2 TOTAL     ACCESS:      60770  HIT:      32201  MISS:      28569  HIT %:    52.9883  MISS %:    47.0117   MPKI: 0.142845
PSCL2 LOAD TRANSLATION ACCESS:      58210  HIT:      29641  MISS:      28569  HIT %:    50.9208  MISS %:    49.0792   MPKI: 0.142845
PSCL2 TRANSLATION FROM L1D PREFETCHER ACCESS:       2560  HIT:       2560  MISS:          0  HIT %:        100  MISS %:          0   MPKI: 0
PSCL2 PREFETCH  REQUESTED:          0  ISSUED:          0  USEFUL:          0  USELESS:          0
PSCL2 USEFUL LOAD PREFETCHES:          0 PREFETCH ISSUED TO LOWER LEVEL:          0  ACCURACY: -nan
PSCL2 TIMELY PREFETCHES:          0 LATE PREFETCHES: 0 DROPPED PREFETCHES: 0
PSCL2 PREFETCHES SAME FILL-ORIGIN LEVEL: 0 DIFFERENT FILL-ORIGIN LEVEL: 0

LLC TOTAL     ACCESS:    1808822  HIT:    1705489  MISS:     103333  HIT %:    94.2873  MISS %:    5.71272   MPKI: 0.516665
LLC LOAD      ACCESS:    1199109  HIT:    1153822  MISS:      45287  HIT %:    96.2233  MISS %:    3.77672   MPKI: 0.226435
LLC RFO       ACCESS:     108137  HIT:      97007  MISS:      11130  HIT %:    89.7075  MISS %:    10.2925   MPKI: 0.05565
LLC PREFETCH  ACCESS:     312417  HIT:     269306  MISS:      43111  HIT %:    86.2008  MISS %:    13.7992   MPKI: 0.215555
AGUS PREFETCH L1 MISS: 0
LLC WRITEBACK ACCESS:     139452  HIT:     139256  MISS:        196  HIT %:    99.8594  MISS %:    0.14055   MPKI: 0.00098
LLC LOAD TRANSLATION ACCESS:      46047  HIT:      42486  MISS:       3561  HIT %:    92.2666  MISS %:     7.7334   MPKI: 0.017805
LLC TRANSLATION FROM L1D PREFETCHER ACCESS:       3660  HIT:       3612  MISS:         48  HIT %:    98.6885  MISS %:    1.31148   MPKI: 0.00024
LLC PREFETCH  REQUESTED:          0  ISSUED:          0  USEFUL:        983  USELESS:      42925
LLC USEFUL LOAD PREFETCHES:        983 PREFETCH ISSUED TO LOWER LEVEL:      43111  ACCURACY: 2.28016
LLC TIMELY PREFETCHES:        983 LATE PREFETCHES: 0 DROPPED PREFETCHES: 0
LLC PREFETCHES SAME FILL-ORIGIN LEVEL: 0 DIFFERENT FILL-ORIGIN LEVEL: 0
LLC AVERAGE MISS LATENCY: 135.998 cycles
LLC RQ	ACCESS:    1356953	FORWARD:          0	MERGED:          0	TO_CACHE:    1356953
LLC WQ	ACCESS:     139452	FORWARD:          0	MERGED:          0	TO_CACHE:     139452
LLC PQ	ACCESS:     312417	FORWARD:          0	MERGED:          0	TO_CACHE:     312417

LLC Dense regions hint to LLC: 0

RAW hits: 1406794
Loads Generated: 47457998
Loads sent to L1D: 46051204
Stores Generated: 26154243
Stores sent to L1D: 26154247
Major fault: 0 Minor fault: 4194
Allocated PAGES: 4194
ucb ended
-----------------------------------------------------------------------------------------------------------------------------------------------------------------------------------------------------
Offsets elements: -63 -62 -61 -60 -59 -58 -57 -56 -55 -54 -53 -52 -51 -50 -49 -48 -47 -46 -45 -44 -43 -42 -41 -40 -39 -38 -37 -36 -35 -34 -33 -32 -31 -30 -29 -28 -27 -26 -25 -24 -23 -22 -21 -20 -19 -18 -17 -16 -15 -14 -13 -12 -11 -10 -9 -8 -7 -6 -5 -4 -3 -2 -1 1 2 3 4 5 6 7 8 9 10 11 12 13 14 15 16 17 18 19 20 21 22 23 24 25 26 27 28 29 30 31 32 33 34 35 36 37 38 39 40 41 42 43 44 45 46 47 48 49 50 51 52 53 54 55 56 57 58 59 60 61 62 63 
Potential of Offsets elements: 28.5176 28.5176 68.5176 28.5176 88.5176 69.5176 29.5176 31.5176 65.5176 221.518 37.5176 28.5176 28.5176 41.5176 170.518 110.518 30.5176 89.5176 41.5176 525.518 28.5176 28.5176 44.5176 28.5176 45.5176 98.5176 28.5176 31.5176 82.5176 79.5176 170.518 59.5176 30.5176 311.518 29.5176 42.5176 106.518 262.518 308.518 50.5176 30.5176 119.518 28.5176 138.518 41.5176 399.518 106.518 313.518 69.5176 36.5176 582.518 76.5176 162.518 282.518 169.518 318.518 546.518 331.518 460.518 558.518 504.518 603.518 1318.96 710.518 2071.1 618.518 503.518 158.518 225.518 1225.52 182.518 183.518 305.518 127.518 161.518 572.518 277.518 85.5176 72.5176 195.518 98.5176 108.518 112.518 65.5176 86.5176 196.518 38.5176 206.518 43.5176 314.518 36.5176 115.518 94.5176 335.518 221.518 37.5176 33.5176 44.5176 34.5176 112.518 32.5176 30.5176 28.5176 136.518 40.5176 32.5176 54.5176 62.5176 159.518 38.5176 49.5176 28.5176 505.518 29.5176 28.5176 28.5176 39.5176 28.5176 44.5176 46.5176 30.5176 31.5176 36.5176 28.5176 28.5176 28.5176 
rewards of Offsets elements: 0 0 40 0 60 41 1 3 37 193 9 0 0 13 142 82 2 61 13 497 0 0 16 0 17 70 0 3 54 51 142 31 2 283 1 14 78 234 280 22 2 91 0 110 13 371 78 285 41 8 554 48 134 254 141 290 518 303 432 530 476 575 1314 682 2071 590 475 130 197 1197 154 155 277 99 133 544 249 57 44 167 70 80 84 37 58 168 10 178 15 286 8 87 66 307 193 9 5 16 6 84 4 2 0 108 12 4 26 34 131 10 21 0 477 1 0 0 11 0 16 18 2 3 8 0 0 0 Printing Sanity2
offset_index value126
offset list size126
reward size126
potential size126
-----------------------------------------------------------------------------------------------------------------------------------------------------------------------------------------------------

DRAM Statistics
 CHANNEL 0
 RQ ROW_BUFFER_HIT:      39445  ROW_BUFFER_MISS:      63604
 DBUS_CONGESTED:        174
 WQ ROW_BUFFER_HIT:       1965  ROW_BUFFER_MISS:      10144  FULL:          0

 AVG_CONGESTED_CYCLE: 5
 All warmup complete: 2
Channel 0 Bank busy for read cycles: 0
Channel 0 Bank busy for write cycles: 0
Channel 0
Rank 0
0banks busy for read cycles: 646026748
0banks busy for write cycles: 7477
1banks busy for read cycles: 5714206
1banks busy for write cycles: 1190780
2banks busy for read cycles: 1137577
2banks busy for write cycles: 245529
3banks busy for read cycles: 342848
3banks busy for write cycles: 78928
4banks busy for read cycles: 166063
4banks busy for write cycles: 34056
5banks busy for read cycles: 115151
5banks busy for write cycles: 18868
6banks busy for read cycles: 88722
6banks busy for write cycles: 7327
7banks busy for read cycles: 65359
7banks busy for write cycles: 4378
8banks busy for read cycles: 33344
8banks busy for write cycles: 6516

CPU 0 Branch Prediction Accuracy: 99.8229% MPKI: 0.32073 Average ROB Occupancy at Mispredict: 51.1622
Branch types
NOT_BRANCH: 163788288 81.8941%
BRANCH_DIRECT_JUMP: 2019656 1.00983%
BRANCH_INDIRECT: 11895775 5.94789%
BRANCH_CONDITIONAL: 13352291 6.67615%
BRANCH_DIRECT_CALL: 3770965 1.88548%
BRANCH_INDIRECT_CALL: 701087 0.350543%
BRANCH_RETURN: 4471983 2.23599%
BRANCH_OTHER: 0 0%

DRAM PAGES: 1048576
Allocated PAGES: 4194
