
*** ChampSim Multicore Out-of-Order Simulator ***

Warmup Instructions: 50000000
Simulation Instructions: 200000000
Number of CPUs: 1
LLC sets: 2048
LLC ways: 16
Off-chip DRAM Size: 4096 MB Channels: 1 Width: 64-bit Data Rate: 6400 MT/s
CPU 0 runs traces/spec2k17/srv_11.champsimtrace.xz
.xz
BTB has LRU replacement policy
ITLB has LRU replacement policy
DTLB has LRU replacement policy
STLB has LRU replacement policy
L1I has LRU replacement policy
L1D has LRU replacement policy
Initialize SRRIP state for L2C
Initialize DRRIP state for LLC
Offsets elements: -63 -62 -61 -60 -59 -58 -57 -56 -55 -54 -53 -52 -51 -50 -49 -48 -47 -46 -45 -44 -43 -42 -41 -40 -39 -38 -37 -36 -35 -34 -33 -32 -31 -30 -29 -28 -27 -26 -25 -24 -23 -22 -21 -20 -19 -18 -17 -16 -15 -14 -13 -12 -11 -10 -9 -8 -7 -6 -5 -4 -3 -2 -1 1 2 3 4 5 6 7 8 9 10 11 12 13 14 15 16 17 18 19 20 21 22 23 24 25 26 27 28 29 30 31 32 33 34 35 36 37 38 39 40 41 42 43 44 45 46 47 48 49 50 51 52 53 54 55 56 57 58 59 60 61 62 63 
Potential of Offsets elements: 
rewards of Offsets elements: 5 19 26 8 0 0 0 6 1 0 0 0 0 0 0 0 0 0 0 0 0 21 0 0 5 0 20 174 54 0 210 785 1132 602 10 314 321 71 289 246 12 387 788 67 34 460 259 33 16 73 47 9 116 98 303 198 159 326 871 1016 910 743 1189 8834 1778 619 808 231 399 433 351 212 567 155 588 63 17 16 45 114 649 676 2629 980 3759 1348 136 261 87 0 164 245 50 14 122 23 0 108 0 0 28 0 70 40 1051 49 1 369 0 36 4 184 0 0 3 20 0 0 0 0 0 33 4 0 20 5 
Printing Sanity1
Heartbeat CPU 0 instructions: 10000000 cycles: 3260459 heartbeat IPC: 3.06705 cumulative IPC: 3.06705 (Simulation time: 0 hr 0 min 40 sec) 
Heartbeat CPU 0 instructions: 20000002 cycles: 7515333 heartbeat IPC: 2.35025 cumulative IPC: 2.66123 (Simulation time: 0 hr 1 min 22 sec) 
Heartbeat CPU 0 instructions: 30000000 cycles: 10308526 heartbeat IPC: 3.58013 cumulative IPC: 2.91021 (Simulation time: 0 hr 1 min 50 sec) 
*** Reached end of trace for Core: 0 Repeating trace: traces/spec2k17/srv_11.champsimtrace.xz
Heartbeat CPU 0 instructions: 40000001 cycles: 13415012 heartbeat IPC: 3.21907 cumulative IPC: 2.98173 (Simulation time: 0 hr 2 min 30 sec) 
Heartbeat CPU 0 instructions: 50000000 cycles: 17809847 heartbeat IPC: 2.2754 cumulative IPC: 2.80744 (Simulation time: 0 hr 3 min 36 sec) 

Warmup complete CPU 0 instructions: 50000004 cycles: 17809848 (Simulation time: 0 hr 3 min 36 sec) 

Heartbeat CPU 0 instructions: 60000003 cycles: 42041625 heartbeat IPC: 0.412681 cumulative IPC: 0.412681 (Simulation time: 0 hr 4 min 38 sec) 
*** Reached end of trace for Core: 0 Repeating trace: traces/spec2k17/srv_11.champsimtrace.xz
Heartbeat CPU 0 instructions: 70000000 cycles: 66484899 heartbeat IPC: 0.40911 cumulative IPC: 0.410888 (Simulation time: 0 hr 5 min 41 sec) 
Heartbeat CPU 0 instructions: 80000002 cycles: 107817539 heartbeat IPC: 0.24194 cumulative IPC: 0.333305 (Simulation time: 0 hr 7 min 8 sec) 
Heartbeat CPU 0 instructions: 90000003 cycles: 133090144 heartbeat IPC: 0.395685 cumulative IPC: 0.34698 (Simulation time: 0 hr 7 min 59 sec) 
*** Reached end of trace for Core: 0 Repeating trace: traces/spec2k17/srv_11.champsimtrace.xz
Heartbeat CPU 0 instructions: 100000003 cycles: 157094554 heartbeat IPC: 0.41659 cumulative IPC: 0.358977 (Simulation time: 0 hr 8 min 49 sec) 
Heartbeat CPU 0 instructions: 110000000 cycles: 197405295 heartbeat IPC: 0.248073 cumulative IPC: 0.334084 (Simulation time: 0 hr 9 min 47 sec) 
Heartbeat CPU 0 instructions: 120000000 cycles: 223875987 heartbeat IPC: 0.377776 cumulative IPC: 0.339697 (Simulation time: 0 hr 10 min 30 sec) 
*** Reached end of trace for Core: 0 Repeating trace: traces/spec2k17/srv_11.champsimtrace.xz
Heartbeat CPU 0 instructions: 130000002 cycles: 247852853 heartbeat IPC: 0.417069 cumulative IPC: 0.347761 (Simulation time: 0 hr 11 min 23 sec) 
Heartbeat CPU 0 instructions: 140000002 cycles: 286899067 heartbeat IPC: 0.256107 cumulative IPC: 0.334462 (Simulation time: 0 hr 12 min 51 sec) 
Heartbeat CPU 0 instructions: 150000002 cycles: 314363929 heartbeat IPC: 0.364102 cumulative IPC: 0.337207 (Simulation time: 0 hr 13 min 47 sec) 
*** Reached end of trace for Core: 0 Repeating trace: traces/spec2k17/srv_11.champsimtrace.xz
Heartbeat CPU 0 instructions: 160000003 cycles: 338505153 heartbeat IPC: 0.414229 cumulative IPC: 0.343005 (Simulation time: 0 hr 14 min 24 sec) 
Heartbeat CPU 0 instructions: 170000000 cycles: 376328601 heartbeat IPC: 0.264386 cumulative IPC: 0.334711 (Simulation time: 0 hr 15 min 20 sec) 
Heartbeat CPU 0 instructions: 180000001 cycles: 404996802 heartbeat IPC: 0.348819 cumulative IPC: 0.335755 (Simulation time: 0 hr 16 min 3 sec) 
*** Reached end of trace for Core: 0 Repeating trace: traces/spec2k17/srv_11.champsimtrace.xz
Heartbeat CPU 0 instructions: 190000003 cycles: 428948075 heartbeat IPC: 0.417514 cumulative IPC: 0.340518 (Simulation time: 0 hr 16 min 41 sec) 
Heartbeat CPU 0 instructions: 200000001 cycles: 465717308 heartbeat IPC: 0.271966 cumulative IPC: 0.334891 (Simulation time: 0 hr 17 min 33 sec) 
Heartbeat CPU 0 instructions: 210000001 cycles: 495560526 heartbeat IPC: 0.335084 cumulative IPC: 0.334903 (Simulation time: 0 hr 18 min 17 sec) 
*** Reached end of trace for Core: 0 Repeating trace: traces/spec2k17/srv_11.champsimtrace.xz
Heartbeat CPU 0 instructions: 220000000 cycles: 519584891 heartbeat IPC: 0.416244 cumulative IPC: 0.338797 (Simulation time: 0 hr 18 min 58 sec) 
Heartbeat CPU 0 instructions: 230000000 cycles: 555059444 heartbeat IPC: 0.281892 cumulative IPC: 0.33504 (Simulation time: 0 hr 20 min 19 sec) 
Heartbeat CPU 0 instructions: 240000002 cycles: 586011154 heartbeat IPC: 0.323084 cumulative IPC: 0.334389 (Simulation time: 0 hr 21 min 19 sec) 
*** Reached end of trace for Core: 0 Repeating trace: traces/spec2k17/srv_11.champsimtrace.xz
Heartbeat CPU 0 instructions: 250000002 cycles: 610006035 heartbeat IPC: 0.416756 cumulative IPC: 0.337726 (Simulation time: 0 hr 22 min 3 sec) 
Finished CPU 0 instructions: 200000002 cycles: 592196188 cumulative IPC: 0.337726 (Simulation time: 0 hr 22 min 3 sec) 

ChampSim completed all CPUs

Region of Interest Statistics

CPU 0 cumulative IPC: 0.337726 instructions: 200000002 cycles: 592196188
ITLB TOTAL     ACCESS:   37992333  HIT:   37452856  MISS:     539477  HIT %:      98.58  MISS %:    1.41996   MPKI: 2.69738
ITLB LOAD TRANSLATION ACCESS:   37992333  HIT:   37452856  MISS:     539477  HIT %:      98.58  MISS %:    1.41996   MPKI: 2.69738
ITLB PREFETCH  REQUESTED:          0  ISSUED:          0  USEFUL:          0  USELESS:          0
ITLB USEFUL LOAD PREFETCHES:          0 PREFETCH ISSUED TO LOWER LEVEL:          0  ACCURACY: -nan
ITLB TIMELY PREFETCHES:          0 LATE PREFETCHES: 0 DROPPED PREFETCHES: 0
ITLB PREFETCHES SAME FILL-ORIGIN LEVEL: 0 DIFFERENT FILL-ORIGIN LEVEL: 0
ITLB AVERAGE MISS LATENCY: 16.5766 cycles
ITLB RQ	ACCESS:   43895369	FORWARD:          0	MERGED:    5774366	TO_CACHE:   38121003

DTLB TOTAL     ACCESS:   44064451  HIT:   35078221  MISS:    8986230  HIT %:    79.6066  MISS %:    20.3934   MPKI: 44.9311
DTLB LOAD TRANSLATION ACCESS:   44064451  HIT:   35078221  MISS:    8986230  HIT %:    79.6066  MISS %:    20.3934   MPKI: 44.9311
DTLB PREFETCH  REQUESTED:          0  ISSUED:          0  USEFUL:          0  USELESS:          0
DTLB USEFUL LOAD PREFETCHES:          0 PREFETCH ISSUED TO LOWER LEVEL:          0  ACCURACY: -nan
DTLB TIMELY PREFETCHES:          0 LATE PREFETCHES: 0 DROPPED PREFETCHES: 0
DTLB PREFETCHES SAME FILL-ORIGIN LEVEL: 0 DIFFERENT FILL-ORIGIN LEVEL: 0
DTLB AVERAGE MISS LATENCY: 10.0123 cycles
DTLB RQ	ACCESS:   59095251	FORWARD:          0	MERGED:   14820605	TO_CACHE:   44274646

STLB TOTAL     ACCESS:   20054839  HIT:   19733528  MISS:     321311  HIT %:    98.3978  MISS %:    1.60216   MPKI: 1.60655
STLB LOAD TRANSLATION ACCESS:    9525707  HIT:    9217567  MISS:     308140  HIT %:    96.7652  MISS %:    3.23483   MPKI: 1.5407
STLB TRANSLATION FROM L1D PREFETCHER ACCESS:   10529132  HIT:   10515961  MISS:      13171  HIT %:    99.8749  MISS %:   0.125091   MPKI: 0.065855
STLB PREFETCH  REQUESTED:          0  ISSUED:          0  USEFUL:      11757  USELESS:       1414
STLB USEFUL LOAD PREFETCHES:      11757 PREFETCH ISSUED TO LOWER LEVEL:          0  ACCURACY: inf
STLB TIMELY PREFETCHES:      11757 LATE PREFETCHES: 73 DROPPED PREFETCHES: 1455846
STLB PREFETCHES SAME FILL-ORIGIN LEVEL: 0 DIFFERENT FILL-ORIGIN LEVEL: 0
STLB AVERAGE MISS LATENCY: 3645.88 cycles
STLB RQ	ACCESS:   35699870	FORWARD:          0	MERGED:   14040830	TO_CACHE:   21659040

STLB Hit, L1D data hit: 0
STLB Hit, L2C data hit: 0
STLB Hit, LLC data hit: 0
STLB Hit, LLC data miss: 0
STLB STLB hints to L2: 0
L1D TOTAL     ACCESS:   81036505  HIT:   58618500  MISS:   22418005  HIT %:    72.3359  MISS %:    27.6641   MPKI: 112.09
L1D LOAD      ACCESS:   41111777  HIT:   27911663  MISS:   13200114  HIT %:    67.8921  MISS %:    32.1079   MPKI: 66.0006
L1D RFO       ACCESS:   17238703  HIT:   16702150  MISS:     536553  HIT %:    96.8875  MISS %:    3.11249   MPKI: 2.68276
L1D PREFETCH  ACCESS:   22686025  HIT:   14004687  MISS:    8681338  HIT %:    61.7327  MISS %:    38.2673   MPKI: 43.4067
AGUS PREFETCH L1 MISS: 0
L1D PREFETCH  REQUESTED:   81793543  ISSUED:   81776504  USEFUL:     159890  USELESS:    8521373
L1D USEFUL LOAD PREFETCHES:     159890 PREFETCH ISSUED TO LOWER LEVEL:    8685833  ACCURACY: 1.84081
L1D TIMELY PREFETCHES:     159890 LATE PREFETCHES: 4494 DROPPED PREFETCHES: 3368066
L1D PREFETCHES SAME FILL-ORIGIN LEVEL: 8685833 DIFFERENT FILL-ORIGIN LEVEL: 0
L1D AVERAGE MISS LATENCY: 65660.1 cycles
L1D RQ	ACCESS:   54107621	FORWARD:          0	MERGED:   12688908	TO_CACHE:   41250359
L1D WQ	ACCESS:   18064452	FORWARD:     168456	MERGED:     219560	TO_CACHE:   17844892
L1D PQ	ACCESS:   55602341	FORWARD:          0	MERGED:   29428076	TO_CACHE:   26174163

L1D UNIQUE REGIONS ACCESSED: 0
L1D REGIONS CONFLICTS: 0
L1D Cross Page Prefetch Requests: 24248734
L1D Same Page Prefetch Requests: 46792774
L1D ROI Sum of L1D PQ occupancy: 430950964
L1D PREFETCHES PUSHED FROM L2C: 0
L1I TOTAL     ACCESS:   42777975  HIT:   39355833  MISS:    3422142  HIT %:    92.0002  MISS %:    7.99978   MPKI: 17.1107
L1I LOAD      ACCESS:   42777975  HIT:   39355833  MISS:    3422142  HIT %:    92.0002  MISS %:    7.99978   MPKI: 17.1107
L1I PREFETCH  REQUESTED:          0  ISSUED:          0  USEFUL:          0  USELESS:          0
L1I USEFUL LOAD PREFETCHES:          0 PREFETCH ISSUED TO LOWER LEVEL:          0  ACCURACY: -nan
L1I TIMELY PREFETCHES:          0 LATE PREFETCHES: 0 DROPPED PREFETCHES: 0
L1I PREFETCHES SAME FILL-ORIGIN LEVEL: 0 DIFFERENT FILL-ORIGIN LEVEL: 0
L1I AVERAGE MISS LATENCY: 30.4558 cycles
L1I RQ	ACCESS:   65990113	FORWARD:          0	MERGED:   22094744	TO_CACHE:   43895369

BTB TOTAL     ACCESS:   33562539  HIT:   29061289  MISS:    4501250  HIT %:    86.5885  MISS %:    13.4115   MPKI: 22.5062
BTB BRANCH_DIRECT_JUMP	ACCESS:    1685269  HIT:    1483558  MISS:     201711
BTB BRANCH_INDIRECT	ACCESS:   19828015  HIT:   17476346  MISS:    2351669
BTB BRANCH_CONDITIONAL	ACCESS:    4608066  HIT:    4287796  MISS:     320270
BTB BRANCH_DIRECT_CALL	ACCESS:    2993939  HIT:    2599188  MISS:     394751
BTB BRANCH_INDIRECT_CALL	ACCESS:     724221  HIT:     681906  MISS:      42315
BTB BRANCH_RETURN	ACCESS:    3723029  HIT:    2532495  MISS:    1190534
BTB BRANCH_OTHER ACCESS:          0  HIT:          0  MISS:          0

L2C TOTAL     ACCESS:   29464682  HIT:   25978052  MISS:    3486630  HIT %:    88.1667  MISS %:    11.8333   MPKI: 17.4331
L2C LOAD      ACCESS:   16617615  HIT:   14150628  MISS:    2466987  HIT %:    85.1544  MISS %:    14.8456   MPKI: 12.3349
L2C DATA LOAD MPKI: 3.61967
L2C INSTRUCTION LOAD MPKI: 8.71526
L2C RFO       ACCESS:     536533  HIT:     417152  MISS:     119381  HIT %:    77.7496  MISS %:    22.2504   MPKI: 0.596905
L2C PREFETCH  ACCESS:    8685833  HIT:    7991914  MISS:     693919  HIT %:    92.0109  MISS %:    7.98909   MPKI: 3.46959
AGUS PREFETCH L1 MISS: 0
L2C DATA PREFETCH MPKI: 3.46959
L2C INSTRUCTION PREFETCH MPKI: 0
L2C WRITEBACK ACCESS:    1096811  HIT:    1064008  MISS:      32803  HIT %:    97.0092  MISS %:    2.99076   MPKI: 0.164015
L2C LOAD TRANSLATION ACCESS:     390642  HIT:     229151  MISS:     161491  HIT %:    58.6601  MISS %:    41.3399   MPKI: 0.807455
L2C TRANSLATION FROM L1D PREFETCHER ACCESS:    2137248  HIT:    2125199  MISS:      12049  HIT %:    99.4362  MISS %:   0.563762   MPKI: 0.060245
L2C PREFETCH  REQUESTED:          0  ISSUED:          0  USEFUL:      42756  USELESS:     664040
L2C USEFUL LOAD PREFETCHES:      42756 PREFETCH ISSUED TO LOWER LEVEL:     693919  ACCURACY: 6.16153
L2C TIMELY PREFETCHES:      42756 LATE PREFETCHES: 0 DROPPED PREFETCHES: 0
L2C PREFETCHES SAME FILL-ORIGIN LEVEL: 0 DIFFERENT FILL-ORIGIN LEVEL: 0
L2C AVERAGE MISS LATENCY: 42.314 cycles
L2C RQ	ACCESS:   19682204	FORWARD:          0	MERGED:          0	TO_CACHE:   19682038
L2C WQ	ACCESS:    1096811	FORWARD:        166	MERGED:          0	TO_CACHE:    1096811
L2C PQ	ACCESS:    8685833	FORWARD:          0	MERGED:          0	TO_CACHE:    8685833

L2C Instructions Evicting Data 784100
L2C Translations Evicting Data 77801
L2C Data Evicting Data 695410
L2C Instructions Evicting Instructions 871392
L2C Translations Evicting Instructions 88033
L2C Data Evicting Instructions 765516
L2C Instructions Evicting Translations 87560
L2C Translations Evicting Translations 7706
L2C Data Evicting Translations 76309
L2C Dense regions hint from L2: 0
PSCL5 TOTAL     ACCESS:    1777157  HIT:    1777157  MISS:          0  HIT %:        100  MISS %:          0   MPKI: 0
PSCL5 LOAD TRANSLATION ACCESS:     308067  HIT:     308067  MISS:          0  HIT %:        100  MISS %:          0   MPKI: 0
PSCL5 TRANSLATION FROM L1D PREFETCHER ACCESS:    1469090  HIT:    1469090  MISS:          0  HIT %:        100  MISS %:          0   MPKI: 0
PSCL5 PREFETCH  REQUESTED:          0  ISSUED:          0  USEFUL:          0  USELESS:          0
PSCL5 USEFUL LOAD PREFETCHES:          0 PREFETCH ISSUED TO LOWER LEVEL:          0  ACCURACY: -nan
PSCL5 TIMELY PREFETCHES:          0 LATE PREFETCHES: 0 DROPPED PREFETCHES: 0
PSCL5 PREFETCHES SAME FILL-ORIGIN LEVEL: 0 DIFFERENT FILL-ORIGIN LEVEL: 0

PSCL4 TOTAL     ACCESS:    1701972  HIT:    1701138  MISS:        834  HIT %:     99.951  MISS %:   0.049002   MPKI: 0.00417
PSCL4 LOAD TRANSLATION ACCESS:     281979  HIT:     281145  MISS:        834  HIT %:    99.7042  MISS %:   0.295767   MPKI: 0.00417
PSCL4 TRANSLATION FROM L1D PREFETCHER ACCESS:    1419993  HIT:    1419993  MISS:          0  HIT %:        100  MISS %:          0   MPKI: 0
PSCL4 PREFETCH  REQUESTED:          0  ISSUED:          0  USEFUL:          0  USELESS:          0
PSCL4 USEFUL LOAD PREFETCHES:          0 PREFETCH ISSUED TO LOWER LEVEL:          0  ACCURACY: -nan
PSCL4 TIMELY PREFETCHES:          0 LATE PREFETCHES: 0 DROPPED PREFETCHES: 0
PSCL4 PREFETCHES SAME FILL-ORIGIN LEVEL: 0 DIFFERENT FILL-ORIGIN LEVEL: 0

PSCL3 TOTAL     ACCESS:    1773339  HIT:    1770663  MISS:       2676  HIT %:    99.8491  MISS %:   0.150902   MPKI: 0.01338
PSCL3 LOAD TRANSLATION ACCESS:     305623  HIT:     302947  MISS:       2676  HIT %:    99.1244  MISS %:   0.875589   MPKI: 0.01338
PSCL3 TRANSLATION FROM L1D PREFETCHER ACCESS:    1467716  HIT:    1467716  MISS:          0  HIT %:        100  MISS %:          0   MPKI: 0
PSCL3 PREFETCH  REQUESTED:          0  ISSUED:          0  USEFUL:          0  USELESS:          0
PSCL3 USEFUL LOAD PREFETCHES:          0 PREFETCH ISSUED TO LOWER LEVEL:          0  ACCURACY: -nan
PSCL3 TIMELY PREFETCHES:          0 LATE PREFETCHES: 0 DROPPED PREFETCHES: 0
PSCL3 PREFETCHES SAME FILL-ORIGIN LEVEL: 0 DIFFERENT FILL-ORIGIN LEVEL: 0

PSCL2 TOTAL     ACCESS:    1112722  HIT:    1030924  MISS:      81798  HIT %:    92.6488  MISS %:    7.35116   MPKI: 0.40899
PSCL2 LOAD TRANSLATION ACCESS:     310623  HIT:     228825  MISS:      81798  HIT %:    73.6665  MISS %:    26.3335   MPKI: 0.40899
PSCL2 TRANSLATION FROM L1D PREFETCHER ACCESS:     802099  HIT:     802099  MISS:          0  HIT %:        100  MISS %:          0   MPKI: 0
PSCL2 PREFETCH  REQUESTED:          0  ISSUED:          0  USEFUL:          0  USELESS:          0
PSCL2 USEFUL LOAD PREFETCHES:          0 PREFETCH ISSUED TO LOWER LEVEL:          0  ACCURACY: -nan
PSCL2 TIMELY PREFETCHES:          0 LATE PREFETCHES: 0 DROPPED PREFETCHES: 0
PSCL2 PREFETCHES SAME FILL-ORIGIN LEVEL: 0 DIFFERENT FILL-ORIGIN LEVEL: 0

LLC TOTAL     ACCESS:    3820041  HIT:    3537873  MISS:     282168  HIT %:    92.6135  MISS %:    7.38652   MPKI: 1.41084
LLC LOAD      ACCESS:    2466987  HIT:    2378330  MISS:      88657  HIT %:    96.4063  MISS %:    3.59374   MPKI: 0.443285
LLC RFO       ACCESS:     119381  HIT:      95089  MISS:      24292  HIT %:    79.6517  MISS %:    20.3483   MPKI: 0.12146
LLC PREFETCH  ACCESS:     693919  HIT:     542341  MISS:     151578  HIT %:    78.1562  MISS %:    21.8438   MPKI: 0.75789
AGUS PREFETCH L1 MISS: 0
LLC WRITEBACK ACCESS:     366214  HIT:     353945  MISS:      12269  HIT %:    96.6498  MISS %:    3.35023   MPKI: 0.061345
LLC LOAD TRANSLATION ACCESS:     161491  HIT:     156546  MISS:       4945  HIT %:    96.9379  MISS %:    3.06209   MPKI: 0.024725
LLC TRANSLATION FROM L1D PREFETCHER ACCESS:      12049  HIT:      11622  MISS:        427  HIT %:    96.4561  MISS %:    3.54386   MPKI: 0.002135
LLC PREFETCH  REQUESTED:          0  ISSUED:          0  USEFUL:      18738  USELESS:     133956
LLC USEFUL LOAD PREFETCHES:      18738 PREFETCH ISSUED TO LOWER LEVEL:     151578  ACCURACY: 12.362
LLC TIMELY PREFETCHES:      18738 LATE PREFETCHES: 0 DROPPED PREFETCHES: 0
LLC PREFETCHES SAME FILL-ORIGIN LEVEL: 0 DIFFERENT FILL-ORIGIN LEVEL: 0
LLC AVERAGE MISS LATENCY: 155.639 cycles
LLC RQ	ACCESS:    2759908	FORWARD:          0	MERGED:          0	TO_CACHE:    2759908
LLC WQ	ACCESS:     366214	FORWARD:          0	MERGED:          0	TO_CACHE:     366214
LLC PQ	ACCESS:     693919	FORWARD:          0	MERGED:          0	TO_CACHE:     693919

LLC Dense regions hint to LLC: 0

RAW hits: 2185186
Loads Generated: 56292807
Loads sent to L1D: 54107621
Stores Generated: 18064421
Stores sent to L1D: 18064452
Major fault: 0 Minor fault: 4241
Allocated PAGES: 4241
ucb ended
-----------------------------------------------------------------------------------------------------------------------------------------------------------------------------------------------------
Offsets elements: -63 -62 -61 -60 -59 -58 -57 -56 -55 -54 -53 -52 -51 -50 -49 -48 -47 -46 -45 -44 -43 -42 -41 -40 -39 -38 -37 -36 -35 -34 -33 -32 -31 -30 -29 -28 -27 -26 -25 -24 -23 -22 -21 -20 -19 -18 -17 -16 -15 -14 -13 -12 -11 -10 -9 -8 -7 -6 -5 -4 -3 -2 -1 1 2 3 4 5 6 7 8 9 10 11 12 13 14 15 16 17 18 19 20 21 22 23 24 25 26 27 28 29 30 31 32 33 34 35 36 37 38 39 40 41 42 43 44 45 46 47 48 49 50 51 52 53 54 55 56 57 58 59 60 61 62 63 
Potential of Offsets elements: 33.8217 47.8217 54.8217 36.8217 28.8217 28.8217 28.8217 34.8217 29.8217 28.8217 28.8217 28.8217 28.8217 28.8217 28.8217 28.8217 28.8217 28.8217 28.8217 28.8217 28.8217 49.8217 28.8217 28.8217 33.8217 28.8217 48.8217 202.822 82.8217 28.8217 238.822 813.822 1160.82 630.822 38.8217 342.822 349.822 99.8217 317.822 274.822 40.8217 415.822 816.822 95.8217 62.8217 488.822 287.822 61.8217 44.8217 101.822 75.8217 37.8217 144.822 126.822 331.822 226.822 187.822 354.822 899.822 1044.82 938.822 771.822 1217.82 21.6402 1806.82 647.822 836.822 259.822 427.822 461.822 379.822 240.822 595.822 183.822 616.822 91.8217 45.8217 44.8217 73.8217 142.822 677.822 704.822 2657.82 1008.82 3759.09 1376.82 164.822 289.822 115.822 28.8217 192.822 273.822 78.8217 42.8217 150.822 51.8217 28.8217 136.822 28.8217 28.8217 56.8217 28.8217 98.8217 68.8217 1079.82 77.8217 29.8217 397.822 28.8217 64.8217 32.8217 212.822 28.8217 28.8217 31.8217 48.8217 28.8217 28.8217 28.8217 28.8217 28.8217 61.8217 32.8217 28.8217 48.8217 33.8217 
rewards of Offsets elements: 5 19 26 8 0 0 0 6 1 0 0 0 0 0 0 0 0 0 0 0 0 21 0 0 5 0 20 174 54 0 210 785 1132 602 10 314 321 71 289 246 12 387 788 67 34 460 259 33 16 73 47 9 116 98 303 198 159 326 871 1016 910 743 1189 5 1778 619 808 231 399 433 351 212 567 155 588 63 17 16 45 114 649 676 2629 980 3759 1348 136 261 87 0 164 245 50 14 122 23 0 108 0 0 28 0 70 40 1051 49 1 369 0 36 4 184 0 0 3 20 0 0 0 0 0 33 4 0 20 5 Printing Sanity2
offset_index value126
offset list size126
reward size126
potential size126
-----------------------------------------------------------------------------------------------------------------------------------------------------------------------------------------------------

DRAM Statistics
 CHANNEL 0
 RQ ROW_BUFFER_HIT:      65232  ROW_BUFFER_MISS:     204666
 DBUS_CONGESTED:        110
 WQ ROW_BUFFER_HIT:      18569  ROW_BUFFER_MISS:     129153  FULL:          0

 AVG_CONGESTED_CYCLE: 4
 All warmup complete: 2
Channel 0 Bank busy for read cycles: 0
Channel 0 Bank busy for write cycles: 0
Channel 0
Rank 0
0banks busy for read cycles: 554238951
0banks busy for write cycles: 74193
1banks busy for read cycles: 16108318
1banks busy for write cycles: 9206686
2banks busy for read cycles: 4971110
2banks busy for write cycles: 3028982
3banks busy for read cycles: 1277155
3banks busy for write cycles: 1070113
4banks busy for read cycles: 405881
4banks busy for write cycles: 524599
5banks busy for read cycles: 138143
5banks busy for write cycles: 284726
6banks busy for read cycles: 77205
6banks busy for write cycles: 193647
7banks busy for read cycles: 64118
7banks busy for write cycles: 152699
8banks busy for read cycles: 118965
8banks busy for write cycles: 260698

CPU 0 Branch Prediction Accuracy: 99.8224% MPKI: 0.38789 Average ROB Occupancy at Mispredict: 29.6526
Branch types
NOT_BRANCH: 156307724 78.1539%
BRANCH_DIRECT_JUMP: 1685269 0.842634%
BRANCH_INDIRECT: 19828015 9.91401%
BRANCH_CONDITIONAL: 14737476 7.36874%
BRANCH_DIRECT_CALL: 2993939 1.49697%
BRANCH_INDIRECT_CALL: 724221 0.36211%
BRANCH_RETURN: 3723029 1.86151%
BRANCH_OTHER: 0 0%

DRAM PAGES: 1048576
Allocated PAGES: 4241
