
*** ChampSim Multicore Out-of-Order Simulator ***

Warmup Instructions: 50000000
Simulation Instructions: 200000000
Number of CPUs: 1
LLC sets: 2048
LLC ways: 16
Off-chip DRAM Size: 4096 MB Channels: 1 Width: 64-bit Data Rate: 6400 MT/s
CPU 0 runs traces/spec2k17/srv_61.champsimtrace.xz
.xz
BTB has LRU replacement policy
ITLB has LRU replacement policy
DTLB has LRU replacement policy
STLB has LRU replacement policy
L1I has LRU replacement policy
L1D has LRU replacement policy
Initialize SRRIP state for L2C
Initialize DRRIP state for LLC
Offsets elements: -63 -62 -61 -60 -59 -58 -57 -56 -55 -54 -53 -52 -51 -50 -49 -48 -47 -46 -45 -44 -43 -42 -41 -40 -39 -38 -37 -36 -35 -34 -33 -32 -31 -30 -29 -28 -27 -26 -25 -24 -23 -22 -21 -20 -19 -18 -17 -16 -15 -14 -13 -12 -11 -10 -9 -8 -7 -6 -5 -4 -3 -2 -1 1 2 3 4 5 6 7 8 9 10 11 12 13 14 15 16 17 18 19 20 21 22 23 24 25 26 27 28 29 30 31 32 33 34 35 36 37 38 39 40 41 42 43 44 45 46 47 48 49 50 51 52 53 54 55 56 57 58 59 60 61 62 63 
Potential of Offsets elements: 
rewards of Offsets elements: 0 0 0 0 0 0 0 0 0 0 0 2 0 0 0 7 66 21 0 101 310 256 266 231 239 490 299 194 228 0 0 68 341 2 50 80 59 1 16 15 6 3 2 0 655 156 12 129 0 714 134 38 496 305 262 585 417 278 424 1475 898 1911 4087 2421 897 713 351 398 391 210 158 80 243 123 1110 1103 613 139 76 17 35 66 0 25 47 5 0 0 0 0 0 0 20 45 9 2 5 90 0 0 0 0 0 0 0 1 2 35 8 4 0 0 72 8 6 163 1759 868 142 303 114 44 270 144 370 0 
Printing Sanity1
Heartbeat CPU 0 instructions: 10000002 cycles: 2787058 heartbeat IPC: 3.58801 cumulative IPC: 3.58801 (Simulation time: 0 hr 0 min 26 sec) 
Heartbeat CPU 0 instructions: 20000002 cycles: 5569398 heartbeat IPC: 3.5941 cumulative IPC: 3.59105 (Simulation time: 0 hr 0 min 52 sec) 
Heartbeat CPU 0 instructions: 30000000 cycles: 8352608 heartbeat IPC: 3.59297 cumulative IPC: 3.59169 (Simulation time: 0 hr 1 min 29 sec) 
*** Reached end of trace for Core: 0 Repeating trace: traces/spec2k17/srv_61.champsimtrace.xz
Heartbeat CPU 0 instructions: 40000000 cycles: 11135268 heartbeat IPC: 3.59368 cumulative IPC: 3.59219 (Simulation time: 0 hr 2 min 5 sec) 
Heartbeat CPU 0 instructions: 50000001 cycles: 13917198 heartbeat IPC: 3.59463 cumulative IPC: 3.59268 (Simulation time: 0 hr 2 min 41 sec) 

Warmup complete CPU 0 instructions: 50000001 cycles: 13917198 (Simulation time: 0 hr 2 min 41 sec) 

Heartbeat CPU 0 instructions: 60000002 cycles: 38059955 heartbeat IPC: 0.414203 cumulative IPC: 0.414203 (Simulation time: 0 hr 3 min 25 sec) 
*** Reached end of trace for Core: 0 Repeating trace: traces/spec2k17/srv_61.champsimtrace.xz
Heartbeat CPU 0 instructions: 70000001 cycles: 61832922 heartbeat IPC: 0.420646 cumulative IPC: 0.4174 (Simulation time: 0 hr 4 min 2 sec) 
Heartbeat CPU 0 instructions: 80000003 cycles: 85415108 heartbeat IPC: 0.424049 cumulative IPC: 0.419593 (Simulation time: 0 hr 4 min 38 sec) 
Heartbeat CPU 0 instructions: 90000003 cycles: 109577522 heartbeat IPC: 0.413866 cumulative IPC: 0.418146 (Simulation time: 0 hr 5 min 14 sec) 
*** Reached end of trace for Core: 0 Repeating trace: traces/spec2k17/srv_61.champsimtrace.xz
Heartbeat CPU 0 instructions: 100000001 cycles: 133263252 heartbeat IPC: 0.422195 cumulative IPC: 0.41895 (Simulation time: 0 hr 5 min 50 sec) 
Heartbeat CPU 0 instructions: 110000000 cycles: 156946971 heartbeat IPC: 0.422231 cumulative IPC: 0.419493 (Simulation time: 0 hr 6 min 25 sec) 
Heartbeat CPU 0 instructions: 120000001 cycles: 180850714 heartbeat IPC: 0.418345 cumulative IPC: 0.419329 (Simulation time: 0 hr 7 min 2 sec) 
*** Reached end of trace for Core: 0 Repeating trace: traces/spec2k17/srv_61.champsimtrace.xz
Heartbeat CPU 0 instructions: 130000000 cycles: 204929118 heartbeat IPC: 0.41531 cumulative IPC: 0.418822 (Simulation time: 0 hr 7 min 38 sec) 
Heartbeat CPU 0 instructions: 140000003 cycles: 228246404 heartbeat IPC: 0.428867 cumulative IPC: 0.419915 (Simulation time: 0 hr 8 min 13 sec) 
Heartbeat CPU 0 instructions: 150000002 cycles: 252022612 heartbeat IPC: 0.420588 cumulative IPC: 0.419982 (Simulation time: 0 hr 8 min 49 sec) 
*** Reached end of trace for Core: 0 Repeating trace: traces/spec2k17/srv_61.champsimtrace.xz
Heartbeat CPU 0 instructions: 160000000 cycles: 276298267 heartbeat IPC: 0.411935 cumulative IPC: 0.419238 (Simulation time: 0 hr 9 min 31 sec) 
Heartbeat CPU 0 instructions: 170000001 cycles: 299616042 heartbeat IPC: 0.428857 cumulative IPC: 0.420023 (Simulation time: 0 hr 10 min 7 sec) 
Heartbeat CPU 0 instructions: 180000002 cycles: 323329041 heartbeat IPC: 0.42171 cumulative IPC: 0.420152 (Simulation time: 0 hr 10 min 43 sec) 
*** Reached end of trace for Core: 0 Repeating trace: traces/spec2k17/srv_61.champsimtrace.xz
Heartbeat CPU 0 instructions: 190000000 cycles: 347394189 heartbeat IPC: 0.415539 cumulative IPC: 0.419819 (Simulation time: 0 hr 11 min 19 sec) 
Heartbeat CPU 0 instructions: 200000002 cycles: 370930348 heartbeat IPC: 0.424878 cumulative IPC: 0.420153 (Simulation time: 0 hr 11 min 55 sec) 
Heartbeat CPU 0 instructions: 210000000 cycles: 394717593 heartbeat IPC: 0.420393 cumulative IPC: 0.420168 (Simulation time: 0 hr 12 min 30 sec) 
*** Reached end of trace for Core: 0 Repeating trace: traces/spec2k17/srv_61.champsimtrace.xz
Heartbeat CPU 0 instructions: 220000000 cycles: 418735437 heartbeat IPC: 0.416357 cumulative IPC: 0.419942 (Simulation time: 0 hr 13 min 6 sec) 
Heartbeat CPU 0 instructions: 230000001 cycles: 442027276 heartbeat IPC: 0.429335 cumulative IPC: 0.420453 (Simulation time: 0 hr 13 min 42 sec) 
Heartbeat CPU 0 instructions: 240000000 cycles: 465853215 heartbeat IPC: 0.419711 cumulative IPC: 0.420413 (Simulation time: 0 hr 14 min 17 sec) 
*** Reached end of trace for Core: 0 Repeating trace: traces/spec2k17/srv_61.champsimtrace.xz
Heartbeat CPU 0 instructions: 250000003 cycles: 489762989 heartbeat IPC: 0.418239 cumulative IPC: 0.420304 (Simulation time: 0 hr 14 min 52 sec) 
Finished CPU 0 instructions: 200000002 cycles: 475845791 cumulative IPC: 0.420304 (Simulation time: 0 hr 14 min 52 sec) 

ChampSim completed all CPUs

Region of Interest Statistics

CPU 0 cumulative IPC: 0.420304 instructions: 200000002 cycles: 475845791
ITLB TOTAL     ACCESS:   31598344  HIT:   30776312  MISS:     822032  HIT %:    97.3985  MISS %:     2.6015   MPKI: 4.11016
ITLB LOAD TRANSLATION ACCESS:   31598344  HIT:   30776312  MISS:     822032  HIT %:    97.3985  MISS %:     2.6015   MPKI: 4.11016
ITLB PREFETCH  REQUESTED:          0  ISSUED:          0  USEFUL:          0  USELESS:          0
ITLB USEFUL LOAD PREFETCHES:          0 PREFETCH ISSUED TO LOWER LEVEL:          0  ACCURACY: -nan
ITLB TIMELY PREFETCHES:          0 LATE PREFETCHES: 0 DROPPED PREFETCHES: 0
ITLB PREFETCHES SAME FILL-ORIGIN LEVEL: 0 DIFFERENT FILL-ORIGIN LEVEL: 0
ITLB AVERAGE MISS LATENCY: 15.756 cycles
ITLB RQ	ACCESS:   38398647	FORWARD:          0	MERGED:    6602332	TO_CACHE:   31796315

DTLB TOTAL     ACCESS:   37658157  HIT:   35115836  MISS:    2542321  HIT %:     93.249  MISS %:    6.75105   MPKI: 12.7116
DTLB LOAD TRANSLATION ACCESS:   37658157  HIT:   35115836  MISS:    2542321  HIT %:     93.249  MISS %:    6.75105   MPKI: 12.7116
DTLB PREFETCH  REQUESTED:          0  ISSUED:          0  USEFUL:          0  USELESS:          0
DTLB USEFUL LOAD PREFETCHES:          0 PREFETCH ISSUED TO LOWER LEVEL:          0  ACCURACY: -nan
DTLB TIMELY PREFETCHES:          0 LATE PREFETCHES: 0 DROPPED PREFETCHES: 0
DTLB PREFETCHES SAME FILL-ORIGIN LEVEL: 0 DIFFERENT FILL-ORIGIN LEVEL: 0
DTLB AVERAGE MISS LATENCY: 13.9695 cycles
DTLB RQ	ACCESS:   48091267	FORWARD:          0	MERGED:   10287696	TO_CACHE:   37803571

STLB TOTAL     ACCESS:   10418312  HIT:    9960847  MISS:     457465  HIT %:     95.609  MISS %:    4.39097   MPKI: 2.28732
STLB LOAD TRANSLATION ACCESS:    3364353  HIT:    2909276  MISS:     455077  HIT %:    86.4736  MISS %:    13.5264   MPKI: 2.27538
STLB TRANSLATION FROM L1D PREFETCHER ACCESS:    7053959  HIT:    7051571  MISS:       2388  HIT %:    99.9661  MISS %:  0.0338533   MPKI: 0.01194
STLB PREFETCH  REQUESTED:          0  ISSUED:          0  USEFUL:       2347  USELESS:         41
STLB USEFUL LOAD PREFETCHES:       2347 PREFETCH ISSUED TO LOWER LEVEL:          0  ACCURACY: inf
STLB TIMELY PREFETCHES:       2347 LATE PREFETCHES: 295 DROPPED PREFETCHES: 32589
STLB PREFETCHES SAME FILL-ORIGIN LEVEL: 0 DIFFERENT FILL-ORIGIN LEVEL: 0
STLB AVERAGE MISS LATENCY: 39.771 cycles
STLB RQ	ACCESS:   11793586	FORWARD:          0	MERGED:    1341830	TO_CACHE:   10451756

STLB Hit, L1D data hit: 0
STLB Hit, L2C data hit: 0
STLB Hit, LLC data hit: 0
STLB Hit, LLC data miss: 0
STLB STLB hints to L2: 0
L1D TOTAL     ACCESS:   55705636  HIT:   52606670  MISS:    3098966  HIT %:    94.4369  MISS %:    5.56311   MPKI: 15.4948
L1D LOAD      ACCESS:   27992228  HIT:   25960606  MISS:    2031622  HIT %:    92.7422  MISS %:    7.25781   MPKI: 10.1581
L1D RFO       ACCESS:   19573997  HIT:   19236852  MISS:     337145  HIT %:    98.2776  MISS %:    1.72241   MPKI: 1.68572
L1D PREFETCH  ACCESS:    8139411  HIT:    7409212  MISS:     730199  HIT %:    91.0288  MISS %:    8.97115   MPKI: 3.65099
AGUS PREFETCH L1 MISS: 0
L1D PREFETCH  REQUESTED:   42766669  ISSUED:   42763948  USEFUL:     255323  USELESS:     474873
L1D USEFUL LOAD PREFETCHES:     255323 PREFETCH ISSUED TO LOWER LEVEL:     787292  ACCURACY: 32.4305
L1D TIMELY PREFETCHES:     255323 LATE PREFETCHES: 55092 DROPPED PREFETCHES: 32716
L1D PREFETCHES SAME FILL-ORIGIN LEVEL: 787292 DIFFERENT FILL-ORIGIN LEVEL: 0
L1D AVERAGE MISS LATENCY: 4.64896e+06 cycles
L1D RQ	ACCESS:   42128884	FORWARD:          0	MERGED:   13816928	TO_CACHE:   28106029
L1D WQ	ACCESS:   20321693	FORWARD:     216982	MERGED:     336455	TO_CACHE:   19985238
L1D PQ	ACCESS:   34334715	FORWARD:          0	MERGED:   25894427	TO_CACHE:    8429233

L1D UNIQUE REGIONS ACCESSED: 0
L1D REGIONS CONFLICTS: 0
L1D Cross Page Prefetch Requests: 698225
L1D Same Page Prefetch Requests: 43281635
L1D ROI Sum of L1D PQ occupancy: 110149757
L1D PREFETCHES PUSHED FROM L2C: 0
L1I TOTAL     ACCESS:   36721450  HIT:   31510465  MISS:    5210985  HIT %:    85.8094  MISS %:    14.1906   MPKI: 26.0549
L1I LOAD      ACCESS:   36721450  HIT:   31510465  MISS:    5210985  HIT %:    85.8094  MISS %:    14.1906   MPKI: 26.0549
L1I PREFETCH  REQUESTED:          0  ISSUED:          0  USEFUL:          0  USELESS:          0
L1I USEFUL LOAD PREFETCHES:          0 PREFETCH ISSUED TO LOWER LEVEL:          0  ACCURACY: -nan
L1I TIMELY PREFETCHES:          0 LATE PREFETCHES: 0 DROPPED PREFETCHES: 0
L1I PREFETCHES SAME FILL-ORIGIN LEVEL: 0 DIFFERENT FILL-ORIGIN LEVEL: 0
L1I AVERAGE MISS LATENCY: 28.3491 cycles
L1I RQ	ACCESS:   57285340	FORWARD:          0	MERGED:   18886693	TO_CACHE:   38398647

BTB TOTAL     ACCESS:   22827168  HIT:   17699490  MISS:    5127678  HIT %:     77.537  MISS %:     22.463   MPKI: 25.6384
BTB BRANCH_DIRECT_JUMP	ACCESS:    1840942  HIT:    1534611  MISS:     306331
BTB BRANCH_INDIRECT	ACCESS:    9660731  HIT:    7262186  MISS:    2398545
BTB BRANCH_CONDITIONAL	ACCESS:    4665085  HIT:    4182126  MISS:     482959
BTB BRANCH_DIRECT_CALL	ACCESS:    2620364  HIT:    2026741  MISS:     593623
BTB BRANCH_INDIRECT_CALL	ACCESS:     705579  HIT:     643161  MISS:      62418
BTB BRANCH_RETURN	ACCESS:    3334467  HIT:    2050665  MISS:    1283802
BTB BRANCH_OTHER ACCESS:          0  HIT:          0  MISS:          0

L2C TOTAL     ACCESS:    9973693  HIT:    5680129  MISS:    4293564  HIT %:    56.9511  MISS %:    43.0489   MPKI: 21.4678
L2C LOAD      ACCESS:    7187427  HIT:    3785511  MISS:    3401916  HIT %:    52.6685  MISS %:    47.3315   MPKI: 17.0096
L2C DATA LOAD MPKI: 4.9871
L2C INSTRUCTION LOAD MPKI: 12.0225
L2C RFO       ACCESS:     335143  HIT:     168648  MISS:     166495  HIT %:    50.3212  MISS %:    49.6788   MPKI: 0.832475
L2C PREFETCH  ACCESS:     787286  HIT:     330848  MISS:     456438  HIT %:    42.0239  MISS %:    57.9761   MPKI: 2.28219
AGUS PREFETCH L1 MISS: 0
L2C DATA PREFETCH MPKI: 2.28219
L2C INSTRUCTION PREFETCH MPKI: 0
L2C WRITEBACK ACCESS:    1031914  HIT:     984220  MISS:      47694  HIT %:    95.3781  MISS %:     4.6219   MPKI: 0.23847
L2C LOAD TRANSLATION ACCESS:     576759  HIT:     357192  MISS:     219567  HIT %:    61.9309  MISS %:    38.0691   MPKI: 1.09783
L2C TRANSLATION FROM L1D PREFETCHER ACCESS:      55164  HIT:      53710  MISS:       1454  HIT %:    97.3642  MISS %:    2.63578   MPKI: 0.00727
L2C PREFETCH  REQUESTED:          0  ISSUED:          0  USEFUL:      25807  USELESS:     432071
L2C USEFUL LOAD PREFETCHES:      25807 PREFETCH ISSUED TO LOWER LEVEL:     456438  ACCURACY: 5.654
L2C TIMELY PREFETCHES:      25807 LATE PREFETCHES: 0 DROPPED PREFETCHES: 0
L2C PREFETCHES SAME FILL-ORIGIN LEVEL: 0 DIFFERENT FILL-ORIGIN LEVEL: 0
L2C AVERAGE MISS LATENCY: 40.4216 cycles
L2C RQ	ACCESS:    8154582	FORWARD:          0	MERGED:          0	TO_CACHE:    8154493
L2C WQ	ACCESS:    1031914	FORWARD:         95	MERGED:          0	TO_CACHE:    1031914
L2C PQ	ACCESS:     787292	FORWARD:          0	MERGED:          0	TO_CACHE:     787286

L2C Instructions Evicting Data 924546
L2C Translations Evicting Data 85780
L2C Data Evicting Data 638125
L2C Instructions Evicting Instructions 1359236
L2C Translations Evicting Instructions 122224
L2C Data Evicting Instructions 897683
L2C Instructions Evicting Translations 120714
L2C Translations Evicting Translations 13017
L2C Data Evicting Translations 84545
L2C Dense regions hint from L2: 0
PSCL5 TOTAL     ACCESS:     490054  HIT:     490054  MISS:          0  HIT %:        100  MISS %:          0   MPKI: 0
PSCL5 LOAD TRANSLATION ACCESS:     454782  HIT:     454782  MISS:          0  HIT %:        100  MISS %:          0   MPKI: 0
PSCL5 TRANSLATION FROM L1D PREFETCHER ACCESS:      35272  HIT:      35272  MISS:          0  HIT %:        100  MISS %:          0   MPKI: 0
PSCL5 PREFETCH  REQUESTED:          0  ISSUED:          0  USEFUL:          0  USELESS:          0
PSCL5 USEFUL LOAD PREFETCHES:          0 PREFETCH ISSUED TO LOWER LEVEL:          0  ACCURACY: -nan
PSCL5 TIMELY PREFETCHES:          0 LATE PREFETCHES: 0 DROPPED PREFETCHES: 0
PSCL5 PREFETCHES SAME FILL-ORIGIN LEVEL: 0 DIFFERENT FILL-ORIGIN LEVEL: 0

PSCL4 TOTAL     ACCESS:     449561  HIT:     448283  MISS:       1278  HIT %:    99.7157  MISS %:   0.284277   MPKI: 0.00639
PSCL4 LOAD TRANSLATION ACCESS:     421307  HIT:     420029  MISS:       1278  HIT %:    99.6967  MISS %:   0.303342   MPKI: 0.00639
PSCL4 TRANSLATION FROM L1D PREFETCHER ACCESS:      28254  HIT:      28254  MISS:          0  HIT %:        100  MISS %:          0   MPKI: 0
PSCL4 PREFETCH  REQUESTED:          0  ISSUED:          0  USEFUL:          0  USELESS:          0
PSCL4 USEFUL LOAD PREFETCHES:          0 PREFETCH ISSUED TO LOWER LEVEL:          0  ACCURACY: -nan
PSCL4 TIMELY PREFETCHES:          0 LATE PREFETCHES: 0 DROPPED PREFETCHES: 0
PSCL4 PREFETCHES SAME FILL-ORIGIN LEVEL: 0 DIFFERENT FILL-ORIGIN LEVEL: 0

PSCL3 TOTAL     ACCESS:     486485  HIT:     482637  MISS:       3848  HIT %:     99.209  MISS %:    0.79098   MPKI: 0.01924
PSCL3 LOAD TRANSLATION ACCESS:     451214  HIT:     447366  MISS:       3848  HIT %:    99.1472  MISS %:    0.85281   MPKI: 0.01924
PSCL3 TRANSLATION FROM L1D PREFETCHER ACCESS:      35271  HIT:      35271  MISS:          0  HIT %:        100  MISS %:          0   MPKI: 0
PSCL3 PREFETCH  REQUESTED:          0  ISSUED:          0  USEFUL:          0  USELESS:          0
PSCL3 USEFUL LOAD PREFETCHES:          0 PREFETCH ISSUED TO LOWER LEVEL:          0  ACCURACY: -nan
PSCL3 TIMELY PREFETCHES:          0 LATE PREFETCHES: 0 DROPPED PREFETCHES: 0
PSCL3 PREFETCHES SAME FILL-ORIGIN LEVEL: 0 DIFFERENT FILL-ORIGIN LEVEL: 0

PSCL2 TOTAL     ACCESS:     470644  HIT:     353312  MISS:     117332  HIT %:    75.0699  MISS %:    24.9301   MPKI: 0.58666
PSCL2 LOAD TRANSLATION ACCESS:     455263  HIT:     337931  MISS:     117332  HIT %:    74.2276  MISS %:    25.7724   MPKI: 0.58666
PSCL2 TRANSLATION FROM L1D PREFETCHER ACCESS:      15381  HIT:      15381  MISS:          0  HIT %:        100  MISS %:          0   MPKI: 0
PSCL2 PREFETCH  REQUESTED:          0  ISSUED:          0  USEFUL:          0  USELESS:          0
PSCL2 USEFUL LOAD PREFETCHES:          0 PREFETCH ISSUED TO LOWER LEVEL:          0  ACCURACY: -nan
PSCL2 TIMELY PREFETCHES:          0 LATE PREFETCHES: 0 DROPPED PREFETCHES: 0
PSCL2 PREFETCHES SAME FILL-ORIGIN LEVEL: 0 DIFFERENT FILL-ORIGIN LEVEL: 0

LLC TOTAL     ACCESS:    4730256  HIT:    4436155  MISS:     294101  HIT %:    93.7826  MISS %:    6.21744   MPKI: 1.4705
LLC LOAD      ACCESS:    3401916  HIT:    3234170  MISS:     167746  HIT %:    95.0691  MISS %:    4.93093   MPKI: 0.83873
LLC RFO       ACCESS:     166495  HIT:     122218  MISS:      44277  HIT %:    73.4064  MISS %:    26.5936   MPKI: 0.221385
LLC PREFETCH  ACCESS:     456426  HIT:     381832  MISS:      74594  HIT %:    83.6569  MISS %:    16.3431   MPKI: 0.37297
AGUS PREFETCH L1 MISS: 0
LLC WRITEBACK ACCESS:     484398  HIT:     481733  MISS:       2665  HIT %:    99.4498  MISS %:   0.550167   MPKI: 0.013325
LLC LOAD TRANSLATION ACCESS:     219567  HIT:     214821  MISS:       4746  HIT %:    97.8385  MISS %:    2.16153   MPKI: 0.02373
LLC TRANSLATION FROM L1D PREFETCHER ACCESS:       1454  HIT:       1381  MISS:         73  HIT %:    94.9794  MISS %:    5.02063   MPKI: 0.000365
LLC PREFETCH  REQUESTED:          0  ISSUED:          0  USEFUL:       3259  USELESS:      72412
LLC USEFUL LOAD PREFETCHES:       3259 PREFETCH ISSUED TO LOWER LEVEL:      74594  ACCURACY: 4.36898
LLC TIMELY PREFETCHES:       3259 LATE PREFETCHES: 0 DROPPED PREFETCHES: 0
LLC PREFETCHES SAME FILL-ORIGIN LEVEL: 0 DIFFERENT FILL-ORIGIN LEVEL: 0
LLC AVERAGE MISS LATENCY: 157.003 cycles
LLC RQ	ACCESS:    3789432	FORWARD:          0	MERGED:          0	TO_CACHE:    3789432
LLC WQ	ACCESS:     484398	FORWARD:         12	MERGED:          0	TO_CACHE:     484398
LLC PQ	ACCESS:     456438	FORWARD:          0	MERGED:          0	TO_CACHE:     456426

LLC Dense regions hint to LLC: 0

RAW hits: 2701121
Loads Generated: 44830005
Loads sent to L1D: 42128884
Stores Generated: 20321689
Stores sent to L1D: 20321693
Major fault: 0 Minor fault: 4273
Allocated PAGES: 4273
ucb ended
-----------------------------------------------------------------------------------------------------------------------------------------------------------------------------------------------------
Offsets elements: -63 -62 -61 -60 -59 -58 -57 -56 -55 -54 -53 -52 -51 -50 -49 -48 -47 -46 -45 -44 -43 -42 -41 -40 -39 -38 -37 -36 -35 -34 -33 -32 -31 -30 -29 -28 -27 -26 -25 -24 -23 -22 -21 -20 -19 -18 -17 -16 -15 -14 -13 -12 -11 -10 -9 -8 -7 -6 -5 -4 -3 -2 -1 1 2 3 4 5 6 7 8 9 10 11 12 13 14 15 16 17 18 19 20 21 22 23 24 25 26 27 28 29 30 31 32 33 34 35 36 37 38 39 40 41 42 43 44 45 46 47 48 49 50 51 52 53 54 55 56 57 58 59 60 61 62 63 
Potential of Offsets elements: 28.3134 28.3134 28.3134 28.3134 28.3134 28.3134 28.3134 28.3134 28.3134 28.3134 28.3134 30.3134 28.3134 28.3134 28.3134 35.3134 94.3134 49.3134 28.3134 129.313 338.313 284.313 294.313 259.313 267.313 518.313 327.313 222.313 256.313 28.3134 28.3134 96.3134 369.313 30.3134 78.3134 108.313 87.3134 29.3134 44.3134 43.3134 34.3134 31.3134 30.3134 28.3134 683.313 184.313 40.3134 157.313 28.3134 742.313 162.313 66.3134 524.313 333.313 290.313 613.313 445.313 306.313 452.313 1503.31 926.313 1939.31 1951.89 2421.11 925.313 741.313 379.313 426.313 419.313 238.313 186.313 108.313 271.313 151.313 1138.31 1131.31 641.313 167.313 104.313 45.3134 63.3134 94.3134 28.3134 53.3134 75.3134 33.3134 28.3134 28.3134 28.3134 28.3134 28.3134 28.3134 48.3134 73.3134 37.3134 30.3134 33.3134 118.313 28.3134 28.3134 28.3134 28.3134 28.3134 28.3134 28.3134 29.3134 30.3134 63.3134 36.3134 32.3134 28.3134 28.3134 100.313 36.3134 34.3134 191.313 1787.31 896.313 170.313 331.313 142.313 72.3134 298.313 172.313 398.313 28.3134 
rewards of Offsets elements: 0 0 0 0 0 0 0 0 0 0 0 2 0 0 0 7 66 21 0 101 310 256 266 231 239 490 299 194 228 0 0 68 341 2 50 80 59 1 16 15 6 3 2 0 655 156 12 129 0 714 134 38 496 305 262 585 417 278 424 1475 898 1911 1950 2421 897 713 351 398 391 210 158 80 243 123 1110 1103 613 139 76 17 35 66 0 25 47 5 0 0 0 0 0 0 20 45 9 2 5 90 0 0 0 0 0 0 0 1 2 35 8 4 0 0 72 8 6 163 1759 868 142 303 114 44 270 144 370 0 Printing Sanity2
offset_index value126
offset list size126
reward size126
potential size126
-----------------------------------------------------------------------------------------------------------------------------------------------------------------------------------------------------

DRAM Statistics
 CHANNEL 0
 RQ ROW_BUFFER_HIT:      47582  ROW_BUFFER_MISS:     243854
 DBUS_CONGESTED:         83
 WQ ROW_BUFFER_HIT:      20665  ROW_BUFFER_MISS:     192963  FULL:          0

 AVG_CONGESTED_CYCLE: 4
 All warmup complete: 2
Channel 0 Bank busy for read cycles: 0
Channel 0 Bank busy for write cycles: 0
Channel 0
Rank 0
0banks busy for read cycles: 422714832
0banks busy for write cycles: 121692
1banks busy for read cycles: 23824433
1banks busy for write cycles: 15636387
2banks busy for read cycles: 4830794
2banks busy for write cycles: 4436586
3banks busy for read cycles: 938852
3banks busy for write cycles: 1374251
4banks busy for read cycles: 270964
4banks busy for write cycles: 572346
5banks busy for read cycles: 103493
5banks busy for write cycles: 310021
6banks busy for read cycles: 54730
6banks busy for write cycles: 182261
7banks busy for read cycles: 43113
7banks busy for write cycles: 156904
8banks busy for read cycles: 55140
8banks busy for write cycles: 218993

CPU 0 Branch Prediction Accuracy: 99.805% MPKI: 0.35292 Average ROB Occupancy at Mispredict: 33.1636
Branch types
NOT_BRANCH: 163812004 81.906%
BRANCH_DIRECT_JUMP: 1840942 0.920471%
BRANCH_INDIRECT: 9660731 4.83037%
BRANCH_CONDITIONAL: 18025786 9.01289%
BRANCH_DIRECT_CALL: 2620364 1.31018%
BRANCH_INDIRECT_CALL: 705579 0.352789%
BRANCH_RETURN: 3334467 1.66723%
BRANCH_OTHER: 0 0%

DRAM PAGES: 1048576
Allocated PAGES: 4273
