
*** ChampSim Multicore Out-of-Order Simulator ***

Warmup Instructions: 50000000
Simulation Instructions: 200000000
Number of CPUs: 1
LLC sets: 2048
LLC ways: 16
Off-chip DRAM Size: 4096 MB Channels: 1 Width: 64-bit Data Rate: 6400 MT/s
CPU 0 runs traces/spec2k17/srv_15.champsimtrace.xz
.xz
BTB has LRU replacement policy
ITLB has LRU replacement policy
DTLB has LRU replacement policy
STLB has LRU replacement policy
L1I has LRU replacement policy
L1D has LRU replacement policy
Initialize SRRIP state for L2C
Initialize DRRIP state for LLC
Offsets elements: -63 -62 -61 -60 -59 -58 -57 -56 -55 -54 -53 -52 -51 -50 -49 -48 -47 -46 -45 -44 -43 -42 -41 -40 -39 -38 -37 -36 -35 -34 -33 -32 -31 -30 -29 -28 -27 -26 -25 -24 -23 -22 -21 -20 -19 -18 -17 -16 -15 -14 -13 -12 -11 -10 -9 -8 -7 -6 -5 -4 -3 -2 -1 1 2 3 4 5 6 7 8 9 10 11 12 13 14 15 16 17 18 19 20 21 22 23 24 25 26 27 28 29 30 31 32 33 34 35 36 37 38 39 40 41 42 43 44 45 46 47 48 49 50 51 52 53 54 55 56 57 58 59 60 61 62 63 
Potential of Offsets elements: 
rewards of Offsets elements: 20 114 8 24 54 0 1 0 0 36 25 81 72 26 5 2 0 30 111 138 215 148 11 9 6 22 56 5 1 0 307 102 408 36 66 141 404 86 74 26 34 53 80 67 255 73 241 21 130 1 237 87 402 104 282 44 438 693 317 579 1284 1163 604 505 815 396 488 205 334 306 275 277 176 35 609 90 90 227 218 197 49 19 33 81 0 2 12 24 29 7 52 250 231 258 154 20 1 9 40 0 6 32 27 255 12 119 24 523 35 2 0 23 49 34 88 3 322 67 0 1 48 0 90 3 0 0 
Printing Sanity1
Heartbeat CPU 0 instructions: 10000002 cycles: 2876488 heartbeat IPC: 3.47646 cumulative IPC: 3.47646 (Simulation time: 0 hr 0 min 29 sec) 
Heartbeat CPU 0 instructions: 20000001 cycles: 5744811 heartbeat IPC: 3.48636 cumulative IPC: 3.4814 (Simulation time: 0 hr 0 min 59 sec) 
Heartbeat CPU 0 instructions: 30000000 cycles: 8613257 heartbeat IPC: 3.48621 cumulative IPC: 3.483 (Simulation time: 0 hr 1 min 34 sec) 
*** Reached end of trace for Core: 0 Repeating trace: traces/spec2k17/srv_15.champsimtrace.xz
Heartbeat CPU 0 instructions: 40000000 cycles: 11484988 heartbeat IPC: 3.48222 cumulative IPC: 3.48281 (Simulation time: 0 hr 2 min 8 sec) 
Heartbeat CPU 0 instructions: 50000001 cycles: 14352792 heartbeat IPC: 3.48699 cumulative IPC: 3.48364 (Simulation time: 0 hr 2 min 42 sec) 

Warmup complete CPU 0 instructions: 50000001 cycles: 14352792 (Simulation time: 0 hr 2 min 42 sec) 

Heartbeat CPU 0 instructions: 60000000 cycles: 46757534 heartbeat IPC: 0.308597 cumulative IPC: 0.308597 (Simulation time: 0 hr 3 min 45 sec) 
*** Reached end of trace for Core: 0 Repeating trace: traces/spec2k17/srv_15.champsimtrace.xz
Heartbeat CPU 0 instructions: 70000000 cycles: 79117574 heartbeat IPC: 0.309023 cumulative IPC: 0.30881 (Simulation time: 0 hr 4 min 52 sec) 
Heartbeat CPU 0 instructions: 80000001 cycles: 111652822 heartbeat IPC: 0.307359 cumulative IPC: 0.308325 (Simulation time: 0 hr 5 min 59 sec) 
Heartbeat CPU 0 instructions: 90000001 cycles: 143834294 heartbeat IPC: 0.310738 cumulative IPC: 0.308924 (Simulation time: 0 hr 7 min 4 sec) 
*** Reached end of trace for Core: 0 Repeating trace: traces/spec2k17/srv_15.champsimtrace.xz
Heartbeat CPU 0 instructions: 100000002 cycles: 176429985 heartbeat IPC: 0.306789 cumulative IPC: 0.308495 (Simulation time: 0 hr 7 min 47 sec) 
Heartbeat CPU 0 instructions: 110000000 cycles: 208835747 heartbeat IPC: 0.308587 cumulative IPC: 0.30851 (Simulation time: 0 hr 8 min 30 sec) 
Heartbeat CPU 0 instructions: 120000001 cycles: 241082003 heartbeat IPC: 0.310114 cumulative IPC: 0.308738 (Simulation time: 0 hr 9 min 34 sec) 
*** Reached end of trace for Core: 0 Repeating trace: traces/spec2k17/srv_15.champsimtrace.xz
Heartbeat CPU 0 instructions: 130000001 cycles: 273657623 heartbeat IPC: 0.306978 cumulative IPC: 0.308517 (Simulation time: 0 hr 10 min 41 sec) 
Heartbeat CPU 0 instructions: 140000000 cycles: 305856777 heartbeat IPC: 0.310567 cumulative IPC: 0.308744 (Simulation time: 0 hr 11 min 49 sec) 
Heartbeat CPU 0 instructions: 150000003 cycles: 338137757 heartbeat IPC: 0.30978 cumulative IPC: 0.308847 (Simulation time: 0 hr 12 min 48 sec) 
*** Reached end of trace for Core: 0 Repeating trace: traces/spec2k17/srv_15.champsimtrace.xz
Heartbeat CPU 0 instructions: 160000000 cycles: 370678442 heartbeat IPC: 0.307308 cumulative IPC: 0.308706 (Simulation time: 0 hr 13 min 31 sec) 
Heartbeat CPU 0 instructions: 170000001 cycles: 402953813 heartbeat IPC: 0.309834 cumulative IPC: 0.3088 (Simulation time: 0 hr 14 min 32 sec) 
Heartbeat CPU 0 instructions: 180000000 cycles: 435384149 heartbeat IPC: 0.308353 cumulative IPC: 0.308766 (Simulation time: 0 hr 15 min 40 sec) 
*** Reached end of trace for Core: 0 Repeating trace: traces/spec2k17/srv_15.champsimtrace.xz
Heartbeat CPU 0 instructions: 190000003 cycles: 467705927 heartbeat IPC: 0.309389 cumulative IPC: 0.30881 (Simulation time: 0 hr 16 min 30 sec) 
Heartbeat CPU 0 instructions: 200000001 cycles: 500121627 heartbeat IPC: 0.308492 cumulative IPC: 0.308789 (Simulation time: 0 hr 17 min 37 sec) 
Heartbeat CPU 0 instructions: 210000001 cycles: 532405584 heartbeat IPC: 0.309751 cumulative IPC: 0.308849 (Simulation time: 0 hr 18 min 44 sec) 
*** Reached end of trace for Core: 0 Repeating trace: traces/spec2k17/srv_15.champsimtrace.xz
Heartbeat CPU 0 instructions: 220000000 cycles: 564638873 heartbeat IPC: 0.310238 cumulative IPC: 0.30893 (Simulation time: 0 hr 19 min 51 sec) 
Heartbeat CPU 0 instructions: 230000001 cycles: 597096714 heartbeat IPC: 0.308092 cumulative IPC: 0.308884 (Simulation time: 0 hr 21 min 0 sec) 
Heartbeat CPU 0 instructions: 240000001 cycles: 629390939 heartbeat IPC: 0.309653 cumulative IPC: 0.308924 (Simulation time: 0 hr 22 min 7 sec) 
Heartbeat CPU 0 instructions: 250000000 cycles: 661697598 heartbeat IPC: 0.309534 cumulative IPC: 0.308954 (Simulation time: 0 hr 22 min 56 sec) 
Finished CPU 0 instructions: 200000000 cycles: 647344807 cumulative IPC: 0.308954 (Simulation time: 0 hr 22 min 56 sec) 

ChampSim completed all CPUs

Region of Interest Statistics

CPU 0 cumulative IPC: 0.308954 instructions: 200000000 cycles: 647344807
ITLB TOTAL     ACCESS:   35745592  HIT:   33491209  MISS:    2254383  HIT %:    93.6933  MISS %:    6.30674   MPKI: 11.2719
ITLB LOAD TRANSLATION ACCESS:   35745592  HIT:   33491209  MISS:    2254383  HIT %:    93.6933  MISS %:    6.30674   MPKI: 11.2719
ITLB PREFETCH  REQUESTED:          0  ISSUED:          0  USEFUL:          0  USELESS:          0
ITLB USEFUL LOAD PREFETCHES:          0 PREFETCH ISSUED TO LOWER LEVEL:          0  ACCURACY: -nan
ITLB TIMELY PREFETCHES:          0 LATE PREFETCHES: 0 DROPPED PREFETCHES: 0
ITLB PREFETCHES SAME FILL-ORIGIN LEVEL: 0 DIFFERENT FILL-ORIGIN LEVEL: 0
ITLB AVERAGE MISS LATENCY: 9.21076 cycles
ITLB RQ	ACCESS:   41992626	FORWARD:          0	MERGED:    5701309	TO_CACHE:   36291317

DTLB TOTAL     ACCESS:   45729808  HIT:   43690962  MISS:    2038846  HIT %:    95.5415  MISS %:    4.45846   MPKI: 10.1942
DTLB LOAD TRANSLATION ACCESS:   45729808  HIT:   43690962  MISS:    2038846  HIT %:    95.5415  MISS %:    4.45846   MPKI: 10.1942
DTLB PREFETCH  REQUESTED:          0  ISSUED:          0  USEFUL:          0  USELESS:          0
DTLB USEFUL LOAD PREFETCHES:          0 PREFETCH ISSUED TO LOWER LEVEL:          0  ACCURACY: -nan
DTLB TIMELY PREFETCHES:          0 LATE PREFETCHES: 0 DROPPED PREFETCHES: 0
DTLB PREFETCHES SAME FILL-ORIGIN LEVEL: 0 DIFFERENT FILL-ORIGIN LEVEL: 0
DTLB AVERAGE MISS LATENCY: 9.22434 cycles
DTLB RQ	ACCESS:   60519521	FORWARD:          0	MERGED:   14726148	TO_CACHE:   45793373

STLB TOTAL     ACCESS:   12741429  HIT:   12712575  MISS:      28854  HIT %:    99.7735  MISS %:   0.226458   MPKI: 0.14427
STLB LOAD TRANSLATION ACCESS:    4293229  HIT:    4264874  MISS:      28355  HIT %:    99.3395  MISS %:   0.660459   MPKI: 0.141775
STLB TRANSLATION FROM L1D PREFETCHER ACCESS:    8448200  HIT:    8447701  MISS:        499  HIT %:    99.9941  MISS %: 0.00590658   MPKI: 0.002495
STLB PREFETCH  REQUESTED:          0  ISSUED:          0  USEFUL:        434  USELESS:         63
STLB USEFUL LOAD PREFETCHES:        434 PREFETCH ISSUED TO LOWER LEVEL:          0  ACCURACY: inf
STLB TIMELY PREFETCHES:        434 LATE PREFETCHES: 0 DROPPED PREFETCHES: 212697
STLB PREFETCHES SAME FILL-ORIGIN LEVEL: 0 DIFFERENT FILL-ORIGIN LEVEL: 0
STLB AVERAGE MISS LATENCY: 31.7953 cycles
STLB RQ	ACCESS:   23377007	FORWARD:          0	MERGED:   10407096	TO_CACHE:   12969911

STLB Hit, L1D data hit: 0
STLB Hit, L2C data hit: 0
STLB Hit, LLC data hit: 0
STLB Hit, LLC data miss: 0
STLB STLB hints to L2: 0
L1D TOTAL     ACCESS:   77360436  HIT:   69792026  MISS:    7568410  HIT %:    90.2167  MISS %:    9.78331   MPKI: 37.8421
L1D LOAD      ACCESS:   33914515  HIT:   29604070  MISS:    4310445  HIT %:    87.2903  MISS %:    12.7097   MPKI: 21.5522
L1D RFO       ACCESS:   24979098  HIT:   24000378  MISS:     978720  HIT %:    96.0818  MISS %:    3.91816   MPKI: 4.8936
L1D PREFETCH  ACCESS:   18466823  HIT:   16187578  MISS:    2279245  HIT %:    87.6576  MISS %:    12.3424   MPKI: 11.3962
AGUS PREFETCH L1 MISS: 0
L1D PREFETCH  REQUESTED:   62057086  ISSUED:   62057030  USEFUL:     465067  USELESS:    1814182
L1D USEFUL LOAD PREFETCHES:     465067 PREFETCH ISSUED TO LOWER LEVEL:    2287309  ACCURACY: 20.3325
L1D TIMELY PREFETCHES:     465067 LATE PREFETCHES: 7266 DROPPED PREFETCHES: 416415
L1D PREFETCHES SAME FILL-ORIGIN LEVEL: 2287309 DIFFERENT FILL-ORIGIN LEVEL: 0
L1D AVERAGE MISS LATENCY: 358325 cycles
L1D RQ	ACCESS:   46483575	FORWARD:          0	MERGED:   12082116	TO_CACHE:   34081772
L1D WQ	ACCESS:   26586297	FORWARD:     329824	MERGED:     148548	TO_CACHE:   26437749
L1D PQ	ACCESS:   42973252	FORWARD:          0	MERGED:   23879337	TO_CACHE:   19083778

L1D UNIQUE REGIONS ACCESSED: 0
L1D REGIONS CONFLICTS: 0
L1D Cross Page Prefetch Requests: 2830098
L1D Same Page Prefetch Requests: 50394977
L1D ROI Sum of L1D PQ occupancy: 253318781
L1D PREFETCHES PUSHED FROM L2C: 0
L1I TOTAL     ACCESS:   40236809  HIT:   28792931  MISS:   11443878  HIT %:    71.5587  MISS %:    28.4413   MPKI: 57.2194
L1I LOAD      ACCESS:   40236809  HIT:   28792931  MISS:   11443878  HIT %:    71.5587  MISS %:    28.4413   MPKI: 57.2194
L1I PREFETCH  REQUESTED:          0  ISSUED:          0  USEFUL:          0  USELESS:          0
L1I USEFUL LOAD PREFETCHES:          0 PREFETCH ISSUED TO LOWER LEVEL:          0  ACCURACY: -nan
L1I TIMELY PREFETCHES:          0 LATE PREFETCHES: 0 DROPPED PREFETCHES: 0
L1I PREFETCHES SAME FILL-ORIGIN LEVEL: 0 DIFFERENT FILL-ORIGIN LEVEL: 0
L1I AVERAGE MISS LATENCY: 16.5049 cycles
L1I RQ	ACCESS:   58650780	FORWARD:          0	MERGED:   16658154	TO_CACHE:   41992626

BTB TOTAL     ACCESS:   30711821  HIT:   18461256  MISS:   12250565  HIT %:    60.1112  MISS %:    39.8888   MPKI: 61.2528
BTB BRANCH_DIRECT_JUMP	ACCESS:    1879118  HIT:    1082631  MISS:     796487
BTB BRANCH_INDIRECT	ACCESS:   12151413  HIT:    7482073  MISS:    4669340
BTB BRANCH_CONDITIONAL	ACCESS:    7502010  HIT:    6260751  MISS:    1241259
BTB BRANCH_DIRECT_CALL	ACCESS:    3871933  HIT:    1894091  MISS:    1977842
BTB BRANCH_INDIRECT_CALL	ACCESS:     717697  HIT:     351527  MISS:     366170
BTB BRANCH_RETURN	ACCESS:    4589650  HIT:    1390183  MISS:    3199467
BTB BRANCH_OTHER ACCESS:          0  HIT:          0  MISS:          0

L2C TOTAL     ACCESS:   21705610  HIT:   19948998  MISS:    1756612  HIT %:    91.9071  MISS %:    8.09289   MPKI: 8.78306
L2C LOAD      ACCESS:   15747043  HIT:   14406882  MISS:    1340161  HIT %:    91.4894  MISS %:    8.51056   MPKI: 6.7008
L2C DATA LOAD MPKI: 2.06939
L2C INSTRUCTION LOAD MPKI: 4.63142
L2C RFO       ACCESS:     977922  HIT:     904272  MISS:      73650  HIT %:    92.4687  MISS %:    7.53128   MPKI: 0.36825
L2C PREFETCH  ACCESS:    2287307  HIT:    1980531  MISS:     306776  HIT %:    86.5879  MISS %:    13.4121   MPKI: 1.53388
AGUS PREFETCH L1 MISS: 0
L2C DATA PREFETCH MPKI: 1.53388
L2C INSTRUCTION PREFETCH MPKI: 0
L2C WRITEBACK ACCESS:    2402178  HIT:    2379847  MISS:      22331  HIT %:    99.0704  MISS %:   0.929615   MPKI: 0.111655
L2C LOAD TRANSLATION ACCESS:      29410  HIT:      17954  MISS:      11456  HIT %:    61.0473  MISS %:    38.9527   MPKI: 0.05728
L2C TRANSLATION FROM L1D PREFETCHER ACCESS:     261750  HIT:     259512  MISS:       2238  HIT %:     99.145  MISS %:   0.855014   MPKI: 0.01119
L2C PREFETCH  REQUESTED:          0  ISSUED:          0  USEFUL:      10289  USELESS:     298744
L2C USEFUL LOAD PREFETCHES:      10289 PREFETCH ISSUED TO LOWER LEVEL:     306776  ACCURACY: 3.35391
L2C TIMELY PREFETCHES:      10289 LATE PREFETCHES: 0 DROPPED PREFETCHES: 0
L2C PREFETCHES SAME FILL-ORIGIN LEVEL: 0 DIFFERENT FILL-ORIGIN LEVEL: 0
L2C AVERAGE MISS LATENCY: 29.9854 cycles
L2C RQ	ACCESS:   17016139	FORWARD:          0	MERGED:          0	TO_CACHE:   17016125
L2C WQ	ACCESS:    2402178	FORWARD:         16	MERGED:          0	TO_CACHE:    2402178
L2C PQ	ACCESS:    2287309	FORWARD:          0	MERGED:          0	TO_CACHE:    2287307

L2C Instructions Evicting Data 411116
L2C Translations Evicting Data 7625
L2C Data Evicting Data 389720
L2C Instructions Evicting Instructions 509221
L2C Translations Evicting Instructions 6004
L2C Data Evicting Instructions 397022
L2C Instructions Evicting Translations 5947
L2C Translations Evicting Translations 65
L2C Data Evicting Translations 7561
L2C Dense regions hint from L2: 0
PSCL5 TOTAL     ACCESS:     241551  HIT:     241551  MISS:          0  HIT %:        100  MISS %:          0   MPKI: 0
PSCL5 LOAD TRANSLATION ACCESS:      28355  HIT:      28355  MISS:          0  HIT %:        100  MISS %:          0   MPKI: 0
PSCL5 TRANSLATION FROM L1D PREFETCHER ACCESS:     213196  HIT:     213196  MISS:          0  HIT %:        100  MISS %:          0   MPKI: 0
PSCL5 PREFETCH  REQUESTED:          0  ISSUED:          0  USEFUL:          0  USELESS:          0
PSCL5 USEFUL LOAD PREFETCHES:          0 PREFETCH ISSUED TO LOWER LEVEL:          0  ACCURACY: -nan
PSCL5 TIMELY PREFETCHES:          0 LATE PREFETCHES: 0 DROPPED PREFETCHES: 0
PSCL5 PREFETCHES SAME FILL-ORIGIN LEVEL: 0 DIFFERENT FILL-ORIGIN LEVEL: 0

PSCL4 TOTAL     ACCESS:     193061  HIT:     192984  MISS:         77  HIT %:    99.9601  MISS %:  0.0398838   MPKI: 0.000385
PSCL4 LOAD TRANSLATION ACCESS:      25303  HIT:      25226  MISS:         77  HIT %:    99.6957  MISS %:   0.304312   MPKI: 0.000385
PSCL4 TRANSLATION FROM L1D PREFETCHER ACCESS:     167758  HIT:     167758  MISS:          0  HIT %:        100  MISS %:          0   MPKI: 0
PSCL4 PREFETCH  REQUESTED:          0  ISSUED:          0  USEFUL:          0  USELESS:          0
PSCL4 USEFUL LOAD PREFETCHES:          0 PREFETCH ISSUED TO LOWER LEVEL:          0  ACCURACY: -nan
PSCL4 TIMELY PREFETCHES:          0 LATE PREFETCHES: 0 DROPPED PREFETCHES: 0
PSCL4 PREFETCHES SAME FILL-ORIGIN LEVEL: 0 DIFFERENT FILL-ORIGIN LEVEL: 0

PSCL3 TOTAL     ACCESS:     223856  HIT:     223779  MISS:         77  HIT %:    99.9656  MISS %:  0.0343971   MPKI: 0.000385
PSCL3 LOAD TRANSLATION ACCESS:      26675  HIT:      26598  MISS:         77  HIT %:    99.7113  MISS %:    0.28866   MPKI: 0.000385
PSCL3 TRANSLATION FROM L1D PREFETCHER ACCESS:     197181  HIT:     197181  MISS:          0  HIT %:        100  MISS %:          0   MPKI: 0
PSCL3 PREFETCH  REQUESTED:          0  ISSUED:          0  USEFUL:          0  USELESS:          0
PSCL3 USEFUL LOAD PREFETCHES:          0 PREFETCH ISSUED TO LOWER LEVEL:          0  ACCURACY: -nan
PSCL3 TIMELY PREFETCHES:          0 LATE PREFETCHES: 0 DROPPED PREFETCHES: 0
PSCL3 PREFETCHES SAME FILL-ORIGIN LEVEL: 0 DIFFERENT FILL-ORIGIN LEVEL: 0

PSCL2 TOTAL     ACCESS:     194900  HIT:     193990  MISS:        910  HIT %:    99.5331  MISS %:   0.466906   MPKI: 0.00455
PSCL2 LOAD TRANSLATION ACCESS:      28364  HIT:      27454  MISS:        910  HIT %:    96.7917  MISS %:    3.20829   MPKI: 0.00455
PSCL2 TRANSLATION FROM L1D PREFETCHER ACCESS:     166536  HIT:     166536  MISS:          0  HIT %:        100  MISS %:          0   MPKI: 0
PSCL2 PREFETCH  REQUESTED:          0  ISSUED:          0  USEFUL:          0  USELESS:          0
PSCL2 USEFUL LOAD PREFETCHES:          0 PREFETCH ISSUED TO LOWER LEVEL:          0  ACCURACY: -nan
PSCL2 TIMELY PREFETCHES:          0 LATE PREFETCHES: 0 DROPPED PREFETCHES: 0
PSCL2 PREFETCHES SAME FILL-ORIGIN LEVEL: 0 DIFFERENT FILL-ORIGIN LEVEL: 0

LLC TOTAL     ACCESS:    1869488  HIT:    1865304  MISS:       4184  HIT %:    99.7762  MISS %:   0.223805   MPKI: 0.02092
LLC LOAD      ACCESS:    1340161  HIT:    1337484  MISS:       2677  HIT %:    99.8002  MISS %:   0.199752   MPKI: 0.013385
LLC RFO       ACCESS:      73645  HIT:      73376  MISS:        269  HIT %:    99.6347  MISS %:   0.365266   MPKI: 0.001345
LLC PREFETCH  ACCESS:     306776  HIT:     305613  MISS:       1163  HIT %:    99.6209  MISS %:   0.379104   MPKI: 0.005815
AGUS PREFETCH L1 MISS: 0
LLC WRITEBACK ACCESS:     135212  HIT:     135187  MISS:         25  HIT %:    99.9815  MISS %:  0.0184895   MPKI: 0.000125
LLC LOAD TRANSLATION ACCESS:      11456  HIT:      11411  MISS:         45  HIT %:    99.6072  MISS %:   0.392807   MPKI: 0.000225
LLC TRANSLATION FROM L1D PREFETCHER ACCESS:       2238  HIT:       2233  MISS:          5  HIT %:    99.7766  MISS %:   0.223414   MPKI: 2.5e-05
LLC PREFETCH  REQUESTED:          0  ISSUED:          0  USEFUL:        175  USELESS:        746
LLC USEFUL LOAD PREFETCHES:        175 PREFETCH ISSUED TO LOWER LEVEL:       1163  ACCURACY: 15.0473
LLC TIMELY PREFETCHES:        175 LATE PREFETCHES: 0 DROPPED PREFETCHES: 0
LLC PREFETCHES SAME FILL-ORIGIN LEVEL: 0 DIFFERENT FILL-ORIGIN LEVEL: 0
LLC AVERAGE MISS LATENCY: 153.992 cycles
LLC RQ	ACCESS:    1427505	FORWARD:          0	MERGED:          0	TO_CACHE:    1427500
LLC WQ	ACCESS:     135212	FORWARD:          5	MERGED:          0	TO_CACHE:     135212
LLC PQ	ACCESS:     306776	FORWARD:          0	MERGED:          0	TO_CACHE:     306776

LLC Dense regions hint to LLC: 0

RAW hits: 1485331
Loads Generated: 47968906
Loads sent to L1D: 46483575
Stores Generated: 26586297
Stores sent to L1D: 26586297
Major fault: 0 Minor fault: 1825
Allocated PAGES: 1825
ucb ended
-----------------------------------------------------------------------------------------------------------------------------------------------------------------------------------------------------
Offsets elements: -63 -62 -61 -60 -59 -58 -57 -56 -55 -54 -53 -52 -51 -50 -49 -48 -47 -46 -45 -44 -43 -42 -41 -40 -39 -38 -37 -36 -35 -34 -33 -32 -31 -30 -29 -28 -27 -26 -25 -24 -23 -22 -21 -20 -19 -18 -17 -16 -15 -14 -13 -12 -11 -10 -9 -8 -7 -6 -5 -4 -3 -2 -1 1 2 3 4 5 6 7 8 9 10 11 12 13 14 15 16 17 18 19 20 21 22 23 24 25 26 27 28 29 30 31 32 33 34 35 36 37 38 39 40 41 42 43 44 45 46 47 48 49 50 51 52 53 54 55 56 57 58 59 60 61 62 63 
Potential of Offsets elements: 48.5298 142.53 36.5298 52.5298 82.5298 28.5298 29.5298 28.5298 28.5298 64.5298 53.5298 109.53 100.53 54.5298 33.5298 30.5298 28.5298 58.5298 139.53 166.53 243.53 176.53 39.5298 37.5298 34.5298 50.5298 84.5298 33.5298 29.5298 28.5298 335.53 130.53 436.53 64.5298 94.5298 169.53 432.53 114.53 102.53 54.5298 62.5298 81.5298 108.53 95.5298 283.53 101.53 269.53 49.5298 158.53 29.5298 265.53 115.53 430.53 132.53 310.53 72.5298 466.53 721.53 345.53 607.53 1079.36 1163.1 632.53 533.53 843.53 424.53 516.53 233.53 362.53 334.53 303.53 305.53 204.53 63.5298 637.53 118.53 118.53 255.53 246.53 225.53 77.5298 47.5298 61.5298 109.53 28.5298 30.5298 40.5298 52.5298 57.5298 35.5298 80.5298 278.53 259.53 286.53 182.53 48.5298 29.5298 37.5298 68.5298 28.5298 34.5298 60.5298 55.5298 283.53 40.5298 147.53 52.5298 551.53 63.5298 30.5298 28.5298 51.5298 77.5298 62.5298 116.53 31.5298 350.53 95.5298 28.5298 29.5298 76.5298 28.5298 118.53 31.5298 28.5298 28.5298 
rewards of Offsets elements: 20 114 8 24 54 0 1 0 0 36 25 81 72 26 5 2 0 30 111 138 215 148 11 9 6 22 56 5 1 0 307 102 408 36 66 141 404 86 74 26 34 53 80 67 255 73 241 21 130 1 237 87 402 104 282 44 438 693 317 579 1078 1163 604 505 815 396 488 205 334 306 275 277 176 35 609 90 90 227 218 197 49 19 33 81 0 2 12 24 29 7 52 250 231 258 154 20 1 9 40 0 6 32 27 255 12 119 24 523 35 2 0 23 49 34 88 3 322 67 0 1 48 0 90 3 0 0 Printing Sanity2
offset_index value126
offset list size126
reward size126
potential size126
-----------------------------------------------------------------------------------------------------------------------------------------------------------------------------------------------------

DRAM Statistics
 CHANNEL 0
 RQ ROW_BUFFER_HIT:        654  ROW_BUFFER_MISS:       3505
 DBUS_CONGESTED:          1
 WQ ROW_BUFFER_HIT:         17  ROW_BUFFER_MISS:        362  FULL:          0

 AVG_CONGESTED_CYCLE: 6
 All warmup complete: 2
Channel 0 Bank busy for read cycles: 0
Channel 0 Bank busy for write cycles: 0
Channel 0
Rank 0
0banks busy for read cycles: 646875160
0banks busy for write cycles: 305
1banks busy for read cycles: 326566
1banks busy for write cycles: 41746
2banks busy for read cycles: 61590
2banks busy for write cycles: 6543
3banks busy for read cycles: 20030
3banks busy for write cycles: 841
4banks busy for read cycles: 7956
4banks busy for write cycles: 780
5banks busy for read cycles: 2019
5banks busy for write cycles: 81
6banks busy for read cycles: 717
6banks busy for write cycles: 131
7banks busy for read cycles: 343
7banks busy for write cycles: 0
8banks busy for read cycles: 0
8banks busy for write cycles: 0

CPU 0 Branch Prediction Accuracy: 99.883% MPKI: 0.21111 Average ROB Occupancy at Mispredict: 29.1306
Branch types
NOT_BRANCH: 163917785 81.9589%
BRANCH_DIRECT_JUMP: 1879118 0.939559%
BRANCH_INDIRECT: 12151413 6.07571%
BRANCH_CONDITIONAL: 12872310 6.43616%
BRANCH_DIRECT_CALL: 3871933 1.93597%
BRANCH_INDIRECT_CALL: 717697 0.358849%
BRANCH_RETURN: 4589650 2.29482%
BRANCH_OTHER: 0 0%

DRAM PAGES: 1048576
Allocated PAGES: 1825
