
*** ChampSim Multicore Out-of-Order Simulator ***

Warmup Instructions: 50000000
Simulation Instructions: 200000000
Number of CPUs: 1
LLC sets: 2048
LLC ways: 16
Off-chip DRAM Size: 4096 MB Channels: 1 Width: 64-bit Data Rate: 6400 MT/s
CPU 0 runs traces/spec2k17/srv_64.champsimtrace.xz
.xz
BTB has LRU replacement policy
ITLB has LRU replacement policy
DTLB has LRU replacement policy
STLB has LRU replacement policy
L1I has LRU replacement policy
L1D has LRU replacement policy
Initialize SRRIP state for L2C
Initialize DRRIP state for LLC
Offsets elements: -63 -62 -61 -60 -59 -58 -57 -56 -55 -54 -53 -52 -51 -50 -49 -48 -47 -46 -45 -44 -43 -42 -41 -40 -39 -38 -37 -36 -35 -34 -33 -32 -31 -30 -29 -28 -27 -26 -25 -24 -23 -22 -21 -20 -19 -18 -17 -16 -15 -14 -13 -12 -11 -10 -9 -8 -7 -6 -5 -4 -3 -2 -1 1 2 3 4 5 6 7 8 9 10 11 12 13 14 15 16 17 18 19 20 21 22 23 24 25 26 27 28 29 30 31 32 33 34 35 36 37 38 39 40 41 42 43 44 45 46 47 48 49 50 51 52 53 54 55 56 57 58 59 60 61 62 63 
Potential of Offsets elements: 
rewards of Offsets elements: 0 0 0 0 0 0 0 0 0 0 0 4 0 0 0 0 0 0 0 0 0 0 0 0 32 1 28 120 646 372 480 642 1193 702 338 220 20 0 236 189 5 266 641 93 0 38 10 10 9 0 2 778 542 1912 595 16 453 186 357 1126 459 820 1039 799 615 827 1058 465 512 299 325 64 72 25 94 20 2 0 0 42 20 21 1 0 0 0 0 0 0 0 9 8 0 13 0 137 14 0 0 0 0 0 0 0 1 3 2 112 0 0 0 0 0 2 28 2 0 158 1162 696 140 49 360 96 73 72 
Printing Sanity1
Heartbeat CPU 0 instructions: 10000003 cycles: 2783861 heartbeat IPC: 3.59213 cumulative IPC: 3.59213 (Simulation time: 0 hr 0 min 27 sec) 
Heartbeat CPU 0 instructions: 20000001 cycles: 5565264 heartbeat IPC: 3.59531 cumulative IPC: 3.59372 (Simulation time: 0 hr 0 min 53 sec) 
Heartbeat CPU 0 instructions: 30000000 cycles: 8346876 heartbeat IPC: 3.59504 cumulative IPC: 3.59416 (Simulation time: 0 hr 1 min 20 sec) 
*** Reached end of trace for Core: 0 Repeating trace: traces/spec2k17/srv_64.champsimtrace.xz
Heartbeat CPU 0 instructions: 40000003 cycles: 11126890 heartbeat IPC: 3.59711 cumulative IPC: 3.5949 (Simulation time: 0 hr 1 min 49 sec) 
Heartbeat CPU 0 instructions: 50000001 cycles: 13907616 heartbeat IPC: 3.59618 cumulative IPC: 3.59515 (Simulation time: 0 hr 2 min 29 sec) 

Warmup complete CPU 0 instructions: 50000001 cycles: 13907616 (Simulation time: 0 hr 2 min 29 sec) 

Heartbeat CPU 0 instructions: 60000000 cycles: 36570475 heartbeat IPC: 0.441251 cumulative IPC: 0.441251 (Simulation time: 0 hr 3 min 26 sec) 
*** Reached end of trace for Core: 0 Repeating trace: traces/spec2k17/srv_64.champsimtrace.xz
Heartbeat CPU 0 instructions: 70000001 cycles: 58903087 heartbeat IPC: 0.447776 cumulative IPC: 0.444489 (Simulation time: 0 hr 4 min 5 sec) 
Heartbeat CPU 0 instructions: 80000002 cycles: 80929622 heartbeat IPC: 0.453998 cumulative IPC: 0.447614 (Simulation time: 0 hr 4 min 44 sec) 
Heartbeat CPU 0 instructions: 90000000 cycles: 103552887 heartbeat IPC: 0.442023 cumulative IPC: 0.446203 (Simulation time: 0 hr 5 min 23 sec) 
*** Reached end of trace for Core: 0 Repeating trace: traces/spec2k17/srv_64.champsimtrace.xz
Heartbeat CPU 0 instructions: 100000000 cycles: 126014566 heartbeat IPC: 0.445203 cumulative IPC: 0.446003 (Simulation time: 0 hr 6 min 1 sec) 
Heartbeat CPU 0 instructions: 110000000 cycles: 148098886 heartbeat IPC: 0.45281 cumulative IPC: 0.447123 (Simulation time: 0 hr 6 min 40 sec) 
Heartbeat CPU 0 instructions: 120000000 cycles: 170558387 heartbeat IPC: 0.445246 cumulative IPC: 0.446854 (Simulation time: 0 hr 7 min 18 sec) 
*** Reached end of trace for Core: 0 Repeating trace: traces/spec2k17/srv_64.champsimtrace.xz
Heartbeat CPU 0 instructions: 130000003 cycles: 192948629 heartbeat IPC: 0.446623 cumulative IPC: 0.446825 (Simulation time: 0 hr 7 min 56 sec) 
Heartbeat CPU 0 instructions: 140000003 cycles: 214954546 heartbeat IPC: 0.454423 cumulative IPC: 0.447657 (Simulation time: 0 hr 8 min 32 sec) 
Heartbeat CPU 0 instructions: 150000000 cycles: 237555465 heartbeat IPC: 0.44246 cumulative IPC: 0.447132 (Simulation time: 0 hr 9 min 8 sec) 
*** Reached end of trace for Core: 0 Repeating trace: traces/spec2k17/srv_64.champsimtrace.xz
Heartbeat CPU 0 instructions: 160000003 cycles: 259913964 heartbeat IPC: 0.447257 cumulative IPC: 0.447143 (Simulation time: 0 hr 9 min 51 sec) 
Heartbeat CPU 0 instructions: 170000003 cycles: 281962234 heartbeat IPC: 0.45355 cumulative IPC: 0.44767 (Simulation time: 0 hr 10 min 27 sec) 
Heartbeat CPU 0 instructions: 180000000 cycles: 304430958 heartbeat IPC: 0.445063 cumulative IPC: 0.447468 (Simulation time: 0 hr 11 min 3 sec) 
*** Reached end of trace for Core: 0 Repeating trace: traces/spec2k17/srv_64.champsimtrace.xz
Heartbeat CPU 0 instructions: 190000001 cycles: 326833780 heartbeat IPC: 0.446372 cumulative IPC: 0.44739 (Simulation time: 0 hr 11 min 39 sec) 
Heartbeat CPU 0 instructions: 200000001 cycles: 349032331 heartbeat IPC: 0.45048 cumulative IPC: 0.447595 (Simulation time: 0 hr 12 min 16 sec) 
Heartbeat CPU 0 instructions: 210000002 cycles: 371394171 heartbeat IPC: 0.44719 cumulative IPC: 0.447569 (Simulation time: 0 hr 12 min 52 sec) 
*** Reached end of trace for Core: 0 Repeating trace: traces/spec2k17/srv_64.champsimtrace.xz
Heartbeat CPU 0 instructions: 220000000 cycles: 393942524 heartbeat IPC: 0.443491 cumulative IPC: 0.447327 (Simulation time: 0 hr 13 min 28 sec) 
Heartbeat CPU 0 instructions: 230000002 cycles: 416017498 heartbeat IPC: 0.453002 cumulative IPC: 0.447639 (Simulation time: 0 hr 14 min 4 sec) 
Heartbeat CPU 0 instructions: 240000002 cycles: 438224230 heartbeat IPC: 0.450314 cumulative IPC: 0.447779 (Simulation time: 0 hr 14 min 39 sec) 
*** Reached end of trace for Core: 0 Repeating trace: traces/spec2k17/srv_64.champsimtrace.xz
Heartbeat CPU 0 instructions: 250000002 cycles: 460679742 heartbeat IPC: 0.445325 cumulative IPC: 0.447655 (Simulation time: 0 hr 15 min 14 sec) 
Finished CPU 0 instructions: 200000001 cycles: 446772126 cumulative IPC: 0.447655 (Simulation time: 0 hr 15 min 14 sec) 

ChampSim completed all CPUs

Region of Interest Statistics

CPU 0 cumulative IPC: 0.447655 instructions: 200000001 cycles: 446772126
ITLB TOTAL     ACCESS:   31181068  HIT:   30380308  MISS:     800760  HIT %:    97.4319  MISS %:     2.5681   MPKI: 4.0038
ITLB LOAD TRANSLATION ACCESS:   31181068  HIT:   30380308  MISS:     800760  HIT %:    97.4319  MISS %:     2.5681   MPKI: 4.0038
ITLB PREFETCH  REQUESTED:          0  ISSUED:          0  USEFUL:          0  USELESS:          0
ITLB USEFUL LOAD PREFETCHES:          0 PREFETCH ISSUED TO LOWER LEVEL:          0  ACCURACY: -nan
ITLB TIMELY PREFETCHES:          0 LATE PREFETCHES: 0 DROPPED PREFETCHES: 0
ITLB PREFETCHES SAME FILL-ORIGIN LEVEL: 0 DIFFERENT FILL-ORIGIN LEVEL: 0
ITLB AVERAGE MISS LATENCY: 14.0039 cycles
ITLB RQ	ACCESS:   38104920	FORWARD:          0	MERGED:    6721787	TO_CACHE:   31383133

DTLB TOTAL     ACCESS:   36969511  HIT:   34364519  MISS:    2604992  HIT %:    92.9537  MISS %:    7.04633   MPKI: 13.025
DTLB LOAD TRANSLATION ACCESS:   36969511  HIT:   34364519  MISS:    2604992  HIT %:    92.9537  MISS %:    7.04633   MPKI: 13.025
DTLB PREFETCH  REQUESTED:          0  ISSUED:          0  USEFUL:          0  USELESS:          0
DTLB USEFUL LOAD PREFETCHES:          0 PREFETCH ISSUED TO LOWER LEVEL:          0  ACCURACY: -nan
DTLB TIMELY PREFETCHES:          0 LATE PREFETCHES: 0 DROPPED PREFETCHES: 0
DTLB PREFETCHES SAME FILL-ORIGIN LEVEL: 0 DIFFERENT FILL-ORIGIN LEVEL: 0
DTLB AVERAGE MISS LATENCY: 13.8662 cycles
DTLB RQ	ACCESS:   47347474	FORWARD:          0	MERGED:   10229907	TO_CACHE:   37117567

STLB TOTAL     ACCESS:    8933789  HIT:    8602582  MISS:     331207  HIT %:    96.2926  MISS %:    3.70735   MPKI: 1.65603
STLB LOAD TRANSLATION ACCESS:    3405752  HIT:    3083687  MISS:     322065  HIT %:    90.5435  MISS %:     9.4565   MPKI: 1.61032
STLB TRANSLATION FROM L1D PREFETCHER ACCESS:    5528037  HIT:    5518895  MISS:       9142  HIT %:    99.8346  MISS %:   0.165375   MPKI: 0.04571
STLB PREFETCH  REQUESTED:          0  ISSUED:          0  USEFUL:       7901  USELESS:       1242
STLB USEFUL LOAD PREFETCHES:       7901 PREFETCH ISSUED TO LOWER LEVEL:          0  ACCURACY: inf
STLB TIMELY PREFETCHES:       7901 LATE PREFETCHES: 16 DROPPED PREFETCHES: 1093959
STLB PREFETCHES SAME FILL-ORIGIN LEVEL: 0 DIFFERENT FILL-ORIGIN LEVEL: 0
STLB AVERAGE MISS LATENCY: 51.0463 cycles
STLB RQ	ACCESS:   24585993	FORWARD:          0	MERGED:   14503901	TO_CACHE:   10082092

STLB Hit, L1D data hit: 0
STLB Hit, L2C data hit: 0
STLB Hit, LLC data hit: 0
STLB Hit, LLC data miss: 0
STLB STLB hints to L2: 0
L1D TOTAL     ACCESS:   64282776  HIT:   59574993  MISS:    4707783  HIT %:    92.6764  MISS %:    7.32355   MPKI: 23.5389
L1D LOAD      ACCESS:   27363461  HIT:   24964854  MISS:    2398607  HIT %:    91.2343  MISS %:    8.76573   MPKI: 11.993
L1D RFO       ACCESS:   19410398  HIT:   19059396  MISS:     351002  HIT %:    98.1917  MISS %:    1.80832   MPKI: 1.75501
L1D PREFETCH  ACCESS:   17508917  HIT:   15550743  MISS:    1958174  HIT %:    88.8161  MISS %:    11.1839   MPKI: 9.79087
AGUS PREFETCH L1 MISS: 0
L1D PREFETCH  REQUESTED:   53933757  ISSUED:   53914513  USEFUL:      66423  USELESS:    1891739
L1D USEFUL LOAD PREFETCHES:      66423 PREFETCH ISSUED TO LOWER LEVEL:    1958327  ACCURACY: 3.39182
L1D TIMELY PREFETCHES:      66423 LATE PREFETCHES: 153 DROPPED PREFETCHES: 3578437
L1D PREFETCHES SAME FILL-ORIGIN LEVEL: 1958327 DIFFERENT FILL-ORIGIN LEVEL: 0
L1D AVERAGE MISS LATENCY: 7811.52 cycles
L1D RQ	ACCESS:   41962034	FORWARD:          0	MERGED:   14220657	TO_CACHE:   27519198
L1D WQ	ACCESS:   20142213	FORWARD:     222208	MERGED:     313937	TO_CACHE:   19828276
L1D PQ	ACCESS:   32734272	FORWARD:          0	MERGED:   11554002	TO_CACHE:   21180241

L1D UNIQUE REGIONS ACCESSED: 0
L1D REGIONS CONFLICTS: 0
L1D Cross Page Prefetch Requests: 23254332
L1D Same Page Prefetch Requests: 18888203
L1D ROI Sum of L1D PQ occupancy: 384477766
L1D PREFETCHES PUSHED FROM L2C: 0
L1I TOTAL     ACCESS:   36266604  HIT:   31138928  MISS:    5127676  HIT %:    85.8612  MISS %:    14.1388   MPKI: 25.6384
L1I LOAD      ACCESS:   36266604  HIT:   31138928  MISS:    5127676  HIT %:    85.8612  MISS %:    14.1388   MPKI: 25.6384
L1I PREFETCH  REQUESTED:          0  ISSUED:          0  USEFUL:          0  USELESS:          0
L1I USEFUL LOAD PREFETCHES:          0 PREFETCH ISSUED TO LOWER LEVEL:          0  ACCURACY: -nan
L1I TIMELY PREFETCHES:          0 LATE PREFETCHES: 0 DROPPED PREFETCHES: 0
L1I PREFETCHES SAME FILL-ORIGIN LEVEL: 0 DIFFERENT FILL-ORIGIN LEVEL: 0
L1I AVERAGE MISS LATENCY: 27.4722 cycles
L1I RQ	ACCESS:   57092716	FORWARD:          0	MERGED:   18987796	TO_CACHE:   38104920

BTB TOTAL     ACCESS:   22126819  HIT:   17903556  MISS:    4223263  HIT %:    80.9134  MISS %:    19.0866   MPKI: 21.1163
BTB BRANCH_DIRECT_JUMP	ACCESS:    1749818  HIT:    1515945  MISS:     233873
BTB BRANCH_INDIRECT	ACCESS:    9526517  HIT:    7477995  MISS:    2048522
BTB BRANCH_CONDITIONAL	ACCESS:    4523785  HIT:    4140511  MISS:     383274
BTB BRANCH_DIRECT_CALL	ACCESS:    2479596  HIT:    2022582  MISS:     457014
BTB BRANCH_INDIRECT_CALL	ACCESS:     683372  HIT:     643593  MISS:      39779
BTB BRANCH_RETURN	ACCESS:    3163731  HIT:    2102930  MISS:    1060801
BTB BRANCH_OTHER ACCESS:          0  HIT:          0  MISS:          0

L2C TOTAL     ACCESS:   13098608  HIT:    8545697  MISS:    4552911  HIT %:    65.2413  MISS %:    34.7587   MPKI: 22.7646
L2C LOAD      ACCESS:    7526029  HIT:    4259760  MISS:    3266269  HIT %:    56.6004  MISS %:    43.3996   MPKI: 16.3313
L2C DATA LOAD MPKI: 5.20248
L2C INSTRUCTION LOAD MPKI: 11.1289
L2C RFO       ACCESS:     350946  HIT:     196512  MISS:     154434  HIT %:    55.9949  MISS %:    44.0051   MPKI: 0.77217
L2C PREFETCH  ACCESS:    1958320  HIT:    1092161  MISS:     866159  HIT %:    55.7703  MISS %:    44.2297   MPKI: 4.33079
AGUS PREFETCH L1 MISS: 0
L2C DATA PREFETCH MPKI: 4.33079
L2C INSTRUCTION PREFETCH MPKI: 0
L2C WRITEBACK ACCESS:    1110843  HIT:    1060963  MISS:      49880  HIT %:    95.5097  MISS %:    4.49028   MPKI: 0.2494
L2C LOAD TRANSLATION ACCESS:     426810  HIT:     232694  MISS:     194116  HIT %:    54.5193  MISS %:    45.4807   MPKI: 0.97058
L2C TRANSLATION FROM L1D PREFETCHER ACCESS:    1725660  HIT:    1703607  MISS:      22053  HIT %:    98.7221  MISS %:    1.27795   MPKI: 0.110265
L2C PREFETCH  REQUESTED:          0  ISSUED:          0  USEFUL:      24525  USELESS:     863564
L2C USEFUL LOAD PREFETCHES:      24525 PREFETCH ISSUED TO LOWER LEVEL:     866159  ACCURACY: 2.83147
L2C TIMELY PREFETCHES:      24525 LATE PREFETCHES: 0 DROPPED PREFETCHES: 0
L2C PREFETCHES SAME FILL-ORIGIN LEVEL: 0 DIFFERENT FILL-ORIGIN LEVEL: 0
L2C AVERAGE MISS LATENCY: 42.0865 cycles
L2C RQ	ACCESS:   10029602	FORWARD:          0	MERGED:          0	TO_CACHE:   10029445
L2C WQ	ACCESS:    1110843	FORWARD:        164	MERGED:          0	TO_CACHE:    1110843
L2C PQ	ACCESS:    1958327	FORWARD:          0	MERGED:          0	TO_CACHE:    1958320

L2C Instructions Evicting Data 1032484
L2C Translations Evicting Data 101134
L2C Data Evicting Data 955040
L2C Instructions Evicting Instructions 1087014
L2C Translations Evicting Instructions 106219
L2C Data Evicting Instructions 1007587
L2C Instructions Evicting Translations 106274
L2C Translations Evicting Translations 8816
L2C Data Evicting Translations 98463
L2C Dense regions hint from L2: 0
PSCL5 TOTAL     ACCESS:    1425166  HIT:    1425166  MISS:          0  HIT %:        100  MISS %:          0   MPKI: 0
PSCL5 LOAD TRANSLATION ACCESS:     322049  HIT:     322049  MISS:          0  HIT %:        100  MISS %:          0   MPKI: 0
PSCL5 TRANSLATION FROM L1D PREFETCHER ACCESS:    1103117  HIT:    1103117  MISS:          0  HIT %:        100  MISS %:          0   MPKI: 0
PSCL5 PREFETCH  REQUESTED:          0  ISSUED:          0  USEFUL:          0  USELESS:          0
PSCL5 USEFUL LOAD PREFETCHES:          0 PREFETCH ISSUED TO LOWER LEVEL:          0  ACCURACY: -nan
PSCL5 TIMELY PREFETCHES:          0 LATE PREFETCHES: 0 DROPPED PREFETCHES: 0
PSCL5 PREFETCHES SAME FILL-ORIGIN LEVEL: 0 DIFFERENT FILL-ORIGIN LEVEL: 0

PSCL4 TOTAL     ACCESS:    1312859  HIT:    1311360  MISS:       1499  HIT %:    99.8858  MISS %:   0.114178   MPKI: 0.007495
PSCL4 LOAD TRANSLATION ACCESS:     316396  HIT:     314897  MISS:       1499  HIT %:    99.5262  MISS %:   0.473773   MPKI: 0.007495
PSCL4 TRANSLATION FROM L1D PREFETCHER ACCESS:     996463  HIT:     996463  MISS:          0  HIT %:        100  MISS %:          0   MPKI: 0
PSCL4 PREFETCH  REQUESTED:          0  ISSUED:          0  USEFUL:          0  USELESS:          0
PSCL4 USEFUL LOAD PREFETCHES:          0 PREFETCH ISSUED TO LOWER LEVEL:          0  ACCURACY: -nan
PSCL4 TIMELY PREFETCHES:          0 LATE PREFETCHES: 0 DROPPED PREFETCHES: 0
PSCL4 PREFETCHES SAME FILL-ORIGIN LEVEL: 0 DIFFERENT FILL-ORIGIN LEVEL: 0

PSCL3 TOTAL     ACCESS:    1420884  HIT:    1419385  MISS:       1499  HIT %:    99.8945  MISS %:   0.105498   MPKI: 0.007495
PSCL3 LOAD TRANSLATION ACCESS:     321027  HIT:     319528  MISS:       1499  HIT %:    99.5331  MISS %:   0.466939   MPKI: 0.007495
PSCL3 TRANSLATION FROM L1D PREFETCHER ACCESS:    1099857  HIT:    1099857  MISS:          0  HIT %:        100  MISS %:          0   MPKI: 0
PSCL3 PREFETCH  REQUESTED:          0  ISSUED:          0  USEFUL:          0  USELESS:          0
PSCL3 USEFUL LOAD PREFETCHES:          0 PREFETCH ISSUED TO LOWER LEVEL:          0  ACCURACY: -nan
PSCL3 TIMELY PREFETCHES:          0 LATE PREFETCHES: 0 DROPPED PREFETCHES: 0
PSCL3 PREFETCHES SAME FILL-ORIGIN LEVEL: 0 DIFFERENT FILL-ORIGIN LEVEL: 0

PSCL2 TOTAL     ACCESS:     805936  HIT:     702521  MISS:     103415  HIT %:    87.1683  MISS %:    12.8317   MPKI: 0.517075
PSCL2 LOAD TRANSLATION ACCESS:     323701  HIT:     220286  MISS:     103415  HIT %:    68.0523  MISS %:    31.9477   MPKI: 0.517075
PSCL2 TRANSLATION FROM L1D PREFETCHER ACCESS:     482235  HIT:     482235  MISS:          0  HIT %:        100  MISS %:          0   MPKI: 0
PSCL2 PREFETCH  REQUESTED:          0  ISSUED:          0  USEFUL:          0  USELESS:          0
PSCL2 USEFUL LOAD PREFETCHES:          0 PREFETCH ISSUED TO LOWER LEVEL:          0  ACCURACY: -nan
PSCL2 TIMELY PREFETCHES:          0 LATE PREFETCHES: 0 DROPPED PREFETCHES: 0
PSCL2 PREFETCHES SAME FILL-ORIGIN LEVEL: 0 DIFFERENT FILL-ORIGIN LEVEL: 0

LLC TOTAL     ACCESS:    4994884  HIT:    4617163  MISS:     377721  HIT %:    92.4378  MISS %:    7.56216   MPKI: 1.8886
LLC LOAD      ACCESS:    3266264  HIT:    3019563  MISS:     246701  HIT %:     92.447  MISS %:      7.553   MPKI: 1.2335
LLC RFO       ACCESS:     154434  HIT:     105737  MISS:      48697  HIT %:    68.4674  MISS %:    31.5326   MPKI: 0.243485
LLC PREFETCH  ACCESS:     866156  HIT:     801441  MISS:      64715  HIT %:    92.5285  MISS %:    7.47152   MPKI: 0.323575
AGUS PREFETCH L1 MISS: 0
LLC WRITEBACK ACCESS:     491861  HIT:     489672  MISS:       2189  HIT %:     99.555  MISS %:   0.445044   MPKI: 0.010945
LLC LOAD TRANSLATION ACCESS:     194116  HIT:     179339  MISS:      14777  HIT %:    92.3875  MISS %:    7.61246   MPKI: 0.073885
LLC TRANSLATION FROM L1D PREFETCHER ACCESS:      22053  HIT:      21411  MISS:        642  HIT %:    97.0888  MISS %:    2.91117   MPKI: 0.00321
LLC PREFETCH  REQUESTED:          0  ISSUED:          0  USEFUL:       1537  USELESS:      63874
LLC USEFUL LOAD PREFETCHES:       1537 PREFETCH ISSUED TO LOWER LEVEL:      64715  ACCURACY: 2.37503
LLC TIMELY PREFETCHES:       1537 LATE PREFETCHES: 0 DROPPED PREFETCHES: 0
LLC PREFETCHES SAME FILL-ORIGIN LEVEL: 0 DIFFERENT FILL-ORIGIN LEVEL: 0
LLC AVERAGE MISS LATENCY: 149.643 cycles
LLC RQ	ACCESS:    3636872	FORWARD:          0	MERGED:          0	TO_CACHE:    3636867
LLC WQ	ACCESS:     491861	FORWARD:          8	MERGED:          0	TO_CACHE:     491861
LLC PQ	ACCESS:     866159	FORWARD:          0	MERGED:          0	TO_CACHE:     866156

LLC Dense regions hint to LLC: 0

RAW hits: 2847283
Loads Generated: 44809315
Loads sent to L1D: 41962034
Stores Generated: 20142203
Stores sent to L1D: 20142213
Major fault: 0 Minor fault: 5806
Allocated PAGES: 5806
ucb ended
-----------------------------------------------------------------------------------------------------------------------------------------------------------------------------------------------------
Offsets elements: -63 -62 -61 -60 -59 -58 -57 -56 -55 -54 -53 -52 -51 -50 -49 -48 -47 -46 -45 -44 -43 -42 -41 -40 -39 -38 -37 -36 -35 -34 -33 -32 -31 -30 -29 -28 -27 -26 -25 -24 -23 -22 -21 -20 -19 -18 -17 -16 -15 -14 -13 -12 -11 -10 -9 -8 -7 -6 -5 -4 -3 -2 -1 1 2 3 4 5 6 7 8 9 10 11 12 13 14 15 16 17 18 19 20 21 22 23 24 25 26 27 28 29 30 31 32 33 34 35 36 37 38 39 40 41 42 43 44 45 46 47 48 49 50 51 52 53 54 55 56 57 58 59 60 61 62 63 
Potential of Offsets elements: 28.29 28.29 28.29 28.29 28.29 28.29 28.29 28.29 28.29 28.29 28.29 32.29 28.29 28.29 28.29 28.29 28.29 28.29 28.29 28.29 28.29 28.29 28.29 28.29 60.29 29.29 56.29 148.29 674.29 400.29 508.29 670.29 1193.11 730.29 366.29 248.29 48.29 28.29 264.29 217.29 33.29 294.29 669.29 121.29 28.29 66.29 38.29 38.29 37.29 28.29 30.29 806.29 570.29 13.6517 623.29 44.29 481.29 214.29 385.29 1154.29 487.29 848.29 1067.29 827.29 643.29 855.29 1086.29 493.29 540.29 327.29 353.29 92.29 100.29 53.29 122.29 48.29 30.29 28.29 28.29 70.29 48.29 49.29 29.29 28.29 28.29 28.29 28.29 28.29 28.29 28.29 37.29 36.29 28.29 41.29 28.29 165.29 42.29 28.29 28.29 28.29 28.29 28.29 28.29 28.29 29.29 31.29 30.29 140.29 28.29 28.29 28.29 28.29 28.29 30.29 56.29 30.29 28.29 186.29 1190.29 724.29 168.29 77.29 388.29 124.29 101.29 100.29 
rewards of Offsets elements: 0 0 0 0 0 0 0 0 0 0 0 4 0 0 0 0 0 0 0 0 0 0 0 0 32 1 28 120 646 372 480 642 1193 702 338 220 20 0 236 189 5 266 641 93 0 38 10 10 9 0 2 778 542 1 595 16 453 186 357 1126 459 820 1039 799 615 827 1058 465 512 299 325 64 72 25 94 20 2 0 0 42 20 21 1 0 0 0 0 0 0 0 9 8 0 13 0 137 14 0 0 0 0 0 0 0 1 3 2 112 0 0 0 0 0 2 28 2 0 158 1162 696 140 49 360 96 73 72 Printing Sanity2
offset_index value126
offset list size126
reward size126
potential size126
-----------------------------------------------------------------------------------------------------------------------------------------------------------------------------------------------------

DRAM Statistics
 CHANNEL 0
 RQ ROW_BUFFER_HIT:      97272  ROW_BUFFER_MISS:     278260
 DBUS_CONGESTED:        235
 WQ ROW_BUFFER_HIT:      32873  ROW_BUFFER_MISS:     184516  FULL:          0

 AVG_CONGESTED_CYCLE: 4
 All warmup complete: 2
Channel 0 Bank busy for read cycles: 0
Channel 0 Bank busy for write cycles: 0
Channel 0
Rank 0
0banks busy for read cycles: 388595015
0banks busy for write cycles: 109110
1banks busy for read cycles: 27178463
1banks busy for write cycles: 15261816
2banks busy for read cycles: 4892583
2banks busy for write cycles: 3727584
3banks busy for read cycles: 1713275
3banks busy for write cycles: 1563957
4banks busy for read cycles: 504251
4banks busy for write cycles: 962954
5banks busy for read cycles: 189148
5banks busy for write cycles: 689171
6banks busy for read cycles: 111158
6banks busy for write cycles: 510083
7banks busy for read cycles: 56630
7banks busy for write cycles: 370581
8banks busy for read cycles: 59295
8banks busy for write cycles: 277053

CPU 0 Branch Prediction Accuracy: 99.8723% MPKI: 0.229165 Average ROB Occupancy at Mispredict: 59.9707
Branch types
NOT_BRANCH: 164119085 82.0595%
BRANCH_DIRECT_JUMP: 1749818 0.874909%
BRANCH_INDIRECT: 9526517 4.76326%
BRANCH_CONDITIONAL: 18277802 9.1389%
BRANCH_DIRECT_CALL: 2479596 1.2398%
BRANCH_INDIRECT_CALL: 683372 0.341686%
BRANCH_RETURN: 3163731 1.58187%
BRANCH_OTHER: 0 0%

DRAM PAGES: 1048576
Allocated PAGES: 5806
