
*** ChampSim Multicore Out-of-Order Simulator ***

Warmup Instructions: 50000000
Simulation Instructions: 200000000
Number of CPUs: 1
LLC sets: 2048
LLC ways: 16
Off-chip DRAM Size: 4096 MB Channels: 1 Width: 64-bit Data Rate: 6400 MT/s
CPU 0 runs traces/spec2k17/srv_41.champsimtrace.xz
.xz
BTB has LRU replacement policy
ITLB has LRU replacement policy
DTLB has LRU replacement policy
STLB has LRU replacement policy
L1I has LRU replacement policy
L1D has LRU replacement policy
Initialize SRRIP state for L2C
Initialize DRRIP state for LLC
Offsets elements: -63 -62 -61 -60 -59 -58 -57 -56 -55 -54 -53 -52 -51 -50 -49 -48 -47 -46 -45 -44 -43 -42 -41 -40 -39 -38 -37 -36 -35 -34 -33 -32 -31 -30 -29 -28 -27 -26 -25 -24 -23 -22 -21 -20 -19 -18 -17 -16 -15 -14 -13 -12 -11 -10 -9 -8 -7 -6 -5 -4 -3 -2 -1 1 2 3 4 5 6 7 8 9 10 11 12 13 14 15 16 17 18 19 20 21 22 23 24 25 26 27 28 29 30 31 32 33 34 35 36 37 38 39 40 41 42 43 44 45 46 47 48 49 50 51 52 53 54 55 56 57 58 59 60 61 62 63 
Potential of Offsets elements: 
rewards of Offsets elements: 0 0 78 171 2 230 39 6 159 40 91 72 178 0 32 121 29 37 40 128 87 17 34 18 33 30 72 90 1093 977 26 32 82 36 66 52 55 81 340 227 241 7 91 7 148 117 230 108 146 106 25 123 361 170 761 581 971 582 542 208 536 611 1849 1361 725 477 574 307 299 260 198 75 20 177 112 92 124 193 74 168 167 99 33 130 658 1004 1210 638 910 576 649 889 782 659 8301 937 790 548 712 972 668 851 99 250 39 29 41 14 24 47 61 12 431 35 9 82 19 1 7 0 13 85 81 133 52 22 
Printing Sanity1
Heartbeat CPU 0 instructions: 10000000 cycles: 2876808 heartbeat IPC: 3.47607 cumulative IPC: 3.47607 (Simulation time: 0 hr 0 min 35 sec) 
Heartbeat CPU 0 instructions: 20000003 cycles: 5745370 heartbeat IPC: 3.48607 cumulative IPC: 3.48106 (Simulation time: 0 hr 1 min 12 sec) 
Heartbeat CPU 0 instructions: 30000002 cycles: 8634851 heartbeat IPC: 3.46083 cumulative IPC: 3.47429 (Simulation time: 0 hr 1 min 50 sec) 
*** Reached end of trace for Core: 0 Repeating trace: traces/spec2k17/srv_41.champsimtrace.xz
Heartbeat CPU 0 instructions: 40000001 cycles: 11490127 heartbeat IPC: 3.50229 cumulative IPC: 3.48125 (Simulation time: 0 hr 2 min 27 sec) 
Heartbeat CPU 0 instructions: 50000000 cycles: 14363536 heartbeat IPC: 3.48019 cumulative IPC: 3.48104 (Simulation time: 0 hr 3 min 4 sec) 

Warmup complete CPU 0 instructions: 50000004 cycles: 14363537 (Simulation time: 0 hr 3 min 4 sec) 

Heartbeat CPU 0 instructions: 60000002 cycles: 40567719 heartbeat IPC: 0.381619 cumulative IPC: 0.381618 (Simulation time: 0 hr 4 min 4 sec) 
*** Reached end of trace for Core: 0 Repeating trace: traces/spec2k17/srv_41.champsimtrace.xz
Heartbeat CPU 0 instructions: 70000002 cycles: 61144640 heartbeat IPC: 0.485981 cumulative IPC: 0.427523 (Simulation time: 0 hr 5 min 0 sec) 
Heartbeat CPU 0 instructions: 80000002 cycles: 84043592 heartbeat IPC: 0.436701 cumulative IPC: 0.430539 (Simulation time: 0 hr 5 min 56 sec) 
Heartbeat CPU 0 instructions: 90000000 cycles: 109681402 heartbeat IPC: 0.390049 cumulative IPC: 0.419648 (Simulation time: 0 hr 6 min 39 sec) 
*** Reached end of trace for Core: 0 Repeating trace: traces/spec2k17/srv_41.champsimtrace.xz
Heartbeat CPU 0 instructions: 100000001 cycles: 130632917 heartbeat IPC: 0.477293 cumulative IPC: 0.430036 (Simulation time: 0 hr 7 min 29 sec) 
Heartbeat CPU 0 instructions: 110000000 cycles: 154156244 heartbeat IPC: 0.42511 cumulative IPC: 0.429207 (Simulation time: 0 hr 8 min 26 sec) 
Heartbeat CPU 0 instructions: 120000001 cycles: 179430753 heartbeat IPC: 0.395656 cumulative IPC: 0.42407 (Simulation time: 0 hr 9 min 24 sec) 
*** Reached end of trace for Core: 0 Repeating trace: traces/spec2k17/srv_41.champsimtrace.xz
Heartbeat CPU 0 instructions: 130000003 cycles: 200841178 heartbeat IPC: 0.467062 cumulative IPC: 0.429006 (Simulation time: 0 hr 10 min 0 sec) 
Heartbeat CPU 0 instructions: 140000000 cycles: 223864287 heartbeat IPC: 0.434346 cumulative IPC: 0.429593 (Simulation time: 0 hr 10 min 34 sec) 
Heartbeat CPU 0 instructions: 150000003 cycles: 248537821 heartbeat IPC: 0.405293 cumulative IPC: 0.427032 (Simulation time: 0 hr 11 min 9 sec) 
*** Reached end of trace for Core: 0 Repeating trace: traces/spec2k17/srv_41.champsimtrace.xz
Heartbeat CPU 0 instructions: 160000000 cycles: 270119898 heartbeat IPC: 0.463347 cumulative IPC: 0.430097 (Simulation time: 0 hr 11 min 44 sec) 
Heartbeat CPU 0 instructions: 170000000 cycles: 294692818 heartbeat IPC: 0.406952 cumulative IPC: 0.428068 (Simulation time: 0 hr 12 min 20 sec) 
Heartbeat CPU 0 instructions: 180000001 cycles: 317631853 heartbeat IPC: 0.435938 cumulative IPC: 0.428663 (Simulation time: 0 hr 12 min 55 sec) 
*** Reached end of trace for Core: 0 Repeating trace: traces/spec2k17/srv_41.champsimtrace.xz
Heartbeat CPU 0 instructions: 190000000 cycles: 339371968 heartbeat IPC: 0.459979 cumulative IPC: 0.430758 (Simulation time: 0 hr 13 min 31 sec) 
Heartbeat CPU 0 instructions: 200000000 cycles: 364237727 heartbeat IPC: 0.402159 cumulative IPC: 0.428726 (Simulation time: 0 hr 14 min 6 sec) 
Heartbeat CPU 0 instructions: 210000003 cycles: 385994334 heartbeat IPC: 0.459631 cumulative IPC: 0.430535 (Simulation time: 0 hr 14 min 40 sec) 
*** Reached end of trace for Core: 0 Repeating trace: traces/spec2k17/srv_41.champsimtrace.xz
Heartbeat CPU 0 instructions: 220000000 cycles: 409921025 heartbeat IPC: 0.417943 cumulative IPC: 0.429773 (Simulation time: 0 hr 15 min 16 sec) 
Heartbeat CPU 0 instructions: 230000000 cycles: 433025727 heartbeat IPC: 0.432812 cumulative IPC: 0.429941 (Simulation time: 0 hr 15 min 50 sec) 
Heartbeat CPU 0 instructions: 240000000 cycles: 455052335 heartbeat IPC: 0.453996 cumulative IPC: 0.431143 (Simulation time: 0 hr 16 min 24 sec) 
*** Reached end of trace for Core: 0 Repeating trace: traces/spec2k17/srv_41.champsimtrace.xz
Heartbeat CPU 0 instructions: 250000002 cycles: 479386038 heartbeat IPC: 0.410953 cumulative IPC: 0.430087 (Simulation time: 0 hr 17 min 0 sec) 
Finished CPU 0 instructions: 200000002 cycles: 465022502 cumulative IPC: 0.430087 (Simulation time: 0 hr 17 min 0 sec) 

ChampSim completed all CPUs

Region of Interest Statistics

CPU 0 cumulative IPC: 0.430087 instructions: 200000002 cycles: 465022502
ITLB TOTAL     ACCESS:   34226988  HIT:   33340882  MISS:     886106  HIT %:    97.4111  MISS %:    2.58891   MPKI: 4.43053
ITLB LOAD TRANSLATION ACCESS:   34226988  HIT:   33340882  MISS:     886106  HIT %:    97.4111  MISS %:    2.58891   MPKI: 4.43053
ITLB PREFETCH  REQUESTED:          0  ISSUED:          0  USEFUL:          0  USELESS:          0
ITLB USEFUL LOAD PREFETCHES:          0 PREFETCH ISSUED TO LOWER LEVEL:          0  ACCURACY: -nan
ITLB TIMELY PREFETCHES:          0 LATE PREFETCHES: 0 DROPPED PREFETCHES: 0
ITLB PREFETCHES SAME FILL-ORIGIN LEVEL: 0 DIFFERENT FILL-ORIGIN LEVEL: 0
ITLB AVERAGE MISS LATENCY: 10.4071 cycles
ITLB RQ	ACCESS:   39107041	FORWARD:          0	MERGED:    4619425	TO_CACHE:   34487616

DTLB TOTAL     ACCESS:   38160439  HIT:   37177292  MISS:     983147  HIT %:    97.4236  MISS %:    2.57635   MPKI: 4.91573
DTLB LOAD TRANSLATION ACCESS:   38160439  HIT:   37177292  MISS:     983147  HIT %:    97.4236  MISS %:    2.57635   MPKI: 4.91573
DTLB PREFETCH  REQUESTED:          0  ISSUED:          0  USEFUL:          0  USELESS:          0
DTLB USEFUL LOAD PREFETCHES:          0 PREFETCH ISSUED TO LOWER LEVEL:          0  ACCURACY: -nan
DTLB TIMELY PREFETCHES:          0 LATE PREFETCHES: 0 DROPPED PREFETCHES: 0
DTLB PREFETCHES SAME FILL-ORIGIN LEVEL: 0 DIFFERENT FILL-ORIGIN LEVEL: 0
DTLB AVERAGE MISS LATENCY: 15.3117 cycles
DTLB RQ	ACCESS:   50528908	FORWARD:          0	MERGED:   12298668	TO_CACHE:   38230240

STLB TOTAL     ACCESS:   10000750  HIT:    9898124  MISS:     102626  HIT %:    98.9738  MISS %:    1.02618   MPKI: 0.51313
STLB LOAD TRANSLATION ACCESS:    1869253  HIT:    1767427  MISS:     101826  HIT %:    94.5526  MISS %:    5.44742   MPKI: 0.50913
STLB TRANSLATION FROM L1D PREFETCHER ACCESS:    8131497  HIT:    8130697  MISS:        800  HIT %:    99.9902  MISS %: 0.00983829   MPKI: 0.004
STLB PREFETCH  REQUESTED:          0  ISSUED:          0  USEFUL:        672  USELESS:        130
STLB USEFUL LOAD PREFETCHES:        672 PREFETCH ISSUED TO LOWER LEVEL:          0  ACCURACY: inf
STLB TIMELY PREFETCHES:        672 LATE PREFETCHES: 0 DROPPED PREFETCHES: 227692
STLB PREFETCHES SAME FILL-ORIGIN LEVEL: 0 DIFFERENT FILL-ORIGIN LEVEL: 0
STLB AVERAGE MISS LATENCY: 72.817 cycles
STLB RQ	ACCESS:   21837313	FORWARD:          0	MERGED:   11608414	TO_CACHE:   10228899

STLB Hit, L1D data hit: 0
STLB Hit, L2C data hit: 0
STLB Hit, LLC data hit: 0
STLB Hit, LLC data miss: 0
STLB STLB hints to L2: 0
L1D TOTAL     ACCESS:   68956008  HIT:   65467938  MISS:    3488070  HIT %:    94.9416  MISS %:     5.0584   MPKI: 17.4403
L1D LOAD      ACCESS:   30393095  HIT:   28725708  MISS:    1667387  HIT %:    94.5139  MISS %:    5.48607   MPKI: 8.33693
L1D RFO       ACCESS:   19214635  HIT:   18615974  MISS:     598661  HIT %:    96.8843  MISS %:    3.11565   MPKI: 2.9933
L1D PREFETCH  ACCESS:   19348278  HIT:   18126256  MISS:    1222022  HIT %:    93.6841  MISS %:    6.31592   MPKI: 6.11011
AGUS PREFETCH L1 MISS: 0
L1D PREFETCH  REQUESTED:   64283844  ISSUED:   64148773  USEFUL:     304511  USELESS:     917598
L1D USEFUL LOAD PREFETCHES:     304511 PREFETCH ISSUED TO LOWER LEVEL:    1231750  ACCURACY: 24.7218
L1D TIMELY PREFETCHES:     304511 LATE PREFETCHES: 7543 DROPPED PREFETCHES: 433087
L1D PREFETCHES SAME FILL-ORIGIN LEVEL: 1231750 DIFFERENT FILL-ORIGIN LEVEL: 0
L1D AVERAGE MISS LATENCY: 684799 cycles
L1D RQ	ACCESS:   41933280	FORWARD:          0	MERGED:   11153825	TO_CACHE:   30512078
L1D WQ	ACCESS:   20245042	FORWARD:     282558	MERGED:     228212	TO_CACHE:   20016830
L1D PQ	ACCESS:   44180713	FORWARD:          0	MERGED:   24197472	TO_CACHE:   19968060

L1D UNIQUE REGIONS ACCESSED: 0
L1D REGIONS CONFLICTS: 0
L1D Cross Page Prefetch Requests: 2754743
L1D Same Page Prefetch Requests: 51773504
L1D ROI Sum of L1D PQ occupancy: 271199626
L1D PREFETCHES PUSHED FROM L2C: 0
L1I TOTAL     ACCESS:   38313755  HIT:   33574747  MISS:    4739008  HIT %:    87.6311  MISS %:    12.3689   MPKI: 23.695
L1I LOAD      ACCESS:   38313755  HIT:   33574747  MISS:    4739008  HIT %:    87.6311  MISS %:    12.3689   MPKI: 23.695
L1I PREFETCH  REQUESTED:          0  ISSUED:          0  USEFUL:          0  USELESS:          0
L1I USEFUL LOAD PREFETCHES:          0 PREFETCH ISSUED TO LOWER LEVEL:          0  ACCURACY: -nan
L1I TIMELY PREFETCHES:          0 LATE PREFETCHES: 0 DROPPED PREFETCHES: 0
L1I PREFETCHES SAME FILL-ORIGIN LEVEL: 0 DIFFERENT FILL-ORIGIN LEVEL: 0
L1I AVERAGE MISS LATENCY: 23.9988 cycles
L1I RQ	ACCESS:   60536381	FORWARD:          0	MERGED:   21429340	TO_CACHE:   39107041

BTB TOTAL     ACCESS:   31960684  HIT:   26197910  MISS:    5762774  HIT %:    81.9692  MISS %:    18.0308   MPKI: 28.8139
BTB BRANCH_DIRECT_JUMP	ACCESS:    3125250  HIT:    2730574  MISS:     394676
BTB BRANCH_INDIRECT	ACCESS:   11716382  HIT:    9367715  MISS:    2348667
BTB BRANCH_CONDITIONAL	ACCESS:   10786856  HIT:   10320288  MISS:     466568
BTB BRANCH_DIRECT_CALL	ACCESS:    2710252  HIT:    1976262  MISS:     733990
BTB BRANCH_INDIRECT_CALL	ACCESS:     455858  HIT:     278081  MISS:     177777
BTB BRANCH_RETURN	ACCESS:    3166086  HIT:    1524990  MISS:    1641096
BTB BRANCH_OTHER ACCESS:          0  HIT:          0  MISS:          0

L2C TOTAL     ACCESS:    9955850  HIT:    6688613  MISS:    3267237  HIT %:    67.1827  MISS %:    32.8173   MPKI: 16.3362
L2C LOAD      ACCESS:    6398790  HIT:    4211168  MISS:    2187622  HIT %:    65.8119  MISS %:    34.1881   MPKI: 10.9381
L2C DATA LOAD MPKI: 3.47757
L2C INSTRUCTION LOAD MPKI: 7.46053
L2C RFO       ACCESS:     596425  HIT:     247869  MISS:     348556  HIT %:    41.5591  MISS %:    58.4409   MPKI: 1.74278
L2C PREFETCH  ACCESS:    1231712  HIT:     657030  MISS:     574682  HIT %:    53.3428  MISS %:    46.6572   MPKI: 2.87341
AGUS PREFETCH L1 MISS: 0
L2C DATA PREFETCH MPKI: 2.87341
L2C INSTRUCTION PREFETCH MPKI: 0
L2C WRITEBACK ACCESS:    1317719  HIT:    1254293  MISS:      63426  HIT %:    95.1867  MISS %:    4.81332   MPKI: 0.31713
L2C LOAD TRANSLATION ACCESS:     160143  HIT:      73711  MISS:      86432  HIT %:    46.0282  MISS %:    53.9718   MPKI: 0.43216
L2C TRANSLATION FROM L1D PREFETCHER ACCESS:     251061  HIT:     244542  MISS:       6519  HIT %:    97.4034  MISS %:    2.59658   MPKI: 0.032595
L2C PREFETCH  REQUESTED:          0  ISSUED:          0  USEFUL:      53771  USELESS:     527564
L2C USEFUL LOAD PREFETCHES:      53771 PREFETCH ISSUED TO LOWER LEVEL:     574682  ACCURACY: 9.35665
L2C TIMELY PREFETCHES:      53771 LATE PREFETCHES: 0 DROPPED PREFETCHES: 0
L2C PREFETCHES SAME FILL-ORIGIN LEVEL: 0 DIFFERENT FILL-ORIGIN LEVEL: 0
L2C AVERAGE MISS LATENCY: 53.3799 cycles
L2C RQ	ACCESS:    7406532	FORWARD:          0	MERGED:          0	TO_CACHE:    7406419
L2C WQ	ACCESS:    1317719	FORWARD:        151	MERGED:          0	TO_CACHE:    1317719
L2C PQ	ACCESS:    1231750	FORWARD:          0	MERGED:          0	TO_CACHE:    1231712

L2C Instructions Evicting Data 731995
L2C Translations Evicting Data 51404
L2C Data Evicting Data 864829
L2C Instructions Evicting Instructions 721391
L2C Translations Evicting Instructions 38688
L2C Data Evicting Instructions 704152
L2C Instructions Evicting Translations 38721
L2C Translations Evicting Translations 2859
L2C Data Evicting Translations 49772
L2C Dense regions hint from L2: 0
PSCL5 TOTAL     ACCESS:     330318  HIT:     330318  MISS:          0  HIT %:        100  MISS %:          0   MPKI: 0
PSCL5 LOAD TRANSLATION ACCESS:     101826  HIT:     101826  MISS:          0  HIT %:        100  MISS %:          0   MPKI: 0
PSCL5 TRANSLATION FROM L1D PREFETCHER ACCESS:     228492  HIT:     228492  MISS:          0  HIT %:        100  MISS %:          0   MPKI: 0
PSCL5 PREFETCH  REQUESTED:          0  ISSUED:          0  USEFUL:          0  USELESS:          0
PSCL5 USEFUL LOAD PREFETCHES:          0 PREFETCH ISSUED TO LOWER LEVEL:          0  ACCURACY: -nan
PSCL5 TIMELY PREFETCHES:          0 LATE PREFETCHES: 0 DROPPED PREFETCHES: 0
PSCL5 PREFETCHES SAME FILL-ORIGIN LEVEL: 0 DIFFERENT FILL-ORIGIN LEVEL: 0

PSCL4 TOTAL     ACCESS:     329478  HIT:     329163  MISS:        315  HIT %:    99.9044  MISS %:  0.0956058   MPKI: 0.001575
PSCL4 LOAD TRANSLATION ACCESS:     101251  HIT:     100936  MISS:        315  HIT %:    99.6889  MISS %:   0.311108   MPKI: 0.001575
PSCL4 TRANSLATION FROM L1D PREFETCHER ACCESS:     228227  HIT:     228227  MISS:          0  HIT %:        100  MISS %:          0   MPKI: 0
PSCL4 PREFETCH  REQUESTED:          0  ISSUED:          0  USEFUL:          0  USELESS:          0
PSCL4 USEFUL LOAD PREFETCHES:          0 PREFETCH ISSUED TO LOWER LEVEL:          0  ACCURACY: -nan
PSCL4 TIMELY PREFETCHES:          0 LATE PREFETCHES: 0 DROPPED PREFETCHES: 0
PSCL4 PREFETCHES SAME FILL-ORIGIN LEVEL: 0 DIFFERENT FILL-ORIGIN LEVEL: 0

PSCL3 TOTAL     ACCESS:     271505  HIT:     255134  MISS:      16371  HIT %:    93.9703  MISS %:    6.02972   MPKI: 0.081855
PSCL3 LOAD TRANSLATION ACCESS:      94216  HIT:      77845  MISS:      16371  HIT %:     82.624  MISS %:     17.376   MPKI: 0.081855
PSCL3 TRANSLATION FROM L1D PREFETCHER ACCESS:     177289  HIT:     177289  MISS:          0  HIT %:        100  MISS %:          0   MPKI: 0
PSCL3 PREFETCH  REQUESTED:          0  ISSUED:          0  USEFUL:          0  USELESS:          0
PSCL3 USEFUL LOAD PREFETCHES:          0 PREFETCH ISSUED TO LOWER LEVEL:          0  ACCURACY: -nan
PSCL3 TIMELY PREFETCHES:          0 LATE PREFETCHES: 0 DROPPED PREFETCHES: 0
PSCL3 PREFETCHES SAME FILL-ORIGIN LEVEL: 0 DIFFERENT FILL-ORIGIN LEVEL: 0

PSCL2 TOTAL     ACCESS:     306670  HIT:     264814  MISS:      41856  HIT %:    86.3515  MISS %:    13.6485   MPKI: 0.20928
PSCL2 LOAD TRANSLATION ACCESS:     101974  HIT:      60118  MISS:      41856  HIT %:    58.9542  MISS %:    41.0458   MPKI: 0.20928
PSCL2 TRANSLATION FROM L1D PREFETCHER ACCESS:     204696  HIT:     204696  MISS:          0  HIT %:        100  MISS %:          0   MPKI: 0
PSCL2 PREFETCH  REQUESTED:          0  ISSUED:          0  USEFUL:          0  USELESS:          0
PSCL2 USEFUL LOAD PREFETCHES:          0 PREFETCH ISSUED TO LOWER LEVEL:          0  ACCURACY: -nan
PSCL2 TIMELY PREFETCHES:          0 LATE PREFETCHES: 0 DROPPED PREFETCHES: 0
PSCL2 PREFETCHES SAME FILL-ORIGIN LEVEL: 0 DIFFERENT FILL-ORIGIN LEVEL: 0

LLC TOTAL     ACCESS:    3876395  HIT:    3434624  MISS:     441771  HIT %:    88.6036  MISS %:    11.3964   MPKI: 2.20885
LLC LOAD      ACCESS:    2187621  HIT:    2004548  MISS:     183073  HIT %:    91.6314  MISS %:    8.36859   MPKI: 0.915365
LLC RFO       ACCESS:     348556  HIT:     212746  MISS:     135810  HIT %:    61.0364  MISS %:    38.9636   MPKI: 0.67905
LLC PREFETCH  ACCESS:     574682  HIT:     467837  MISS:     106845  HIT %:     81.408  MISS %:     18.592   MPKI: 0.534225
AGUS PREFETCH L1 MISS: 0
LLC WRITEBACK ACCESS:     672585  HIT:     669824  MISS:       2761  HIT %:    99.5895  MISS %:   0.410506   MPKI: 0.013805
LLC LOAD TRANSLATION ACCESS:      86432  HIT:      74242  MISS:      12190  HIT %:    85.8964  MISS %:    14.1036   MPKI: 0.06095
LLC TRANSLATION FROM L1D PREFETCHER ACCESS:       6519  HIT:       5427  MISS:       1092  HIT %:     83.249  MISS %:     16.751   MPKI: 0.00546
LLC PREFETCH  REQUESTED:          0  ISSUED:          0  USEFUL:       9930  USELESS:      97908
LLC USEFUL LOAD PREFETCHES:       9930 PREFETCH ISSUED TO LOWER LEVEL:     106845  ACCURACY: 9.29384
LLC TIMELY PREFETCHES:       9930 LATE PREFETCHES: 0 DROPPED PREFETCHES: 0
LLC PREFETCHES SAME FILL-ORIGIN LEVEL: 0 DIFFERENT FILL-ORIGIN LEVEL: 0
LLC AVERAGE MISS LATENCY: 177.215 cycles
LLC RQ	ACCESS:    2629129	FORWARD:          0	MERGED:          0	TO_CACHE:    2629128
LLC WQ	ACCESS:     672585	FORWARD:          1	MERGED:          0	TO_CACHE:     672585
LLC PQ	ACCESS:     574682	FORWARD:          0	MERGED:          0	TO_CACHE:     574682

LLC Dense regions hint to LLC: 0

RAW hits: 2090445
Loads Generated: 44023727
Loads sent to L1D: 41933280
Stores Generated: 20245026
Stores sent to L1D: 20245042
Major fault: 0 Minor fault: 5392
Allocated PAGES: 5392
ucb ended
-----------------------------------------------------------------------------------------------------------------------------------------------------------------------------------------------------
Offsets elements: -63 -62 -61 -60 -59 -58 -57 -56 -55 -54 -53 -52 -51 -50 -49 -48 -47 -46 -45 -44 -43 -42 -41 -40 -39 -38 -37 -36 -35 -34 -33 -32 -31 -30 -29 -28 -27 -26 -25 -24 -23 -22 -21 -20 -19 -18 -17 -16 -15 -14 -13 -12 -11 -10 -9 -8 -7 -6 -5 -4 -3 -2 -1 1 2 3 4 5 6 7 8 9 10 11 12 13 14 15 16 17 18 19 20 21 22 23 24 25 26 27 28 29 30 31 32 33 34 35 36 37 38 39 40 41 42 43 44 45 46 47 48 49 50 51 52 53 54 55 56 57 58 59 60 61 62 63 
Potential of Offsets elements: 28.399 28.399 106.399 199.399 30.399 258.399 67.399 34.399 187.399 68.399 119.399 100.399 206.399 28.399 60.399 149.399 57.399 65.399 68.399 156.399 115.399 45.399 62.399 46.399 61.399 58.399 100.399 118.399 1121.4 1005.4 54.399 60.399 110.399 64.399 94.399 80.399 83.399 109.399 368.399 255.399 269.399 35.399 119.399 35.399 176.399 145.399 258.399 136.399 174.399 134.399 53.399 151.399 389.399 198.399 789.399 609.399 999.399 610.399 570.399 236.399 564.399 639.399 1849.11 1389.4 753.399 505.399 602.399 335.399 327.399 288.399 226.399 103.399 48.399 205.399 140.399 120.399 152.399 221.399 102.399 196.399 195.399 127.399 61.399 158.399 686.399 1032.4 1238.4 666.399 938.399 604.399 677.399 917.399 810.399 687.399 1753.19 965.399 818.399 576.399 740.399 1000.4 696.399 879.399 127.399 278.399 67.399 57.399 69.399 42.399 52.399 75.399 89.399 40.399 459.399 63.399 37.399 110.399 47.399 29.399 35.399 28.399 41.399 113.399 109.399 161.399 80.399 50.399 
rewards of Offsets elements: 0 0 78 171 2 230 39 6 159 40 91 72 178 0 32 121 29 37 40 128 87 17 34 18 33 30 72 90 1093 977 26 32 82 36 66 52 55 81 340 227 241 7 91 7 148 117 230 108 146 106 25 123 361 170 761 581 971 582 542 208 536 611 1849 1361 725 477 574 307 299 260 198 75 20 177 112 92 124 193 74 168 167 99 33 130 658 1004 1210 638 910 576 649 889 782 659 1752 937 790 548 712 972 668 851 99 250 39 29 41 14 24 47 61 12 431 35 9 82 19 1 7 0 13 85 81 133 52 22 Printing Sanity2
offset_index value126
offset list size126
reward size126
potential size126
-----------------------------------------------------------------------------------------------------------------------------------------------------------------------------------------------------

DRAM Statistics
 CHANNEL 0
 RQ ROW_BUFFER_HIT:     103923  ROW_BUFFER_MISS:     335080
 DBUS_CONGESTED:        229
 WQ ROW_BUFFER_HIT:      35638  ROW_BUFFER_MISS:     213718  FULL:          0

 AVG_CONGESTED_CYCLE: 4
 All warmup complete: 2
Channel 0 Bank busy for read cycles: 0
Channel 0 Bank busy for write cycles: 0
Channel 0
Rank 0
0banks busy for read cycles: 407688021
0banks busy for write cycles: 101865
1banks busy for read cycles: 23864494
1banks busy for write cycles: 13619085
2banks busy for read cycles: 6008452
2banks busy for write cycles: 4225900
3banks busy for read cycles: 2528424
3banks busy for write cycles: 1920492
4banks busy for read cycles: 774870
4banks busy for write cycles: 944911
5banks busy for read cycles: 243160
5banks busy for write cycles: 524984
6banks busy for read cycles: 150011
6banks busy for write cycles: 313875
7banks busy for read cycles: 206227
7banks busy for write cycles: 236114
8banks busy for read cycles: 684348
8banks busy for write cycles: 987270

CPU 0 Branch Prediction Accuracy: 99.5917% MPKI: 0.749205 Average ROB Occupancy at Mispredict: 30.2059
Branch types
NOT_BRANCH: 163297289 81.6486%
BRANCH_DIRECT_JUMP: 3125250 1.56262%
BRANCH_INDIRECT: 11716382 5.85819%
BRANCH_CONDITIONAL: 15528542 7.76427%
BRANCH_DIRECT_CALL: 2710252 1.35513%
BRANCH_INDIRECT_CALL: 455858 0.227929%
BRANCH_RETURN: 3166086 1.58304%
BRANCH_OTHER: 0 0%

DRAM PAGES: 1048576
Allocated PAGES: 5392
