
*** ChampSim Multicore Out-of-Order Simulator ***

Warmup Instructions: 50000000
Simulation Instructions: 200000000
Number of CPUs: 1
LLC sets: 2048
LLC ways: 16
Off-chip DRAM Size: 4096 MB Channels: 1 Width: 64-bit Data Rate: 6400 MT/s
CPU 0 runs traces/spec2k17/srv_42.champsimtrace.xz
.xz
BTB has LRU replacement policy
ITLB has LRU replacement policy
DTLB has LRU replacement policy
STLB has LRU replacement policy
L1I has LRU replacement policy
L1D has LRU replacement policy
Initialize SRRIP state for L2C
Initialize DRRIP state for LLC
Offsets elements: -63 -62 -61 -60 -59 -58 -57 -56 -55 -54 -53 -52 -51 -50 -49 -48 -47 -46 -45 -44 -43 -42 -41 -40 -39 -38 -37 -36 -35 -34 -33 -32 -31 -30 -29 -28 -27 -26 -25 -24 -23 -22 -21 -20 -19 -18 -17 -16 -15 -14 -13 -12 -11 -10 -9 -8 -7 -6 -5 -4 -3 -2 -1 1 2 3 4 5 6 7 8 9 10 11 12 13 14 15 16 17 18 19 20 21 22 23 24 25 26 27 28 29 30 31 32 33 34 35 36 37 38 39 40 41 42 43 44 45 46 47 48 49 50 51 52 53 54 55 56 57 58 59 60 61 62 63 
Potential of Offsets elements: 
rewards of Offsets elements: 0 20 161 1 121 87 2 1 45 93 70 116 88 112 117 99 328 152 72 99 69 190 19 1 40 69 105 26 146 650 1215 300 54 13 37 3 0 94 88 75 85 47 181 304 27 129 191 368 80 156 170 215 160 107 116 214 295 143 162 257 555 1006 996 384 354 2437 464 188 220 569 700 323 460 194 97 108 123 67 8 55 306 218 0 80 164 298 197 82 72 64 246 126 36 149 368 376 85 34 32 1329 1007 18 11 28 6 0 15 56 11 66 12 110 94 52 97 90 22 4 37 8 127 136 38 141 21 44 
Printing Sanity1
Heartbeat CPU 0 instructions: 10000000 cycles: 2967039 heartbeat IPC: 3.37036 cumulative IPC: 3.37036 (Simulation time: 0 hr 0 min 40 sec) 
Heartbeat CPU 0 instructions: 20000003 cycles: 5930148 heartbeat IPC: 3.37483 cumulative IPC: 3.3726 (Simulation time: 0 hr 1 min 19 sec) 
Heartbeat CPU 0 instructions: 30000003 cycles: 8895657 heartbeat IPC: 3.3721 cumulative IPC: 3.37243 (Simulation time: 0 hr 1 min 55 sec) 
*** Reached end of trace for Core: 0 Repeating trace: traces/spec2k17/srv_42.champsimtrace.xz
Heartbeat CPU 0 instructions: 40000000 cycles: 11857853 heartbeat IPC: 3.37587 cumulative IPC: 3.37329 (Simulation time: 0 hr 2 min 26 sec) 
Heartbeat CPU 0 instructions: 50000002 cycles: 14820965 heartbeat IPC: 3.37483 cumulative IPC: 3.3736 (Simulation time: 0 hr 2 min 53 sec) 

Warmup complete CPU 0 instructions: 50000002 cycles: 14820965 (Simulation time: 0 hr 2 min 53 sec) 

Heartbeat CPU 0 instructions: 60000000 cycles: 46673993 heartbeat IPC: 0.313942 cumulative IPC: 0.313942 (Simulation time: 0 hr 3 min 36 sec) 
*** Reached end of trace for Core: 0 Repeating trace: traces/spec2k17/srv_42.champsimtrace.xz
Heartbeat CPU 0 instructions: 70000001 cycles: 78160531 heartbeat IPC: 0.317596 cumulative IPC: 0.315758 (Simulation time: 0 hr 4 min 37 sec) 
Heartbeat CPU 0 instructions: 80000000 cycles: 109605210 heartbeat IPC: 0.318019 cumulative IPC: 0.316508 (Simulation time: 0 hr 5 min 25 sec) 
Heartbeat CPU 0 instructions: 90000001 cycles: 141459532 heartbeat IPC: 0.313929 cumulative IPC: 0.31586 (Simulation time: 0 hr 6 min 6 sec) 
*** Reached end of trace for Core: 0 Repeating trace: traces/spec2k17/srv_42.champsimtrace.xz
Heartbeat CPU 0 instructions: 100000002 cycles: 172930658 heartbeat IPC: 0.317752 cumulative IPC: 0.316236 (Simulation time: 0 hr 6 min 46 sec) 
Heartbeat CPU 0 instructions: 110000000 cycles: 204369911 heartbeat IPC: 0.318074 cumulative IPC: 0.316541 (Simulation time: 0 hr 7 min 28 sec) 
Heartbeat CPU 0 instructions: 120000000 cycles: 236151001 heartbeat IPC: 0.314653 cumulative IPC: 0.31627 (Simulation time: 0 hr 8 min 29 sec) 
*** Reached end of trace for Core: 0 Repeating trace: traces/spec2k17/srv_42.champsimtrace.xz
Heartbeat CPU 0 instructions: 130000000 cycles: 267475165 heartbeat IPC: 0.319242 cumulative IPC: 0.316638 (Simulation time: 0 hr 9 min 9 sec) 
Heartbeat CPU 0 instructions: 140000001 cycles: 298986143 heartbeat IPC: 0.31735 cumulative IPC: 0.316717 (Simulation time: 0 hr 10 min 14 sec) 
Heartbeat CPU 0 instructions: 150000000 cycles: 330797981 heartbeat IPC: 0.314348 cumulative IPC: 0.316479 (Simulation time: 0 hr 11 min 13 sec) 
*** Reached end of trace for Core: 0 Repeating trace: traces/spec2k17/srv_42.champsimtrace.xz
Heartbeat CPU 0 instructions: 160000002 cycles: 362185731 heartbeat IPC: 0.318596 cumulative IPC: 0.31667 (Simulation time: 0 hr 11 min 56 sec) 
Heartbeat CPU 0 instructions: 170000000 cycles: 393689638 heartbeat IPC: 0.317421 cumulative IPC: 0.316732 (Simulation time: 0 hr 12 min 35 sec) 
Heartbeat CPU 0 instructions: 180000000 cycles: 425358646 heartbeat IPC: 0.315766 cumulative IPC: 0.316658 (Simulation time: 0 hr 13 min 14 sec) 
*** Reached end of trace for Core: 0 Repeating trace: traces/spec2k17/srv_42.champsimtrace.xz
Heartbeat CPU 0 instructions: 190000002 cycles: 456761110 heartbeat IPC: 0.318446 cumulative IPC: 0.316785 (Simulation time: 0 hr 13 min 54 sec) 
Heartbeat CPU 0 instructions: 200000002 cycles: 488253560 heartbeat IPC: 0.317536 cumulative IPC: 0.316835 (Simulation time: 0 hr 14 min 34 sec) 
Heartbeat CPU 0 instructions: 210000002 cycles: 519926836 heartbeat IPC: 0.315724 cumulative IPC: 0.316765 (Simulation time: 0 hr 15 min 15 sec) 
*** Reached end of trace for Core: 0 Repeating trace: traces/spec2k17/srv_42.champsimtrace.xz
Heartbeat CPU 0 instructions: 220000000 cycles: 551353209 heartbeat IPC: 0.318204 cumulative IPC: 0.31685 (Simulation time: 0 hr 15 min 57 sec) 
Heartbeat CPU 0 instructions: 230000001 cycles: 582776740 heartbeat IPC: 0.318233 cumulative IPC: 0.316926 (Simulation time: 0 hr 16 min 37 sec) 
Heartbeat CPU 0 instructions: 240000001 cycles: 614284974 heartbeat IPC: 0.317377 cumulative IPC: 0.31695 (Simulation time: 0 hr 17 min 16 sec) 
*** Reached end of trace for Core: 0 Repeating trace: traces/spec2k17/srv_42.champsimtrace.xz
Heartbeat CPU 0 instructions: 250000002 cycles: 645866375 heartbeat IPC: 0.316642 cumulative IPC: 0.316934 (Simulation time: 0 hr 17 min 52 sec) 
Finished CPU 0 instructions: 200000000 cycles: 631045410 cumulative IPC: 0.316934 (Simulation time: 0 hr 17 min 52 sec) 

ChampSim completed all CPUs

Region of Interest Statistics

CPU 0 cumulative IPC: 0.316934 instructions: 200000000 cycles: 631045410
ITLB TOTAL     ACCESS:   34788527  HIT:   33137749  MISS:    1650778  HIT %:    95.2548  MISS %:    4.74518   MPKI: 8.25389
ITLB LOAD TRANSLATION ACCESS:   34788527  HIT:   33137749  MISS:    1650778  HIT %:    95.2548  MISS %:    4.74518   MPKI: 8.25389
ITLB PREFETCH  REQUESTED:          0  ISSUED:          0  USEFUL:          0  USELESS:          0
ITLB USEFUL LOAD PREFETCHES:          0 PREFETCH ISSUED TO LOWER LEVEL:          0  ACCURACY: -nan
ITLB TIMELY PREFETCHES:          0 LATE PREFETCHES: 0 DROPPED PREFETCHES: 0
ITLB PREFETCHES SAME FILL-ORIGIN LEVEL: 0 DIFFERENT FILL-ORIGIN LEVEL: 0
ITLB AVERAGE MISS LATENCY: 9.89784 cycles
ITLB RQ	ACCESS:   40694486	FORWARD:          0	MERGED:    5413893	TO_CACHE:   35280593

DTLB TOTAL     ACCESS:   45930759  HIT:   44107185  MISS:    1823574  HIT %:    96.0297  MISS %:    3.97027   MPKI: 9.11787
DTLB LOAD TRANSLATION ACCESS:   45930759  HIT:   44107185  MISS:    1823574  HIT %:    96.0297  MISS %:    3.97027   MPKI: 9.11787
DTLB PREFETCH  REQUESTED:          0  ISSUED:          0  USEFUL:          0  USELESS:          0
DTLB USEFUL LOAD PREFETCHES:          0 PREFETCH ISSUED TO LOWER LEVEL:          0  ACCURACY: -nan
DTLB TIMELY PREFETCHES:          0 LATE PREFETCHES: 0 DROPPED PREFETCHES: 0
DTLB PREFETCHES SAME FILL-ORIGIN LEVEL: 0 DIFFERENT FILL-ORIGIN LEVEL: 0
DTLB AVERAGE MISS LATENCY: 12.2494 cycles
DTLB RQ	ACCESS:   61109303	FORWARD:          0	MERGED:   15060416	TO_CACHE:   46048887

STLB TOTAL     ACCESS:   12984952  HIT:   12850926  MISS:     134026  HIT %:    98.9678  MISS %:    1.03216   MPKI: 0.67013
STLB LOAD TRANSLATION ACCESS:    3474352  HIT:    3353472  MISS:     120880  HIT %:    96.5208  MISS %:    3.47921   MPKI: 0.6044
STLB TRANSLATION FROM L1D PREFETCHER ACCESS:    9510600  HIT:    9497454  MISS:      13146  HIT %:    99.8618  MISS %:   0.138225   MPKI: 0.06573
STLB PREFETCH  REQUESTED:          0  ISSUED:          0  USEFUL:      11496  USELESS:       1652
STLB USEFUL LOAD PREFETCHES:      11496 PREFETCH ISSUED TO LOWER LEVEL:          0  ACCURACY: inf
STLB TIMELY PREFETCHES:      11496 LATE PREFETCHES: 259 DROPPED PREFETCHES: 723659
STLB PREFETCHES SAME FILL-ORIGIN LEVEL: 0 DIFFERENT FILL-ORIGIN LEVEL: 0
STLB AVERAGE MISS LATENCY: 59.2006 cycles
STLB RQ	ACCESS:   27906074	FORWARD:          0	MERGED:   14087323	TO_CACHE:   13818751

STLB Hit, L1D data hit: 0
STLB Hit, L2C data hit: 0
STLB Hit, LLC data hit: 0
STLB Hit, LLC data miss: 0
STLB STLB hints to L2: 0
L1D TOTAL     ACCESS:   81652442  HIT:   73878012  MISS:    7774430  HIT %:    90.4786  MISS %:    9.52137   MPKI: 38.8721
L1D LOAD      ACCESS:   35352982  HIT:   31930082  MISS:    3422900  HIT %:    90.3179  MISS %:    9.68207   MPKI: 17.1145
L1D RFO       ACCESS:   23830044  HIT:   22671823  MISS:    1158221  HIT %:    95.1397  MISS %:    4.86034   MPKI: 5.7911
L1D PREFETCH  ACCESS:   22469416  HIT:   19276107  MISS:    3193309  HIT %:    85.7882  MISS %:    14.2118   MPKI: 15.9665
AGUS PREFETCH L1 MISS: 0
L1D PREFETCH  REQUESTED:   78019770  ISSUED:   77929466  USEFUL:     418538  USELESS:    2774774
L1D USEFUL LOAD PREFETCHES:     418538 PREFETCH ISSUED TO LOWER LEVEL:    3194105  ACCURACY: 13.1035
L1D TIMELY PREFETCHES:     418538 LATE PREFETCHES: 797 DROPPED PREFETCHES: 1787686
L1D PREFETCHES SAME FILL-ORIGIN LEVEL: 3194105 DIFFERENT FILL-ORIGIN LEVEL: 0
L1D AVERAGE MISS LATENCY: 32969.1 cycles
L1D RQ	ACCESS:   46581912	FORWARD:          0	MERGED:   10859084	TO_CACHE:   35510125
L1D WQ	ACCESS:   25941685	FORWARD:     212703	MERGED:     342507	TO_CACHE:   25599178
L1D PQ	ACCESS:   53497744	FORWARD:          0	MERGED:   29066022	TO_CACHE:   24431722

L1D UNIQUE REGIONS ACCESSED: 0
L1D REGIONS CONFLICTS: 0
L1D Cross Page Prefetch Requests: 41019294
L1D Same Page Prefetch Requests: 23802330
L1D ROI Sum of L1D PQ occupancy: 374859002
L1D PREFETCHES PUSHED FROM L2C: 0
L1I TOTAL     ACCESS:   39391853  HIT:   30933472  MISS:    8458381  HIT %:    78.5276  MISS %:    21.4724   MPKI: 42.2919
L1I LOAD      ACCESS:   39391853  HIT:   30933472  MISS:    8458381  HIT %:    78.5276  MISS %:    21.4724   MPKI: 42.2919
L1I PREFETCH  REQUESTED:          0  ISSUED:          0  USEFUL:          0  USELESS:          0
L1I USEFUL LOAD PREFETCHES:          0 PREFETCH ISSUED TO LOWER LEVEL:          0  ACCURACY: -nan
L1I TIMELY PREFETCHES:          0 LATE PREFETCHES: 0 DROPPED PREFETCHES: 0
L1I PREFETCHES SAME FILL-ORIGIN LEVEL: 0 DIFFERENT FILL-ORIGIN LEVEL: 0
L1I AVERAGE MISS LATENCY: 23.2592 cycles
L1I RQ	ACCESS:   60015800	FORWARD:          0	MERGED:   19321314	TO_CACHE:   40694486

BTB TOTAL     ACCESS:   29850924  HIT:   19884743  MISS:    9966181  HIT %:    66.6135  MISS %:    33.3865   MPKI: 49.8309
BTB BRANCH_DIRECT_JUMP	ACCESS:    2604773  HIT:    1779545  MISS:     825228
BTB BRANCH_INDIRECT	ACCESS:   12507392  HIT:    8343784  MISS:    4163608
BTB BRANCH_CONDITIONAL	ACCESS:    6652538  HIT:    5757723  MISS:     894815
BTB BRANCH_DIRECT_CALL	ACCESS:    3088472  HIT:    1613786  MISS:    1474686
BTB BRANCH_INDIRECT_CALL	ACCESS:     954646  HIT:     671097  MISS:     283549
BTB BRANCH_RETURN	ACCESS:    4043103  HIT:    1718808  MISS:    2324295
BTB BRANCH_OTHER ACCESS:          0  HIT:          0  MISS:          0

L2C TOTAL     ACCESS:   20081215  HIT:   13930558  MISS:    6150657  HIT %:    69.3711  MISS %:    30.6289   MPKI: 30.7533
L2C LOAD      ACCESS:   11880450  HIT:    8084315  MISS:    3796135  HIT %:    68.0472  MISS %:    31.9528   MPKI: 18.9807
L2C DATA LOAD MPKI: 6.25356
L2C INSTRUCTION LOAD MPKI: 12.7271
L2C RFO       ACCESS:    1158215  HIT:     538777  MISS:     619438  HIT %:    46.5179  MISS %:    53.4821   MPKI: 3.09719
L2C PREFETCH  ACCESS:    3194089  HIT:    1691907  MISS:    1502182  HIT %:    52.9699  MISS %:    47.0301   MPKI: 7.51091
AGUS PREFETCH L1 MISS: 0
L2C DATA PREFETCH MPKI: 7.51091
L2C INSTRUCTION PREFETCH MPKI: 0
L2C WRITEBACK ACCESS:    2292330  HIT:    2195071  MISS:      97259  HIT %:    95.7572  MISS %:     4.2428   MPKI: 0.486295
L2C LOAD TRANSLATION ACCESS:     212516  HIT:     114302  MISS:      98214  HIT %:    53.7851  MISS %:    46.2149   MPKI: 0.49107
L2C TRANSLATION FROM L1D PREFETCHER ACCESS:    1343615  HIT:    1306186  MISS:      37429  HIT %:    97.2143  MISS %:    2.78569   MPKI: 0.187145
L2C PREFETCH  REQUESTED:          0  ISSUED:          0  USEFUL:      77556  USELESS:    1462012
L2C USEFUL LOAD PREFETCHES:      77556 PREFETCH ISSUED TO LOWER LEVEL:    1502182  ACCURACY: 5.16289
L2C TIMELY PREFETCHES:      77556 LATE PREFETCHES: 0 DROPPED PREFETCHES: 0
L2C PREFETCHES SAME FILL-ORIGIN LEVEL: 0 DIFFERENT FILL-ORIGIN LEVEL: 0
L2C AVERAGE MISS LATENCY: 35.3459 cycles
L2C RQ	ACCESS:   14594836	FORWARD:          0	MERGED:          0	TO_CACHE:   14594796
L2C WQ	ACCESS:    2292331	FORWARD:         56	MERGED:          0	TO_CACHE:    2292331
L2C PQ	ACCESS:    3194105	FORWARD:          0	MERGED:          0	TO_CACHE:    3194089

L2C Instructions Evicting Data 1314971
L2C Translations Evicting Data 86730
L2C Data Evicting Data 2004352
L2C Instructions Evicting Instructions 1183643
L2C Translations Evicting Instructions 44974
L2C Data Evicting Instructions 1284989
L2C Instructions Evicting Translations 46810
L2C Translations Evicting Translations 3939
L2C Data Evicting Translations 82990
L2C Dense regions hint from L2: 0
PSCL5 TOTAL     ACCESS:     857685  HIT:     857685  MISS:          0  HIT %:        100  MISS %:          0   MPKI: 0
PSCL5 LOAD TRANSLATION ACCESS:     120621  HIT:     120621  MISS:          0  HIT %:        100  MISS %:          0   MPKI: 0
PSCL5 TRANSLATION FROM L1D PREFETCHER ACCESS:     737064  HIT:     737064  MISS:          0  HIT %:        100  MISS %:          0   MPKI: 0
PSCL5 PREFETCH  REQUESTED:          0  ISSUED:          0  USEFUL:          0  USELESS:          0
PSCL5 USEFUL LOAD PREFETCHES:          0 PREFETCH ISSUED TO LOWER LEVEL:          0  ACCURACY: -nan
PSCL5 TIMELY PREFETCHES:          0 LATE PREFETCHES: 0 DROPPED PREFETCHES: 0
PSCL5 PREFETCHES SAME FILL-ORIGIN LEVEL: 0 DIFFERENT FILL-ORIGIN LEVEL: 0

PSCL4 TOTAL     ACCESS:     670092  HIT:     665103  MISS:       4989  HIT %:    99.2555  MISS %:   0.744525   MPKI: 0.024945
PSCL4 LOAD TRANSLATION ACCESS:     110405  HIT:     105416  MISS:       4989  HIT %:    95.4812  MISS %:    4.51882   MPKI: 0.024945
PSCL4 TRANSLATION FROM L1D PREFETCHER ACCESS:     559687  HIT:     559687  MISS:          0  HIT %:        100  MISS %:          0   MPKI: 0
PSCL4 PREFETCH  REQUESTED:          0  ISSUED:          0  USEFUL:          0  USELESS:          0
PSCL4 USEFUL LOAD PREFETCHES:          0 PREFETCH ISSUED TO LOWER LEVEL:          0  ACCURACY: -nan
PSCL4 TIMELY PREFETCHES:          0 LATE PREFETCHES: 0 DROPPED PREFETCHES: 0
PSCL4 PREFETCHES SAME FILL-ORIGIN LEVEL: 0 DIFFERENT FILL-ORIGIN LEVEL: 0

PSCL3 TOTAL     ACCESS:     621421  HIT:     597271  MISS:      24150  HIT %:    96.1137  MISS %:    3.88625   MPKI: 0.12075
PSCL3 LOAD TRANSLATION ACCESS:     115352  HIT:      91202  MISS:      24150  HIT %:    79.0641  MISS %:    20.9359   MPKI: 0.12075
PSCL3 TRANSLATION FROM L1D PREFETCHER ACCESS:     506069  HIT:     506069  MISS:          0  HIT %:        100  MISS %:          0   MPKI: 0
PSCL3 PREFETCH  REQUESTED:          0  ISSUED:          0  USEFUL:          0  USELESS:          0
PSCL3 USEFUL LOAD PREFETCHES:          0 PREFETCH ISSUED TO LOWER LEVEL:          0  ACCURACY: -nan
PSCL3 TIMELY PREFETCHES:          0 LATE PREFETCHES: 0 DROPPED PREFETCHES: 0
PSCL3 PREFETCHES SAME FILL-ORIGIN LEVEL: 0 DIFFERENT FILL-ORIGIN LEVEL: 0

PSCL2 TOTAL     ACCESS:     373230  HIT:     305961  MISS:      67269  HIT %:    81.9765  MISS %:    18.0235   MPKI: 0.336345
PSCL2 LOAD TRANSLATION ACCESS:     123757  HIT:      56488  MISS:      67269  HIT %:    45.6443  MISS %:    54.3557   MPKI: 0.336345
PSCL2 TRANSLATION FROM L1D PREFETCHER ACCESS:     249473  HIT:     249473  MISS:          0  HIT %:        100  MISS %:          0   MPKI: 0
PSCL2 PREFETCH  REQUESTED:          0  ISSUED:          0  USEFUL:          0  USELESS:          0
PSCL2 USEFUL LOAD PREFETCHES:          0 PREFETCH ISSUED TO LOWER LEVEL:          0  ACCURACY: -nan
PSCL2 TIMELY PREFETCHES:          0 LATE PREFETCHES: 0 DROPPED PREFETCHES: 0
PSCL2 PREFETCHES SAME FILL-ORIGIN LEVEL: 0 DIFFERENT FILL-ORIGIN LEVEL: 0

LLC TOTAL     ACCESS:    7128552  HIT:    6916784  MISS:     211768  HIT %:    97.0293  MISS %:     2.9707   MPKI: 1.05884
LLC LOAD      ACCESS:    3796134  HIT:    3704404  MISS:      91730  HIT %:    97.5836  MISS %:    2.41641   MPKI: 0.45865
LLC RFO       ACCESS:     619418  HIT:     561991  MISS:      57427  HIT %:    90.7289  MISS %:    9.27112   MPKI: 0.287135
LLC PREFETCH  ACCESS:    1502181  HIT:    1447071  MISS:      55110  HIT %:    96.3313  MISS %:    3.66867   MPKI: 0.27555
AGUS PREFETCH L1 MISS: 0
LLC WRITEBACK ACCESS:    1075176  HIT:    1074322  MISS:        854  HIT %:    99.9206  MISS %:  0.0794289   MPKI: 0.00427
LLC LOAD TRANSLATION ACCESS:      98214  HIT:      92039  MISS:       6175  HIT %:    93.7127  MISS %:    6.28729   MPKI: 0.030875
LLC TRANSLATION FROM L1D PREFETCHER ACCESS:      37429  HIT:      36957  MISS:        472  HIT %:    98.7389  MISS %:    1.26105   MPKI: 0.00236
LLC PREFETCH  REQUESTED:          0  ISSUED:          0  USEFUL:       7235  USELESS:      48533
LLC USEFUL LOAD PREFETCHES:       7235 PREFETCH ISSUED TO LOWER LEVEL:      55110  ACCURACY: 13.1283
LLC TIMELY PREFETCHES:       7235 LATE PREFETCHES: 0 DROPPED PREFETCHES: 0
LLC PREFETCHES SAME FILL-ORIGIN LEVEL: 0 DIFFERENT FILL-ORIGIN LEVEL: 0
LLC AVERAGE MISS LATENCY: 169.035 cycles
LLC RQ	ACCESS:    4551216	FORWARD:          0	MERGED:          0	TO_CACHE:    4551195
LLC WQ	ACCESS:    1075177	FORWARD:         22	MERGED:          0	TO_CACHE:    1075177
LLC PQ	ACCESS:    1502182	FORWARD:          0	MERGED:          0	TO_CACHE:    1502181

LLC Dense regions hint to LLC: 0

RAW hits: 3215256
Loads Generated: 49797170
Loads sent to L1D: 46581912
Stores Generated: 25941683
Stores sent to L1D: 25941685
Major fault: 0 Minor fault: 4280
Allocated PAGES: 4280
ucb ended
-----------------------------------------------------------------------------------------------------------------------------------------------------------------------------------------------------
Offsets elements: -63 -62 -61 -60 -59 -58 -57 -56 -55 -54 -53 -52 -51 -50 -49 -48 -47 -46 -45 -44 -43 -42 -41 -40 -39 -38 -37 -36 -35 -34 -33 -32 -31 -30 -29 -28 -27 -26 -25 -24 -23 -22 -21 -20 -19 -18 -17 -16 -15 -14 -13 -12 -11 -10 -9 -8 -7 -6 -5 -4 -3 -2 -1 1 2 3 4 5 6 7 8 9 10 11 12 13 14 15 16 17 18 19 20 21 22 23 24 25 26 27 28 29 30 31 32 33 34 35 36 37 38 39 40 41 42 43 44 45 46 47 48 49 50 51 52 53 54 55 56 57 58 59 60 61 62 63 
Potential of Offsets elements: 28.5839 48.5839 189.584 29.5839 149.584 115.584 30.5839 29.5839 73.5839 121.584 98.5839 144.584 116.584 140.584 145.584 127.584 356.584 180.584 100.584 127.584 97.5839 218.584 47.5839 29.5839 68.5839 97.5839 133.584 54.5839 174.584 678.584 1243.58 328.584 82.5839 41.5839 65.5839 31.5839 28.5839 122.584 116.584 103.584 113.584 75.5839 209.584 332.584 55.5839 157.584 219.584 396.584 108.584 184.584 198.584 243.584 188.584 135.584 144.584 242.584 323.584 171.584 190.584 285.584 583.584 1034.58 1024.58 412.584 382.584 119.503 492.584 216.584 248.584 597.584 728.584 351.584 488.584 222.584 125.584 136.584 151.584 95.5839 36.5839 83.5839 334.584 246.584 28.5839 108.584 192.584 326.584 225.584 110.584 100.584 92.5839 274.584 154.584 64.5839 177.584 396.584 404.584 113.584 62.5839 60.5839 1329.1 1035.58 46.5839 39.5839 56.5839 34.5839 28.5839 43.5839 84.5839 39.5839 94.5839 40.5839 138.584 122.584 80.5839 125.584 118.584 50.5839 32.5839 65.5839 36.5839 155.584 164.584 66.5839 169.584 49.5839 72.5839 
rewards of Offsets elements: 0 20 161 1 121 87 2 1 45 93 70 116 88 112 117 99 328 152 72 99 69 190 19 1 40 69 105 26 146 650 1215 300 54 13 37 3 0 94 88 75 85 47 181 304 27 129 191 368 80 156 170 215 160 107 116 214 295 143 162 257 555 1006 996 384 354 103 464 188 220 569 700 323 460 194 97 108 123 67 8 55 306 218 0 80 164 298 197 82 72 64 246 126 36 149 368 376 85 34 32 1329 1007 18 11 28 6 0 15 56 11 66 12 110 94 52 97 90 22 4 37 8 127 136 38 141 21 44 Printing Sanity2
offset_index value126
offset list size126
reward size126
potential size126
-----------------------------------------------------------------------------------------------------------------------------------------------------------------------------------------------------

DRAM Statistics
 CHANNEL 0
 RQ ROW_BUFFER_HIT:      48101  ROW_BUFFER_MISS:     162813
 DBUS_CONGESTED:        113
 WQ ROW_BUFFER_HIT:      13505  ROW_BUFFER_MISS:      94384  FULL:          0

 AVG_CONGESTED_CYCLE: 5
 All warmup complete: 2
Channel 0 Bank busy for read cycles: 0
Channel 0 Bank busy for write cycles: 0
Channel 0
Rank 0
0banks busy for read cycles: 600783838
0banks busy for write cycles: 56692
1banks busy for read cycles: 14010876
1banks busy for write cycles: 7799143
2banks busy for read cycles: 2877759
2banks busy for write cycles: 2041150
3banks busy for read cycles: 1074015
3banks busy for write cycles: 788102
4banks busy for read cycles: 376958
4banks busy for write cycles: 339407
5banks busy for read cycles: 75987
5banks busy for write cycles: 146686
6banks busy for read cycles: 59814
6banks busy for write cycles: 67998
7banks busy for read cycles: 65741
7banks busy for write cycles: 63766
8banks busy for read cycles: 151966
8banks busy for write cycles: 265513

CPU 0 Branch Prediction Accuracy: 99.8256% MPKI: 0.309945 Average ROB Occupancy at Mispredict: 45.1165
Branch types
NOT_BRANCH: 164461162 82.2306%
BRANCH_DIRECT_JUMP: 2604773 1.30239%
BRANCH_INDIRECT: 12507392 6.2537%
BRANCH_CONDITIONAL: 12340417 6.17021%
BRANCH_DIRECT_CALL: 3088472 1.54424%
BRANCH_INDIRECT_CALL: 954646 0.477323%
BRANCH_RETURN: 4043103 2.02155%
BRANCH_OTHER: 0 0%

DRAM PAGES: 1048576
Allocated PAGES: 4280
