
*** ChampSim Multicore Out-of-Order Simulator ***

Warmup Instructions: 50000000
Simulation Instructions: 200000000
Number of CPUs: 1
LLC sets: 2048
LLC ways: 16
Off-chip DRAM Size: 4096 MB Channels: 1 Width: 64-bit Data Rate: 6400 MT/s
CPU 0 runs traces/spec2k17/srv_56.champsimtrace.xz
.xz
BTB has LRU replacement policy
ITLB has LRU replacement policy
DTLB has LRU replacement policy
STLB has LRU replacement policy
L1I has LRU replacement policy
L1D has LRU replacement policy
Initialize SRRIP state for L2C
Initialize DRRIP state for LLC
Offsets elements: -63 -62 -61 -60 -59 -58 -57 -56 -55 -54 -53 -52 -51 -50 -49 -48 -47 -46 -45 -44 -43 -42 -41 -40 -39 -38 -37 -36 -35 -34 -33 -32 -31 -30 -29 -28 -27 -26 -25 -24 -23 -22 -21 -20 -19 -18 -17 -16 -15 -14 -13 -12 -11 -10 -9 -8 -7 -6 -5 -4 -3 -2 -1 1 2 3 4 5 6 7 8 9 10 11 12 13 14 15 16 17 18 19 20 21 22 23 24 25 26 27 28 29 30 31 32 33 34 35 36 37 38 39 40 41 42 43 44 45 46 47 48 49 50 51 52 53 54 55 56 57 58 59 60 61 62 63 
Potential of Offsets elements: 
rewards of Offsets elements: 131 309 45 51 251 145 141 1 0 4 0 4 40 0 22 14 26 10 7 0 4 44 8 0 32 32 241 117 210 41 414 433 440 46 330 114 96 27 112 62 59 17 132 66 138 8 369 198 221 40 76 53 62 72 247 224 485 680 1355 434 505 899 1756 1535 421 754 630 220 333 107 691 245 14 116 47 114 170 190 141 173 238 100 109 94 117 38 47 98 43 24 95 30 63 37 184 103 97 652 349 69 241 250 135 6 0 0 0 0 23 136 145 29 164 64 91 43 177 91 100 82 33 60 264 188 17 265 
Printing Sanity1
Heartbeat CPU 0 instructions: 10000002 cycles: 2778729 heartbeat IPC: 3.59877 cumulative IPC: 3.59877 (Simulation time: 0 hr 0 min 41 sec) 
Heartbeat CPU 0 instructions: 20000003 cycles: 5610222 heartbeat IPC: 3.53171 cumulative IPC: 3.56492 (Simulation time: 0 hr 1 min 24 sec) 
Heartbeat CPU 0 instructions: 30000000 cycles: 8391537 heartbeat IPC: 3.59542 cumulative IPC: 3.57503 (Simulation time: 0 hr 2 min 0 sec) 
*** Reached end of trace for Core: 0 Repeating trace: traces/spec2k17/srv_56.champsimtrace.xz
Heartbeat CPU 0 instructions: 40000000 cycles: 11180243 heartbeat IPC: 3.58589 cumulative IPC: 3.57774 (Simulation time: 0 hr 2 min 42 sec) 
Heartbeat CPU 0 instructions: 50000002 cycles: 14011390 heartbeat IPC: 3.53214 cumulative IPC: 3.56853 (Simulation time: 0 hr 3 min 27 sec) 

Warmup complete CPU 0 instructions: 50000002 cycles: 14011390 (Simulation time: 0 hr 3 min 27 sec) 

Heartbeat CPU 0 instructions: 60000000 cycles: 30880914 heartbeat IPC: 0.592785 cumulative IPC: 0.592785 (Simulation time: 0 hr 4 min 7 sec) 
*** Reached end of trace for Core: 0 Repeating trace: traces/spec2k17/srv_56.champsimtrace.xz
Heartbeat CPU 0 instructions: 70000003 cycles: 48007007 heartbeat IPC: 0.583905 cumulative IPC: 0.588311 (Simulation time: 0 hr 4 min 43 sec) 
Heartbeat CPU 0 instructions: 80000002 cycles: 64021300 heartbeat IPC: 0.624442 cumulative IPC: 0.599881 (Simulation time: 0 hr 5 min 21 sec) 
Heartbeat CPU 0 instructions: 90000000 cycles: 80957644 heartbeat IPC: 0.590446 cumulative IPC: 0.597494 (Simulation time: 0 hr 5 min 57 sec) 
*** Reached end of trace for Core: 0 Repeating trace: traces/spec2k17/srv_56.champsimtrace.xz
Heartbeat CPU 0 instructions: 100000000 cycles: 97943390 heartbeat IPC: 0.588729 cumulative IPC: 0.59572 (Simulation time: 0 hr 6 min 34 sec) 
Heartbeat CPU 0 instructions: 110000000 cycles: 113700748 heartbeat IPC: 0.634624 cumulative IPC: 0.60187 (Simulation time: 0 hr 7 min 10 sec) 
Heartbeat CPU 0 instructions: 120000003 cycles: 130909793 heartbeat IPC: 0.58109 cumulative IPC: 0.598811 (Simulation time: 0 hr 8 min 2 sec) 
*** Reached end of trace for Core: 0 Repeating trace: traces/spec2k17/srv_56.champsimtrace.xz
Heartbeat CPU 0 instructions: 130000002 cycles: 147815247 heartbeat IPC: 0.591525 cumulative IPC: 0.59789 (Simulation time: 0 hr 9 min 0 sec) 
Heartbeat CPU 0 instructions: 140000001 cycles: 163819552 heartbeat IPC: 0.624832 cumulative IPC: 0.600768 (Simulation time: 0 hr 9 min 44 sec) 
Heartbeat CPU 0 instructions: 150000002 cycles: 180788189 heartbeat IPC: 0.589323 cumulative IPC: 0.599604 (Simulation time: 0 hr 10 min 20 sec) 
*** Reached end of trace for Core: 0 Repeating trace: traces/spec2k17/srv_56.champsimtrace.xz
Heartbeat CPU 0 instructions: 160000002 cycles: 197626357 heartbeat IPC: 0.593889 cumulative IPC: 0.59908 (Simulation time: 0 hr 10 min 56 sec) 
Heartbeat CPU 0 instructions: 170000000 cycles: 213906717 heartbeat IPC: 0.614237 cumulative IPC: 0.600314 (Simulation time: 0 hr 11 min 48 sec) 
Heartbeat CPU 0 instructions: 180000001 cycles: 230543160 heartbeat IPC: 0.60109 cumulative IPC: 0.600374 (Simulation time: 0 hr 12 min 25 sec) 
*** Reached end of trace for Core: 0 Repeating trace: traces/spec2k17/srv_56.champsimtrace.xz
Heartbeat CPU 0 instructions: 190000002 cycles: 247454056 heartbeat IPC: 0.591335 cumulative IPC: 0.599719 (Simulation time: 0 hr 13 min 1 sec) 
Heartbeat CPU 0 instructions: 200000001 cycles: 263986086 heartbeat IPC: 0.604886 cumulative IPC: 0.600061 (Simulation time: 0 hr 13 min 37 sec) 
Heartbeat CPU 0 instructions: 210000000 cycles: 280351576 heartbeat IPC: 0.611042 cumulative IPC: 0.600735 (Simulation time: 0 hr 14 min 13 sec) 
*** Reached end of trace for Core: 0 Repeating trace: traces/spec2k17/srv_56.champsimtrace.xz
Heartbeat CPU 0 instructions: 220000000 cycles: 297182175 heartbeat IPC: 0.594156 cumulative IPC: 0.600344 (Simulation time: 0 hr 14 min 49 sec) 
Heartbeat CPU 0 instructions: 230000000 cycles: 314054410 heartbeat IPC: 0.59269 cumulative IPC: 0.599914 (Simulation time: 0 hr 15 min 23 sec) 
Heartbeat CPU 0 instructions: 240000001 cycles: 330148724 heartbeat IPC: 0.621338 cumulative IPC: 0.601005 (Simulation time: 0 hr 15 min 57 sec) 
*** Reached end of trace for Core: 0 Repeating trace: traces/spec2k17/srv_56.champsimtrace.xz
Heartbeat CPU 0 instructions: 250000002 cycles: 346928679 heartbeat IPC: 0.595949 cumulative IPC: 0.60075 (Simulation time: 0 hr 16 min 29 sec) 
Finished CPU 0 instructions: 200000000 cycles: 332917289 cumulative IPC: 0.60075 (Simulation time: 0 hr 16 min 29 sec) 

ChampSim completed all CPUs

Region of Interest Statistics

CPU 0 cumulative IPC: 0.60075 instructions: 200000000 cycles: 332917289
ITLB TOTAL     ACCESS:   34933460  HIT:   34115918  MISS:     817542  HIT %:    97.6597  MISS %:    2.34028   MPKI: 4.08771
ITLB LOAD TRANSLATION ACCESS:   34933460  HIT:   34115918  MISS:     817542  HIT %:    97.6597  MISS %:    2.34028   MPKI: 4.08771
ITLB PREFETCH  REQUESTED:          0  ISSUED:          0  USEFUL:          0  USELESS:          0
ITLB USEFUL LOAD PREFETCHES:          0 PREFETCH ISSUED TO LOWER LEVEL:          0  ACCURACY: -nan
ITLB TIMELY PREFETCHES:          0 LATE PREFETCHES: 0 DROPPED PREFETCHES: 0
ITLB PREFETCHES SAME FILL-ORIGIN LEVEL: 0 DIFFERENT FILL-ORIGIN LEVEL: 0
ITLB AVERAGE MISS LATENCY: 9.31265 cycles
ITLB RQ	ACCESS:   39788608	FORWARD:          0	MERGED:    4573832	TO_CACHE:   35214776

DTLB TOTAL     ACCESS:   40104920  HIT:   39205088  MISS:     899832  HIT %:    97.7563  MISS %:    2.24369   MPKI: 4.49916
DTLB LOAD TRANSLATION ACCESS:   40104920  HIT:   39205088  MISS:     899832  HIT %:    97.7563  MISS %:    2.24369   MPKI: 4.49916
DTLB PREFETCH  REQUESTED:          0  ISSUED:          0  USEFUL:          0  USELESS:          0
DTLB USEFUL LOAD PREFETCHES:          0 PREFETCH ISSUED TO LOWER LEVEL:          0  ACCURACY: -nan
DTLB TIMELY PREFETCHES:          0 LATE PREFETCHES: 0 DROPPED PREFETCHES: 0
DTLB PREFETCHES SAME FILL-ORIGIN LEVEL: 0 DIFFERENT FILL-ORIGIN LEVEL: 0
DTLB AVERAGE MISS LATENCY: 14.156 cycles
DTLB RQ	ACCESS:   54921501	FORWARD:          0	MERGED:   14766894	TO_CACHE:   40154607

STLB TOTAL     ACCESS:   10356284  HIT:   10303372  MISS:      52912  HIT %:    99.4891  MISS %:   0.510917   MPKI: 0.26456
STLB LOAD TRANSLATION ACCESS:    1717374  HIT:    1664770  MISS:      52604  HIT %:     96.937  MISS %:    3.06305   MPKI: 0.26302
STLB TRANSLATION FROM L1D PREFETCHER ACCESS:    8638910  HIT:    8638602  MISS:        308  HIT %:    99.9964  MISS %: 0.00356526   MPKI: 0.00154
STLB PREFETCH  REQUESTED:          0  ISSUED:          0  USEFUL:        275  USELESS:         33
STLB USEFUL LOAD PREFETCHES:        275 PREFETCH ISSUED TO LOWER LEVEL:          0  ACCURACY: inf
STLB TIMELY PREFETCHES:        275 LATE PREFETCHES: 0 DROPPED PREFETCHES: 26153
STLB PREFETCHES SAME FILL-ORIGIN LEVEL: 0 DIFFERENT FILL-ORIGIN LEVEL: 0
STLB AVERAGE MISS LATENCY: 92.5719 cycles
STLB RQ	ACCESS:   12914725	FORWARD:          0	MERGED:    2532275	TO_CACHE:   10382450

STLB Hit, L1D data hit: 0
STLB Hit, L2C data hit: 0
STLB Hit, LLC data hit: 0
STLB Hit, LLC data miss: 0
STLB STLB hints to L2: 0
L1D TOTAL     ACCESS:   65449034  HIT:   63792639  MISS:    1656395  HIT %:    97.4692  MISS %:    2.53082   MPKI: 8.28197
L1D LOAD      ACCESS:   33245497  HIT:   32301064  MISS:     944433  HIT %:    97.1592  MISS %:    2.84078   MPKI: 4.72217
L1D RFO       ACCESS:   21188545  HIT:   20852951  MISS:     335594  HIT %:    98.4162  MISS %:    1.58385   MPKI: 1.67797
L1D PREFETCH  ACCESS:   11014992  HIT:   10638624  MISS:     376368  HIT %:    96.5831  MISS %:    3.41687   MPKI: 1.88184
AGUS PREFETCH L1 MISS: 0
L1D PREFETCH  REQUESTED:   57126363  ISSUED:   57126288  USEFUL:     118865  USELESS:     257469
L1D USEFUL LOAD PREFETCHES:     118865 PREFETCH ISSUED TO LOWER LEVEL:     435874  ACCURACY: 27.2705
L1D TIMELY PREFETCHES:     118865 LATE PREFETCHES: 58085 DROPPED PREFETCHES: 26153
L1D PREFETCHES SAME FILL-ORIGIN LEVEL: 435874 DIFFERENT FILL-ORIGIN LEVEL: 0
L1D AVERAGE MISS LATENCY: 6.54311e+06 cycles
L1D RQ	ACCESS:   47511778	FORWARD:          0	MERGED:   13955085	TO_CACHE:   33282407
L1D WQ	ACCESS:   21914197	FORWARD:     289122	MERGED:     275103	TO_CACHE:   21639094
L1D PQ	ACCESS:   45928937	FORWARD:          0	MERGED:   34716750	TO_CACHE:   11197351

L1D UNIQUE REGIONS ACCESSED: 0
L1D REGIONS CONFLICTS: 0
L1D Cross Page Prefetch Requests: 1407002
L1D Same Page Prefetch Requests: 55521398
L1D ROI Sum of L1D PQ occupancy: 141414718
L1D PREFETCHES PUSHED FROM L2C: 0
L1I TOTAL     ACCESS:   39319459  HIT:   36679698  MISS:    2639761  HIT %:    93.2864  MISS %:    6.71362   MPKI: 13.1988
L1I LOAD      ACCESS:   39319459  HIT:   36679698  MISS:    2639761  HIT %:    93.2864  MISS %:    6.71362   MPKI: 13.1988
L1I PREFETCH  REQUESTED:          0  ISSUED:          0  USEFUL:          0  USELESS:          0
L1I USEFUL LOAD PREFETCHES:          0 PREFETCH ISSUED TO LOWER LEVEL:          0  ACCURACY: -nan
L1I TIMELY PREFETCHES:          0 LATE PREFETCHES: 0 DROPPED PREFETCHES: 0
L1I PREFETCHES SAME FILL-ORIGIN LEVEL: 0 DIFFERENT FILL-ORIGIN LEVEL: 0
L1I AVERAGE MISS LATENCY: 17.9271 cycles
L1I RQ	ACCESS:   62196898	FORWARD:          0	MERGED:   22408290	TO_CACHE:   39788608

BTB TOTAL     ACCESS:   32613613  HIT:   28976968  MISS:    3636645  HIT %:    88.8493  MISS %:    11.1507   MPKI: 18.1832
BTB BRANCH_DIRECT_JUMP	ACCESS:    3424496  HIT:    3239376  MISS:     185120
BTB BRANCH_INDIRECT	ACCESS:   12879305  HIT:   11560314  MISS:    1318991
BTB BRANCH_CONDITIONAL	ACCESS:    8936157  HIT:    8698809  MISS:     237348
BTB BRANCH_DIRECT_CALL	ACCESS:    2777775  HIT:    2446309  MISS:     331466
BTB BRANCH_INDIRECT_CALL	ACCESS:     909063  HIT:     766967  MISS:     142096
BTB BRANCH_RETURN	ACCESS:    3686817  HIT:    2265193  MISS:    1421624
BTB BRANCH_OTHER ACCESS:          0  HIT:          0  MISS:          0

L2C TOTAL     ACCESS:    5023532  HIT:    4254013  MISS:     769519  HIT %:    84.6817  MISS %:    15.3183   MPKI: 3.8476
L2C LOAD      ACCESS:    3526027  HIT:    2985956  MISS:     540071  HIT %:    84.6833  MISS %:    15.3167   MPKI: 2.70036
L2C DATA LOAD MPKI: 1.05632
L2C INSTRUCTION LOAD MPKI: 1.64403
L2C RFO       ACCESS:     334173  HIT:     255496  MISS:      78677  HIT %:    76.4562  MISS %:    23.5438   MPKI: 0.393385
L2C PREFETCH  ACCESS:     435874  HIT:     334386  MISS:     101488  HIT %:    76.7162  MISS %:    23.2838   MPKI: 0.50744
AGUS PREFETCH L1 MISS: 0
L2C DATA PREFETCH MPKI: 0.50744
L2C INSTRUCTION PREFETCH MPKI: 0
L2C WRITEBACK ACCESS:     602279  HIT:     591062  MISS:      11217  HIT %:    98.1376  MISS %:    1.86243   MPKI: 0.056085
L2C LOAD TRANSLATION ACCESS:      97564  HIT:      59987  MISS:      37577  HIT %:    61.4848  MISS %:    38.5152   MPKI: 0.187885
L2C TRANSLATION FROM L1D PREFETCHER ACCESS:      27615  HIT:      27126  MISS:        489  HIT %:    98.2292  MISS %:    1.77078   MPKI: 0.002445
L2C PREFETCH  REQUESTED:          0  ISSUED:          0  USEFUL:       6578  USELESS:      95393
L2C USEFUL LOAD PREFETCHES:       6578 PREFETCH ISSUED TO LOWER LEVEL:     101488  ACCURACY: 6.48155
L2C TIMELY PREFETCHES:       6578 LATE PREFETCHES: 0 DROPPED PREFETCHES: 0
L2C PREFETCHES SAME FILL-ORIGIN LEVEL: 0 DIFFERENT FILL-ORIGIN LEVEL: 0
L2C AVERAGE MISS LATENCY: 50.0809 cycles
L2C RQ	ACCESS:    3985461	FORWARD:          0	MERGED:          0	TO_CACHE:    3985379
L2C WQ	ACCESS:     602279	FORWARD:         82	MERGED:          0	TO_CACHE:     602279
L2C PQ	ACCESS:     435874	FORWARD:          0	MERGED:          0	TO_CACHE:     435874

L2C Instructions Evicting Data 138200
L2C Translations Evicting Data 26306
L2C Data Evicting Data 232519
L2C Instructions Evicting Instructions 182163
L2C Translations Evicting Instructions 7661
L2C Data Evicting Instructions 133946
L2C Instructions Evicting Translations 8443
L2C Translations Evicting Translations 4099
L2C Data Evicting Translations 24965
L2C Dense regions hint from L2: 0
PSCL5 TOTAL     ACCESS:      79065  HIT:      79065  MISS:          0  HIT %:        100  MISS %:          0   MPKI: 0
PSCL5 LOAD TRANSLATION ACCESS:      52604  HIT:      52604  MISS:          0  HIT %:        100  MISS %:          0   MPKI: 0
PSCL5 TRANSLATION FROM L1D PREFETCHER ACCESS:      26461  HIT:      26461  MISS:          0  HIT %:        100  MISS %:          0   MPKI: 0
PSCL5 PREFETCH  REQUESTED:          0  ISSUED:          0  USEFUL:          0  USELESS:          0
PSCL5 USEFUL LOAD PREFETCHES:          0 PREFETCH ISSUED TO LOWER LEVEL:          0  ACCURACY: -nan
PSCL5 TIMELY PREFETCHES:          0 LATE PREFETCHES: 0 DROPPED PREFETCHES: 0
PSCL5 PREFETCHES SAME FILL-ORIGIN LEVEL: 0 DIFFERENT FILL-ORIGIN LEVEL: 0

PSCL4 TOTAL     ACCESS:      77725  HIT:      77594  MISS:        131  HIT %:    99.8315  MISS %:   0.168543   MPKI: 0.000655
PSCL4 LOAD TRANSLATION ACCESS:      52190  HIT:      52059  MISS:        131  HIT %:     99.749  MISS %:   0.251006   MPKI: 0.000655
PSCL4 TRANSLATION FROM L1D PREFETCHER ACCESS:      25535  HIT:      25535  MISS:          0  HIT %:        100  MISS %:          0   MPKI: 0
PSCL4 PREFETCH  REQUESTED:          0  ISSUED:          0  USEFUL:          0  USELESS:          0
PSCL4 USEFUL LOAD PREFETCHES:          0 PREFETCH ISSUED TO LOWER LEVEL:          0  ACCURACY: -nan
PSCL4 TIMELY PREFETCHES:          0 LATE PREFETCHES: 0 DROPPED PREFETCHES: 0
PSCL4 PREFETCHES SAME FILL-ORIGIN LEVEL: 0 DIFFERENT FILL-ORIGIN LEVEL: 0

PSCL3 TOTAL     ACCESS:      61652  HIT:      47486  MISS:      14166  HIT %:    77.0226  MISS %:    22.9774   MPKI: 0.07083
PSCL3 LOAD TRANSLATION ACCESS:      50882  HIT:      36716  MISS:      14166  HIT %:    72.1591  MISS %:    27.8409   MPKI: 0.07083
PSCL3 TRANSLATION FROM L1D PREFETCHER ACCESS:      10770  HIT:      10770  MISS:          0  HIT %:        100  MISS %:          0   MPKI: 0
PSCL3 PREFETCH  REQUESTED:          0  ISSUED:          0  USEFUL:          0  USELESS:          0
PSCL3 USEFUL LOAD PREFETCHES:          0 PREFETCH ISSUED TO LOWER LEVEL:          0  ACCURACY: -nan
PSCL3 TIMELY PREFETCHES:          0 LATE PREFETCHES: 0 DROPPED PREFETCHES: 0
PSCL3 PREFETCHES SAME FILL-ORIGIN LEVEL: 0 DIFFERENT FILL-ORIGIN LEVEL: 0

PSCL2 TOTAL     ACCESS:      78079  HIT:      47387  MISS:      30692  HIT %:    60.6911  MISS %:    39.3089   MPKI: 0.15346
PSCL2 LOAD TRANSLATION ACCESS:      52620  HIT:      21928  MISS:      30692  HIT %:    41.6724  MISS %:    58.3276   MPKI: 0.15346
PSCL2 TRANSLATION FROM L1D PREFETCHER ACCESS:      25459  HIT:      25459  MISS:          0  HIT %:        100  MISS %:          0   MPKI: 0
PSCL2 PREFETCH  REQUESTED:          0  ISSUED:          0  USEFUL:          0  USELESS:          0
PSCL2 USEFUL LOAD PREFETCHES:          0 PREFETCH ISSUED TO LOWER LEVEL:          0  ACCURACY: -nan
PSCL2 TIMELY PREFETCHES:          0 LATE PREFETCHES: 0 DROPPED PREFETCHES: 0
PSCL2 PREFETCHES SAME FILL-ORIGIN LEVEL: 0 DIFFERENT FILL-ORIGIN LEVEL: 0

LLC TOTAL     ACCESS:     898723  HIT:     782702  MISS:     116021  HIT %:    87.0905  MISS %:    12.9095   MPKI: 0.580105
LLC LOAD      ACCESS:     540071  HIT:     468951  MISS:      71120  HIT %:    86.8314  MISS %:    13.1686   MPKI: 0.3556
LLC RFO       ACCESS:      78677  HIT:      70227  MISS:       8450  HIT %:    89.2599  MISS %:    10.7401   MPKI: 0.04225
LLC PREFETCH  ACCESS:     101487  HIT:      76789  MISS:      24698  HIT %:    75.6639  MISS %:    24.3361   MPKI: 0.12349
AGUS PREFETCH L1 MISS: 0
LLC WRITEBACK ACCESS:     140422  HIT:     140105  MISS:        317  HIT %:    99.7743  MISS %:   0.225748   MPKI: 0.001585
LLC LOAD TRANSLATION ACCESS:      37577  HIT:      26213  MISS:      11364  HIT %:    69.7581  MISS %:    30.2419   MPKI: 0.05682
LLC TRANSLATION FROM L1D PREFETCHER ACCESS:        489  HIT:        417  MISS:         72  HIT %:    85.2761  MISS %:    14.7239   MPKI: 0.00036
LLC PREFETCH  REQUESTED:          0  ISSUED:          0  USEFUL:       1125  USELESS:      24829
LLC USEFUL LOAD PREFETCHES:       1125 PREFETCH ISSUED TO LOWER LEVEL:      24698  ACCURACY: 4.55502
LLC TIMELY PREFETCHES:       1125 LATE PREFETCHES: 0 DROPPED PREFETCHES: 0
LLC PREFETCHES SAME FILL-ORIGIN LEVEL: 0 DIFFERENT FILL-ORIGIN LEVEL: 0
LLC AVERAGE MISS LATENCY: 136.087 cycles
LLC RQ	ACCESS:     656814	FORWARD:          0	MERGED:          0	TO_CACHE:     656814
LLC WQ	ACCESS:     140422	FORWARD:          1	MERGED:          0	TO_CACHE:     140422
LLC PQ	ACCESS:     101488	FORWARD:          0	MERGED:          0	TO_CACHE:     101487

LLC Dense regions hint to LLC: 0

RAW hits: 2476608
Loads Generated: 49988386
Loads sent to L1D: 47511778
Stores Generated: 21914186
Stores sent to L1D: 21914197
Major fault: 0 Minor fault: 6990
Allocated PAGES: 6990
ucb ended
-----------------------------------------------------------------------------------------------------------------------------------------------------------------------------------------------------
Offsets elements: -63 -62 -61 -60 -59 -58 -57 -56 -55 -54 -53 -52 -51 -50 -49 -48 -47 -46 -45 -44 -43 -42 -41 -40 -39 -38 -37 -36 -35 -34 -33 -32 -31 -30 -29 -28 -27 -26 -25 -24 -23 -22 -21 -20 -19 -18 -17 -16 -15 -14 -13 -12 -11 -10 -9 -8 -7 -6 -5 -4 -3 -2 -1 1 2 3 4 5 6 7 8 9 10 11 12 13 14 15 16 17 18 19 20 21 22 23 24 25 26 27 28 29 30 31 32 33 34 35 36 37 38 39 40 41 42 43 44 45 46 47 48 49 50 51 52 53 54 55 56 57 58 59 60 61 62 63 
Potential of Offsets elements: 159.509 337.509 73.5085 79.5085 279.509 173.509 169.509 29.5085 28.5085 32.5085 28.5085 32.5085 68.5085 28.5085 50.5085 42.5085 54.5085 38.5085 35.5085 28.5085 32.5085 72.5085 36.5085 28.5085 60.5085 60.5085 269.509 145.509 238.509 69.5085 442.509 461.509 468.509 74.5085 358.509 142.509 124.509 55.5085 140.509 90.5085 87.5085 45.5085 160.509 94.5085 166.509 36.5085 397.509 226.509 249.509 68.5085 104.509 81.5085 90.5085 100.509 275.509 252.509 513.509 708.509 1383.51 462.509 533.509 927.509 955.704 1535.1 449.509 782.509 658.509 248.509 361.509 135.509 719.509 273.509 42.5085 144.509 75.5085 142.509 198.509 218.509 169.509 201.509 266.509 128.509 137.509 122.509 145.509 66.5085 75.5085 126.509 71.5085 52.5085 123.509 58.5085 91.5085 65.5085 212.509 131.509 125.509 680.509 377.509 97.5085 269.509 278.509 163.509 34.5085 28.5085 28.5085 28.5085 28.5085 51.5085 164.509 173.509 57.5085 192.509 92.5085 119.509 71.5085 205.509 119.509 128.509 110.509 61.5085 88.5085 292.509 216.509 45.5085 293.509 
rewards of Offsets elements: 131 309 45 51 251 145 141 1 0 4 0 4 40 0 22 14 26 10 7 0 4 44 8 0 32 32 241 117 210 41 414 433 440 46 330 114 96 27 112 62 59 17 132 66 138 8 369 198 221 40 76 53 62 72 247 224 485 680 1355 434 505 899 955 1535 421 754 630 220 333 107 691 245 14 116 47 114 170 190 141 173 238 100 109 94 117 38 47 98 43 24 95 30 63 37 184 103 97 652 349 69 241 250 135 6 0 0 0 0 23 136 145 29 164 64 91 43 177 91 100 82 33 60 264 188 17 265 Printing Sanity2
offset_index value126
offset list size126
reward size126
potential size126
-----------------------------------------------------------------------------------------------------------------------------------------------------------------------------------------------------

DRAM Statistics
 CHANNEL 0
 RQ ROW_BUFFER_HIT:      41978  ROW_BUFFER_MISS:      73725
 DBUS_CONGESTED:        115
 WQ ROW_BUFFER_HIT:       4385  ROW_BUFFER_MISS:      20318  FULL:          0

 AVG_CONGESTED_CYCLE: 5
 All warmup complete: 2
Channel 0 Bank busy for read cycles: 0
Channel 0 Bank busy for write cycles: 0
Channel 0
Rank 0
0banks busy for read cycles: 320310697
0banks busy for write cycles: 17350
1banks busy for read cycles: 6988325
1banks busy for write cycles: 2633349
2banks busy for read cycles: 1375955
2banks busy for write cycles: 447184
3banks busy for read cycles: 510633
3banks busy for write cycles: 105172
4banks busy for read cycles: 185761
4banks busy for write cycles: 44659
5banks busy for read cycles: 104133
5banks busy for write cycles: 29979
6banks busy for read cycles: 51322
6banks busy for write cycles: 27225
7banks busy for read cycles: 28739
7banks busy for write cycles: 24123
8banks busy for read cycles: 14180
8banks busy for write cycles: 18504

CPU 0 Branch Prediction Accuracy: 99.8177% MPKI: 0.34573 Average ROB Occupancy at Mispredict: 34.7511
Branch types
NOT_BRANCH: 162062285 81.0311%
BRANCH_DIRECT_JUMP: 3424496 1.71225%
BRANCH_INDIRECT: 12879305 6.43965%
BRANCH_CONDITIONAL: 14259908 7.12995%
BRANCH_DIRECT_CALL: 2777775 1.38889%
BRANCH_INDIRECT_CALL: 909063 0.454531%
BRANCH_RETURN: 3686817 1.84341%
BRANCH_OTHER: 0 0%

DRAM PAGES: 1048576
Allocated PAGES: 6990
