
*** ChampSim Multicore Out-of-Order Simulator ***

Warmup Instructions: 50000000
Simulation Instructions: 200000000
Number of CPUs: 1
LLC sets: 2048
LLC ways: 16
Off-chip DRAM Size: 4096 MB Channels: 1 Width: 64-bit Data Rate: 6400 MT/s
CPU 0 runs traces/spec2k17/srv_58.champsimtrace.xz
.xz
BTB has LRU replacement policy
ITLB has LRU replacement policy
DTLB has LRU replacement policy
STLB has LRU replacement policy
L1I has LRU replacement policy
L1D has LRU replacement policy
Initialize SRRIP state for L2C
Initialize DRRIP state for LLC
Offsets elements: -63 -62 -61 -60 -59 -58 -57 -56 -55 -54 -53 -52 -51 -50 -49 -48 -47 -46 -45 -44 -43 -42 -41 -40 -39 -38 -37 -36 -35 -34 -33 -32 -31 -30 -29 -28 -27 -26 -25 -24 -23 -22 -21 -20 -19 -18 -17 -16 -15 -14 -13 -12 -11 -10 -9 -8 -7 -6 -5 -4 -3 -2 -1 1 2 3 4 5 6 7 8 9 10 11 12 13 14 15 16 17 18 19 20 21 22 23 24 25 26 27 28 29 30 31 32 33 34 35 36 37 38 39 40 41 42 43 44 45 46 47 48 49 50 51 52 53 54 55 56 57 58 59 60 61 62 63 
Potential of Offsets elements: 
rewards of Offsets elements: 0 16 340 21 60 24 0 35 46 4 89 32 31 44 149 41 26 23 97 115 128 97 241 2 22 168 169 167 52 77 33 347 109 158 22 30 11 153 123 29 190 97 61 71 162 213 225 37 167 169 169 63 46 44 73 121 79 346 506 631 331 1169 1900 1460 841 652 427 472 194 175 119 50 21 60 67 146 167 276 155 30 71 123 340 74 241 271 215 228 188 293 584 7 128 505 102 630 105 289 37 156 62 21 5 30 7 28 2 34 9 32 32 11 4 35 20 76 75 7 28 4 16 32 25 35 49 134 
Printing Sanity1
Heartbeat CPU 0 instructions: 10000001 cycles: 2798524 heartbeat IPC: 3.57331 cumulative IPC: 3.57331 (Simulation time: 0 hr 0 min 28 sec) 
Heartbeat CPU 0 instructions: 20000002 cycles: 5594842 heartbeat IPC: 3.57613 cumulative IPC: 3.57472 (Simulation time: 0 hr 0 min 56 sec) 
Heartbeat CPU 0 instructions: 30000003 cycles: 8617992 heartbeat IPC: 3.30781 cumulative IPC: 3.48109 (Simulation time: 0 hr 1 min 29 sec) 
*** Reached end of trace for Core: 0 Repeating trace: traces/spec2k17/srv_58.champsimtrace.xz
Heartbeat CPU 0 instructions: 40000003 cycles: 11439010 heartbeat IPC: 3.54482 cumulative IPC: 3.49681 (Simulation time: 0 hr 1 min 57 sec) 
Heartbeat CPU 0 instructions: 50000000 cycles: 14231998 heartbeat IPC: 3.58039 cumulative IPC: 3.51321 (Simulation time: 0 hr 2 min 24 sec) 

Warmup complete CPU 0 instructions: 50000004 cycles: 14231999 (Simulation time: 0 hr 2 min 24 sec) 

Heartbeat CPU 0 instructions: 60000000 cycles: 25417949 heartbeat IPC: 0.893979 cumulative IPC: 0.893978 (Simulation time: 0 hr 3 min 2 sec) 
*** Reached end of trace for Core: 0 Repeating trace: traces/spec2k17/srv_58.champsimtrace.xz
Heartbeat CPU 0 instructions: 70000000 cycles: 42662042 heartbeat IPC: 0.579909 cumulative IPC: 0.703481 (Simulation time: 0 hr 3 min 38 sec) 
Heartbeat CPU 0 instructions: 80000003 cycles: 61292344 heartbeat IPC: 0.53676 cumulative IPC: 0.637479 (Simulation time: 0 hr 4 min 13 sec) 
Heartbeat CPU 0 instructions: 90000001 cycles: 73553034 heartbeat IPC: 0.815615 cumulative IPC: 0.674297 (Simulation time: 0 hr 4 min 50 sec) 
*** Reached end of trace for Core: 0 Repeating trace: traces/spec2k17/srv_58.champsimtrace.xz
Heartbeat CPU 0 instructions: 100000002 cycles: 89606159 heartbeat IPC: 0.622932 cumulative IPC: 0.663357 (Simulation time: 0 hr 5 min 38 sec) 
Heartbeat CPU 0 instructions: 110000000 cycles: 108520257 heartbeat IPC: 0.528706 cumulative IPC: 0.636346 (Simulation time: 0 hr 6 min 33 sec) 
Heartbeat CPU 0 instructions: 120000001 cycles: 121554603 heartbeat IPC: 0.767204 cumulative IPC: 0.652239 (Simulation time: 0 hr 7 min 30 sec) 
*** Reached end of trace for Core: 0 Repeating trace: traces/spec2k17/srv_58.champsimtrace.xz
Heartbeat CPU 0 instructions: 130000000 cycles: 136716489 heartbeat IPC: 0.659548 cumulative IPC: 0.653144 (Simulation time: 0 hr 8 min 25 sec) 
Heartbeat CPU 0 instructions: 140000000 cycles: 155493804 heartbeat IPC: 0.532557 cumulative IPC: 0.637115 (Simulation time: 0 hr 9 min 10 sec) 
Heartbeat CPU 0 instructions: 150000003 cycles: 169515182 heartbeat IPC: 0.713197 cumulative IPC: 0.643985 (Simulation time: 0 hr 9 min 45 sec) 
*** Reached end of trace for Core: 0 Repeating trace: traces/spec2k17/srv_58.champsimtrace.xz
Heartbeat CPU 0 instructions: 160000000 cycles: 183751500 heartbeat IPC: 0.702429 cumulative IPC: 0.648893 (Simulation time: 0 hr 10 min 29 sec) 
Heartbeat CPU 0 instructions: 170000000 cycles: 202600179 heartbeat IPC: 0.530541 cumulative IPC: 0.63705 (Simulation time: 0 hr 11 min 24 sec) 
Heartbeat CPU 0 instructions: 180000000 cycles: 217438759 heartbeat IPC: 0.673919 cumulative IPC: 0.639742 (Simulation time: 0 hr 12 min 20 sec) 
*** Reached end of trace for Core: 0 Repeating trace: traces/spec2k17/srv_58.champsimtrace.xz
Heartbeat CPU 0 instructions: 190000000 cycles: 230729049 heartbeat IPC: 0.752429 cumulative IPC: 0.64666 (Simulation time: 0 hr 13 min 15 sec) 
Heartbeat CPU 0 instructions: 200000000 cycles: 249609156 heartbeat IPC: 0.529658 cumulative IPC: 0.637275 (Simulation time: 0 hr 13 min 55 sec) 
Heartbeat CPU 0 instructions: 210000002 cycles: 265430709 heartbeat IPC: 0.632049 cumulative IPC: 0.636946 (Simulation time: 0 hr 14 min 33 sec) 
*** Reached end of trace for Core: 0 Repeating trace: traces/spec2k17/srv_58.champsimtrace.xz
Heartbeat CPU 0 instructions: 220000000 cycles: 277922684 heartbeat IPC: 0.800514 cumulative IPC: 0.644695 (Simulation time: 0 hr 15 min 8 sec) 
Heartbeat CPU 0 instructions: 230000001 cycles: 296574133 heartbeat IPC: 0.536151 cumulative IPC: 0.637524 (Simulation time: 0 hr 15 min 42 sec) 
Heartbeat CPU 0 instructions: 240000003 cycles: 313405546 heartbeat IPC: 0.594127 cumulative IPC: 0.635083 (Simulation time: 0 hr 16 min 16 sec) 
*** Reached end of trace for Core: 0 Repeating trace: traces/spec2k17/srv_58.champsimtrace.xz
Heartbeat CPU 0 instructions: 250000000 cycles: 324800481 heartbeat IPC: 0.877583 cumulative IPC: 0.64398 (Simulation time: 0 hr 16 min 49 sec) 
Finished CPU 0 instructions: 200000000 cycles: 310568483 cumulative IPC: 0.64398 (Simulation time: 0 hr 16 min 49 sec) 

ChampSim completed all CPUs

Region of Interest Statistics

CPU 0 cumulative IPC: 0.64398 instructions: 200000000 cycles: 310568483
ITLB TOTAL     ACCESS:   36473902  HIT:   35953850  MISS:     520052  HIT %:    98.5742  MISS %:    1.42582   MPKI: 2.60026
ITLB LOAD TRANSLATION ACCESS:   36473902  HIT:   35953850  MISS:     520052  HIT %:    98.5742  MISS %:    1.42582   MPKI: 2.60026
ITLB PREFETCH  REQUESTED:          0  ISSUED:          0  USEFUL:          0  USELESS:          0
ITLB USEFUL LOAD PREFETCHES:          0 PREFETCH ISSUED TO LOWER LEVEL:          0  ACCURACY: -nan
ITLB TIMELY PREFETCHES:          0 LATE PREFETCHES: 0 DROPPED PREFETCHES: 0
ITLB PREFETCHES SAME FILL-ORIGIN LEVEL: 0 DIFFERENT FILL-ORIGIN LEVEL: 0
ITLB AVERAGE MISS LATENCY: 9.01375 cycles
ITLB RQ	ACCESS:   40848199	FORWARD:          0	MERGED:    4206129	TO_CACHE:   36642070

DTLB TOTAL     ACCESS:   43232260  HIT:   42580739  MISS:     651521  HIT %:     98.493  MISS %:    1.50703   MPKI: 3.2576
DTLB LOAD TRANSLATION ACCESS:   43232260  HIT:   42580739  MISS:     651521  HIT %:     98.493  MISS %:    1.50703   MPKI: 3.2576
DTLB PREFETCH  REQUESTED:          0  ISSUED:          0  USEFUL:          0  USELESS:          0
DTLB USEFUL LOAD PREFETCHES:          0 PREFETCH ISSUED TO LOWER LEVEL:          0  ACCURACY: -nan
DTLB TIMELY PREFETCHES:          0 LATE PREFETCHES: 0 DROPPED PREFETCHES: 0
DTLB PREFETCHES SAME FILL-ORIGIN LEVEL: 0 DIFFERENT FILL-ORIGIN LEVEL: 0
DTLB AVERAGE MISS LATENCY: 9.03729 cycles
DTLB RQ	ACCESS:   59546315	FORWARD:          0	MERGED:   16284594	TO_CACHE:   43261721

STLB TOTAL     ACCESS:    9848543  HIT:    9848020  MISS:        523  HIT %:    99.9947  MISS %: 0.00531043   MPKI: 0.002615
STLB LOAD TRANSLATION ACCESS:    1171573  HIT:    1171064  MISS:        509  HIT %:    99.9566  MISS %:  0.0434459   MPKI: 0.002545
STLB TRANSLATION FROM L1D PREFETCHER ACCESS:    8676970  HIT:    8676956  MISS:         14  HIT %:    99.9998  MISS %: 0.000161347   MPKI: 7e-05
STLB PREFETCH  REQUESTED:          0  ISSUED:          0  USEFUL:         14  USELESS:          0
STLB USEFUL LOAD PREFETCHES:         14 PREFETCH ISSUED TO LOWER LEVEL:          0  ACCURACY: inf
STLB TIMELY PREFETCHES:         14 LATE PREFETCHES: 0 DROPPED PREFETCHES: 19787
STLB PREFETCHES SAME FILL-ORIGIN LEVEL: 0 DIFFERENT FILL-ORIGIN LEVEL: 0
STLB AVERAGE MISS LATENCY: 55.7419 cycles
STLB RQ	ACCESS:   12634909	FORWARD:          0	MERGED:    2766580	TO_CACHE:    9868329

STLB Hit, L1D data hit: 0
STLB Hit, L2C data hit: 0
STLB Hit, LLC data hit: 0
STLB Hit, LLC data miss: 0
STLB STLB hints to L2: 0
L1D TOTAL     ACCESS:   70588850  HIT:   69395866  MISS:    1192984  HIT %:      98.31  MISS %:    1.69005   MPKI: 5.96492
L1D LOAD      ACCESS:   38539764  HIT:   37885251  MISS:     654513  HIT %:    98.3017  MISS %:    1.69828   MPKI: 3.27257
L1D RFO       ACCESS:   20700014  HIT:   20452663  MISS:     247351  HIT %:    98.8051  MISS %:    1.19493   MPKI: 1.23676
L1D PREFETCH  ACCESS:   11349072  HIT:   11057952  MISS:     291120  HIT %:    97.4349  MISS %:    2.56514   MPKI: 1.4556
AGUS PREFETCH L1 MISS: 0
L1D PREFETCH  REQUESTED:   58186168  ISSUED:   58186168  USEFUL:      93405  USELESS:     197700
L1D USEFUL LOAD PREFETCHES:      93405 PREFETCH ISSUED TO LOWER LEVEL:     325797  ACCURACY: 28.6697
L1D TIMELY PREFETCHES:      93405 LATE PREFETCHES: 31934 DROPPED PREFETCHES: 19787
L1D PREFETCHES SAME FILL-ORIGIN LEVEL: 325797 DIFFERENT FILL-ORIGIN LEVEL: 0
L1D AVERAGE MISS LATENCY: 4.92544e+06 cycles
L1D RQ	ACCESS:   53965939	FORWARD:          0	MERGED:   15194770	TO_CACHE:   38560287
L1D WQ	ACCESS:   21214489	FORWARD:     226379	MERGED:     228461	TO_CACHE:   20986028
L1D PQ	ACCESS:   46722832	FORWARD:          0	MERGED:   35243999	TO_CACHE:   11463336

L1D UNIQUE REGIONS ACCESSED: 0
L1D REGIONS CONFLICTS: 0
L1D Cross Page Prefetch Requests: 1176651
L1D Same Page Prefetch Requests: 57420112
L1D ROI Sum of L1D PQ occupancy: 144757272
L1D PREFETCHES PUSHED FROM L2C: 0
L1I TOTAL     ACCESS:   40498616  HIT:   38562516  MISS:    1936100  HIT %:    95.2193  MISS %:    4.78066   MPKI: 9.6805
L1I LOAD      ACCESS:   40498616  HIT:   38562516  MISS:    1936100  HIT %:    95.2193  MISS %:    4.78066   MPKI: 9.6805
L1I PREFETCH  REQUESTED:          0  ISSUED:          0  USEFUL:          0  USELESS:          0
L1I USEFUL LOAD PREFETCHES:          0 PREFETCH ISSUED TO LOWER LEVEL:          0  ACCURACY: -nan
L1I TIMELY PREFETCHES:          0 LATE PREFETCHES: 0 DROPPED PREFETCHES: 0
L1I PREFETCHES SAME FILL-ORIGIN LEVEL: 0 DIFFERENT FILL-ORIGIN LEVEL: 0
L1I AVERAGE MISS LATENCY: 18.8219 cycles
L1I RQ	ACCESS:   63949171	FORWARD:          0	MERGED:   23100972	TO_CACHE:   40848199

BTB TOTAL     ACCESS:   35033009  HIT:   31765673  MISS:    3267336  HIT %:    90.6736  MISS %:    9.32645   MPKI: 16.3367
BTB BRANCH_DIRECT_JUMP	ACCESS:    3530101  HIT:    3387873  MISS:     142228
BTB BRANCH_INDIRECT	ACCESS:   14433198  HIT:   13493749  MISS:     939449
BTB BRANCH_CONDITIONAL	ACCESS:    7608282  HIT:    7427963  MISS:     180319
BTB BRANCH_DIRECT_CALL	ACCESS:    2343708  HIT:    2092536  MISS:     251172
BTB BRANCH_INDIRECT_CALL	ACCESS:    2387048  HIT:    2184647  MISS:     202401
BTB BRANCH_RETURN	ACCESS:    4730672  HIT:    3178905  MISS:    1551767
BTB BRANCH_OTHER ACCESS:          0  HIT:          0  MISS:          0

L2C TOTAL     ACCESS:    3609253  HIT:    3070131  MISS:     539122  HIT %:    85.0628  MISS %:    14.9372   MPKI: 2.69561
L2C LOAD      ACCESS:    2558662  HIT:    2154451  MISS:     404211  HIT %:    84.2023  MISS %:    15.7977   MPKI: 2.02106
L2C DATA LOAD MPKI: 0.48411
L2C INSTRUCTION LOAD MPKI: 1.53695
L2C RFO       ACCESS:     244608  HIT:     184915  MISS:      59693  HIT %:    75.5965  MISS %:    24.4035   MPKI: 0.298465
L2C PREFETCH  ACCESS:     325777  HIT:     259122  MISS:      66655  HIT %:    79.5397  MISS %:    20.4603   MPKI: 0.333275
AGUS PREFETCH L1 MISS: 0
L2C DATA PREFETCH MPKI: 0.333275
L2C INSTRUCTION PREFETCH MPKI: 0
L2C WRITEBACK ACCESS:     451768  HIT:     444115  MISS:       7653  HIT %:     98.306  MISS %:    1.69401   MPKI: 0.038265
L2C LOAD TRANSLATION ACCESS:        642  HIT:        145  MISS:        497  HIT %:    22.5857  MISS %:    77.4143   MPKI: 0.002485
L2C TRANSLATION FROM L1D PREFETCHER ACCESS:      27796  HIT:      27383  MISS:        413  HIT %:    98.5142  MISS %:    1.48583   MPKI: 0.002065
L2C PREFETCH  REQUESTED:          0  ISSUED:          0  USEFUL:       6197  USELESS:      60884
L2C USEFUL LOAD PREFETCHES:       6197 PREFETCH ISSUED TO LOWER LEVEL:      66655  ACCURACY: 9.29713
L2C TIMELY PREFETCHES:       6197 LATE PREFETCHES: 0 DROPPED PREFETCHES: 0
L2C PREFETCHES SAME FILL-ORIGIN LEVEL: 0 DIFFERENT FILL-ORIGIN LEVEL: 0
L2C AVERAGE MISS LATENCY: 29.6973 cycles
L2C RQ	ACCESS:    2831725	FORWARD:          0	MERGED:          0	TO_CACHE:    2831708
L2C WQ	ACCESS:     451768	FORWARD:         37	MERGED:          0	TO_CACHE:     451768
L2C PQ	ACCESS:     325797	FORWARD:          0	MERGED:          0	TO_CACHE:     325777

L2C Instructions Evicting Data 114467
L2C Translations Evicting Data 482
L2C Data Evicting Data 111825
L2C Instructions Evicting Instructions 192504
L2C Translations Evicting Instructions 425
L2C Data Evicting Instructions 110878
L2C Instructions Evicting Translations 418
L2C Translations Evicting Translations 3
L2C Data Evicting Translations 467
L2C Dense regions hint from L2: 0
PSCL5 TOTAL     ACCESS:      20310  HIT:      20310  MISS:          0  HIT %:        100  MISS %:          0   MPKI: 0
PSCL5 LOAD TRANSLATION ACCESS:        509  HIT:        509  MISS:          0  HIT %:        100  MISS %:          0   MPKI: 0
PSCL5 TRANSLATION FROM L1D PREFETCHER ACCESS:      19801  HIT:      19801  MISS:          0  HIT %:        100  MISS %:          0   MPKI: 0
PSCL5 PREFETCH  REQUESTED:          0  ISSUED:          0  USEFUL:          0  USELESS:          0
PSCL5 USEFUL LOAD PREFETCHES:          0 PREFETCH ISSUED TO LOWER LEVEL:          0  ACCURACY: -nan
PSCL5 TIMELY PREFETCHES:          0 LATE PREFETCHES: 0 DROPPED PREFETCHES: 0
PSCL5 PREFETCHES SAME FILL-ORIGIN LEVEL: 0 DIFFERENT FILL-ORIGIN LEVEL: 0

PSCL4 TOTAL     ACCESS:      20310  HIT:      20310  MISS:          0  HIT %:        100  MISS %:          0   MPKI: 0
PSCL4 LOAD TRANSLATION ACCESS:        509  HIT:        509  MISS:          0  HIT %:        100  MISS %:          0   MPKI: 0
PSCL4 TRANSLATION FROM L1D PREFETCHER ACCESS:      19801  HIT:      19801  MISS:          0  HIT %:        100  MISS %:          0   MPKI: 0
PSCL4 PREFETCH  REQUESTED:          0  ISSUED:          0  USEFUL:          0  USELESS:          0
PSCL4 USEFUL LOAD PREFETCHES:          0 PREFETCH ISSUED TO LOWER LEVEL:          0  ACCURACY: -nan
PSCL4 TIMELY PREFETCHES:          0 LATE PREFETCHES: 0 DROPPED PREFETCHES: 0
PSCL4 PREFETCHES SAME FILL-ORIGIN LEVEL: 0 DIFFERENT FILL-ORIGIN LEVEL: 0

PSCL3 TOTAL     ACCESS:       1702  HIT:       1663  MISS:         39  HIT %:    97.7086  MISS %:    2.29142   MPKI: 0.000195
PSCL3 LOAD TRANSLATION ACCESS:        344  HIT:        305  MISS:         39  HIT %:    88.6628  MISS %:    11.3372   MPKI: 0.000195
PSCL3 TRANSLATION FROM L1D PREFETCHER ACCESS:       1358  HIT:       1358  MISS:          0  HIT %:        100  MISS %:          0   MPKI: 0
PSCL3 PREFETCH  REQUESTED:          0  ISSUED:          0  USEFUL:          0  USELESS:          0
PSCL3 USEFUL LOAD PREFETCHES:          0 PREFETCH ISSUED TO LOWER LEVEL:          0  ACCURACY: -nan
PSCL3 TIMELY PREFETCHES:          0 LATE PREFETCHES: 0 DROPPED PREFETCHES: 0
PSCL3 PREFETCHES SAME FILL-ORIGIN LEVEL: 0 DIFFERENT FILL-ORIGIN LEVEL: 0

PSCL2 TOTAL     ACCESS:      15759  HIT:      15663  MISS:         96  HIT %:    99.3908  MISS %:   0.609176   MPKI: 0.00048
PSCL2 LOAD TRANSLATION ACCESS:        510  HIT:        414  MISS:         96  HIT %:    81.1765  MISS %:    18.8235   MPKI: 0.00048
PSCL2 TRANSLATION FROM L1D PREFETCHER ACCESS:      15249  HIT:      15249  MISS:          0  HIT %:        100  MISS %:          0   MPKI: 0
PSCL2 PREFETCH  REQUESTED:          0  ISSUED:          0  USEFUL:          0  USELESS:          0
PSCL2 USEFUL LOAD PREFETCHES:          0 PREFETCH ISSUED TO LOWER LEVEL:          0  ACCURACY: -nan
PSCL2 TIMELY PREFETCHES:          0 LATE PREFETCHES: 0 DROPPED PREFETCHES: 0
PSCL2 PREFETCHES SAME FILL-ORIGIN LEVEL: 0 DIFFERENT FILL-ORIGIN LEVEL: 0

LLC TOTAL     ACCESS:     620049  HIT:     619614  MISS:        435  HIT %:    99.9298  MISS %:  0.0701557   MPKI: 0.002175
LLC LOAD      ACCESS:     404211  HIT:     403961  MISS:        250  HIT %:    99.9382  MISS %:  0.0618489   MPKI: 0.00125
LLC RFO       ACCESS:      59693  HIT:      59693  MISS:          0  HIT %:        100  MISS %:          0   MPKI: 0
LLC PREFETCH  ACCESS:      66655  HIT:      66483  MISS:        172  HIT %:     99.742  MISS %:   0.258045   MPKI: 0.00086
AGUS PREFETCH L1 MISS: 0
LLC WRITEBACK ACCESS:      88580  HIT:      88578  MISS:          2  HIT %:    99.9977  MISS %: 0.00225785   MPKI: 1e-05
LLC LOAD TRANSLATION ACCESS:        497  HIT:        486  MISS:         11  HIT %:    97.7867  MISS %:    2.21328   MPKI: 5.5e-05
LLC TRANSLATION FROM L1D PREFETCHER ACCESS:        413  HIT:        413  MISS:          0  HIT %:        100  MISS %:          0   MPKI: 0
LLC PREFETCH  REQUESTED:          0  ISSUED:          0  USEFUL:        957  USELESS:        101
LLC USEFUL LOAD PREFETCHES:        957 PREFETCH ISSUED TO LOWER LEVEL:        172  ACCURACY: 556.395
LLC TIMELY PREFETCHES:        957 LATE PREFETCHES: 0 DROPPED PREFETCHES: 0
LLC PREFETCHES SAME FILL-ORIGIN LEVEL: 0 DIFFERENT FILL-ORIGIN LEVEL: 0
LLC AVERAGE MISS LATENCY: 152.595 cycles
LLC RQ	ACCESS:     464814	FORWARD:          0	MERGED:          0	TO_CACHE:     464814
LLC WQ	ACCESS:      88580	FORWARD:          0	MERGED:          0	TO_CACHE:      88580
LLC PQ	ACCESS:      66655	FORWARD:          0	MERGED:          0	TO_CACHE:      66655

LLC Dense regions hint to LLC: 0

RAW hits: 3382658
Loads Generated: 57348600
Loads sent to L1D: 53965939
Stores Generated: 21214489
Stores sent to L1D: 21214489
Major fault: 0 Minor fault: 1185
Allocated PAGES: 1185
ucb ended
-----------------------------------------------------------------------------------------------------------------------------------------------------------------------------------------------------
Offsets elements: -63 -62 -61 -60 -59 -58 -57 -56 -55 -54 -53 -52 -51 -50 -49 -48 -47 -46 -45 -44 -43 -42 -41 -40 -39 -38 -37 -36 -35 -34 -33 -32 -31 -30 -29 -28 -27 -26 -25 -24 -23 -22 -21 -20 -19 -18 -17 -16 -15 -14 -13 -12 -11 -10 -9 -8 -7 -6 -5 -4 -3 -2 -1 1 2 3 4 5 6 7 8 9 10 11 12 13 14 15 16 17 18 19 20 21 22 23 24 25 26 27 28 29 30 31 32 33 34 35 36 37 38 39 40 41 42 43 44 45 46 47 48 49 50 51 52 53 54 55 56 57 58 59 60 61 62 63 
Potential of Offsets elements: 28.6814 44.6814 368.681 49.6814 88.6814 52.6814 28.6814 63.6814 74.6814 32.6814 117.681 60.6814 59.6814 72.6814 177.681 69.6814 54.6814 51.6814 125.681 143.681 156.681 125.681 269.681 30.6814 50.6814 196.681 197.681 195.681 80.6814 105.681 61.6814 375.681 137.681 186.681 50.6814 58.6814 39.6814 181.681 151.681 57.6814 218.681 125.681 89.6814 99.6814 190.681 241.681 253.681 65.6814 195.681 197.681 197.681 91.6814 74.6814 72.6814 101.681 149.681 107.681 374.681 534.681 659.681 359.681 1197.68 856.809 1460.1 869.681 680.681 455.681 500.681 222.681 203.681 147.681 78.6814 49.6814 88.6814 95.6814 174.681 195.681 304.681 183.681 58.6814 99.6814 151.681 368.681 102.681 269.681 299.681 243.681 256.681 216.681 321.681 612.681 35.6814 156.681 533.681 130.681 658.681 133.681 317.681 65.6814 184.681 90.6814 49.6814 33.6814 58.6814 35.6814 56.6814 30.6814 62.6814 37.6814 60.6814 60.6814 39.6814 32.6814 63.6814 48.6814 104.681 103.681 35.6814 56.6814 32.6814 44.6814 60.6814 53.6814 63.6814 77.6814 162.681 
rewards of Offsets elements: 0 16 340 21 60 24 0 35 46 4 89 32 31 44 149 41 26 23 97 115 128 97 241 2 22 168 169 167 52 77 33 347 109 158 22 30 11 153 123 29 190 97 61 71 162 213 225 37 167 169 169 63 46 44 73 121 79 346 506 631 331 1169 856 1460 841 652 427 472 194 175 119 50 21 60 67 146 167 276 155 30 71 123 340 74 241 271 215 228 188 293 584 7 128 505 102 630 105 289 37 156 62 21 5 30 7 28 2 34 9 32 32 11 4 35 20 76 75 7 28 4 16 32 25 35 49 134 Printing Sanity2
offset_index value126
offset list size126
reward size126
potential size126
-----------------------------------------------------------------------------------------------------------------------------------------------------------------------------------------------------

DRAM Statistics
 CHANNEL 0
 RQ ROW_BUFFER_HIT:         73  ROW_BUFFER_MISS:        360
 DBUS_CONGESTED:          0
 WQ ROW_BUFFER_HIT:          0  ROW_BUFFER_MISS:          0  FULL:          0

 AVG_CONGESTED_CYCLE: -
 All warmup complete: 2
Channel 0 Bank busy for read cycles: 0
Channel 0 Bank busy for write cycles: 0
Channel 0
Rank 0
0banks busy for read cycles: 310511738
0banks busy for write cycles: 0
1banks busy for read cycles: 55842
1banks busy for write cycles: 0
2banks busy for read cycles: 904
2banks busy for write cycles: 0
3banks busy for read cycles: 0
3banks busy for write cycles: 0
4banks busy for read cycles: 0
4banks busy for write cycles: 0
5banks busy for read cycles: 0
5banks busy for write cycles: 0
6banks busy for read cycles: 0
6banks busy for write cycles: 0
7banks busy for read cycles: 0
7banks busy for write cycles: 0
8banks busy for read cycles: 0
8banks busy for write cycles: 0

CPU 0 Branch Prediction Accuracy: 99.8678% MPKI: 0.264215 Average ROB Occupancy at Mispredict: 41.4495
Branch types
NOT_BRANCH: 160022998 80.0115%
BRANCH_DIRECT_JUMP: 3530101 1.76505%
BRANCH_INDIRECT: 14433198 7.2166%
BRANCH_CONDITIONAL: 12551976 6.27599%
BRANCH_DIRECT_CALL: 2343708 1.17185%
BRANCH_INDIRECT_CALL: 2387048 1.19352%
BRANCH_RETURN: 4730672 2.36534%
BRANCH_OTHER: 0 0%

DRAM PAGES: 1048576
Allocated PAGES: 1185
