
*** ChampSim Multicore Out-of-Order Simulator ***

Warmup Instructions: 50000000
Simulation Instructions: 200000000
Number of CPUs: 1
LLC sets: 2048
LLC ways: 16
Off-chip DRAM Size: 4096 MB Channels: 1 Width: 64-bit Data Rate: 6400 MT/s
CPU 0 runs traces/spec2k17/srv_45.champsimtrace.xz
.xz
BTB has LRU replacement policy
ITLB has LRU replacement policy
DTLB has LRU replacement policy
STLB has LRU replacement policy
L1I has LRU replacement policy
L1D has LRU replacement policy
Initialize SRRIP state for L2C
Initialize DRRIP state for LLC
Offsets elements: -63 -62 -61 -60 -59 -58 -57 -56 -55 -54 -53 -52 -51 -50 -49 -48 -47 -46 -45 -44 -43 -42 -41 -40 -39 -38 -37 -36 -35 -34 -33 -32 -31 -30 -29 -28 -27 -26 -25 -24 -23 -22 -21 -20 -19 -18 -17 -16 -15 -14 -13 -12 -11 -10 -9 -8 -7 -6 -5 -4 -3 -2 -1 1 2 3 4 5 6 7 8 9 10 11 12 13 14 15 16 17 18 19 20 21 22 23 24 25 26 27 28 29 30 31 32 33 34 35 36 37 38 39 40 41 42 43 44 45 46 47 48 49 50 51 52 53 54 55 56 57 58 59 60 61 62 63 
Potential of Offsets elements: 
rewards of Offsets elements: 1 51 231 40 167 42 51 12 49 110 34 132 78 178 32 0 149 53 28 5 4 45 51 78 88 92 51 37 85 92 409 557 70 57 225 198 60 15 80 138 76 78 139 178 119 128 273 222 146 129 185 106 114 175 244 487 743 253 316 431 1113 285 732 1190 478 515 242 235 162 160 436 323 415 293 120 93 148 50 181 283 176 41 57 99 5 31 26 42 69 27 53 98 115 98 44 48 89 105 53 33 673 84 31 4 12 64 27 92 45 164 246 33 40 162 42 67 41 8 51 21 12 0 1 68 85 84 
Printing Sanity1
Heartbeat CPU 0 instructions: 10000003 cycles: 2959867 heartbeat IPC: 3.37853 cumulative IPC: 3.37853 (Simulation time: 0 hr 0 min 33 sec) 
Heartbeat CPU 0 instructions: 20000002 cycles: 5922644 heartbeat IPC: 3.37521 cumulative IPC: 3.37687 (Simulation time: 0 hr 1 min 14 sec) 
Heartbeat CPU 0 instructions: 30000000 cycles: 8881182 heartbeat IPC: 3.38005 cumulative IPC: 3.37793 (Simulation time: 0 hr 1 min 53 sec) 
*** Reached end of trace for Core: 0 Repeating trace: traces/spec2k17/srv_45.champsimtrace.xz
Heartbeat CPU 0 instructions: 40000000 cycles: 11837154 heartbeat IPC: 3.38298 cumulative IPC: 3.37919 (Simulation time: 0 hr 2 min 22 sec) 
Heartbeat CPU 0 instructions: 50000001 cycles: 14796398 heartbeat IPC: 3.37924 cumulative IPC: 3.3792 (Simulation time: 0 hr 2 min 52 sec) 

Warmup complete CPU 0 instructions: 50000001 cycles: 14796398 (Simulation time: 0 hr 2 min 52 sec) 

Heartbeat CPU 0 instructions: 60000000 cycles: 55309366 heartbeat IPC: 0.246835 cumulative IPC: 0.246835 (Simulation time: 0 hr 3 min 41 sec) 
*** Reached end of trace for Core: 0 Repeating trace: traces/spec2k17/srv_45.champsimtrace.xz
Heartbeat CPU 0 instructions: 70000000 cycles: 95740292 heartbeat IPC: 0.247335 cumulative IPC: 0.247085 (Simulation time: 0 hr 4 min 28 sec) 
Heartbeat CPU 0 instructions: 80000001 cycles: 136280069 heartbeat IPC: 0.246671 cumulative IPC: 0.246947 (Simulation time: 0 hr 5 min 13 sec) 
Heartbeat CPU 0 instructions: 90000003 cycles: 176649314 heartbeat IPC: 0.247713 cumulative IPC: 0.247138 (Simulation time: 0 hr 5 min 57 sec) 
*** Reached end of trace for Core: 0 Repeating trace: traces/spec2k17/srv_45.champsimtrace.xz
Heartbeat CPU 0 instructions: 100000003 cycles: 217105523 heartbeat IPC: 0.247181 cumulative IPC: 0.247147 (Simulation time: 0 hr 7 min 2 sec) 
Heartbeat CPU 0 instructions: 110000000 cycles: 257714570 heartbeat IPC: 0.24625 cumulative IPC: 0.246997 (Simulation time: 0 hr 7 min 58 sec) 
Heartbeat CPU 0 instructions: 120000000 cycles: 298007426 heartbeat IPC: 0.248183 cumulative IPC: 0.247166 (Simulation time: 0 hr 8 min 42 sec) 
*** Reached end of trace for Core: 0 Repeating trace: traces/spec2k17/srv_45.champsimtrace.xz
Heartbeat CPU 0 instructions: 130000002 cycles: 338376320 heartbeat IPC: 0.247716 cumulative IPC: 0.247234 (Simulation time: 0 hr 9 min 25 sec) 
Heartbeat CPU 0 instructions: 140000003 cycles: 378758566 heartbeat IPC: 0.247634 cumulative IPC: 0.247278 (Simulation time: 0 hr 10 min 8 sec) 
Heartbeat CPU 0 instructions: 150000000 cycles: 419223669 heartbeat IPC: 0.247126 cumulative IPC: 0.247263 (Simulation time: 0 hr 10 min 51 sec) 
*** Reached end of trace for Core: 0 Repeating trace: traces/spec2k17/srv_45.champsimtrace.xz
Heartbeat CPU 0 instructions: 160000001 cycles: 459464831 heartbeat IPC: 0.248502 cumulative IPC: 0.247375 (Simulation time: 0 hr 11 min 35 sec) 
Heartbeat CPU 0 instructions: 170000001 cycles: 499772787 heartbeat IPC: 0.24809 cumulative IPC: 0.247435 (Simulation time: 0 hr 12 min 18 sec) 
Heartbeat CPU 0 instructions: 180000000 cycles: 540362035 heartbeat IPC: 0.246371 cumulative IPC: 0.247353 (Simulation time: 0 hr 13 min 2 sec) 
*** Reached end of trace for Core: 0 Repeating trace: traces/spec2k17/srv_45.champsimtrace.xz
Heartbeat CPU 0 instructions: 190000001 cycles: 580413548 heartbeat IPC: 0.249678 cumulative IPC: 0.247517 (Simulation time: 0 hr 13 min 45 sec) 
Heartbeat CPU 0 instructions: 200000000 cycles: 620893001 heartbeat IPC: 0.247039 cumulative IPC: 0.247485 (Simulation time: 0 hr 14 min 29 sec) 
Heartbeat CPU 0 instructions: 210000003 cycles: 661079031 heartbeat IPC: 0.248843 cumulative IPC: 0.24757 (Simulation time: 0 hr 15 min 11 sec) 
*** Reached end of trace for Core: 0 Repeating trace: traces/spec2k17/srv_45.champsimtrace.xz
Heartbeat CPU 0 instructions: 220000000 cycles: 701160663 heartbeat IPC: 0.249491 cumulative IPC: 0.247682 (Simulation time: 0 hr 15 min 55 sec) 
Heartbeat CPU 0 instructions: 230000000 cycles: 741521733 heartbeat IPC: 0.247763 cumulative IPC: 0.247686 (Simulation time: 0 hr 16 min 37 sec) 
Heartbeat CPU 0 instructions: 240000000 cycles: 781888404 heartbeat IPC: 0.247729 cumulative IPC: 0.247689 (Simulation time: 0 hr 17 min 18 sec) 
*** Reached end of trace for Core: 0 Repeating trace: traces/spec2k17/srv_45.champsimtrace.xz
Heartbeat CPU 0 instructions: 250000003 cycles: 822004715 heartbeat IPC: 0.249275 cumulative IPC: 0.247768 (Simulation time: 0 hr 17 min 57 sec) 
Finished CPU 0 instructions: 200000002 cycles: 807208317 cumulative IPC: 0.247768 (Simulation time: 0 hr 17 min 57 sec) 

ChampSim completed all CPUs

Region of Interest Statistics

CPU 0 cumulative IPC: 0.247768 instructions: 200000002 cycles: 807208317
ITLB TOTAL     ACCESS:   36363586  HIT:   33615760  MISS:    2747826  HIT %:    92.4435  MISS %:    7.55653   MPKI: 13.7391
ITLB LOAD TRANSLATION ACCESS:   36363586  HIT:   33615760  MISS:    2747826  HIT %:    92.4435  MISS %:    7.55653   MPKI: 13.7391
ITLB PREFETCH  REQUESTED:          0  ISSUED:          0  USEFUL:          0  USELESS:          0
ITLB USEFUL LOAD PREFETCHES:          0 PREFETCH ISSUED TO LOWER LEVEL:          0  ACCURACY: -nan
ITLB TIMELY PREFETCHES:          0 LATE PREFETCHES: 0 DROPPED PREFETCHES: 0
ITLB PREFETCHES SAME FILL-ORIGIN LEVEL: 0 DIFFERENT FILL-ORIGIN LEVEL: 0
ITLB AVERAGE MISS LATENCY: 9.34135 cycles
ITLB RQ	ACCESS:   43020724	FORWARD:          0	MERGED:    5918145	TO_CACHE:   37102579

DTLB TOTAL     ACCESS:   49802690  HIT:   47345373  MISS:    2457317  HIT %:    95.0659  MISS %:     4.9341   MPKI: 12.2866
DTLB LOAD TRANSLATION ACCESS:   49802690  HIT:   47345373  MISS:    2457317  HIT %:    95.0659  MISS %:     4.9341   MPKI: 12.2866
DTLB PREFETCH  REQUESTED:          0  ISSUED:          0  USEFUL:          0  USELESS:          0
DTLB USEFUL LOAD PREFETCHES:          0 PREFETCH ISSUED TO LOWER LEVEL:          0  ACCURACY: -nan
DTLB TIMELY PREFETCHES:          0 LATE PREFETCHES: 0 DROPPED PREFETCHES: 0
DTLB PREFETCHES SAME FILL-ORIGIN LEVEL: 0 DIFFERENT FILL-ORIGIN LEVEL: 0
DTLB AVERAGE MISS LATENCY: 12.5282 cycles
DTLB RQ	ACCESS:   66019790	FORWARD:          0	MERGED:   16076058	TO_CACHE:   49943732

STLB TOTAL     ACCESS:   17604640  HIT:   17495708  MISS:     108932  HIT %:    99.3812  MISS %:   0.618769   MPKI: 0.54466
STLB LOAD TRANSLATION ACCESS:    5205143  HIT:    5097314  MISS:     107829  HIT %:    97.9284  MISS %:    2.07159   MPKI: 0.539145
STLB TRANSLATION FROM L1D PREFETCHER ACCESS:   12399497  HIT:   12398394  MISS:       1103  HIT %:    99.9911  MISS %: 0.00889552   MPKI: 0.005515
STLB PREFETCH  REQUESTED:          0  ISSUED:          0  USEFUL:        963  USELESS:        143
STLB USEFUL LOAD PREFETCHES:        963 PREFETCH ISSUED TO LOWER LEVEL:          0  ACCURACY: inf
STLB TIMELY PREFETCHES:        963 LATE PREFETCHES: 7 DROPPED PREFETCHES: 83108
STLB PREFETCHES SAME FILL-ORIGIN LEVEL: 0 DIFFERENT FILL-ORIGIN LEVEL: 0
STLB AVERAGE MISS LATENCY: 88.2586 cycles
STLB RQ	ACCESS:   34841202	FORWARD:          0	MERGED:   17149539	TO_CACHE:   17691663

STLB Hit, L1D data hit: 0
STLB Hit, L2C data hit: 0
STLB Hit, LLC data hit: 0
STLB Hit, LLC data miss: 0
STLB STLB hints to L2: 0
L1D TOTAL     ACCESS:   92824156  HIT:   83647435  MISS:    9176721  HIT %:    90.1139  MISS %:    9.88613   MPKI: 45.8836
L1D LOAD      ACCESS:   39509995  HIT:   35310893  MISS:    4199102  HIT %:    89.3721  MISS %:    10.6279   MPKI: 20.9955
L1D RFO       ACCESS:   24061804  HIT:   22674231  MISS:    1387573  HIT %:    94.2333  MISS %:     5.7667   MPKI: 6.93786
L1D PREFETCH  ACCESS:   29252357  HIT:   25662311  MISS:    3590046  HIT %:    87.7273  MISS %:    12.2727   MPKI: 17.9502
AGUS PREFETCH L1 MISS: 0
L1D PREFETCH  REQUESTED:   92670939  ISSUED:   92462811  USEFUL:     706354  USELESS:    2883682
L1D USEFUL LOAD PREFETCHES:     706354 PREFETCH ISSUED TO LOWER LEVEL:    3599340  ACCURACY: 19.6245
L1D TIMELY PREFETCHES:     706354 LATE PREFETCHES: 6106 DROPPED PREFETCHES: 165101
L1D PREFETCHES SAME FILL-ORIGIN LEVEL: 3599340 DIFFERENT FILL-ORIGIN LEVEL: 0
L1D AVERAGE MISS LATENCY: 419595 cycles
L1D RQ	ACCESS:   50592203	FORWARD:          0	MERGED:   10719391	TO_CACHE:   39704054
L1D WQ	ACCESS:   26484793	FORWARD:     173225	MERGED:     169057	TO_CACHE:   26315736
L1D PQ	ACCESS:   62826752	FORWARD:          0	MERGED:   33186226	TO_CACHE:   29636059

L1D UNIQUE REGIONS ACCESSED: 0
L1D REGIONS CONFLICTS: 0
L1D Cross Page Prefetch Requests: 3842904
L1D Same Page Prefetch Requests: 72058205
L1D ROI Sum of L1D PQ occupancy: 389655538
L1D PREFETCHES PUSHED FROM L2C: 0
L1I TOTAL     ACCESS:   41305126  HIT:   28151398  MISS:   13153728  HIT %:    68.1547  MISS %:    31.8453   MPKI: 65.7686
L1I LOAD      ACCESS:   41305126  HIT:   28151398  MISS:   13153728  HIT %:    68.1547  MISS %:    31.8453   MPKI: 65.7686
L1I PREFETCH  REQUESTED:          0  ISSUED:          0  USEFUL:          0  USELESS:          0
L1I USEFUL LOAD PREFETCHES:          0 PREFETCH ISSUED TO LOWER LEVEL:          0  ACCURACY: -nan
L1I TIMELY PREFETCHES:          0 LATE PREFETCHES: 0 DROPPED PREFETCHES: 0
L1I PREFETCHES SAME FILL-ORIGIN LEVEL: 0 DIFFERENT FILL-ORIGIN LEVEL: 0
L1I AVERAGE MISS LATENCY: 17.3685 cycles
L1I RQ	ACCESS:   60015457	FORWARD:          0	MERGED:   16994733	TO_CACHE:   43020724

BTB TOTAL     ACCESS:   31973438  HIT:   16686949  MISS:   15286489  HIT %:      52.19  MISS %:      47.81   MPKI: 76.4324
BTB BRANCH_DIRECT_JUMP	ACCESS:    2345713  HIT:    1227110  MISS:    1118603
BTB BRANCH_INDIRECT	ACCESS:   14157355  HIT:    8110276  MISS:    6047079
BTB BRANCH_CONDITIONAL	ACCESS:    4344280  HIT:    3034534  MISS:    1309746
BTB BRANCH_DIRECT_CALL	ACCESS:    4151172  HIT:    2145079  MISS:    2006093
BTB BRANCH_INDIRECT_CALL	ACCESS:    1411897  HIT:     576080  MISS:     835817
BTB BRANCH_RETURN	ACCESS:    5563021  HIT:    1593870  MISS:    3969151
BTB BRANCH_OTHER ACCESS:          0  HIT:          0  MISS:          0

L2C TOTAL     ACCESS:   25623421  HIT:   21026186  MISS:    4597235  HIT %:    82.0585  MISS %:    17.9415   MPKI: 22.9862
L2C LOAD      ACCESS:   17346721  HIT:   14838720  MISS:    2508001  HIT %:    85.5419  MISS %:    14.4581   MPKI: 12.54
L2C DATA LOAD MPKI: 5.54334
L2C INSTRUCTION LOAD MPKI: 6.99666
L2C RFO       ACCESS:    1384377  HIT:     786852  MISS:     597525  HIT %:     56.838  MISS %:     43.162   MPKI: 2.98762
L2C PREFETCH  ACCESS:    3599337  HIT:    2352864  MISS:    1246473  HIT %:    65.3694  MISS %:    34.6306   MPKI: 6.23236
AGUS PREFETCH L1 MISS: 0
L2C DATA PREFETCH MPKI: 6.23236
L2C INSTRUCTION PREFETCH MPKI: 0
L2C WRITEBACK ACCESS:    2999637  HIT:    2860787  MISS:     138850  HIT %:    95.3711  MISS %:    4.62889   MPKI: 0.69425
L2C LOAD TRANSLATION ACCESS:     174696  HIT:      80045  MISS:      94651  HIT %:    45.8196  MISS %:    54.1804   MPKI: 0.473255
L2C TRANSLATION FROM L1D PREFETCHER ACCESS:     118653  HIT:     106918  MISS:      11735  HIT %:    90.1098  MISS %:    9.89018   MPKI: 0.058675
L2C PREFETCH  REQUESTED:          0  ISSUED:          0  USEFUL:      80038  USELESS:    1178031
L2C USEFUL LOAD PREFETCHES:      80038 PREFETCH ISSUED TO LOWER LEVEL:    1246472  ACCURACY: 6.42116
L2C TIMELY PREFETCHES:      80038 LATE PREFETCHES: 0 DROPPED PREFETCHES: 0
L2C PREFETCHES SAME FILL-ORIGIN LEVEL: 0 DIFFERENT FILL-ORIGIN LEVEL: 0
L2C AVERAGE MISS LATENCY: 45.9972 cycles
L2C RQ	ACCESS:   19024457	FORWARD:          0	MERGED:          0	TO_CACHE:   19024447
L2C WQ	ACCESS:    2999637	FORWARD:         14	MERGED:          0	TO_CACHE:    2999637
L2C PQ	ACCESS:    3599340	FORWARD:          0	MERGED:          0	TO_CACHE:    3599336

L2C Instructions Evicting Data 756372
L2C Translations Evicting Data 83675
L2C Data Evicting Data 2163017
L2C Instructions Evicting Instructions 623019
L2C Translations Evicting Instructions 19879
L2C Data Evicting Instructions 708391
L2C Instructions Evicting Translations 19941
L2C Translations Evicting Translations 2832
L2C Data Evicting Translations 81259
L2C Dense regions hint from L2: 0
PSCL5 TOTAL     ACCESS:     192040  HIT:     192040  MISS:          0  HIT %:        100  MISS %:          0   MPKI: 0
PSCL5 LOAD TRANSLATION ACCESS:     107822  HIT:     107822  MISS:          0  HIT %:        100  MISS %:          0   MPKI: 0
PSCL5 TRANSLATION FROM L1D PREFETCHER ACCESS:      84218  HIT:      84218  MISS:          0  HIT %:        100  MISS %:          0   MPKI: 0
PSCL5 PREFETCH  REQUESTED:          0  ISSUED:          0  USEFUL:          0  USELESS:          0
PSCL5 USEFUL LOAD PREFETCHES:          0 PREFETCH ISSUED TO LOWER LEVEL:          0  ACCURACY: -nan
PSCL5 TIMELY PREFETCHES:          0 LATE PREFETCHES: 0 DROPPED PREFETCHES: 0
PSCL5 PREFETCHES SAME FILL-ORIGIN LEVEL: 0 DIFFERENT FILL-ORIGIN LEVEL: 0

PSCL4 TOTAL     ACCESS:     189190  HIT:     188416  MISS:        774  HIT %:    99.5909  MISS %:   0.409113   MPKI: 0.00387
PSCL4 LOAD TRANSLATION ACCESS:     106046  HIT:     105272  MISS:        774  HIT %:    99.2701  MISS %:   0.729872   MPKI: 0.00387
PSCL4 TRANSLATION FROM L1D PREFETCHER ACCESS:      83144  HIT:      83144  MISS:          0  HIT %:        100  MISS %:          0   MPKI: 0
PSCL4 PREFETCH  REQUESTED:          0  ISSUED:          0  USEFUL:          0  USELESS:          0
PSCL4 USEFUL LOAD PREFETCHES:          0 PREFETCH ISSUED TO LOWER LEVEL:          0  ACCURACY: -nan
PSCL4 TIMELY PREFETCHES:          0 LATE PREFETCHES: 0 DROPPED PREFETCHES: 0
PSCL4 PREFETCHES SAME FILL-ORIGIN LEVEL: 0 DIFFERENT FILL-ORIGIN LEVEL: 0

PSCL3 TOTAL     ACCESS:     150060  HIT:     130402  MISS:      19658  HIT %:    86.8999  MISS %:    13.1001   MPKI: 0.09829
PSCL3 LOAD TRANSLATION ACCESS:      94162  HIT:      74504  MISS:      19658  HIT %:    79.1232  MISS %:    20.8768   MPKI: 0.09829
PSCL3 TRANSLATION FROM L1D PREFETCHER ACCESS:      55898  HIT:      55898  MISS:          0  HIT %:        100  MISS %:          0   MPKI: 0
PSCL3 PREFETCH  REQUESTED:          0  ISSUED:          0  USEFUL:          0  USELESS:          0
PSCL3 USEFUL LOAD PREFETCHES:          0 PREFETCH ISSUED TO LOWER LEVEL:          0  ACCURACY: -nan
PSCL3 TIMELY PREFETCHES:          0 LATE PREFETCHES: 0 DROPPED PREFETCHES: 0
PSCL3 PREFETCHES SAME FILL-ORIGIN LEVEL: 0 DIFFERENT FILL-ORIGIN LEVEL: 0

PSCL2 TOTAL     ACCESS:     169388  HIT:     122843  MISS:      46545  HIT %:    72.5217  MISS %:    27.4783   MPKI: 0.232725
PSCL2 LOAD TRANSLATION ACCESS:     107900  HIT:      61355  MISS:      46545  HIT %:    56.8628  MISS %:    43.1372   MPKI: 0.232725
PSCL2 TRANSLATION FROM L1D PREFETCHER ACCESS:      61488  HIT:      61488  MISS:          0  HIT %:        100  MISS %:          0   MPKI: 0
PSCL2 PREFETCH  REQUESTED:          0  ISSUED:          0  USEFUL:          0  USELESS:          0
PSCL2 USEFUL LOAD PREFETCHES:          0 PREFETCH ISSUED TO LOWER LEVEL:          0  ACCURACY: -nan
PSCL2 TIMELY PREFETCHES:          0 LATE PREFETCHES: 0 DROPPED PREFETCHES: 0
PSCL2 PREFETCHES SAME FILL-ORIGIN LEVEL: 0 DIFFERENT FILL-ORIGIN LEVEL: 0

LLC TOTAL     ACCESS:    5595347  HIT:    5176575  MISS:     418772  HIT %:    92.5157  MISS %:    7.48429   MPKI: 2.09386
LLC LOAD      ACCESS:    2507994  HIT:    2340446  MISS:     167548  HIT %:    93.3194  MISS %:    6.68056   MPKI: 0.83774
LLC RFO       ACCESS:     597519  HIT:     471617  MISS:     125902  HIT %:    78.9292  MISS %:    21.0708   MPKI: 0.62951
LLC PREFETCH  ACCESS:    1246473  HIT:    1159216  MISS:      87257  HIT %:    92.9997  MISS %:    7.00031   MPKI: 0.436285
AGUS PREFETCH L1 MISS: 0
LLC WRITEBACK ACCESS:    1136975  HIT:    1117962  MISS:      19013  HIT %:    98.3278  MISS %:    1.67224   MPKI: 0.095065
LLC LOAD TRANSLATION ACCESS:      94651  HIT:      76733  MISS:      17918  HIT %:    81.0694  MISS %:    18.9306   MPKI: 0.08959
LLC TRANSLATION FROM L1D PREFETCHER ACCESS:      11735  HIT:      10601  MISS:       1134  HIT %:    90.3366  MISS %:     9.6634   MPKI: 0.00567
LLC PREFETCH  REQUESTED:          0  ISSUED:          0  USEFUL:       5500  USELESS:      84196
LLC USEFUL LOAD PREFETCHES:       5500 PREFETCH ISSUED TO LOWER LEVEL:      87257  ACCURACY: 6.30322
LLC TIMELY PREFETCHES:       5500 LATE PREFETCHES: 0 DROPPED PREFETCHES: 0
LLC PREFETCHES SAME FILL-ORIGIN LEVEL: 0 DIFFERENT FILL-ORIGIN LEVEL: 0
LLC AVERAGE MISS LATENCY: 185.56 cycles
LLC RQ	ACCESS:    3211912	FORWARD:          0	MERGED:          0	TO_CACHE:    3211899
LLC WQ	ACCESS:    1136975	FORWARD:         13	MERGED:          0	TO_CACHE:    1136975
LLC PQ	ACCESS:    1246472	FORWARD:          0	MERGED:          0	TO_CACHE:    1246472

LLC Dense regions hint to LLC: 0

RAW hits: 1613187
Loads Generated: 52205391
Loads sent to L1D: 50592203
Stores Generated: 26484793
Stores sent to L1D: 26484793
Major fault: 0 Minor fault: 6405
Allocated PAGES: 6405
ucb ended
-----------------------------------------------------------------------------------------------------------------------------------------------------------------------------------------------------
Offsets elements: -63 -62 -61 -60 -59 -58 -57 -56 -55 -54 -53 -52 -51 -50 -49 -48 -47 -46 -45 -44 -43 -42 -41 -40 -39 -38 -37 -36 -35 -34 -33 -32 -31 -30 -29 -28 -27 -26 -25 -24 -23 -22 -21 -20 -19 -18 -17 -16 -15 -14 -13 -12 -11 -10 -9 -8 -7 -6 -5 -4 -3 -2 -1 1 2 3 4 5 6 7 8 9 10 11 12 13 14 15 16 17 18 19 20 21 22 23 24 25 26 27 28 29 30 31 32 33 34 35 36 37 38 39 40 41 42 43 44 45 46 47 48 49 50 51 52 53 54 55 56 57 58 59 60 61 62 63 
Potential of Offsets elements: 29.7186 79.7186 259.719 68.7186 195.719 70.7186 79.7186 40.7186 77.7186 138.719 62.7186 160.719 106.719 206.719 60.7186 28.7186 177.719 81.7186 56.7186 33.7186 32.7186 73.7186 79.7186 106.719 116.719 120.719 79.7186 65.7186 113.719 120.719 437.719 585.719 98.7186 85.7186 253.719 226.719 88.7186 43.7186 108.719 166.719 104.719 106.719 167.719 206.719 147.719 156.719 301.719 250.719 174.719 157.719 213.719 134.719 142.719 203.719 272.719 515.719 771.719 281.719 344.719 459.719 1113.09 313.719 760.719 699.236 506.719 543.719 270.719 263.719 190.719 188.719 464.719 351.719 443.719 321.719 148.719 121.719 176.719 78.7186 209.719 311.719 204.719 69.7186 85.7186 127.719 33.7186 59.7186 54.7186 70.7186 97.7186 55.7186 81.7186 126.719 143.719 126.719 72.7186 76.7186 117.719 133.719 81.7186 61.7186 701.719 112.719 59.7186 32.7186 40.7186 92.7186 55.7186 120.719 73.7186 192.719 274.719 61.7186 68.7186 190.719 70.7186 95.7186 69.7186 36.7186 79.7186 49.7186 40.7186 28.7186 29.7186 96.7186 113.719 112.719 
rewards of Offsets elements: 1 51 231 40 167 42 51 12 49 110 34 132 78 178 32 0 149 53 28 5 4 45 51 78 88 92 51 37 85 92 409 557 70 57 225 198 60 15 80 138 76 78 139 178 119 128 273 222 146 129 185 106 114 175 244 487 743 253 316 431 1113 285 732 697 478 515 242 235 162 160 436 323 415 293 120 93 148 50 181 283 176 41 57 99 5 31 26 42 69 27 53 98 115 98 44 48 89 105 53 33 673 84 31 4 12 64 27 92 45 164 246 33 40 162 42 67 41 8 51 21 12 0 1 68 85 84 Printing Sanity2
offset_index value126
offset list size126
reward size126
potential size126
-----------------------------------------------------------------------------------------------------------------------------------------------------------------------------------------------------

DRAM Statistics
 CHANNEL 0
 RQ ROW_BUFFER_HIT:      97823  ROW_BUFFER_MISS:     301935
 DBUS_CONGESTED:        143
 WQ ROW_BUFFER_HIT:      31593  ROW_BUFFER_MISS:     160348  FULL:          0

 AVG_CONGESTED_CYCLE: 4
 All warmup complete: 2
Channel 0 Bank busy for read cycles: 0
Channel 0 Bank busy for write cycles: 0
Channel 0
Rank 0
0banks busy for read cycles: 761470221
0banks busy for write cycles: 74889
1banks busy for read cycles: 19821913
1banks busy for write cycles: 10574444
2banks busy for read cycles: 4606735
2banks busy for write cycles: 2719395
3banks busy for read cycles: 1683081
3banks busy for write cycles: 1125245
4banks busy for read cycles: 609267
4banks busy for write cycles: 494355
5banks busy for read cycles: 126490
5banks busy for write cycles: 236809
6banks busy for read cycles: 130392
6banks busy for write cycles: 154074
7banks busy for read cycles: 216291
7banks busy for write cycles: 204745
8banks busy for read cycles: 1363669
8banks busy for write cycles: 1596303

CPU 0 Branch Prediction Accuracy: 99.9107% MPKI: 0.163205 Average ROB Occupancy at Mispredict: 46.3363
Branch types
NOT_BRANCH: 163456064 81.728%
BRANCH_DIRECT_JUMP: 2345713 1.17286%
BRANCH_INDIRECT: 14157355 7.07868%
BRANCH_CONDITIONAL: 8914735 4.45737%
BRANCH_DIRECT_CALL: 4151172 2.07559%
BRANCH_INDIRECT_CALL: 1411897 0.705948%
BRANCH_RETURN: 5563021 2.78151%
BRANCH_OTHER: 0 0%

DRAM PAGES: 1048576
Allocated PAGES: 6405
