
*** ChampSim Multicore Out-of-Order Simulator ***

Warmup Instructions: 50000000
Simulation Instructions: 200000000
Number of CPUs: 1
LLC sets: 2048
LLC ways: 16
Off-chip DRAM Size: 4096 MB Channels: 1 Width: 64-bit Data Rate: 6400 MT/s
CPU 0 runs traces/spec2k17/srv_37.champsimtrace.xz
.xz
BTB has LRU replacement policy
ITLB has LRU replacement policy
DTLB has LRU replacement policy
STLB has LRU replacement policy
L1I has LRU replacement policy
L1D has LRU replacement policy
Initialize SRRIP state for L2C
Initialize DRRIP state for LLC
Offsets elements: -63 -62 -61 -60 -59 -58 -57 -56 -55 -54 -53 -52 -51 -50 -49 -48 -47 -46 -45 -44 -43 -42 -41 -40 -39 -38 -37 -36 -35 -34 -33 -32 -31 -30 -29 -28 -27 -26 -25 -24 -23 -22 -21 -20 -19 -18 -17 -16 -15 -14 -13 -12 -11 -10 -9 -8 -7 -6 -5 -4 -3 -2 -1 1 2 3 4 5 6 7 8 9 10 11 12 13 14 15 16 17 18 19 20 21 22 23 24 25 26 27 28 29 30 31 32 33 34 35 36 37 38 39 40 41 42 43 44 45 46 47 48 49 50 51 52 53 54 55 56 57 58 59 60 61 62 63 
Potential of Offsets elements: 
rewards of Offsets elements: 85 221 0 46 91 63 118 20 74 12 89 113 90 118 33 127 49 90 42 77 136 79 10 102 0 162 39 134 143 120 163 80 147 103 113 125 110 208 133 171 77 202 164 11 208 146 182 209 40 183 129 168 224 157 330 217 341 243 420 528 500 452 1344 640 464 538 467 358 354 363 384 261 451 609 262 342 418 105 442 410 182 354 151 551 152 30 387 105 81 119 12 542 1 8 291 0 2 4 11 215 2 9 69 2 168 4 0 117 4 0 2 0 130 2 0 19 0 8 0 6 6 0 0 3 4 3 
Printing Sanity1
Heartbeat CPU 0 instructions: 10000003 cycles: 2956657 heartbeat IPC: 3.3822 cumulative IPC: 3.3822 (Simulation time: 0 hr 0 min 29 sec) 
Heartbeat CPU 0 instructions: 20000003 cycles: 5904133 heartbeat IPC: 3.39273 cumulative IPC: 3.38746 (Simulation time: 0 hr 1 min 0 sec) 
Heartbeat CPU 0 instructions: 30000000 cycles: 8857973 heartbeat IPC: 3.38542 cumulative IPC: 3.38678 (Simulation time: 0 hr 1 min 44 sec) 
*** Reached end of trace for Core: 0 Repeating trace: traces/spec2k17/srv_37.champsimtrace.xz
Heartbeat CPU 0 instructions: 40000001 cycles: 11813884 heartbeat IPC: 3.38305 cumulative IPC: 3.38585 (Simulation time: 0 hr 2 min 28 sec) 
Heartbeat CPU 0 instructions: 50000000 cycles: 14761703 heartbeat IPC: 3.39234 cumulative IPC: 3.38714 (Simulation time: 0 hr 3 min 1 sec) 

Warmup complete CPU 0 instructions: 50000004 cycles: 14761704 (Simulation time: 0 hr 3 min 1 sec) 

Heartbeat CPU 0 instructions: 60000002 cycles: 34879362 heartbeat IPC: 0.497076 cumulative IPC: 0.497076 (Simulation time: 0 hr 3 min 48 sec) 
*** Reached end of trace for Core: 0 Repeating trace: traces/spec2k17/srv_37.champsimtrace.xz
Heartbeat CPU 0 instructions: 70000003 cycles: 54541129 heartbeat IPC: 0.508601 cumulative IPC: 0.502772 (Simulation time: 0 hr 4 min 36 sec) 
Heartbeat CPU 0 instructions: 80000000 cycles: 74238209 heartbeat IPC: 0.507689 cumulative IPC: 0.504401 (Simulation time: 0 hr 5 min 23 sec) 
Heartbeat CPU 0 instructions: 90000000 cycles: 94265335 heartbeat IPC: 0.499323 cumulative IPC: 0.503122 (Simulation time: 0 hr 6 min 10 sec) 
*** Reached end of trace for Core: 0 Repeating trace: traces/spec2k17/srv_37.champsimtrace.xz
Heartbeat CPU 0 instructions: 100000001 cycles: 113934252 heartbeat IPC: 0.508416 cumulative IPC: 0.504172 (Simulation time: 0 hr 6 min 54 sec) 
Heartbeat CPU 0 instructions: 110000000 cycles: 133615660 heartbeat IPC: 0.508094 cumulative IPC: 0.504821 (Simulation time: 0 hr 7 min 40 sec) 
Heartbeat CPU 0 instructions: 120000001 cycles: 153467118 heartbeat IPC: 0.503741 cumulative IPC: 0.504667 (Simulation time: 0 hr 8 min 26 sec) 
*** Reached end of trace for Core: 0 Repeating trace: traces/spec2k17/srv_37.champsimtrace.xz
Heartbeat CPU 0 instructions: 130000001 cycles: 173381576 heartbeat IPC: 0.502148 cumulative IPC: 0.50435 (Simulation time: 0 hr 9 min 12 sec) 
Heartbeat CPU 0 instructions: 140000002 cycles: 192956176 heartbeat IPC: 0.510866 cumulative IPC: 0.505066 (Simulation time: 0 hr 9 min 57 sec) 
Heartbeat CPU 0 instructions: 150000001 cycles: 212640355 heartbeat IPC: 0.508022 cumulative IPC: 0.50536 (Simulation time: 0 hr 10 min 43 sec) 
Heartbeat CPU 0 instructions: 160000000 cycles: 232683432 heartbeat IPC: 0.498925 cumulative IPC: 0.504768 (Simulation time: 0 hr 11 min 27 sec) 
*** Reached end of trace for Core: 0 Repeating trace: traces/spec2k17/srv_37.champsimtrace.xz
Heartbeat CPU 0 instructions: 170000003 cycles: 252349403 heartbeat IPC: 0.508493 cumulative IPC: 0.505077 (Simulation time: 0 hr 12 min 13 sec) 
Heartbeat CPU 0 instructions: 180000002 cycles: 272093381 heartbeat IPC: 0.506483 cumulative IPC: 0.505185 (Simulation time: 0 hr 13 min 24 sec) 
Heartbeat CPU 0 instructions: 190000002 cycles: 292088723 heartbeat IPC: 0.500116 cumulative IPC: 0.504819 (Simulation time: 0 hr 14 min 27 sec) 
*** Reached end of trace for Core: 0 Repeating trace: traces/spec2k17/srv_37.champsimtrace.xz
Heartbeat CPU 0 instructions: 200000001 cycles: 311741847 heartbeat IPC: 0.508825 cumulative IPC: 0.505084 (Simulation time: 0 hr 15 min 15 sec) 
Heartbeat CPU 0 instructions: 210000002 cycles: 331374144 heartbeat IPC: 0.509365 cumulative IPC: 0.50535 (Simulation time: 0 hr 16 min 0 sec) 
Heartbeat CPU 0 instructions: 220000000 cycles: 351396376 heartbeat IPC: 0.499445 cumulative IPC: 0.504998 (Simulation time: 0 hr 16 min 44 sec) 
*** Reached end of trace for Core: 0 Repeating trace: traces/spec2k17/srv_37.champsimtrace.xz
Heartbeat CPU 0 instructions: 230000000 cycles: 371052533 heartbeat IPC: 0.508746 cumulative IPC: 0.505205 (Simulation time: 0 hr 17 min 28 sec) 
Heartbeat CPU 0 instructions: 240000001 cycles: 390701610 heartbeat IPC: 0.50893 cumulative IPC: 0.5054 (Simulation time: 0 hr 18 min 11 sec) 
Heartbeat CPU 0 instructions: 250000001 cycles: 410618317 heartbeat IPC: 0.502091 cumulative IPC: 0.505233 (Simulation time: 0 hr 18 min 52 sec) 
Finished CPU 0 instructions: 200000002 cycles: 395856618 cumulative IPC: 0.505233 (Simulation time: 0 hr 18 min 52 sec) 

ChampSim completed all CPUs

Region of Interest Statistics

CPU 0 cumulative IPC: 0.505233 instructions: 200000002 cycles: 395856618
ITLB TOTAL     ACCESS:   33809287  HIT:   32276725  MISS:    1532562  HIT %:     95.467  MISS %:    4.53296   MPKI: 7.66281
ITLB LOAD TRANSLATION ACCESS:   33809287  HIT:   32276725  MISS:    1532562  HIT %:     95.467  MISS %:    4.53296   MPKI: 7.66281
ITLB PREFETCH  REQUESTED:          0  ISSUED:          0  USEFUL:          0  USELESS:          0
ITLB USEFUL LOAD PREFETCHES:          0 PREFETCH ISSUED TO LOWER LEVEL:          0  ACCURACY: -nan
ITLB TIMELY PREFETCHES:          0 LATE PREFETCHES: 0 DROPPED PREFETCHES: 0
ITLB PREFETCHES SAME FILL-ORIGIN LEVEL: 0 DIFFERENT FILL-ORIGIN LEVEL: 0
ITLB AVERAGE MISS LATENCY: 9.30938 cycles
ITLB RQ	ACCESS:   40678748	FORWARD:          0	MERGED:    6374860	TO_CACHE:   34303888

DTLB TOTAL     ACCESS:   40006748  HIT:   38472720  MISS:    1534028  HIT %:    96.1656  MISS %:    3.83442   MPKI: 7.67014
DTLB LOAD TRANSLATION ACCESS:   40006748  HIT:   38472720  MISS:    1534028  HIT %:    96.1656  MISS %:    3.83442   MPKI: 7.67014
DTLB PREFETCH  REQUESTED:          0  ISSUED:          0  USEFUL:          0  USELESS:          0
DTLB USEFUL LOAD PREFETCHES:          0 PREFETCH ISSUED TO LOWER LEVEL:          0  ACCURACY: -nan
DTLB TIMELY PREFETCHES:          0 LATE PREFETCHES: 0 DROPPED PREFETCHES: 0
DTLB PREFETCHES SAME FILL-ORIGIN LEVEL: 0 DIFFERENT FILL-ORIGIN LEVEL: 0
DTLB AVERAGE MISS LATENCY: 15.4116 cycles
DTLB RQ	ACCESS:   61054690	FORWARD:          0	MERGED:   20653369	TO_CACHE:   40401321

STLB TOTAL     ACCESS:   11141494  HIT:   11059856  MISS:      81638  HIT %:    99.2673  MISS %:   0.732738   MPKI: 0.40819
STLB LOAD TRANSLATION ACCESS:    3066589  HIT:    2986813  MISS:      79776  HIT %:    97.3985  MISS %:    2.60146   MPKI: 0.39888
STLB TRANSLATION FROM L1D PREFETCHER ACCESS:    8074905  HIT:    8073043  MISS:       1862  HIT %:    99.9769  MISS %:  0.0230591   MPKI: 0.00931
STLB PREFETCH  REQUESTED:          0  ISSUED:          0  USEFUL:       1793  USELESS:         68
STLB USEFUL LOAD PREFETCHES:       1793 PREFETCH ISSUED TO LOWER LEVEL:          0  ACCURACY: inf
STLB TIMELY PREFETCHES:       1793 LATE PREFETCHES: 721 DROPPED PREFETCHES: 9723
STLB PREFETCHES SAME FILL-ORIGIN LEVEL: 0 DIFFERENT FILL-ORIGIN LEVEL: 0
STLB AVERAGE MISS LATENCY: 127.411 cycles
STLB RQ	ACCESS:   14205417	FORWARD:          0	MERGED:    3053480	TO_CACHE:   11151937

STLB Hit, L1D data hit: 0
STLB Hit, L2C data hit: 0
STLB Hit, LLC data hit: 0
STLB Hit, LLC data miss: 0
STLB STLB hints to L2: 0
L1D TOTAL     ACCESS:   58813614  HIT:   51344642  MISS:    7468972  HIT %:    87.3006  MISS %:    12.6994   MPKI: 37.3449
L1D LOAD      ACCESS:   26707433  HIT:   23848073  MISS:    2859360  HIT %:    89.2938  MISS %:    10.7062   MPKI: 14.2968
L1D RFO       ACCESS:   22470869  HIT:   18795547  MISS:    3675322  HIT %:    83.6441  MISS %:    16.3559   MPKI: 18.3766
L1D PREFETCH  ACCESS:    9635312  HIT:    8701022  MISS:     934290  HIT %:    90.3035  MISS %:    9.69652   MPKI: 4.67145
AGUS PREFETCH L1 MISS: 0
L1D PREFETCH  REQUESTED:   57330977  ISSUED:   57330888  USEFUL:     324665  USELESS:     609634
L1D USEFUL LOAD PREFETCHES:     324665 PREFETCH ISSUED TO LOWER LEVEL:    1377624  ACCURACY: 23.567
L1D TIMELY PREFETCHES:     324665 LATE PREFETCHES: 438222 DROPPED PREFETCHES: 9723
L1D PREFETCHES SAME FILL-ORIGIN LEVEL: 1377624 DIFFERENT FILL-ORIGIN LEVEL: 0
L1D AVERAGE MISS LATENCY: 1.26313e+07 cycles
L1D RQ	ACCESS:   45178644	FORWARD:          0	MERGED:   17815590	TO_CACHE:   27113903
L1D WQ	ACCESS:   34134601	FORWARD:     258540	MERGED:     193814	TO_CACHE:   33940787
L1D PQ	ACCESS:   46192059	FORWARD:          0	MERGED:   35043841	TO_CACHE:   11138829

L1D UNIQUE REGIONS ACCESSED: 0
L1D REGIONS CONFLICTS: 0
L1D Cross Page Prefetch Requests: 1153661
L1D Same Page Prefetch Requests: 56071778
L1D ROI Sum of L1D PQ occupancy: 144093775
L1D PREFETCHES PUSHED FROM L2C: 0
L1I TOTAL     ACCESS:   38031775  HIT:   28955556  MISS:    9076219  HIT %:    76.1352  MISS %:    23.8648   MPKI: 45.3811
L1I LOAD      ACCESS:   38031775  HIT:   28955556  MISS:    9076219  HIT %:    76.1352  MISS %:    23.8648   MPKI: 45.3811
L1I PREFETCH  REQUESTED:          0  ISSUED:          0  USEFUL:          0  USELESS:          0
L1I USEFUL LOAD PREFETCHES:          0 PREFETCH ISSUED TO LOWER LEVEL:          0  ACCURACY: -nan
L1I TIMELY PREFETCHES:          0 LATE PREFETCHES: 0 DROPPED PREFETCHES: 0
L1I PREFETCHES SAME FILL-ORIGIN LEVEL: 0 DIFFERENT FILL-ORIGIN LEVEL: 0
L1I AVERAGE MISS LATENCY: 16.9428 cycles
L1I RQ	ACCESS:   59023290	FORWARD:          0	MERGED:   18344542	TO_CACHE:   40678748

BTB TOTAL     ACCESS:   25792473  HIT:   24215895  MISS:    1576578  HIT %:    93.8874  MISS %:    6.11255   MPKI: 7.88289
BTB BRANCH_DIRECT_JUMP	ACCESS:    1657270  HIT:    1644420  MISS:      12850
BTB BRANCH_INDIRECT	ACCESS:    9945378  HIT:    9419365  MISS:     526013
BTB BRANCH_CONDITIONAL	ACCESS:    7366898  HIT:    7349104  MISS:      17794
BTB BRANCH_DIRECT_CALL	ACCESS:    2818311  HIT:    2778534  MISS:      39777
BTB BRANCH_INDIRECT_CALL	ACCESS:     593130  HIT:     481549  MISS:     111581
BTB BRANCH_RETURN	ACCESS:    3411486  HIT:    2542923  MISS:     868563
BTB BRANCH_OTHER ACCESS:          0  HIT:          0  MISS:          0

L2C TOTAL     ACCESS:   21020441  HIT:   14015386  MISS:    7005055  HIT %:     66.675  MISS %:     33.325   MPKI: 35.0253
L2C LOAD      ACCESS:   11496965  HIT:    9204195  MISS:    2292770  HIT %:    80.0576  MISS %:    19.9424   MPKI: 11.4638
L2C DATA LOAD MPKI: 8.54019
L2C INSTRUCTION LOAD MPKI: 2.92365
L2C RFO       ACCESS:    3670205  HIT:     148198  MISS:    3522007  HIT %:    4.03787  MISS %:    95.9621   MPKI: 17.61
L2C PREFETCH  ACCESS:    1377624  HIT:     363025  MISS:    1014599  HIT %:    26.3515  MISS %:    73.6485   MPKI: 5.07299
AGUS PREFETCH L1 MISS: 0
L2C DATA PREFETCH MPKI: 5.07299
L2C INSTRUCTION PREFETCH MPKI: 0
L2C WRITEBACK ACCESS:    4366193  HIT:    4237165  MISS:     129028  HIT %:    97.0448  MISS %:    2.95516   MPKI: 0.64514
L2C LOAD TRANSLATION ACCESS:      92408  HIT:      47371  MISS:      45037  HIT %:    51.2629  MISS %:    48.7371   MPKI: 0.225185
L2C TRANSLATION FROM L1D PREFETCHER ACCESS:      17046  HIT:      15432  MISS:       1614  HIT %:    90.5315  MISS %:     9.4685   MPKI: 0.00807
L2C PREFETCH  REQUESTED:          0  ISSUED:          0  USEFUL:      42473  USELESS:     974270
L2C USEFUL LOAD PREFETCHES:      42473 PREFETCH ISSUED TO LOWER LEVEL:    1014599  ACCURACY: 4.18619
L2C TIMELY PREFETCHES:      42473 LATE PREFETCHES: 0 DROPPED PREFETCHES: 0
L2C PREFETCHES SAME FILL-ORIGIN LEVEL: 0 DIFFERENT FILL-ORIGIN LEVEL: 0
L2C AVERAGE MISS LATENCY: 152.422 cycles
L2C RQ	ACCESS:   15277021	FORWARD:          0	MERGED:          0	TO_CACHE:   15276624
L2C WQ	ACCESS:    4366193	FORWARD:        397	MERGED:          0	TO_CACHE:    4366193
L2C PQ	ACCESS:    1377624	FORWARD:          0	MERGED:          0	TO_CACHE:    1377624

L2C Instructions Evicting Data 538853
L2C Translations Evicting Data 42869
L2C Data Evicting Data 5675645
L2C Instructions Evicting Instructions 42133
L2C Translations Evicting Instructions 3467
L2C Data Evicting Instructions 527113
L2C Instructions Evicting Translations 3745
L2C Translations Evicting Translations 315
L2C Data Evicting Translations 41887
L2C Dense regions hint from L2: 0
PSCL5 TOTAL     ACCESS:      91361  HIT:      91361  MISS:          0  HIT %:        100  MISS %:          0   MPKI: 0
PSCL5 LOAD TRANSLATION ACCESS:      79055  HIT:      79055  MISS:          0  HIT %:        100  MISS %:          0   MPKI: 0
PSCL5 TRANSLATION FROM L1D PREFETCHER ACCESS:      12306  HIT:      12306  MISS:          0  HIT %:        100  MISS %:          0   MPKI: 0
PSCL5 PREFETCH  REQUESTED:          0  ISSUED:          0  USEFUL:          0  USELESS:          0
PSCL5 USEFUL LOAD PREFETCHES:          0 PREFETCH ISSUED TO LOWER LEVEL:          0  ACCURACY: -nan
PSCL5 TIMELY PREFETCHES:          0 LATE PREFETCHES: 0 DROPPED PREFETCHES: 0
PSCL5 PREFETCHES SAME FILL-ORIGIN LEVEL: 0 DIFFERENT FILL-ORIGIN LEVEL: 0

PSCL4 TOTAL     ACCESS:      88384  HIT:      88161  MISS:        223  HIT %:    99.7477  MISS %:   0.252308   MPKI: 0.001115
PSCL4 LOAD TRANSLATION ACCESS:      76708  HIT:      76485  MISS:        223  HIT %:    99.7093  MISS %:   0.290713   MPKI: 0.001115
PSCL4 TRANSLATION FROM L1D PREFETCHER ACCESS:      11676  HIT:      11676  MISS:          0  HIT %:        100  MISS %:          0   MPKI: 0
PSCL4 PREFETCH  REQUESTED:          0  ISSUED:          0  USEFUL:          0  USELESS:          0
PSCL4 USEFUL LOAD PREFETCHES:          0 PREFETCH ISSUED TO LOWER LEVEL:          0  ACCURACY: -nan
PSCL4 TIMELY PREFETCHES:          0 LATE PREFETCHES: 0 DROPPED PREFETCHES: 0
PSCL4 PREFETCHES SAME FILL-ORIGIN LEVEL: 0 DIFFERENT FILL-ORIGIN LEVEL: 0

PSCL3 TOTAL     ACCESS:      86265  HIT:      84947  MISS:       1318  HIT %:    98.4721  MISS %:    1.52785   MPKI: 0.00659
PSCL3 LOAD TRANSLATION ACCESS:      73978  HIT:      72660  MISS:       1318  HIT %:    98.2184  MISS %:    1.78161   MPKI: 0.00659
PSCL3 TRANSLATION FROM L1D PREFETCHER ACCESS:      12287  HIT:      12287  MISS:          0  HIT %:        100  MISS %:          0   MPKI: 0
PSCL3 PREFETCH  REQUESTED:          0  ISSUED:          0  USEFUL:          0  USELESS:          0
PSCL3 USEFUL LOAD PREFETCHES:          0 PREFETCH ISSUED TO LOWER LEVEL:          0  ACCURACY: -nan
PSCL3 TIMELY PREFETCHES:          0 LATE PREFETCHES: 0 DROPPED PREFETCHES: 0
PSCL3 PREFETCHES SAME FILL-ORIGIN LEVEL: 0 DIFFERENT FILL-ORIGIN LEVEL: 0

PSCL2 TOTAL     ACCESS:      86779  HIT:      74809  MISS:      11970  HIT %:    86.2063  MISS %:    13.7937   MPKI: 0.05985
PSCL2 LOAD TRANSLATION ACCESS:      79194  HIT:      67224  MISS:      11970  HIT %:    84.8852  MISS %:    15.1148   MPKI: 0.05985
PSCL2 TRANSLATION FROM L1D PREFETCHER ACCESS:       7585  HIT:       7585  MISS:          0  HIT %:        100  MISS %:          0   MPKI: 0
PSCL2 PREFETCH  REQUESTED:          0  ISSUED:          0  USEFUL:          0  USELESS:          0
PSCL2 USEFUL LOAD PREFETCHES:          0 PREFETCH ISSUED TO LOWER LEVEL:          0  ACCURACY: -nan
PSCL2 TIMELY PREFETCHES:          0 LATE PREFETCHES: 0 DROPPED PREFETCHES: 0
PSCL2 PREFETCHES SAME FILL-ORIGIN LEVEL: 0 DIFFERENT FILL-ORIGIN LEVEL: 0

LLC TOTAL     ACCESS:   10925585  HIT:    4494545  MISS:    6431040  HIT %:    41.1378  MISS %:    58.8622   MPKI: 32.1552
LLC LOAD      ACCESS:    2292769  HIT:    1430664  MISS:     862105  HIT %:     62.399  MISS %:     37.601   MPKI: 4.31052
LLC RFO       ACCESS:    3521964  HIT:     961814  MISS:    2560150  HIT %:     27.309  MISS %:     72.691   MPKI: 12.8007
LLC PREFETCH  ACCESS:    1014599  HIT:     543560  MISS:     471039  HIT %:    53.5739  MISS %:    46.4261   MPKI: 2.35519
AGUS PREFETCH L1 MISS: 0
LLC WRITEBACK ACCESS:    4049602  HIT:    1547633  MISS:    2501969  HIT %:    38.2169  MISS %:    61.7831   MPKI: 12.5098
LLC LOAD TRANSLATION ACCESS:      45037  HIT:      10475  MISS:      34562  HIT %:    23.2587  MISS %:    76.7413   MPKI: 0.17281
LLC TRANSLATION FROM L1D PREFETCHER ACCESS:       1614  HIT:        399  MISS:       1215  HIT %:    24.7212  MISS %:    75.2788   MPKI: 0.006075
LLC PREFETCH  REQUESTED:          0  ISSUED:          0  USEFUL:       2251  USELESS:     470475
LLC USEFUL LOAD PREFETCHES:       2251 PREFETCH ISSUED TO LOWER LEVEL:     471039  ACCURACY: 0.47788
LLC TIMELY PREFETCHES:       2251 LATE PREFETCHES: 0 DROPPED PREFETCHES: 0
LLC PREFETCHES SAME FILL-ORIGIN LEVEL: 0 DIFFERENT FILL-ORIGIN LEVEL: 0
LLC AVERAGE MISS LATENCY: 133.95 cycles
LLC RQ	ACCESS:    5861428	FORWARD:          0	MERGED:          0	TO_CACHE:    5861384
LLC WQ	ACCESS:    4049602	FORWARD:         44	MERGED:          0	TO_CACHE:    4049602
LLC PQ	ACCESS:    1014599	FORWARD:          0	MERGED:          0	TO_CACHE:    1014599

LLC Dense regions hint to LLC: 0

RAW hits: 2414246
Loads Generated: 47592892
Loads sent to L1D: 45178644
Stores Generated: 34134589
Stores sent to L1D: 34134601
Major fault: 0 Minor fault: 9332
Allocated PAGES: 9332
ucb ended
-----------------------------------------------------------------------------------------------------------------------------------------------------------------------------------------------------
Offsets elements: -63 -62 -61 -60 -59 -58 -57 -56 -55 -54 -53 -52 -51 -50 -49 -48 -47 -46 -45 -44 -43 -42 -41 -40 -39 -38 -37 -36 -35 -34 -33 -32 -31 -30 -29 -28 -27 -26 -25 -24 -23 -22 -21 -20 -19 -18 -17 -16 -15 -14 -13 -12 -11 -10 -9 -8 -7 -6 -5 -4 -3 -2 -1 1 2 3 4 5 6 7 8 9 10 11 12 13 14 15 16 17 18 19 20 21 22 23 24 25 26 27 28 29 30 31 32 33 34 35 36 37 38 39 40 41 42 43 44 45 46 47 48 49 50 51 52 53 54 55 56 57 58 59 60 61 62 63 
Potential of Offsets elements: 113.253 249.253 28.2526 74.2526 119.253 91.2526 146.253 48.2526 102.253 40.2526 117.253 141.253 118.253 146.253 61.2526 155.253 77.2526 118.253 70.2526 105.253 164.253 107.253 38.2526 130.253 28.2526 190.253 67.2526 162.253 171.253 148.253 191.253 108.253 175.253 131.253 141.253 153.253 138.253 236.253 161.253 199.253 105.253 230.253 192.253 39.2526 236.253 174.253 210.253 237.253 68.2526 211.253 157.253 196.253 252.253 185.253 358.253 245.253 369.253 271.253 448.253 556.253 528.253 480.253 298.267 640.122 492.253 566.253 495.253 386.253 382.253 391.253 412.253 289.253 479.253 637.253 290.253 370.253 446.253 133.253 470.253 438.253 210.253 382.253 179.253 579.253 180.253 58.2526 415.253 133.253 109.253 147.253 40.2526 570.253 29.2526 36.2526 319.253 28.2526 30.2526 32.2526 39.2526 243.253 30.2526 37.2526 97.2526 30.2526 196.253 32.2526 28.2526 145.253 32.2526 28.2526 30.2526 28.2526 158.253 30.2526 28.2526 47.2526 28.2526 36.2526 28.2526 34.2526 34.2526 28.2526 28.2526 31.2526 32.2526 31.2526 
rewards of Offsets elements: 85 221 0 46 91 63 118 20 74 12 89 113 90 118 33 127 49 90 42 77 136 79 10 102 0 162 39 134 143 120 163 80 147 103 113 125 110 208 133 171 77 202 164 11 208 146 182 209 40 183 129 168 224 157 330 217 341 243 420 528 500 452 298 640 464 538 467 358 354 363 384 261 451 609 262 342 418 105 442 410 182 354 151 551 152 30 387 105 81 119 12 542 1 8 291 0 2 4 11 215 2 9 69 2 168 4 0 117 4 0 2 0 130 2 0 19 0 8 0 6 6 0 0 3 4 3 Printing Sanity2
offset_index value126
offset list size126
reward size126
potential size126
-----------------------------------------------------------------------------------------------------------------------------------------------------------------------------------------------------

DRAM Statistics
 CHANNEL 0
 RQ ROW_BUFFER_HIT:    1851372  ROW_BUFFER_MISS:    2077333
 DBUS_CONGESTED:       2265
 WQ ROW_BUFFER_HIT:     536355  ROW_BUFFER_MISS:    2110143  FULL:      59496

 AVG_CONGESTED_CYCLE: 3
 All warmup complete: 2
Channel 0 Bank busy for read cycles: 0
Channel 0 Bank busy for write cycles: 0
Channel 0
Rank 0
0banks busy for read cycles: 169974573
0banks busy for write cycles: 262899
1banks busy for read cycles: 37265339
1banks busy for write cycles: 36046363
2banks busy for read cycles: 16619976
2banks busy for write cycles: 14375013
3banks busy for read cycles: 16964220
3banks busy for write cycles: 7196894
4banks busy for read cycles: 5942188
4banks busy for write cycles: 4516937
5banks busy for read cycles: 5249216
5banks busy for write cycles: 3688038
6banks busy for read cycles: 6317062
6banks busy for write cycles: 3657653
7banks busy for read cycles: 11056537
7banks busy for write cycles: 6084799
8banks busy for read cycles: 15563673
8banks busy for write cycles: 35075239

CPU 0 Branch Prediction Accuracy: 99.9446% MPKI: 0.08483 Average ROB Occupancy at Mispredict: 120.638
Branch types
NOT_BRANCH: 169380967 84.6905%
BRANCH_DIRECT_JUMP: 1657270 0.828635%
BRANCH_INDIRECT: 9945378 4.97269%
BRANCH_CONDITIONAL: 12193387 6.09669%
BRANCH_DIRECT_CALL: 2818311 1.40916%
BRANCH_INDIRECT_CALL: 593130 0.296565%
BRANCH_RETURN: 3411486 1.70574%
BRANCH_OTHER: 0 0%

DRAM PAGES: 1048576
Allocated PAGES: 9332
