
*** ChampSim Multicore Out-of-Order Simulator ***

Warmup Instructions: 50000000
Simulation Instructions: 200000000
Number of CPUs: 1
LLC sets: 2048
LLC ways: 16
Off-chip DRAM Size: 4096 MB Channels: 1 Width: 64-bit Data Rate: 6400 MT/s
CPU 0 runs traces/spec2k17/server_010.champsimtrace.xz
.xz
BTB has LRU replacement policy
ITLB has LRU replacement policy
DTLB has LRU replacement policy
STLB has LRU replacement policy
L1I has LRU replacement policy
L1D has LRU replacement policy
Bingo PHT WAYS: 16 and PHT_SIZE: 16384
Initialize SRRIP state for L2C
Initialize DRRIP state for LLC
Heartbeat CPU 0 instructions: 10000003 cycles: 2782957 heartbeat IPC: 3.5933 cumulative IPC: 3.5933 (Simulation time: 0 hr 0 min 36 sec) 
Heartbeat CPU 0 instructions: 20000002 cycles: 5557532 heartbeat IPC: 3.60416 cumulative IPC: 3.59872 (Simulation time: 0 hr 1 min 10 sec) 
Heartbeat CPU 0 instructions: 30000002 cycles: 8335837 heartbeat IPC: 3.59932 cumulative IPC: 3.59892 (Simulation time: 0 hr 1 min 47 sec) 
Heartbeat CPU 0 instructions: 40000002 cycles: 11110746 heartbeat IPC: 3.60372 cumulative IPC: 3.60012 (Simulation time: 0 hr 2 min 22 sec) 
Heartbeat CPU 0 instructions: 50000002 cycles: 13888240 heartbeat IPC: 3.60037 cumulative IPC: 3.60017 (Simulation time: 0 hr 2 min 58 sec) 

Warmup complete CPU 0 instructions: 50000002 cycles: 13888240 (Simulation time: 0 hr 2 min 58 sec) 

Heartbeat CPU 0 instructions: 60000001 cycles: 36720972 heartbeat IPC: 0.437968 cumulative IPC: 0.437968 (Simulation time: 0 hr 3 min 48 sec) 
Heartbeat CPU 0 instructions: 70000002 cycles: 60180097 heartbeat IPC: 0.426273 cumulative IPC: 0.432041 (Simulation time: 0 hr 4 min 38 sec) 
Heartbeat CPU 0 instructions: 80000003 cycles: 83270384 heartbeat IPC: 0.433083 cumulative IPC: 0.432388 (Simulation time: 0 hr 5 min 27 sec) 
Heartbeat CPU 0 instructions: 90000001 cycles: 106420311 heartbeat IPC: 0.431967 cumulative IPC: 0.432283 (Simulation time: 0 hr 6 min 37 sec) 
Heartbeat CPU 0 instructions: 100000000 cycles: 137186921 heartbeat IPC: 0.325028 cumulative IPC: 0.405519 (Simulation time: 0 hr 7 min 36 sec) 
*** Reached end of trace for Core: 0 Repeating trace: traces/spec2k17/server_010.champsimtrace.xz
Heartbeat CPU 0 instructions: 110000000 cycles: 164522551 heartbeat IPC: 0.365823 cumulative IPC: 0.398316 (Simulation time: 0 hr 8 min 31 sec) 
Heartbeat CPU 0 instructions: 120000001 cycles: 187968432 heartbeat IPC: 0.426514 cumulative IPC: 0.402114 (Simulation time: 0 hr 9 min 23 sec) 
Heartbeat CPU 0 instructions: 130000003 cycles: 211484426 heartbeat IPC: 0.425243 cumulative IPC: 0.404866 (Simulation time: 0 hr 10 min 12 sec) 
Heartbeat CPU 0 instructions: 140000001 cycles: 234644333 heartbeat IPC: 0.431781 cumulative IPC: 0.40769 (Simulation time: 0 hr 11 min 3 sec) 
Heartbeat CPU 0 instructions: 150000000 cycles: 257571480 heartbeat IPC: 0.436164 cumulative IPC: 0.410369 (Simulation time: 0 hr 11 min 55 sec) 
Heartbeat CPU 0 instructions: 160000000 cycles: 280243064 heartbeat IPC: 0.441081 cumulative IPC: 0.412983 (Simulation time: 0 hr 12 min 45 sec) 
Heartbeat CPU 0 instructions: 170000000 cycles: 303625218 heartbeat IPC: 0.427677 cumulative IPC: 0.414169 (Simulation time: 0 hr 13 min 38 sec) 
Heartbeat CPU 0 instructions: 180000001 cycles: 326507531 heartbeat IPC: 0.437019 cumulative IPC: 0.415841 (Simulation time: 0 hr 14 min 29 sec) 
Heartbeat CPU 0 instructions: 190000001 cycles: 349710614 heartbeat IPC: 0.430977 cumulative IPC: 0.416887 (Simulation time: 0 hr 15 min 20 sec) 
Heartbeat CPU 0 instructions: 200000000 cycles: 374912153 heartbeat IPC: 0.396801 cumulative IPC: 0.415485 (Simulation time: 0 hr 16 min 12 sec) 
*** Reached end of trace for Core: 0 Repeating trace: traces/spec2k17/server_010.champsimtrace.xz
Heartbeat CPU 0 instructions: 210000000 cycles: 407752132 heartbeat IPC: 0.304507 cumulative IPC: 0.406232 (Simulation time: 0 hr 17 min 14 sec) 
Heartbeat CPU 0 instructions: 220000000 cycles: 431098663 heartbeat IPC: 0.428329 cumulative IPC: 0.407468 (Simulation time: 0 hr 18 min 5 sec) 
Heartbeat CPU 0 instructions: 230000001 cycles: 454280866 heartbeat IPC: 0.431365 cumulative IPC: 0.408726 (Simulation time: 0 hr 18 min 58 sec) 
Heartbeat CPU 0 instructions: 240000000 cycles: 477641475 heartbeat IPC: 0.428071 cumulative IPC: 0.409701 (Simulation time: 0 hr 19 min 51 sec) 
Heartbeat CPU 0 instructions: 250000002 cycles: 500682460 heartbeat IPC: 0.434009 cumulative IPC: 0.410851 (Simulation time: 0 hr 20 min 44 sec) 
Finished CPU 0 instructions: 200000000 cycles: 486794220 cumulative IPC: 0.410851 (Simulation time: 0 hr 20 min 44 sec) 

ChampSim completed all CPUs

Region of Interest Statistics

CPU 0 cumulative IPC: 0.410851 instructions: 200000000 cycles: 486794220
ITLB TOTAL     ACCESS:   32855855  HIT:   32106435  MISS:     749420  HIT %:    97.7191  MISS %:    2.28093   MPKI: 3.7471
ITLB LOAD TRANSLATION ACCESS:   32855855  HIT:   32106435  MISS:     749420  HIT %:    97.7191  MISS %:    2.28093   MPKI: 3.7471
ITLB PREFETCH  REQUESTED:          0  ISSUED:          0  USEFUL:          0  USELESS:          0
ITLB USEFUL LOAD PREFETCHES:          0 PREFETCH ISSUED TO LOWER LEVEL:          0  ACCURACY: -nan
ITLB TIMELY PREFETCHES:          0 LATE PREFETCHES: 0 DROPPED PREFETCHES: 0
ITLB PREFETCHES SAME FILL-ORIGIN LEVEL: 0 DIFFERENT FILL-ORIGIN LEVEL: 0
ITLB AVERAGE MISS LATENCY: 16.1685 cycles
ITLB RQ	ACCESS:   39529599	FORWARD:          0	MERGED:    6493434	TO_CACHE:   33036165

DTLB TOTAL     ACCESS:   38983344  HIT:   35115904  MISS:    3867440  HIT %:    90.0793  MISS %:    9.92075   MPKI: 19.3372
DTLB LOAD TRANSLATION ACCESS:   38983344  HIT:   35115904  MISS:    3867440  HIT %:    90.0793  MISS %:    9.92075   MPKI: 19.3372
DTLB PREFETCH  REQUESTED:          0  ISSUED:          0  USEFUL:          0  USELESS:          0
DTLB USEFUL LOAD PREFETCHES:          0 PREFETCH ISSUED TO LOWER LEVEL:          0  ACCURACY: -nan
DTLB TIMELY PREFETCHES:          0 LATE PREFETCHES: 0 DROPPED PREFETCHES: 0
DTLB PREFETCHES SAME FILL-ORIGIN LEVEL: 0 DIFFERENT FILL-ORIGIN LEVEL: 0
DTLB AVERAGE MISS LATENCY: 12.2252 cycles
DTLB RQ	ACCESS:   50283296	FORWARD:          0	MERGED:   11140257	TO_CACHE:   39143039

STLB TOTAL     ACCESS:    4616860  HIT:    4173981  MISS:     442879  HIT %:    90.4074  MISS %:    9.59265   MPKI: 2.2144
STLB LOAD TRANSLATION ACCESS:    4616860  HIT:    4173981  MISS:     442879  HIT %:    90.4074  MISS %:    9.59265   MPKI: 2.2144
STLB PREFETCH  REQUESTED:          0  ISSUED:          0  USEFUL:          0  USELESS:          0
STLB USEFUL LOAD PREFETCHES:          0 PREFETCH ISSUED TO LOWER LEVEL:          0  ACCURACY: -nan
STLB TIMELY PREFETCHES:          0 LATE PREFETCHES: 0 DROPPED PREFETCHES: 0
STLB PREFETCHES SAME FILL-ORIGIN LEVEL: 0 DIFFERENT FILL-ORIGIN LEVEL: 0
STLB AVERAGE MISS LATENCY: 40.1084 cycles
STLB RQ	ACCESS:    4616860	FORWARD:          0	MERGED:          0	TO_CACHE:    4616860

STLB Hit, L1D data hit: 0
STLB Hit, L2C data hit: 0
STLB Hit, LLC data hit: 0
STLB Hit, LLC data miss: 0
STLB STLB hints to L2: 0
L1D TOTAL     ACCESS:   49802407  HIT:   45250487  MISS:    4551920  HIT %:      90.86  MISS %:    9.13996   MPKI: 22.7596
L1D LOAD      ACCESS:   30679814  HIT:   26492339  MISS:    4187475  HIT %:     86.351  MISS %:     13.649   MPKI: 20.9374
L1D RFO       ACCESS:   19122593  HIT:   18758148  MISS:     364445  HIT %:    98.0942  MISS %:    1.90583   MPKI: 1.82222
L1D PREFETCH  REQUESTED:          0  ISSUED:          0  USEFUL:          0  USELESS:          0
L1D USEFUL LOAD PREFETCHES:          0 PREFETCH ISSUED TO LOWER LEVEL:          0  ACCURACY: -nan
L1D TIMELY PREFETCHES:          0 LATE PREFETCHES: 0 DROPPED PREFETCHES: 0
L1D PREFETCHES SAME FILL-ORIGIN LEVEL: 0 DIFFERENT FILL-ORIGIN LEVEL: 0
L1D AVERAGE MISS LATENCY: 22.7015 cycles
L1D RQ	ACCESS:   44599168	FORWARD:          0	MERGED:   13633571	TO_CACHE:   30759078
L1D WQ	ACCESS:   19787120	FORWARD:     206519	MERGED:     262902	TO_CACHE:   19524218

L1D UNIQUE REGIONS ACCESSED: 0
L1D REGIONS CONFLICTS: 0
L1D Cross Page Prefetch Requests: 0
L1D Same Page Prefetch Requests: 0
L1D ROI Sum of L1D PQ occupancy: 0
L1D PREFETCHES PUSHED FROM L2C: 0
L1I TOTAL     ACCESS:   37986916  HIT:   33249752  MISS:    4737164  HIT %:    87.5295  MISS %:    12.4705   MPKI: 23.6858
L1I LOAD      ACCESS:   37986916  HIT:   33249752  MISS:    4737164  HIT %:    87.5295  MISS %:    12.4705   MPKI: 23.6858
L1I PREFETCH  REQUESTED:          0  ISSUED:          0  USEFUL:          0  USELESS:          0
L1I USEFUL LOAD PREFETCHES:          0 PREFETCH ISSUED TO LOWER LEVEL:          0  ACCURACY: -nan
L1I TIMELY PREFETCHES:          0 LATE PREFETCHES: 0 DROPPED PREFETCHES: 0
L1I PREFETCHES SAME FILL-ORIGIN LEVEL: 0 DIFFERENT FILL-ORIGIN LEVEL: 0
L1I AVERAGE MISS LATENCY: 28.6014 cycles
L1I RQ	ACCESS:   58894335	FORWARD:          0	MERGED:   19364736	TO_CACHE:   39529599

BTB TOTAL     ACCESS:   24868891  HIT:   19988027  MISS:    4880864  HIT %:    80.3736  MISS %:    19.6264   MPKI: 24.4043
BTB BRANCH_DIRECT_JUMP	ACCESS:    1753351  HIT:    1473058  MISS:     280293
BTB BRANCH_INDIRECT	ACCESS:   11709257  HIT:    9373220  MISS:    2336037
BTB BRANCH_CONDITIONAL	ACCESS:    4650053  HIT:    4206572  MISS:     443481
BTB BRANCH_DIRECT_CALL	ACCESS:    2659359  HIT:    2113070  MISS:     546289
BTB BRANCH_INDIRECT_CALL	ACCESS:     715231  HIT:     659865  MISS:      55366
BTB BRANCH_RETURN	ACCESS:    3381640  HIT:    2162242  MISS:    1219398
BTB BRANCH_OTHER ACCESS:          0  HIT:          0  MISS:          0

L2C TOTAL     ACCESS:   12162249  HIT:    8337682  MISS:    3824567  HIT %:    68.5538  MISS %:    31.4462   MPKI: 19.1228
L2C LOAD      ACCESS:    8924502  HIT:    6160195  MISS:    2764307  HIT %:    69.0256  MISS %:    30.9744   MPKI: 13.8215
L2C DATA LOAD MPKI: 2.6504
L2C INSTRUCTION LOAD MPKI: 11.1711
L2C RFO       ACCESS:     364445  HIT:     192556  MISS:     171889  HIT %:    52.8354  MISS %:    47.1646   MPKI: 0.859445
L2C PREFETCH  ACCESS:    1342328  HIT:     715307  MISS:     627021  HIT %:    53.2885  MISS %:    46.7115   MPKI: 3.1351
AGUS PREFETCH L1 MISS: 0
L2C DATA PREFETCH MPKI: 3.1351
L2C INSTRUCTION PREFETCH MPKI: 0
L2C WRITEBACK ACCESS:     969981  HIT:     928923  MISS:      41058  HIT %:    95.7671  MISS %:    4.23287   MPKI: 0.20529
L2C LOAD TRANSLATION ACCESS:     560993  HIT:     340701  MISS:     220292  HIT %:    60.7318  MISS %:    39.2682   MPKI: 1.10146
L2C PREFETCH  REQUESTED:    1394223  ISSUED:    1394223  USEFUL:     483896  USELESS:     143131
L2C USEFUL LOAD PREFETCHES:     483896 PREFETCH ISSUED TO LOWER LEVEL:     639535  ACCURACY: 75.6637
L2C TIMELY PREFETCHES:     483896 LATE PREFETCHES: 12512 DROPPED PREFETCHES: 0
L2C PREFETCHES SAME FILL-ORIGIN LEVEL: 639535 DIFFERENT FILL-ORIGIN LEVEL: 0
L2C AVERAGE MISS LATENCY: 41.0027 cycles
L2C RQ	ACCESS:    9850080	FORWARD:          0	MERGED:          0	TO_CACHE:    9849942
L2C WQ	ACCESS:     969981	FORWARD:        138	MERGED:          0	TO_CACHE:     969981
L2C PQ	ACCESS:    1394223	FORWARD:          0	MERGED:          0	TO_CACHE:    1394223

L2C Instructions Evicting Data 794922
L2C Translations Evicting Data 81284
L2C Data Evicting Data 476485
L2C Instructions Evicting Instructions 1313322
L2C Translations Evicting Instructions 126623
L2C Data Evicting Instructions 772767
L2C Instructions Evicting Translations 125984
L2C Translations Evicting Translations 12385
L2C Data Evicting Translations 79737
L2C Dense regions hint from L2: 0
PSCL5 TOTAL     ACCESS:     442879  HIT:     442879  MISS:          0  HIT %:        100  MISS %:          0   MPKI: 0
PSCL5 LOAD TRANSLATION ACCESS:     442879  HIT:     442879  MISS:          0  HIT %:        100  MISS %:          0   MPKI: 0
PSCL5 PREFETCH  REQUESTED:          0  ISSUED:          0  USEFUL:          0  USELESS:          0
PSCL5 USEFUL LOAD PREFETCHES:          0 PREFETCH ISSUED TO LOWER LEVEL:          0  ACCURACY: -nan
PSCL5 TIMELY PREFETCHES:          0 LATE PREFETCHES: 0 DROPPED PREFETCHES: 0
PSCL5 PREFETCHES SAME FILL-ORIGIN LEVEL: 0 DIFFERENT FILL-ORIGIN LEVEL: 0

PSCL4 TOTAL     ACCESS:     405130  HIT:     404043  MISS:       1087  HIT %:    99.7317  MISS %:   0.268309   MPKI: 0.005435
PSCL4 LOAD TRANSLATION ACCESS:     405130  HIT:     404043  MISS:       1087  HIT %:    99.7317  MISS %:   0.268309   MPKI: 0.005435
PSCL4 PREFETCH  REQUESTED:          0  ISSUED:          0  USEFUL:          0  USELESS:          0
PSCL4 USEFUL LOAD PREFETCHES:          0 PREFETCH ISSUED TO LOWER LEVEL:          0  ACCURACY: -nan
PSCL4 TIMELY PREFETCHES:          0 LATE PREFETCHES: 0 DROPPED PREFETCHES: 0
PSCL4 PREFETCHES SAME FILL-ORIGIN LEVEL: 0 DIFFERENT FILL-ORIGIN LEVEL: 0

PSCL3 TOTAL     ACCESS:     439281  HIT:     435750  MISS:       3531  HIT %:    99.1962  MISS %:   0.803814   MPKI: 0.017655
PSCL3 LOAD TRANSLATION ACCESS:     439281  HIT:     435750  MISS:       3531  HIT %:    99.1962  MISS %:   0.803814   MPKI: 0.017655
PSCL3 PREFETCH  REQUESTED:          0  ISSUED:          0  USEFUL:          0  USELESS:          0
PSCL3 USEFUL LOAD PREFETCHES:          0 PREFETCH ISSUED TO LOWER LEVEL:          0  ACCURACY: -nan
PSCL3 TIMELY PREFETCHES:          0 LATE PREFETCHES: 0 DROPPED PREFETCHES: 0
PSCL3 PREFETCHES SAME FILL-ORIGIN LEVEL: 0 DIFFERENT FILL-ORIGIN LEVEL: 0

PSCL2 TOTAL     ACCESS:     442879  HIT:     329340  MISS:     113539  HIT %:    74.3634  MISS %:    25.6366   MPKI: 0.567695
PSCL2 LOAD TRANSLATION ACCESS:     442879  HIT:     329340  MISS:     113539  HIT %:    74.3634  MISS %:    25.6366   MPKI: 0.567695
PSCL2 PREFETCH  REQUESTED:          0  ISSUED:          0  USEFUL:          0  USELESS:          0
PSCL2 USEFUL LOAD PREFETCHES:          0 PREFETCH ISSUED TO LOWER LEVEL:          0  ACCURACY: -nan
PSCL2 TIMELY PREFETCHES:          0 LATE PREFETCHES: 0 DROPPED PREFETCHES: 0
PSCL2 PREFETCHES SAME FILL-ORIGIN LEVEL: 0 DIFFERENT FILL-ORIGIN LEVEL: 0

LLC TOTAL     ACCESS:    4261209  HIT:    4010365  MISS:     250844  HIT %:    94.1133  MISS %:    5.88669   MPKI: 1.25422
LLC LOAD      ACCESS:    2751838  HIT:    2693437  MISS:      58401  HIT %:    97.8777  MISS %:    2.12225   MPKI: 0.292005
LLC RFO       ACCESS:     171845  HIT:     136946  MISS:      34899  HIT %:    79.6916  MISS %:    20.3084   MPKI: 0.174495
LLC PREFETCH  ACCESS:     639533  HIT:     487599  MISS:     151934  HIT %:     76.243  MISS %:     23.757   MPKI: 0.75967
AGUS PREFETCH L1 MISS: 0
LLC WRITEBACK ACCESS:     477701  HIT:     475878  MISS:       1823  HIT %:    99.6184  MISS %:   0.381619   MPKI: 0.009115
LLC LOAD TRANSLATION ACCESS:     220292  HIT:     216505  MISS:       3787  HIT %:    98.2809  MISS %:    1.71908   MPKI: 0.018935
LLC PREFETCH  REQUESTED:          0  ISSUED:          0  USEFUL:       8001  USELESS:     142100
LLC USEFUL LOAD PREFETCHES:       8001 PREFETCH ISSUED TO LOWER LEVEL:     151934  ACCURACY: 5.2661
LLC TIMELY PREFETCHES:       8001 LATE PREFETCHES: 0 DROPPED PREFETCHES: 0
LLC PREFETCHES SAME FILL-ORIGIN LEVEL: 0 DIFFERENT FILL-ORIGIN LEVEL: 0
LLC AVERAGE MISS LATENCY: 173.365 cycles
LLC RQ	ACCESS:    3143977	FORWARD:          0	MERGED:          0	TO_CACHE:    3143976
LLC WQ	ACCESS:     477701	FORWARD:          1	MERGED:          0	TO_CACHE:     477701
LLC PQ	ACCESS:     639535	FORWARD:          0	MERGED:          0	TO_CACHE:     639535

LLC Dense regions hint to LLC: 0

RAW hits: 2476231
Loads Generated: 47075399
Loads sent to L1D: 44599168
Stores Generated: 19787116
Stores sent to L1D: 19787120
Major fault: 0 Minor fault: 5910
Allocated PAGES: 5910
[Bingo] PHT Access: 790642
[Bingo] PHT Hit PC+Addr: 387433
[Bingo] PHT Hit PC+Offs: 43578
[Bingo] PHT Miss: 359631
[Bingo] Prefetch PC+Addr: 0
[Bingo] Prefetch PC+Offs: 0
[Bingo] Useful PC+Addr: 0
[Bingo] Useful PC+Offs: 0
[Bingo] Useless PC+Addr: 0
[Bingo] Useless PC+Offs: 0
[Bingo] L1 Prefetch per Region: 0
[Bingo] L2 Prefetch per Region: 4.25628
[Bingo] L3 Prefetch per Region: 0
[Bingo] No Prefetch per Region: 27.7437
[Bingo] Number of Voters Mean: 3.02802
[Bingo] Number of Voters SD: 3.72486
PHT read accesses: 6031739
PHT write accesses: 315204
AT read accesses: 3432811
AT write accesses: 3658983
FT read accesses: 1075488
FT write accesses: 790642
PS read accesses: 877939
PS write accesses: 431011
PHT tag read accesses: 12794200
PHT tag write accesses: 702637
AT tag read accesses: 142651790
AT tag write accesses: 3748016
FT tag read accesses: 107526341
FT tag write accesses: 1498007
PS tag read accesses: 82857704
PS tag write accesses: 1308048

DRAM Statistics
 CHANNEL 0
 RQ ROW_BUFFER_HIT:      85165  ROW_BUFFER_MISS:     163849
 DBUS_CONGESTED:         84
 WQ ROW_BUFFER_HIT:      18495  ROW_BUFFER_MISS:     178596  FULL:          0

 AVG_CONGESTED_CYCLE: 4
 All warmup complete: 2
Channel 0 Bank busy for read cycles: 0
Channel 0 Bank busy for write cycles: 0
Channel 0
Rank 0
0banks busy for read cycles: 463036958
0banks busy for write cycles: 47956
1banks busy for read cycles: 8179624
1banks busy for write cycles: 5508393
2banks busy for read cycles: 1485512
2banks busy for write cycles: 1612678
3banks busy for read cycles: 553403
3banks busy for write cycles: 821116
4banks busy for read cycles: 350388
4banks busy for write cycles: 590664
5banks busy for read cycles: 248222
5banks busy for write cycles: 490739
6banks busy for read cycles: 241341
6banks busy for write cycles: 462337
7banks busy for read cycles: 369780
7banks busy for write cycles: 568239
8banks busy for read cycles: 1169918
8banks busy for write cycles: 1056953

CPU 0 Branch Prediction Accuracy: 99.7971% MPKI: 0.38142 Average ROB Occupancy at Mispredict: 27.7292
Branch types
NOT_BRANCH: 162402318 81.2012%
BRANCH_DIRECT_JUMP: 1753351 0.876676%
BRANCH_INDIRECT: 11709257 5.85463%
BRANCH_CONDITIONAL: 17378503 8.68925%
BRANCH_DIRECT_CALL: 2659359 1.32968%
BRANCH_INDIRECT_CALL: 715231 0.357615%
BRANCH_RETURN: 3381640 1.69082%
BRANCH_OTHER: 0 0%

DRAM PAGES: 1048576
Allocated PAGES: 5910
