
*** ChampSim Multicore Out-of-Order Simulator ***

Warmup Instructions: 50000000
Simulation Instructions: 200000000
Number of CPUs: 1
LLC sets: 2048
LLC ways: 16
Off-chip DRAM Size: 4096 MB Channels: 1 Width: 64-bit Data Rate: 6400 MT/s
CPU 0 runs traces/spec2k17/server_037.champsimtrace.xz
.xz
BTB has LRU replacement policy
ITLB has LRU replacement policy
DTLB has LRU replacement policy
STLB has LRU replacement policy
L1I has LRU replacement policy
L1D has LRU replacement policy
Bingo PHT WAYS: 16 and PHT_SIZE: 16384
Initialize SRRIP state for L2C
Initialize DRRIP state for LLC
Heartbeat CPU 0 instructions: 10000002 cycles: 2785362 heartbeat IPC: 3.5902 cumulative IPC: 3.5902 (Simulation time: 0 hr 0 min 32 sec) 
Heartbeat CPU 0 instructions: 20000001 cycles: 5568349 heartbeat IPC: 3.59326 cumulative IPC: 3.59173 (Simulation time: 0 hr 1 min 3 sec) 
Heartbeat CPU 0 instructions: 30000002 cycles: 8355210 heartbeat IPC: 3.58827 cumulative IPC: 3.59057 (Simulation time: 0 hr 1 min 35 sec) 
Heartbeat CPU 0 instructions: 40000001 cycles: 11138395 heartbeat IPC: 3.59301 cumulative IPC: 3.59118 (Simulation time: 0 hr 2 min 8 sec) 
Heartbeat CPU 0 instructions: 50000001 cycles: 13921368 heartbeat IPC: 3.59328 cumulative IPC: 3.5916 (Simulation time: 0 hr 2 min 39 sec) 

Warmup complete CPU 0 instructions: 50000001 cycles: 13921368 (Simulation time: 0 hr 2 min 39 sec) 

Heartbeat CPU 0 instructions: 60000000 cycles: 33866444 heartbeat IPC: 0.501377 cumulative IPC: 0.501377 (Simulation time: 0 hr 3 min 32 sec) 
Heartbeat CPU 0 instructions: 70000001 cycles: 53972348 heartbeat IPC: 0.497366 cumulative IPC: 0.499364 (Simulation time: 0 hr 4 min 24 sec) 
Heartbeat CPU 0 instructions: 80000003 cycles: 73830796 heartbeat IPC: 0.503564 cumulative IPC: 0.500756 (Simulation time: 0 hr 5 min 13 sec) 
Heartbeat CPU 0 instructions: 90000001 cycles: 93694003 heartbeat IPC: 0.503443 cumulative IPC: 0.501425 (Simulation time: 0 hr 6 min 15 sec) 
*** Reached end of trace for Core: 0 Repeating trace: traces/spec2k17/server_037.champsimtrace.xz
Heartbeat CPU 0 instructions: 100000000 cycles: 113598246 heartbeat IPC: 0.502405 cumulative IPC: 0.501621 (Simulation time: 0 hr 7 min 7 sec) 
Heartbeat CPU 0 instructions: 110000000 cycles: 133404499 heartbeat IPC: 0.504891 cumulative IPC: 0.502163 (Simulation time: 0 hr 7 min 56 sec) 
Heartbeat CPU 0 instructions: 120000002 cycles: 153213088 heartbeat IPC: 0.504832 cumulative IPC: 0.502542 (Simulation time: 0 hr 8 min 48 sec) 
Heartbeat CPU 0 instructions: 130000003 cycles: 172580070 heartbeat IPC: 0.516343 cumulative IPC: 0.504227 (Simulation time: 0 hr 9 min 40 sec) 
Heartbeat CPU 0 instructions: 140000000 cycles: 192445350 heartbeat IPC: 0.503391 cumulative IPC: 0.504134 (Simulation time: 0 hr 10 min 32 sec) 
Heartbeat CPU 0 instructions: 150000000 cycles: 212339514 heartbeat IPC: 0.50266 cumulative IPC: 0.503986 (Simulation time: 0 hr 11 min 24 sec) 
Heartbeat CPU 0 instructions: 160000001 cycles: 232176104 heartbeat IPC: 0.504119 cumulative IPC: 0.503998 (Simulation time: 0 hr 12 min 18 sec) 
Heartbeat CPU 0 instructions: 170000000 cycles: 252172838 heartbeat IPC: 0.500082 cumulative IPC: 0.50367 (Simulation time: 0 hr 13 min 12 sec) 
Heartbeat CPU 0 instructions: 180000001 cycles: 272000834 heartbeat IPC: 0.504337 cumulative IPC: 0.503721 (Simulation time: 0 hr 14 min 1 sec) 
Heartbeat CPU 0 instructions: 190000002 cycles: 291833849 heartbeat IPC: 0.50421 cumulative IPC: 0.503756 (Simulation time: 0 hr 14 min 56 sec) 
*** Reached end of trace for Core: 0 Repeating trace: traces/spec2k17/server_037.champsimtrace.xz
Heartbeat CPU 0 instructions: 200000000 cycles: 311692557 heartbeat IPC: 0.503557 cumulative IPC: 0.503742 (Simulation time: 0 hr 15 min 45 sec) 
Heartbeat CPU 0 instructions: 210000000 cycles: 331478786 heartbeat IPC: 0.505402 cumulative IPC: 0.503846 (Simulation time: 0 hr 16 min 39 sec) 
Heartbeat CPU 0 instructions: 220000000 cycles: 351283451 heartbeat IPC: 0.504932 cumulative IPC: 0.50391 (Simulation time: 0 hr 17 min 31 sec) 
Heartbeat CPU 0 instructions: 230000001 cycles: 370642865 heartbeat IPC: 0.516545 cumulative IPC: 0.504595 (Simulation time: 0 hr 18 min 21 sec) 
Heartbeat CPU 0 instructions: 240000000 cycles: 390504762 heartbeat IPC: 0.503477 cumulative IPC: 0.504536 (Simulation time: 0 hr 19 min 14 sec) 
Heartbeat CPU 0 instructions: 250000001 cycles: 410400535 heartbeat IPC: 0.502619 cumulative IPC: 0.50444 (Simulation time: 0 hr 20 min 7 sec) 
Finished CPU 0 instructions: 200000000 cycles: 396479167 cumulative IPC: 0.50444 (Simulation time: 0 hr 20 min 7 sec) 

ChampSim completed all CPUs

Region of Interest Statistics

CPU 0 cumulative IPC: 0.50444 instructions: 200000000 cycles: 396479167
ITLB TOTAL     ACCESS:   35154913  HIT:   32678653  MISS:    2476260  HIT %:    92.9561  MISS %:    7.04385   MPKI: 12.3813
ITLB LOAD TRANSLATION ACCESS:   35154913  HIT:   32678653  MISS:    2476260  HIT %:    92.9561  MISS %:    7.04385   MPKI: 12.3813
ITLB PREFETCH  REQUESTED:          0  ISSUED:          0  USEFUL:          0  USELESS:          0
ITLB USEFUL LOAD PREFETCHES:          0 PREFETCH ISSUED TO LOWER LEVEL:          0  ACCURACY: -nan
ITLB TIMELY PREFETCHES:          0 LATE PREFETCHES: 0 DROPPED PREFETCHES: 0
ITLB PREFETCHES SAME FILL-ORIGIN LEVEL: 0 DIFFERENT FILL-ORIGIN LEVEL: 0
ITLB AVERAGE MISS LATENCY: 9.02268 cycles
ITLB RQ	ACCESS:   41397942	FORWARD:          0	MERGED:    5434233	TO_CACHE:   35963709

DTLB TOTAL     ACCESS:   40088561  HIT:   38083101  MISS:    2005460  HIT %:    94.9974  MISS %:    5.00257   MPKI: 10.0273
DTLB LOAD TRANSLATION ACCESS:   40088561  HIT:   38083101  MISS:    2005460  HIT %:    94.9974  MISS %:    5.00257   MPKI: 10.0273
DTLB PREFETCH  REQUESTED:          0  ISSUED:          0  USEFUL:          0  USELESS:          0
DTLB USEFUL LOAD PREFETCHES:          0 PREFETCH ISSUED TO LOWER LEVEL:          0  ACCURACY: -nan
DTLB TIMELY PREFETCHES:          0 LATE PREFETCHES: 0 DROPPED PREFETCHES: 0
DTLB PREFETCHES SAME FILL-ORIGIN LEVEL: 0 DIFFERENT FILL-ORIGIN LEVEL: 0
DTLB AVERAGE MISS LATENCY: 9.6772 cycles
DTLB RQ	ACCESS:   55840478	FORWARD:          0	MERGED:   15596837	TO_CACHE:   40243641

STLB TOTAL     ACCESS:    4481719  HIT:    4458923  MISS:      22796  HIT %:    99.4914  MISS %:   0.508644   MPKI: 0.11398
STLB LOAD TRANSLATION ACCESS:    4481719  HIT:    4458923  MISS:      22796  HIT %:    99.4914  MISS %:   0.508644   MPKI: 0.11398
STLB PREFETCH  REQUESTED:          0  ISSUED:          0  USEFUL:          0  USELESS:          0
STLB USEFUL LOAD PREFETCHES:          0 PREFETCH ISSUED TO LOWER LEVEL:          0  ACCURACY: -nan
STLB TIMELY PREFETCHES:          0 LATE PREFETCHES: 0 DROPPED PREFETCHES: 0
STLB PREFETCHES SAME FILL-ORIGIN LEVEL: 0 DIFFERENT FILL-ORIGIN LEVEL: 0
STLB AVERAGE MISS LATENCY: 61.1074 cycles
STLB RQ	ACCESS:    4481719	FORWARD:          0	MERGED:          0	TO_CACHE:    4481719

STLB Hit, L1D data hit: 0
STLB Hit, L2C data hit: 0
STLB Hit, LLC data hit: 0
STLB Hit, LLC data miss: 0
STLB STLB hints to L2: 0
L1D TOTAL     ACCESS:   55445557  HIT:   53768229  MISS:    1677328  HIT %:    96.9748  MISS %:    3.02518   MPKI: 8.38664
L1D LOAD      ACCESS:   31335238  HIT:   29908867  MISS:    1426371  HIT %:     95.448  MISS %:    4.55197   MPKI: 7.13185
L1D RFO       ACCESS:   24110319  HIT:   23859362  MISS:     250957  HIT %:    98.9591  MISS %:    1.04087   MPKI: 1.25479
L1D PREFETCH  REQUESTED:          0  ISSUED:          0  USEFUL:          0  USELESS:          0
L1D USEFUL LOAD PREFETCHES:          0 PREFETCH ISSUED TO LOWER LEVEL:          0  ACCURACY: -nan
L1D TIMELY PREFETCHES:          0 LATE PREFETCHES: 0 DROPPED PREFETCHES: 0
L1D PREFETCHES SAME FILL-ORIGIN LEVEL: 0 DIFFERENT FILL-ORIGIN LEVEL: 0
L1D AVERAGE MISS LATENCY: 26.043 cycles
L1D RQ	ACCESS:   45906825	FORWARD:          0	MERGED:   14236044	TO_CACHE:   31414916
L1D WQ	ACCESS:   24616487	FORWARD:     255865	MERGED:     190925	TO_CACHE:   24425562

L1D UNIQUE REGIONS ACCESSED: 0
L1D REGIONS CONFLICTS: 0
L1D Cross Page Prefetch Requests: 0
L1D Same Page Prefetch Requests: 0
L1D ROI Sum of L1D PQ occupancy: 0
L1D PREFETCHES PUSHED FROM L2C: 0
L1I TOTAL     ACCESS:   37477312  HIT:   22149810  MISS:   15327502  HIT %:    59.1019  MISS %:    40.8981   MPKI: 76.6375
L1I LOAD      ACCESS:   37477312  HIT:   22149810  MISS:   15327502  HIT %:    59.1019  MISS %:    40.8981   MPKI: 76.6375
L1I PREFETCH  REQUESTED:          0  ISSUED:          0  USEFUL:          0  USELESS:          0
L1I USEFUL LOAD PREFETCHES:          0 PREFETCH ISSUED TO LOWER LEVEL:          0  ACCURACY: -nan
L1I TIMELY PREFETCHES:          0 LATE PREFETCHES: 0 DROPPED PREFETCHES: 0
L1I PREFETCHES SAME FILL-ORIGIN LEVEL: 0 DIFFERENT FILL-ORIGIN LEVEL: 0
L1I AVERAGE MISS LATENCY: 14.1607 cycles
L1I RQ	ACCESS:   62434212	FORWARD:          0	MERGED:   21036270	TO_CACHE:   41397942

BTB TOTAL     ACCESS:   28200156  HIT:   24637368  MISS:    3562788  HIT %:    87.3661  MISS %:    12.6339   MPKI: 17.8139
BTB BRANCH_DIRECT_JUMP	ACCESS:    2065529  HIT:    1955055  MISS:     110474
BTB BRANCH_INDIRECT	ACCESS:   12547706  HIT:   11310984  MISS:    1236722
BTB BRANCH_CONDITIONAL	ACCESS:    4129025  HIT:    4013332  MISS:     115693
BTB BRANCH_DIRECT_CALL	ACCESS:    3836283  HIT:    3585253  MISS:     251030
BTB BRANCH_INDIRECT_CALL	ACCESS:     892681  HIT:     717749  MISS:     174932
BTB BRANCH_RETURN	ACCESS:    4728932  HIT:    3054995  MISS:    1673937
BTB BRANCH_OTHER ACCESS:          0  HIT:          0  MISS:          0

L2C TOTAL     ACCESS:   18889404  HIT:   18219759  MISS:     669645  HIT %:    96.4549  MISS %:    3.54508   MPKI: 3.34822
L2C LOAD      ACCESS:   16753854  HIT:   16511726  MISS:     242128  HIT %:    98.5548  MISS %:    1.44521   MPKI: 1.21064
L2C DATA LOAD MPKI: 1.04942
L2C INSTRUCTION LOAD MPKI: 0.16122
L2C RFO       ACCESS:     250957  HIT:     135309  MISS:     115648  HIT %:    53.9172  MISS %:    46.0828   MPKI: 0.57824
L2C PREFETCH  ACCESS:     965310  HIT:     688564  MISS:     276746  HIT %:    71.3309  MISS %:    28.6691   MPKI: 1.38373
AGUS PREFETCH L1 MISS: 0
L2C DATA PREFETCH MPKI: 1.38373
L2C INSTRUCTION PREFETCH MPKI: 0
L2C WRITEBACK ACCESS:     887707  HIT:     871994  MISS:      15713  HIT %:    98.2299  MISS %:    1.77007   MPKI: 0.078565
L2C LOAD TRANSLATION ACCESS:      31576  HIT:      12166  MISS:      19410  HIT %:    38.5293  MISS %:    61.4707   MPKI: 0.09705
L2C PREFETCH  REQUESTED:    1010149  ISSUED:    1010149  USEFUL:     227727  USELESS:      49000
L2C USEFUL LOAD PREFETCHES:     227727 PREFETCH ISSUED TO LOWER LEVEL:     283518  ACCURACY: 80.3219
L2C TIMELY PREFETCHES:     227727 LATE PREFETCHES: 6772 DROPPED PREFETCHES: 0
L2C PREFETCHES SAME FILL-ORIGIN LEVEL: 283518 DIFFERENT FILL-ORIGIN LEVEL: 0
L2C AVERAGE MISS LATENCY: 53.6971 cycles
L2C RQ	ACCESS:   17036407	FORWARD:          0	MERGED:          0	TO_CACHE:   17036388
L2C WQ	ACCESS:     887707	FORWARD:         19	MERGED:          0	TO_CACHE:     887707
L2C PQ	ACCESS:    1010149	FORWARD:          0	MERGED:          0	TO_CACHE:    1010149

L2C Instructions Evicting Data 29545
L2C Translations Evicting Data 17450
L2C Data Evicting Data 556386
L2C Instructions Evicting Instructions 1809
L2C Translations Evicting Instructions 978
L2C Data Evicting Instructions 28597
L2C Instructions Evicting Translations 890
L2C Translations Evicting Translations 982
L2C Data Evicting Translations 17295
L2C Dense regions hint from L2: 0
PSCL5 TOTAL     ACCESS:      22796  HIT:      22796  MISS:          0  HIT %:        100  MISS %:          0   MPKI: 0
PSCL5 LOAD TRANSLATION ACCESS:      22796  HIT:      22796  MISS:          0  HIT %:        100  MISS %:          0   MPKI: 0
PSCL5 PREFETCH  REQUESTED:          0  ISSUED:          0  USEFUL:          0  USELESS:          0
PSCL5 USEFUL LOAD PREFETCHES:          0 PREFETCH ISSUED TO LOWER LEVEL:          0  ACCURACY: -nan
PSCL5 TIMELY PREFETCHES:          0 LATE PREFETCHES: 0 DROPPED PREFETCHES: 0
PSCL5 PREFETCHES SAME FILL-ORIGIN LEVEL: 0 DIFFERENT FILL-ORIGIN LEVEL: 0

PSCL4 TOTAL     ACCESS:      22679  HIT:      22659  MISS:         20  HIT %:    99.9118  MISS %:  0.0881873   MPKI: 0.0001
PSCL4 LOAD TRANSLATION ACCESS:      22679  HIT:      22659  MISS:         20  HIT %:    99.9118  MISS %:  0.0881873   MPKI: 0.0001
PSCL4 PREFETCH  REQUESTED:          0  ISSUED:          0  USEFUL:          0  USELESS:          0
PSCL4 USEFUL LOAD PREFETCHES:          0 PREFETCH ISSUED TO LOWER LEVEL:          0  ACCURACY: -nan
PSCL4 TIMELY PREFETCHES:          0 LATE PREFETCHES: 0 DROPPED PREFETCHES: 0
PSCL4 PREFETCHES SAME FILL-ORIGIN LEVEL: 0 DIFFERENT FILL-ORIGIN LEVEL: 0

PSCL3 TOTAL     ACCESS:      22700  HIT:      22575  MISS:        125  HIT %:    99.4493  MISS %:   0.550661   MPKI: 0.000625
PSCL3 LOAD TRANSLATION ACCESS:      22700  HIT:      22575  MISS:        125  HIT %:    99.4493  MISS %:   0.550661   MPKI: 0.000625
PSCL3 PREFETCH  REQUESTED:          0  ISSUED:          0  USEFUL:          0  USELESS:          0
PSCL3 USEFUL LOAD PREFETCHES:          0 PREFETCH ISSUED TO LOWER LEVEL:          0  ACCURACY: -nan
PSCL3 TIMELY PREFETCHES:          0 LATE PREFETCHES: 0 DROPPED PREFETCHES: 0
PSCL3 PREFETCHES SAME FILL-ORIGIN LEVEL: 0 DIFFERENT FILL-ORIGIN LEVEL: 0

PSCL2 TOTAL     ACCESS:      22796  HIT:      14134  MISS:       8662  HIT %:    62.0021  MISS %:    37.9979   MPKI: 0.04331
PSCL2 LOAD TRANSLATION ACCESS:      22796  HIT:      14134  MISS:       8662  HIT %:    62.0021  MISS %:    37.9979   MPKI: 0.04331
PSCL2 PREFETCH  REQUESTED:          0  ISSUED:          0  USEFUL:          0  USELESS:          0
PSCL2 USEFUL LOAD PREFETCHES:          0 PREFETCH ISSUED TO LOWER LEVEL:          0  ACCURACY: -nan
PSCL2 TIMELY PREFETCHES:          0 LATE PREFETCHES: 0 DROPPED PREFETCHES: 0
PSCL2 PREFETCHES SAME FILL-ORIGIN LEVEL: 0 DIFFERENT FILL-ORIGIN LEVEL: 0

LLC TOTAL     ACCESS:     986765  HIT:     884716  MISS:     102049  HIT %:    89.6582  MISS %:    10.3418   MPKI: 0.510245
LLC LOAD      ACCESS:     235450  HIT:     199169  MISS:      36281  HIT %:    84.5908  MISS %:    15.4092   MPKI: 0.181405
LLC RFO       ACCESS:     115553  HIT:      99393  MISS:      16160  HIT %:    86.0151  MISS %:    13.9849   MPKI: 0.0808
LLC PREFETCH  ACCESS:     283516  HIT:     235188  MISS:      48328  HIT %:     82.954  MISS %:     17.046   MPKI: 0.24164
AGUS PREFETCH L1 MISS: 0
LLC WRITEBACK ACCESS:     332836  HIT:     332208  MISS:        628  HIT %:    99.8113  MISS %:   0.188682   MPKI: 0.00314
LLC LOAD TRANSLATION ACCESS:      19410  HIT:      18758  MISS:        652  HIT %:    96.6409  MISS %:    3.35909   MPKI: 0.00326
LLC PREFETCH  REQUESTED:          0  ISSUED:          0  USEFUL:       1682  USELESS:      44768
LLC USEFUL LOAD PREFETCHES:       1682 PREFETCH ISSUED TO LOWER LEVEL:      48328  ACCURACY: 3.48038
LLC TIMELY PREFETCHES:       1682 LATE PREFETCHES: 0 DROPPED PREFETCHES: 0
LLC PREFETCHES SAME FILL-ORIGIN LEVEL: 0 DIFFERENT FILL-ORIGIN LEVEL: 0
LLC AVERAGE MISS LATENCY: 163.034 cycles
LLC RQ	ACCESS:     370414	FORWARD:          0	MERGED:          0	TO_CACHE:     370413
LLC WQ	ACCESS:     332836	FORWARD:          3	MERGED:          0	TO_CACHE:     332836
LLC PQ	ACCESS:     283518	FORWARD:          0	MERGED:          0	TO_CACHE:     283516

LLC Dense regions hint to LLC: 0

RAW hits: 2055492
Loads Generated: 47962317
Loads sent to L1D: 45906825
Stores Generated: 24616492
Stores sent to L1D: 24616487
Major fault: 0 Minor fault: 5878
Allocated PAGES: 5878
[Bingo] PHT Access: 258810
[Bingo] PHT Hit PC+Addr: 127724
[Bingo] PHT Hit PC+Offs: 67251
[Bingo] PHT Miss: 63835
[Bingo] Prefetch PC+Addr: 0
[Bingo] Prefetch PC+Offs: 0
[Bingo] Useful PC+Addr: 0
[Bingo] Useful PC+Offs: 0
[Bingo] Useless PC+Addr: 0
[Bingo] Useless PC+Offs: 0
[Bingo] L1 Prefetch per Region: 0
[Bingo] L2 Prefetch per Region: 6.37627
[Bingo] L3 Prefetch per Region: 0
[Bingo] No Prefetch per Region: 25.6237
[Bingo] Number of Voters Mean: 11.6125
[Bingo] Number of Voters SD: 8.64705
PHT read accesses: 1713616
PHT write accesses: 148116
AT read accesses: 1120638
AT write accesses: 1199145
FT read accesses: 695832
FT write accesses: 258810
PS read accesses: 492723
PS write accesses: 194975
PHT tag read accesses: 5692700
PHT tag write accesses: 275840
AT tag read accesses: 40119021
AT tag write accesses: 1268753
FT tag read accesses: 28494019
FT tag write accesses: 690015
PS tag read accesses: 29301024
PS tag write accesses: 687309

DRAM Statistics
 CHANNEL 0
 RQ ROW_BUFFER_HIT:      33227  ROW_BUFFER_MISS:      68194
 DBUS_CONGESTED:         17
 WQ ROW_BUFFER_HIT:       2789  ROW_BUFFER_MISS:      29680  FULL:          0

 AVG_CONGESTED_CYCLE: 4
 All warmup complete: 2
Channel 0 Bank busy for read cycles: 0
Channel 0 Bank busy for write cycles: 0
Channel 0
Rank 0
0banks busy for read cycles: 385886214
0banks busy for write cycles: 20429
1banks busy for read cycles: 4126916
1banks busy for write cycles: 2860319
2banks busy for read cycles: 1488677
2banks busy for write cycles: 594305
3banks busy for read cycles: 781821
3banks busy for write cycles: 152613
4banks busy for read cycles: 136204
4banks busy for write cycles: 88010
5banks busy for read cycles: 53255
5banks busy for write cycles: 35479
6banks busy for read cycles: 60663
6banks busy for write cycles: 14631
7banks busy for read cycles: 46471
7banks busy for write cycles: 7839
8banks busy for read cycles: 118334
8banks busy for write cycles: 6988

CPU 0 Branch Prediction Accuracy: 99.974% MPKI: 0.044765 Average ROB Occupancy at Mispredict: 20.7195
Branch types
NOT_BRANCH: 165600942 82.8005%
BRANCH_DIRECT_JUMP: 2065529 1.03276%
BRANCH_INDIRECT: 12547706 6.27385%
BRANCH_CONDITIONAL: 10327907 5.16395%
BRANCH_DIRECT_CALL: 3836283 1.91814%
BRANCH_INDIRECT_CALL: 892681 0.44634%
BRANCH_RETURN: 4728932 2.36447%
BRANCH_OTHER: 0 0%

DRAM PAGES: 1048576
Allocated PAGES: 5878
