
*** ChampSim Multicore Out-of-Order Simulator ***

Warmup Instructions: 50000000
Simulation Instructions: 200000000
Number of CPUs: 1
LLC sets: 2048
LLC ways: 16
Off-chip DRAM Size: 4096 MB Channels: 1 Width: 64-bit Data Rate: 6400 MT/s
CPU 0 runs traces/spec2k17/server_030.champsimtrace.xz
.xz
BTB has LRU replacement policy
ITLB has LRU replacement policy
DTLB has LRU replacement policy
STLB has LRU replacement policy
L1I has LRU replacement policy
L1D has LRU replacement policy
Bingo PHT WAYS: 16 and PHT_SIZE: 16384
Initialize SRRIP state for L2C
Initialize DRRIP state for LLC
Heartbeat CPU 0 instructions: 10000003 cycles: 2859613 heartbeat IPC: 3.49698 cumulative IPC: 3.49698 (Simulation time: 0 hr 0 min 34 sec) 
Heartbeat CPU 0 instructions: 20000001 cycles: 5709911 heartbeat IPC: 3.5084 cumulative IPC: 3.50268 (Simulation time: 0 hr 1 min 8 sec) 
Heartbeat CPU 0 instructions: 30000002 cycles: 8561857 heartbeat IPC: 3.50638 cumulative IPC: 3.50391 (Simulation time: 0 hr 1 min 43 sec) 
Heartbeat CPU 0 instructions: 40000002 cycles: 11412176 heartbeat IPC: 3.50838 cumulative IPC: 3.50503 (Simulation time: 0 hr 2 min 17 sec) 
Heartbeat CPU 0 instructions: 50000000 cycles: 14263273 heartbeat IPC: 3.50742 cumulative IPC: 3.50551 (Simulation time: 0 hr 2 min 50 sec) 

Warmup complete CPU 0 instructions: 50000004 cycles: 14263274 (Simulation time: 0 hr 2 min 50 sec) 

Heartbeat CPU 0 instructions: 60000001 cycles: 47198448 heartbeat IPC: 0.303627 cumulative IPC: 0.303627 (Simulation time: 0 hr 3 min 44 sec) 
Heartbeat CPU 0 instructions: 70000000 cycles: 79994582 heartbeat IPC: 0.304914 cumulative IPC: 0.304269 (Simulation time: 0 hr 4 min 42 sec) 
Heartbeat CPU 0 instructions: 80000000 cycles: 112864458 heartbeat IPC: 0.30423 cumulative IPC: 0.304256 (Simulation time: 0 hr 5 min 58 sec) 
*** Reached end of trace for Core: 0 Repeating trace: traces/spec2k17/server_030.champsimtrace.xz
Heartbeat CPU 0 instructions: 90000000 cycles: 145642517 heartbeat IPC: 0.305082 cumulative IPC: 0.304462 (Simulation time: 0 hr 6 min 53 sec) 
Heartbeat CPU 0 instructions: 100000003 cycles: 178596149 heartbeat IPC: 0.303457 cumulative IPC: 0.30426 (Simulation time: 0 hr 7 min 46 sec) 
Heartbeat CPU 0 instructions: 110000000 cycles: 211397509 heartbeat IPC: 0.304865 cumulative IPC: 0.304361 (Simulation time: 0 hr 8 min 42 sec) 
Heartbeat CPU 0 instructions: 120000002 cycles: 244336912 heartbeat IPC: 0.303588 cumulative IPC: 0.30425 (Simulation time: 0 hr 9 min 39 sec) 
Heartbeat CPU 0 instructions: 130000003 cycles: 277226343 heartbeat IPC: 0.304049 cumulative IPC: 0.304225 (Simulation time: 0 hr 10 min 38 sec) 
Heartbeat CPU 0 instructions: 140000002 cycles: 310162362 heartbeat IPC: 0.303619 cumulative IPC: 0.304158 (Simulation time: 0 hr 11 min 34 sec) 
Heartbeat CPU 0 instructions: 150000002 cycles: 343010287 heartbeat IPC: 0.304433 cumulative IPC: 0.304185 (Simulation time: 0 hr 12 min 30 sec) 
Heartbeat CPU 0 instructions: 160000000 cycles: 375768342 heartbeat IPC: 0.305268 cumulative IPC: 0.304283 (Simulation time: 0 hr 13 min 27 sec) 
Heartbeat CPU 0 instructions: 170000000 cycles: 408576609 heartbeat IPC: 0.304801 cumulative IPC: 0.304327 (Simulation time: 0 hr 14 min 24 sec) 
*** Reached end of trace for Core: 0 Repeating trace: traces/spec2k17/server_030.champsimtrace.xz
Heartbeat CPU 0 instructions: 180000003 cycles: 441295732 heartbeat IPC: 0.305632 cumulative IPC: 0.304426 (Simulation time: 0 hr 15 min 20 sec) 
Heartbeat CPU 0 instructions: 190000002 cycles: 474255104 heartbeat IPC: 0.303404 cumulative IPC: 0.304353 (Simulation time: 0 hr 16 min 15 sec) 
Heartbeat CPU 0 instructions: 200000000 cycles: 507048751 heartbeat IPC: 0.304937 cumulative IPC: 0.304392 (Simulation time: 0 hr 17 min 6 sec) 
Heartbeat CPU 0 instructions: 210000000 cycles: 539950865 heartbeat IPC: 0.303932 cumulative IPC: 0.304363 (Simulation time: 0 hr 18 min 2 sec) 
Heartbeat CPU 0 instructions: 220000000 cycles: 572826100 heartbeat IPC: 0.30418 cumulative IPC: 0.304352 (Simulation time: 0 hr 18 min 58 sec) 
Heartbeat CPU 0 instructions: 230000000 cycles: 605715678 heartbeat IPC: 0.304048 cumulative IPC: 0.304336 (Simulation time: 0 hr 19 min 55 sec) 
Heartbeat CPU 0 instructions: 240000002 cycles: 638518265 heartbeat IPC: 0.304854 cumulative IPC: 0.304363 (Simulation time: 0 hr 20 min 54 sec) 
Heartbeat CPU 0 instructions: 250000000 cycles: 671274475 heartbeat IPC: 0.305286 cumulative IPC: 0.304409 (Simulation time: 0 hr 21 min 57 sec) 
Finished CPU 0 instructions: 200000000 cycles: 657011202 cumulative IPC: 0.304409 (Simulation time: 0 hr 21 min 57 sec) 

ChampSim completed all CPUs

Region of Interest Statistics

CPU 0 cumulative IPC: 0.304409 instructions: 200000000 cycles: 657011202
ITLB TOTAL     ACCESS:   35757908  HIT:   33530182  MISS:    2227726  HIT %:      93.77  MISS %:    6.23002   MPKI: 11.1386
ITLB LOAD TRANSLATION ACCESS:   35757908  HIT:   33530182  MISS:    2227726  HIT %:      93.77  MISS %:    6.23002   MPKI: 11.1386
ITLB PREFETCH  REQUESTED:          0  ISSUED:          0  USEFUL:          0  USELESS:          0
ITLB USEFUL LOAD PREFETCHES:          0 PREFETCH ISSUED TO LOWER LEVEL:          0  ACCURACY: -nan
ITLB TIMELY PREFETCHES:          0 LATE PREFETCHES: 0 DROPPED PREFETCHES: 0
ITLB PREFETCHES SAME FILL-ORIGIN LEVEL: 0 DIFFERENT FILL-ORIGIN LEVEL: 0
ITLB AVERAGE MISS LATENCY: 9.15064 cycles
ITLB RQ	ACCESS:   42000431	FORWARD:          0	MERGED:    5718041	TO_CACHE:   36282390

DTLB TOTAL     ACCESS:   45707614  HIT:   43680469  MISS:    2027145  HIT %:     95.565  MISS %:    4.43503   MPKI: 10.1357
DTLB LOAD TRANSLATION ACCESS:   45707614  HIT:   43680469  MISS:    2027145  HIT %:     95.565  MISS %:    4.43503   MPKI: 10.1357
DTLB PREFETCH  REQUESTED:          0  ISSUED:          0  USEFUL:          0  USELESS:          0
DTLB USEFUL LOAD PREFETCHES:          0 PREFETCH ISSUED TO LOWER LEVEL:          0  ACCURACY: -nan
DTLB TIMELY PREFETCHES:          0 LATE PREFETCHES: 0 DROPPED PREFETCHES: 0
DTLB PREFETCHES SAME FILL-ORIGIN LEVEL: 0 DIFFERENT FILL-ORIGIN LEVEL: 0
DTLB AVERAGE MISS LATENCY: 9.26047 cycles
DTLB RQ	ACCESS:   60393783	FORWARD:          0	MERGED:   14622353	TO_CACHE:   45771430

STLB TOTAL     ACCESS:    4254871  HIT:    4225870  MISS:      29001  HIT %:    99.3184  MISS %:   0.681595   MPKI: 0.145005
STLB LOAD TRANSLATION ACCESS:    4254871  HIT:    4225870  MISS:      29001  HIT %:    99.3184  MISS %:   0.681595   MPKI: 0.145005
STLB PREFETCH  REQUESTED:          0  ISSUED:          0  USEFUL:          0  USELESS:          0
STLB USEFUL LOAD PREFETCHES:          0 PREFETCH ISSUED TO LOWER LEVEL:          0  ACCURACY: -nan
STLB TIMELY PREFETCHES:          0 LATE PREFETCHES: 0 DROPPED PREFETCHES: 0
STLB PREFETCHES SAME FILL-ORIGIN LEVEL: 0 DIFFERENT FILL-ORIGIN LEVEL: 0
STLB AVERAGE MISS LATENCY: 28.8321 cycles
STLB RQ	ACCESS:    4254871	FORWARD:          0	MERGED:          0	TO_CACHE:    4254871

STLB Hit, L1D data hit: 0
STLB Hit, L2C data hit: 0
STLB Hit, LLC data hit: 0
STLB Hit, LLC data miss: 0
STLB STLB hints to L2: 0
L1D TOTAL     ACCESS:   58509618  HIT:   52859156  MISS:    5650462  HIT %:    90.3427  MISS %:    9.65732   MPKI: 28.2523
L1D LOAD      ACCESS:   33974427  HIT:   29525476  MISS:    4448951  HIT %:     86.905  MISS %:     13.095   MPKI: 22.2448
L1D RFO       ACCESS:   24535191  HIT:   23333680  MISS:    1201511  HIT %:    95.1029  MISS %:    4.89709   MPKI: 6.00755
L1D PREFETCH  REQUESTED:          0  ISSUED:          0  USEFUL:          0  USELESS:          0
L1D USEFUL LOAD PREFETCHES:          0 PREFETCH ISSUED TO LOWER LEVEL:          0  ACCURACY: -nan
L1D TIMELY PREFETCHES:          0 LATE PREFETCHES: 0 DROPPED PREFETCHES: 0
L1D PREFETCHES SAME FILL-ORIGIN LEVEL: 0 DIFFERENT FILL-ORIGIN LEVEL: 0
L1D AVERAGE MISS LATENCY: 16.4536 cycles
L1D RQ	ACCESS:   46406262	FORWARD:          0	MERGED:   12008083	TO_CACHE:   34086209
L1D WQ	ACCESS:   26448215	FORWARD:     311970	MERGED:     140641	TO_CACHE:   26307574

L1D UNIQUE REGIONS ACCESSED: 0
L1D REGIONS CONFLICTS: 0
L1D Cross Page Prefetch Requests: 0
L1D Same Page Prefetch Requests: 0
L1D ROI Sum of L1D PQ occupancy: 0
L1D PREFETCHES PUSHED FROM L2C: 0
L1I TOTAL     ACCESS:   40340343  HIT:   29019728  MISS:   11320615  HIT %:    71.9372  MISS %:    28.0628   MPKI: 56.6031
L1I LOAD      ACCESS:   40340343  HIT:   29019728  MISS:   11320615  HIT %:    71.9372  MISS %:    28.0628   MPKI: 56.6031
L1I PREFETCH  REQUESTED:          0  ISSUED:          0  USEFUL:          0  USELESS:          0
L1I USEFUL LOAD PREFETCHES:          0 PREFETCH ISSUED TO LOWER LEVEL:          0  ACCURACY: -nan
L1I TIMELY PREFETCHES:          0 LATE PREFETCHES: 0 DROPPED PREFETCHES: 0
L1I PREFETCHES SAME FILL-ORIGIN LEVEL: 0 DIFFERENT FILL-ORIGIN LEVEL: 0
L1I AVERAGE MISS LATENCY: 16.4522 cycles
L1I RQ	ACCESS:   58200515	FORWARD:          0	MERGED:   16200084	TO_CACHE:   42000431

BTB TOTAL     ACCESS:   30343388  HIT:   17609551  MISS:   12733837  HIT %:    58.0342  MISS %:    41.9658   MPKI: 63.6692
BTB BRANCH_DIRECT_JUMP	ACCESS:    1883728  HIT:    1042713  MISS:     841015
BTB BRANCH_INDIRECT	ACCESS:   11966225  HIT:    7097112  MISS:    4869113
BTB BRANCH_CONDITIONAL	ACCESS:    7323945  HIT:    6018928  MISS:    1305017
BTB BRANCH_DIRECT_CALL	ACCESS:    3854734  HIT:    1768910  MISS:    2085824
BTB BRANCH_INDIRECT_CALL	ACCESS:     730020  HIT:     347975  MISS:     382045
BTB BRANCH_RETURN	ACCESS:    4584736  HIT:    1333913  MISS:    3250823
BTB BRANCH_OTHER ACCESS:          0  HIT:          0  MISS:          0

L2C TOTAL     ACCESS:   22504706  HIT:   21162416  MISS:    1342290  HIT %:    94.0355  MISS %:    5.96449   MPKI: 6.71145
L2C LOAD      ACCESS:   15769561  HIT:   14745978  MISS:    1023583  HIT %:    93.5091  MISS %:    6.49088   MPKI: 5.11791
L2C DATA LOAD MPKI: 0.64818
L2C INSTRUCTION LOAD MPKI: 4.46974
L2C RFO       ACCESS:    1201511  HIT:    1107160  MISS:      94351  HIT %:    92.1473  MISS %:     7.8527   MPKI: 0.471755
L2C PREFETCH  ACCESS:    3197647  HIT:    3013988  MISS:     183659  HIT %:    94.2564  MISS %:    5.74357   MPKI: 0.918295
AGUS PREFETCH L1 MISS: 0
L2C DATA PREFETCH MPKI: 0.918295
L2C INSTRUCTION PREFETCH MPKI: 0
L2C WRITEBACK ACCESS:    2305864  HIT:    2273248  MISS:      32616  HIT %:    98.5855  MISS %:    1.41448   MPKI: 0.16308
L2C LOAD TRANSLATION ACCESS:      30123  HIT:      22042  MISS:       8081  HIT %:    73.1733  MISS %:    26.8267   MPKI: 0.040405
L2C PREFETCH  REQUESTED:    3210990  ISSUED:    3210990  USEFUL:     113038  USELESS:      70621
L2C USEFUL LOAD PREFETCHES:     113038 PREFETCH ISSUED TO LOWER LEVEL:     190125  ACCURACY: 59.4546
L2C TIMELY PREFETCHES:     113038 LATE PREFETCHES: 6466 DROPPED PREFETCHES: 0
L2C PREFETCHES SAME FILL-ORIGIN LEVEL: 190125 DIFFERENT FILL-ORIGIN LEVEL: 0
L2C AVERAGE MISS LATENCY: 31.9032 cycles
L2C RQ	ACCESS:   17001199	FORWARD:          0	MERGED:          0	TO_CACHE:   17001195
L2C WQ	ACCESS:    2305864	FORWARD:          4	MERGED:          0	TO_CACHE:    2305864
L2C PQ	ACCESS:    3210990	FORWARD:          0	MERGED:          0	TO_CACHE:    3210990

L2C Instructions Evicting Data 234063
L2C Translations Evicting Data 4660
L2C Data Evicting Data 191775
L2C Instructions Evicting Instructions 656835
L2C Translations Evicting Instructions 3156
L2C Data Evicting Instructions 211184
L2C Instructions Evicting Translations 3049
L2C Translations Evicting Translations 265
L2C Data Evicting Translations 4687
L2C Dense regions hint from L2: 0
PSCL5 TOTAL     ACCESS:      29001  HIT:      29001  MISS:          0  HIT %:        100  MISS %:          0   MPKI: 0
PSCL5 LOAD TRANSLATION ACCESS:      29001  HIT:      29001  MISS:          0  HIT %:        100  MISS %:          0   MPKI: 0
PSCL5 PREFETCH  REQUESTED:          0  ISSUED:          0  USEFUL:          0  USELESS:          0
PSCL5 USEFUL LOAD PREFETCHES:          0 PREFETCH ISSUED TO LOWER LEVEL:          0  ACCURACY: -nan
PSCL5 TIMELY PREFETCHES:          0 LATE PREFETCHES: 0 DROPPED PREFETCHES: 0
PSCL5 PREFETCHES SAME FILL-ORIGIN LEVEL: 0 DIFFERENT FILL-ORIGIN LEVEL: 0

PSCL4 TOTAL     ACCESS:      21924  HIT:      21869  MISS:         55  HIT %:    99.7491  MISS %:   0.250867   MPKI: 0.000275
PSCL4 LOAD TRANSLATION ACCESS:      21924  HIT:      21869  MISS:         55  HIT %:    99.7491  MISS %:   0.250867   MPKI: 0.000275
PSCL4 PREFETCH  REQUESTED:          0  ISSUED:          0  USEFUL:          0  USELESS:          0
PSCL4 USEFUL LOAD PREFETCHES:          0 PREFETCH ISSUED TO LOWER LEVEL:          0  ACCURACY: -nan
PSCL4 TIMELY PREFETCHES:          0 LATE PREFETCHES: 0 DROPPED PREFETCHES: 0
PSCL4 PREFETCHES SAME FILL-ORIGIN LEVEL: 0 DIFFERENT FILL-ORIGIN LEVEL: 0

PSCL3 TOTAL     ACCESS:      28103  HIT:      28030  MISS:         73  HIT %:    99.7402  MISS %:   0.259759   MPKI: 0.000365
PSCL3 LOAD TRANSLATION ACCESS:      28103  HIT:      28030  MISS:         73  HIT %:    99.7402  MISS %:   0.259759   MPKI: 0.000365
PSCL3 PREFETCH  REQUESTED:          0  ISSUED:          0  USEFUL:          0  USELESS:          0
PSCL3 USEFUL LOAD PREFETCHES:          0 PREFETCH ISSUED TO LOWER LEVEL:          0  ACCURACY: -nan
PSCL3 TIMELY PREFETCHES:          0 LATE PREFETCHES: 0 DROPPED PREFETCHES: 0
PSCL3 PREFETCHES SAME FILL-ORIGIN LEVEL: 0 DIFFERENT FILL-ORIGIN LEVEL: 0

PSCL2 TOTAL     ACCESS:      29001  HIT:      28007  MISS:        994  HIT %:    96.5725  MISS %:    3.42747   MPKI: 0.00497
PSCL2 LOAD TRANSLATION ACCESS:      29001  HIT:      28007  MISS:        994  HIT %:    96.5725  MISS %:    3.42747   MPKI: 0.00497
PSCL2 PREFETCH  REQUESTED:          0  ISSUED:          0  USEFUL:          0  USELESS:          0
PSCL2 USEFUL LOAD PREFETCHES:          0 PREFETCH ISSUED TO LOWER LEVEL:          0  ACCURACY: -nan
PSCL2 TIMELY PREFETCHES:          0 LATE PREFETCHES: 0 DROPPED PREFETCHES: 0
PSCL2 PREFETCHES SAME FILL-ORIGIN LEVEL: 0 DIFFERENT FILL-ORIGIN LEVEL: 0

LLC TOTAL     ACCESS:    1441614  HIT:    1418018  MISS:      23596  HIT %:    98.3632  MISS %:    1.63678   MPKI: 0.11798
LLC LOAD      ACCESS:    1017422  HIT:    1013109  MISS:       4313  HIT %:    99.5761  MISS %:   0.423915   MPKI: 0.021565
LLC RFO       ACCESS:      94042  HIT:      89353  MISS:       4689  HIT %:    95.0139  MISS %:    4.98607   MPKI: 0.023445
LLC PREFETCH  ACCESS:     190124  HIT:     175758  MISS:      14366  HIT %:    92.4439  MISS %:    7.55612   MPKI: 0.07183
AGUS PREFETCH L1 MISS: 0
LLC WRITEBACK ACCESS:     131945  HIT:     131784  MISS:        161  HIT %:     99.878  MISS %:   0.122021   MPKI: 0.000805
LLC LOAD TRANSLATION ACCESS:       8081  HIT:       8014  MISS:         67  HIT %:    99.1709  MISS %:   0.829105   MPKI: 0.000335
LLC PREFETCH  REQUESTED:          0  ISSUED:          0  USEFUL:        687  USELESS:      10368
LLC USEFUL LOAD PREFETCHES:        687 PREFETCH ISSUED TO LOWER LEVEL:      14366  ACCURACY: 4.78212
LLC TIMELY PREFETCHES:        687 LATE PREFETCHES: 0 DROPPED PREFETCHES: 0
LLC PREFETCHES SAME FILL-ORIGIN LEVEL: 0 DIFFERENT FILL-ORIGIN LEVEL: 0
LLC AVERAGE MISS LATENCY: 155.863 cycles
LLC RQ	ACCESS:    1119549	FORWARD:          0	MERGED:          0	TO_CACHE:    1119545
LLC WQ	ACCESS:     131945	FORWARD:          5	MERGED:          0	TO_CACHE:     131945
LLC PQ	ACCESS:     190125	FORWARD:          0	MERGED:          0	TO_CACHE:     190124

LLC Dense regions hint to LLC: 0

RAW hits: 1439993
Loads Generated: 47846257
Loads sent to L1D: 46406262
Stores Generated: 26448220
Stores sent to L1D: 26448215
Major fault: 0 Minor fault: 2136
Allocated PAGES: 2136
[Bingo] PHT Access: 1082668
[Bingo] PHT Hit PC+Addr: 678494
[Bingo] PHT Hit PC+Offs: 45243
[Bingo] PHT Miss: 358931
[Bingo] Prefetch PC+Addr: 0
[Bingo] Prefetch PC+Offs: 0
[Bingo] Useful PC+Addr: 0
[Bingo] Useful PC+Offs: 0
[Bingo] Useless PC+Addr: 0
[Bingo] Useless PC+Offs: 0
[Bingo] L1 Prefetch per Region: 0
[Bingo] L2 Prefetch per Region: 5.44089
[Bingo] L3 Prefetch per Region: 0
[Bingo] No Prefetch per Region: 26.5591
[Bingo] Number of Voters Mean: 6.05594
[Bingo] Number of Voters SD: 6.83833
PHT read accesses: 3279089
PHT write accesses: 564238
AT read accesses: 3396287
AT write accesses: 3909350
FT read accesses: 1759292
FT write accesses: 1082668
PS read accesses: 1554322
PS write accesses: 723737
PHT tag read accesses: 16762947
PHT tag write accesses: 1242732
AT tag read accesses: 119359676
AT tag write accesses: 3960511
FT tag read accesses: 87369108
FT tag write accesses: 2256584
PS tag read accesses: 95069925
PS tag write accesses: 2278040

DRAM Statistics
 CHANNEL 0
 RQ ROW_BUFFER_HIT:       9117  ROW_BUFFER_MISS:      14316
 DBUS_CONGESTED:          4
 WQ ROW_BUFFER_HIT:        272  ROW_BUFFER_MISS:       4266  FULL:          0

 AVG_CONGESTED_CYCLE: 5
 All warmup complete: 2
Channel 0 Bank busy for read cycles: 0
Channel 0 Bank busy for write cycles: 0
Channel 0
Rank 0
0banks busy for read cycles: 655596173
0banks busy for write cycles: 2205
1banks busy for read cycles: 562759
1banks busy for write cycles: 235946
2banks busy for read cycles: 153083
2banks busy for write cycles: 66945
3banks busy for read cycles: 73429
3banks busy for write cycles: 35423
4banks busy for read cycles: 55357
4banks busy for write cycles: 17368
5banks busy for read cycles: 36749
5banks busy for write cycles: 11762
6banks busy for read cycles: 28005
6banks busy for write cycles: 5316
7banks busy for read cycles: 40153
7banks busy for write cycles: 3199
8banks busy for read cycles: 82742
8banks busy for write cycles: 4589

CPU 0 Branch Prediction Accuracy: 99.878% MPKI: 0.219635 Average ROB Occupancy at Mispredict: 29.7911
Branch types
NOT_BRANCH: 164000669 82.0003%
BRANCH_DIRECT_JUMP: 1883728 0.941864%
BRANCH_INDIRECT: 11966225 5.98311%
BRANCH_CONDITIONAL: 12979996 6.49%
BRANCH_DIRECT_CALL: 3854734 1.92737%
BRANCH_INDIRECT_CALL: 730020 0.36501%
BRANCH_RETURN: 4584736 2.29237%
BRANCH_OTHER: 0 0%

DRAM PAGES: 1048576
Allocated PAGES: 2136
