
*** ChampSim Multicore Out-of-Order Simulator ***

Warmup Instructions: 50000000
Simulation Instructions: 200000000
Number of CPUs: 1
LLC sets: 2048
LLC ways: 16
Off-chip DRAM Size: 4096 MB Channels: 1 Width: 64-bit Data Rate: 6400 MT/s
CPU 0 runs traces/spec2k17/server_033.champsimtrace.xz
.xz
BTB has LRU replacement policy
ITLB has LRU replacement policy
DTLB has LRU replacement policy
STLB has LRU replacement policy
L1I has LRU replacement policy
L1D has LRU replacement policy
Bingo PHT WAYS: 16 and PHT_SIZE: 16384
Initialize SRRIP state for L2C
Initialize DRRIP state for LLC
Heartbeat CPU 0 instructions: 10000000 cycles: 2817771 heartbeat IPC: 3.5489 cumulative IPC: 3.5489 (Simulation time: 0 hr 0 min 27 sec) 
Heartbeat CPU 0 instructions: 20000002 cycles: 5631281 heartbeat IPC: 3.55428 cumulative IPC: 3.55159 (Simulation time: 0 hr 0 min 56 sec) 
Heartbeat CPU 0 instructions: 30000003 cycles: 8440329 heartbeat IPC: 3.55993 cumulative IPC: 3.55436 (Simulation time: 0 hr 1 min 27 sec) 
Heartbeat CPU 0 instructions: 40000002 cycles: 11252622 heartbeat IPC: 3.55582 cumulative IPC: 3.55473 (Simulation time: 0 hr 1 min 56 sec) 
Heartbeat CPU 0 instructions: 50000002 cycles: 14064882 heartbeat IPC: 3.55586 cumulative IPC: 3.55495 (Simulation time: 0 hr 2 min 26 sec) 

Warmup complete CPU 0 instructions: 50000002 cycles: 14064882 (Simulation time: 0 hr 2 min 26 sec) 

Heartbeat CPU 0 instructions: 60000000 cycles: 40512341 heartbeat IPC: 0.378108 cumulative IPC: 0.378108 (Simulation time: 0 hr 3 min 19 sec) 
Heartbeat CPU 0 instructions: 70000001 cycles: 66725082 heartbeat IPC: 0.381494 cumulative IPC: 0.379793 (Simulation time: 0 hr 4 min 14 sec) 
Heartbeat CPU 0 instructions: 80000003 cycles: 92703341 heartbeat IPC: 0.384937 cumulative IPC: 0.381493 (Simulation time: 0 hr 5 min 7 sec) 
Heartbeat CPU 0 instructions: 90000001 cycles: 119111975 heartbeat IPC: 0.378664 cumulative IPC: 0.380782 (Simulation time: 0 hr 6 min 17 sec) 
Heartbeat CPU 0 instructions: 100000002 cycles: 145236107 heartbeat IPC: 0.382788 cumulative IPC: 0.381181 (Simulation time: 0 hr 7 min 7 sec) 
*** Reached end of trace for Core: 0 Repeating trace: traces/spec2k17/server_033.champsimtrace.xz
Heartbeat CPU 0 instructions: 110000000 cycles: 171446150 heartbeat IPC: 0.381533 cumulative IPC: 0.38124 (Simulation time: 0 hr 7 min 58 sec) 
Heartbeat CPU 0 instructions: 120000003 cycles: 197591202 heartbeat IPC: 0.382482 cumulative IPC: 0.381417 (Simulation time: 0 hr 8 min 49 sec) 
Heartbeat CPU 0 instructions: 130000000 cycles: 223501529 heartbeat IPC: 0.385946 cumulative IPC: 0.381977 (Simulation time: 0 hr 9 min 42 sec) 
Heartbeat CPU 0 instructions: 140000003 cycles: 249903990 heartbeat IPC: 0.378753 cumulative IPC: 0.381616 (Simulation time: 0 hr 10 min 37 sec) 
Heartbeat CPU 0 instructions: 150000000 cycles: 276105567 heartbeat IPC: 0.381656 cumulative IPC: 0.38162 (Simulation time: 0 hr 11 min 30 sec) 
Heartbeat CPU 0 instructions: 160000000 cycles: 302435967 heartbeat IPC: 0.379789 cumulative IPC: 0.381453 (Simulation time: 0 hr 12 min 26 sec) 
Heartbeat CPU 0 instructions: 170000001 cycles: 328648667 heartbeat IPC: 0.381494 cumulative IPC: 0.381456 (Simulation time: 0 hr 13 min 19 sec) 
Heartbeat CPU 0 instructions: 180000001 cycles: 354859089 heartbeat IPC: 0.381528 cumulative IPC: 0.381462 (Simulation time: 0 hr 14 min 12 sec) 
Heartbeat CPU 0 instructions: 190000002 cycles: 380961830 heartbeat IPC: 0.383102 cumulative IPC: 0.381579 (Simulation time: 0 hr 15 min 7 sec) 
Heartbeat CPU 0 instructions: 200000003 cycles: 407113014 heartbeat IPC: 0.382392 cumulative IPC: 0.381633 (Simulation time: 0 hr 16 min 3 sec) 
*** Reached end of trace for Core: 0 Repeating trace: traces/spec2k17/server_033.champsimtrace.xz
Heartbeat CPU 0 instructions: 210000000 cycles: 433254293 heartbeat IPC: 0.382537 cumulative IPC: 0.381689 (Simulation time: 0 hr 16 min 58 sec) 
Heartbeat CPU 0 instructions: 220000000 cycles: 459430279 heartbeat IPC: 0.38203 cumulative IPC: 0.381709 (Simulation time: 0 hr 17 min 49 sec) 
Heartbeat CPU 0 instructions: 230000001 cycles: 485571139 heartbeat IPC: 0.382543 cumulative IPC: 0.381755 (Simulation time: 0 hr 18 min 44 sec) 
Heartbeat CPU 0 instructions: 240000001 cycles: 511648590 heartbeat IPC: 0.383473 cumulative IPC: 0.381845 (Simulation time: 0 hr 19 min 37 sec) 
Heartbeat CPU 0 instructions: 250000002 cycles: 537862938 heartbeat IPC: 0.381471 cumulative IPC: 0.381827 (Simulation time: 0 hr 20 min 30 sec) 
Finished CPU 0 instructions: 200000000 cycles: 523798056 cumulative IPC: 0.381827 (Simulation time: 0 hr 20 min 30 sec) 

ChampSim completed all CPUs

Region of Interest Statistics

CPU 0 cumulative IPC: 0.381827 instructions: 200000000 cycles: 523798056
ITLB TOTAL     ACCESS:   35639707  HIT:   33613573  MISS:    2026134  HIT %:     94.315  MISS %:    5.68505   MPKI: 10.1307
ITLB LOAD TRANSLATION ACCESS:   35639707  HIT:   33613573  MISS:    2026134  HIT %:     94.315  MISS %:    5.68505   MPKI: 10.1307
ITLB PREFETCH  REQUESTED:          0  ISSUED:          0  USEFUL:          0  USELESS:          0
ITLB USEFUL LOAD PREFETCHES:          0 PREFETCH ISSUED TO LOWER LEVEL:          0  ACCURACY: -nan
ITLB TIMELY PREFETCHES:          0 LATE PREFETCHES: 0 DROPPED PREFETCHES: 0
ITLB PREFETCHES SAME FILL-ORIGIN LEVEL: 0 DIFFERENT FILL-ORIGIN LEVEL: 0
ITLB AVERAGE MISS LATENCY: 9.03851 cycles
ITLB RQ	ACCESS:   41304100	FORWARD:          0	MERGED:    5211176	TO_CACHE:   36092924

DTLB TOTAL     ACCESS:   39454275  HIT:   37752917  MISS:    1701358  HIT %:    95.6878  MISS %:    4.31223   MPKI: 8.50679
DTLB LOAD TRANSLATION ACCESS:   39454275  HIT:   37752917  MISS:    1701358  HIT %:    95.6878  MISS %:    4.31223   MPKI: 8.50679
DTLB PREFETCH  REQUESTED:          0  ISSUED:          0  USEFUL:          0  USELESS:          0
DTLB USEFUL LOAD PREFETCHES:          0 PREFETCH ISSUED TO LOWER LEVEL:          0  ACCURACY: -nan
DTLB TIMELY PREFETCHES:          0 LATE PREFETCHES: 0 DROPPED PREFETCHES: 0
DTLB PREFETCHES SAME FILL-ORIGIN LEVEL: 0 DIFFERENT FILL-ORIGIN LEVEL: 0
DTLB AVERAGE MISS LATENCY: 9.43132 cycles
DTLB RQ	ACCESS:   55062778	FORWARD:          0	MERGED:   15519940	TO_CACHE:   39542838

STLB TOTAL     ACCESS:    3727492  HIT:    3711015  MISS:      16477  HIT %:     99.558  MISS %:    0.44204   MPKI: 0.082385
STLB LOAD TRANSLATION ACCESS:    3727492  HIT:    3711015  MISS:      16477  HIT %:     99.558  MISS %:    0.44204   MPKI: 0.082385
STLB PREFETCH  REQUESTED:          0  ISSUED:          0  USEFUL:          0  USELESS:          0
STLB USEFUL LOAD PREFETCHES:          0 PREFETCH ISSUED TO LOWER LEVEL:          0  ACCURACY: -nan
STLB TIMELY PREFETCHES:          0 LATE PREFETCHES: 0 DROPPED PREFETCHES: 0
STLB PREFETCHES SAME FILL-ORIGIN LEVEL: 0 DIFFERENT FILL-ORIGIN LEVEL: 0
STLB AVERAGE MISS LATENCY: 46.7313 cycles
STLB RQ	ACCESS:    3727492	FORWARD:          0	MERGED:          0	TO_CACHE:    3727492

STLB Hit, L1D data hit: 0
STLB Hit, L2C data hit: 0
STLB Hit, LLC data hit: 0
STLB Hit, LLC data miss: 0
STLB STLB hints to L2: 0
L1D TOTAL     ACCESS:   54659798  HIT:   52209514  MISS:    2450284  HIT %:    95.5172  MISS %:    4.48279   MPKI: 12.2514
L1D LOAD      ACCESS:   30325589  HIT:   28255586  MISS:    2070003  HIT %:    93.1741  MISS %:    6.82593   MPKI: 10.35
L1D RFO       ACCESS:   24334209  HIT:   23953928  MISS:     380281  HIT %:    98.4373  MISS %:    1.56274   MPKI: 1.90141
L1D PREFETCH  REQUESTED:          0  ISSUED:          0  USEFUL:          0  USELESS:          0
L1D USEFUL LOAD PREFETCHES:          0 PREFETCH ISSUED TO LOWER LEVEL:          0  ACCURACY: -nan
L1D TIMELY PREFETCHES:          0 LATE PREFETCHES: 0 DROPPED PREFETCHES: 0
L1D PREFETCHES SAME FILL-ORIGIN LEVEL: 0 DIFFERENT FILL-ORIGIN LEVEL: 0
L1D AVERAGE MISS LATENCY: 21.2889 cycles
L1D RQ	ACCESS:   43419795	FORWARD:          0	MERGED:   12719364	TO_CACHE:   30355040
L1D WQ	ACCESS:   24964815	FORWARD:     345391	MERGED:     257077	TO_CACHE:   24707738

L1D UNIQUE REGIONS ACCESSED: 0
L1D REGIONS CONFLICTS: 0
L1D Cross Page Prefetch Requests: 0
L1D Same Page Prefetch Requests: 0
L1D ROI Sum of L1D PQ occupancy: 0
L1D PREFETCHES PUSHED FROM L2C: 0
L1I TOTAL     ACCESS:   38694587  HIT:   26113333  MISS:   12581254  HIT %:    67.4858  MISS %:    32.5142   MPKI: 62.9063
L1I LOAD      ACCESS:   38694587  HIT:   26113333  MISS:   12581254  HIT %:    67.4858  MISS %:    32.5142   MPKI: 62.9063
L1I PREFETCH  REQUESTED:          0  ISSUED:          0  USEFUL:          0  USELESS:          0
L1I USEFUL LOAD PREFETCHES:          0 PREFETCH ISSUED TO LOWER LEVEL:          0  ACCURACY: -nan
L1I TIMELY PREFETCHES:          0 LATE PREFETCHES: 0 DROPPED PREFETCHES: 0
L1I PREFETCHES SAME FILL-ORIGIN LEVEL: 0 DIFFERENT FILL-ORIGIN LEVEL: 0
L1I AVERAGE MISS LATENCY: 14.5862 cycles
L1I RQ	ACCESS:   61063936	FORWARD:          0	MERGED:   19759836	TO_CACHE:   41304100

BTB TOTAL     ACCESS:   31223673  HIT:   22864778  MISS:    8358895  HIT %:     73.229  MISS %:     26.771   MPKI: 41.7945
BTB BRANCH_DIRECT_JUMP	ACCESS:    2956567  HIT:    2328967  MISS:     627600
BTB BRANCH_INDIRECT	ACCESS:   13061005  HIT:    9489306  MISS:    3571699
BTB BRANCH_CONDITIONAL	ACCESS:    5589874  HIT:    4924920  MISS:     664954
BTB BRANCH_DIRECT_CALL	ACCESS:    4001540  HIT:    3045075  MISS:     956465
BTB BRANCH_INDIRECT_CALL	ACCESS:     806569  HIT:     470352  MISS:     336217
BTB BRANCH_RETURN	ACCESS:    4808118  HIT:    2606158  MISS:    2201960
BTB BRANCH_OTHER ACCESS:          0  HIT:          0  MISS:          0

L2C TOTAL     ACCESS:   16798026  HIT:   15832247  MISS:     965779  HIT %:    94.2506  MISS %:    5.74936   MPKI: 4.8289
L2C LOAD      ACCESS:   14651246  HIT:   14247160  MISS:     404086  HIT %:     97.242  MISS %:    2.75803   MPKI: 2.02043
L2C DATA LOAD MPKI: 1.01826
L2C INSTRUCTION LOAD MPKI: 1.00217
L2C RFO       ACCESS:     380266  HIT:     279778  MISS:     100488  HIT %:    73.5743  MISS %:    26.4257   MPKI: 0.50244
L2C PREFETCH  ACCESS:     823388  HIT:     390591  MISS:     432797  HIT %:    47.4371  MISS %:    52.5629   MPKI: 2.16398
AGUS PREFETCH L1 MISS: 0
L2C DATA PREFETCH MPKI: 2.16398
L2C INSTRUCTION PREFETCH MPKI: 0
L2C WRITEBACK ACCESS:     924692  HIT:     906605  MISS:      18087  HIT %:     98.044  MISS %:      1.956   MPKI: 0.090435
L2C LOAD TRANSLATION ACCESS:      18434  HIT:       8113  MISS:      10321  HIT %:    44.0111  MISS %:    55.9889   MPKI: 0.051605
L2C PREFETCH  REQUESTED:     877298  ISSUED:     877298  USEFUL:     362862  USELESS:      69788
L2C USEFUL LOAD PREFETCHES:     362862 PREFETCH ISSUED TO LOWER LEVEL:     437302  ACCURACY: 82.9774
L2C TIMELY PREFETCHES:     362862 LATE PREFETCHES: 4505 DROPPED PREFETCHES: 0
L2C PREFETCHES SAME FILL-ORIGIN LEVEL: 437302 DIFFERENT FILL-ORIGIN LEVEL: 0
L2C AVERAGE MISS LATENCY: 44.8746 cycles
L2C RQ	ACCESS:   15049972	FORWARD:          0	MERGED:          0	TO_CACHE:   15049946
L2C WQ	ACCESS:     924692	FORWARD:         26	MERGED:          0	TO_CACHE:     924692
L2C PQ	ACCESS:     877298	FORWARD:          0	MERGED:          0	TO_CACHE:     877298

L2C Instructions Evicting Data 67541
L2C Translations Evicting Data 9400
L2C Data Evicting Data 665341
L2C Instructions Evicting Instructions 132125
L2C Translations Evicting Instructions 777
L2C Data Evicting Instructions 62345
L2C Instructions Evicting Translations 768
L2C Translations Evicting Translations 144
L2C Data Evicting Translations 9251
L2C Dense regions hint from L2: 0
PSCL5 TOTAL     ACCESS:      16477  HIT:      16477  MISS:          0  HIT %:        100  MISS %:          0   MPKI: 0
PSCL5 LOAD TRANSLATION ACCESS:      16477  HIT:      16477  MISS:          0  HIT %:        100  MISS %:          0   MPKI: 0
PSCL5 PREFETCH  REQUESTED:          0  ISSUED:          0  USEFUL:          0  USELESS:          0
PSCL5 USEFUL LOAD PREFETCHES:          0 PREFETCH ISSUED TO LOWER LEVEL:          0  ACCURACY: -nan
PSCL5 TIMELY PREFETCHES:          0 LATE PREFETCHES: 0 DROPPED PREFETCHES: 0
PSCL5 PREFETCHES SAME FILL-ORIGIN LEVEL: 0 DIFFERENT FILL-ORIGIN LEVEL: 0

PSCL4 TOTAL     ACCESS:      16301  HIT:      16271  MISS:         30  HIT %:     99.816  MISS %:   0.184038   MPKI: 0.00015
PSCL4 LOAD TRANSLATION ACCESS:      16301  HIT:      16271  MISS:         30  HIT %:     99.816  MISS %:   0.184038   MPKI: 0.00015
PSCL4 PREFETCH  REQUESTED:          0  ISSUED:          0  USEFUL:          0  USELESS:          0
PSCL4 USEFUL LOAD PREFETCHES:          0 PREFETCH ISSUED TO LOWER LEVEL:          0  ACCURACY: -nan
PSCL4 TIMELY PREFETCHES:          0 LATE PREFETCHES: 0 DROPPED PREFETCHES: 0
PSCL4 PREFETCHES SAME FILL-ORIGIN LEVEL: 0 DIFFERENT FILL-ORIGIN LEVEL: 0

PSCL3 TOTAL     ACCESS:      16411  HIT:      16381  MISS:         30  HIT %:    99.8172  MISS %:   0.182804   MPKI: 0.00015
PSCL3 LOAD TRANSLATION ACCESS:      16411  HIT:      16381  MISS:         30  HIT %:    99.8172  MISS %:   0.182804   MPKI: 0.00015
PSCL3 PREFETCH  REQUESTED:          0  ISSUED:          0  USEFUL:          0  USELESS:          0
PSCL3 USEFUL LOAD PREFETCHES:          0 PREFETCH ISSUED TO LOWER LEVEL:          0  ACCURACY: -nan
PSCL3 TIMELY PREFETCHES:          0 LATE PREFETCHES: 0 DROPPED PREFETCHES: 0
PSCL3 PREFETCHES SAME FILL-ORIGIN LEVEL: 0 DIFFERENT FILL-ORIGIN LEVEL: 0

PSCL2 TOTAL     ACCESS:      16477  HIT:      14580  MISS:       1897  HIT %:     88.487  MISS %:     11.513   MPKI: 0.009485
PSCL2 LOAD TRANSLATION ACCESS:      16477  HIT:      14580  MISS:       1897  HIT %:     88.487  MISS %:     11.513   MPKI: 0.009485
PSCL2 PREFETCH  REQUESTED:          0  ISSUED:          0  USEFUL:          0  USELESS:          0
PSCL2 USEFUL LOAD PREFETCHES:          0 PREFETCH ISSUED TO LOWER LEVEL:          0  ACCURACY: -nan
PSCL2 TIMELY PREFETCHES:          0 LATE PREFETCHES: 0 DROPPED PREFETCHES: 0
PSCL2 PREFETCHES SAME FILL-ORIGIN LEVEL: 0 DIFFERENT FILL-ORIGIN LEVEL: 0

LLC TOTAL     ACCESS:    1315459  HIT:    1228454  MISS:      87005  HIT %:     93.386  MISS %:    6.61404   MPKI: 0.435025
LLC LOAD      ACCESS:     399585  HIT:     379535  MISS:      20050  HIT %:    94.9823  MISS %:    5.01771   MPKI: 0.10025
LLC RFO       ACCESS:     100484  HIT:      80059  MISS:      20425  HIT %:    79.6734  MISS %:    20.3266   MPKI: 0.102125
LLC PREFETCH  ACCESS:     437301  HIT:     392401  MISS:      44900  HIT %:    89.7325  MISS %:    10.2675   MPKI: 0.2245
AGUS PREFETCH L1 MISS: 0
LLC WRITEBACK ACCESS:     367768  HIT:     366728  MISS:       1040  HIT %:    99.7172  MISS %:   0.282787   MPKI: 0.0052
LLC LOAD TRANSLATION ACCESS:      10321  HIT:       9731  MISS:        590  HIT %:    94.2835  MISS %:     5.7165   MPKI: 0.00295
LLC PREFETCH  REQUESTED:          0  ISSUED:          0  USEFUL:      10536  USELESS:      33319
LLC USEFUL LOAD PREFETCHES:      10536 PREFETCH ISSUED TO LOWER LEVEL:      44900  ACCURACY: 23.4655
LLC TIMELY PREFETCHES:      10536 LATE PREFETCHES: 0 DROPPED PREFETCHES: 0
LLC PREFETCHES SAME FILL-ORIGIN LEVEL: 0 DIFFERENT FILL-ORIGIN LEVEL: 0
LLC AVERAGE MISS LATENCY: 172.55 cycles
LLC RQ	ACCESS:     510390	FORWARD:          0	MERGED:          0	TO_CACHE:     510390
LLC WQ	ACCESS:     367768	FORWARD:          1	MERGED:          0	TO_CACHE:     367768
LLC PQ	ACCESS:     437302	FORWARD:          0	MERGED:          0	TO_CACHE:     437301

LLC Dense regions hint to LLC: 0

RAW hits: 2671145
Loads Generated: 46090938
Loads sent to L1D: 43419795
Stores Generated: 24964797
Stores sent to L1D: 24964815
Major fault: 0 Minor fault: 2572
Allocated PAGES: 2572
[Bingo] PHT Access: 375222
[Bingo] PHT Hit PC+Addr: 206918
[Bingo] PHT Hit PC+Offs: 45974
[Bingo] PHT Miss: 122330
[Bingo] Prefetch PC+Addr: 0
[Bingo] Prefetch PC+Offs: 0
[Bingo] Useful PC+Addr: 0
[Bingo] Useful PC+Offs: 0
[Bingo] Useless PC+Addr: 0
[Bingo] Useless PC+Offs: 0
[Bingo] L1 Prefetch per Region: 0
[Bingo] L2 Prefetch per Region: 4.49113
[Bingo] L3 Prefetch per Region: 0
[Bingo] No Prefetch per Region: 27.5089
[Bingo] Number of Voters Mean: 11.1261
[Bingo] Number of Voters SD: 8.27846
PHT read accesses: 2236536
PHT write accesses: 133724
AT read accesses: 1631754
AT write accesses: 1720983
FT read accesses: 633495
FT write accesses: 375222
PS read accesses: 516694
PS write accesses: 252892
PHT tag read accesses: 5945745
PHT tag write accesses: 340642
AT tag read accesses: 54653385
AT tag write accesses: 1765479
FT tag read accesses: 38311232
FT tag write accesses: 767480
PS tag read accesses: 41962355
PS tag write accesses: 768260

DRAM Statistics
 CHANNEL 0
 RQ ROW_BUFFER_HIT:      18634  ROW_BUFFER_MISS:      67328
 DBUS_CONGESTED:         14
 WQ ROW_BUFFER_HIT:       3302  ROW_BUFFER_MISS:      51431  FULL:          0

 AVG_CONGESTED_CYCLE: 4
 All warmup complete: 2
Channel 0 Bank busy for read cycles: 0
Channel 0 Bank busy for write cycles: 0
Channel 0
Rank 0
0banks busy for read cycles: 512883880
0banks busy for write cycles: 25382
1banks busy for read cycles: 3709844
1banks busy for write cycles: 3040981
2banks busy for read cycles: 1291087
2banks busy for write cycles: 821276
3banks busy for read cycles: 442276
3banks busy for write cycles: 371425
4banks busy for read cycles: 258076
4banks busy for write cycles: 269466
5banks busy for read cycles: 97861
5banks busy for write cycles: 114238
6banks busy for read cycles: 87908
6banks busy for write cycles: 87554
7banks busy for read cycles: 86332
7banks busy for write cycles: 71169
8banks busy for read cycles: 95252
8banks busy for write cycles: 44050

CPU 0 Branch Prediction Accuracy: 99.9377% MPKI: 0.11637 Average ROB Occupancy at Mispredict: 17.8272
Branch types
NOT_BRANCH: 162664071 81.332%
BRANCH_DIRECT_JUMP: 2956567 1.47828%
BRANCH_INDIRECT: 13061005 6.5305%
BRANCH_CONDITIONAL: 11702075 5.85104%
BRANCH_DIRECT_CALL: 4001540 2.00077%
BRANCH_INDIRECT_CALL: 806569 0.403284%
BRANCH_RETURN: 4808118 2.40406%
BRANCH_OTHER: 0 0%

DRAM PAGES: 1048576
Allocated PAGES: 2572
