
*** ChampSim Multicore Out-of-Order Simulator ***

Warmup Instructions: 50000000
Simulation Instructions: 200000000
Number of CPUs: 1
LLC sets: 2048
LLC ways: 16
Off-chip DRAM Size: 4096 MB Channels: 1 Width: 64-bit Data Rate: 6400 MT/s
CPU 0 runs traces/spec2k17/srv_45.champsimtrace.xz
.xz
BTB has LRU replacement policy
ITLB has LRU replacement policy
DTLB has LRU replacement policy
STLB has LRU replacement policy
L1I has LRU replacement policy
L1D has LRU replacement policy
Bingo PHT WAYS: 16 and PHT_SIZE: 16384
Initialize SRRIP state for L2C
Initialize DRRIP state for LLC
Heartbeat CPU 0 instructions: 10000003 cycles: 2936882 heartbeat IPC: 3.40497 cumulative IPC: 3.40497 (Simulation time: 0 hr 0 min 35 sec) 
Heartbeat CPU 0 instructions: 20000002 cycles: 5874721 heartbeat IPC: 3.40386 cumulative IPC: 3.40442 (Simulation time: 0 hr 1 min 9 sec) 
Heartbeat CPU 0 instructions: 30000000 cycles: 8807988 heartbeat IPC: 3.40917 cumulative IPC: 3.406 (Simulation time: 0 hr 1 min 43 sec) 
*** Reached end of trace for Core: 0 Repeating trace: traces/spec2k17/srv_45.champsimtrace.xz
Heartbeat CPU 0 instructions: 40000000 cycles: 11739723 heartbeat IPC: 3.41095 cumulative IPC: 3.40724 (Simulation time: 0 hr 2 min 18 sec) 
Heartbeat CPU 0 instructions: 50000001 cycles: 14673341 heartbeat IPC: 3.40876 cumulative IPC: 3.40754 (Simulation time: 0 hr 2 min 53 sec) 

Warmup complete CPU 0 instructions: 50000001 cycles: 14673341 (Simulation time: 0 hr 2 min 53 sec) 

Heartbeat CPU 0 instructions: 60000000 cycles: 53841579 heartbeat IPC: 0.255309 cumulative IPC: 0.255309 (Simulation time: 0 hr 3 min 58 sec) 
*** Reached end of trace for Core: 0 Repeating trace: traces/spec2k17/srv_45.champsimtrace.xz
Heartbeat CPU 0 instructions: 70000000 cycles: 92928434 heartbeat IPC: 0.25584 cumulative IPC: 0.255574 (Simulation time: 0 hr 5 min 3 sec) 
Heartbeat CPU 0 instructions: 80000001 cycles: 132095344 heartbeat IPC: 0.255318 cumulative IPC: 0.255489 (Simulation time: 0 hr 6 min 8 sec) 
Heartbeat CPU 0 instructions: 90000003 cycles: 171073906 heartbeat IPC: 0.256551 cumulative IPC: 0.255754 (Simulation time: 0 hr 7 min 11 sec) 
*** Reached end of trace for Core: 0 Repeating trace: traces/spec2k17/srv_45.champsimtrace.xz
Heartbeat CPU 0 instructions: 100000003 cycles: 210199600 heartbeat IPC: 0.255587 cumulative IPC: 0.25572 (Simulation time: 0 hr 8 min 16 sec) 
Heartbeat CPU 0 instructions: 110000000 cycles: 249481842 heartbeat IPC: 0.254568 cumulative IPC: 0.255527 (Simulation time: 0 hr 9 min 20 sec) 
Heartbeat CPU 0 instructions: 120000000 cycles: 288406613 heartbeat IPC: 0.256906 cumulative IPC: 0.255723 (Simulation time: 0 hr 10 min 21 sec) 
*** Reached end of trace for Core: 0 Repeating trace: traces/spec2k17/srv_45.champsimtrace.xz
Heartbeat CPU 0 instructions: 130000002 cycles: 327453009 heartbeat IPC: 0.256106 cumulative IPC: 0.255771 (Simulation time: 0 hr 11 min 22 sec) 
Heartbeat CPU 0 instructions: 140000003 cycles: 366490446 heartbeat IPC: 0.256164 cumulative IPC: 0.255815 (Simulation time: 0 hr 12 min 21 sec) 
Heartbeat CPU 0 instructions: 150000000 cycles: 405576652 heartbeat IPC: 0.255845 cumulative IPC: 0.255818 (Simulation time: 0 hr 13 min 26 sec) 
*** Reached end of trace for Core: 0 Repeating trace: traces/spec2k17/srv_45.champsimtrace.xz
Heartbeat CPU 0 instructions: 160000001 cycles: 444470473 heartbeat IPC: 0.25711 cumulative IPC: 0.255935 (Simulation time: 0 hr 14 min 24 sec) 
Heartbeat CPU 0 instructions: 170000001 cycles: 483429477 heartbeat IPC: 0.25668 cumulative IPC: 0.255997 (Simulation time: 0 hr 15 min 24 sec) 
Heartbeat CPU 0 instructions: 180000000 cycles: 522671906 heartbeat IPC: 0.254826 cumulative IPC: 0.255906 (Simulation time: 0 hr 16 min 19 sec) 
*** Reached end of trace for Core: 0 Repeating trace: traces/spec2k17/srv_45.champsimtrace.xz
Heartbeat CPU 0 instructions: 190000001 cycles: 561494057 heartbeat IPC: 0.257585 cumulative IPC: 0.256025 (Simulation time: 0 hr 17 min 19 sec) 
Heartbeat CPU 0 instructions: 200000000 cycles: 600711788 heartbeat IPC: 0.254987 cumulative IPC: 0.255956 (Simulation time: 0 hr 18 min 15 sec) 
Heartbeat CPU 0 instructions: 210000003 cycles: 639659367 heartbeat IPC: 0.256755 cumulative IPC: 0.256006 (Simulation time: 0 hr 19 min 9 sec) 
*** Reached end of trace for Core: 0 Repeating trace: traces/spec2k17/srv_45.champsimtrace.xz
Heartbeat CPU 0 instructions: 220000000 cycles: 678474669 heartbeat IPC: 0.25763 cumulative IPC: 0.256101 (Simulation time: 0 hr 20 min 10 sec) 
Heartbeat CPU 0 instructions: 230000000 cycles: 717521131 heartbeat IPC: 0.256105 cumulative IPC: 0.256101 (Simulation time: 0 hr 21 min 14 sec) 
Heartbeat CPU 0 instructions: 240000000 cycles: 756570428 heartbeat IPC: 0.256087 cumulative IPC: 0.2561 (Simulation time: 0 hr 22 min 19 sec) 
*** Reached end of trace for Core: 0 Repeating trace: traces/spec2k17/srv_45.champsimtrace.xz
Heartbeat CPU 0 instructions: 250000003 cycles: 795362272 heartbeat IPC: 0.257786 cumulative IPC: 0.256184 (Simulation time: 0 hr 22 min 58 sec) 
Finished CPU 0 instructions: 200000002 cycles: 780688931 cumulative IPC: 0.256184 (Simulation time: 0 hr 22 min 58 sec) 

ChampSim completed all CPUs

Region of Interest Statistics

CPU 0 cumulative IPC: 0.256184 instructions: 200000002 cycles: 780688931
ITLB TOTAL     ACCESS:   36338001  HIT:   33590175  MISS:    2747826  HIT %:    92.4381  MISS %:    7.56185   MPKI: 13.7391
ITLB LOAD TRANSLATION ACCESS:   36338001  HIT:   33590175  MISS:    2747826  HIT %:    92.4381  MISS %:    7.56185   MPKI: 13.7391
ITLB PREFETCH  REQUESTED:          0  ISSUED:          0  USEFUL:          0  USELESS:          0
ITLB USEFUL LOAD PREFETCHES:          0 PREFETCH ISSUED TO LOWER LEVEL:          0  ACCURACY: -nan
ITLB TIMELY PREFETCHES:          0 LATE PREFETCHES: 0 DROPPED PREFETCHES: 0
ITLB PREFETCHES SAME FILL-ORIGIN LEVEL: 0 DIFFERENT FILL-ORIGIN LEVEL: 0
ITLB AVERAGE MISS LATENCY: 9.30963 cycles
ITLB RQ	ACCESS:   43001835	FORWARD:          0	MERGED:    5926072	TO_CACHE:   37075763

DTLB TOTAL     ACCESS:   49894195  HIT:   47436179  MISS:    2458016  HIT %:    95.0735  MISS %:    4.92646   MPKI: 12.2901
DTLB LOAD TRANSLATION ACCESS:   49894195  HIT:   47436179  MISS:    2458016  HIT %:    95.0735  MISS %:    4.92646   MPKI: 12.2901
DTLB PREFETCH  REQUESTED:          0  ISSUED:          0  USEFUL:          0  USELESS:          0
DTLB USEFUL LOAD PREFETCHES:          0 PREFETCH ISSUED TO LOWER LEVEL:          0  ACCURACY: -nan
DTLB TIMELY PREFETCHES:          0 LATE PREFETCHES: 0 DROPPED PREFETCHES: 0
DTLB PREFETCHES SAME FILL-ORIGIN LEVEL: 0 DIFFERENT FILL-ORIGIN LEVEL: 0
DTLB AVERAGE MISS LATENCY: 12.2308 cycles
DTLB RQ	ACCESS:   66110861	FORWARD:          0	MERGED:   16078045	TO_CACHE:   50032816

STLB TOTAL     ACCESS:    5205842  HIT:    5097735  MISS:     108107  HIT %:    97.9234  MISS %:    2.07665   MPKI: 0.540535
STLB LOAD TRANSLATION ACCESS:    5205842  HIT:    5097735  MISS:     108107  HIT %:    97.9234  MISS %:    2.07665   MPKI: 0.540535
STLB PREFETCH  REQUESTED:          0  ISSUED:          0  USEFUL:          0  USELESS:          0
STLB USEFUL LOAD PREFETCHES:          0 PREFETCH ISSUED TO LOWER LEVEL:          0  ACCURACY: -nan
STLB TIMELY PREFETCHES:          0 LATE PREFETCHES: 0 DROPPED PREFETCHES: 0
STLB PREFETCHES SAME FILL-ORIGIN LEVEL: 0 DIFFERENT FILL-ORIGIN LEVEL: 0
STLB AVERAGE MISS LATENCY: 80.9074 cycles
STLB RQ	ACCESS:    5205842	FORWARD:          0	MERGED:          0	TO_CACHE:    5205842

STLB Hit, L1D data hit: 0
STLB Hit, L2C data hit: 0
STLB Hit, LLC data hit: 0
STLB Hit, LLC data miss: 0
STLB STLB hints to L2: 0
L1D TOTAL     ACCESS:   63381487  HIT:   57677911  MISS:    5703576  HIT %:    91.0012  MISS %:     8.9988   MPKI: 28.5179
L1D LOAD      ACCESS:   39642567  HIT:   35667585  MISS:    3974982  HIT %:    89.9729  MISS %:    10.0271   MPKI: 19.8749
L1D RFO       ACCESS:   23738920  HIT:   22010326  MISS:    1728594  HIT %:    92.7183  MISS %:    7.28169   MPKI: 8.64297
L1D PREFETCH  REQUESTED:          0  ISSUED:          0  USEFUL:          0  USELESS:          0
L1D USEFUL LOAD PREFETCHES:          0 PREFETCH ISSUED TO LOWER LEVEL:          0  ACCURACY: -nan
L1D TIMELY PREFETCHES:          0 LATE PREFETCHES: 0 DROPPED PREFETCHES: 0
L1D PREFETCHES SAME FILL-ORIGIN LEVEL: 0 DIFFERENT FILL-ORIGIN LEVEL: 0
L1D AVERAGE MISS LATENCY: 29.0248 cycles
L1D RQ	ACCESS:   50681082	FORWARD:          0	MERGED:   10719586	TO_CACHE:   39786416
L1D WQ	ACCESS:   26484793	FORWARD:     175080	MERGED:     160348	TO_CACHE:   26324445

L1D UNIQUE REGIONS ACCESSED: 0
L1D REGIONS CONFLICTS: 0
L1D Cross Page Prefetch Requests: 0
L1D Same Page Prefetch Requests: 0
L1D ROI Sum of L1D PQ occupancy: 0
L1D PREFETCHES PUSHED FROM L2C: 0
L1I TOTAL     ACCESS:   41300214  HIT:   28146488  MISS:   13153726  HIT %:    68.1509  MISS %:    31.8491   MPKI: 65.7686
L1I LOAD      ACCESS:   41300214  HIT:   28146488  MISS:   13153726  HIT %:    68.1509  MISS %:    31.8491   MPKI: 65.7686
L1I PREFETCH  REQUESTED:          0  ISSUED:          0  USEFUL:          0  USELESS:          0
L1I USEFUL LOAD PREFETCHES:          0 PREFETCH ISSUED TO LOWER LEVEL:          0  ACCURACY: -nan
L1I TIMELY PREFETCHES:          0 LATE PREFETCHES: 0 DROPPED PREFETCHES: 0
L1I PREFETCHES SAME FILL-ORIGIN LEVEL: 0 DIFFERENT FILL-ORIGIN LEVEL: 0
L1I AVERAGE MISS LATENCY: 16.6451 cycles
L1I RQ	ACCESS:   59972702	FORWARD:          0	MERGED:   16970867	TO_CACHE:   43001835

BTB TOTAL     ACCESS:   31973433  HIT:   16686947  MISS:   15286486  HIT %:      52.19  MISS %:      47.81   MPKI: 76.4324
BTB BRANCH_DIRECT_JUMP	ACCESS:    2345713  HIT:    1227110  MISS:    1118603
BTB BRANCH_INDIRECT	ACCESS:   14157352  HIT:    8110274  MISS:    6047078
BTB BRANCH_CONDITIONAL	ACCESS:    4344280  HIT:    3034534  MISS:    1309746
BTB BRANCH_DIRECT_CALL	ACCESS:    4151171  HIT:    2145079  MISS:    2006092
BTB BRANCH_INDIRECT_CALL	ACCESS:    1411897  HIT:     576080  MISS:     835817
BTB BRANCH_RETURN	ACCESS:    5563020  HIT:    1593870  MISS:    3969150
BTB BRANCH_OTHER ACCESS:          0  HIT:          0  MISS:          0

L2C TOTAL     ACCESS:   24252433  HIT:   21138915  MISS:    3113518  HIT %:     87.162  MISS %:     12.838   MPKI: 15.5676
L2C LOAD      ACCESS:   17128673  HIT:   15600265  MISS:    1528408  HIT %:    91.0769  MISS %:     8.9231   MPKI: 7.64204
L2C DATA LOAD MPKI: 2.13152
L2C INSTRUCTION LOAD MPKI: 5.51052
L2C RFO       ACCESS:    1728594  HIT:    1094705  MISS:     633889  HIT %:    63.3292  MISS %:    36.6708   MPKI: 3.16944
L2C PREFETCH  ACCESS:    2419098  HIT:    1688797  MISS:     730301  HIT %:     69.811  MISS %:     30.189   MPKI: 3.6515
AGUS PREFETCH L1 MISS: 0
L2C DATA PREFETCH MPKI: 3.6515
L2C INSTRUCTION PREFETCH MPKI: 0
L2C WRITEBACK ACCESS:    2801085  HIT:    2672121  MISS:     128964  HIT %:    95.3959  MISS %:    4.60407   MPKI: 0.64482
L2C LOAD TRANSLATION ACCESS:     174983  HIT:      83027  MISS:      91956  HIT %:    47.4486  MISS %:    52.5514   MPKI: 0.45978
L2C PREFETCH  REQUESTED:    2462368  ISSUED:    2462368  USEFUL:     575012  USELESS:     155321
L2C USEFUL LOAD PREFETCHES:     575012 PREFETCH ISSUED TO LOWER LEVEL:     744207  ACCURACY: 77.2651
L2C TIMELY PREFETCHES:     575012 LATE PREFETCHES: 13906 DROPPED PREFETCHES: 0
L2C PREFETCHES SAME FILL-ORIGIN LEVEL: 744207 DIFFERENT FILL-ORIGIN LEVEL: 0
L2C AVERAGE MISS LATENCY: 54.0466 cycles
L2C RQ	ACCESS:   19032285	FORWARD:          0	MERGED:          0	TO_CACHE:   19032251
L2C WQ	ACCESS:    2801085	FORWARD:         41	MERGED:          0	TO_CACHE:    2801085
L2C PQ	ACCESS:    2462368	FORWARD:          0	MERGED:          0	TO_CACHE:    2462361

L2C Instructions Evicting Data 502541
L2C Translations Evicting Data 70435
L2C Data Evicting Data 1272484
L2C Instructions Evicting Instructions 581478
L2C Translations Evicting Instructions 18173
L2C Data Evicting Instructions 449869
L2C Instructions Evicting Translations 18085
L2C Translations Evicting Translations 3348
L2C Data Evicting Translations 68141
L2C Dense regions hint from L2: 0
PSCL5 TOTAL     ACCESS:     108107  HIT:     108107  MISS:          0  HIT %:        100  MISS %:          0   MPKI: 0
PSCL5 LOAD TRANSLATION ACCESS:     108107  HIT:     108107  MISS:          0  HIT %:        100  MISS %:          0   MPKI: 0
PSCL5 PREFETCH  REQUESTED:          0  ISSUED:          0  USEFUL:          0  USELESS:          0
PSCL5 USEFUL LOAD PREFETCHES:          0 PREFETCH ISSUED TO LOWER LEVEL:          0  ACCURACY: -nan
PSCL5 TIMELY PREFETCHES:          0 LATE PREFETCHES: 0 DROPPED PREFETCHES: 0
PSCL5 PREFETCHES SAME FILL-ORIGIN LEVEL: 0 DIFFERENT FILL-ORIGIN LEVEL: 0

PSCL4 TOTAL     ACCESS:     106331  HIT:     105556  MISS:        775  HIT %:    99.2711  MISS %:   0.728856   MPKI: 0.003875
PSCL4 LOAD TRANSLATION ACCESS:     106331  HIT:     105556  MISS:        775  HIT %:    99.2711  MISS %:   0.728856   MPKI: 0.003875
PSCL4 PREFETCH  REQUESTED:          0  ISSUED:          0  USEFUL:          0  USELESS:          0
PSCL4 USEFUL LOAD PREFETCHES:          0 PREFETCH ISSUED TO LOWER LEVEL:          0  ACCURACY: -nan
PSCL4 TIMELY PREFETCHES:          0 LATE PREFETCHES: 0 DROPPED PREFETCHES: 0
PSCL4 PREFETCHES SAME FILL-ORIGIN LEVEL: 0 DIFFERENT FILL-ORIGIN LEVEL: 0

PSCL3 TOTAL     ACCESS:      94633  HIT:      75067  MISS:      19566  HIT %:    79.3243  MISS %:    20.6757   MPKI: 0.09783
PSCL3 LOAD TRANSLATION ACCESS:      94633  HIT:      75067  MISS:      19566  HIT %:    79.3243  MISS %:    20.6757   MPKI: 0.09783
PSCL3 PREFETCH  REQUESTED:          0  ISSUED:          0  USEFUL:          0  USELESS:          0
PSCL3 USEFUL LOAD PREFETCHES:          0 PREFETCH ISSUED TO LOWER LEVEL:          0  ACCURACY: -nan
PSCL3 TIMELY PREFETCHES:          0 LATE PREFETCHES: 0 DROPPED PREFETCHES: 0
PSCL3 PREFETCHES SAME FILL-ORIGIN LEVEL: 0 DIFFERENT FILL-ORIGIN LEVEL: 0

PSCL2 TOTAL     ACCESS:     108107  HIT:      61572  MISS:      46535  HIT %:    56.9547  MISS %:    43.0453   MPKI: 0.232675
PSCL2 LOAD TRANSLATION ACCESS:     108107  HIT:      61572  MISS:      46535  HIT %:    56.9547  MISS %:    43.0453   MPKI: 0.232675
PSCL2 PREFETCH  REQUESTED:          0  ISSUED:          0  USEFUL:          0  USELESS:          0
PSCL2 USEFUL LOAD PREFETCHES:          0 PREFETCH ISSUED TO LOWER LEVEL:          0  ACCURACY: -nan
PSCL2 TIMELY PREFETCHES:          0 LATE PREFETCHES: 0 DROPPED PREFETCHES: 0
PSCL2 PREFETCHES SAME FILL-ORIGIN LEVEL: 0 DIFFERENT FILL-ORIGIN LEVEL: 0

LLC TOTAL     ACCESS:    3983685  HIT:    3644202  MISS:     339483  HIT %:    91.4782  MISS %:    8.52183   MPKI: 1.69741
LLC LOAD      ACCESS:    1515282  HIT:    1449169  MISS:      66113  HIT %:    95.6369  MISS %:    4.36308   MPKI: 0.330565
LLC RFO       ACCESS:     633107  HIT:     514744  MISS:     118363  HIT %:    81.3044  MISS %:    18.6956   MPKI: 0.591815
LLC PREFETCH  ACCESS:     744111  HIT:     611886  MISS:     132225  HIT %:    82.2305  MISS %:    17.7695   MPKI: 0.661125
AGUS PREFETCH L1 MISS: 0
LLC WRITEBACK ACCESS:     999229  HIT:     990793  MISS:       8436  HIT %:    99.1557  MISS %:   0.844251   MPKI: 0.04218
LLC LOAD TRANSLATION ACCESS:      91956  HIT:      77610  MISS:      14346  HIT %:    84.3991  MISS %:    15.6009   MPKI: 0.07173
LLC PREFETCH  REQUESTED:          0  ISSUED:          0  USEFUL:       4141  USELESS:     130586
LLC USEFUL LOAD PREFETCHES:       4141 PREFETCH ISSUED TO LOWER LEVEL:     132225  ACCURACY: 3.13178
LLC TIMELY PREFETCHES:       4141 LATE PREFETCHES: 0 DROPPED PREFETCHES: 0
LLC PREFETCHES SAME FILL-ORIGIN LEVEL: 0 DIFFERENT FILL-ORIGIN LEVEL: 0
LLC AVERAGE MISS LATENCY: 237.8 cycles
LLC RQ	ACCESS:    2240348	FORWARD:          0	MERGED:          0	TO_CACHE:    2240345
LLC WQ	ACCESS:     999229	FORWARD:         99	MERGED:          0	TO_CACHE:     999229
LLC PQ	ACCESS:     744207	FORWARD:          0	MERGED:          0	TO_CACHE:     744111

LLC Dense regions hint to LLC: 0

RAW hits: 1524299
Loads Generated: 52205381
Loads sent to L1D: 50681082
Stores Generated: 26484783
Stores sent to L1D: 26484793
Major fault: 0 Minor fault: 6405
Allocated PAGES: 6405
[Bingo] PHT Access: 1070156
[Bingo] PHT Hit PC+Addr: 600558
[Bingo] PHT Hit PC+Offs: 59904
[Bingo] PHT Miss: 409694
[Bingo] Prefetch PC+Addr: 0
[Bingo] Prefetch PC+Offs: 0
[Bingo] Useful PC+Addr: 0
[Bingo] Useful PC+Offs: 0
[Bingo] Useless PC+Addr: 0
[Bingo] Useless PC+Offs: 0
[Bingo] L1 Prefetch per Region: 0
[Bingo] L2 Prefetch per Region: 4.79273
[Bingo] L3 Prefetch per Region: 0
[Bingo] No Prefetch per Region: 27.2073
[Bingo] Number of Voters Mean: 5.85864
[Bingo] Number of Voters SD: 7.41782
PHT read accesses: 5578161
PHT write accesses: 535084
AT read accesses: 3041590
AT write accesses: 3426497
FT read accesses: 1684804
FT write accesses: 1070156
PS read accesses: 1331424
PS write accesses: 660462
PHT tag read accesses: 17710949
PHT tag write accesses: 1135642
AT tag read accesses: 137970029
AT tag write accesses: 3576673
FT tag read accesses: 114049469
FT tag write accesses: 2206500
PS tag read accesses: 85447770
PS tag write accesses: 1988359

DRAM Statistics
 CHANNEL 0
 RQ ROW_BUFFER_HIT:     132818  ROW_BUFFER_MISS:     198229
 DBUS_CONGESTED:        106
 WQ ROW_BUFFER_HIT:      19652  ROW_BUFFER_MISS:     139994  FULL:          0

 AVG_CONGESTED_CYCLE: 4
 All warmup complete: 2
Channel 0 Bank busy for read cycles: 0
Channel 0 Bank busy for write cycles: 0
Channel 0
Rank 0
0banks busy for read cycles: 754433964
0banks busy for write cycles: 42785
1banks busy for read cycles: 8945324
1banks busy for write cycles: 5335736
2banks busy for read cycles: 2534490
2banks busy for write cycles: 1706511
3banks busy for read cycles: 1040944
3banks busy for write cycles: 823905
4banks busy for read cycles: 681052
4banks busy for write cycles: 503750
5banks busy for read cycles: 487481
5banks busy for write cycles: 353579
6banks busy for read cycles: 448235
6banks busy for write cycles: 234014
7banks busy for read cycles: 363563
7banks busy for write cycles: 242759
8banks busy for read cycles: 1168657
8banks busy for write cycles: 1342183

CPU 0 Branch Prediction Accuracy: 99.9107% MPKI: 0.163205 Average ROB Occupancy at Mispredict: 34.5373
Branch types
NOT_BRANCH: 163456044 81.728%
BRANCH_DIRECT_JUMP: 2345713 1.17286%
BRANCH_INDIRECT: 14157352 7.07868%
BRANCH_CONDITIONAL: 8914733 4.45737%
BRANCH_DIRECT_CALL: 4151171 2.07559%
BRANCH_INDIRECT_CALL: 1411897 0.705948%
BRANCH_RETURN: 5563020 2.78151%
BRANCH_OTHER: 0 0%

DRAM PAGES: 1048576
Allocated PAGES: 6405
