
*** ChampSim Multicore Out-of-Order Simulator ***

Warmup Instructions: 50000000
Simulation Instructions: 200000000
Number of CPUs: 1
LLC sets: 2048
LLC ways: 16
Off-chip DRAM Size: 4096 MB Channels: 1 Width: 64-bit Data Rate: 6400 MT/s
CPU 0 runs traces/spec2k17/srv_66.champsimtrace.xz
.xz
BTB has LRU replacement policy
ITLB has LRU replacement policy
DTLB has LRU replacement policy
STLB has LRU replacement policy
L1I has LRU replacement policy
L1D has LRU replacement policy
Bingo PHT WAYS: 16 and PHT_SIZE: 16384
Initialize SRRIP state for L2C
Initialize DRRIP state for LLC
Heartbeat CPU 0 instructions: 10000000 cycles: 2772517 heartbeat IPC: 3.60683 cumulative IPC: 3.60683 (Simulation time: 0 hr 0 min 33 sec) 
Heartbeat CPU 0 instructions: 20000000 cycles: 5535259 heartbeat IPC: 3.61959 cumulative IPC: 3.6132 (Simulation time: 0 hr 1 min 10 sec) 
Heartbeat CPU 0 instructions: 30000002 cycles: 8298957 heartbeat IPC: 3.61834 cumulative IPC: 3.61491 (Simulation time: 0 hr 1 min 42 sec) 
*** Reached end of trace for Core: 0 Repeating trace: traces/spec2k17/srv_66.champsimtrace.xz
Heartbeat CPU 0 instructions: 40000003 cycles: 11065379 heartbeat IPC: 3.61478 cumulative IPC: 3.61488 (Simulation time: 0 hr 2 min 13 sec) 
Heartbeat CPU 0 instructions: 50000001 cycles: 13828582 heartbeat IPC: 3.61899 cumulative IPC: 3.6157 (Simulation time: 0 hr 2 min 46 sec) 

Warmup complete CPU 0 instructions: 50000001 cycles: 13828582 (Simulation time: 0 hr 2 min 46 sec) 

Heartbeat CPU 0 instructions: 60000000 cycles: 34960026 heartbeat IPC: 0.473228 cumulative IPC: 0.473228 (Simulation time: 0 hr 3 min 38 sec) 
*** Reached end of trace for Core: 0 Repeating trace: traces/spec2k17/srv_66.champsimtrace.xz
Heartbeat CPU 0 instructions: 70000001 cycles: 56853084 heartbeat IPC: 0.456766 cumulative IPC: 0.464851 (Simulation time: 0 hr 4 min 29 sec) 
Heartbeat CPU 0 instructions: 80000002 cycles: 78037233 heartbeat IPC: 0.472051 cumulative IPC: 0.467227 (Simulation time: 0 hr 5 min 19 sec) 
Heartbeat CPU 0 instructions: 90000000 cycles: 99057662 heartbeat IPC: 0.475728 cumulative IPC: 0.469323 (Simulation time: 0 hr 6 min 12 sec) 
*** Reached end of trace for Core: 0 Repeating trace: traces/spec2k17/srv_66.champsimtrace.xz
Heartbeat CPU 0 instructions: 100000001 cycles: 120900476 heartbeat IPC: 0.457817 cumulative IPC: 0.466976 (Simulation time: 0 hr 7 min 6 sec) 
Heartbeat CPU 0 instructions: 110000000 cycles: 141877635 heartbeat IPC: 0.476709 cumulative IPC: 0.46857 (Simulation time: 0 hr 7 min 57 sec) 
Heartbeat CPU 0 instructions: 120000002 cycles: 163084377 heartbeat IPC: 0.471548 cumulative IPC: 0.468994 (Simulation time: 0 hr 8 min 38 sec) 
*** Reached end of trace for Core: 0 Repeating trace: traces/spec2k17/srv_66.champsimtrace.xz
Heartbeat CPU 0 instructions: 130000003 cycles: 184788764 heartbeat IPC: 0.460736 cumulative IPC: 0.467945 (Simulation time: 0 hr 9 min 29 sec) 
Heartbeat CPU 0 instructions: 140000002 cycles: 205838736 heartbeat IPC: 0.47506 cumulative IPC: 0.468725 (Simulation time: 0 hr 10 min 19 sec) 
Heartbeat CPU 0 instructions: 150000003 cycles: 227126744 heartbeat IPC: 0.469748 cumulative IPC: 0.468827 (Simulation time: 0 hr 11 min 9 sec) 
*** Reached end of trace for Core: 0 Repeating trace: traces/spec2k17/srv_66.champsimtrace.xz
Heartbeat CPU 0 instructions: 160000002 cycles: 248546143 heartbeat IPC: 0.466866 cumulative IPC: 0.468648 (Simulation time: 0 hr 12 min 0 sec) 
Heartbeat CPU 0 instructions: 170000000 cycles: 269768388 heartbeat IPC: 0.471204 cumulative IPC: 0.46886 (Simulation time: 0 hr 12 min 47 sec) 
Heartbeat CPU 0 instructions: 180000002 cycles: 291073438 heartbeat IPC: 0.469372 cumulative IPC: 0.4689 (Simulation time: 0 hr 13 min 38 sec) 
*** Reached end of trace for Core: 0 Repeating trace: traces/spec2k17/srv_66.champsimtrace.xz
Heartbeat CPU 0 instructions: 190000003 cycles: 312440785 heartbeat IPC: 0.468004 cumulative IPC: 0.468836 (Simulation time: 0 hr 14 min 19 sec) 
Heartbeat CPU 0 instructions: 200000002 cycles: 333583005 heartbeat IPC: 0.472987 cumulative IPC: 0.46911 (Simulation time: 0 hr 15 min 9 sec) 
Heartbeat CPU 0 instructions: 210000003 cycles: 355002691 heartbeat IPC: 0.46686 cumulative IPC: 0.468969 (Simulation time: 0 hr 15 min 59 sec) 
*** Reached end of trace for Core: 0 Repeating trace: traces/spec2k17/srv_66.champsimtrace.xz
Heartbeat CPU 0 instructions: 220000000 cycles: 376196399 heartbeat IPC: 0.471838 cumulative IPC: 0.469137 (Simulation time: 0 hr 16 min 51 sec) 
Heartbeat CPU 0 instructions: 230000002 cycles: 397426706 heartbeat IPC: 0.471025 cumulative IPC: 0.469241 (Simulation time: 0 hr 17 min 42 sec) 
Heartbeat CPU 0 instructions: 240000002 cycles: 418782937 heartbeat IPC: 0.468247 cumulative IPC: 0.469189 (Simulation time: 0 hr 18 min 28 sec) 
*** Reached end of trace for Core: 0 Repeating trace: traces/spec2k17/srv_66.champsimtrace.xz
Heartbeat CPU 0 instructions: 250000003 cycles: 439866717 heartbeat IPC: 0.474298 cumulative IPC: 0.469442 (Simulation time: 0 hr 18 min 59 sec) 
Finished CPU 0 instructions: 200000002 cycles: 426038135 cumulative IPC: 0.469442 (Simulation time: 0 hr 18 min 59 sec) 

ChampSim completed all CPUs

Region of Interest Statistics

CPU 0 cumulative IPC: 0.469442 instructions: 200000002 cycles: 426038135
ITLB TOTAL     ACCESS:   31542315  HIT:   30748553  MISS:     793762  HIT %:    97.4835  MISS %:     2.5165   MPKI: 3.96881
ITLB LOAD TRANSLATION ACCESS:   31542315  HIT:   30748553  MISS:     793762  HIT %:    97.4835  MISS %:     2.5165   MPKI: 3.96881
ITLB PREFETCH  REQUESTED:          0  ISSUED:          0  USEFUL:          0  USELESS:          0
ITLB USEFUL LOAD PREFETCHES:          0 PREFETCH ISSUED TO LOWER LEVEL:          0  ACCURACY: -nan
ITLB TIMELY PREFETCHES:          0 LATE PREFETCHES: 0 DROPPED PREFETCHES: 0
ITLB PREFETCHES SAME FILL-ORIGIN LEVEL: 0 DIFFERENT FILL-ORIGIN LEVEL: 0
ITLB AVERAGE MISS LATENCY: 14.0756 cycles
ITLB RQ	ACCESS:   38320250	FORWARD:          0	MERGED:    6583836	TO_CACHE:   31736414

DTLB TOTAL     ACCESS:   37322600  HIT:   34753517  MISS:    2569083  HIT %:    93.1165  MISS %:    6.88345   MPKI: 12.8454
DTLB LOAD TRANSLATION ACCESS:   37322600  HIT:   34753517  MISS:    2569083  HIT %:    93.1165  MISS %:    6.88345   MPKI: 12.8454
DTLB PREFETCH  REQUESTED:          0  ISSUED:          0  USEFUL:          0  USELESS:          0
DTLB USEFUL LOAD PREFETCHES:          0 PREFETCH ISSUED TO LOWER LEVEL:          0  ACCURACY: -nan
DTLB TIMELY PREFETCHES:          0 LATE PREFETCHES: 0 DROPPED PREFETCHES: 0
DTLB PREFETCHES SAME FILL-ORIGIN LEVEL: 0 DIFFERENT FILL-ORIGIN LEVEL: 0
DTLB AVERAGE MISS LATENCY: 13.7995 cycles
DTLB RQ	ACCESS:   47751438	FORWARD:          0	MERGED:   10280382	TO_CACHE:   37471056

STLB TOTAL     ACCESS:    3362845  HIT:    3020107  MISS:     342738  HIT %:    89.8081  MISS %:    10.1919   MPKI: 1.71369
STLB LOAD TRANSLATION ACCESS:    3362845  HIT:    3020107  MISS:     342738  HIT %:    89.8081  MISS %:    10.1919   MPKI: 1.71369
STLB PREFETCH  REQUESTED:          0  ISSUED:          0  USEFUL:          0  USELESS:          0
STLB USEFUL LOAD PREFETCHES:          0 PREFETCH ISSUED TO LOWER LEVEL:          0  ACCURACY: -nan
STLB TIMELY PREFETCHES:          0 LATE PREFETCHES: 0 DROPPED PREFETCHES: 0
STLB PREFETCHES SAME FILL-ORIGIN LEVEL: 0 DIFFERENT FILL-ORIGIN LEVEL: 0
STLB AVERAGE MISS LATENCY: 47.475 cycles
STLB RQ	ACCESS:    3362845	FORWARD:          0	MERGED:          0	TO_CACHE:    3362845

STLB Hit, L1D data hit: 0
STLB Hit, L2C data hit: 0
STLB Hit, LLC data hit: 0
STLB Hit, LLC data miss: 0
STLB STLB hints to L2: 0
L1D TOTAL     ACCESS:   47263230  HIT:   44831392  MISS:    2431838  HIT %:    94.8547  MISS %:    5.14531   MPKI: 12.1592
L1D LOAD      ACCESS:   27662677  HIT:   25563052  MISS:    2099625  HIT %:    92.4099  MISS %:     7.5901   MPKI: 10.4981
L1D RFO       ACCESS:   19600553  HIT:   19268340  MISS:     332213  HIT %:    98.3051  MISS %:    1.69492   MPKI: 1.66106
L1D PREFETCH  REQUESTED:          0  ISSUED:          0  USEFUL:          0  USELESS:          0
L1D USEFUL LOAD PREFETCHES:          0 PREFETCH ISSUED TO LOWER LEVEL:          0  ACCURACY: -nan
L1D TIMELY PREFETCHES:          0 LATE PREFETCHES: 0 DROPPED PREFETCHES: 0
L1D PREFETCHES SAME FILL-ORIGIN LEVEL: 0 DIFFERENT FILL-ORIGIN LEVEL: 0
L1D AVERAGE MISS LATENCY: 28.7909 cycles
L1D RQ	ACCESS:   42301725	FORWARD:          0	MERGED:   14313209	TO_CACHE:   27741267
L1D WQ	ACCESS:   20281804	FORWARD:     247249	MERGED:     271633	TO_CACHE:   20010171

L1D UNIQUE REGIONS ACCESSED: 0
L1D REGIONS CONFLICTS: 0
L1D Cross Page Prefetch Requests: 0
L1D Same Page Prefetch Requests: 0
L1D ROI Sum of L1D PQ occupancy: 0
L1D PREFETCHES PUSHED FROM L2C: 0
L1I TOTAL     ACCESS:   36536211  HIT:   31497746  MISS:    5038465  HIT %:    86.2097  MISS %:    13.7903   MPKI: 25.1923
L1I LOAD      ACCESS:   36536211  HIT:   31497746  MISS:    5038465  HIT %:    86.2097  MISS %:    13.7903   MPKI: 25.1923
L1I PREFETCH  REQUESTED:          0  ISSUED:          0  USEFUL:          0  USELESS:          0
L1I USEFUL LOAD PREFETCHES:          0 PREFETCH ISSUED TO LOWER LEVEL:          0  ACCURACY: -nan
L1I TIMELY PREFETCHES:          0 LATE PREFETCHES: 0 DROPPED PREFETCHES: 0
L1I PREFETCHES SAME FILL-ORIGIN LEVEL: 0 DIFFERENT FILL-ORIGIN LEVEL: 0
L1I AVERAGE MISS LATENCY: 25.8482 cycles
L1I RQ	ACCESS:   57199562	FORWARD:          0	MERGED:   18879312	TO_CACHE:   38320250

BTB TOTAL     ACCESS:   22223395  HIT:   18065540  MISS:    4157855  HIT %:    81.2906  MISS %:    18.7094   MPKI: 20.7893
BTB BRANCH_DIRECT_JUMP	ACCESS:    1718257  HIT:    1473997  MISS:     244260
BTB BRANCH_INDIRECT	ACCESS:    9436324  HIT:    7433911  MISS:    2002413
BTB BRANCH_CONDITIONAL	ACCESS:    4754690  HIT:    4374903  MISS:     379787
BTB BRANCH_DIRECT_CALL	ACCESS:    2480174  HIT:    2032253  MISS:     447921
BTB BRANCH_INDIRECT_CALL	ACCESS:     676469  HIT:     636836  MISS:      39633
BTB BRANCH_RETURN	ACCESS:    3157481  HIT:    2113640  MISS:    1043841
BTB BRANCH_OTHER ACCESS:          0  HIT:          0  MISS:          0

L2C TOTAL     ACCESS:   10290186  HIT:    7065225  MISS:    3224961  HIT %:    68.6598  MISS %:    31.3402   MPKI: 16.1248
L2C LOAD      ACCESS:    7138016  HIT:    4802721  MISS:    2335295  HIT %:    67.2837  MISS %:    32.7163   MPKI: 11.6765
L2C DATA LOAD MPKI: 2.25468
L2C INSTRUCTION LOAD MPKI: 9.42179
L2C RFO       ACCESS:     332209  HIT:     187400  MISS:     144809  HIT %:    56.4103  MISS %:    43.5897   MPKI: 0.724045
L2C PREFETCH  ACCESS:    1360226  HIT:     839056  MISS:     521170  HIT %:     61.685  MISS %:     38.315   MPKI: 2.60585
AGUS PREFETCH L1 MISS: 0
L2C DATA PREFETCH MPKI: 2.60585
L2C INSTRUCTION PREFETCH MPKI: 0
L2C WRITEBACK ACCESS:    1004910  HIT:     968552  MISS:      36358  HIT %:     96.382  MISS %:    3.61804   MPKI: 0.18179
L2C LOAD TRANSLATION ACCESS:     454825  HIT:     267496  MISS:     187329  HIT %:     58.813  MISS %:     41.187   MPKI: 0.936645
L2C PREFETCH  REQUESTED:    1404821  ISSUED:    1404821  USEFUL:     401931  USELESS:     119253
L2C USEFUL LOAD PREFETCHES:     401931 PREFETCH ISSUED TO LOWER LEVEL:     531892  ACCURACY: 75.5663
L2C TIMELY PREFETCHES:     401931 LATE PREFETCHES: 10722 DROPPED PREFETCHES: 0
L2C PREFETCHES SAME FILL-ORIGIN LEVEL: 531892 DIFFERENT FILL-ORIGIN LEVEL: 0
L2C AVERAGE MISS LATENCY: 46.6305 cycles
L2C RQ	ACCESS:    7925128	FORWARD:          0	MERGED:          0	TO_CACHE:    7925050
L2C WQ	ACCESS:    1004910	FORWARD:         78	MERGED:          0	TO_CACHE:    1004910
L2C PQ	ACCESS:    1404821	FORWARD:          0	MERGED:          0	TO_CACHE:    1404821

L2C Instructions Evicting Data 651639
L2C Translations Evicting Data 69058
L2C Data Evicting Data 417645
L2C Instructions Evicting Instructions 1128257
L2C Translations Evicting Instructions 104260
L2C Data Evicting Instructions 632163
L2C Instructions Evicting Translations 104462
L2C Translations Evicting Translations 14011
L2C Data Evicting Translations 67108
L2C Dense regions hint from L2: 0
PSCL5 TOTAL     ACCESS:     342738  HIT:     342738  MISS:          0  HIT %:        100  MISS %:          0   MPKI: 0
PSCL5 LOAD TRANSLATION ACCESS:     342738  HIT:     342738  MISS:          0  HIT %:        100  MISS %:          0   MPKI: 0
PSCL5 PREFETCH  REQUESTED:          0  ISSUED:          0  USEFUL:          0  USELESS:          0
PSCL5 USEFUL LOAD PREFETCHES:          0 PREFETCH ISSUED TO LOWER LEVEL:          0  ACCURACY: -nan
PSCL5 TIMELY PREFETCHES:          0 LATE PREFETCHES: 0 DROPPED PREFETCHES: 0
PSCL5 PREFETCHES SAME FILL-ORIGIN LEVEL: 0 DIFFERENT FILL-ORIGIN LEVEL: 0

PSCL4 TOTAL     ACCESS:     333527  HIT:     332267  MISS:       1260  HIT %:    99.6222  MISS %:   0.377781   MPKI: 0.0063
PSCL4 LOAD TRANSLATION ACCESS:     333527  HIT:     332267  MISS:       1260  HIT %:    99.6222  MISS %:   0.377781   MPKI: 0.0063
PSCL4 PREFETCH  REQUESTED:          0  ISSUED:          0  USEFUL:          0  USELESS:          0
PSCL4 USEFUL LOAD PREFETCHES:          0 PREFETCH ISSUED TO LOWER LEVEL:          0  ACCURACY: -nan
PSCL4 TIMELY PREFETCHES:          0 LATE PREFETCHES: 0 DROPPED PREFETCHES: 0
PSCL4 PREFETCHES SAME FILL-ORIGIN LEVEL: 0 DIFFERENT FILL-ORIGIN LEVEL: 0

PSCL3 TOTAL     ACCESS:     340151  HIT:     338891  MISS:       1260  HIT %:    99.6296  MISS %:   0.370424   MPKI: 0.0063
PSCL3 LOAD TRANSLATION ACCESS:     340151  HIT:     338891  MISS:       1260  HIT %:    99.6296  MISS %:   0.370424   MPKI: 0.0063
PSCL3 PREFETCH  REQUESTED:          0  ISSUED:          0  USEFUL:          0  USELESS:          0
PSCL3 USEFUL LOAD PREFETCHES:          0 PREFETCH ISSUED TO LOWER LEVEL:          0  ACCURACY: -nan
PSCL3 TIMELY PREFETCHES:          0 LATE PREFETCHES: 0 DROPPED PREFETCHES: 0
PSCL3 PREFETCHES SAME FILL-ORIGIN LEVEL: 0 DIFFERENT FILL-ORIGIN LEVEL: 0

PSCL2 TOTAL     ACCESS:     342738  HIT:     233171  MISS:     109567  HIT %:    68.0318  MISS %:    31.9682   MPKI: 0.547835
PSCL2 LOAD TRANSLATION ACCESS:     342738  HIT:     233171  MISS:     109567  HIT %:    68.0318  MISS %:    31.9682   MPKI: 0.547835
PSCL2 PREFETCH  REQUESTED:          0  ISSUED:          0  USEFUL:          0  USELESS:          0
PSCL2 USEFUL LOAD PREFETCHES:          0 PREFETCH ISSUED TO LOWER LEVEL:          0  ACCURACY: -nan
PSCL2 TIMELY PREFETCHES:          0 LATE PREFETCHES: 0 DROPPED PREFETCHES: 0
PSCL2 PREFETCHES SAME FILL-ORIGIN LEVEL: 0 DIFFERENT FILL-ORIGIN LEVEL: 0

LLC TOTAL     ACCESS:    3631201  HIT:    3294598  MISS:     336603  HIT %:    90.7303  MISS %:    9.26974   MPKI: 1.68301
LLC LOAD      ACCESS:    2324737  HIT:    2246949  MISS:      77788  HIT %:    96.6539  MISS %:     3.3461   MPKI: 0.38894
LLC RFO       ACCESS:     144645  HIT:      99957  MISS:      44688  HIT %:    69.1051  MISS %:    30.8949   MPKI: 0.22344
LLC PREFETCH  ACCESS:     531886  HIT:     333168  MISS:     198718  HIT %:     62.639  MISS %:     37.361   MPKI: 0.99359
AGUS PREFETCH L1 MISS: 0
LLC WRITEBACK ACCESS:     442604  HIT:     440622  MISS:       1982  HIT %:    99.5522  MISS %:   0.447804   MPKI: 0.00991
LLC LOAD TRANSLATION ACCESS:     187329  HIT:     173902  MISS:      13427  HIT %:    92.8324  MISS %:     7.1676   MPKI: 0.067135
LLC PREFETCH  REQUESTED:          0  ISSUED:          0  USEFUL:       4713  USELESS:     193991
LLC USEFUL LOAD PREFETCHES:       4713 PREFETCH ISSUED TO LOWER LEVEL:     198718  ACCURACY: 2.3717
LLC TIMELY PREFETCHES:       4713 LATE PREFETCHES: 0 DROPPED PREFETCHES: 0
LLC PREFETCHES SAME FILL-ORIGIN LEVEL: 0 DIFFERENT FILL-ORIGIN LEVEL: 0
LLC AVERAGE MISS LATENCY: 163.596 cycles
LLC RQ	ACCESS:    2656711	FORWARD:          0	MERGED:          0	TO_CACHE:    2656711
LLC WQ	ACCESS:     442604	FORWARD:          6	MERGED:          0	TO_CACHE:     442604
LLC PQ	ACCESS:     531892	FORWARD:          0	MERGED:          0	TO_CACHE:     531886

LLC Dense regions hint to LLC: 0

RAW hits: 2666515
Loads Generated: 44968240
Loads sent to L1D: 42301725
Stores Generated: 20281799
Stores sent to L1D: 20281804
Major fault: 0 Minor fault: 6269
Allocated PAGES: 6269
[Bingo] PHT Access: 839072
[Bingo] PHT Hit PC+Addr: 399939
[Bingo] PHT Hit PC+Offs: 47704
[Bingo] PHT Miss: 391429
[Bingo] Prefetch PC+Addr: 0
[Bingo] Prefetch PC+Offs: 0
[Bingo] Useful PC+Addr: 0
[Bingo] Useful PC+Offs: 0
[Bingo] Useless PC+Addr: 0
[Bingo] Useless PC+Offs: 0
[Bingo] L1 Prefetch per Region: 0
[Bingo] L2 Prefetch per Region: 4.14327
[Bingo] L3 Prefetch per Region: 0
[Bingo] No Prefetch per Region: 27.8567
[Bingo] Number of Voters Mean: 4.72671
[Bingo] Number of Voters SD: 5.49589
PHT read accesses: 5028779
PHT write accesses: 331620
AT read accesses: 1332610
AT write accesses: 1588497
FT read accesses: 1024466
FT write accesses: 839072
PS read accesses: 906067
PS write accesses: 447643
PHT tag read accesses: 13540404
PHT tag write accesses: 731559
AT tag read accesses: 100540867
AT tag write accesses: 1664228
FT tag read accesses: 99872478
FT tag write accesses: 1528320
PS tag read accesses: 48628666
PS tag write accesses: 1353433

DRAM Statistics
 CHANNEL 0
 RQ ROW_BUFFER_HIT:     116314  ROW_BUFFER_MISS:     218307
 DBUS_CONGESTED:        150
 WQ ROW_BUFFER_HIT:      30939  ROW_BUFFER_MISS:     188994  FULL:          0

 AVG_CONGESTED_CYCLE: 4
 All warmup complete: 2
Channel 0 Bank busy for read cycles: 0
Channel 0 Bank busy for write cycles: 0
Channel 0
Rank 0
0banks busy for read cycles: 396159688
0banks busy for write cycles: 46319
1banks busy for read cycles: 9642658
1banks busy for write cycles: 5388293
2banks busy for read cycles: 2368730
2banks busy for write cycles: 2091669
3banks busy for read cycles: 1215721
3banks busy for write cycles: 1391860
4banks busy for read cycles: 837674
4banks busy for write cycles: 1110169
5banks busy for read cycles: 497205
5banks busy for write cycles: 912897
6banks busy for read cycles: 368184
6banks busy for write cycles: 820985
7banks busy for read cycles: 462698
7banks busy for write cycles: 753874
8banks busy for read cycles: 1156419
8banks busy for write cycles: 813093

CPU 0 Branch Prediction Accuracy: 99.8407% MPKI: 0.28518 Average ROB Occupancy at Mispredict: 41.0175
Branch types
NOT_BRANCH: 164201242 82.1006%
BRANCH_DIRECT_JUMP: 1718257 0.859128%
BRANCH_INDIRECT: 9436324 4.71816%
BRANCH_CONDITIONAL: 18329755 9.16488%
BRANCH_DIRECT_CALL: 2480174 1.24009%
BRANCH_INDIRECT_CALL: 676469 0.338234%
BRANCH_RETURN: 3157481 1.57874%
BRANCH_OTHER: 0 0%

DRAM PAGES: 1048576
Allocated PAGES: 6269
