
*** ChampSim Multicore Out-of-Order Simulator ***

Warmup Instructions: 50000000
Simulation Instructions: 200000000
Number of CPUs: 1
LLC sets: 2048
LLC ways: 16
Off-chip DRAM Size: 4096 MB Channels: 1 Width: 64-bit Data Rate: 6400 MT/s
CPU 0 runs traces/spec2k17/srv_5.champsimtrace.xz
.xz
BTB has LRU replacement policy
ITLB has LRU replacement policy
DTLB has LRU replacement policy
STLB has LRU replacement policy
L1I has LRU replacement policy
L1D has LRU replacement policy
Bingo PHT WAYS: 16 and PHT_SIZE: 16384
Initialize SRRIP state for L2C
Initialize DRRIP state for LLC
Heartbeat CPU 0 instructions: 10000002 cycles: 2764846 heartbeat IPC: 3.61684 cumulative IPC: 3.61684 (Simulation time: 0 hr 0 min 33 sec) 
Heartbeat CPU 0 instructions: 20000003 cycles: 5519503 heartbeat IPC: 3.63022 cumulative IPC: 3.62352 (Simulation time: 0 hr 1 min 6 sec) 
Heartbeat CPU 0 instructions: 30000002 cycles: 8277837 heartbeat IPC: 3.62538 cumulative IPC: 3.62414 (Simulation time: 0 hr 1 min 41 sec) 
*** Reached end of trace for Core: 0 Repeating trace: traces/spec2k17/srv_5.champsimtrace.xz
Heartbeat CPU 0 instructions: 40000002 cycles: 11036488 heartbeat IPC: 3.62496 cumulative IPC: 3.62434 (Simulation time: 0 hr 2 min 16 sec) 
Heartbeat CPU 0 instructions: 50000002 cycles: 13790692 heartbeat IPC: 3.63081 cumulative IPC: 3.62563 (Simulation time: 0 hr 2 min 51 sec) 

Warmup complete CPU 0 instructions: 50000002 cycles: 13790692 (Simulation time: 0 hr 2 min 51 sec) 

Heartbeat CPU 0 instructions: 60000001 cycles: 35369039 heartbeat IPC: 0.463427 cumulative IPC: 0.463427 (Simulation time: 0 hr 3 min 49 sec) 
*** Reached end of trace for Core: 0 Repeating trace: traces/spec2k17/srv_5.champsimtrace.xz
Heartbeat CPU 0 instructions: 70000000 cycles: 56951114 heartbeat IPC: 0.463347 cumulative IPC: 0.463387 (Simulation time: 0 hr 4 min 43 sec) 
Heartbeat CPU 0 instructions: 80000001 cycles: 77933069 heartbeat IPC: 0.4766 cumulative IPC: 0.46771 (Simulation time: 0 hr 5 min 34 sec) 
Heartbeat CPU 0 instructions: 90000002 cycles: 99598570 heartbeat IPC: 0.461563 cumulative IPC: 0.466158 (Simulation time: 0 hr 6 min 28 sec) 
*** Reached end of trace for Core: 0 Repeating trace: traces/spec2k17/srv_5.champsimtrace.xz
Heartbeat CPU 0 instructions: 100000001 cycles: 120796815 heartbeat IPC: 0.471737 cumulative IPC: 0.467263 (Simulation time: 0 hr 7 min 21 sec) 
Heartbeat CPU 0 instructions: 110000000 cycles: 142018633 heartbeat IPC: 0.471213 cumulative IPC: 0.467917 (Simulation time: 0 hr 8 min 12 sec) 
Heartbeat CPU 0 instructions: 120000001 cycles: 163535931 heartbeat IPC: 0.464742 cumulative IPC: 0.467461 (Simulation time: 0 hr 9 min 4 sec) 
*** Reached end of trace for Core: 0 Repeating trace: traces/spec2k17/srv_5.champsimtrace.xz
Heartbeat CPU 0 instructions: 130000001 cycles: 184659177 heartbeat IPC: 0.473412 cumulative IPC: 0.468196 (Simulation time: 0 hr 9 min 50 sec) 
Heartbeat CPU 0 instructions: 140000003 cycles: 205861283 heartbeat IPC: 0.471651 cumulative IPC: 0.468578 (Simulation time: 0 hr 10 min 36 sec) 
Heartbeat CPU 0 instructions: 150000000 cycles: 227189606 heartbeat IPC: 0.46886 cumulative IPC: 0.468606 (Simulation time: 0 hr 11 min 25 sec) 
*** Reached end of trace for Core: 0 Repeating trace: traces/spec2k17/srv_5.champsimtrace.xz
Heartbeat CPU 0 instructions: 160000000 cycles: 248297926 heartbeat IPC: 0.473747 cumulative IPC: 0.469069 (Simulation time: 0 hr 12 min 15 sec) 
Heartbeat CPU 0 instructions: 170000002 cycles: 269783409 heartbeat IPC: 0.465431 cumulative IPC: 0.468763 (Simulation time: 0 hr 13 min 3 sec) 
Heartbeat CPU 0 instructions: 180000000 cycles: 290996665 heartbeat IPC: 0.471403 cumulative IPC: 0.468965 (Simulation time: 0 hr 13 min 51 sec) 
*** Reached end of trace for Core: 0 Repeating trace: traces/spec2k17/srv_5.champsimtrace.xz
Heartbeat CPU 0 instructions: 190000000 cycles: 312176777 heartbeat IPC: 0.472141 cumulative IPC: 0.469191 (Simulation time: 0 hr 14 min 41 sec) 
Heartbeat CPU 0 instructions: 200000003 cycles: 333728778 heartbeat IPC: 0.463994 cumulative IPC: 0.468841 (Simulation time: 0 hr 15 min 33 sec) 
Heartbeat CPU 0 instructions: 210000000 cycles: 354785139 heartbeat IPC: 0.474916 cumulative IPC: 0.469216 (Simulation time: 0 hr 16 min 25 sec) 
*** Reached end of trace for Core: 0 Repeating trace: traces/spec2k17/srv_5.champsimtrace.xz
Heartbeat CPU 0 instructions: 220000000 cycles: 376037882 heartbeat IPC: 0.470527 cumulative IPC: 0.469293 (Simulation time: 0 hr 17 min 15 sec) 
Heartbeat CPU 0 instructions: 230000003 cycles: 397635953 heartbeat IPC: 0.463004 cumulative IPC: 0.468939 (Simulation time: 0 hr 18 min 0 sec) 
Heartbeat CPU 0 instructions: 240000002 cycles: 418714972 heartbeat IPC: 0.474405 cumulative IPC: 0.469224 (Simulation time: 0 hr 18 min 45 sec) 
*** Reached end of trace for Core: 0 Repeating trace: traces/spec2k17/srv_5.champsimtrace.xz
Heartbeat CPU 0 instructions: 250000001 cycles: 439962684 heartbeat IPC: 0.470639 cumulative IPC: 0.469294 (Simulation time: 0 hr 19 min 26 sec) 
Finished CPU 0 instructions: 200000000 cycles: 426171993 cumulative IPC: 0.469294 (Simulation time: 0 hr 19 min 26 sec) 

ChampSim completed all CPUs

Region of Interest Statistics

CPU 0 cumulative IPC: 0.469294 instructions: 200000000 cycles: 426171993
ITLB TOTAL     ACCESS:   31214680  HIT:   30406909  MISS:     807771  HIT %:    97.4122  MISS %:    2.58779   MPKI: 4.03885
ITLB LOAD TRANSLATION ACCESS:   31214680  HIT:   30406909  MISS:     807771  HIT %:    97.4122  MISS %:    2.58779   MPKI: 4.03885
ITLB PREFETCH  REQUESTED:          0  ISSUED:          0  USEFUL:          0  USELESS:          0
ITLB USEFUL LOAD PREFETCHES:          0 PREFETCH ISSUED TO LOWER LEVEL:          0  ACCURACY: -nan
ITLB TIMELY PREFETCHES:          0 LATE PREFETCHES: 0 DROPPED PREFETCHES: 0
ITLB PREFETCHES SAME FILL-ORIGIN LEVEL: 0 DIFFERENT FILL-ORIGIN LEVEL: 0
ITLB AVERAGE MISS LATENCY: 13.4932 cycles
ITLB RQ	ACCESS:   38117990	FORWARD:          0	MERGED:    6699442	TO_CACHE:   31418548

DTLB TOTAL     ACCESS:   37352768  HIT:   34738870  MISS:    2613898  HIT %:    93.0021  MISS %:    6.99787   MPKI: 13.0695
DTLB LOAD TRANSLATION ACCESS:   37352768  HIT:   34738870  MISS:    2613898  HIT %:    93.0021  MISS %:    6.99787   MPKI: 13.0695
DTLB PREFETCH  REQUESTED:          0  ISSUED:          0  USEFUL:          0  USELESS:          0
DTLB USEFUL LOAD PREFETCHES:          0 PREFETCH ISSUED TO LOWER LEVEL:          0  ACCURACY: -nan
DTLB TIMELY PREFETCHES:          0 LATE PREFETCHES: 0 DROPPED PREFETCHES: 0
DTLB PREFETCHES SAME FILL-ORIGIN LEVEL: 0 DIFFERENT FILL-ORIGIN LEVEL: 0
DTLB AVERAGE MISS LATENCY: 13.4301 cycles
DTLB RQ	ACCESS:   47689541	FORWARD:          0	MERGED:   10189913	TO_CACHE:   37499628

STLB TOTAL     ACCESS:    3421669  HIT:    3102419  MISS:     319250  HIT %:    90.6698  MISS %:    9.33024   MPKI: 1.59625
STLB LOAD TRANSLATION ACCESS:    3421669  HIT:    3102419  MISS:     319250  HIT %:    90.6698  MISS %:    9.33024   MPKI: 1.59625
STLB PREFETCH  REQUESTED:          0  ISSUED:          0  USEFUL:          0  USELESS:          0
STLB USEFUL LOAD PREFETCHES:          0 PREFETCH ISSUED TO LOWER LEVEL:          0  ACCURACY: -nan
STLB TIMELY PREFETCHES:          0 LATE PREFETCHES: 0 DROPPED PREFETCHES: 0
STLB PREFETCHES SAME FILL-ORIGIN LEVEL: 0 DIFFERENT FILL-ORIGIN LEVEL: 0
STLB AVERAGE MISS LATENCY: 47.3592 cycles
STLB RQ	ACCESS:    3421669	FORWARD:          0	MERGED:          0	TO_CACHE:    3421669

STLB Hit, L1D data hit: 0
STLB Hit, L2C data hit: 0
STLB Hit, LLC data hit: 0
STLB Hit, LLC data miss: 0
STLB STLB hints to L2: 0
L1D TOTAL     ACCESS:   47212945  HIT:   44754736  MISS:    2458209  HIT %:    94.7934  MISS %:    5.20664   MPKI: 12.291
L1D LOAD      ACCESS:   27703471  HIT:   25578250  MISS:    2125221  HIT %:    92.3287  MISS %:    7.67132   MPKI: 10.6261
L1D RFO       ACCESS:   19509474  HIT:   19176486  MISS:     332988  HIT %:    98.2932  MISS %:     1.7068   MPKI: 1.66494
L1D PREFETCH  REQUESTED:          0  ISSUED:          0  USEFUL:          0  USELESS:          0
L1D USEFUL LOAD PREFETCHES:          0 PREFETCH ISSUED TO LOWER LEVEL:          0  ACCURACY: -nan
L1D TIMELY PREFETCHES:          0 LATE PREFETCHES: 0 DROPPED PREFETCHES: 0
L1D PREFETCHES SAME FILL-ORIGIN LEVEL: 0 DIFFERENT FILL-ORIGIN LEVEL: 0
L1D AVERAGE MISS LATENCY: 28.6351 cycles
L1D RQ	ACCESS:   42169305	FORWARD:          0	MERGED:   14167237	TO_CACHE:   27778211
L1D WQ	ACCESS:   20207881	FORWARD:     223857	MERGED:     296551	TO_CACHE:   19911330

L1D UNIQUE REGIONS ACCESSED: 0
L1D REGIONS CONFLICTS: 0
L1D Cross Page Prefetch Requests: 0
L1D Same Page Prefetch Requests: 0
L1D ROI Sum of L1D PQ occupancy: 0
L1D PREFETCHES PUSHED FROM L2C: 0
L1I TOTAL     ACCESS:   36283078  HIT:   31131622  MISS:    5151456  HIT %:     85.802  MISS %:     14.198   MPKI: 25.7573
L1I LOAD      ACCESS:   36283078  HIT:   31131622  MISS:    5151456  HIT %:     85.802  MISS %:     14.198   MPKI: 25.7573
L1I PREFETCH  REQUESTED:          0  ISSUED:          0  USEFUL:          0  USELESS:          0
L1I USEFUL LOAD PREFETCHES:          0 PREFETCH ISSUED TO LOWER LEVEL:          0  ACCURACY: -nan
L1I TIMELY PREFETCHES:          0 LATE PREFETCHES: 0 DROPPED PREFETCHES: 0
L1I PREFETCHES SAME FILL-ORIGIN LEVEL: 0 DIFFERENT FILL-ORIGIN LEVEL: 0
L1I AVERAGE MISS LATENCY: 25.3256 cycles
L1I RQ	ACCESS:   57133937	FORWARD:          0	MERGED:   19015947	TO_CACHE:   38117990

BTB TOTAL     ACCESS:   22212153  HIT:   17957529  MISS:    4254624  HIT %:    80.8455  MISS %:    19.1545   MPKI: 21.2731
BTB BRANCH_DIRECT_JUMP	ACCESS:    1780172  HIT:    1545024  MISS:     235148
BTB BRANCH_INDIRECT	ACCESS:    9535407  HIT:    7469894  MISS:    2065513
BTB BRANCH_CONDITIONAL	ACCESS:    4548641  HIT:    4163963  MISS:     384678
BTB BRANCH_DIRECT_CALL	ACCESS:    2494547  HIT:    2037677  MISS:     456870
BTB BRANCH_INDIRECT_CALL	ACCESS:     678804  HIT:     637539  MISS:      41265
BTB BRANCH_RETURN	ACCESS:    3174582  HIT:    2103432  MISS:    1071150
BTB BRANCH_OTHER ACCESS:          0  HIT:          0  MISS:          0

L2C TOTAL     ACCESS:   10388493  HIT:    7167741  MISS:    3220752  HIT %:    68.9969  MISS %:    31.0031   MPKI: 16.1038
L2C LOAD      ACCESS:    7276569  HIT:    4916787  MISS:    2359782  HIT %:    67.5701  MISS %:    32.4299   MPKI: 11.7989
L2C DATA LOAD MPKI: 2.32393
L2C INSTRUCTION LOAD MPKI: 9.47499
L2C RFO       ACCESS:     332981  HIT:     192770  MISS:     140211  HIT %:    57.8922  MISS %:    42.1078   MPKI: 0.701055
L2C PREFETCH  ACCESS:    1342606  HIT:     833296  MISS:     509310  HIT %:    62.0656  MISS %:    37.9344   MPKI: 2.54655
AGUS PREFETCH L1 MISS: 0
L2C DATA PREFETCH MPKI: 2.54655
L2C INSTRUCTION PREFETCH MPKI: 0
L2C WRITEBACK ACCESS:    1014563  HIT:     980228  MISS:      34335  HIT %:    96.6158  MISS %:    3.38422   MPKI: 0.171675
L2C LOAD TRANSLATION ACCESS:     421774  HIT:     244660  MISS:     177114  HIT %:    58.0074  MISS %:    41.9926   MPKI: 0.88557
L2C PREFETCH  REQUESTED:    1386763  ISSUED:    1386763  USEFUL:     399511  USELESS:     109754
L2C USEFUL LOAD PREFETCHES:     399511 PREFETCH ISSUED TO LOWER LEVEL:     520193  ACCURACY: 76.8005
L2C TIMELY PREFETCHES:     399511 LATE PREFETCHES: 10883 DROPPED PREFETCHES: 0
L2C PREFETCHES SAME FILL-ORIGIN LEVEL: 520193 DIFFERENT FILL-ORIGIN LEVEL: 0
L2C AVERAGE MISS LATENCY: 46.2056 cycles
L2C RQ	ACCESS:    8031440	FORWARD:          0	MERGED:          0	TO_CACHE:    8031324
L2C WQ	ACCESS:    1014563	FORWARD:        116	MERGED:          0	TO_CACHE:    1014563
L2C PQ	ACCESS:    1386763	FORWARD:          0	MERGED:          0	TO_CACHE:    1386763

L2C Instructions Evicting Data 659122
L2C Translations Evicting Data 67377
L2C Data Evicting Data 408596
L2C Instructions Evicting Instructions 1135369
L2C Translations Evicting Instructions 100319
L2C Data Evicting Instructions 640360
L2C Instructions Evicting Translations 100506
L2C Translations Evicting Translations 9418
L2C Data Evicting Translations 65350
L2C Dense regions hint from L2: 0
PSCL5 TOTAL     ACCESS:     319250  HIT:     319250  MISS:          0  HIT %:        100  MISS %:          0   MPKI: 0
PSCL5 LOAD TRANSLATION ACCESS:     319250  HIT:     319250  MISS:          0  HIT %:        100  MISS %:          0   MPKI: 0
PSCL5 PREFETCH  REQUESTED:          0  ISSUED:          0  USEFUL:          0  USELESS:          0
PSCL5 USEFUL LOAD PREFETCHES:          0 PREFETCH ISSUED TO LOWER LEVEL:          0  ACCURACY: -nan
PSCL5 TIMELY PREFETCHES:          0 LATE PREFETCHES: 0 DROPPED PREFETCHES: 0
PSCL5 PREFETCHES SAME FILL-ORIGIN LEVEL: 0 DIFFERENT FILL-ORIGIN LEVEL: 0

PSCL4 TOTAL     ACCESS:     284030  HIT:     283489  MISS:        541  HIT %:    99.8095  MISS %:   0.190473   MPKI: 0.002705
PSCL4 LOAD TRANSLATION ACCESS:     284030  HIT:     283489  MISS:        541  HIT %:    99.8095  MISS %:   0.190473   MPKI: 0.002705
PSCL4 PREFETCH  REQUESTED:          0  ISSUED:          0  USEFUL:          0  USELESS:          0
PSCL4 USEFUL LOAD PREFETCHES:          0 PREFETCH ISSUED TO LOWER LEVEL:          0  ACCURACY: -nan
PSCL4 TIMELY PREFETCHES:          0 LATE PREFETCHES: 0 DROPPED PREFETCHES: 0
PSCL4 PREFETCHES SAME FILL-ORIGIN LEVEL: 0 DIFFERENT FILL-ORIGIN LEVEL: 0

PSCL3 TOTAL     ACCESS:     316653  HIT:     315029  MISS:       1624  HIT %:    99.4871  MISS %:   0.512864   MPKI: 0.00812
PSCL3 LOAD TRANSLATION ACCESS:     316653  HIT:     315029  MISS:       1624  HIT %:    99.4871  MISS %:   0.512864   MPKI: 0.00812
PSCL3 PREFETCH  REQUESTED:          0  ISSUED:          0  USEFUL:          0  USELESS:          0
PSCL3 USEFUL LOAD PREFETCHES:          0 PREFETCH ISSUED TO LOWER LEVEL:          0  ACCURACY: -nan
PSCL3 TIMELY PREFETCHES:          0 LATE PREFETCHES: 0 DROPPED PREFETCHES: 0
PSCL3 PREFETCHES SAME FILL-ORIGIN LEVEL: 0 DIFFERENT FILL-ORIGIN LEVEL: 0

PSCL2 TOTAL     ACCESS:     319250  HIT:     218891  MISS:     100359  HIT %:    68.5641  MISS %:    31.4359   MPKI: 0.501795
PSCL2 LOAD TRANSLATION ACCESS:     319250  HIT:     218891  MISS:     100359  HIT %:    68.5641  MISS %:    31.4359   MPKI: 0.501795
PSCL2 PREFETCH  REQUESTED:          0  ISSUED:          0  USEFUL:          0  USELESS:          0
PSCL2 USEFUL LOAD PREFETCHES:          0 PREFETCH ISSUED TO LOWER LEVEL:          0  ACCURACY: -nan
PSCL2 TIMELY PREFETCHES:          0 LATE PREFETCHES: 0 DROPPED PREFETCHES: 0
PSCL2 PREFETCHES SAME FILL-ORIGIN LEVEL: 0 DIFFERENT FILL-ORIGIN LEVEL: 0

LLC TOTAL     ACCESS:    3622270  HIT:    3295619  MISS:     326651  HIT %:    90.9821  MISS %:    9.01785   MPKI: 1.63325
LLC LOAD      ACCESS:    2348960  HIT:    2282341  MISS:      66619  HIT %:    97.1639  MISS %:    2.83611   MPKI: 0.333095
LLC RFO       ACCESS:     140145  HIT:      96499  MISS:      43646  HIT %:    68.8565  MISS %:    31.1435   MPKI: 0.21823
LLC PREFETCH  ACCESS:     520193  HIT:     316350  MISS:     203843  HIT %:     60.814  MISS %:     39.186   MPKI: 1.01921
AGUS PREFETCH L1 MISS: 0
LLC WRITEBACK ACCESS:     435858  HIT:     434004  MISS:       1854  HIT %:    99.5746  MISS %:   0.425368   MPKI: 0.00927
LLC LOAD TRANSLATION ACCESS:     177114  HIT:     166425  MISS:      10689  HIT %:    93.9649  MISS %:     6.0351   MPKI: 0.053445
LLC PREFETCH  REQUESTED:          0  ISSUED:          0  USEFUL:       4420  USELESS:     199039
LLC USEFUL LOAD PREFETCHES:       4420 PREFETCH ISSUED TO LOWER LEVEL:     203843  ACCURACY: 2.16834
LLC TIMELY PREFETCHES:       4420 LATE PREFETCHES: 0 DROPPED PREFETCHES: 0
LLC PREFETCHES SAME FILL-ORIGIN LEVEL: 0 DIFFERENT FILL-ORIGIN LEVEL: 0
LLC AVERAGE MISS LATENCY: 164.042 cycles
LLC RQ	ACCESS:    2666224	FORWARD:          0	MERGED:          0	TO_CACHE:    2666219
LLC WQ	ACCESS:     435858	FORWARD:          5	MERGED:          0	TO_CACHE:     435858
LLC PQ	ACCESS:     520193	FORWARD:          0	MERGED:          0	TO_CACHE:     520193

LLC Dense regions hint to LLC: 0

RAW hits: 2634623
Loads Generated: 44803929
Loads sent to L1D: 42169305
Stores Generated: 20207846
Stores sent to L1D: 20207881
Major fault: 0 Minor fault: 5869
Allocated PAGES: 5869
[Bingo] PHT Access: 839382
[Bingo] PHT Hit PC+Addr: 385454
[Bingo] PHT Hit PC+Offs: 44204
[Bingo] PHT Miss: 409724
[Bingo] Prefetch PC+Addr: 0
[Bingo] Prefetch PC+Offs: 0
[Bingo] Useful PC+Addr: 0
[Bingo] Useful PC+Offs: 0
[Bingo] Useless PC+Addr: 0
[Bingo] Useless PC+Offs: 0
[Bingo] L1 Prefetch per Region: 0
[Bingo] L2 Prefetch per Region: 4.2494
[Bingo] L3 Prefetch per Region: 0
[Bingo] No Prefetch per Region: 27.7506
[Bingo] Number of Voters Mean: 4.91356
[Bingo] Number of Voters SD: 5.76314
PHT read accesses: 5052826
PHT write accesses: 327070
AT read accesses: 1364496
AT write accesses: 1609188
FT read accesses: 1009616
FT write accesses: 839382
PS read accesses: 870708
PS write accesses: 429658
PHT tag read accesses: 13677324
PHT tag write accesses: 712524
AT tag read accesses: 100609610
AT tag write accesses: 1691563
FT tag read accesses: 99730038
FT tag write accesses: 1518322
PS tag read accesses: 48512758
PS tag write accesses: 1299361

DRAM Statistics
 CHANNEL 0
 RQ ROW_BUFFER_HIT:     114081  ROW_BUFFER_MISS:     210716
 DBUS_CONGESTED:        136
 WQ ROW_BUFFER_HIT:      26239  ROW_BUFFER_MISS:     187863  FULL:          0

 AVG_CONGESTED_CYCLE: 4
 All warmup complete: 2
Channel 0 Bank busy for read cycles: 0
Channel 0 Bank busy for write cycles: 0
Channel 0
Rank 0
0banks busy for read cycles: 399552658
0banks busy for write cycles: 40885
1banks busy for read cycles: 7816729
1banks busy for write cycles: 4534794
2banks busy for read cycles: 2065429
2banks busy for write cycles: 1698964
3banks busy for read cycles: 1160080
3banks busy for write cycles: 1202634
4banks busy for read cycles: 890525
4banks busy for write cycles: 1032114
5banks busy for read cycles: 632504
5banks busy for write cycles: 886592
6banks busy for read cycles: 459392
6banks busy for write cycles: 845706
7banks busy for read cycles: 500051
7banks busy for write cycles: 855373
8banks busy for read cycles: 1113021
8banks busy for write cycles: 884543

CPU 0 Branch Prediction Accuracy: 99.8674% MPKI: 0.23804 Average ROB Occupancy at Mispredict: 49.6225
Branch types
NOT_BRANCH: 164099013 82.0495%
BRANCH_DIRECT_JUMP: 1780172 0.890086%
BRANCH_INDIRECT: 9535407 4.7677%
BRANCH_CONDITIONAL: 18237136 9.11857%
BRANCH_DIRECT_CALL: 2494547 1.24727%
BRANCH_INDIRECT_CALL: 678804 0.339402%
BRANCH_RETURN: 3174582 1.58729%
BRANCH_OTHER: 0 0%

DRAM PAGES: 1048576
Allocated PAGES: 5869
