
*** ChampSim Multicore Out-of-Order Simulator ***

Warmup Instructions: 50000000
Simulation Instructions: 200000000
Number of CPUs: 1
LLC sets: 2048
LLC ways: 16
Off-chip DRAM Size: 4096 MB Channels: 1 Width: 64-bit Data Rate: 6400 MT/s
CPU 0 runs traces/spec2k17/srv_11.champsimtrace.xz
.xz
BTB has LRU replacement policy
ITLB has LRU replacement policy
DTLB has LRU replacement policy
STLB has LRU replacement policy
L1I has LRU replacement policy
L1D has LRU replacement policy
Bingo PHT WAYS: 16 and PHT_SIZE: 16384
Initialize SRRIP state for L2C
Initialize DRRIP state for LLC
Heartbeat CPU 0 instructions: 10000000 cycles: 3236732 heartbeat IPC: 3.08954 cumulative IPC: 3.08954 (Simulation time: 0 hr 0 min 37 sec) 
Heartbeat CPU 0 instructions: 20000002 cycles: 7454121 heartbeat IPC: 2.37114 cumulative IPC: 2.68308 (Simulation time: 0 hr 1 min 26 sec) 
Heartbeat CPU 0 instructions: 30000000 cycles: 10228830 heartbeat IPC: 3.60398 cumulative IPC: 2.93289 (Simulation time: 0 hr 1 min 59 sec) 
*** Reached end of trace for Core: 0 Repeating trace: traces/spec2k17/srv_11.champsimtrace.xz
Heartbeat CPU 0 instructions: 40000001 cycles: 13319114 heartbeat IPC: 3.23595 cumulative IPC: 3.0032 (Simulation time: 0 hr 2 min 36 sec) 
Heartbeat CPU 0 instructions: 50000000 cycles: 17675082 heartbeat IPC: 2.2957 cumulative IPC: 2.82884 (Simulation time: 0 hr 3 min 26 sec) 

Warmup complete CPU 0 instructions: 50000004 cycles: 17675083 (Simulation time: 0 hr 3 min 26 sec) 

Heartbeat CPU 0 instructions: 60000003 cycles: 40922269 heartbeat IPC: 0.43016 cumulative IPC: 0.43016 (Simulation time: 0 hr 4 min 18 sec) 
*** Reached end of trace for Core: 0 Repeating trace: traces/spec2k17/srv_11.champsimtrace.xz
Heartbeat CPU 0 instructions: 70000000 cycles: 64477524 heartbeat IPC: 0.424534 cumulative IPC: 0.427328 (Simulation time: 0 hr 5 min 13 sec) 
Heartbeat CPU 0 instructions: 80000001 cycles: 105253786 heartbeat IPC: 0.245241 cumulative IPC: 0.342549 (Simulation time: 0 hr 6 min 32 sec) 
Heartbeat CPU 0 instructions: 90000003 cycles: 129539981 heartbeat IPC: 0.411757 cumulative IPC: 0.357574 (Simulation time: 0 hr 7 min 27 sec) 
*** Reached end of trace for Core: 0 Repeating trace: traces/spec2k17/srv_11.champsimtrace.xz
Heartbeat CPU 0 instructions: 100000003 cycles: 152712916 heartbeat IPC: 0.431538 cumulative IPC: 0.370267 (Simulation time: 0 hr 8 min 18 sec) 
Heartbeat CPU 0 instructions: 110000000 cycles: 192400960 heartbeat IPC: 0.251965 cumulative IPC: 0.343395 (Simulation time: 0 hr 9 min 38 sec) 
Heartbeat CPU 0 instructions: 120000000 cycles: 217938273 heartbeat IPC: 0.391584 cumulative IPC: 0.34954 (Simulation time: 0 hr 10 min 34 sec) 
*** Reached end of trace for Core: 0 Repeating trace: traces/spec2k17/srv_11.champsimtrace.xz
Heartbeat CPU 0 instructions: 130000002 cycles: 241073079 heartbeat IPC: 0.432249 cumulative IPC: 0.358105 (Simulation time: 0 hr 11 min 24 sec) 
Heartbeat CPU 0 instructions: 140000002 cycles: 279476202 heartbeat IPC: 0.260395 cumulative IPC: 0.343772 (Simulation time: 0 hr 12 min 39 sec) 
Heartbeat CPU 0 instructions: 150000002 cycles: 306055266 heartbeat IPC: 0.376236 cumulative IPC: 0.346764 (Simulation time: 0 hr 13 min 36 sec) 
*** Reached end of trace for Core: 0 Repeating trace: traces/spec2k17/srv_11.champsimtrace.xz
Heartbeat CPU 0 instructions: 160000003 cycles: 329351722 heartbeat IPC: 0.42925 cumulative IPC: 0.35293 (Simulation time: 0 hr 14 min 28 sec) 
Heartbeat CPU 0 instructions: 170000000 cycles: 366504783 heartbeat IPC: 0.269157 cumulative IPC: 0.344007 (Simulation time: 0 hr 15 min 39 sec) 
Heartbeat CPU 0 instructions: 180000001 cycles: 394308417 heartbeat IPC: 0.359665 cumulative IPC: 0.345163 (Simulation time: 0 hr 16 min 37 sec) 
*** Reached end of trace for Core: 0 Repeating trace: traces/spec2k17/srv_11.champsimtrace.xz
Heartbeat CPU 0 instructions: 190000003 cycles: 417426360 heartbeat IPC: 0.432565 cumulative IPC: 0.350218 (Simulation time: 0 hr 17 min 28 sec) 
Heartbeat CPU 0 instructions: 200000000 cycles: 453499108 heartbeat IPC: 0.277218 cumulative IPC: 0.344176 (Simulation time: 0 hr 18 min 38 sec) 
Heartbeat CPU 0 instructions: 210000001 cycles: 482520326 heartbeat IPC: 0.344576 cumulative IPC: 0.344201 (Simulation time: 0 hr 19 min 39 sec) 
*** Reached end of trace for Core: 0 Repeating trace: traces/spec2k17/srv_11.champsimtrace.xz
Heartbeat CPU 0 instructions: 220000000 cycles: 505683990 heartbeat IPC: 0.431711 cumulative IPC: 0.348354 (Simulation time: 0 hr 20 min 29 sec) 
Heartbeat CPU 0 instructions: 230000000 cycles: 540459104 heartbeat IPC: 0.287562 cumulative IPC: 0.34431 (Simulation time: 0 hr 21 min 36 sec) 
Heartbeat CPU 0 instructions: 240000002 cycles: 570735356 heartbeat IPC: 0.330292 cumulative IPC: 0.343543 (Simulation time: 0 hr 22 min 42 sec) 
*** Reached end of trace for Core: 0 Repeating trace: traces/spec2k17/srv_11.champsimtrace.xz
Heartbeat CPU 0 instructions: 250000002 cycles: 593883533 heartbeat IPC: 0.431999 cumulative IPC: 0.347097 (Simulation time: 0 hr 23 min 35 sec) 
Finished CPU 0 instructions: 200000002 cycles: 576208451 cumulative IPC: 0.347097 (Simulation time: 0 hr 23 min 35 sec) 

ChampSim completed all CPUs

Region of Interest Statistics

CPU 0 cumulative IPC: 0.347097 instructions: 200000002 cycles: 576208451
ITLB TOTAL     ACCESS:   37990345  HIT:   37450868  MISS:     539477  HIT %:      98.58  MISS %:    1.42004   MPKI: 2.69738
ITLB LOAD TRANSLATION ACCESS:   37990345  HIT:   37450868  MISS:     539477  HIT %:      98.58  MISS %:    1.42004   MPKI: 2.69738
ITLB PREFETCH  REQUESTED:          0  ISSUED:          0  USEFUL:          0  USELESS:          0
ITLB USEFUL LOAD PREFETCHES:          0 PREFETCH ISSUED TO LOWER LEVEL:          0  ACCURACY: -nan
ITLB TIMELY PREFETCHES:          0 LATE PREFETCHES: 0 DROPPED PREFETCHES: 0
ITLB PREFETCHES SAME FILL-ORIGIN LEVEL: 0 DIFFERENT FILL-ORIGIN LEVEL: 0
ITLB AVERAGE MISS LATENCY: 16.1802 cycles
ITLB RQ	ACCESS:   43893729	FORWARD:          0	MERGED:    5774675	TO_CACHE:   38119054

DTLB TOTAL     ACCESS:   44068966  HIT:   35082918  MISS:    8986048  HIT %:    79.6091  MISS %:    20.3909   MPKI: 44.9302
DTLB LOAD TRANSLATION ACCESS:   44068966  HIT:   35082918  MISS:    8986048  HIT %:    79.6091  MISS %:    20.3909   MPKI: 44.9302
DTLB PREFETCH  REQUESTED:          0  ISSUED:          0  USEFUL:          0  USELESS:          0
DTLB USEFUL LOAD PREFETCHES:          0 PREFETCH ISSUED TO LOWER LEVEL:          0  ACCURACY: -nan
DTLB TIMELY PREFETCHES:          0 LATE PREFETCHES: 0 DROPPED PREFETCHES: 0
DTLB PREFETCHES SAME FILL-ORIGIN LEVEL: 0 DIFFERENT FILL-ORIGIN LEVEL: 0
DTLB AVERAGE MISS LATENCY: 10.013 cycles
DTLB RQ	ACCESS:   59097694	FORWARD:          0	MERGED:   14818195	TO_CACHE:   44279499

STLB TOTAL     ACCESS:    9525525  HIT:    9211300  MISS:     314225  HIT %:    96.7012  MISS %:    3.29877   MPKI: 1.57112
STLB LOAD TRANSLATION ACCESS:    9525525  HIT:    9211300  MISS:     314225  HIT %:    96.7012  MISS %:    3.29877   MPKI: 1.57112
STLB PREFETCH  REQUESTED:          0  ISSUED:          0  USEFUL:          0  USELESS:          0
STLB USEFUL LOAD PREFETCHES:          0 PREFETCH ISSUED TO LOWER LEVEL:          0  ACCURACY: -nan
STLB TIMELY PREFETCHES:          0 LATE PREFETCHES: 0 DROPPED PREFETCHES: 0
STLB PREFETCHES SAME FILL-ORIGIN LEVEL: 0 DIFFERENT FILL-ORIGIN LEVEL: 0
STLB AVERAGE MISS LATENCY: 41.0798 cycles
STLB RQ	ACCESS:    9525525	FORWARD:          0	MERGED:          0	TO_CACHE:    9525525

STLB Hit, L1D data hit: 0
STLB Hit, L2C data hit: 0
STLB Hit, LLC data hit: 0
STLB Hit, LLC data miss: 0
STLB STLB hints to L2: 0
L1D TOTAL     ACCESS:   58724261  HIT:   46363853  MISS:   12360408  HIT %:    78.9518  MISS %:    21.0482   MPKI: 61.802
L1D LOAD      ACCESS:   41187948  HIT:   29199154  MISS:   11988794  HIT %:    70.8925  MISS %:    29.1075   MPKI: 59.944
L1D RFO       ACCESS:   17536313  HIT:   17164699  MISS:     371614  HIT %:    97.8809  MISS %:    2.11911   MPKI: 1.85807
L1D PREFETCH  REQUESTED:          0  ISSUED:          0  USEFUL:          0  USELESS:          0
L1D USEFUL LOAD PREFETCHES:          0 PREFETCH ISSUED TO LOWER LEVEL:          0  ACCURACY: -nan
L1D TIMELY PREFETCHES:          0 LATE PREFETCHES: 0 DROPPED PREFETCHES: 0
L1D PREFETCHES SAME FILL-ORIGIN LEVEL: 0 DIFFERENT FILL-ORIGIN LEVEL: 0
L1D AVERAGE MISS LATENCY: 17.5385 cycles
L1D RQ	ACCESS:   54137169	FORWARD:          0	MERGED:   12722223	TO_CACHE:   41247512
L1D WQ	ACCESS:   18064452	FORWARD:     167434	MERGED:     214270	TO_CACHE:   17850182

L1D UNIQUE REGIONS ACCESSED: 0
L1D REGIONS CONFLICTS: 0
L1D Cross Page Prefetch Requests: 0
L1D Same Page Prefetch Requests: 0
L1D ROI Sum of L1D PQ occupancy: 0
L1D PREFETCHES PUSHED FROM L2C: 0
L1I TOTAL     ACCESS:   42776761  HIT:   39354619  MISS:    3422142  HIT %:         92  MISS %:          8   MPKI: 17.1107
L1I LOAD      ACCESS:   42776761  HIT:   39354619  MISS:    3422142  HIT %:         92  MISS %:          8   MPKI: 17.1107
L1I PREFETCH  REQUESTED:          0  ISSUED:          0  USEFUL:          0  USELESS:          0
L1I USEFUL LOAD PREFETCHES:          0 PREFETCH ISSUED TO LOWER LEVEL:          0  ACCURACY: -nan
L1I TIMELY PREFETCHES:          0 LATE PREFETCHES: 0 DROPPED PREFETCHES: 0
L1I PREFETCHES SAME FILL-ORIGIN LEVEL: 0 DIFFERENT FILL-ORIGIN LEVEL: 0
L1I AVERAGE MISS LATENCY: 28.9284 cycles
L1I RQ	ACCESS:   65987281	FORWARD:          0	MERGED:   22093552	TO_CACHE:   43893729

BTB TOTAL     ACCESS:   33562539  HIT:   29061289  MISS:    4501250  HIT %:    86.5885  MISS %:    13.4115   MPKI: 22.5062
BTB BRANCH_DIRECT_JUMP	ACCESS:    1685269  HIT:    1483558  MISS:     201711
BTB BRANCH_INDIRECT	ACCESS:   19828015  HIT:   17476346  MISS:    2351669
BTB BRANCH_CONDITIONAL	ACCESS:    4608066  HIT:    4287796  MISS:     320270
BTB BRANCH_DIRECT_CALL	ACCESS:    2993939  HIT:    2599188  MISS:     394751
BTB BRANCH_INDIRECT_CALL	ACCESS:     724221  HIT:     681906  MISS:      42315
BTB BRANCH_RETURN	ACCESS:    3723029  HIT:    2532495  MISS:    1190534
BTB BRANCH_OTHER ACCESS:          0  HIT:          0  MISS:          0

L2C TOTAL     ACCESS:   17906998  HIT:   15157007  MISS:    2749991  HIT %:    84.6429  MISS %:    15.3571   MPKI: 13.75
L2C LOAD      ACCESS:   15410896  HIT:   13400822  MISS:    2010074  HIT %:    86.9568  MISS %:    13.0432   MPKI: 10.0504
L2C DATA LOAD MPKI: 1.92772
L2C INSTRUCTION LOAD MPKI: 8.12265
L2C RFO       ACCESS:     371614  HIT:     244481  MISS:     127133  HIT %:     65.789  MISS %:     34.211   MPKI: 0.635665
L2C PREFETCH  ACCESS:     918487  HIT:     495101  MISS:     423386  HIT %:     53.904  MISS %:     46.096   MPKI: 2.11693
AGUS PREFETCH L1 MISS: 0
L2C DATA PREFETCH MPKI: 2.11693
L2C INSTRUCTION PREFETCH MPKI: 0
L2C WRITEBACK ACCESS:     807568  HIT:     778875  MISS:      28693  HIT %:     96.447  MISS %:    3.55301   MPKI: 0.143465
L2C LOAD TRANSLATION ACCESS:     398433  HIT:     237728  MISS:     160705  HIT %:    59.6657  MISS %:    40.3343   MPKI: 0.803525
L2C PREFETCH  REQUESTED:     965569  ISSUED:     965569  USEFUL:     351630  USELESS:      71747
L2C USEFUL LOAD PREFETCHES:     351630 PREFETCH ISSUED TO LOWER LEVEL:     438705  ACCURACY: 80.1518
L2C TIMELY PREFETCHES:     351630 LATE PREFETCHES: 15319 DROPPED PREFETCHES: 0
L2C PREFETCHES SAME FILL-ORIGIN LEVEL: 438705 DIFFERENT FILL-ORIGIN LEVEL: 0
L2C AVERAGE MISS LATENCY: 42.9876 cycles
L2C RQ	ACCESS:   16180983	FORWARD:          0	MERGED:          0	TO_CACHE:   16180943
L2C WQ	ACCESS:     807568	FORWARD:         40	MERGED:          0	TO_CACHE:     807568
L2C PQ	ACCESS:     965569	FORWARD:          0	MERGED:          0	TO_CACHE:     965569

L2C Instructions Evicting Data 565423
L2C Translations Evicting Data 56107
L2C Data Evicting Data 332988
L2C Instructions Evicting Instructions 962987
L2C Translations Evicting Instructions 96614
L2C Data Evicting Instructions 548119
L2C Instructions Evicting Translations 96120
L2C Translations Evicting Translations 7984
L2C Data Evicting Translations 54956
L2C Dense regions hint from L2: 0
PSCL5 TOTAL     ACCESS:     314225  HIT:     314225  MISS:          0  HIT %:        100  MISS %:          0   MPKI: 0
PSCL5 LOAD TRANSLATION ACCESS:     314225  HIT:     314225  MISS:          0  HIT %:        100  MISS %:          0   MPKI: 0
PSCL5 PREFETCH  REQUESTED:          0  ISSUED:          0  USEFUL:          0  USELESS:          0
PSCL5 USEFUL LOAD PREFETCHES:          0 PREFETCH ISSUED TO LOWER LEVEL:          0  ACCURACY: -nan
PSCL5 TIMELY PREFETCHES:          0 LATE PREFETCHES: 0 DROPPED PREFETCHES: 0
PSCL5 PREFETCHES SAME FILL-ORIGIN LEVEL: 0 DIFFERENT FILL-ORIGIN LEVEL: 0

PSCL4 TOTAL     ACCESS:     293470  HIT:     292726  MISS:        744  HIT %:    99.7465  MISS %:   0.253518   MPKI: 0.00372
PSCL4 LOAD TRANSLATION ACCESS:     293470  HIT:     292726  MISS:        744  HIT %:    99.7465  MISS %:   0.253518   MPKI: 0.00372
PSCL4 PREFETCH  REQUESTED:          0  ISSUED:          0  USEFUL:          0  USELESS:          0
PSCL4 USEFUL LOAD PREFETCHES:          0 PREFETCH ISSUED TO LOWER LEVEL:          0  ACCURACY: -nan
PSCL4 TIMELY PREFETCHES:          0 LATE PREFETCHES: 0 DROPPED PREFETCHES: 0
PSCL4 PREFETCHES SAME FILL-ORIGIN LEVEL: 0 DIFFERENT FILL-ORIGIN LEVEL: 0

PSCL3 TOTAL     ACCESS:     311637  HIT:     309204  MISS:       2433  HIT %:    99.2193  MISS %:   0.780716   MPKI: 0.012165
PSCL3 LOAD TRANSLATION ACCESS:     311637  HIT:     309204  MISS:       2433  HIT %:    99.2193  MISS %:   0.780716   MPKI: 0.012165
PSCL3 PREFETCH  REQUESTED:          0  ISSUED:          0  USEFUL:          0  USELESS:          0
PSCL3 USEFUL LOAD PREFETCHES:          0 PREFETCH ISSUED TO LOWER LEVEL:          0  ACCURACY: -nan
PSCL3 TIMELY PREFETCHES:          0 LATE PREFETCHES: 0 DROPPED PREFETCHES: 0
PSCL3 PREFETCHES SAME FILL-ORIGIN LEVEL: 0 DIFFERENT FILL-ORIGIN LEVEL: 0

PSCL2 TOTAL     ACCESS:     314225  HIT:     233194  MISS:      81031  HIT %:    74.2124  MISS %:    25.7876   MPKI: 0.405155
PSCL2 LOAD TRANSLATION ACCESS:     314225  HIT:     233194  MISS:      81031  HIT %:    74.2124  MISS %:    25.7876   MPKI: 0.405155
PSCL2 PREFETCH  REQUESTED:          0  ISSUED:          0  USEFUL:          0  USELESS:          0
PSCL2 USEFUL LOAD PREFETCHES:          0 PREFETCH ISSUED TO LOWER LEVEL:          0  ACCURACY: -nan
PSCL2 TIMELY PREFETCHES:          0 LATE PREFETCHES: 0 DROPPED PREFETCHES: 0
PSCL2 PREFETCHES SAME FILL-ORIGIN LEVEL: 0 DIFFERENT FILL-ORIGIN LEVEL: 0

LLC TOTAL     ACCESS:    3067033  HIT:    2866563  MISS:     200470  HIT %:    93.4637  MISS %:    6.53628   MPKI: 1.00235
LLC LOAD      ACCESS:    1994769  HIT:    1950819  MISS:      43950  HIT %:    97.7967  MISS %:    2.20326   MPKI: 0.21975
LLC RFO       ACCESS:     127111  HIT:      96549  MISS:      30562  HIT %:    75.9564  MISS %:    24.0436   MPKI: 0.15281
LLC PREFETCH  ACCESS:     438705  HIT:     318413  MISS:     120292  HIT %:    72.5802  MISS %:    27.4198   MPKI: 0.60146
AGUS PREFETCH L1 MISS: 0
LLC WRITEBACK ACCESS:     345743  HIT:     343706  MISS:       2037  HIT %:    99.4108  MISS %:   0.589166   MPKI: 0.010185
LLC LOAD TRANSLATION ACCESS:     160705  HIT:     157076  MISS:       3629  HIT %:    97.7418  MISS %:    2.25817   MPKI: 0.018145
LLC PREFETCH  REQUESTED:          0  ISSUED:          0  USEFUL:       3920  USELESS:     114139
LLC USEFUL LOAD PREFETCHES:       3920 PREFETCH ISSUED TO LOWER LEVEL:     120292  ACCURACY: 3.25874
LLC TIMELY PREFETCHES:       3920 LATE PREFETCHES: 0 DROPPED PREFETCHES: 0
LLC PREFETCHES SAME FILL-ORIGIN LEVEL: 0 DIFFERENT FILL-ORIGIN LEVEL: 0
LLC AVERAGE MISS LATENCY: 191.211 cycles
LLC RQ	ACCESS:    2282593	FORWARD:          0	MERGED:          0	TO_CACHE:    2282585
LLC WQ	ACCESS:     345743	FORWARD:          8	MERGED:          0	TO_CACHE:     345743
LLC PQ	ACCESS:     438705	FORWARD:          0	MERGED:          0	TO_CACHE:     438705

LLC Dense regions hint to LLC: 0

RAW hits: 2155638
Loads Generated: 56292807
Loads sent to L1D: 54137169
Stores Generated: 18064421
Stores sent to L1D: 18064452
Major fault: 0 Minor fault: 4241
Allocated PAGES: 4241
[Bingo] PHT Access: 575298
[Bingo] PHT Hit PC+Addr: 275290
[Bingo] PHT Hit PC+Offs: 22167
[Bingo] PHT Miss: 277841
[Bingo] Prefetch PC+Addr: 0
[Bingo] Prefetch PC+Offs: 0
[Bingo] Useful PC+Addr: 0
[Bingo] Useful PC+Offs: 0
[Bingo] Useless PC+Addr: 0
[Bingo] Useless PC+Offs: 0
[Bingo] L1 Prefetch per Region: 0
[Bingo] L2 Prefetch per Region: 4.25393
[Bingo] L3 Prefetch per Region: 0
[Bingo] No Prefetch per Region: 27.7461
[Bingo] Number of Voters Mean: 3.08215
[Bingo] Number of Voters SD: 4.53617
PHT read accesses: 2858684
PHT write accesses: 228662
AT read accesses: 11195869
AT write accesses: 11365305
FT read accesses: 1255217
FT write accesses: 575298
PS read accesses: 609834
PS write accesses: 297457
PHT tag read accesses: 9188221
PHT tag write accesses: 503952
AT tag read accesses: 246348791
AT tag write accesses: 11424535
FT tag read accesses: 81516618
FT tag write accesses: 1325032
PS tag read accesses: 201742454
PS tag write accesses: 907083

DRAM Statistics
 CHANNEL 0
 RQ ROW_BUFFER_HIT:      71441  ROW_BUFFER_MISS:     126992
 DBUS_CONGESTED:        102
 WQ ROW_BUFFER_HIT:      15678  ROW_BUFFER_MISS:     120457  FULL:          0

 AVG_CONGESTED_CYCLE: 4
 All warmup complete: 2
Channel 0 Bank busy for read cycles: 0
Channel 0 Bank busy for write cycles: 0
Channel 0
Rank 0
0banks busy for read cycles: 558547741
0banks busy for write cycles: 32225
1banks busy for read cycles: 6034649
1banks busy for write cycles: 3669011
2banks busy for read cycles: 1231507
2banks busy for write cycles: 1239900
3banks busy for read cycles: 493193
3banks busy for write cycles: 672444
4banks busy for read cycles: 343613
4banks busy for write cycles: 521738
5banks busy for read cycles: 247182
5banks busy for write cycles: 399635
6banks busy for read cycles: 265636
6banks busy for write cycles: 384273
7banks busy for read cycles: 316337
7banks busy for write cycles: 375295
8banks busy for read cycles: 788602
8banks busy for write cycles: 645471

CPU 0 Branch Prediction Accuracy: 99.8224% MPKI: 0.38789 Average ROB Occupancy at Mispredict: 25.7767
Branch types
NOT_BRANCH: 156307724 78.1539%
BRANCH_DIRECT_JUMP: 1685269 0.842634%
BRANCH_INDIRECT: 19828015 9.91401%
BRANCH_CONDITIONAL: 14737476 7.36874%
BRANCH_DIRECT_CALL: 2993939 1.49697%
BRANCH_INDIRECT_CALL: 724221 0.36211%
BRANCH_RETURN: 3723029 1.86151%
BRANCH_OTHER: 0 0%

DRAM PAGES: 1048576
Allocated PAGES: 4241
