
*** ChampSim Multicore Out-of-Order Simulator ***

Warmup Instructions: 50000000
Simulation Instructions: 200000000
Number of CPUs: 1
LLC sets: 2048
LLC ways: 16
Off-chip DRAM Size: 4096 MB Channels: 1 Width: 64-bit Data Rate: 6400 MT/s
CPU 0 runs traces/spec2k17/srv_69.champsimtrace.xz
.xz
BTB has LRU replacement policy
ITLB has LRU replacement policy
DTLB has LRU replacement policy
STLB has LRU replacement policy
L1I has LRU replacement policy
L1D has LRU replacement policy
Bingo PHT WAYS: 16 and PHT_SIZE: 16384
Initialize SRRIP state for L2C
Initialize DRRIP state for LLC
Heartbeat CPU 0 instructions: 10000001 cycles: 2781245 heartbeat IPC: 3.59551 cumulative IPC: 3.59551 (Simulation time: 0 hr 0 min 33 sec) 
Heartbeat CPU 0 instructions: 20000003 cycles: 5565555 heartbeat IPC: 3.59155 cumulative IPC: 3.59353 (Simulation time: 0 hr 1 min 8 sec) 
Heartbeat CPU 0 instructions: 30000000 cycles: 8339900 heartbeat IPC: 3.60445 cumulative IPC: 3.59717 (Simulation time: 0 hr 1 min 39 sec) 
*** Reached end of trace for Core: 0 Repeating trace: traces/spec2k17/srv_69.champsimtrace.xz
Heartbeat CPU 0 instructions: 40000003 cycles: 11116022 heartbeat IPC: 3.60215 cumulative IPC: 3.59841 (Simulation time: 0 hr 2 min 11 sec) 
Heartbeat CPU 0 instructions: 50000000 cycles: 13898171 heartbeat IPC: 3.59434 cumulative IPC: 3.5976 (Simulation time: 0 hr 2 min 43 sec) 

Warmup complete CPU 0 instructions: 50000004 cycles: 13898172 (Simulation time: 0 hr 2 min 43 sec) 

Heartbeat CPU 0 instructions: 60000000 cycles: 36998153 heartbeat IPC: 0.432901 cumulative IPC: 0.432901 (Simulation time: 0 hr 3 min 39 sec) 
*** Reached end of trace for Core: 0 Repeating trace: traces/spec2k17/srv_69.champsimtrace.xz
Heartbeat CPU 0 instructions: 70000001 cycles: 60247221 heartbeat IPC: 0.430125 cumulative IPC: 0.431508 (Simulation time: 0 hr 4 min 32 sec) 
Heartbeat CPU 0 instructions: 80000000 cycles: 83586669 heartbeat IPC: 0.428459 cumulative IPC: 0.430487 (Simulation time: 0 hr 5 min 25 sec) 
Heartbeat CPU 0 instructions: 90000001 cycles: 107320961 heartbeat IPC: 0.421331 cumulative IPC: 0.428161 (Simulation time: 0 hr 6 min 17 sec) 
*** Reached end of trace for Core: 0 Repeating trace: traces/spec2k17/srv_69.champsimtrace.xz
Heartbeat CPU 0 instructions: 100000000 cycles: 130710007 heartbeat IPC: 0.427551 cumulative IPC: 0.428039 (Simulation time: 0 hr 7 min 5 sec) 
Heartbeat CPU 0 instructions: 110000000 cycles: 153778446 heartbeat IPC: 0.433493 cumulative IPC: 0.428938 (Simulation time: 0 hr 7 min 48 sec) 
Heartbeat CPU 0 instructions: 120000002 cycles: 177550172 heartbeat IPC: 0.420668 cumulative IPC: 0.427737 (Simulation time: 0 hr 8 min 39 sec) 
*** Reached end of trace for Core: 0 Repeating trace: traces/spec2k17/srv_69.champsimtrace.xz
Heartbeat CPU 0 instructions: 130000000 cycles: 200802358 heartbeat IPC: 0.430067 cumulative IPC: 0.428027 (Simulation time: 0 hr 9 min 27 sec) 
Heartbeat CPU 0 instructions: 140000003 cycles: 224483540 heartbeat IPC: 0.422276 cumulative IPC: 0.42738 (Simulation time: 0 hr 10 min 21 sec) 
Heartbeat CPU 0 instructions: 150000000 cycles: 247823753 heartbeat IPC: 0.428445 cumulative IPC: 0.427486 (Simulation time: 0 hr 11 min 13 sec) 
*** Reached end of trace for Core: 0 Repeating trace: traces/spec2k17/srv_69.champsimtrace.xz
Heartbeat CPU 0 instructions: 160000001 cycles: 270982780 heartbeat IPC: 0.431797 cumulative IPC: 0.427875 (Simulation time: 0 hr 12 min 3 sec) 
Heartbeat CPU 0 instructions: 170000000 cycles: 294346061 heartbeat IPC: 0.428022 cumulative IPC: 0.427887 (Simulation time: 0 hr 12 min 49 sec) 
Heartbeat CPU 0 instructions: 180000001 cycles: 317862233 heartbeat IPC: 0.425239 cumulative IPC: 0.427682 (Simulation time: 0 hr 13 min 41 sec) 
*** Reached end of trace for Core: 0 Repeating trace: traces/spec2k17/srv_69.champsimtrace.xz
Heartbeat CPU 0 instructions: 190000000 cycles: 340935048 heartbeat IPC: 0.43341 cumulative IPC: 0.428086 (Simulation time: 0 hr 14 min 31 sec) 
Heartbeat CPU 0 instructions: 200000000 cycles: 364486656 heartbeat IPC: 0.424599 cumulative IPC: 0.427852 (Simulation time: 0 hr 15 min 23 sec) 
Heartbeat CPU 0 instructions: 210000002 cycles: 387964166 heartbeat IPC: 0.42594 cumulative IPC: 0.427732 (Simulation time: 0 hr 16 min 7 sec) 
*** Reached end of trace for Core: 0 Repeating trace: traces/spec2k17/srv_69.champsimtrace.xz
Heartbeat CPU 0 instructions: 220000000 cycles: 410966599 heartbeat IPC: 0.434737 cumulative IPC: 0.428138 (Simulation time: 0 hr 16 min 58 sec) 
Heartbeat CPU 0 instructions: 230000003 cycles: 434682137 heartbeat IPC: 0.421665 cumulative IPC: 0.427773 (Simulation time: 0 hr 17 min 42 sec) 
Heartbeat CPU 0 instructions: 240000000 cycles: 458119517 heartbeat IPC: 0.426669 cumulative IPC: 0.427715 (Simulation time: 0 hr 18 min 15 sec) 
*** Reached end of trace for Core: 0 Repeating trace: traces/spec2k17/srv_69.champsimtrace.xz
Heartbeat CPU 0 instructions: 250000003 cycles: 480958676 heartbeat IPC: 0.437845 cumulative IPC: 0.42821 (Simulation time: 0 hr 18 min 46 sec) 
Finished CPU 0 instructions: 200000003 cycles: 467060505 cumulative IPC: 0.42821 (Simulation time: 0 hr 18 min 46 sec) 

ChampSim completed all CPUs

Region of Interest Statistics

CPU 0 cumulative IPC: 0.42821 instructions: 200000003 cycles: 467060505
ITLB TOTAL     ACCESS:   31680493  HIT:   30865029  MISS:     815464  HIT %:     97.426  MISS %:    2.57403   MPKI: 4.07732
ITLB LOAD TRANSLATION ACCESS:   31680493  HIT:   30865029  MISS:     815464  HIT %:     97.426  MISS %:    2.57403   MPKI: 4.07732
ITLB PREFETCH  REQUESTED:          0  ISSUED:          0  USEFUL:          0  USELESS:          0
ITLB USEFUL LOAD PREFETCHES:          0 PREFETCH ISSUED TO LOWER LEVEL:          0  ACCURACY: -nan
ITLB TIMELY PREFETCHES:          0 LATE PREFETCHES: 0 DROPPED PREFETCHES: 0
ITLB PREFETCHES SAME FILL-ORIGIN LEVEL: 0 DIFFERENT FILL-ORIGIN LEVEL: 0
ITLB AVERAGE MISS LATENCY: 15.6859 cycles
ITLB RQ	ACCESS:   38411163	FORWARD:          0	MERGED:    6538473	TO_CACHE:   31872690

DTLB TOTAL     ACCESS:   38208581  HIT:   35746744  MISS:    2461837  HIT %:    93.5568  MISS %:    6.44315   MPKI: 12.3092
DTLB LOAD TRANSLATION ACCESS:   38208581  HIT:   35746744  MISS:    2461837  HIT %:    93.5568  MISS %:    6.44315   MPKI: 12.3092
DTLB PREFETCH  REQUESTED:          0  ISSUED:          0  USEFUL:          0  USELESS:          0
DTLB USEFUL LOAD PREFETCHES:          0 PREFETCH ISSUED TO LOWER LEVEL:          0  ACCURACY: -nan
DTLB TIMELY PREFETCHES:          0 LATE PREFETCHES: 0 DROPPED PREFETCHES: 0
DTLB PREFETCHES SAME FILL-ORIGIN LEVEL: 0 DIFFERENT FILL-ORIGIN LEVEL: 0
DTLB AVERAGE MISS LATENCY: 14.4785 cycles
DTLB RQ	ACCESS:   48559902	FORWARD:          0	MERGED:   10208100	TO_CACHE:   38351802

STLB TOTAL     ACCESS:    3277301  HIT:    2824173  MISS:     453128  HIT %:    86.1737  MISS %:    13.8263   MPKI: 2.26564
STLB LOAD TRANSLATION ACCESS:    3277301  HIT:    2824173  MISS:     453128  HIT %:    86.1737  MISS %:    13.8263   MPKI: 2.26564
STLB PREFETCH  REQUESTED:          0  ISSUED:          0  USEFUL:          0  USELESS:          0
STLB USEFUL LOAD PREFETCHES:          0 PREFETCH ISSUED TO LOWER LEVEL:          0  ACCURACY: -nan
STLB TIMELY PREFETCHES:          0 LATE PREFETCHES: 0 DROPPED PREFETCHES: 0
STLB PREFETCHES SAME FILL-ORIGIN LEVEL: 0 DIFFERENT FILL-ORIGIN LEVEL: 0
STLB AVERAGE MISS LATENCY: 41.6304 cycles
STLB RQ	ACCESS:    3277300	FORWARD:          0	MERGED:          0	TO_CACHE:    3277300

STLB Hit, L1D data hit: 0
STLB Hit, L2C data hit: 0
STLB Hit, LLC data hit: 0
STLB Hit, LLC data miss: 0
STLB STLB hints to L2: 0
L1D TOTAL     ACCESS:   48057735  HIT:   45610973  MISS:    2446762  HIT %:    94.9087  MISS %:     5.0913   MPKI: 12.2338
L1D LOAD      ACCESS:   28530628  HIT:   26427536  MISS:    2103092  HIT %:    92.6287  MISS %:    7.37135   MPKI: 10.5155
L1D RFO       ACCESS:   19527107  HIT:   19183437  MISS:     343670  HIT %:      98.24  MISS %:    1.75996   MPKI: 1.71835
L1D PREFETCH  REQUESTED:          0  ISSUED:          0  USEFUL:          0  USELESS:          0
L1D USEFUL LOAD PREFETCHES:          0 PREFETCH ISSUED TO LOWER LEVEL:          0  ACCURACY: -nan
L1D TIMELY PREFETCHES:          0 LATE PREFETCHES: 0 DROPPED PREFETCHES: 0
L1D PREFETCHES SAME FILL-ORIGIN LEVEL: 0 DIFFERENT FILL-ORIGIN LEVEL: 0
L1D AVERAGE MISS LATENCY: 30.4014 cycles
L1D RQ	ACCESS:   42794760	FORWARD:          0	MERGED:   13964570	TO_CACHE:   28609516
L1D WQ	ACCESS:   20255400	FORWARD:     220674	MERGED:     305014	TO_CACHE:   19950386

L1D UNIQUE REGIONS ACCESSED: 0
L1D REGIONS CONFLICTS: 0
L1D Cross Page Prefetch Requests: 0
L1D Same Page Prefetch Requests: 0
L1D ROI Sum of L1D PQ occupancy: 0
L1D PREFETCHES PUSHED FROM L2C: 0
L1I TOTAL     ACCESS:   36778707  HIT:   31719944  MISS:    5058763  HIT %:    86.2454  MISS %:    13.7546   MPKI: 25.2938
L1I LOAD      ACCESS:   36778707  HIT:   31719944  MISS:    5058763  HIT %:    86.2454  MISS %:    13.7546   MPKI: 25.2938
L1I PREFETCH  REQUESTED:          0  ISSUED:          0  USEFUL:          0  USELESS:          0
L1I USEFUL LOAD PREFETCHES:          0 PREFETCH ISSUED TO LOWER LEVEL:          0  ACCURACY: -nan
L1I TIMELY PREFETCHES:          0 LATE PREFETCHES: 0 DROPPED PREFETCHES: 0
L1I PREFETCHES SAME FILL-ORIGIN LEVEL: 0 DIFFERENT FILL-ORIGIN LEVEL: 0
L1I AVERAGE MISS LATENCY: 28.2981 cycles
L1I RQ	ACCESS:   57426270	FORWARD:          0	MERGED:   19015107	TO_CACHE:   38411163

BTB TOTAL     ACCESS:   23164669  HIT:   18167923  MISS:    4996746  HIT %:    78.4295  MISS %:    21.5705   MPKI: 24.9837
BTB BRANCH_DIRECT_JUMP	ACCESS:    1914726  HIT:    1629531  MISS:     285195
BTB BRANCH_INDIRECT	ACCESS:    9756590  HIT:    7380331  MISS:    2376259
BTB BRANCH_CONDITIONAL	ACCESS:    4774695  HIT:    4326607  MISS:     448088
BTB BRANCH_DIRECT_CALL	ACCESS:    2648257  HIT:    2097355  MISS:     550902
BTB BRANCH_INDIRECT_CALL	ACCESS:     697289  HIT:     631848  MISS:      65441
BTB BRANCH_RETURN	ACCESS:    3373112  HIT:    2102251  MISS:    1270861
BTB BRANCH_OTHER ACCESS:          0  HIT:          0  MISS:          0

L2C TOTAL     ACCESS:   10407713  HIT:    6493793  MISS:    3913920  HIT %:     62.394  MISS %:     37.606   MPKI: 19.5696
L2C LOAD      ACCESS:    7161738  HIT:    4341553  MISS:    2820185  HIT %:    60.6215  MISS %:    39.3785   MPKI: 14.1009
L2C DATA LOAD MPKI: 2.7175
L2C INSTRUCTION LOAD MPKI: 11.3834
L2C RFO       ACCESS:     343670  HIT:     166112  MISS:     177558  HIT %:    48.3347  MISS %:    51.6653   MPKI: 0.88779
L2C PREFETCH  ACCESS:    1366290  HIT:     716727  MISS:     649563  HIT %:    52.4579  MISS %:    47.5421   MPKI: 3.24781
AGUS PREFETCH L1 MISS: 0
L2C DATA PREFETCH MPKI: 3.24781
L2C INSTRUCTION PREFETCH MPKI: 0
L2C WRITEBACK ACCESS:     962395  HIT:     919734  MISS:      42661  HIT %:    95.5672  MISS %:     4.4328   MPKI: 0.213305
L2C LOAD TRANSLATION ACCESS:     573620  HIT:     349667  MISS:     223953  HIT %:     60.958  MISS %:     39.042   MPKI: 1.11976
L2C PREFETCH  REQUESTED:    1423275  ISSUED:    1423275  USEFUL:     501091  USELESS:     148552
L2C USEFUL LOAD PREFETCHES:     501091 PREFETCH ISSUED TO LOWER LEVEL:     664616  ACCURACY: 75.3956
L2C TIMELY PREFETCHES:     501091 LATE PREFETCHES: 15053 DROPPED PREFETCHES: 0
L2C PREFETCHES SAME FILL-ORIGIN LEVEL: 664616 DIFFERENT FILL-ORIGIN LEVEL: 0
L2C AVERAGE MISS LATENCY: 43.6601 cycles
L2C RQ	ACCESS:    8079145	FORWARD:          0	MERGED:          0	TO_CACHE:    8079028
L2C WQ	ACCESS:     962395	FORWARD:        117	MERGED:          0	TO_CACHE:     962395
L2C PQ	ACCESS:    1423275	FORWARD:          0	MERGED:          0	TO_CACHE:    1423275

L2C Instructions Evicting Data 808317
L2C Translations Evicting Data 80015
L2C Data Evicting Data 507097
L2C Instructions Evicting Instructions 1334811
L2C Translations Evicting Instructions 132973
L2C Data Evicting Instructions 786541
L2C Instructions Evicting Translations 133557
L2C Translations Evicting Translations 10965
L2C Data Evicting Translations 76983
L2C Dense regions hint from L2: 0
PSCL5 TOTAL     ACCESS:     453127  HIT:     453127  MISS:          0  HIT %:        100  MISS %:          0   MPKI: 0
PSCL5 LOAD TRANSLATION ACCESS:     453127  HIT:     453127  MISS:          0  HIT %:        100  MISS %:          0   MPKI: 0
PSCL5 PREFETCH  REQUESTED:          0  ISSUED:          0  USEFUL:          0  USELESS:          0
PSCL5 USEFUL LOAD PREFETCHES:          0 PREFETCH ISSUED TO LOWER LEVEL:          0  ACCURACY: -nan
PSCL5 TIMELY PREFETCHES:          0 LATE PREFETCHES: 0 DROPPED PREFETCHES: 0
PSCL5 PREFETCHES SAME FILL-ORIGIN LEVEL: 0 DIFFERENT FILL-ORIGIN LEVEL: 0

PSCL4 TOTAL     ACCESS:     423131  HIT:     421888  MISS:       1243  HIT %:    99.7062  MISS %:   0.293762   MPKI: 0.006215
PSCL4 LOAD TRANSLATION ACCESS:     423131  HIT:     421888  MISS:       1243  HIT %:    99.7062  MISS %:   0.293762   MPKI: 0.006215
PSCL4 PREFETCH  REQUESTED:          0  ISSUED:          0  USEFUL:          0  USELESS:          0
PSCL4 USEFUL LOAD PREFETCHES:          0 PREFETCH ISSUED TO LOWER LEVEL:          0  ACCURACY: -nan
PSCL4 TIMELY PREFETCHES:          0 LATE PREFETCHES: 0 DROPPED PREFETCHES: 0
PSCL4 PREFETCHES SAME FILL-ORIGIN LEVEL: 0 DIFFERENT FILL-ORIGIN LEVEL: 0

PSCL3 TOTAL     ACCESS:     449625  HIT:     445811  MISS:       3814  HIT %:    99.1517  MISS %:   0.848262   MPKI: 0.01907
PSCL3 LOAD TRANSLATION ACCESS:     449625  HIT:     445811  MISS:       3814  HIT %:    99.1517  MISS %:   0.848262   MPKI: 0.01907
PSCL3 PREFETCH  REQUESTED:          0  ISSUED:          0  USEFUL:          0  USELESS:          0
PSCL3 USEFUL LOAD PREFETCHES:          0 PREFETCH ISSUED TO LOWER LEVEL:          0  ACCURACY: -nan
PSCL3 TIMELY PREFETCHES:          0 LATE PREFETCHES: 0 DROPPED PREFETCHES: 0
PSCL3 PREFETCHES SAME FILL-ORIGIN LEVEL: 0 DIFFERENT FILL-ORIGIN LEVEL: 0

PSCL2 TOTAL     ACCESS:     453127  HIT:     337691  MISS:     115436  HIT %:    74.5246  MISS %:    25.4754   MPKI: 0.57718
PSCL2 LOAD TRANSLATION ACCESS:     453127  HIT:     337691  MISS:     115436  HIT %:    74.5246  MISS %:    25.4754   MPKI: 0.57718
PSCL2 PREFETCH  REQUESTED:          0  ISSUED:          0  USEFUL:          0  USELESS:          0
PSCL2 USEFUL LOAD PREFETCHES:          0 PREFETCH ISSUED TO LOWER LEVEL:          0  ACCURACY: -nan
PSCL2 TIMELY PREFETCHES:          0 LATE PREFETCHES: 0 DROPPED PREFETCHES: 0
PSCL2 PREFETCHES SAME FILL-ORIGIN LEVEL: 0 DIFFERENT FILL-ORIGIN LEVEL: 0

LLC TOTAL     ACCESS:    4359446  HIT:    4028203  MISS:     331243  HIT %:    92.4017  MISS %:    7.59828   MPKI: 1.65621
LLC LOAD      ACCESS:    2805170  HIT:    2726976  MISS:      78194  HIT %:    97.2125  MISS %:     2.7875   MPKI: 0.39097
LLC RFO       ACCESS:     177520  HIT:     129041  MISS:      48479  HIT %:     72.691  MISS %:     27.309   MPKI: 0.242395
LLC PREFETCH  ACCESS:     664616  HIT:     471023  MISS:     193593  HIT %:    70.8715  MISS %:    29.1285   MPKI: 0.967965
AGUS PREFETCH L1 MISS: 0
LLC WRITEBACK ACCESS:     488187  HIT:     484450  MISS:       3737  HIT %:    99.2345  MISS %:   0.765485   MPKI: 0.018685
LLC LOAD TRANSLATION ACCESS:     223953  HIT:     216713  MISS:       7240  HIT %:    96.7672  MISS %:    3.23282   MPKI: 0.0362
LLC PREFETCH  REQUESTED:          0  ISSUED:          0  USEFUL:       7564  USELESS:     184484
LLC USEFUL LOAD PREFETCHES:       7564 PREFETCH ISSUED TO LOWER LEVEL:     193593  ACCURACY: 3.90717
LLC TIMELY PREFETCHES:       7564 LATE PREFETCHES: 0 DROPPED PREFETCHES: 0
LLC PREFETCHES SAME FILL-ORIGIN LEVEL: 0 DIFFERENT FILL-ORIGIN LEVEL: 0
LLC AVERAGE MISS LATENCY: 166.284 cycles
LLC RQ	ACCESS:    3206643	FORWARD:          0	MERGED:          0	TO_CACHE:    3206643
LLC WQ	ACCESS:     488187	FORWARD:          0	MERGED:          0	TO_CACHE:     488187
LLC PQ	ACCESS:     664616	FORWARD:          0	MERGED:          0	TO_CACHE:     664616

LLC Dense regions hint to LLC: 0

RAW hits: 2583353
Loads Generated: 45378116
Loads sent to L1D: 42794760
Stores Generated: 20255404
Stores sent to L1D: 20255400
Major fault: 0 Minor fault: 5460
Allocated PAGES: 5460
[Bingo] PHT Access: 816127
[Bingo] PHT Hit PC+Addr: 400216
[Bingo] PHT Hit PC+Offs: 35104
[Bingo] PHT Miss: 380807
[Bingo] Prefetch PC+Addr: 0
[Bingo] Prefetch PC+Offs: 0
[Bingo] Useful PC+Addr: 0
[Bingo] Useful PC+Offs: 0
[Bingo] Useless PC+Addr: 0
[Bingo] Useless PC+Offs: 0
[Bingo] L1 Prefetch per Region: 0
[Bingo] L2 Prefetch per Region: 4.28884
[Bingo] L3 Prefetch per Region: 0
[Bingo] No Prefetch per Region: 27.7112
[Bingo] Number of Voters Mean: 2.50857
[Bingo] Number of Voters SD: 3.76565
PHT read accesses: 5140410
PHT write accesses: 325686
AT read accesses: 1371022
AT write accesses: 1607965
FT read accesses: 1009358
FT write accesses: 816127
PS read accesses: 886610
PS write accesses: 435320
PHT tag read accesses: 13075132
PHT tag write accesses: 725902
AT tag read accesses: 111237177
AT tag write accesses: 1696710
FT tag read accesses: 109673121
FT tag write accesses: 1495226
PS tag read accesses: 48788786
PS tag write accesses: 1320922

DRAM Statistics
 CHANNEL 0
 RQ ROW_BUFFER_HIT:     111534  ROW_BUFFER_MISS:     215972
 DBUS_CONGESTED:        133
 WQ ROW_BUFFER_HIT:      24269  ROW_BUFFER_MISS:     186260  FULL:          0

 AVG_CONGESTED_CYCLE: 4
 All warmup complete: 2
Channel 0 Bank busy for read cycles: 0
Channel 0 Bank busy for write cycles: 0
Channel 0
Rank 0
0banks busy for read cycles: 436618814
0banks busy for write cycles: 52562
1banks busy for read cycles: 10934168
1banks busy for write cycles: 6250519
2banks busy for read cycles: 2296340
2banks busy for write cycles: 2063081
3banks busy for read cycles: 976188
3banks busy for write cycles: 1152133
4banks busy for read cycles: 607907
4banks busy for write cycles: 831306
5banks busy for read cycles: 438162
5banks busy for write cycles: 671012
6banks busy for read cycles: 432870
6banks busy for write cycles: 630602
7banks busy for read cycles: 456869
7banks busy for write cycles: 649068
8banks busy for read cycles: 1137988
8banks busy for write cycles: 860917

CPU 0 Branch Prediction Accuracy: 99.7309% MPKI: 0.485 Average ROB Occupancy at Mispredict: 26.6734
Branch types
NOT_BRANCH: 163956009 81.978%
BRANCH_DIRECT_JUMP: 1914726 0.957363%
BRANCH_INDIRECT: 9756590 4.87829%
BRANCH_CONDITIONAL: 17653767 8.82688%
BRANCH_DIRECT_CALL: 2648257 1.32413%
BRANCH_INDIRECT_CALL: 697289 0.348644%
BRANCH_RETURN: 3373112 1.68656%
BRANCH_OTHER: 0 0%

DRAM PAGES: 1048576
Allocated PAGES: 5460
