
*** ChampSim Multicore Out-of-Order Simulator ***

Warmup Instructions: 50000000
Simulation Instructions: 200000000
Number of CPUs: 1
LLC sets: 2048
LLC ways: 16
Off-chip DRAM Size: 4096 MB Channels: 1 Width: 64-bit Data Rate: 6400 MT/s
CPU 0 runs traces/spec2k17/srv_70.champsimtrace.xz
.xz
BTB has LRU replacement policy
ITLB has LRU replacement policy
DTLB has LRU replacement policy
STLB has LRU replacement policy
L1I has LRU replacement policy
L1D has LRU replacement policy
Bingo PHT WAYS: 16 and PHT_SIZE: 16384
Initialize SRRIP state for L2C
Initialize DRRIP state for LLC
Heartbeat CPU 0 instructions: 10000000 cycles: 2810163 heartbeat IPC: 3.55851 cumulative IPC: 3.55851 (Simulation time: 0 hr 0 min 34 sec) 
Heartbeat CPU 0 instructions: 20000000 cycles: 5619686 heartbeat IPC: 3.55932 cumulative IPC: 3.55892 (Simulation time: 0 hr 1 min 7 sec) 
Heartbeat CPU 0 instructions: 30000000 cycles: 8429952 heartbeat IPC: 3.55838 cumulative IPC: 3.55874 (Simulation time: 0 hr 1 min 39 sec) 
*** Reached end of trace for Core: 0 Repeating trace: traces/spec2k17/srv_70.champsimtrace.xz
Heartbeat CPU 0 instructions: 40000003 cycles: 11234583 heartbeat IPC: 3.56553 cumulative IPC: 3.56044 (Simulation time: 0 hr 2 min 12 sec) 
Heartbeat CPU 0 instructions: 50000003 cycles: 14042682 heartbeat IPC: 3.56113 cumulative IPC: 3.56057 (Simulation time: 0 hr 2 min 45 sec) 

Warmup complete CPU 0 instructions: 50000003 cycles: 14042682 (Simulation time: 0 hr 2 min 45 sec) 

Heartbeat CPU 0 instructions: 60000001 cycles: 44493576 heartbeat IPC: 0.328398 cumulative IPC: 0.328398 (Simulation time: 0 hr 3 min 43 sec) 
*** Reached end of trace for Core: 0 Repeating trace: traces/spec2k17/srv_70.champsimtrace.xz
Heartbeat CPU 0 instructions: 70000001 cycles: 74352510 heartbeat IPC: 0.334908 cumulative IPC: 0.331621 (Simulation time: 0 hr 4 min 36 sec) 
Heartbeat CPU 0 instructions: 80000001 cycles: 104680008 heartbeat IPC: 0.329734 cumulative IPC: 0.330989 (Simulation time: 0 hr 5 min 26 sec) 
Heartbeat CPU 0 instructions: 90000003 cycles: 134534228 heartbeat IPC: 0.334961 cumulative IPC: 0.331973 (Simulation time: 0 hr 6 min 18 sec) 
*** Reached end of trace for Core: 0 Repeating trace: traces/spec2k17/srv_70.champsimtrace.xz
Heartbeat CPU 0 instructions: 100000002 cycles: 164446543 heartbeat IPC: 0.33431 cumulative IPC: 0.332438 (Simulation time: 0 hr 7 min 10 sec) 
Heartbeat CPU 0 instructions: 110000000 cycles: 194618977 heartbeat IPC: 0.331428 cumulative IPC: 0.33227 (Simulation time: 0 hr 8 min 7 sec) 
Heartbeat CPU 0 instructions: 120000000 cycles: 224529245 heartbeat IPC: 0.334333 cumulative IPC: 0.332563 (Simulation time: 0 hr 8 min 53 sec) 
*** Reached end of trace for Core: 0 Repeating trace: traces/spec2k17/srv_70.champsimtrace.xz
Heartbeat CPU 0 instructions: 130000000 cycles: 254541326 heartbeat IPC: 0.333199 cumulative IPC: 0.332642 (Simulation time: 0 hr 9 min 51 sec) 
Heartbeat CPU 0 instructions: 140000002 cycles: 284639429 heartbeat IPC: 0.332247 cumulative IPC: 0.332598 (Simulation time: 0 hr 10 min 40 sec) 
Heartbeat CPU 0 instructions: 150000003 cycles: 314694272 heartbeat IPC: 0.332725 cumulative IPC: 0.332611 (Simulation time: 0 hr 11 min 34 sec) 
*** Reached end of trace for Core: 0 Repeating trace: traces/spec2k17/srv_70.champsimtrace.xz
Heartbeat CPU 0 instructions: 160000000 cycles: 344859952 heartbeat IPC: 0.331502 cumulative IPC: 0.33251 (Simulation time: 0 hr 12 min 29 sec) 
Heartbeat CPU 0 instructions: 170000001 cycles: 374544696 heartbeat IPC: 0.336873 cumulative IPC: 0.332869 (Simulation time: 0 hr 13 min 22 sec) 
Heartbeat CPU 0 instructions: 180000001 cycles: 404810594 heartbeat IPC: 0.330405 cumulative IPC: 0.332678 (Simulation time: 0 hr 14 min 8 sec) 
*** Reached end of trace for Core: 0 Repeating trace: traces/spec2k17/srv_70.champsimtrace.xz
Heartbeat CPU 0 instructions: 190000003 cycles: 434801249 heartbeat IPC: 0.333437 cumulative IPC: 0.332732 (Simulation time: 0 hr 14 min 54 sec) 
Heartbeat CPU 0 instructions: 200000002 cycles: 464632396 heartbeat IPC: 0.33522 cumulative IPC: 0.332897 (Simulation time: 0 hr 15 min 37 sec) 
Heartbeat CPU 0 instructions: 210000000 cycles: 494805009 heartbeat IPC: 0.331426 cumulative IPC: 0.332805 (Simulation time: 0 hr 16 min 12 sec) 
*** Reached end of trace for Core: 0 Repeating trace: traces/spec2k17/srv_70.champsimtrace.xz
Heartbeat CPU 0 instructions: 220000000 cycles: 524809517 heartbeat IPC: 0.333283 cumulative IPC: 0.332833 (Simulation time: 0 hr 16 min 44 sec) 
Heartbeat CPU 0 instructions: 230000001 cycles: 554410081 heartbeat IPC: 0.337831 cumulative IPC: 0.333107 (Simulation time: 0 hr 17 min 13 sec) 
Heartbeat CPU 0 instructions: 240000001 cycles: 584623045 heartbeat IPC: 0.330984 cumulative IPC: 0.332994 (Simulation time: 0 hr 17 min 43 sec) 
*** Reached end of trace for Core: 0 Repeating trace: traces/spec2k17/srv_70.champsimtrace.xz
Heartbeat CPU 0 instructions: 250000001 cycles: 614601422 heartbeat IPC: 0.333574 cumulative IPC: 0.333023 (Simulation time: 0 hr 18 min 13 sec) 
Finished CPU 0 instructions: 200000000 cycles: 600558752 cumulative IPC: 0.333023 (Simulation time: 0 hr 18 min 13 sec) 

ChampSim completed all CPUs

Region of Interest Statistics

CPU 0 cumulative IPC: 0.333023 instructions: 200000000 cycles: 600558752
ITLB TOTAL     ACCESS:   34475183  HIT:   32619294  MISS:    1855889  HIT %:    94.6167  MISS %:    5.38326   MPKI: 9.27945
ITLB LOAD TRANSLATION ACCESS:   34475183  HIT:   32619294  MISS:    1855889  HIT %:    94.6167  MISS %:    5.38326   MPKI: 9.27945
ITLB PREFETCH  REQUESTED:          0  ISSUED:          0  USEFUL:          0  USELESS:          0
ITLB USEFUL LOAD PREFETCHES:          0 PREFETCH ISSUED TO LOWER LEVEL:          0  ACCURACY: -nan
ITLB TIMELY PREFETCHES:          0 LATE PREFETCHES: 0 DROPPED PREFETCHES: 0
ITLB PREFETCHES SAME FILL-ORIGIN LEVEL: 0 DIFFERENT FILL-ORIGIN LEVEL: 0
ITLB AVERAGE MISS LATENCY: 9.03737 cycles
ITLB RQ	ACCESS:   40303475	FORWARD:          0	MERGED:    5380396	TO_CACHE:   34923079

DTLB TOTAL     ACCESS:   45397496  HIT:   43602793  MISS:    1794703  HIT %:    96.0467  MISS %:    3.95331   MPKI: 8.97352
DTLB LOAD TRANSLATION ACCESS:   45397496  HIT:   43602793  MISS:    1794703  HIT %:    96.0467  MISS %:    3.95331   MPKI: 8.97352
DTLB PREFETCH  REQUESTED:          0  ISSUED:          0  USEFUL:          0  USELESS:          0
DTLB USEFUL LOAD PREFETCHES:          0 PREFETCH ISSUED TO LOWER LEVEL:          0  ACCURACY: -nan
DTLB TIMELY PREFETCHES:          0 LATE PREFETCHES: 0 DROPPED PREFETCHES: 0
DTLB PREFETCHES SAME FILL-ORIGIN LEVEL: 0 DIFFERENT FILL-ORIGIN LEVEL: 0
DTLB AVERAGE MISS LATENCY: 9.21613 cycles
DTLB RQ	ACCESS:   59866222	FORWARD:          0	MERGED:   14405846	TO_CACHE:   45460376

STLB TOTAL     ACCESS:    3650592  HIT:    3640756  MISS:       9836  HIT %:    99.7306  MISS %:   0.269436   MPKI: 0.04918
STLB LOAD TRANSLATION ACCESS:    3650592  HIT:    3640756  MISS:       9836  HIT %:    99.7306  MISS %:   0.269436   MPKI: 0.04918
STLB PREFETCH  REQUESTED:          0  ISSUED:          0  USEFUL:          0  USELESS:          0
STLB USEFUL LOAD PREFETCHES:          0 PREFETCH ISSUED TO LOWER LEVEL:          0  ACCURACY: -nan
STLB TIMELY PREFETCHES:          0 LATE PREFETCHES: 0 DROPPED PREFETCHES: 0
STLB PREFETCHES SAME FILL-ORIGIN LEVEL: 0 DIFFERENT FILL-ORIGIN LEVEL: 0
STLB AVERAGE MISS LATENCY: 43.9928 cycles
STLB RQ	ACCESS:    3650592	FORWARD:          0	MERGED:          0	TO_CACHE:    3650592

STLB Hit, L1D data hit: 0
STLB Hit, L2C data hit: 0
STLB Hit, LLC data hit: 0
STLB Hit, LLC data miss: 0
STLB STLB hints to L2: 0
L1D TOTAL     ACCESS:   58129086  HIT:   54274804  MISS:    3854282  HIT %:    93.3694  MISS %:    6.63056   MPKI: 19.2714
L1D LOAD      ACCESS:   33636320  HIT:   30855451  MISS:    2780869  HIT %:    91.7325  MISS %:    8.26746   MPKI: 13.9043
L1D RFO       ACCESS:   24492766  HIT:   23419353  MISS:    1073413  HIT %:    95.6174  MISS %:    4.38257   MPKI: 5.36707
L1D PREFETCH  REQUESTED:          0  ISSUED:          0  USEFUL:          0  USELESS:          0
L1D USEFUL LOAD PREFETCHES:          0 PREFETCH ISSUED TO LOWER LEVEL:          0  ACCURACY: -nan
L1D TIMELY PREFETCHES:          0 LATE PREFETCHES: 0 DROPPED PREFETCHES: 0
L1D PREFETCHES SAME FILL-ORIGIN LEVEL: 0 DIFFERENT FILL-ORIGIN LEVEL: 0
L1D AVERAGE MISS LATENCY: 18.5289 cycles
L1D RQ	ACCESS:   46905736	FORWARD:          0	MERGED:   12880447	TO_CACHE:   33729222
L1D WQ	ACCESS:   26309150	FORWARD:     296067	MERGED:     172150	TO_CACHE:   26137000

L1D UNIQUE REGIONS ACCESSED: 0
L1D REGIONS CONFLICTS: 0
L1D Cross Page Prefetch Requests: 0
L1D Same Page Prefetch Requests: 0
L1D ROI Sum of L1D PQ occupancy: 0
L1D PREFETCHES PUSHED FROM L2C: 0
L1I TOTAL     ACCESS:   38872812  HIT:   29162553  MISS:    9710259  HIT %:    75.0204  MISS %:    24.9796   MPKI: 48.5513
L1I LOAD      ACCESS:   38872812  HIT:   29162553  MISS:    9710259  HIT %:    75.0204  MISS %:    24.9796   MPKI: 48.5513
L1I PREFETCH  REQUESTED:          0  ISSUED:          0  USEFUL:          0  USELESS:          0
L1I USEFUL LOAD PREFETCHES:          0 PREFETCH ISSUED TO LOWER LEVEL:          0  ACCURACY: -nan
L1I TIMELY PREFETCHES:          0 LATE PREFETCHES: 0 DROPPED PREFETCHES: 0
L1I PREFETCHES SAME FILL-ORIGIN LEVEL: 0 DIFFERENT FILL-ORIGIN LEVEL: 0
L1I AVERAGE MISS LATENCY: 17.0932 cycles
L1I RQ	ACCESS:   57833935	FORWARD:          0	MERGED:   17530460	TO_CACHE:   40303475

BTB TOTAL     ACCESS:   30330112  HIT:   18855293  MISS:   11474819  HIT %:    62.1669  MISS %:    37.8331   MPKI: 57.3741
BTB BRANCH_DIRECT_JUMP	ACCESS:    2183492  HIT:    1381264  MISS:     802228
BTB BRANCH_INDIRECT	ACCESS:   11409987  HIT:    7107186  MISS:    4302801
BTB BRANCH_CONDITIONAL	ACCESS:    8659441  HIT:    7498829  MISS:    1160612
BTB BRANCH_DIRECT_CALL	ACCESS:    3412328  HIT:    1528915  MISS:    1883413
BTB BRANCH_INDIRECT_CALL	ACCESS:     626274  HIT:     246325  MISS:     379949
BTB BRANCH_RETURN	ACCESS:    4038590  HIT:    1092774  MISS:    2945816
BTB BRANCH_OTHER ACCESS:          0  HIT:          0  MISS:          0

L2C TOTAL     ACCESS:   17191104  HIT:   15523912  MISS:    1667192  HIT %:     90.302  MISS %:    9.69799   MPKI: 8.33596
L2C LOAD      ACCESS:   12491108  HIT:   11346890  MISS:    1144218  HIT %:    90.8397  MISS %:    9.16026   MPKI: 5.72109
L2C DATA LOAD MPKI: 0.861085
L2C INSTRUCTION LOAD MPKI: 4.86001
L2C RFO       ACCESS:    1073413  HIT:     869810  MISS:     203603  HIT %:    81.0322  MISS %:    18.9678   MPKI: 1.01801
L2C PREFETCH  ACCESS:    1809614  HIT:    1544726  MISS:     264888  HIT %:    85.3622  MISS %:    14.6378   MPKI: 1.32444
AGUS PREFETCH L1 MISS: 0
L2C DATA PREFETCH MPKI: 1.32444
L2C INSTRUCTION PREFETCH MPKI: 0
L2C WRITEBACK ACCESS:    1806149  HIT:    1759041  MISS:      47108  HIT %:    97.3918  MISS %:     2.6082   MPKI: 0.23554
L2C LOAD TRANSLATION ACCESS:      10820  HIT:       3445  MISS:       7375  HIT %:    31.8392  MISS %:    68.1608   MPKI: 0.036875
L2C PREFETCH  REQUESTED:    1833141  ISSUED:    1833141  USEFUL:     169129  USELESS:      95778
L2C USEFUL LOAD PREFETCHES:     169129 PREFETCH ISSUED TO LOWER LEVEL:     278844  ACCURACY: 60.6536
L2C TIMELY PREFETCHES:     169129 LATE PREFETCHES: 13956 DROPPED PREFETCHES: 0
L2C PREFETCHES SAME FILL-ORIGIN LEVEL: 278844 DIFFERENT FILL-ORIGIN LEVEL: 0
L2C AVERAGE MISS LATENCY: 31.8993 cycles
L2C RQ	ACCESS:   13575359	FORWARD:          0	MERGED:          0	TO_CACHE:   13575340
L2C WQ	ACCESS:    1806149	FORWARD:         19	MERGED:          0	TO_CACHE:    1806149
L2C PQ	ACCESS:    1833141	FORWARD:          0	MERGED:          3	TO_CACHE:    1833138

L2C Instructions Evicting Data 340828
L2C Translations Evicting Data 4697
L2C Data Evicting Data 322633
L2C Instructions Evicting Instructions 628983
L2C Translations Evicting Instructions 2369
L2C Data Evicting Instructions 313321
L2C Instructions Evicting Translations 2190
L2C Translations Evicting Translations 309
L2C Data Evicting Translations 4754
L2C Dense regions hint from L2: 0
PSCL5 TOTAL     ACCESS:       9836  HIT:       9836  MISS:          0  HIT %:        100  MISS %:          0   MPKI: 0
PSCL5 LOAD TRANSLATION ACCESS:       9836  HIT:       9836  MISS:          0  HIT %:        100  MISS %:          0   MPKI: 0
PSCL5 PREFETCH  REQUESTED:          0  ISSUED:          0  USEFUL:          0  USELESS:          0
PSCL5 USEFUL LOAD PREFETCHES:          0 PREFETCH ISSUED TO LOWER LEVEL:          0  ACCURACY: -nan
PSCL5 TIMELY PREFETCHES:          0 LATE PREFETCHES: 0 DROPPED PREFETCHES: 0
PSCL5 PREFETCHES SAME FILL-ORIGIN LEVEL: 0 DIFFERENT FILL-ORIGIN LEVEL: 0

PSCL4 TOTAL     ACCESS:       9782  HIT:       9752  MISS:         30  HIT %:    99.6933  MISS %:   0.306686   MPKI: 0.00015
PSCL4 LOAD TRANSLATION ACCESS:       9782  HIT:       9752  MISS:         30  HIT %:    99.6933  MISS %:   0.306686   MPKI: 0.00015
PSCL4 PREFETCH  REQUESTED:          0  ISSUED:          0  USEFUL:          0  USELESS:          0
PSCL4 USEFUL LOAD PREFETCHES:          0 PREFETCH ISSUED TO LOWER LEVEL:          0  ACCURACY: -nan
PSCL4 TIMELY PREFETCHES:          0 LATE PREFETCHES: 0 DROPPED PREFETCHES: 0
PSCL4 PREFETCHES SAME FILL-ORIGIN LEVEL: 0 DIFFERENT FILL-ORIGIN LEVEL: 0

PSCL3 TOTAL     ACCESS:       9818  HIT:       9788  MISS:         30  HIT %:    99.6944  MISS %:   0.305561   MPKI: 0.00015
PSCL3 LOAD TRANSLATION ACCESS:       9818  HIT:       9788  MISS:         30  HIT %:    99.6944  MISS %:   0.305561   MPKI: 0.00015
PSCL3 PREFETCH  REQUESTED:          0  ISSUED:          0  USEFUL:          0  USELESS:          0
PSCL3 USEFUL LOAD PREFETCHES:          0 PREFETCH ISSUED TO LOWER LEVEL:          0  ACCURACY: -nan
PSCL3 TIMELY PREFETCHES:          0 LATE PREFETCHES: 0 DROPPED PREFETCHES: 0
PSCL3 PREFETCHES SAME FILL-ORIGIN LEVEL: 0 DIFFERENT FILL-ORIGIN LEVEL: 0

PSCL2 TOTAL     ACCESS:       9836  HIT:       8912  MISS:        924  HIT %:    90.6059  MISS %:    9.39406   MPKI: 0.00462
PSCL2 LOAD TRANSLATION ACCESS:       9836  HIT:       8912  MISS:        924  HIT %:    90.6059  MISS %:    9.39406   MPKI: 0.00462
PSCL2 PREFETCH  REQUESTED:          0  ISSUED:          0  USEFUL:          0  USELESS:          0
PSCL2 USEFUL LOAD PREFETCHES:          0 PREFETCH ISSUED TO LOWER LEVEL:          0  ACCURACY: -nan
PSCL2 TIMELY PREFETCHES:          0 LATE PREFETCHES: 0 DROPPED PREFETCHES: 0
PSCL2 PREFETCHES SAME FILL-ORIGIN LEVEL: 0 DIFFERENT FILL-ORIGIN LEVEL: 0

LLC TOTAL     ACCESS:    1900540  HIT:    1868880  MISS:      31660  HIT %:    98.3342  MISS %:    1.66584   MPKI: 0.1583
LLC LOAD      ACCESS:    1130857  HIT:    1126205  MISS:       4652  HIT %:    99.5886  MISS %:   0.411369   MPKI: 0.02326
LLC RFO       ACCESS:     203008  HIT:     190152  MISS:      12856  HIT %:    93.6672  MISS %:    6.33276   MPKI: 0.06428
LLC PREFETCH  ACCESS:     278842  HIT:     264872  MISS:      13970  HIT %:      94.99  MISS %:    5.01001   MPKI: 0.06985
AGUS PREFETCH L1 MISS: 0
LLC WRITEBACK ACCESS:     280458  HIT:     280356  MISS:        102  HIT %:    99.9636  MISS %:  0.0363691   MPKI: 0.00051
LLC LOAD TRANSLATION ACCESS:       7375  HIT:       7295  MISS:         80  HIT %:    98.9153  MISS %:    1.08475   MPKI: 0.0004
LLC PREFETCH  REQUESTED:          0  ISSUED:          0  USEFUL:        710  USELESS:      13141
LLC USEFUL LOAD PREFETCHES:        710 PREFETCH ISSUED TO LOWER LEVEL:      13970  ACCURACY: 5.08232
LLC TIMELY PREFETCHES:        710 LATE PREFETCHES: 0 DROPPED PREFETCHES: 0
LLC PREFETCHES SAME FILL-ORIGIN LEVEL: 0 DIFFERENT FILL-ORIGIN LEVEL: 0
LLC AVERAGE MISS LATENCY: 151.06 cycles
LLC RQ	ACCESS:    1341240	FORWARD:          0	MERGED:          0	TO_CACHE:    1341240
LLC WQ	ACCESS:     280458	FORWARD:          2	MERGED:          0	TO_CACHE:     280458
LLC PQ	ACCESS:     278844	FORWARD:          0	MERGED:          0	TO_CACHE:     278842

LLC Dense regions hint to LLC: 0

RAW hits: 1383062
Loads Generated: 48288798
Loads sent to L1D: 46905736
Stores Generated: 26309148
Stores sent to L1D: 26309150
Major fault: 0 Minor fault: 1865
Allocated PAGES: 1865
[Bingo] PHT Access: 811657
[Bingo] PHT Hit PC+Addr: 454214
[Bingo] PHT Hit PC+Offs: 66587
[Bingo] PHT Miss: 290856
[Bingo] Prefetch PC+Addr: 0
[Bingo] Prefetch PC+Offs: 0
[Bingo] Useful PC+Addr: 0
[Bingo] Useful PC+Offs: 0
[Bingo] Useless PC+Addr: 0
[Bingo] Useless PC+Offs: 0
[Bingo] L1 Prefetch per Region: 0
[Bingo] L2 Prefetch per Region: 4.52473
[Bingo] L3 Prefetch per Region: 0
[Bingo] No Prefetch per Region: 27.4753
[Bingo] Number of Voters Mean: 8.22794
[Bingo] Number of Voters SD: 7.47086
PHT read accesses: 2316020
PHT write accesses: 379745
AT read accesses: 2023841
AT write accesses: 2337657
FT read accesses: 1192566
FT write accesses: 811657
PS read accesses: 1073896
PS write accesses: 520801
PHT tag read accesses: 12738718
PHT tag write accesses: 833959
AT tag read accesses: 88895939
AT tag write accesses: 2403588
FT tag read accesses: 74882340
FT tag write accesses: 1613193
PS tag read accesses: 61867301
PS tag write accesses: 1594247

DRAM Statistics
 CHANNEL 0
 RQ ROW_BUFFER_HIT:      10208  ROW_BUFFER_MISS:      21347
 DBUS_CONGESTED:         42
 WQ ROW_BUFFER_HIT:        924  ROW_BUFFER_MISS:      13375  FULL:          0

 AVG_CONGESTED_CYCLE: 5
 All warmup complete: 2
Channel 0 Bank busy for read cycles: 0
Channel 0 Bank busy for write cycles: 0
Channel 0
Rank 0
0banks busy for read cycles: 597788298
0banks busy for write cycles: 5422
1banks busy for read cycles: 953510
1banks busy for write cycles: 579825
2banks busy for read cycles: 325382
2banks busy for write cycles: 175861
3banks busy for read cycles: 156555
3banks busy for write cycles: 94114
4banks busy for read cycles: 107566
4banks busy for write cycles: 52176
5banks busy for read cycles: 61842
5banks busy for write cycles: 44585
6banks busy for read cycles: 47374
6banks busy for write cycles: 37658
7banks busy for read cycles: 35325
7banks busy for write cycles: 26596
8banks busy for read cycles: 46013
8banks busy for write cycles: 20651

CPU 0 Branch Prediction Accuracy: 99.8462% MPKI: 0.271815 Average ROB Occupancy at Mispredict: 52.518
Branch types
NOT_BRANCH: 164663070 82.3315%
BRANCH_DIRECT_JUMP: 2183492 1.09175%
BRANCH_INDIRECT: 11409987 5.70499%
BRANCH_CONDITIONAL: 13666237 6.83312%
BRANCH_DIRECT_CALL: 3412328 1.70616%
BRANCH_INDIRECT_CALL: 626274 0.313137%
BRANCH_RETURN: 4038590 2.0193%
BRANCH_OTHER: 0 0%

DRAM PAGES: 1048576
Allocated PAGES: 1865
