
*** ChampSim Multicore Out-of-Order Simulator ***

Warmup Instructions: 50000000
Simulation Instructions: 200000000
Number of CPUs: 1
LLC sets: 2048
LLC ways: 16
Off-chip DRAM Size: 4096 MB Channels: 1 Width: 64-bit Data Rate: 6400 MT/s
CPU 0 runs traces/spec2k17/srv_2.champsimtrace.xz
.xz
BTB has LRU replacement policy
ITLB has LRU replacement policy
DTLB has LRU replacement policy
STLB has LRU replacement policy
L1I has LRU replacement policy
L1D has LRU replacement policy
Bingo PHT WAYS: 16 and PHT_SIZE: 16384
Initialize SRRIP state for L2C
Initialize DRRIP state for LLC
Heartbeat CPU 0 instructions: 10000003 cycles: 2772171 heartbeat IPC: 3.60728 cumulative IPC: 3.60728 (Simulation time: 0 hr 0 min 33 sec) 
Heartbeat CPU 0 instructions: 20000000 cycles: 5536463 heartbeat IPC: 3.61756 cumulative IPC: 3.61241 (Simulation time: 0 hr 1 min 7 sec) 
Heartbeat CPU 0 instructions: 30000001 cycles: 8303576 heartbeat IPC: 3.61388 cumulative IPC: 3.6129 (Simulation time: 0 hr 1 min 40 sec) 
*** Reached end of trace for Core: 0 Repeating trace: traces/spec2k17/srv_2.champsimtrace.xz
Heartbeat CPU 0 instructions: 40000000 cycles: 11069638 heartbeat IPC: 3.61525 cumulative IPC: 3.61349 (Simulation time: 0 hr 2 min 14 sec) 
Heartbeat CPU 0 instructions: 50000000 cycles: 13832757 heartbeat IPC: 3.6191 cumulative IPC: 3.61461 (Simulation time: 0 hr 2 min 48 sec) 

Warmup complete CPU 0 instructions: 50000004 cycles: 13832758 (Simulation time: 0 hr 2 min 48 sec) 

Heartbeat CPU 0 instructions: 60000000 cycles: 36053695 heartbeat IPC: 0.450026 cumulative IPC: 0.450026 (Simulation time: 0 hr 3 min 40 sec) 
*** Reached end of trace for Core: 0 Repeating trace: traces/spec2k17/srv_2.champsimtrace.xz
Heartbeat CPU 0 instructions: 70000000 cycles: 58011912 heartbeat IPC: 0.45541 cumulative IPC: 0.452702 (Simulation time: 0 hr 4 min 31 sec) 
Heartbeat CPU 0 instructions: 80000001 cycles: 79358489 heartbeat IPC: 0.468459 cumulative IPC: 0.457835 (Simulation time: 0 hr 5 min 22 sec) 
Heartbeat CPU 0 instructions: 90000000 cycles: 101498228 heartbeat IPC: 0.451676 cumulative IPC: 0.45628 (Simulation time: 0 hr 6 min 14 sec) 
*** Reached end of trace for Core: 0 Repeating trace: traces/spec2k17/srv_2.champsimtrace.xz
Heartbeat CPU 0 instructions: 100000000 cycles: 123331223 heartbeat IPC: 0.458022 cumulative IPC: 0.456627 (Simulation time: 0 hr 7 min 8 sec) 
Heartbeat CPU 0 instructions: 110000000 cycles: 144746772 heartbeat IPC: 0.46695 cumulative IPC: 0.458316 (Simulation time: 0 hr 8 min 2 sec) 
Heartbeat CPU 0 instructions: 120000001 cycles: 166403360 heartbeat IPC: 0.461753 cumulative IPC: 0.458804 (Simulation time: 0 hr 8 min 52 sec) 
*** Reached end of trace for Core: 0 Repeating trace: traces/spec2k17/srv_2.champsimtrace.xz
Heartbeat CPU 0 instructions: 130000001 cycles: 188827050 heartbeat IPC: 0.445957 cumulative IPC: 0.457158 (Simulation time: 0 hr 9 min 39 sec) 
Heartbeat CPU 0 instructions: 140000000 cycles: 210178117 heartbeat IPC: 0.468361 cumulative IPC: 0.458376 (Simulation time: 0 hr 10 min 32 sec) 
Heartbeat CPU 0 instructions: 150000001 cycles: 231942198 heartbeat IPC: 0.459473 cumulative IPC: 0.458485 (Simulation time: 0 hr 11 min 20 sec) 
*** Reached end of trace for Core: 0 Repeating trace: traces/spec2k17/srv_2.champsimtrace.xz
Heartbeat CPU 0 instructions: 160000002 cycles: 254000516 heartbeat IPC: 0.453344 cumulative IPC: 0.458013 (Simulation time: 0 hr 12 min 11 sec) 
Heartbeat CPU 0 instructions: 170000001 cycles: 275619196 heartbeat IPC: 0.462563 cumulative IPC: 0.458389 (Simulation time: 0 hr 13 min 0 sec) 
Heartbeat CPU 0 instructions: 180000000 cycles: 297332461 heartbeat IPC: 0.460548 cumulative IPC: 0.458554 (Simulation time: 0 hr 13 min 51 sec) 
*** Reached end of trace for Core: 0 Repeating trace: traces/spec2k17/srv_2.champsimtrace.xz
Heartbeat CPU 0 instructions: 190000000 cycles: 319456817 heartbeat IPC: 0.451991 cumulative IPC: 0.458079 (Simulation time: 0 hr 14 min 43 sec) 
Heartbeat CPU 0 instructions: 200000000 cycles: 340990554 heartbeat IPC: 0.464388 cumulative IPC: 0.458494 (Simulation time: 0 hr 15 min 32 sec) 
Heartbeat CPU 0 instructions: 210000000 cycles: 362275410 heartbeat IPC: 0.469818 cumulative IPC: 0.459186 (Simulation time: 0 hr 16 min 20 sec) 
*** Reached end of trace for Core: 0 Repeating trace: traces/spec2k17/srv_2.champsimtrace.xz
Heartbeat CPU 0 instructions: 220000000 cycles: 384638912 heartbeat IPC: 0.447157 cumulative IPC: 0.458461 (Simulation time: 0 hr 17 min 11 sec) 
Heartbeat CPU 0 instructions: 230000002 cycles: 406323126 heartbeat IPC: 0.461165 cumulative IPC: 0.45861 (Simulation time: 0 hr 18 min 3 sec) 
Heartbeat CPU 0 instructions: 240000002 cycles: 427645556 heartbeat IPC: 0.46899 cumulative IPC: 0.459145 (Simulation time: 0 hr 18 min 54 sec) 
*** Reached end of trace for Core: 0 Repeating trace: traces/spec2k17/srv_2.champsimtrace.xz
Heartbeat CPU 0 instructions: 250000003 cycles: 449937835 heartbeat IPC: 0.448586 cumulative IPC: 0.458605 (Simulation time: 0 hr 19 min 43 sec) 
Finished CPU 0 instructions: 200000003 cycles: 436105078 cumulative IPC: 0.458605 (Simulation time: 0 hr 19 min 43 sec) 

ChampSim completed all CPUs

Region of Interest Statistics

CPU 0 cumulative IPC: 0.458605 instructions: 200000003 cycles: 436105078
ITLB TOTAL     ACCESS:   31281535  HIT:   30502790  MISS:     778745  HIT %:    97.5105  MISS %:    2.48947   MPKI: 3.89372
ITLB LOAD TRANSLATION ACCESS:   31281535  HIT:   30502790  MISS:     778745  HIT %:    97.5105  MISS %:    2.48947   MPKI: 3.89372
ITLB PREFETCH  REQUESTED:          0  ISSUED:          0  USEFUL:          0  USELESS:          0
ITLB USEFUL LOAD PREFETCHES:          0 PREFETCH ISSUED TO LOWER LEVEL:          0  ACCURACY: -nan
ITLB TIMELY PREFETCHES:          0 LATE PREFETCHES: 0 DROPPED PREFETCHES: 0
ITLB PREFETCHES SAME FILL-ORIGIN LEVEL: 0 DIFFERENT FILL-ORIGIN LEVEL: 0
ITLB AVERAGE MISS LATENCY: 13.8376 cycles
ITLB RQ	ACCESS:   38367441	FORWARD:          0	MERGED:    6891452	TO_CACHE:   31475989

DTLB TOTAL     ACCESS:   37385159  HIT:   34790457  MISS:    2594702  HIT %:    93.0595  MISS %:    6.94046   MPKI: 12.9735
DTLB LOAD TRANSLATION ACCESS:   37385159  HIT:   34790457  MISS:    2594702  HIT %:    93.0595  MISS %:    6.94046   MPKI: 12.9735
DTLB PREFETCH  REQUESTED:          0  ISSUED:          0  USEFUL:          0  USELESS:          0
DTLB USEFUL LOAD PREFETCHES:          0 PREFETCH ISSUED TO LOWER LEVEL:          0  ACCURACY: -nan
DTLB TIMELY PREFETCHES:          0 LATE PREFETCHES: 0 DROPPED PREFETCHES: 0
DTLB PREFETCHES SAME FILL-ORIGIN LEVEL: 0 DIFFERENT FILL-ORIGIN LEVEL: 0
DTLB AVERAGE MISS LATENCY: 13.7962 cycles
DTLB RQ	ACCESS:   47767728	FORWARD:          0	MERGED:   10239802	TO_CACHE:   37527926

STLB TOTAL     ACCESS:    3373447  HIT:    3039306  MISS:     334141  HIT %:     90.095  MISS %:    9.90503   MPKI: 1.6707
STLB LOAD TRANSLATION ACCESS:    3373447  HIT:    3039306  MISS:     334141  HIT %:     90.095  MISS %:    9.90503   MPKI: 1.6707
STLB PREFETCH  REQUESTED:          0  ISSUED:          0  USEFUL:          0  USELESS:          0
STLB USEFUL LOAD PREFETCHES:          0 PREFETCH ISSUED TO LOWER LEVEL:          0  ACCURACY: -nan
STLB TIMELY PREFETCHES:          0 LATE PREFETCHES: 0 DROPPED PREFETCHES: 0
STLB PREFETCHES SAME FILL-ORIGIN LEVEL: 0 DIFFERENT FILL-ORIGIN LEVEL: 0
STLB AVERAGE MISS LATENCY: 48.2737 cycles
STLB RQ	ACCESS:    3373447	FORWARD:          0	MERGED:          0	TO_CACHE:    3373447

STLB Hit, L1D data hit: 0
STLB Hit, L2C data hit: 0
STLB Hit, LLC data hit: 0
STLB Hit, LLC data miss: 0
STLB STLB hints to L2: 0
L1D TOTAL     ACCESS:   47286363  HIT:   44835073  MISS:    2451290  HIT %:    94.8161  MISS %:    5.18393   MPKI: 12.2564
L1D LOAD      ACCESS:   27733548  HIT:   25619841  MISS:    2113707  HIT %:    92.3785  MISS %:    7.62148   MPKI: 10.5685
L1D RFO       ACCESS:   19552815  HIT:   19215232  MISS:     337583  HIT %:    98.2735  MISS %:    1.72652   MPKI: 1.68791
L1D PREFETCH  REQUESTED:          0  ISSUED:          0  USEFUL:          0  USELESS:          0
L1D USEFUL LOAD PREFETCHES:          0 PREFETCH ISSUED TO LOWER LEVEL:          0  ACCURACY: -nan
L1D TIMELY PREFETCHES:          0 LATE PREFETCHES: 0 DROPPED PREFETCHES: 0
L1D PREFETCHES SAME FILL-ORIGIN LEVEL: 0 DIFFERENT FILL-ORIGIN LEVEL: 0
L1D AVERAGE MISS LATENCY: 28.8574 cycles
L1D RQ	ACCESS:   42318686	FORWARD:          0	MERGED:   14259533	TO_CACHE:   27810815
L1D WQ	ACCESS:   20224318	FORWARD:     248338	MERGED:     267405	TO_CACHE:   19956913

L1D UNIQUE REGIONS ACCESSED: 0
L1D REGIONS CONFLICTS: 0
L1D Cross Page Prefetch Requests: 0
L1D Same Page Prefetch Requests: 0
L1D ROI Sum of L1D PQ occupancy: 0
L1D PREFETCHES PUSHED FROM L2C: 0
L1I TOTAL     ACCESS:   36555451  HIT:   31407165  MISS:    5148286  HIT %:    85.9165  MISS %:    14.0835   MPKI: 25.7414
L1I LOAD      ACCESS:   36555451  HIT:   31407165  MISS:    5148286  HIT %:    85.9165  MISS %:    14.0835   MPKI: 25.7414
L1I PREFETCH  REQUESTED:          0  ISSUED:          0  USEFUL:          0  USELESS:          0
L1I USEFUL LOAD PREFETCHES:          0 PREFETCH ISSUED TO LOWER LEVEL:          0  ACCURACY: -nan
L1I TIMELY PREFETCHES:          0 LATE PREFETCHES: 0 DROPPED PREFETCHES: 0
L1I PREFETCHES SAME FILL-ORIGIN LEVEL: 0 DIFFERENT FILL-ORIGIN LEVEL: 0
L1I AVERAGE MISS LATENCY: 26.1373 cycles
L1I RQ	ACCESS:   57166978	FORWARD:          0	MERGED:   18799537	TO_CACHE:   38367441

BTB TOTAL     ACCESS:   22017285  HIT:   17637201  MISS:    4380084  HIT %:    80.1062  MISS %:    19.8938   MPKI: 21.9004
BTB BRANCH_DIRECT_JUMP	ACCESS:    1737856  HIT:    1493758  MISS:     244098
BTB BRANCH_INDIRECT	ACCESS:    9415711  HIT:    7279334  MISS:    2136377
BTB BRANCH_CONDITIONAL	ACCESS:    4567442  HIT:    4164173  MISS:     403269
BTB BRANCH_DIRECT_CALL	ACCESS:    2474422  HIT:    1994046  MISS:     480376
BTB BRANCH_INDIRECT_CALL	ACCESS:     673221  HIT:     632799  MISS:      40422
BTB BRANCH_RETURN	ACCESS:    3148633  HIT:    2073091  MISS:    1075542
BTB BRANCH_OTHER ACCESS:          0  HIT:          0  MISS:          0

L2C TOTAL     ACCESS:   10399842  HIT:    7113621  MISS:    3286221  HIT %:    68.4012  MISS %:    31.5988   MPKI: 16.4311
L2C LOAD      ACCESS:    7261765  HIT:    4865278  MISS:    2396487  HIT %:    66.9986  MISS %:    33.0014   MPKI: 11.9824
L2C DATA LOAD MPKI: 2.26958
L2C INSTRUCTION LOAD MPKI: 9.71285
L2C RFO       ACCESS:     337583  HIT:     194828  MISS:     142755  HIT %:    57.7126  MISS %:    42.2874   MPKI: 0.713775
L2C PREFETCH  ACCESS:    1350448  HIT:     827209  MISS:     523239  HIT %:    61.2544  MISS %:    38.7456   MPKI: 2.61619
AGUS PREFETCH L1 MISS: 0
L2C DATA PREFETCH MPKI: 2.61619
L2C INSTRUCTION PREFETCH MPKI: 0
L2C WRITEBACK ACCESS:    1008781  HIT:     975662  MISS:      33119  HIT %:    96.7169  MISS %:    3.28307   MPKI: 0.165595
L2C LOAD TRANSLATION ACCESS:     441265  HIT:     250644  MISS:     190621  HIT %:    56.8012  MISS %:    43.1988   MPKI: 0.953105
L2C PREFETCH  REQUESTED:    1391444  ISSUED:    1391444  USEFUL:     403491  USELESS:     119689
L2C USEFUL LOAD PREFETCHES:     403491 PREFETCH ISSUED TO LOWER LEVEL:     532988  ACCURACY: 75.7036
L2C TIMELY PREFETCHES:     403491 LATE PREFETCHES: 9749 DROPPED PREFETCHES: 0
L2C PREFETCHES SAME FILL-ORIGIN LEVEL: 532988 DIFFERENT FILL-ORIGIN LEVEL: 0
L2C AVERAGE MISS LATENCY: 47.2089 cycles
L2C RQ	ACCESS:    8040842	FORWARD:          0	MERGED:          0	TO_CACHE:    8040614
L2C WQ	ACCESS:    1008781	FORWARD:        228	MERGED:          0	TO_CACHE:    1008781
L2C PQ	ACCESS:    1391444	FORWARD:          0	MERGED:          0	TO_CACHE:    1391444

L2C Instructions Evicting Data 661347
L2C Translations Evicting Data 69701
L2C Data Evicting Data 409371
L2C Instructions Evicting Instructions 1174606
L2C Translations Evicting Instructions 108170
L2C Data Evicting Instructions 640664
L2C Instructions Evicting Translations 106618
L2C Translations Evicting Translations 12750
L2C Data Evicting Translations 69875
L2C Dense regions hint from L2: 0
PSCL5 TOTAL     ACCESS:     334141  HIT:     334141  MISS:          0  HIT %:        100  MISS %:          0   MPKI: 0
PSCL5 LOAD TRANSLATION ACCESS:     334141  HIT:     334141  MISS:          0  HIT %:        100  MISS %:          0   MPKI: 0
PSCL5 PREFETCH  REQUESTED:          0  ISSUED:          0  USEFUL:          0  USELESS:          0
PSCL5 USEFUL LOAD PREFETCHES:          0 PREFETCH ISSUED TO LOWER LEVEL:          0  ACCURACY: -nan
PSCL5 TIMELY PREFETCHES:          0 LATE PREFETCHES: 0 DROPPED PREFETCHES: 0
PSCL5 PREFETCHES SAME FILL-ORIGIN LEVEL: 0 DIFFERENT FILL-ORIGIN LEVEL: 0

PSCL4 TOTAL     ACCESS:     315393  HIT:     314992  MISS:        401  HIT %:    99.8729  MISS %:   0.127143   MPKI: 0.002005
PSCL4 LOAD TRANSLATION ACCESS:     315393  HIT:     314992  MISS:        401  HIT %:    99.8729  MISS %:   0.127143   MPKI: 0.002005
PSCL4 PREFETCH  REQUESTED:          0  ISSUED:          0  USEFUL:          0  USELESS:          0
PSCL4 USEFUL LOAD PREFETCHES:          0 PREFETCH ISSUED TO LOWER LEVEL:          0  ACCURACY: -nan
PSCL4 TIMELY PREFETCHES:          0 LATE PREFETCHES: 0 DROPPED PREFETCHES: 0
PSCL4 PREFETCHES SAME FILL-ORIGIN LEVEL: 0 DIFFERENT FILL-ORIGIN LEVEL: 0

PSCL3 TOTAL     ACCESS:     333217  HIT:     332413  MISS:        804  HIT %:    99.7587  MISS %:   0.241284   MPKI: 0.00402
PSCL3 LOAD TRANSLATION ACCESS:     333217  HIT:     332413  MISS:        804  HIT %:    99.7587  MISS %:   0.241284   MPKI: 0.00402
PSCL3 PREFETCH  REQUESTED:          0  ISSUED:          0  USEFUL:          0  USELESS:          0
PSCL3 USEFUL LOAD PREFETCHES:          0 PREFETCH ISSUED TO LOWER LEVEL:          0  ACCURACY: -nan
PSCL3 TIMELY PREFETCHES:          0 LATE PREFETCHES: 0 DROPPED PREFETCHES: 0
PSCL3 PREFETCHES SAME FILL-ORIGIN LEVEL: 0 DIFFERENT FILL-ORIGIN LEVEL: 0

PSCL2 TOTAL     ACCESS:     334141  HIT:     228222  MISS:     105919  HIT %:    68.3011  MISS %:    31.6989   MPKI: 0.529595
PSCL2 LOAD TRANSLATION ACCESS:     334141  HIT:     228222  MISS:     105919  HIT %:    68.3011  MISS %:    31.6989   MPKI: 0.529595
PSCL2 PREFETCH  REQUESTED:          0  ISSUED:          0  USEFUL:          0  USELESS:          0
PSCL2 USEFUL LOAD PREFETCHES:          0 PREFETCH ISSUED TO LOWER LEVEL:          0  ACCURACY: -nan
PSCL2 TIMELY PREFETCHES:          0 LATE PREFETCHES: 0 DROPPED PREFETCHES: 0
PSCL2 PREFETCHES SAME FILL-ORIGIN LEVEL: 0 DIFFERENT FILL-ORIGIN LEVEL: 0

LLC TOTAL     ACCESS:    3682809  HIT:    3324855  MISS:     357954  HIT %:    90.2804  MISS %:    9.71959   MPKI: 1.78977
LLC LOAD      ACCESS:    2386872  HIT:    2298238  MISS:      88634  HIT %:    96.2866  MISS %:     3.7134   MPKI: 0.44317
LLC RFO       ACCESS:     142615  HIT:      98135  MISS:      44480  HIT %:    68.8111  MISS %:    31.1889   MPKI: 0.2224
LLC PREFETCH  ACCESS:     532988  HIT:     323758  MISS:     209230  HIT %:     60.744  MISS %:     39.256   MPKI: 1.04615
AGUS PREFETCH L1 MISS: 0
LLC WRITEBACK ACCESS:     429713  HIT:     427597  MISS:       2116  HIT %:    99.5076  MISS %:   0.492422   MPKI: 0.01058
LLC LOAD TRANSLATION ACCESS:     190621  HIT:     177127  MISS:      13494  HIT %:     92.921  MISS %:    7.07897   MPKI: 0.06747
LLC PREFETCH  REQUESTED:          0  ISSUED:          0  USEFUL:       4286  USELESS:     205938
LLC USEFUL LOAD PREFETCHES:       4286 PREFETCH ISSUED TO LOWER LEVEL:     209230  ACCURACY: 2.04846
LLC TIMELY PREFETCHES:       4286 LATE PREFETCHES: 0 DROPPED PREFETCHES: 0
LLC PREFETCHES SAME FILL-ORIGIN LEVEL: 0 DIFFERENT FILL-ORIGIN LEVEL: 0
LLC AVERAGE MISS LATENCY: 161.801 cycles
LLC RQ	ACCESS:    2720115	FORWARD:          0	MERGED:          0	TO_CACHE:    2720109
LLC WQ	ACCESS:     429713	FORWARD:          6	MERGED:          0	TO_CACHE:     429713
LLC PQ	ACCESS:     532988	FORWARD:          0	MERGED:          0	TO_CACHE:     532988

LLC Dense regions hint to LLC: 0

RAW hits: 2554498
Loads Generated: 44873183
Loads sent to L1D: 42318686
Stores Generated: 20224312
Stores sent to L1D: 20224318
Major fault: 0 Minor fault: 6527
Allocated PAGES: 6527
[Bingo] PHT Access: 838734
[Bingo] PHT Hit PC+Addr: 392569
[Bingo] PHT Hit PC+Offs: 49892
[Bingo] PHT Miss: 396273
[Bingo] Prefetch PC+Addr: 0
[Bingo] Prefetch PC+Offs: 0
[Bingo] Useful PC+Addr: 0
[Bingo] Useful PC+Offs: 0
[Bingo] Useless PC+Addr: 0
[Bingo] Useless PC+Offs: 0
[Bingo] L1 Prefetch per Region: 0
[Bingo] L2 Prefetch per Region: 4.16679
[Bingo] L3 Prefetch per Region: 0
[Bingo] No Prefetch per Region: 27.8332
[Bingo] Number of Voters Mean: 5.17159
[Bingo] Number of Voters SD: 5.90841
PHT read accesses: 5086562
PHT write accesses: 324067
AT read accesses: 1346382
AT write accesses: 1595608
FT read accesses: 1000730
FT write accesses: 838734
PS read accesses: 895639
PS write accesses: 442461
PHT tag read accesses: 13592277
PHT tag write accesses: 716636
AT tag read accesses: 101383347
AT tag write accesses: 1670447
FT tag read accesses: 100655933
FT tag write accesses: 1512197
PS tag read accesses: 48793035
PS tag write accesses: 1337200

DRAM Statistics
 CHANNEL 0
 RQ ROW_BUFFER_HIT:     124353  ROW_BUFFER_MISS:     231485
 DBUS_CONGESTED:        213
 WQ ROW_BUFFER_HIT:      35234  ROW_BUFFER_MISS:     185099  FULL:          0

 AVG_CONGESTED_CYCLE: 4
 All warmup complete: 2
Channel 0 Bank busy for read cycles: 0
Channel 0 Bank busy for write cycles: 0
Channel 0
Rank 0
0banks busy for read cycles: 404395818
0banks busy for write cycles: 44583
1banks busy for read cycles: 10426213
1banks busy for write cycles: 5264215
2banks busy for read cycles: 2576385
2banks busy for write cycles: 2374868
3banks busy for read cycles: 1342184
3banks busy for write cycles: 1671998
4banks busy for read cycles: 917389
4banks busy for write cycles: 1245405
5banks busy for read cycles: 559169
5banks busy for write cycles: 979821
6banks busy for read cycles: 418283
6banks busy for write cycles: 841271
7banks busy for read cycles: 473094
7banks busy for write cycles: 742434
8banks busy for read cycles: 1131305
8banks busy for write cycles: 700644

CPU 0 Branch Prediction Accuracy: 99.8118% MPKI: 0.33607 Average ROB Occupancy at Mispredict: 36.6084
Branch types
NOT_BRANCH: 164293632 82.1468%
BRANCH_DIRECT_JUMP: 1737856 0.868928%
BRANCH_INDIRECT: 9415711 4.70786%
BRANCH_CONDITIONAL: 18256213 9.12811%
BRANCH_DIRECT_CALL: 2474422 1.23721%
BRANCH_INDIRECT_CALL: 673221 0.33661%
BRANCH_RETURN: 3148633 1.57432%
BRANCH_OTHER: 0 0%

DRAM PAGES: 1048576
Allocated PAGES: 6527
