
*** ChampSim Multicore Out-of-Order Simulator ***

Warmup Instructions: 50000000
Simulation Instructions: 200000000
Number of CPUs: 1
LLC sets: 2048
LLC ways: 16
Off-chip DRAM Size: 4096 MB Channels: 1 Width: 64-bit Data Rate: 6400 MT/s
CPU 0 runs traces/spec2k17/srv_22.champsimtrace.xz
.xz
BTB has LRU replacement policy
ITLB has LRU replacement policy
DTLB has LRU replacement policy
STLB has LRU replacement policy
L1I has LRU replacement policy
L1D has LRU replacement policy
Bingo PHT WAYS: 16 and PHT_SIZE: 16384
Initialize SRRIP state for L2C
Initialize DRRIP state for LLC
Heartbeat CPU 0 instructions: 10000000 cycles: 2814090 heartbeat IPC: 3.55355 cumulative IPC: 3.55355 (Simulation time: 0 hr 0 min 37 sec) 
Heartbeat CPU 0 instructions: 20000000 cycles: 5627472 heartbeat IPC: 3.55444 cumulative IPC: 3.55399 (Simulation time: 0 hr 1 min 11 sec) 
Heartbeat CPU 0 instructions: 30000000 cycles: 8441295 heartbeat IPC: 3.55388 cumulative IPC: 3.55396 (Simulation time: 0 hr 1 min 45 sec) 
*** Reached end of trace for Core: 0 Repeating trace: traces/spec2k17/srv_22.champsimtrace.xz
Heartbeat CPU 0 instructions: 40000003 cycles: 11248934 heartbeat IPC: 3.56171 cumulative IPC: 3.55589 (Simulation time: 0 hr 2 min 19 sec) 
Heartbeat CPU 0 instructions: 50000001 cycles: 14060192 heartbeat IPC: 3.55713 cumulative IPC: 3.55614 (Simulation time: 0 hr 2 min 49 sec) 

Warmup complete CPU 0 instructions: 50000001 cycles: 14060192 (Simulation time: 0 hr 2 min 49 sec) 

Heartbeat CPU 0 instructions: 60000001 cycles: 44551170 heartbeat IPC: 0.327966 cumulative IPC: 0.327966 (Simulation time: 0 hr 3 min 46 sec) 
*** Reached end of trace for Core: 0 Repeating trace: traces/spec2k17/srv_22.champsimtrace.xz
Heartbeat CPU 0 instructions: 70000001 cycles: 74459207 heartbeat IPC: 0.334358 cumulative IPC: 0.331131 (Simulation time: 0 hr 4 min 43 sec) 
Heartbeat CPU 0 instructions: 80000001 cycles: 104841713 heartbeat IPC: 0.329137 cumulative IPC: 0.330464 (Simulation time: 0 hr 5 min 37 sec) 
Heartbeat CPU 0 instructions: 90000000 cycles: 134757521 heartbeat IPC: 0.334271 cumulative IPC: 0.331407 (Simulation time: 0 hr 6 min 32 sec) 
*** Reached end of trace for Core: 0 Repeating trace: traces/spec2k17/srv_22.champsimtrace.xz
Heartbeat CPU 0 instructions: 100000002 cycles: 164720673 heartbeat IPC: 0.333743 cumulative IPC: 0.331872 (Simulation time: 0 hr 7 min 28 sec) 
Heartbeat CPU 0 instructions: 110000000 cycles: 194947325 heartbeat IPC: 0.330834 cumulative IPC: 0.331699 (Simulation time: 0 hr 8 min 23 sec) 
Heartbeat CPU 0 instructions: 120000000 cycles: 224893632 heartbeat IPC: 0.333931 cumulative IPC: 0.332016 (Simulation time: 0 hr 9 min 19 sec) 
*** Reached end of trace for Core: 0 Repeating trace: traces/spec2k17/srv_22.champsimtrace.xz
Heartbeat CPU 0 instructions: 130000000 cycles: 254954119 heartbeat IPC: 0.332663 cumulative IPC: 0.332096 (Simulation time: 0 hr 10 min 14 sec) 
Heartbeat CPU 0 instructions: 140000002 cycles: 285098036 heartbeat IPC: 0.331742 cumulative IPC: 0.332057 (Simulation time: 0 hr 11 min 7 sec) 
Heartbeat CPU 0 instructions: 150000003 cycles: 315211835 heartbeat IPC: 0.332074 cumulative IPC: 0.332059 (Simulation time: 0 hr 12 min 6 sec) 
*** Reached end of trace for Core: 0 Repeating trace: traces/spec2k17/srv_22.champsimtrace.xz
Heartbeat CPU 0 instructions: 160000000 cycles: 345425667 heartbeat IPC: 0.330974 cumulative IPC: 0.33196 (Simulation time: 0 hr 12 min 58 sec) 
Heartbeat CPU 0 instructions: 170000001 cycles: 375162243 heartbeat IPC: 0.336286 cumulative IPC: 0.332316 (Simulation time: 0 hr 13 min 54 sec) 
Heartbeat CPU 0 instructions: 180000001 cycles: 405481993 heartbeat IPC: 0.329818 cumulative IPC: 0.332123 (Simulation time: 0 hr 14 min 47 sec) 
*** Reached end of trace for Core: 0 Repeating trace: traces/spec2k17/srv_22.champsimtrace.xz
Heartbeat CPU 0 instructions: 190000003 cycles: 435511598 heartbeat IPC: 0.333005 cumulative IPC: 0.332185 (Simulation time: 0 hr 15 min 41 sec) 
Heartbeat CPU 0 instructions: 200000001 cycles: 465392899 heartbeat IPC: 0.334657 cumulative IPC: 0.332349 (Simulation time: 0 hr 16 min 37 sec) 
Heartbeat CPU 0 instructions: 210000000 cycles: 495615940 heartbeat IPC: 0.330873 cumulative IPC: 0.332256 (Simulation time: 0 hr 17 min 31 sec) 
*** Reached end of trace for Core: 0 Repeating trace: traces/spec2k17/srv_22.champsimtrace.xz
Heartbeat CPU 0 instructions: 220000000 cycles: 525675200 heartbeat IPC: 0.332676 cumulative IPC: 0.332281 (Simulation time: 0 hr 18 min 26 sec) 
Heartbeat CPU 0 instructions: 230000001 cycles: 555330142 heartbeat IPC: 0.337212 cumulative IPC: 0.332551 (Simulation time: 0 hr 19 min 20 sec) 
Heartbeat CPU 0 instructions: 240000001 cycles: 585606236 heartbeat IPC: 0.330294 cumulative IPC: 0.332432 (Simulation time: 0 hr 20 min 19 sec) 
*** Reached end of trace for Core: 0 Repeating trace: traces/spec2k17/srv_22.champsimtrace.xz
Heartbeat CPU 0 instructions: 250000001 cycles: 615640269 heartbeat IPC: 0.332956 cumulative IPC: 0.332458 (Simulation time: 0 hr 21 min 16 sec) 
Finished CPU 0 instructions: 200000000 cycles: 601580077 cumulative IPC: 0.332458 (Simulation time: 0 hr 21 min 16 sec) 

ChampSim completed all CPUs

Region of Interest Statistics

CPU 0 cumulative IPC: 0.332458 instructions: 200000000 cycles: 601580077
ITLB TOTAL     ACCESS:   34470283  HIT:   32614394  MISS:    1855889  HIT %:     94.616  MISS %:    5.38403   MPKI: 9.27945
ITLB LOAD TRANSLATION ACCESS:   34470283  HIT:   32614394  MISS:    1855889  HIT %:     94.616  MISS %:    5.38403   MPKI: 9.27945
ITLB PREFETCH  REQUESTED:          0  ISSUED:          0  USEFUL:          0  USELESS:          0
ITLB USEFUL LOAD PREFETCHES:          0 PREFETCH ISSUED TO LOWER LEVEL:          0  ACCURACY: -nan
ITLB TIMELY PREFETCHES:          0 LATE PREFETCHES: 0 DROPPED PREFETCHES: 0
ITLB PREFETCHES SAME FILL-ORIGIN LEVEL: 0 DIFFERENT FILL-ORIGIN LEVEL: 0
ITLB AVERAGE MISS LATENCY: 9.04681 cycles
ITLB RQ	ACCESS:   40297033	FORWARD:          0	MERGED:    5379113	TO_CACHE:   34917920

DTLB TOTAL     ACCESS:   45382851  HIT:   43588148  MISS:    1794703  HIT %:    96.0454  MISS %:    3.95458   MPKI: 8.97352
DTLB LOAD TRANSLATION ACCESS:   45382851  HIT:   43588148  MISS:    1794703  HIT %:    96.0454  MISS %:    3.95458   MPKI: 8.97352
DTLB PREFETCH  REQUESTED:          0  ISSUED:          0  USEFUL:          0  USELESS:          0
DTLB USEFUL LOAD PREFETCHES:          0 PREFETCH ISSUED TO LOWER LEVEL:          0  ACCURACY: -nan
DTLB TIMELY PREFETCHES:          0 LATE PREFETCHES: 0 DROPPED PREFETCHES: 0
DTLB PREFETCHES SAME FILL-ORIGIN LEVEL: 0 DIFFERENT FILL-ORIGIN LEVEL: 0
DTLB AVERAGE MISS LATENCY: 9.2282 cycles
DTLB RQ	ACCESS:   59854930	FORWARD:          0	MERGED:   14408532	TO_CACHE:   45446398

STLB TOTAL     ACCESS:    3650592  HIT:    3640756  MISS:       9836  HIT %:    99.7306  MISS %:   0.269436   MPKI: 0.04918
STLB LOAD TRANSLATION ACCESS:    3650592  HIT:    3640756  MISS:       9836  HIT %:    99.7306  MISS %:   0.269436   MPKI: 0.04918
STLB PREFETCH  REQUESTED:          0  ISSUED:          0  USEFUL:          0  USELESS:          0
STLB USEFUL LOAD PREFETCHES:          0 PREFETCH ISSUED TO LOWER LEVEL:          0  ACCURACY: -nan
STLB TIMELY PREFETCHES:          0 LATE PREFETCHES: 0 DROPPED PREFETCHES: 0
STLB PREFETCHES SAME FILL-ORIGIN LEVEL: 0 DIFFERENT FILL-ORIGIN LEVEL: 0
STLB AVERAGE MISS LATENCY: 47.9077 cycles
STLB RQ	ACCESS:    3650592	FORWARD:          0	MERGED:          0	TO_CACHE:    3650592

STLB Hit, L1D data hit: 0
STLB Hit, L2C data hit: 0
STLB Hit, LLC data hit: 0
STLB Hit, LLC data miss: 0
STLB STLB hints to L2: 0
L1D TOTAL     ACCESS:   58116196  HIT:   54262010  MISS:    3854186  HIT %:    93.3681  MISS %:    6.63186   MPKI: 19.2709
L1D LOAD      ACCESS:   33621044  HIT:   30840447  MISS:    2780597  HIT %:    91.7296  MISS %:    8.27041   MPKI: 13.903
L1D RFO       ACCESS:   24495152  HIT:   23421563  MISS:    1073589  HIT %:    95.6171  MISS %:    4.38286   MPKI: 5.36794
L1D PREFETCH  REQUESTED:          0  ISSUED:          0  USEFUL:          0  USELESS:          0
L1D USEFUL LOAD PREFETCHES:          0 PREFETCH ISSUED TO LOWER LEVEL:          0  ACCURACY: -nan
L1D TIMELY PREFETCHES:          0 LATE PREFETCHES: 0 DROPPED PREFETCHES: 0
L1D PREFETCHES SAME FILL-ORIGIN LEVEL: 0 DIFFERENT FILL-ORIGIN LEVEL: 0
L1D AVERAGE MISS LATENCY: 18.6891 cycles
L1D RQ	ACCESS:   46903750	FORWARD:          0	MERGED:   12887622	TO_CACHE:   33717521
L1D WQ	ACCESS:   26309150	FORWARD:     298607	MERGED:     171741	TO_CACHE:   26137409

L1D UNIQUE REGIONS ACCESSED: 0
L1D REGIONS CONFLICTS: 0
L1D Cross Page Prefetch Requests: 0
L1D Same Page Prefetch Requests: 0
L1D ROI Sum of L1D PQ occupancy: 0
L1D PREFETCHES PUSHED FROM L2C: 0
L1I TOTAL     ACCESS:   38873805  HIT:   29163547  MISS:    9710258  HIT %:    75.0211  MISS %:    24.9789   MPKI: 48.5513
L1I LOAD      ACCESS:   38873805  HIT:   29163547  MISS:    9710258  HIT %:    75.0211  MISS %:    24.9789   MPKI: 48.5513
L1I PREFETCH  REQUESTED:          0  ISSUED:          0  USEFUL:          0  USELESS:          0
L1I USEFUL LOAD PREFETCHES:          0 PREFETCH ISSUED TO LOWER LEVEL:          0  ACCURACY: -nan
L1I TIMELY PREFETCHES:          0 LATE PREFETCHES: 0 DROPPED PREFETCHES: 0
L1I PREFETCHES SAME FILL-ORIGIN LEVEL: 0 DIFFERENT FILL-ORIGIN LEVEL: 0
L1I AVERAGE MISS LATENCY: 17.2097 cycles
L1I RQ	ACCESS:   57830755	FORWARD:          0	MERGED:   17533722	TO_CACHE:   40297033

BTB TOTAL     ACCESS:   30330112  HIT:   18855293  MISS:   11474819  HIT %:    62.1669  MISS %:    37.8331   MPKI: 57.3741
BTB BRANCH_DIRECT_JUMP	ACCESS:    2183492  HIT:    1381264  MISS:     802228
BTB BRANCH_INDIRECT	ACCESS:   11409987  HIT:    7107186  MISS:    4302801
BTB BRANCH_CONDITIONAL	ACCESS:    8659441  HIT:    7498829  MISS:    1160612
BTB BRANCH_DIRECT_CALL	ACCESS:    3412328  HIT:    1528915  MISS:    1883413
BTB BRANCH_INDIRECT_CALL	ACCESS:     626274  HIT:     246325  MISS:     379949
BTB BRANCH_RETURN	ACCESS:    4038590  HIT:    1092774  MISS:    2945816
BTB BRANCH_OTHER ACCESS:          0  HIT:          0  MISS:          0

L2C TOTAL     ACCESS:   17172176  HIT:   15403026  MISS:    1769150  HIT %:    89.6976  MISS %:    10.3024   MPKI: 8.84575
L2C LOAD      ACCESS:   12490821  HIT:   11292196  MISS:    1198625  HIT %:     90.404  MISS %:    9.59605   MPKI: 5.99313
L2C DATA LOAD MPKI: 0.939555
L2C INSTRUCTION LOAD MPKI: 5.05357
L2C RFO       ACCESS:    1073589  HIT:     854581  MISS:     219008  HIT %:    79.6004  MISS %:    20.3996   MPKI: 1.09504
L2C PREFETCH  ACCESS:    1790814  HIT:    1506032  MISS:     284782  HIT %:    84.0976  MISS %:    15.9024   MPKI: 1.42391
AGUS PREFETCH L1 MISS: 0
L2C DATA PREFETCH MPKI: 1.42391
L2C INSTRUCTION PREFETCH MPKI: 0
L2C WRITEBACK ACCESS:    1806132  HIT:    1747814  MISS:      58318  HIT %:    96.7711  MISS %:    3.22889   MPKI: 0.29159
L2C LOAD TRANSLATION ACCESS:      10820  HIT:       2403  MISS:       8417  HIT %:    22.2089  MISS %:    77.7911   MPKI: 0.042085
L2C PREFETCH  REQUESTED:    1814483  ISSUED:    1814483  USEFUL:     187944  USELESS:      96866
L2C USEFUL LOAD PREFETCHES:     187944 PREFETCH ISSUED TO LOWER LEVEL:     299016  ACCURACY: 62.8542
L2C TIMELY PREFETCHES:     187944 LATE PREFETCHES: 14234 DROPPED PREFETCHES: 0
L2C PREFETCHES SAME FILL-ORIGIN LEVEL: 299016 DIFFERENT FILL-ORIGIN LEVEL: 0
L2C AVERAGE MISS LATENCY: 31.3437 cycles
L2C RQ	ACCESS:   13575263	FORWARD:          0	MERGED:          0	TO_CACHE:   13575230
L2C WQ	ACCESS:    1806132	FORWARD:         33	MERGED:          0	TO_CACHE:    1806132
L2C PQ	ACCESS:    1814483	FORWARD:          0	MERGED:          0	TO_CACHE:    1814483

L2C Instructions Evicting Data 361189
L2C Translations Evicting Data 4935
L2C Data Evicting Data 356296
L2C Instructions Evicting Instructions 646153
L2C Translations Evicting Instructions 3351
L2C Data Evicting Instructions 330636
L2C Instructions Evicting Translations 3372
L2C Translations Evicting Translations 131
L2C Data Evicting Translations 4769
L2C Dense regions hint from L2: 0
PSCL5 TOTAL     ACCESS:       9836  HIT:       9836  MISS:          0  HIT %:        100  MISS %:          0   MPKI: 0
PSCL5 LOAD TRANSLATION ACCESS:       9836  HIT:       9836  MISS:          0  HIT %:        100  MISS %:          0   MPKI: 0
PSCL5 PREFETCH  REQUESTED:          0  ISSUED:          0  USEFUL:          0  USELESS:          0
PSCL5 USEFUL LOAD PREFETCHES:          0 PREFETCH ISSUED TO LOWER LEVEL:          0  ACCURACY: -nan
PSCL5 TIMELY PREFETCHES:          0 LATE PREFETCHES: 0 DROPPED PREFETCHES: 0
PSCL5 PREFETCHES SAME FILL-ORIGIN LEVEL: 0 DIFFERENT FILL-ORIGIN LEVEL: 0

PSCL4 TOTAL     ACCESS:       9782  HIT:       9752  MISS:         30  HIT %:    99.6933  MISS %:   0.306686   MPKI: 0.00015
PSCL4 LOAD TRANSLATION ACCESS:       9782  HIT:       9752  MISS:         30  HIT %:    99.6933  MISS %:   0.306686   MPKI: 0.00015
PSCL4 PREFETCH  REQUESTED:          0  ISSUED:          0  USEFUL:          0  USELESS:          0
PSCL4 USEFUL LOAD PREFETCHES:          0 PREFETCH ISSUED TO LOWER LEVEL:          0  ACCURACY: -nan
PSCL4 TIMELY PREFETCHES:          0 LATE PREFETCHES: 0 DROPPED PREFETCHES: 0
PSCL4 PREFETCHES SAME FILL-ORIGIN LEVEL: 0 DIFFERENT FILL-ORIGIN LEVEL: 0

PSCL3 TOTAL     ACCESS:       9818  HIT:       9788  MISS:         30  HIT %:    99.6944  MISS %:   0.305561   MPKI: 0.00015
PSCL3 LOAD TRANSLATION ACCESS:       9818  HIT:       9788  MISS:         30  HIT %:    99.6944  MISS %:   0.305561   MPKI: 0.00015
PSCL3 PREFETCH  REQUESTED:          0  ISSUED:          0  USEFUL:          0  USELESS:          0
PSCL3 USEFUL LOAD PREFETCHES:          0 PREFETCH ISSUED TO LOWER LEVEL:          0  ACCURACY: -nan
PSCL3 TIMELY PREFETCHES:          0 LATE PREFETCHES: 0 DROPPED PREFETCHES: 0
PSCL3 PREFETCHES SAME FILL-ORIGIN LEVEL: 0 DIFFERENT FILL-ORIGIN LEVEL: 0

PSCL2 TOTAL     ACCESS:       9836  HIT:       8912  MISS:        924  HIT %:    90.6059  MISS %:    9.39406   MPKI: 0.00462
PSCL2 LOAD TRANSLATION ACCESS:       9836  HIT:       8912  MISS:        924  HIT %:    90.6059  MISS %:    9.39406   MPKI: 0.00462
PSCL2 PREFETCH  REQUESTED:          0  ISSUED:          0  USEFUL:          0  USELESS:          0
PSCL2 USEFUL LOAD PREFETCHES:          0 PREFETCH ISSUED TO LOWER LEVEL:          0  ACCURACY: -nan
PSCL2 TIMELY PREFETCHES:          0 LATE PREFETCHES: 0 DROPPED PREFETCHES: 0
PSCL2 PREFETCHES SAME FILL-ORIGIN LEVEL: 0 DIFFERENT FILL-ORIGIN LEVEL: 0

LLC TOTAL     ACCESS:    2019215  HIT:    1991099  MISS:      28116  HIT %:    98.6076  MISS %:    1.39242   MPKI: 0.14058
LLC LOAD      ACCESS:    1184584  HIT:    1180279  MISS:       4305  HIT %:    99.6366  MISS %:   0.363419   MPKI: 0.021525
LLC RFO       ACCESS:     218814  HIT:     208088  MISS:      10726  HIT %:    95.0981  MISS %:    4.90188   MPKI: 0.05363
LLC PREFETCH  ACCESS:     299016  HIT:     286119  MISS:      12897  HIT %:    95.6869  MISS %:    4.31315   MPKI: 0.064485
AGUS PREFETCH L1 MISS: 0
LLC WRITEBACK ACCESS:     308384  HIT:     308315  MISS:         69  HIT %:    99.9776  MISS %:  0.0223747   MPKI: 0.000345
LLC LOAD TRANSLATION ACCESS:       8417  HIT:       8298  MISS:        119  HIT %:    98.5862  MISS %:    1.41381   MPKI: 0.000595
LLC PREFETCH  REQUESTED:          0  ISSUED:          0  USEFUL:        790  USELESS:      12035
LLC USEFUL LOAD PREFETCHES:        790 PREFETCH ISSUED TO LOWER LEVEL:      12897  ACCURACY: 6.12546
LLC TIMELY PREFETCHES:        790 LATE PREFETCHES: 0 DROPPED PREFETCHES: 0
LLC PREFETCHES SAME FILL-ORIGIN LEVEL: 0 DIFFERENT FILL-ORIGIN LEVEL: 0
LLC AVERAGE MISS LATENCY: 152.505 cycles
LLC RQ	ACCESS:    1411816	FORWARD:          0	MERGED:          0	TO_CACHE:    1411815
LLC WQ	ACCESS:     308384	FORWARD:          1	MERGED:          0	TO_CACHE:     308384
LLC PQ	ACCESS:     299016	FORWARD:          0	MERGED:          0	TO_CACHE:     299016

LLC Dense regions hint to LLC: 0

RAW hits: 1385047
Loads Generated: 48288797
Loads sent to L1D: 46903750
Stores Generated: 26309147
Stores sent to L1D: 26309150
Major fault: 0 Minor fault: 1865
Allocated PAGES: 1865
[Bingo] PHT Access: 813463
[Bingo] PHT Hit PC+Addr: 469355
[Bingo] PHT Hit PC+Offs: 65622
[Bingo] PHT Miss: 278486
[Bingo] Prefetch PC+Addr: 0
[Bingo] Prefetch PC+Offs: 0
[Bingo] Useful PC+Addr: 0
[Bingo] Useful PC+Offs: 0
[Bingo] Useless PC+Addr: 0
[Bingo] Useless PC+Offs: 0
[Bingo] L1 Prefetch per Region: 0
[Bingo] L2 Prefetch per Region: 4.3973
[Bingo] L3 Prefetch per Region: 0
[Bingo] No Prefetch per Region: 27.6027
[Bingo] Number of Voters Mean: 8.33574
[Bingo] Number of Voters SD: 7.81803
PHT read accesses: 2351139
PHT write accesses: 388080
AT read accesses: 2036513
AT write accesses: 2342339
FT read accesses: 1219724
FT write accesses: 813463
PS read accesses: 1102114
PS write accesses: 534977
PHT tag read accesses: 12697906
PHT tag write accesses: 857435
AT tag read accesses: 90802785
AT tag write accesses: 2424597
FT tag read accesses: 76843438
FT tag write accesses: 1632258
PS tag read accesses: 62312710
PS tag write accesses: 1636653

DRAM Statistics
 CHANNEL 0
 RQ ROW_BUFFER_HIT:       9159  ROW_BUFFER_MISS:      18888
 DBUS_CONGESTED:         24
 WQ ROW_BUFFER_HIT:        725  ROW_BUFFER_MISS:      11323  FULL:          0

 AVG_CONGESTED_CYCLE: 5
 All warmup complete: 2
Channel 0 Bank busy for read cycles: 0
Channel 0 Bank busy for write cycles: 0
Channel 0
Rank 0
0banks busy for read cycles: 599102514
0banks busy for write cycles: 4945
1banks busy for read cycles: 866633
1banks busy for write cycles: 510153
2banks busy for read cycles: 306746
2banks busy for write cycles: 168409
3banks busy for read cycles: 130749
3banks busy for write cycles: 95413
4banks busy for read cycles: 78734
4banks busy for write cycles: 54497
5banks busy for read cycles: 59711
5banks busy for write cycles: 34319
6banks busy for read cycles: 39145
6banks busy for write cycles: 24303
7banks busy for read cycles: 32049
7banks busy for write cycles: 16074
8banks busy for read cycles: 43299
8banks busy for write cycles: 12385

CPU 0 Branch Prediction Accuracy: 99.8462% MPKI: 0.271815 Average ROB Occupancy at Mispredict: 53.1535
Branch types
NOT_BRANCH: 164663064 82.3315%
BRANCH_DIRECT_JUMP: 2183492 1.09175%
BRANCH_INDIRECT: 11409987 5.70499%
BRANCH_CONDITIONAL: 13666237 6.83312%
BRANCH_DIRECT_CALL: 3412328 1.70616%
BRANCH_INDIRECT_CALL: 626274 0.313137%
BRANCH_RETURN: 4038590 2.0193%
BRANCH_OTHER: 0 0%

DRAM PAGES: 1048576
Allocated PAGES: 1865
