
*** ChampSim Multicore Out-of-Order Simulator ***

Warmup Instructions: 50000000
Simulation Instructions: 200000000
Number of CPUs: 1
LLC sets: 2048
LLC ways: 16
Off-chip DRAM Size: 4096 MB Channels: 1 Width: 64-bit Data Rate: 6400 MT/s
CPU 0 runs traces/spec2k17/server_015.champsimtrace.xz
.xz
BTB has LRU replacement policy
ITLB has LRU replacement policy
DTLB has LRU replacement policy
STLB has LRU replacement policy
L1I has LRU replacement policy
Bingo PHT WAYS: 16 and PHT_SIZE: 16384
L1D has LRU replacement policy
Initialize SRRIP state for L2C
Initialize DRRIP state for LLC
Heartbeat CPU 0 instructions: 10000002 cycles: 2682170 heartbeat IPC: 3.72833 cumulative IPC: 3.72833 (Simulation time: 0 hr 0 min 17 sec) 
Heartbeat CPU 0 instructions: 20000000 cycles: 5401805 heartbeat IPC: 3.67696 cumulative IPC: 3.70247 (Simulation time: 0 hr 0 min 34 sec) 
Heartbeat CPU 0 instructions: 30000001 cycles: 8090150 heartbeat IPC: 3.71976 cumulative IPC: 3.70821 (Simulation time: 0 hr 0 min 51 sec) 
Heartbeat CPU 0 instructions: 40000000 cycles: 10777779 heartbeat IPC: 3.72075 cumulative IPC: 3.71134 (Simulation time: 0 hr 1 min 12 sec) 
Heartbeat CPU 0 instructions: 50000000 cycles: 13465248 heartbeat IPC: 3.72097 cumulative IPC: 3.71326 (Simulation time: 0 hr 1 min 38 sec) 

Warmup complete CPU 0 instructions: 50000004 cycles: 13465249 (Simulation time: 0 hr 1 min 38 sec) 

Heartbeat CPU 0 instructions: 60000002 cycles: 28874232 heartbeat IPC: 0.648972 cumulative IPC: 0.648972 (Simulation time: 0 hr 2 min 28 sec) 
Heartbeat CPU 0 instructions: 70000003 cycles: 44245841 heartbeat IPC: 0.65055 cumulative IPC: 0.64976 (Simulation time: 0 hr 3 min 19 sec) 
Heartbeat CPU 0 instructions: 80000001 cycles: 59620068 heartbeat IPC: 0.650439 cumulative IPC: 0.649986 (Simulation time: 0 hr 4 min 9 sec) 
Heartbeat CPU 0 instructions: 90000000 cycles: 74993481 heartbeat IPC: 0.650474 cumulative IPC: 0.650108 (Simulation time: 0 hr 5 min 0 sec) 
Heartbeat CPU 0 instructions: 100000002 cycles: 90368371 heartbeat IPC: 0.650411 cumulative IPC: 0.650169 (Simulation time: 0 hr 5 min 50 sec) 
Heartbeat CPU 0 instructions: 110000000 cycles: 105735137 heartbeat IPC: 0.650755 cumulative IPC: 0.650266 (Simulation time: 0 hr 6 min 40 sec) 
Heartbeat CPU 0 instructions: 120000000 cycles: 121112114 heartbeat IPC: 0.650323 cumulative IPC: 0.650274 (Simulation time: 0 hr 7 min 31 sec) 
Heartbeat CPU 0 instructions: 130000000 cycles: 136494274 heartbeat IPC: 0.650104 cumulative IPC: 0.650253 (Simulation time: 0 hr 8 min 21 sec) 
Heartbeat CPU 0 instructions: 140000003 cycles: 151857193 heartbeat IPC: 0.650918 cumulative IPC: 0.650327 (Simulation time: 0 hr 9 min 12 sec) 
Heartbeat CPU 0 instructions: 150000002 cycles: 167261040 heartbeat IPC: 0.649188 cumulative IPC: 0.650213 (Simulation time: 0 hr 10 min 2 sec) 
Heartbeat CPU 0 instructions: 160000000 cycles: 182650146 heartbeat IPC: 0.64981 cumulative IPC: 0.650176 (Simulation time: 0 hr 10 min 53 sec) 
Heartbeat CPU 0 instructions: 170000000 cycles: 198037061 heartbeat IPC: 0.649903 cumulative IPC: 0.650153 (Simulation time: 0 hr 11 min 43 sec) 
Heartbeat CPU 0 instructions: 180000001 cycles: 213459396 heartbeat IPC: 0.64841 cumulative IPC: 0.650019 (Simulation time: 0 hr 12 min 33 sec) 
Heartbeat CPU 0 instructions: 190000000 cycles: 228854079 heartbeat IPC: 0.649575 cumulative IPC: 0.649987 (Simulation time: 0 hr 13 min 16 sec) 
Heartbeat CPU 0 instructions: 200000000 cycles: 244263463 heartbeat IPC: 0.648955 cumulative IPC: 0.649918 (Simulation time: 0 hr 13 min 48 sec) 
Heartbeat CPU 0 instructions: 210000003 cycles: 259642118 heartbeat IPC: 0.650252 cumulative IPC: 0.649939 (Simulation time: 0 hr 14 min 19 sec) 
Heartbeat CPU 0 instructions: 220000000 cycles: 275051252 heartbeat IPC: 0.648966 cumulative IPC: 0.649882 (Simulation time: 0 hr 14 min 50 sec) 
Heartbeat CPU 0 instructions: 230000000 cycles: 290426960 heartbeat IPC: 0.650377 cumulative IPC: 0.649909 (Simulation time: 0 hr 15 min 22 sec) 
Heartbeat CPU 0 instructions: 240000002 cycles: 305797616 heartbeat IPC: 0.65059 cumulative IPC: 0.649945 (Simulation time: 0 hr 15 min 53 sec) 
Heartbeat CPU 0 instructions: 250000000 cycles: 321192612 heartbeat IPC: 0.649562 cumulative IPC: 0.649926 (Simulation time: 0 hr 16 min 25 sec) 
Finished CPU 0 instructions: 200000000 cycles: 307727373 cumulative IPC: 0.649926 (Simulation time: 0 hr 16 min 25 sec) 

ChampSim completed all CPUs

Region of Interest Statistics

CPU 0 cumulative IPC: 0.649926 instructions: 200000000 cycles: 307727373
ITLB TOTAL     ACCESS:   33952700  HIT:   32266546  MISS:    1686154  HIT %:    95.0338  MISS %:    4.96619   MPKI: 8.43077
ITLB LOAD TRANSLATION ACCESS:   33952700  HIT:   32266546  MISS:    1686154  HIT %:    95.0338  MISS %:    4.96619   MPKI: 8.43077
ITLB PREFETCH  REQUESTED:          0  ISSUED:          0  USEFUL:          0  USELESS:          0
ITLB USEFUL LOAD PREFETCHES:          0 PREFETCH ISSUED TO LOWER LEVEL:          0  ACCURACY: -nan
ITLB TIMELY PREFETCHES:          0 LATE PREFETCHES: 0 DROPPED PREFETCHES: 0
ITLB PREFETCHES SAME FILL-ORIGIN LEVEL: 0 DIFFERENT FILL-ORIGIN LEVEL: 0
ITLB AVERAGE MISS LATENCY: 9.00257 cycles
ITLB RQ	ACCESS:   39517846	FORWARD:          0	MERGED:    4991173	TO_CACHE:   34526673

DTLB TOTAL     ACCESS:   39497404  HIT:   38753664  MISS:     743740  HIT %:     98.117  MISS %:    1.88301   MPKI: 3.7187
DTLB LOAD TRANSLATION ACCESS:   39497404  HIT:   38753664  MISS:     743740  HIT %:     98.117  MISS %:    1.88301   MPKI: 3.7187
DTLB PREFETCH  REQUESTED:          0  ISSUED:          0  USEFUL:          0  USELESS:          0
DTLB USEFUL LOAD PREFETCHES:          0 PREFETCH ISSUED TO LOWER LEVEL:          0  ACCURACY: -nan
DTLB TIMELY PREFETCHES:          0 LATE PREFETCHES: 0 DROPPED PREFETCHES: 0
DTLB PREFETCHES SAME FILL-ORIGIN LEVEL: 0 DIFFERENT FILL-ORIGIN LEVEL: 0
DTLB AVERAGE MISS LATENCY: 9.00099 cycles
DTLB RQ	ACCESS:   59260816	FORWARD:          0	MERGED:   19684712	TO_CACHE:   39576104

STLB TOTAL     ACCESS:    2430159  HIT:    2430154  MISS:          5  HIT %:    99.9998  MISS %: 0.000205748   MPKI: 2.5e-05
STLB LOAD TRANSLATION ACCESS:    2429894  HIT:    2429889  MISS:          5  HIT %:    99.9998  MISS %: 0.00020577   MPKI: 2.5e-05
STLB TRANSLATION FROM L1D PREFETCHER ACCESS:        265  HIT:        265  MISS:          0  HIT %:        100  MISS %:          0   MPKI: 0
STLB PREFETCH  REQUESTED:          0  ISSUED:          0  USEFUL:          0  USELESS:          0
STLB USEFUL LOAD PREFETCHES:          0 PREFETCH ISSUED TO LOWER LEVEL:          0  ACCURACY: -nan
STLB TIMELY PREFETCHES:          0 LATE PREFETCHES: 0 DROPPED PREFETCHES: 0
STLB PREFETCHES SAME FILL-ORIGIN LEVEL: 0 DIFFERENT FILL-ORIGIN LEVEL: 0
STLB AVERAGE MISS LATENCY: 73.2 cycles
STLB RQ	ACCESS:    2431339	FORWARD:          0	MERGED:       1180	TO_CACHE:    2430159

STLB Hit, L1D data hit: 0
STLB Hit, L2C data hit: 0
STLB Hit, LLC data hit: 0
STLB Hit, LLC data miss: 0
STLB STLB hints to L2: 0
L1D TOTAL     ACCESS:   59262033  HIT:   59261421  MISS:        612  HIT %:     99.999  MISS %:  0.0010327   MPKI: 0.00306
L1D LOAD      ACCESS:   26985464  HIT:   26985135  MISS:        329  HIT %:    99.9988  MISS %: 0.00121917   MPKI: 0.001645
L1D RFO       ACCESS:   32275229  HIT:   32275187  MISS:         42  HIT %:    99.9999  MISS %: 0.000130131   MPKI: 0.00021
L1D PREFETCH  ACCESS:       1340  HIT:       1099  MISS:        241  HIT %:    82.0149  MISS %:    17.9851   MPKI: 0.001205
AGUS PREFETCH L1 MISS: 0
L1D PREFETCH  REQUESTED:       2890  ISSUED:       2890  USEFUL:        212  USELESS:         47
L1D USEFUL LOAD PREFETCHES:        212 PREFETCH ISSUED TO LOWER LEVEL:        344  ACCURACY: 61.6279
L1D TIMELY PREFETCHES:        212 LATE PREFETCHES: 11 DROPPED PREFETCHES: 0
L1D PREFETCHES SAME FILL-ORIGIN LEVEL: 252 DIFFERENT FILL-ORIGIN LEVEL: 92
L1D AVERAGE MISS LATENCY: 1.87396e+06 cycles
L1D RQ	ACCESS:   44833474	FORWARD:          0	MERGED:   17496092	TO_CACHE:   26985472
L1D WQ	ACCESS:   32718443	FORWARD:     351910	MERGED:     443099	TO_CACHE:   32275344
L1D PQ	ACCESS:       1445	FORWARD:          0	MERGED:          0	TO_CACHE:       1445

L1D UNIQUE REGIONS ACCESSED: 0
L1D REGIONS CONFLICTS: 0
L1D Cross Page Prefetch Requests: 0
L1D Same Page Prefetch Requests: 22070
L1D ROI Sum of L1D PQ occupancy: 22051
L1D PREFETCHES PUSHED FROM L2C: 0
L1I TOTAL     ACCESS:   38077590  HIT:   32088054  MISS:    5989536  HIT %:    84.2702  MISS %:    15.7298   MPKI: 29.9477
L1I LOAD      ACCESS:   38077590  HIT:   32088054  MISS:    5989536  HIT %:    84.2702  MISS %:    15.7298   MPKI: 29.9477
L1I PREFETCH  REQUESTED:          0  ISSUED:          0  USEFUL:          0  USELESS:          0
L1I USEFUL LOAD PREFETCHES:          0 PREFETCH ISSUED TO LOWER LEVEL:          0  ACCURACY: -nan
L1I TIMELY PREFETCHES:          0 LATE PREFETCHES: 0 DROPPED PREFETCHES: 0
L1I PREFETCHES SAME FILL-ORIGIN LEVEL: 0 DIFFERENT FILL-ORIGIN LEVEL: 0
L1I AVERAGE MISS LATENCY: 14.0414 cycles
L1I RQ	ACCESS:   60196141	FORWARD:          0	MERGED:   20678295	TO_CACHE:   39517846

BTB TOTAL     ACCESS:   27608398  HIT:   25159622  MISS:    2448776  HIT %:    91.1303  MISS %:    8.86968   MPKI: 12.2439
BTB BRANCH_DIRECT_JUMP	ACCESS:    1623386  HIT:    1623233  MISS:        153
BTB BRANCH_INDIRECT	ACCESS:   12401141  HIT:   11630273  MISS:     770868
BTB BRANCH_CONDITIONAL	ACCESS:    3940144  HIT:    3939912  MISS:        232
BTB BRANCH_DIRECT_CALL	ACCESS:    4362301  HIT:    4361953  MISS:        348
BTB BRANCH_INDIRECT_CALL	ACCESS:     459562  HIT:     405839  MISS:      53723
BTB BRANCH_RETURN	ACCESS:    4821864  HIT:    3198412  MISS:    1623452
BTB BRANCH_OTHER ACCESS:          0  HIT:          0  MISS:          0

L2C TOTAL     ACCESS:    5990494  HIT:    5990171  MISS:        323  HIT %:    99.9946  MISS %: 0.00539188   MPKI: 0.001615
L2C LOAD      ACCESS:    5989854  HIT:    5989628  MISS:        226  HIT %:    99.9962  MISS %: 0.00377305   MPKI: 0.00113
L2C DATA LOAD MPKI: 0.00025
L2C INSTRUCTION LOAD MPKI: 0.00088
L2C RFO       ACCESS:         42  HIT:         39  MISS:          3  HIT %:    92.8571  MISS %:    7.14286   MPKI: 1.5e-05
L2C PREFETCH  ACCESS:        344  HIT:        259  MISS:         85  HIT %:    75.2907  MISS %:    24.7093   MPKI: 0.000425
AGUS PREFETCH L1 MISS: 0
L2C DATA PREFETCH MPKI: 0.000425
L2C INSTRUCTION PREFETCH MPKI: 0
L2C WRITEBACK ACCESS:        248  HIT:        242  MISS:          6  HIT %:    97.5806  MISS %:    2.41935   MPKI: 3e-05
L2C LOAD TRANSLATION ACCESS:          6  HIT:          3  MISS:          3  HIT %:         50  MISS %:         50   MPKI: 1.5e-05
L2C PREFETCH  REQUESTED:          0  ISSUED:          0  USEFUL:         27  USELESS:         69
L2C USEFUL LOAD PREFETCHES:         27 PREFETCH ISSUED TO LOWER LEVEL:         85  ACCURACY: 31.7647
L2C TIMELY PREFETCHES:         27 LATE PREFETCHES: 0 DROPPED PREFETCHES: 0
L2C PREFETCHES SAME FILL-ORIGIN LEVEL: 45 DIFFERENT FILL-ORIGIN LEVEL: 0
L2C AVERAGE MISS LATENCY: 79.8576 cycles
L2C RQ	ACCESS:    5989902	FORWARD:          0	MERGED:          0	TO_CACHE:    5989902
L2C WQ	ACCESS:        248	FORWARD:          0	MERGED:          0	TO_CACHE:        248
L2C PQ	ACCESS:        344	FORWARD:          0	MERGED:          0	TO_CACHE:        344

L2C Instructions Evicting Data 143
L2C Translations Evicting Data 1
L2C Data Evicting Data 112
L2C Instructions Evicting Instructions 24
L2C Translations Evicting Instructions 2
L2C Data Evicting Instructions 21
L2C Instructions Evicting Translations 9
L2C Translations Evicting Translations 0
L2C Data Evicting Translations 5
L2C Dense regions hint from L2: 0
PSCL5 TOTAL     ACCESS:          5  HIT:          5  MISS:          0  HIT %:        100  MISS %:          0   MPKI: 0
PSCL5 LOAD TRANSLATION ACCESS:          5  HIT:          5  MISS:          0  HIT %:        100  MISS %:          0   MPKI: 0
PSCL5 PREFETCH  REQUESTED:          0  ISSUED:          0  USEFUL:          0  USELESS:          0
PSCL5 USEFUL LOAD PREFETCHES:          0 PREFETCH ISSUED TO LOWER LEVEL:          0  ACCURACY: -nan
PSCL5 TIMELY PREFETCHES:          0 LATE PREFETCHES: 0 DROPPED PREFETCHES: 0
PSCL5 PREFETCHES SAME FILL-ORIGIN LEVEL: 0 DIFFERENT FILL-ORIGIN LEVEL: 0

PSCL4 TOTAL     ACCESS:          5  HIT:          5  MISS:          0  HIT %:        100  MISS %:          0   MPKI: 0
PSCL4 LOAD TRANSLATION ACCESS:          5  HIT:          5  MISS:          0  HIT %:        100  MISS %:          0   MPKI: 0
PSCL4 PREFETCH  REQUESTED:          0  ISSUED:          0  USEFUL:          0  USELESS:          0
PSCL4 USEFUL LOAD PREFETCHES:          0 PREFETCH ISSUED TO LOWER LEVEL:          0  ACCURACY: -nan
PSCL4 TIMELY PREFETCHES:          0 LATE PREFETCHES: 0 DROPPED PREFETCHES: 0
PSCL4 PREFETCHES SAME FILL-ORIGIN LEVEL: 0 DIFFERENT FILL-ORIGIN LEVEL: 0

PSCL3 TOTAL     ACCESS:          5  HIT:          5  MISS:          0  HIT %:        100  MISS %:          0   MPKI: 0
PSCL3 LOAD TRANSLATION ACCESS:          5  HIT:          5  MISS:          0  HIT %:        100  MISS %:          0   MPKI: 0
PSCL3 PREFETCH  REQUESTED:          0  ISSUED:          0  USEFUL:          0  USELESS:          0
PSCL3 USEFUL LOAD PREFETCHES:          0 PREFETCH ISSUED TO LOWER LEVEL:          0  ACCURACY: -nan
PSCL3 TIMELY PREFETCHES:          0 LATE PREFETCHES: 0 DROPPED PREFETCHES: 0
PSCL3 PREFETCHES SAME FILL-ORIGIN LEVEL: 0 DIFFERENT FILL-ORIGIN LEVEL: 0

PSCL2 TOTAL     ACCESS:          5  HIT:          4  MISS:          1  HIT %:         80  MISS %:         20   MPKI: 5e-06
PSCL2 LOAD TRANSLATION ACCESS:          5  HIT:          4  MISS:          1  HIT %:         80  MISS %:         20   MPKI: 5e-06
PSCL2 PREFETCH  REQUESTED:          0  ISSUED:          0  USEFUL:          0  USELESS:          0
PSCL2 USEFUL LOAD PREFETCHES:          0 PREFETCH ISSUED TO LOWER LEVEL:          0  ACCURACY: -nan
PSCL2 TIMELY PREFETCHES:          0 LATE PREFETCHES: 0 DROPPED PREFETCHES: 0
PSCL2 PREFETCHES SAME FILL-ORIGIN LEVEL: 0 DIFFERENT FILL-ORIGIN LEVEL: 0

LLC TOTAL     ACCESS:        468  HIT:        371  MISS:         97  HIT %:    79.2735  MISS %:    20.7265   MPKI: 0.000485
LLC LOAD      ACCESS:        226  HIT:        193  MISS:         33  HIT %:    85.3982  MISS %:    14.6018   MPKI: 0.000165
LLC RFO       ACCESS:          3  HIT:          0  MISS:          3  HIT %:          0  MISS %:        100   MPKI: 1.5e-05
LLC PREFETCH  ACCESS:         85  HIT:         27  MISS:         58  HIT %:    31.7647  MISS %:    68.2353   MPKI: 0.00029
AGUS PREFETCH L1 MISS: 0
LLC WRITEBACK ACCESS:        151  HIT:        149  MISS:          2  HIT %:    98.6755  MISS %:     1.3245   MPKI: 1e-05
LLC LOAD TRANSLATION ACCESS:          3  HIT:          2  MISS:          1  HIT %:    66.6667  MISS %:    33.3333   MPKI: 5e-06
LLC PREFETCH  REQUESTED:          0  ISSUED:          0  USEFUL:          3  USELESS:         20
LLC USEFUL LOAD PREFETCHES:          3 PREFETCH ISSUED TO LOWER LEVEL:         58  ACCURACY: 5.17241
LLC TIMELY PREFETCHES:          3 LATE PREFETCHES: 0 DROPPED PREFETCHES: 0
LLC PREFETCHES SAME FILL-ORIGIN LEVEL: 0 DIFFERENT FILL-ORIGIN LEVEL: 0
LLC AVERAGE MISS LATENCY: 167.876 cycles
LLC RQ	ACCESS:        232	FORWARD:          0	MERGED:          0	TO_CACHE:        232
LLC WQ	ACCESS:        151	FORWARD:          0	MERGED:          0	TO_CACHE:        151
LLC PQ	ACCESS:         85	FORWARD:          0	MERGED:          0	TO_CACHE:         85

LLC Dense regions hint to LLC: 0

RAW hits: 3240379
Loads Generated: 48073854
Loads sent to L1D: 44833474
Stores Generated: 32718439
Stores sent to L1D: 32718443
Major fault: 0 Minor fault: 1999
Allocated PAGES: 1999
[Bingo] PHT Access: 340
[Bingo] PHT Hit PC+Addr: 190
[Bingo] PHT Hit PC+Offs: 32
[Bingo] PHT Miss: 118
[Bingo] Prefetch PC+Addr: 0
[Bingo] Prefetch PC+Offs: 0
[Bingo] Useful PC+Addr: 0
[Bingo] Useful PC+Offs: 0
[Bingo] Useless PC+Addr: 0
[Bingo] Useless PC+Offs: 0
[Bingo] L1 Prefetch per Region: 7.04505
[Bingo] L2 Prefetch per Region: 0.486486
[Bingo] L3 Prefetch per Region: 0
[Bingo] No Prefetch per Region: 24.4685
[Bingo] Number of Voters Mean: 12.5938
[Bingo] Number of Voters SD: 62.0818
PHT read accesses: 1298
PHT write accesses: 237
AT read accesses: 25316550
AT write accesses: 25316559
FT read accesses: 3338465
FT write accesses: 340
PS read accesses: 519
PS write accesses: 222
PHT tag read accesses: 7149
PHT tag write accesses: 427
AT tag read accesses: 431786455
AT tag write accesses: 25316796
FT tag read accesses: 26732762
FT tag write accesses: 1669740
PS tag read accesses: 431774904
PS tag write accesses: 741

DRAM Statistics
 CHANNEL 0
 RQ ROW_BUFFER_HIT:         17  ROW_BUFFER_MISS:         78
 DBUS_CONGESTED:          0
 WQ ROW_BUFFER_HIT:          3  ROW_BUFFER_MISS:         55  FULL:          0

 AVG_CONGESTED_CYCLE: -
 All warmup complete: 2
Channel 0 Bank busy for read cycles: 0
Channel 0 Bank busy for write cycles: 0
Channel 0
Rank 0
0banks busy for read cycles: 307713799
0banks busy for write cycles: 33
1banks busy for read cycles: 5085
1banks busy for write cycles: 4158
2banks busy for read cycles: 1161
2banks busy for write cycles: 1098
3banks busy for read cycles: 435
3banks busy for write cycles: 286
4banks busy for read cycles: 682
4banks busy for write cycles: 443
5banks busy for read cycles: 54
5banks busy for write cycles: 0
6banks busy for read cycles: 140
6banks busy for write cycles: 0
7banks busy for read cycles: 0
7banks busy for write cycles: 0
8banks busy for read cycles: 0
8banks busy for write cycles: 0

CPU 0 Branch Prediction Accuracy: 99.9167% MPKI: 0.130515 Average ROB Occupancy at Mispredict: 16.6254
Branch types
NOT_BRANCH: 168676427 84.3382%
BRANCH_DIRECT_JUMP: 1623386 0.811693%
BRANCH_INDIRECT: 12401141 6.20057%
BRANCH_CONDITIONAL: 7655294 3.82765%
BRANCH_DIRECT_CALL: 4362301 2.18115%
BRANCH_INDIRECT_CALL: 459562 0.229781%
BRANCH_RETURN: 4821864 2.41093%
BRANCH_OTHER: 0 0%

DRAM PAGES: 1048576
Allocated PAGES: 1999
