
*** ChampSim Multicore Out-of-Order Simulator ***

Warmup Instructions: 50000000
Simulation Instructions: 200000000
Number of CPUs: 1
LLC sets: 2048
LLC ways: 16
Off-chip DRAM Size: 4096 MB Channels: 1 Width: 64-bit Data Rate: 6400 MT/s
CPU 0 runs traces/spec2k17/server_027.champsimtrace.xz
.xz
BTB has LRU replacement policy
ITLB has LRU replacement policy
DTLB has LRU replacement policy
STLB has LRU replacement policy
L1I has LRU replacement policy
Bingo PHT WAYS: 16 and PHT_SIZE: 16384
L1D has LRU replacement policy
Initialize SRRIP state for L2C
Initialize DRRIP state for LLC
Heartbeat CPU 0 instructions: 10000000 cycles: 2816337 heartbeat IPC: 3.55071 cumulative IPC: 3.55071 (Simulation time: 0 hr 0 min 23 sec) 
Heartbeat CPU 0 instructions: 20000003 cycles: 5630275 heartbeat IPC: 3.55374 cumulative IPC: 3.55222 (Simulation time: 0 hr 0 min 46 sec) 
Heartbeat CPU 0 instructions: 30000001 cycles: 8441484 heartbeat IPC: 3.55719 cumulative IPC: 3.55388 (Simulation time: 0 hr 1 min 9 sec) 
Heartbeat CPU 0 instructions: 40000002 cycles: 11252279 heartbeat IPC: 3.55771 cumulative IPC: 3.55484 (Simulation time: 0 hr 1 min 32 sec) 
Heartbeat CPU 0 instructions: 50000002 cycles: 14062835 heartbeat IPC: 3.55801 cumulative IPC: 3.55547 (Simulation time: 0 hr 1 min 55 sec) 

Warmup complete CPU 0 instructions: 50000002 cycles: 14062835 (Simulation time: 0 hr 1 min 55 sec) 

Heartbeat CPU 0 instructions: 60000001 cycles: 45702132 heartbeat IPC: 0.316063 cumulative IPC: 0.316063 (Simulation time: 0 hr 2 min 35 sec) 
Heartbeat CPU 0 instructions: 70000000 cycles: 77176189 heartbeat IPC: 0.317722 cumulative IPC: 0.31689 (Simulation time: 0 hr 3 min 35 sec) 
Heartbeat CPU 0 instructions: 80000001 cycles: 108629114 heartbeat IPC: 0.317935 cumulative IPC: 0.317238 (Simulation time: 0 hr 4 min 25 sec) 
Heartbeat CPU 0 instructions: 90000001 cycles: 140395180 heartbeat IPC: 0.314801 cumulative IPC: 0.316625 (Simulation time: 0 hr 5 min 2 sec) 
Heartbeat CPU 0 instructions: 100000000 cycles: 171917353 heartbeat IPC: 0.317237 cumulative IPC: 0.316747 (Simulation time: 0 hr 5 min 39 sec) 
*** Reached end of trace for Core: 0 Repeating trace: traces/spec2k17/server_027.champsimtrace.xz
Heartbeat CPU 0 instructions: 110000000 cycles: 203387499 heartbeat IPC: 0.317761 cumulative IPC: 0.316916 (Simulation time: 0 hr 6 min 17 sec) 
Heartbeat CPU 0 instructions: 120000003 cycles: 234795084 heartbeat IPC: 0.318395 cumulative IPC: 0.317126 (Simulation time: 0 hr 6 min 55 sec) 
Heartbeat CPU 0 instructions: 130000000 cycles: 266399507 heartbeat IPC: 0.316411 cumulative IPC: 0.317037 (Simulation time: 0 hr 7 min 48 sec) 
Heartbeat CPU 0 instructions: 140000003 cycles: 297939984 heartbeat IPC: 0.317053 cumulative IPC: 0.317039 (Simulation time: 0 hr 8 min 48 sec) 
Heartbeat CPU 0 instructions: 150000001 cycles: 329418543 heartbeat IPC: 0.317676 cumulative IPC: 0.317102 (Simulation time: 0 hr 9 min 47 sec) 
Heartbeat CPU 0 instructions: 160000000 cycles: 360869126 heartbeat IPC: 0.317959 cumulative IPC: 0.31718 (Simulation time: 0 hr 10 min 47 sec) 
Heartbeat CPU 0 instructions: 170000000 cycles: 392449794 heartbeat IPC: 0.316649 cumulative IPC: 0.317136 (Simulation time: 0 hr 11 min 47 sec) 
Heartbeat CPU 0 instructions: 180000000 cycles: 423891700 heartbeat IPC: 0.318047 cumulative IPC: 0.317206 (Simulation time: 0 hr 12 min 46 sec) 
Heartbeat CPU 0 instructions: 190000001 cycles: 455442151 heartbeat IPC: 0.316953 cumulative IPC: 0.317187 (Simulation time: 0 hr 13 min 46 sec) 
Heartbeat CPU 0 instructions: 200000001 cycles: 487127278 heartbeat IPC: 0.315605 cumulative IPC: 0.317082 (Simulation time: 0 hr 14 min 46 sec) 
*** Reached end of trace for Core: 0 Repeating trace: traces/spec2k17/server_027.champsimtrace.xz
Heartbeat CPU 0 instructions: 210000000 cycles: 518513730 heartbeat IPC: 0.318609 cumulative IPC: 0.317177 (Simulation time: 0 hr 15 min 45 sec) 
Heartbeat CPU 0 instructions: 220000000 cycles: 549943686 heartbeat IPC: 0.318168 cumulative IPC: 0.317235 (Simulation time: 0 hr 16 min 45 sec) 
Heartbeat CPU 0 instructions: 230000000 cycles: 581558421 heartbeat IPC: 0.316308 cumulative IPC: 0.317183 (Simulation time: 0 hr 17 min 44 sec) 
Heartbeat CPU 0 instructions: 240000001 cycles: 613025449 heartbeat IPC: 0.317793 cumulative IPC: 0.317215 (Simulation time: 0 hr 18 min 44 sec) 
Heartbeat CPU 0 instructions: 250000000 cycles: 644440734 heartbeat IPC: 0.318316 cumulative IPC: 0.31727 (Simulation time: 0 hr 19 min 43 sec) 
Finished CPU 0 instructions: 200000002 cycles: 630377932 cumulative IPC: 0.31727 (Simulation time: 0 hr 19 min 43 sec) 

ChampSim completed all CPUs

Region of Interest Statistics

CPU 0 cumulative IPC: 0.31727 instructions: 200000002 cycles: 630377932
ITLB TOTAL     ACCESS:   34667914  HIT:   32642969  MISS:    2024945  HIT %:     94.159  MISS %:    5.84098   MPKI: 10.1247
ITLB LOAD TRANSLATION ACCESS:   34667914  HIT:   32642969  MISS:    2024945  HIT %:     94.159  MISS %:    5.84098   MPKI: 10.1247
ITLB PREFETCH  REQUESTED:          0  ISSUED:          0  USEFUL:          0  USELESS:          0
ITLB USEFUL LOAD PREFETCHES:          0 PREFETCH ISSUED TO LOWER LEVEL:          0  ACCURACY: -nan
ITLB TIMELY PREFETCHES:          0 LATE PREFETCHES: 0 DROPPED PREFETCHES: 0
ITLB PREFETCHES SAME FILL-ORIGIN LEVEL: 0 DIFFERENT FILL-ORIGIN LEVEL: 0
ITLB AVERAGE MISS LATENCY: 9.03878 cycles
ITLB RQ	ACCESS:   40885764	FORWARD:          0	MERGED:    5734050	TO_CACHE:   35151714

DTLB TOTAL     ACCESS:   46505774  HIT:   44679504  MISS:    1826270  HIT %:     96.073  MISS %:    3.92697   MPKI: 9.13135
DTLB LOAD TRANSLATION ACCESS:   46505774  HIT:   44679504  MISS:    1826270  HIT %:     96.073  MISS %:    3.92697   MPKI: 9.13135
DTLB PREFETCH  REQUESTED:          0  ISSUED:          0  USEFUL:          0  USELESS:          0
DTLB USEFUL LOAD PREFETCHES:          0 PREFETCH ISSUED TO LOWER LEVEL:          0  ACCURACY: -nan
DTLB TIMELY PREFETCHES:          0 LATE PREFETCHES: 0 DROPPED PREFETCHES: 0
DTLB PREFETCHES SAME FILL-ORIGIN LEVEL: 0 DIFFERENT FILL-ORIGIN LEVEL: 0
DTLB AVERAGE MISS LATENCY: 9.22699 cycles
DTLB RQ	ACCESS:   61152108	FORWARD:          0	MERGED:   14579486	TO_CACHE:   46572622

STLB TOTAL     ACCESS:    4972066  HIT:    4963887  MISS:       8179  HIT %:    99.8355  MISS %:   0.164499   MPKI: 0.040895
STLB LOAD TRANSLATION ACCESS:    3851215  HIT:    3843036  MISS:       8179  HIT %:    99.7876  MISS %:   0.212375   MPKI: 0.040895
STLB TRANSLATION FROM L1D PREFETCHER ACCESS:    1120851  HIT:    1120851  MISS:          0  HIT %:        100  MISS %:          0   MPKI: 0
STLB PREFETCH  REQUESTED:          0  ISSUED:          0  USEFUL:          0  USELESS:          0
STLB USEFUL LOAD PREFETCHES:          0 PREFETCH ISSUED TO LOWER LEVEL:          0  ACCURACY: -nan
STLB TIMELY PREFETCHES:          0 LATE PREFETCHES: 0 DROPPED PREFETCHES: 0
STLB PREFETCHES SAME FILL-ORIGIN LEVEL: 0 DIFFERENT FILL-ORIGIN LEVEL: 0
STLB AVERAGE MISS LATENCY: 57.3867 cycles
STLB RQ	ACCESS:    7814925	FORWARD:          0	MERGED:    2842859	TO_CACHE:    4972066

STLB Hit, L1D data hit: 0
STLB Hit, L2C data hit: 0
STLB Hit, LLC data hit: 0
STLB Hit, LLC data miss: 0
STLB STLB hints to L2: 0
L1D TOTAL     ACCESS:   63914046  HIT:   59376444  MISS:    4537602  HIT %:    92.9005  MISS %:    7.09954   MPKI: 22.688
L1D LOAD      ACCESS:   34351846  HIT:   33031048  MISS:    1320798  HIT %:    96.1551  MISS %:    3.84491   MPKI: 6.60399
L1D RFO       ACCESS:   25772576  HIT:   25107645  MISS:     664931  HIT %:      97.42  MISS %:    2.57999   MPKI: 3.32465
L1D PREFETCH  ACCESS:    3789624  HIT:    1237751  MISS:    2551873  HIT %:    32.6616  MISS %:    67.3384   MPKI: 12.7594
AGUS PREFETCH L1 MISS: 0
L1D PREFETCH  REQUESTED:    7929310  ISSUED:    7929310  USEFUL:    2060853  USELESS:     491042
L1D USEFUL LOAD PREFETCHES:    2060853 PREFETCH ISSUED TO LOWER LEVEL:    2655309  ACCURACY: 77.6125
L1D TIMELY PREFETCHES:    2060853 LATE PREFETCHES: 30539 DROPPED PREFETCHES: 0
L1D PREFETCHES SAME FILL-ORIGIN LEVEL: 2585444 DIFFERENT FILL-ORIGIN LEVEL: 69865
L1D AVERAGE MISS LATENCY: 2.45644e+06 cycles
L1D RQ	ACCESS:   47528750	FORWARD:          0	MERGED:   12837082	TO_CACHE:   34390517
L1D WQ	ACCESS:   26918036	FORWARD:     303034	MERGED:     156445	TO_CACHE:   26761591
L1D PQ	ACCESS:    3965600	FORWARD:          0	MERGED:          7	TO_CACHE:    3963710

L1D UNIQUE REGIONS ACCESSED: 0
L1D REGIONS CONFLICTS: 0
L1D Cross Page Prefetch Requests: 0
L1D Same Page Prefetch Requests: 4891870
L1D ROI Sum of L1D PQ occupancy: 57327950
L1D PREFETCHES PUSHED FROM L2C: 0
L1I TOTAL     ACCESS:   39382642  HIT:   28806170  MISS:   10576472  HIT %:    73.1443  MISS %:    26.8557   MPKI: 52.8824
L1I LOAD      ACCESS:   39382642  HIT:   28806170  MISS:   10576472  HIT %:    73.1443  MISS %:    26.8557   MPKI: 52.8824
L1I PREFETCH  REQUESTED:          0  ISSUED:          0  USEFUL:          0  USELESS:          0
L1I USEFUL LOAD PREFETCHES:          0 PREFETCH ISSUED TO LOWER LEVEL:          0  ACCURACY: -nan
L1I TIMELY PREFETCHES:          0 LATE PREFETCHES: 0 DROPPED PREFETCHES: 0
L1I PREFETCHES SAME FILL-ORIGIN LEVEL: 0 DIFFERENT FILL-ORIGIN LEVEL: 0
L1I AVERAGE MISS LATENCY: 16.4068 cycles
L1I RQ	ACCESS:   57940862	FORWARD:          0	MERGED:   17055098	TO_CACHE:   40885764

BTB TOTAL     ACCESS:   30075437  HIT:   17377783  MISS:   12697654  HIT %:    57.7807  MISS %:    42.2193   MPKI: 63.4883
BTB BRANCH_DIRECT_JUMP	ACCESS:    2026968  HIT:    1138640  MISS:     888328
BTB BRANCH_INDIRECT	ACCESS:   11863620  HIT:    7044030  MISS:    4819590
BTB BRANCH_CONDITIONAL	ACCESS:    7648130  HIT:    6314455  MISS:    1333675
BTB BRANCH_DIRECT_CALL	ACCESS:    3599197  HIT:    1507522  MISS:    2091675
BTB BRANCH_INDIRECT_CALL	ACCESS:     669164  HIT:     263401  MISS:     405763
BTB BRANCH_RETURN	ACCESS:    4268358  HIT:    1109735  MISS:    3158623
BTB BRANCH_OTHER ACCESS:          0  HIT:          0  MISS:          0

L2C TOTAL     ACCESS:   17210244  HIT:   15797400  MISS:    1412844  HIT %:    91.7907  MISS %:    8.20932   MPKI: 7.06422
L2C LOAD      ACCESS:   11866729  HIT:   10908370  MISS:     958359  HIT %:     91.924  MISS %:    8.07602   MPKI: 4.79179
L2C DATA LOAD MPKI: 0.76891
L2C INSTRUCTION LOAD MPKI: 4.02288
L2C RFO       ACCESS:     661888  HIT:     561037  MISS:     100851  HIT %:    84.7631  MISS %:    15.2369   MPKI: 0.504255
L2C PREFETCH  ACCESS:    2654200  HIT:    2346983  MISS:     307217  HIT %:    88.4253  MISS %:    11.5747   MPKI: 1.53608
AGUS PREFETCH L1 MISS: 0
L2C DATA PREFETCH MPKI: 1.53608
L2C INSTRUCTION PREFETCH MPKI: 0
L2C WRITEBACK ACCESS:    2018641  HIT:    1978405  MISS:      40236  HIT %:    98.0068  MISS %:    1.99322   MPKI: 0.20118
L2C LOAD TRANSLATION ACCESS:       8786  HIT:       2605  MISS:       6181  HIT %:    29.6494  MISS %:    70.3506   MPKI: 0.030905
L2C PREFETCH  REQUESTED:          0  ISSUED:          0  USEFUL:      22967  USELESS:     283991
L2C USEFUL LOAD PREFETCHES:      22967 PREFETCH ISSUED TO LOWER LEVEL:     308262  ACCURACY: 7.45048
L2C TIMELY PREFETCHES:      22967 LATE PREFETCHES: 1045 DROPPED PREFETCHES: 0
L2C PREFETCHES SAME FILL-ORIGIN LEVEL: 30986 DIFFERENT FILL-ORIGIN LEVEL: 0
L2C AVERAGE MISS LATENCY: 40.7276 cycles
L2C RQ	ACCESS:   12537416	FORWARD:          0	MERGED:          0	TO_CACHE:   12537403
L2C WQ	ACCESS:    2018641	FORWARD:         77	MERGED:          0	TO_CACHE:    2018641
L2C PQ	ACCESS:    2655309	FORWARD:          0	MERGED:          0	TO_CACHE:    2655245

L2C Instructions Evicting Data 298984
L2C Translations Evicting Data 4160
L2C Data Evicting Data 282902
L2C Instructions Evicting Instructions 503610
L2C Translations Evicting Instructions 1958
L2C Data Evicting Instructions 274839
L2C Instructions Evicting Translations 1983
L2C Translations Evicting Translations 63
L2C Data Evicting Translations 4109
L2C Dense regions hint from L2: 0
PSCL5 TOTAL     ACCESS:       8179  HIT:       8179  MISS:          0  HIT %:        100  MISS %:          0   MPKI: 0
PSCL5 LOAD TRANSLATION ACCESS:       8179  HIT:       8179  MISS:          0  HIT %:        100  MISS %:          0   MPKI: 0
PSCL5 PREFETCH  REQUESTED:          0  ISSUED:          0  USEFUL:          0  USELESS:          0
PSCL5 USEFUL LOAD PREFETCHES:          0 PREFETCH ISSUED TO LOWER LEVEL:          0  ACCURACY: -nan
PSCL5 TIMELY PREFETCHES:          0 LATE PREFETCHES: 0 DROPPED PREFETCHES: 0
PSCL5 PREFETCHES SAME FILL-ORIGIN LEVEL: 0 DIFFERENT FILL-ORIGIN LEVEL: 0

PSCL4 TOTAL     ACCESS:       7343  HIT:       7283  MISS:         60  HIT %:    99.1829  MISS %:   0.817105   MPKI: 0.0003
PSCL4 LOAD TRANSLATION ACCESS:       7343  HIT:       7283  MISS:         60  HIT %:    99.1829  MISS %:   0.817105   MPKI: 0.0003
PSCL4 PREFETCH  REQUESTED:          0  ISSUED:          0  USEFUL:          0  USELESS:          0
PSCL4 USEFUL LOAD PREFETCHES:          0 PREFETCH ISSUED TO LOWER LEVEL:          0  ACCURACY: -nan
PSCL4 TIMELY PREFETCHES:          0 LATE PREFETCHES: 0 DROPPED PREFETCHES: 0
PSCL4 PREFETCHES SAME FILL-ORIGIN LEVEL: 0 DIFFERENT FILL-ORIGIN LEVEL: 0

PSCL3 TOTAL     ACCESS:       7528  HIT:       7468  MISS:         60  HIT %:     99.203  MISS %:   0.797024   MPKI: 0.0003
PSCL3 LOAD TRANSLATION ACCESS:       7528  HIT:       7468  MISS:         60  HIT %:     99.203  MISS %:   0.797024   MPKI: 0.0003
PSCL3 PREFETCH  REQUESTED:          0  ISSUED:          0  USEFUL:          0  USELESS:          0
PSCL3 USEFUL LOAD PREFETCHES:          0 PREFETCH ISSUED TO LOWER LEVEL:          0  ACCURACY: -nan
PSCL3 TIMELY PREFETCHES:          0 LATE PREFETCHES: 0 DROPPED PREFETCHES: 0
PSCL3 PREFETCHES SAME FILL-ORIGIN LEVEL: 0 DIFFERENT FILL-ORIGIN LEVEL: 0

PSCL2 TOTAL     ACCESS:       8179  HIT:       7688  MISS:        491  HIT %:    93.9968  MISS %:    6.00318   MPKI: 0.002455
PSCL2 LOAD TRANSLATION ACCESS:       8179  HIT:       7688  MISS:        491  HIT %:    93.9968  MISS %:    6.00318   MPKI: 0.002455
PSCL2 PREFETCH  REQUESTED:          0  ISSUED:          0  USEFUL:          0  USELESS:          0
PSCL2 USEFUL LOAD PREFETCHES:          0 PREFETCH ISSUED TO LOWER LEVEL:          0  ACCURACY: -nan
PSCL2 TIMELY PREFETCHES:          0 LATE PREFETCHES: 0 DROPPED PREFETCHES: 0
PSCL2 PREFETCHES SAME FILL-ORIGIN LEVEL: 0 DIFFERENT FILL-ORIGIN LEVEL: 0

LLC TOTAL     ACCESS:    1610231  HIT:    1519611  MISS:      90620  HIT %:    94.3722  MISS %:    5.62776   MPKI: 0.4531
LLC LOAD      ACCESS:     957315  HIT:     946169  MISS:      11146  HIT %:    98.8357  MISS %:     1.1643   MPKI: 0.05573
LLC RFO       ACCESS:     100848  HIT:      62998  MISS:      37850  HIT %:    62.4683  MISS %:    37.5317   MPKI: 0.18925
LLC PREFETCH  ACCESS:     308262  HIT:     267969  MISS:      40293  HIT %:     86.929  MISS %:     13.071   MPKI: 0.201465
AGUS PREFETCH L1 MISS: 0
LLC WRITEBACK ACCESS:     237625  HIT:     236705  MISS:        920  HIT %:    99.6128  MISS %:   0.387165   MPKI: 0.0046
LLC LOAD TRANSLATION ACCESS:       6181  HIT:       5770  MISS:        411  HIT %:    93.3506  MISS %:    6.64941   MPKI: 0.002055
LLC PREFETCH  REQUESTED:          0  ISSUED:          0  USEFUL:       2036  USELESS:      36885
LLC USEFUL LOAD PREFETCHES:       2036 PREFETCH ISSUED TO LOWER LEVEL:      40293  ACCURACY: 5.05299
LLC TIMELY PREFETCHES:       2036 LATE PREFETCHES: 0 DROPPED PREFETCHES: 0
LLC PREFETCHES SAME FILL-ORIGIN LEVEL: 0 DIFFERENT FILL-ORIGIN LEVEL: 0
LLC AVERAGE MISS LATENCY: 180.876 cycles
LLC RQ	ACCESS:    1064346	FORWARD:          0	MERGED:          0	TO_CACHE:    1064344
LLC WQ	ACCESS:     237625	FORWARD:          2	MERGED:          0	TO_CACHE:     237625
LLC PQ	ACCESS:     308262	FORWARD:          0	MERGED:          0	TO_CACHE:     308262

LLC Dense regions hint to LLC: 0

RAW hits: 1382056
Loads Generated: 48910806
Loads sent to L1D: 47528750
Stores Generated: 26918028
Stores sent to L1D: 26918036
Major fault: 0 Minor fault: 2582
Allocated PAGES: 2582
[Bingo] PHT Access: 1437646
[Bingo] PHT Hit PC+Addr: 1012138
[Bingo] PHT Hit PC+Offs: 44595
[Bingo] PHT Miss: 380913
[Bingo] Prefetch PC+Addr: 0
[Bingo] Prefetch PC+Offs: 0
[Bingo] Useful PC+Addr: 0
[Bingo] Useful PC+Offs: 0
[Bingo] Useless PC+Addr: 0
[Bingo] Useless PC+Offs: 0
[Bingo] L1 Prefetch per Region: 4.69707
[Bingo] L2 Prefetch per Region: 0.0711154
[Bingo] L3 Prefetch per Region: 0
[Bingo] No Prefetch per Region: 27.2318
[Bingo] Number of Voters Mean: 6.77737
[Bingo] Number of Voters SD: 6.79797
PHT read accesses: 5436907
PHT write accesses: 795565
AT read accesses: 27659695
AT write accesses: 27666085
FT read accesses: 14834234
FT write accesses: 1437646
PS read accesses: 2213176
PS write accesses: 1056733
PHT tag read accesses: 21706798
PHT tag write accesses: 1807703
AT tag read accesses: 653268095
AT tag write accesses: 28455242
FT tag read accesses: 256135712
FT tag write accesses: 9393999
PS tag read accesses: 586847545
PS tag write accesses: 3266869

DRAM Statistics
 CHANNEL 0
 RQ ROW_BUFFER_HIT:      36071  ROW_BUFFER_MISS:      53613
 DBUS_CONGESTED:         13
 WQ ROW_BUFFER_HIT:       4882  ROW_BUFFER_MISS:      46309  FULL:          0

 AVG_CONGESTED_CYCLE: 5
 All warmup complete: 2
Channel 0 Bank busy for read cycles: 0
Channel 0 Bank busy for write cycles: 0
Channel 0
Rank 0
0banks busy for read cycles: 624783511
0banks busy for write cycles: 9604
1banks busy for read cycles: 1342666
1banks busy for write cycles: 938209
2banks busy for read cycles: 403412
2banks busy for write cycles: 366711
3banks busy for read cycles: 238038
3banks busy for write cycles: 227975
4banks busy for read cycles: 212756
4banks busy for write cycles: 173681
5banks busy for read cycles: 146827
5banks busy for write cycles: 147987
6banks busy for read cycles: 129982
6banks busy for write cycles: 146711
7banks busy for read cycles: 172029
7banks busy for write cycles: 168678
8banks busy for read cycles: 432482
8banks busy for write cycles: 336674

CPU 0 Branch Prediction Accuracy: 99.8608% MPKI: 0.244675 Average ROB Occupancy at Mispredict: 28.7668
Branch types
NOT_BRANCH: 164851249 82.4256%
BRANCH_DIRECT_JUMP: 2026968 1.01348%
BRANCH_INDIRECT: 11863620 5.93181%
BRANCH_CONDITIONAL: 12721078 6.36054%
BRANCH_DIRECT_CALL: 3599197 1.7996%
BRANCH_INDIRECT_CALL: 669164 0.334582%
BRANCH_RETURN: 4268358 2.13418%
BRANCH_OTHER: 0 0%

DRAM PAGES: 1048576
Allocated PAGES: 2582
