
*** ChampSim Multicore Out-of-Order Simulator ***

Warmup Instructions: 50000000
Simulation Instructions: 200000000
Number of CPUs: 1
LLC sets: 2048
LLC ways: 16
Off-chip DRAM Size: 4096 MB Channels: 1 Width: 64-bit Data Rate: 6400 MT/s
CPU 0 runs traces/spec2k17/server_002.champsimtrace.xz
.xz
BTB has LRU replacement policy
ITLB has LRU replacement policy
DTLB has LRU replacement policy
STLB has LRU replacement policy
L1I has LRU replacement policy
L1D has LRU replacement policy
CPU 0 L2C best offset prefetcher
Initialize SRRIP state for L2C
Initialize DRRIP state for LLC
Heartbeat CPU 0 instructions: 10000000 cycles: 2661990 heartbeat IPC: 3.75659 cumulative IPC: 3.75659 (Simulation time: 0 hr 0 min 40 sec) 
Heartbeat CPU 0 instructions: 20000002 cycles: 5358073 heartbeat IPC: 3.70909 cumulative IPC: 3.73269 (Simulation time: 0 hr 1 min 18 sec) 
Heartbeat CPU 0 instructions: 30000002 cycles: 8019226 heartbeat IPC: 3.75777 cumulative IPC: 3.74101 (Simulation time: 0 hr 1 min 56 sec) 
Heartbeat CPU 0 instructions: 40000002 cycles: 10681274 heartbeat IPC: 3.75651 cumulative IPC: 3.74487 (Simulation time: 0 hr 2 min 35 sec) 
Heartbeat CPU 0 instructions: 50000002 cycles: 13342739 heartbeat IPC: 3.75733 cumulative IPC: 3.74736 (Simulation time: 0 hr 3 min 15 sec) 

Warmup complete CPU 0 instructions: 50000002 cycles: 13342739 (Simulation time: 0 hr 3 min 15 sec) 

Heartbeat CPU 0 instructions: 60000002 cycles: 28335360 heartbeat IPC: 0.666995 cumulative IPC: 0.666995 (Simulation time: 0 hr 4 min 0 sec) 
Heartbeat CPU 0 instructions: 70000001 cycles: 43239115 heartbeat IPC: 0.670972 cumulative IPC: 0.668977 (Simulation time: 0 hr 4 min 48 sec) 
Heartbeat CPU 0 instructions: 80000002 cycles: 58160542 heartbeat IPC: 0.670177 cumulative IPC: 0.669377 (Simulation time: 0 hr 5 min 34 sec) 
Heartbeat CPU 0 instructions: 90000001 cycles: 73095715 heartbeat IPC: 0.66956 cumulative IPC: 0.669423 (Simulation time: 0 hr 6 min 23 sec) 
Heartbeat CPU 0 instructions: 100000002 cycles: 88040766 heartbeat IPC: 0.669118 cumulative IPC: 0.669362 (Simulation time: 0 hr 7 min 12 sec) 
Heartbeat CPU 0 instructions: 110000000 cycles: 102975597 heartbeat IPC: 0.669576 cumulative IPC: 0.669397 (Simulation time: 0 hr 7 min 58 sec) 
Heartbeat CPU 0 instructions: 120000000 cycles: 117929642 heartbeat IPC: 0.668715 cumulative IPC: 0.6693 (Simulation time: 0 hr 8 min 47 sec) 
*** Reached end of trace for Core: 0 Repeating trace: traces/spec2k17/server_002.champsimtrace.xz
Heartbeat CPU 0 instructions: 130000003 cycles: 132726261 heartbeat IPC: 0.67583 cumulative IPC: 0.670109 (Simulation time: 0 hr 9 min 35 sec) 
Heartbeat CPU 0 instructions: 140000002 cycles: 149142207 heartbeat IPC: 0.609164 cumulative IPC: 0.662742 (Simulation time: 0 hr 10 min 22 sec) 
Heartbeat CPU 0 instructions: 150000000 cycles: 164063833 heartbeat IPC: 0.670168 cumulative IPC: 0.663477 (Simulation time: 0 hr 11 min 10 sec) 
Heartbeat CPU 0 instructions: 160000000 cycles: 179270352 heartbeat IPC: 0.657613 cumulative IPC: 0.66294 (Simulation time: 0 hr 11 min 55 sec) 
Heartbeat CPU 0 instructions: 170000003 cycles: 194226272 heartbeat IPC: 0.668632 cumulative IPC: 0.66341 (Simulation time: 0 hr 12 min 44 sec) 
Heartbeat CPU 0 instructions: 180000001 cycles: 209166979 heartbeat IPC: 0.669312 cumulative IPC: 0.663861 (Simulation time: 0 hr 13 min 31 sec) 
Heartbeat CPU 0 instructions: 190000001 cycles: 224100402 heartbeat IPC: 0.669639 cumulative IPC: 0.66427 (Simulation time: 0 hr 14 min 19 sec) 
Heartbeat CPU 0 instructions: 200000001 cycles: 239015629 heartbeat IPC: 0.670456 cumulative IPC: 0.664679 (Simulation time: 0 hr 15 min 4 sec) 
Heartbeat CPU 0 instructions: 210000003 cycles: 253935746 heartbeat IPC: 0.670236 cumulative IPC: 0.665024 (Simulation time: 0 hr 15 min 52 sec) 
Heartbeat CPU 0 instructions: 220000000 cycles: 268891276 heartbeat IPC: 0.668649 cumulative IPC: 0.665236 (Simulation time: 0 hr 16 min 40 sec) 
Heartbeat CPU 0 instructions: 230000000 cycles: 283835337 heartbeat IPC: 0.669162 cumulative IPC: 0.665453 (Simulation time: 0 hr 17 min 28 sec) 
Heartbeat CPU 0 instructions: 240000002 cycles: 298781061 heartbeat IPC: 0.669088 cumulative IPC: 0.665643 (Simulation time: 0 hr 18 min 15 sec) 
*** Reached end of trace for Core: 0 Repeating trace: traces/spec2k17/server_002.champsimtrace.xz
Heartbeat CPU 0 instructions: 250000000 cycles: 313743648 heartbeat IPC: 0.668333 cumulative IPC: 0.665777 (Simulation time: 0 hr 19 min 1 sec) 
Finished CPU 0 instructions: 200000002 cycles: 300400911 cumulative IPC: 0.665777 (Simulation time: 0 hr 19 min 1 sec) 

ChampSim completed all CPUs

Region of Interest Statistics

CPU 0 cumulative IPC: 0.665777 instructions: 200000002 cycles: 300400911
ITLB TOTAL     ACCESS:   34082211  HIT:   33093412  MISS:     988799  HIT %:    97.0988  MISS %:    2.90122   MPKI: 4.94399
ITLB LOAD TRANSLATION ACCESS:   34082211  HIT:   33093412  MISS:     988799  HIT %:    97.0988  MISS %:    2.90122   MPKI: 4.94399
ITLB PREFETCH  REQUESTED:          0  ISSUED:          0  USEFUL:          0  USELESS:          0
ITLB USEFUL LOAD PREFETCHES:          0 PREFETCH ISSUED TO LOWER LEVEL:          0  ACCURACY: -nan
ITLB TIMELY PREFETCHES:          0 LATE PREFETCHES: 0 DROPPED PREFETCHES: 0
ITLB PREFETCHES SAME FILL-ORIGIN LEVEL: 0 DIFFERENT FILL-ORIGIN LEVEL: 0
ITLB AVERAGE MISS LATENCY: 9.02894 cycles
ITLB RQ	ACCESS:   38888803	FORWARD:          0	MERGED:    4660636	TO_CACHE:   34228167

DTLB TOTAL     ACCESS:   39012399  HIT:   38093509  MISS:     918890  HIT %:    97.6446  MISS %:    2.35538   MPKI: 4.59445
DTLB LOAD TRANSLATION ACCESS:   39012399  HIT:   38093509  MISS:     918890  HIT %:    97.6446  MISS %:    2.35538   MPKI: 4.59445
DTLB PREFETCH  REQUESTED:          0  ISSUED:          0  USEFUL:          0  USELESS:          0
DTLB USEFUL LOAD PREFETCHES:          0 PREFETCH ISSUED TO LOWER LEVEL:          0  ACCURACY: -nan
DTLB TIMELY PREFETCHES:          0 LATE PREFETCHES: 0 DROPPED PREFETCHES: 0
DTLB PREFETCHES SAME FILL-ORIGIN LEVEL: 0 DIFFERENT FILL-ORIGIN LEVEL: 0
DTLB AVERAGE MISS LATENCY: 9.1697 cycles
DTLB RQ	ACCESS:   57612922	FORWARD:          0	MERGED:   18514667	TO_CACHE:   39098255

STLB TOTAL     ACCESS:    1907689  HIT:    1906296  MISS:       1393  HIT %:     99.927  MISS %:  0.0730203   MPKI: 0.006965
STLB LOAD TRANSLATION ACCESS:    1907689  HIT:    1906296  MISS:       1393  HIT %:     99.927  MISS %:  0.0730203   MPKI: 0.006965
STLB PREFETCH  REQUESTED:          0  ISSUED:          0  USEFUL:          0  USELESS:          0
STLB USEFUL LOAD PREFETCHES:          0 PREFETCH ISSUED TO LOWER LEVEL:          0  ACCURACY: -nan
STLB TIMELY PREFETCHES:          0 LATE PREFETCHES: 0 DROPPED PREFETCHES: 0
STLB PREFETCHES SAME FILL-ORIGIN LEVEL: 0 DIFFERENT FILL-ORIGIN LEVEL: 0
STLB AVERAGE MISS LATENCY: 130.846 cycles
STLB RQ	ACCESS:    1907689	FORWARD:          0	MERGED:          0	TO_CACHE:    1907689

STLB Hit, L1D data hit: 0
STLB Hit, L2C data hit: 0
STLB Hit, LLC data hit: 0
STLB Hit, LLC data miss: 0
STLB STLB hints to L2: 0
L1D TOTAL     ACCESS:   57549869  HIT:   57480146  MISS:      69723  HIT %:    99.8788  MISS %:   0.121152   MPKI: 0.348615
L1D LOAD      ACCESS:   25974461  HIT:   25939794  MISS:      34667  HIT %:    99.8665  MISS %:   0.133466   MPKI: 0.173335
L1D RFO       ACCESS:   31575408  HIT:   31540352  MISS:      35056  HIT %:     99.889  MISS %:   0.111023   MPKI: 0.17528
L1D PREFETCH  REQUESTED:          0  ISSUED:          0  USEFUL:          0  USELESS:          0
L1D USEFUL LOAD PREFETCHES:          0 PREFETCH ISSUED TO LOWER LEVEL:          0  ACCURACY: -nan
L1D TIMELY PREFETCHES:          0 LATE PREFETCHES: 0 DROPPED PREFETCHES: 0
L1D PREFETCHES SAME FILL-ORIGIN LEVEL: 0 DIFFERENT FILL-ORIGIN LEVEL: 0
L1D AVERAGE MISS LATENCY: 214.308 cycles
L1D RQ	ACCESS:   44305047	FORWARD:          0	MERGED:   17907256	TO_CACHE:   25976269
L1D WQ	ACCESS:   31931576	FORWARD:     421522	MERGED:     294923	TO_CACHE:   31636653

L1D UNIQUE REGIONS ACCESSED: 0
L1D REGIONS CONFLICTS: 0
L1D Cross Page Prefetch Requests: 0
L1D Same Page Prefetch Requests: 0
L1D ROI Sum of L1D PQ occupancy: 0
L1D PREFETCHES PUSHED FROM L2C: 0
L1I TOTAL     ACCESS:   37963972  HIT:   35020758  MISS:    2943214  HIT %:    92.2473  MISS %:    7.75265   MPKI: 14.7161
L1I LOAD      ACCESS:   37963972  HIT:   35020758  MISS:    2943214  HIT %:    92.2473  MISS %:    7.75265   MPKI: 14.7161
L1I PREFETCH  REQUESTED:          0  ISSUED:          0  USEFUL:          0  USELESS:          0
L1I USEFUL LOAD PREFETCHES:          0 PREFETCH ISSUED TO LOWER LEVEL:          0  ACCURACY: -nan
L1I TIMELY PREFETCHES:          0 LATE PREFETCHES: 0 DROPPED PREFETCHES: 0
L1I PREFETCHES SAME FILL-ORIGIN LEVEL: 0 DIFFERENT FILL-ORIGIN LEVEL: 0
L1I AVERAGE MISS LATENCY: 14.4345 cycles
L1I RQ	ACCESS:   58517142	FORWARD:          0	MERGED:   19628339	TO_CACHE:   38888803

BTB TOTAL     ACCESS:   27373725  HIT:   24469526  MISS:    2904199  HIT %:    89.3906  MISS %:    10.6094   MPKI: 14.521
BTB BRANCH_DIRECT_JUMP	ACCESS:    1709698  HIT:    1678160  MISS:      31538
BTB BRANCH_INDIRECT	ACCESS:   11565575  HIT:   10530298  MISS:    1035277
BTB BRANCH_CONDITIONAL	ACCESS:    4591094  HIT:    4588736  MISS:       2358
BTB BRANCH_DIRECT_CALL	ACCESS:    4331725  HIT:    4266076  MISS:      65649
BTB BRANCH_INDIRECT_CALL	ACCESS:     421962  HIT:     358275  MISS:      63687
BTB BRANCH_RETURN	ACCESS:    4753671  HIT:    3047981  MISS:    1705690
BTB BRANCH_OTHER ACCESS:          0  HIT:          0  MISS:          0

L2C TOTAL     ACCESS:    3080801  HIT:    2995580  MISS:      85221  HIT %:    97.2338  MISS %:     2.7662   MPKI: 0.426105
L2C LOAD      ACCESS:    2977881  HIT:    2947262  MISS:      30619  HIT %:    98.9718  MISS %:    1.02821   MPKI: 0.153095
L2C DATA LOAD MPKI: 0.086425
L2C INSTRUCTION LOAD MPKI: 0.06667
L2C RFO       ACCESS:      35056  HIT:       1618  MISS:      33438  HIT %:    4.61547  MISS %:    95.3845   MPKI: 0.16719
L2C PREFETCH  ACCESS:      24175  HIT:       5049  MISS:      19126  HIT %:    20.8852  MISS %:    79.1148   MPKI: 0.09563
AGUS PREFETCH L1 MISS: 0
L2C DATA PREFETCH MPKI: 0.09563
L2C INSTRUCTION PREFETCH MPKI: 0
L2C WRITEBACK ACCESS:      42104  HIT:      40891  MISS:       1213  HIT %:     97.119  MISS %:    2.88096   MPKI: 0.006065
L2C LOAD TRANSLATION ACCESS:       1585  HIT:        760  MISS:        825  HIT %:    47.9495  MISS %:    52.0505   MPKI: 0.004125
L2C PREFETCH  REQUESTED:      28086  ISSUED:      28086  USEFUL:      10968  USELESS:       8699
L2C USEFUL LOAD PREFETCHES:      10968 PREFETCH ISSUED TO LOWER LEVEL:      23002  ACCURACY: 47.6828
L2C TIMELY PREFETCHES:      10968 LATE PREFETCHES: 3876 DROPPED PREFETCHES: 0
L2C PREFETCHES SAME FILL-ORIGIN LEVEL: 23002 DIFFERENT FILL-ORIGIN LEVEL: 0
L2C AVERAGE MISS LATENCY: 242.278 cycles
L2C RQ	ACCESS:    3014522	FORWARD:          0	MERGED:          0	TO_CACHE:    3014522
L2C WQ	ACCESS:      42104	FORWARD:          0	MERGED:          0	TO_CACHE:      42104
L2C PQ	ACCESS:      28086	FORWARD:          0	MERGED:          0	TO_CACHE:      28086

L2C Instructions Evicting Data 11292
L2C Translations Evicting Data 703
L2C Data Evicting Data 58133
L2C Instructions Evicting Instructions 1909
L2C Translations Evicting Instructions 110
L2C Data Evicting Instructions 10947
L2C Instructions Evicting Translations 133
L2C Translations Evicting Translations 12
L2C Data Evicting Translations 769
L2C Dense regions hint from L2: 0
PSCL5 TOTAL     ACCESS:       1393  HIT:       1393  MISS:          0  HIT %:        100  MISS %:          0   MPKI: 0
PSCL5 LOAD TRANSLATION ACCESS:       1393  HIT:       1393  MISS:          0  HIT %:        100  MISS %:          0   MPKI: 0
PSCL5 PREFETCH  REQUESTED:          0  ISSUED:          0  USEFUL:          0  USELESS:          0
PSCL5 USEFUL LOAD PREFETCHES:          0 PREFETCH ISSUED TO LOWER LEVEL:          0  ACCURACY: -nan
PSCL5 TIMELY PREFETCHES:          0 LATE PREFETCHES: 0 DROPPED PREFETCHES: 0
PSCL5 PREFETCHES SAME FILL-ORIGIN LEVEL: 0 DIFFERENT FILL-ORIGIN LEVEL: 0

PSCL4 TOTAL     ACCESS:        862  HIT:        852  MISS:         10  HIT %:    98.8399  MISS %:    1.16009   MPKI: 5e-05
PSCL4 LOAD TRANSLATION ACCESS:        862  HIT:        852  MISS:         10  HIT %:    98.8399  MISS %:    1.16009   MPKI: 5e-05
PSCL4 PREFETCH  REQUESTED:          0  ISSUED:          0  USEFUL:          0  USELESS:          0
PSCL4 USEFUL LOAD PREFETCHES:          0 PREFETCH ISSUED TO LOWER LEVEL:          0  ACCURACY: -nan
PSCL4 TIMELY PREFETCHES:          0 LATE PREFETCHES: 0 DROPPED PREFETCHES: 0
PSCL4 PREFETCHES SAME FILL-ORIGIN LEVEL: 0 DIFFERENT FILL-ORIGIN LEVEL: 0

PSCL3 TOTAL     ACCESS:       1334  HIT:       1324  MISS:         10  HIT %:    99.2504  MISS %:   0.749625   MPKI: 5e-05
PSCL3 LOAD TRANSLATION ACCESS:       1334  HIT:       1324  MISS:         10  HIT %:    99.2504  MISS %:   0.749625   MPKI: 5e-05
PSCL3 PREFETCH  REQUESTED:          0  ISSUED:          0  USEFUL:          0  USELESS:          0
PSCL3 USEFUL LOAD PREFETCHES:          0 PREFETCH ISSUED TO LOWER LEVEL:          0  ACCURACY: -nan
PSCL3 TIMELY PREFETCHES:          0 LATE PREFETCHES: 0 DROPPED PREFETCHES: 0
PSCL3 PREFETCHES SAME FILL-ORIGIN LEVEL: 0 DIFFERENT FILL-ORIGIN LEVEL: 0

PSCL2 TOTAL     ACCESS:       1393  HIT:       1221  MISS:        172  HIT %:    87.6525  MISS %:    12.3475   MPKI: 0.00086
PSCL2 LOAD TRANSLATION ACCESS:       1393  HIT:       1221  MISS:        172  HIT %:    87.6525  MISS %:    12.3475   MPKI: 0.00086
PSCL2 PREFETCH  REQUESTED:          0  ISSUED:          0  USEFUL:          0  USELESS:          0
PSCL2 USEFUL LOAD PREFETCHES:          0 PREFETCH ISSUED TO LOWER LEVEL:          0  ACCURACY: -nan
PSCL2 TIMELY PREFETCHES:          0 LATE PREFETCHES: 0 DROPPED PREFETCHES: 0
PSCL2 PREFETCHES SAME FILL-ORIGIN LEVEL: 0 DIFFERENT FILL-ORIGIN LEVEL: 0

LLC TOTAL     ACCESS:     121672  HIT:      61666  MISS:      60006  HIT %:    50.6822  MISS %:    49.3178   MPKI: 0.30003
LLC LOAD      ACCESS:      26743  HIT:      12052  MISS:      14691  HIT %:     45.066  MISS %:     54.934   MPKI: 0.073455
LLC RFO       ACCESS:      33438  HIT:       7740  MISS:      25698  HIT %:    23.1473  MISS %:    76.8527   MPKI: 0.12849
LLC PREFETCH  ACCESS:      23002  HIT:       4267  MISS:      18735  HIT %:    18.5506  MISS %:    81.4494   MPKI: 0.093675
AGUS PREFETCH L1 MISS: 0
LLC WRITEBACK ACCESS:      37664  HIT:      37297  MISS:        367  HIT %:    99.0256  MISS %:   0.974405   MPKI: 0.001835
LLC LOAD TRANSLATION ACCESS:        825  HIT:        310  MISS:        515  HIT %:    37.5758  MISS %:    62.4242   MPKI: 0.002575
LLC PREFETCH  REQUESTED:          0  ISSUED:          0  USEFUL:       1368  USELESS:      16464
LLC USEFUL LOAD PREFETCHES:       1368 PREFETCH ISSUED TO LOWER LEVEL:      18735  ACCURACY: 7.30184
LLC TIMELY PREFETCHES:       1368 LATE PREFETCHES: 0 DROPPED PREFETCHES: 0
LLC PREFETCHES SAME FILL-ORIGIN LEVEL: 0 DIFFERENT FILL-ORIGIN LEVEL: 0
LLC AVERAGE MISS LATENCY: 321.256 cycles
LLC RQ	ACCESS:      61006	FORWARD:          0	MERGED:          0	TO_CACHE:      61006
LLC WQ	ACCESS:      37664	FORWARD:          0	MERGED:          0	TO_CACHE:      37664
LLC PQ	ACCESS:      23002	FORWARD:          0	MERGED:          0	TO_CACHE:      23002

LLC Dense regions hint to LLC: 0

RAW hits: 3793918
Loads Generated: 48098966
Loads sent to L1D: 44305047
Stores Generated: 31931560
Stores sent to L1D: 31931576
Major fault: 0 Minor fault: 2002
Allocated PAGES: 2002
CPU 0 L2C best offset prefetcher final stats

DRAM Statistics
 CHANNEL 0
 RQ ROW_BUFFER_HIT:      26372  ROW_BUFFER_MISS:      33267
 DBUS_CONGESTED:         17
 WQ ROW_BUFFER_HIT:       8189  ROW_BUFFER_MISS:      24093  FULL:          0

 AVG_CONGESTED_CYCLE: 4
 All warmup complete: 2
Channel 0 Bank busy for read cycles: 0
Channel 0 Bank busy for write cycles: 0
Channel 0
Rank 0
0banks busy for read cycles: 296400571
0banks busy for write cycles: 3142
1banks busy for read cycles: 1115741
1banks busy for write cycles: 454341
2banks busy for read cycles: 547962
2banks busy for write cycles: 306420
3banks busy for read cycles: 153738
3banks busy for write cycles: 180645
4banks busy for read cycles: 64678
4banks busy for write cycles: 127839
5banks busy for read cycles: 47014
5banks busy for write cycles: 70748
6banks busy for read cycles: 48660
6banks busy for write cycles: 54418
7banks busy for read cycles: 83568
7banks busy for write cycles: 80886
8banks busy for read cycles: 312189
8banks busy for write cycles: 348352

CPU 0 Branch Prediction Accuracy: 99.8625% MPKI: 0.21409 Average ROB Occupancy at Mispredict: 14.9947
Branch types
NOT_BRANCH: 168868799 84.4344%
BRANCH_DIRECT_JUMP: 1709698 0.854849%
BRANCH_INDIRECT: 11565575 5.78279%
BRANCH_CONDITIONAL: 8348252 4.17413%
BRANCH_DIRECT_CALL: 4331725 2.16586%
BRANCH_INDIRECT_CALL: 421962 0.210981%
BRANCH_RETURN: 4753671 2.37684%
BRANCH_OTHER: 0 0%

DRAM PAGES: 1048576
Allocated PAGES: 2002
