
*** ChampSim Multicore Out-of-Order Simulator ***

Warmup Instructions: 50000000
Simulation Instructions: 200000000
Number of CPUs: 1
LLC sets: 2048
LLC ways: 16
Off-chip DRAM Size: 4096 MB Channels: 1 Width: 64-bit Data Rate: 6400 MT/s
CPU 0 runs traces/spec2k17/srv_31.champsimtrace.xz
.xz
BTB has LRU replacement policy
ITLB has LRU replacement policy
DTLB has LRU replacement policy
STLB has LRU replacement policy
L1I has LRU replacement policy
Bingo PHT WAYS: 16 and PHT_SIZE: 16384
L1D has LRU replacement policy
Initialize SRRIP state for L2C
Initialize DRRIP state for LLC
Heartbeat CPU 0 instructions: 10000000 cycles: 2807323 heartbeat IPC: 3.56211 cumulative IPC: 3.56211 (Simulation time: 0 hr 0 min 39 sec) 
Heartbeat CPU 0 instructions: 20000002 cycles: 5612997 heartbeat IPC: 3.56421 cumulative IPC: 3.56316 (Simulation time: 0 hr 1 min 18 sec) 
Heartbeat CPU 0 instructions: 30000002 cycles: 8419673 heartbeat IPC: 3.56293 cumulative IPC: 3.56308 (Simulation time: 0 hr 1 min 54 sec) 
*** Reached end of trace for Core: 0 Repeating trace: traces/spec2k17/srv_31.champsimtrace.xz
Heartbeat CPU 0 instructions: 40000000 cycles: 11223574 heartbeat IPC: 3.56646 cumulative IPC: 3.56393 (Simulation time: 0 hr 2 min 30 sec) 
Heartbeat CPU 0 instructions: 50000003 cycles: 14027983 heartbeat IPC: 3.56581 cumulative IPC: 3.5643 (Simulation time: 0 hr 3 min 8 sec) 

Warmup complete CPU 0 instructions: 50000003 cycles: 14027983 (Simulation time: 0 hr 3 min 8 sec) 

Heartbeat CPU 0 instructions: 60000001 cycles: 27822232 heartbeat IPC: 0.72494 cumulative IPC: 0.72494 (Simulation time: 0 hr 3 min 54 sec) 
*** Reached end of trace for Core: 0 Repeating trace: traces/spec2k17/srv_31.champsimtrace.xz
Heartbeat CPU 0 instructions: 70000000 cycles: 41606770 heartbeat IPC: 0.72545 cumulative IPC: 0.725195 (Simulation time: 0 hr 4 min 26 sec) 
Heartbeat CPU 0 instructions: 80000000 cycles: 55181219 heartbeat IPC: 0.736678 cumulative IPC: 0.728983 (Simulation time: 0 hr 4 min 58 sec) 
Heartbeat CPU 0 instructions: 90000001 cycles: 68870775 heartbeat IPC: 0.730484 cumulative IPC: 0.729357 (Simulation time: 0 hr 5 min 30 sec) 
*** Reached end of trace for Core: 0 Repeating trace: traces/spec2k17/srv_31.champsimtrace.xz
Heartbeat CPU 0 instructions: 100000000 cycles: 82483210 heartbeat IPC: 0.734622 cumulative IPC: 0.730404 (Simulation time: 0 hr 6 min 2 sec) 
Heartbeat CPU 0 instructions: 110000000 cycles: 96005375 heartbeat IPC: 0.739527 cumulative IPC: 0.731909 (Simulation time: 0 hr 6 min 34 sec) 
Heartbeat CPU 0 instructions: 120000001 cycles: 109902285 heartbeat IPC: 0.719585 cumulative IPC: 0.730123 (Simulation time: 0 hr 7 min 7 sec) 
*** Reached end of trace for Core: 0 Repeating trace: traces/spec2k17/srv_31.champsimtrace.xz
Heartbeat CPU 0 instructions: 130000000 cycles: 123522296 heartbeat IPC: 0.734214 cumulative IPC: 0.730632 (Simulation time: 0 hr 7 min 38 sec) 
Heartbeat CPU 0 instructions: 140000000 cycles: 137029153 heartbeat IPC: 0.740365 cumulative IPC: 0.7317 (Simulation time: 0 hr 8 min 10 sec) 
Heartbeat CPU 0 instructions: 150000002 cycles: 150917231 heartbeat IPC: 0.720042 cumulative IPC: 0.730518 (Simulation time: 0 hr 8 min 42 sec) 
*** Reached end of trace for Core: 0 Repeating trace: traces/spec2k17/srv_31.champsimtrace.xz
Heartbeat CPU 0 instructions: 160000002 cycles: 164562342 heartbeat IPC: 0.732863 cumulative IPC: 0.73073 (Simulation time: 0 hr 9 min 18 sec) 
Heartbeat CPU 0 instructions: 170000002 cycles: 178037810 heartbeat IPC: 0.742089 cumulative IPC: 0.731663 (Simulation time: 0 hr 10 min 8 sec) 
Heartbeat CPU 0 instructions: 180000002 cycles: 191698776 heartbeat IPC: 0.732013 cumulative IPC: 0.73169 (Simulation time: 0 hr 10 min 58 sec) 
Heartbeat CPU 0 instructions: 190000001 cycles: 205329958 heartbeat IPC: 0.733612 cumulative IPC: 0.731827 (Simulation time: 0 hr 11 min 48 sec) 
*** Reached end of trace for Core: 0 Repeating trace: traces/spec2k17/srv_31.champsimtrace.xz
Heartbeat CPU 0 instructions: 200000003 cycles: 219048112 heartbeat IPC: 0.728961 cumulative IPC: 0.731635 (Simulation time: 0 hr 12 min 38 sec) 
Heartbeat CPU 0 instructions: 210000003 cycles: 232658848 heartbeat IPC: 0.734714 cumulative IPC: 0.731827 (Simulation time: 0 hr 13 min 28 sec) 
Heartbeat CPU 0 instructions: 220000000 cycles: 246293700 heartbeat IPC: 0.733414 cumulative IPC: 0.73192 (Simulation time: 0 hr 14 min 10 sec) 
*** Reached end of trace for Core: 0 Repeating trace: traces/spec2k17/srv_31.champsimtrace.xz
Heartbeat CPU 0 instructions: 230000003 cycles: 260045496 heartbeat IPC: 0.727178 cumulative IPC: 0.731655 (Simulation time: 0 hr 14 min 42 sec) 
Heartbeat CPU 0 instructions: 240000001 cycles: 273558700 heartbeat IPC: 0.740017 cumulative IPC: 0.732091 (Simulation time: 0 hr 15 min 14 sec) 
Heartbeat CPU 0 instructions: 250000003 cycles: 287122920 heartbeat IPC: 0.737234 cumulative IPC: 0.732346 (Simulation time: 0 hr 15 min 46 sec) 
Finished CPU 0 instructions: 200000000 cycles: 273094937 cumulative IPC: 0.732346 (Simulation time: 0 hr 15 min 46 sec) 

ChampSim completed all CPUs

Region of Interest Statistics

CPU 0 cumulative IPC: 0.732346 instructions: 200000000 cycles: 273094937
ITLB TOTAL     ACCESS:   32443934  HIT:   32337230  MISS:     106704  HIT %:    99.6711  MISS %:   0.328887   MPKI: 0.53352
ITLB LOAD TRANSLATION ACCESS:   32443934  HIT:   32337230  MISS:     106704  HIT %:    99.6711  MISS %:   0.328887   MPKI: 0.53352
ITLB PREFETCH  REQUESTED:          0  ISSUED:          0  USEFUL:          0  USELESS:          0
ITLB USEFUL LOAD PREFETCHES:          0 PREFETCH ISSUED TO LOWER LEVEL:          0  ACCURACY: -nan
ITLB TIMELY PREFETCHES:          0 LATE PREFETCHES: 0 DROPPED PREFETCHES: 0
ITLB PREFETCHES SAME FILL-ORIGIN LEVEL: 0 DIFFERENT FILL-ORIGIN LEVEL: 0
ITLB AVERAGE MISS LATENCY: 10.8223 cycles
ITLB RQ	ACCESS:   38243076	FORWARD:          0	MERGED:    5764350	TO_CACHE:   32478726

DTLB TOTAL     ACCESS:   40826600  HIT:   39017708  MISS:    1808892  HIT %:    95.5693  MISS %:    4.43067   MPKI: 9.04446
DTLB LOAD TRANSLATION ACCESS:   40826600  HIT:   39017708  MISS:    1808892  HIT %:    95.5693  MISS %:    4.43067   MPKI: 9.04446
DTLB PREFETCH  REQUESTED:          0  ISSUED:          0  USEFUL:          0  USELESS:          0
DTLB USEFUL LOAD PREFETCHES:          0 PREFETCH ISSUED TO LOWER LEVEL:          0  ACCURACY: -nan
DTLB TIMELY PREFETCHES:          0 LATE PREFETCHES: 0 DROPPED PREFETCHES: 0
DTLB PREFETCHES SAME FILL-ORIGIN LEVEL: 0 DIFFERENT FILL-ORIGIN LEVEL: 0
DTLB AVERAGE MISS LATENCY: 10.8115 cycles
DTLB RQ	ACCESS:   54805965	FORWARD:          0	MERGED:   13778181	TO_CACHE:   41027784

STLB TOTAL     ACCESS:    2095480  HIT:    2009044  MISS:      86436  HIT %:    95.8751  MISS %:    4.12488   MPKI: 0.43218
STLB LOAD TRANSLATION ACCESS:    1915596  HIT:    1829160  MISS:      86436  HIT %:    95.4878  MISS %:    4.51222   MPKI: 0.43218
STLB TRANSLATION FROM L1D PREFETCHER ACCESS:     179884  HIT:     179884  MISS:          0  HIT %:        100  MISS %:          0   MPKI: 0
STLB PREFETCH  REQUESTED:          0  ISSUED:          0  USEFUL:          0  USELESS:          0
STLB USEFUL LOAD PREFETCHES:          0 PREFETCH ISSUED TO LOWER LEVEL:          0  ACCURACY: -nan
STLB TIMELY PREFETCHES:          0 LATE PREFETCHES: 0 DROPPED PREFETCHES: 0
STLB PREFETCHES SAME FILL-ORIGIN LEVEL: 0 DIFFERENT FILL-ORIGIN LEVEL: 0
STLB AVERAGE MISS LATENCY: 40.1149 cycles
STLB RQ	ACCESS:    2444829	FORWARD:          0	MERGED:     349349	TO_CACHE:    2095480

STLB Hit, L1D data hit: 0
STLB Hit, L2C data hit: 0
STLB Hit, LLC data hit: 0
STLB Hit, LLC data miss: 0
STLB STLB hints to L2: 0
L1D TOTAL     ACCESS:   54621868  HIT:   54086106  MISS:     535762  HIT %:    99.0191  MISS %:   0.980856   MPKI: 2.67881
L1D LOAD      ACCESS:   30842969  HIT:   30582832  MISS:     260137  HIT %:    99.1566  MISS %:   0.843424   MPKI: 1.30069
L1D RFO       ACCESS:   23500416  HIT:   23398105  MISS:     102311  HIT %:    99.5646  MISS %:   0.435358   MPKI: 0.511555
L1D PREFETCH  ACCESS:     278483  HIT:     105169  MISS:     173314  HIT %:     37.765  MISS %:     62.235   MPKI: 0.86657
AGUS PREFETCH L1 MISS: 0
L1D PREFETCH  REQUESTED:    1058513  ISSUED:    1058513  USEFUL:     129314  USELESS:      44006
L1D USEFUL LOAD PREFETCHES:     129314 PREFETCH ISSUED TO LOWER LEVEL:     401613  ACCURACY: 32.1987
L1D TIMELY PREFETCHES:     129314 LATE PREFETCHES: 23705 DROPPED PREFETCHES: 0
L1D PREFETCHES SAME FILL-ORIGIN LEVEL: 197030 DIFFERENT FILL-ORIGIN LEVEL: 204583
L1D AVERAGE MISS LATENCY: 6.65681e+06 cycles
L1D RQ	ACCESS:   49529961	FORWARD:          0	MERGED:   18516124	TO_CACHE:   30894436
L1D WQ	ACCESS:   24164282	FORWARD:     119440	MERGED:     252753	TO_CACHE:   23911529
L1D PQ	ACCESS:     529280	FORWARD:          0	MERGED:          8	TO_CACHE:     529233

L1D UNIQUE REGIONS ACCESSED: 0
L1D REGIONS CONFLICTS: 0
L1D Cross Page Prefetch Requests: 0
L1D Same Page Prefetch Requests: 646537
L1D ROI Sum of L1D PQ occupancy: 7538372
L1D PREFETCHES PUSHED FROM L2C: 0
L1I TOTAL     ACCESS:   38050543  HIT:   37412172  MISS:     638371  HIT %:    98.3223  MISS %:    1.67769   MPKI: 3.19185
L1I LOAD      ACCESS:   38050543  HIT:   37412172  MISS:     638371  HIT %:    98.3223  MISS %:    1.67769   MPKI: 3.19185
L1I PREFETCH  REQUESTED:          0  ISSUED:          0  USEFUL:          0  USELESS:          0
L1I USEFUL LOAD PREFETCHES:          0 PREFETCH ISSUED TO LOWER LEVEL:          0  ACCURACY: -nan
L1I TIMELY PREFETCHES:          0 LATE PREFETCHES: 0 DROPPED PREFETCHES: 0
L1I PREFETCHES SAME FILL-ORIGIN LEVEL: 0 DIFFERENT FILL-ORIGIN LEVEL: 0
L1I AVERAGE MISS LATENCY: 17.5142 cycles
L1I RQ	ACCESS:   60442454	FORWARD:          0	MERGED:   22199378	TO_CACHE:   38243076

BTB TOTAL     ACCESS:   29625893  HIT:   27968825  MISS:    1657068  HIT %:    94.4067  MISS %:    5.59331   MPKI: 8.28534
BTB BRANCH_DIRECT_JUMP	ACCESS:    2289443  HIT:    2287950  MISS:       1493
BTB BRANCH_INDIRECT	ACCESS:   12552908  HIT:   12006835  MISS:     546073
BTB BRANCH_CONDITIONAL	ACCESS:    7216617  HIT:    7214548  MISS:       2069
BTB BRANCH_DIRECT_CALL	ACCESS:    3333261  HIT:    3329718  MISS:       3543
BTB BRANCH_INDIRECT_CALL	ACCESS:     450198  HIT:     257229  MISS:     192969
BTB BRANCH_RETURN	ACCESS:    3783466  HIT:    2872545  MISS:     910921
BTB BRANCH_OTHER ACCESS:          0  HIT:          0  MISS:          0

L2C TOTAL     ACCESS:    1663319  HIT:     966390  MISS:     696929  HIT %:    58.1001  MISS %:    41.8999   MPKI: 3.48464
L2C LOAD      ACCESS:     874758  HIT:     651204  MISS:     223554  HIT %:    74.4439  MISS %:    25.5561   MPKI: 1.11777
L2C DATA LOAD MPKI: 0.88464
L2C INSTRUCTION LOAD MPKI: 0.23313
L2C RFO       ACCESS:     102300  HIT:       4978  MISS:      97322  HIT %:    4.86608  MISS %:    95.1339   MPKI: 0.48661
L2C PREFETCH  ACCESS:     397702  HIT:      59463  MISS:     338239  HIT %:    14.9516  MISS %:    85.0484   MPKI: 1.6912
AGUS PREFETCH L1 MISS: 0
L2C DATA PREFETCH MPKI: 1.6912
L2C INSTRUCTION PREFETCH MPKI: 0
L2C WRITEBACK ACCESS:     165284  HIT:     158007  MISS:       7277  HIT %:    95.5973  MISS %:    4.40273   MPKI: 0.036385
L2C LOAD TRANSLATION ACCESS:     123275  HIT:      92738  MISS:      30537  HIT %:    75.2286  MISS %:    24.7714   MPKI: 0.152685
L2C PREFETCH  REQUESTED:          0  ISSUED:          0  USEFUL:      31626  USELESS:     306521
L2C USEFUL LOAD PREFETCHES:      31626 PREFETCH ISSUED TO LOWER LEVEL:     342150  ACCURACY: 9.24331
L2C TIMELY PREFETCHES:      31626 LATE PREFETCHES: 3911 DROPPED PREFETCHES: 0
L2C PREFETCHES SAME FILL-ORIGIN LEVEL: 198985 DIFFERENT FILL-ORIGIN LEVEL: 0
L2C AVERAGE MISS LATENCY: 134.337 cycles
L2C RQ	ACCESS:    1100378	FORWARD:          0	MERGED:          0	TO_CACHE:    1100333
L2C WQ	ACCESS:     165284	FORWARD:         45	MERGED:          0	TO_CACHE:     165284
L2C PQ	ACCESS:     401613	FORWARD:          0	MERGED:          0	TO_CACHE:     401613

L2C Instructions Evicting Data 42613
L2C Translations Evicting Data 26839
L2C Data Evicting Data 543721
L2C Instructions Evicting Instructions 2049
L2C Translations Evicting Instructions 2112
L2C Data Evicting Instructions 42314
L2C Instructions Evicting Translations 1964
L2C Translations Evicting Translations 1586
L2C Data Evicting Translations 26454
L2C Dense regions hint from L2: 0
PSCL5 TOTAL     ACCESS:      86436  HIT:      86436  MISS:          0  HIT %:        100  MISS %:          0   MPKI: 0
PSCL5 LOAD TRANSLATION ACCESS:      86436  HIT:      86436  MISS:          0  HIT %:        100  MISS %:          0   MPKI: 0
PSCL5 PREFETCH  REQUESTED:          0  ISSUED:          0  USEFUL:          0  USELESS:          0
PSCL5 USEFUL LOAD PREFETCHES:          0 PREFETCH ISSUED TO LOWER LEVEL:          0  ACCURACY: -nan
PSCL5 TIMELY PREFETCHES:          0 LATE PREFETCHES: 0 DROPPED PREFETCHES: 0
PSCL5 PREFETCHES SAME FILL-ORIGIN LEVEL: 0 DIFFERENT FILL-ORIGIN LEVEL: 0

PSCL4 TOTAL     ACCESS:      84760  HIT:      84614  MISS:        146  HIT %:    99.8277  MISS %:   0.172251   MPKI: 0.00073
PSCL4 LOAD TRANSLATION ACCESS:      84760  HIT:      84614  MISS:        146  HIT %:    99.8277  MISS %:   0.172251   MPKI: 0.00073
PSCL4 PREFETCH  REQUESTED:          0  ISSUED:          0  USEFUL:          0  USELESS:          0
PSCL4 USEFUL LOAD PREFETCHES:          0 PREFETCH ISSUED TO LOWER LEVEL:          0  ACCURACY: -nan
PSCL4 TIMELY PREFETCHES:          0 LATE PREFETCHES: 0 DROPPED PREFETCHES: 0
PSCL4 PREFETCHES SAME FILL-ORIGIN LEVEL: 0 DIFFERENT FILL-ORIGIN LEVEL: 0

PSCL3 TOTAL     ACCESS:      86116  HIT:      85570  MISS:        546  HIT %:     99.366  MISS %:   0.634029   MPKI: 0.00273
PSCL3 LOAD TRANSLATION ACCESS:      86116  HIT:      85570  MISS:        546  HIT %:     99.366  MISS %:   0.634029   MPKI: 0.00273
PSCL3 PREFETCH  REQUESTED:          0  ISSUED:          0  USEFUL:          0  USELESS:          0
PSCL3 USEFUL LOAD PREFETCHES:          0 PREFETCH ISSUED TO LOWER LEVEL:          0  ACCURACY: -nan
PSCL3 TIMELY PREFETCHES:          0 LATE PREFETCHES: 0 DROPPED PREFETCHES: 0
PSCL3 PREFETCHES SAME FILL-ORIGIN LEVEL: 0 DIFFERENT FILL-ORIGIN LEVEL: 0

PSCL2 TOTAL     ACCESS:      86436  HIT:      50289  MISS:      36147  HIT %:    58.1806  MISS %:    41.8194   MPKI: 0.180735
PSCL2 LOAD TRANSLATION ACCESS:      86436  HIT:      50289  MISS:      36147  HIT %:    58.1806  MISS %:    41.8194   MPKI: 0.180735
PSCL2 PREFETCH  REQUESTED:          0  ISSUED:          0  USEFUL:          0  USELESS:          0
PSCL2 USEFUL LOAD PREFETCHES:          0 PREFETCH ISSUED TO LOWER LEVEL:          0  ACCURACY: -nan
PSCL2 TIMELY PREFETCHES:          0 LATE PREFETCHES: 0 DROPPED PREFETCHES: 0
PSCL2 PREFETCHES SAME FILL-ORIGIN LEVEL: 0 DIFFERENT FILL-ORIGIN LEVEL: 0

LLC TOTAL     ACCESS:     840206  HIT:     374936  MISS:     465270  HIT %:    44.6243  MISS %:    55.3757   MPKI: 2.32635
LLC LOAD      ACCESS:     219643  HIT:      82797  MISS:     136846  HIT %:    37.6962  MISS %:    62.3038   MPKI: 0.68423
LLC RFO       ACCESS:      97322  HIT:      42246  MISS:      55076  HIT %:    43.4085  MISS %:    56.5915   MPKI: 0.27538
LLC PREFETCH  ACCESS:     342150  HIT:      77867  MISS:     264283  HIT %:    22.7581  MISS %:    77.2419   MPKI: 1.32142
AGUS PREFETCH L1 MISS: 0
LLC WRITEBACK ACCESS:     150554  HIT:     144267  MISS:       6287  HIT %:    95.8241  MISS %:    4.17591   MPKI: 0.031435
LLC LOAD TRANSLATION ACCESS:      30537  HIT:      27759  MISS:       2778  HIT %:    90.9028  MISS %:    9.09716   MPKI: 0.01389
LLC PREFETCH  REQUESTED:          0  ISSUED:          0  USEFUL:       3336  USELESS:     263716
LLC USEFUL LOAD PREFETCHES:       3336 PREFETCH ISSUED TO LOWER LEVEL:     264283  ACCURACY: 1.26228
LLC TIMELY PREFETCHES:       3336 LATE PREFETCHES: 0 DROPPED PREFETCHES: 0
LLC PREFETCHES SAME FILL-ORIGIN LEVEL: 0 DIFFERENT FILL-ORIGIN LEVEL: 0
LLC AVERAGE MISS LATENCY: 157.451 cycles
LLC RQ	ACCESS:     347502	FORWARD:          0	MERGED:          0	TO_CACHE:     347502
LLC WQ	ACCESS:     150554	FORWARD:          0	MERGED:          0	TO_CACHE:     150554
LLC PQ	ACCESS:     342150	FORWARD:          0	MERGED:          0	TO_CACHE:     342150

LLC Dense regions hint to LLC: 0

RAW hits: 2341411
Loads Generated: 51871374
Loads sent to L1D: 49529961
Stores Generated: 24164278
Stores sent to L1D: 24164282
Major fault: 0 Minor fault: 6162
Allocated PAGES: 6162
[Bingo] PHT Access: 196003
[Bingo] PHT Hit PC+Addr: 51098
[Bingo] PHT Hit PC+Offs: 116738
[Bingo] PHT Miss: 28167
[Bingo] Prefetch PC+Addr: 0
[Bingo] Prefetch PC+Offs: 0
[Bingo] Useful PC+Addr: 0
[Bingo] Useful PC+Offs: 0
[Bingo] Useless PC+Addr: 0
[Bingo] Useless PC+Offs: 0
[Bingo] L1 Prefetch per Region: 2.95475
[Bingo] L2 Prefetch per Region: 1.24485
[Bingo] L3 Prefetch per Region: 0
[Bingo] No Prefetch per Region: 27.8004
[Bingo] Number of Voters Mean: 8.80081
[Bingo] Number of Voters SD: 7.86186
PHT read accesses: 1498069
PHT write accesses: 73305
AT read accesses: 24128272
AT write accesses: 24130646
FT read accesses: 13531375
FT write accesses: 196003
PS read accesses: 397566
PS write accesses: 167836
PHT tag read accesses: 4269966
PHT tag write accesses: 124403
AT tag read accesses: 505724806
AT tag write accesses: 24201595
FT tag read accesses: 125797081
FT tag write accesses: 7012946
PS tag read accesses: 500291149
PS tag write accesses: 565071

DRAM Statistics
 CHANNEL 0
 RQ ROW_BUFFER_HIT:     117000  ROW_BUFFER_MISS:     341938
 DBUS_CONGESTED:        332
 WQ ROW_BUFFER_HIT:       7584  ROW_BUFFER_MISS:      73940  FULL:          0

 AVG_CONGESTED_CYCLE: 5
 All warmup complete: 2
Channel 0 Bank busy for read cycles: 0
Channel 0 Bank busy for write cycles: 0
Channel 0
Rank 0
0banks busy for read cycles: 240404893
0banks busy for write cycles: 40839
1banks busy for read cycles: 8584611
1banks busy for write cycles: 5503418
2banks busy for read cycles: 5803868
2banks busy for write cycles: 1711108
3banks busy for read cycles: 6813202
3banks busy for write cycles: 516157
4banks busy for read cycles: 1299475
4banks busy for write cycles: 203746
5banks busy for read cycles: 579986
5banks busy for write cycles: 122112
6banks busy for read cycles: 301557
6banks busy for write cycles: 97699
7banks busy for read cycles: 337570
7banks busy for write cycles: 94102
8banks busy for read cycles: 530623
8banks busy for write cycles: 149972

CPU 0 Branch Prediction Accuracy: 99.7859% MPKI: 0.39104 Average ROB Occupancy at Mispredict: 17.9748
Branch types
NOT_BRANCH: 163463153 81.7316%
BRANCH_DIRECT_JUMP: 2289443 1.14472%
BRANCH_INDIRECT: 12552908 6.27645%
BRANCH_CONDITIONAL: 14127333 7.06367%
BRANCH_DIRECT_CALL: 3333261 1.66663%
BRANCH_INDIRECT_CALL: 450198 0.225099%
BRANCH_RETURN: 3783466 1.89173%
BRANCH_OTHER: 0 0%

DRAM PAGES: 1048576
Allocated PAGES: 6162
