
*** ChampSim Multicore Out-of-Order Simulator ***

Warmup Instructions: 50000000
Simulation Instructions: 200000000
Number of CPUs: 1
LLC sets: 2048
LLC ways: 16
Off-chip DRAM Size: 4096 MB Channels: 1 Width: 64-bit Data Rate: 6400 MT/s
CPU 0 runs traces/spec2k17/srv_28.champsimtrace.xz
.xz
BTB has LRU replacement policy
ITLB has LRU replacement policy
DTLB has LRU replacement policy
STLB has LRU replacement policy
L1I has LRU replacement policy
Bingo PHT WAYS: 16 and PHT_SIZE: 16384
L1D has LRU replacement policy
Initialize SRRIP state for L2C
Initialize DRRIP state for LLC
Heartbeat CPU 0 instructions: 10000001 cycles: 2807742 heartbeat IPC: 3.56158 cumulative IPC: 3.56158 (Simulation time: 0 hr 0 min 28 sec) 
Heartbeat CPU 0 instructions: 20000003 cycles: 5612804 heartbeat IPC: 3.56498 cumulative IPC: 3.56328 (Simulation time: 0 hr 1 min 7 sec) 
Heartbeat CPU 0 instructions: 30000003 cycles: 8418471 heartbeat IPC: 3.56421 cumulative IPC: 3.56359 (Simulation time: 0 hr 1 min 36 sec) 
*** Reached end of trace for Core: 0 Repeating trace: traces/spec2k17/srv_28.champsimtrace.xz
Heartbeat CPU 0 instructions: 40000003 cycles: 11220670 heartbeat IPC: 3.56863 cumulative IPC: 3.56485 (Simulation time: 0 hr 2 min 1 sec) 
Heartbeat CPU 0 instructions: 50000002 cycles: 14024639 heartbeat IPC: 3.56637 cumulative IPC: 3.56515 (Simulation time: 0 hr 2 min 36 sec) 

Warmup complete CPU 0 instructions: 50000002 cycles: 14024639 (Simulation time: 0 hr 2 min 36 sec) 

Heartbeat CPU 0 instructions: 60000000 cycles: 27697307 heartbeat IPC: 0.731386 cumulative IPC: 0.731386 (Simulation time: 0 hr 3 min 13 sec) 
*** Reached end of trace for Core: 0 Repeating trace: traces/spec2k17/srv_28.champsimtrace.xz
Heartbeat CPU 0 instructions: 70000003 cycles: 41511787 heartbeat IPC: 0.723878 cumulative IPC: 0.727613 (Simulation time: 0 hr 4 min 4 sec) 
Heartbeat CPU 0 instructions: 80000000 cycles: 55255628 heartbeat IPC: 0.727598 cumulative IPC: 0.727608 (Simulation time: 0 hr 4 min 55 sec) 
Heartbeat CPU 0 instructions: 90000001 cycles: 68827680 heartbeat IPC: 0.736808 cumulative IPC: 0.729886 (Simulation time: 0 hr 5 min 46 sec) 
*** Reached end of trace for Core: 0 Repeating trace: traces/spec2k17/srv_28.champsimtrace.xz
Heartbeat CPU 0 instructions: 100000000 cycles: 82654829 heartbeat IPC: 0.723215 cumulative IPC: 0.728542 (Simulation time: 0 hr 6 min 37 sec) 
Heartbeat CPU 0 instructions: 110000000 cycles: 96166454 heartbeat IPC: 0.740103 cumulative IPC: 0.730444 (Simulation time: 0 hr 7 min 27 sec) 
Heartbeat CPU 0 instructions: 120000001 cycles: 109937500 heartbeat IPC: 0.726161 cumulative IPC: 0.729829 (Simulation time: 0 hr 8 min 8 sec) 
*** Reached end of trace for Core: 0 Repeating trace: traces/spec2k17/srv_28.champsimtrace.xz
Heartbeat CPU 0 instructions: 130000000 cycles: 123634399 heartbeat IPC: 0.730092 cumulative IPC: 0.729862 (Simulation time: 0 hr 8 min 40 sec) 
Heartbeat CPU 0 instructions: 140000001 cycles: 137135430 heartbeat IPC: 0.740684 cumulative IPC: 0.731049 (Simulation time: 0 hr 9 min 12 sec) 
Heartbeat CPU 0 instructions: 150000001 cycles: 151039550 heartbeat IPC: 0.719211 cumulative IPC: 0.729848 (Simulation time: 0 hr 9 min 45 sec) 
*** Reached end of trace for Core: 0 Repeating trace: traces/spec2k17/srv_28.champsimtrace.xz
Heartbeat CPU 0 instructions: 160000000 cycles: 164752248 heartbeat IPC: 0.729251 cumulative IPC: 0.729793 (Simulation time: 0 hr 10 min 17 sec) 
Heartbeat CPU 0 instructions: 170000003 cycles: 178219150 heartbeat IPC: 0.742562 cumulative IPC: 0.730841 (Simulation time: 0 hr 11 min 0 sec) 
Heartbeat CPU 0 instructions: 180000001 cycles: 192092590 heartbeat IPC: 0.720802 cumulative IPC: 0.730058 (Simulation time: 0 hr 11 min 40 sec) 
Heartbeat CPU 0 instructions: 190000001 cycles: 205602328 heartbeat IPC: 0.740207 cumulative IPC: 0.730774 (Simulation time: 0 hr 12 min 11 sec) 
*** Reached end of trace for Core: 0 Repeating trace: traces/spec2k17/srv_28.champsimtrace.xz
Heartbeat CPU 0 instructions: 200000000 cycles: 219290005 heartbeat IPC: 0.730584 cumulative IPC: 0.730761 (Simulation time: 0 hr 12 min 43 sec) 
Heartbeat CPU 0 instructions: 210000001 cycles: 233032823 heartbeat IPC: 0.727653 cumulative IPC: 0.730566 (Simulation time: 0 hr 13 min 15 sec) 
Heartbeat CPU 0 instructions: 220000000 cycles: 246595265 heartbeat IPC: 0.73733 cumulative IPC: 0.730961 (Simulation time: 0 hr 13 min 47 sec) 
*** Reached end of trace for Core: 0 Repeating trace: traces/spec2k17/srv_28.champsimtrace.xz
Heartbeat CPU 0 instructions: 230000001 cycles: 260260491 heartbeat IPC: 0.731785 cumulative IPC: 0.731006 (Simulation time: 0 hr 14 min 20 sec) 
Heartbeat CPU 0 instructions: 240000003 cycles: 273748319 heartbeat IPC: 0.741409 cumulative IPC: 0.731547 (Simulation time: 0 hr 14 min 53 sec) 
Heartbeat CPU 0 instructions: 250000001 cycles: 287017271 heartbeat IPC: 0.753639 cumulative IPC: 0.73262 (Simulation time: 0 hr 15 min 25 sec) 
Finished CPU 0 instructions: 200000001 cycles: 272992633 cumulative IPC: 0.73262 (Simulation time: 0 hr 15 min 25 sec) 

ChampSim completed all CPUs

Region of Interest Statistics

CPU 0 cumulative IPC: 0.73262 instructions: 200000001 cycles: 272992633
ITLB TOTAL     ACCESS:   32442894  HIT:   32336961  MISS:     105933  HIT %:    99.6735  MISS %:   0.326521   MPKI: 0.529665
ITLB LOAD TRANSLATION ACCESS:   32442894  HIT:   32336961  MISS:     105933  HIT %:    99.6735  MISS %:   0.326521   MPKI: 0.529665
ITLB PREFETCH  REQUESTED:          0  ISSUED:          0  USEFUL:          0  USELESS:          0
ITLB USEFUL LOAD PREFETCHES:          0 PREFETCH ISSUED TO LOWER LEVEL:          0  ACCURACY: -nan
ITLB TIMELY PREFETCHES:          0 LATE PREFETCHES: 0 DROPPED PREFETCHES: 0
ITLB PREFETCHES SAME FILL-ORIGIN LEVEL: 0 DIFFERENT FILL-ORIGIN LEVEL: 0
ITLB AVERAGE MISS LATENCY: 10.8441 cycles
ITLB RQ	ACCESS:   38243078	FORWARD:          0	MERGED:    5765661	TO_CACHE:   32477417

DTLB TOTAL     ACCESS:   40825038  HIT:   39026490  MISS:    1798548  HIT %:    95.5945  MISS %:     4.4055   MPKI: 8.99274
DTLB LOAD TRANSLATION ACCESS:   40825038  HIT:   39026490  MISS:    1798548  HIT %:    95.5945  MISS %:     4.4055   MPKI: 8.99274
DTLB PREFETCH  REQUESTED:          0  ISSUED:          0  USEFUL:          0  USELESS:          0
DTLB USEFUL LOAD PREFETCHES:          0 PREFETCH ISSUED TO LOWER LEVEL:          0  ACCURACY: -nan
DTLB TIMELY PREFETCHES:          0 LATE PREFETCHES: 0 DROPPED PREFETCHES: 0
DTLB PREFETCHES SAME FILL-ORIGIN LEVEL: 0 DIFFERENT FILL-ORIGIN LEVEL: 0
DTLB AVERAGE MISS LATENCY: 10.9133 cycles
DTLB RQ	ACCESS:   54806178	FORWARD:          0	MERGED:   13780241	TO_CACHE:   41025937

STLB TOTAL     ACCESS:    2079008  HIT:    1992069  MISS:      86939  HIT %:    95.8182  MISS %:    4.18175   MPKI: 0.434695
STLB LOAD TRANSLATION ACCESS:    1904481  HIT:    1817542  MISS:      86939  HIT %:     95.435  MISS %:    4.56497   MPKI: 0.434695
STLB TRANSLATION FROM L1D PREFETCHER ACCESS:     174527  HIT:     174527  MISS:          0  HIT %:        100  MISS %:          0   MPKI: 0
STLB PREFETCH  REQUESTED:          0  ISSUED:          0  USEFUL:          0  USELESS:          0
STLB USEFUL LOAD PREFETCHES:          0 PREFETCH ISSUED TO LOWER LEVEL:          0  ACCURACY: -nan
STLB TIMELY PREFETCHES:          0 LATE PREFETCHES: 0 DROPPED PREFETCHES: 0
STLB PREFETCHES SAME FILL-ORIGIN LEVEL: 0 DIFFERENT FILL-ORIGIN LEVEL: 0
STLB AVERAGE MISS LATENCY: 41.7797 cycles
STLB RQ	ACCESS:    2433057	FORWARD:          0	MERGED:     354049	TO_CACHE:    2079008

STLB Hit, L1D data hit: 0
STLB Hit, L2C data hit: 0
STLB Hit, LLC data hit: 0
STLB Hit, LLC data miss: 0
STLB STLB hints to L2: 0
L1D TOTAL     ACCESS:   54586607  HIT:   54021893  MISS:     564714  HIT %:    98.9655  MISS %:    1.03453   MPKI: 2.82357
L1D LOAD      ACCESS:   30818972  HIT:   30551491  MISS:     267481  HIT %:    99.1321  MISS %:    0.86791   MPKI: 1.3374
L1D RFO       ACCESS:   23474655  HIT:   23357603  MISS:     117052  HIT %:    99.5014  MISS %:   0.498631   MPKI: 0.58526
L1D PREFETCH  ACCESS:     292980  HIT:     112799  MISS:     180181  HIT %:    38.5006  MISS %:    61.4994   MPKI: 0.900905
AGUS PREFETCH L1 MISS: 0
L1D PREFETCH  REQUESTED:    1057199  ISSUED:    1057199  USEFUL:     136969  USELESS:      43194
L1D USEFUL LOAD PREFETCHES:     136969 PREFETCH ISSUED TO LOWER LEVEL:     392689  ACCURACY: 34.8798
L1D TIMELY PREFETCHES:     136969 LATE PREFETCHES: 26879 DROPPED PREFETCHES: 0
L1D PREFETCHES SAME FILL-ORIGIN LEVEL: 207382 DIFFERENT FILL-ORIGIN LEVEL: 185307
L1D AVERAGE MISS LATENCY: 7.15321e+06 cycles
L1D RQ	ACCESS:   49560488	FORWARD:          0	MERGED:   18566556	TO_CACHE:   30874365
L1D WQ	ACCESS:   24183739	FORWARD:     119598	MERGED:     251926	TO_CACHE:   23931813
L1D PQ	ACCESS:     528623	FORWARD:          0	MERGED:         16	TO_CACHE:     528576

L1D UNIQUE REGIONS ACCESSED: 0
L1D REGIONS CONFLICTS: 0
L1D Cross Page Prefetch Requests: 0
L1D Same Page Prefetch Requests: 651088
L1D ROI Sum of L1D PQ occupancy: 7564655
L1D PREFETCHES PUSHED FROM L2C: 0
L1I TOTAL     ACCESS:   38051830  HIT:   37419301  MISS:     632529  HIT %:    98.3377  MISS %:    1.66228   MPKI: 3.16264
L1I LOAD      ACCESS:   38051830  HIT:   37419301  MISS:     632529  HIT %:    98.3377  MISS %:    1.66228   MPKI: 3.16264
L1I PREFETCH  REQUESTED:          0  ISSUED:          0  USEFUL:          0  USELESS:          0
L1I USEFUL LOAD PREFETCHES:          0 PREFETCH ISSUED TO LOWER LEVEL:          0  ACCURACY: -nan
L1I TIMELY PREFETCHES:          0 LATE PREFETCHES: 0 DROPPED PREFETCHES: 0
L1I PREFETCHES SAME FILL-ORIGIN LEVEL: 0 DIFFERENT FILL-ORIGIN LEVEL: 0
L1I AVERAGE MISS LATENCY: 17.1025 cycles
L1I RQ	ACCESS:   60431541	FORWARD:          0	MERGED:   22188463	TO_CACHE:   38243078

BTB TOTAL     ACCESS:   29604974  HIT:   27951083  MISS:    1653891  HIT %:    94.4135  MISS %:    5.58653   MPKI: 8.26945
BTB BRANCH_DIRECT_JUMP	ACCESS:    2284365  HIT:    2283256  MISS:       1109
BTB BRANCH_INDIRECT	ACCESS:   12536315  HIT:   11991074  MISS:     545241
BTB BRANCH_CONDITIONAL	ACCESS:    7228322  HIT:    7226630  MISS:       1692
BTB BRANCH_DIRECT_CALL	ACCESS:    3327463  HIT:    3324379  MISS:       3084
BTB BRANCH_INDIRECT_CALL	ACCESS:     450518  HIT:     257027  MISS:     193491
BTB BRANCH_RETURN	ACCESS:    3777991  HIT:    2868717  MISS:     909274
BTB BRANCH_OTHER ACCESS:          0  HIT:          0  MISS:          0

L2C TOTAL     ACCESS:    1682524  HIT:     983877  MISS:     698647  HIT %:    58.4763  MISS %:    41.5237   MPKI: 3.49323
L2C LOAD      ACCESS:     873063  HIT:     653361  MISS:     219702  HIT %:    74.8355  MISS %:    25.1645   MPKI: 1.09851
L2C DATA LOAD MPKI: 0.894345
L2C INSTRUCTION LOAD MPKI: 0.204165
L2C RFO       ACCESS:     116730  HIT:       6397  MISS:     110333  HIT %:    5.48017  MISS %:    94.5198   MPKI: 0.551665
L2C PREFETCH  ACCESS:     388641  HIT:      57257  MISS:     331384  HIT %:    14.7326  MISS %:    85.2674   MPKI: 1.65692
AGUS PREFETCH L1 MISS: 0
L2C DATA PREFETCH MPKI: 1.65692
L2C INSTRUCTION PREFETCH MPKI: 0
L2C WRITEBACK ACCESS:     179729  HIT:     173440  MISS:       6289  HIT %:    96.5008  MISS %:    3.49916   MPKI: 0.031445
L2C LOAD TRANSLATION ACCESS:     124361  HIT:      93422  MISS:      30939  HIT %:    75.1216  MISS %:    24.8784   MPKI: 0.154695
L2C PREFETCH  REQUESTED:          0  ISSUED:          0  USEFUL:      33073  USELESS:     298525
L2C USEFUL LOAD PREFETCHES:      33073 PREFETCH ISSUED TO LOWER LEVEL:     335429  ACCURACY: 9.85991
L2C TIMELY PREFETCHES:      33073 LATE PREFETCHES: 4045 DROPPED PREFETCHES: 0
L2C PREFETCHES SAME FILL-ORIGIN LEVEL: 180315 DIFFERENT FILL-ORIGIN LEVEL: 0
L2C AVERAGE MISS LATENCY: 130.843 cycles
L2C RQ	ACCESS:    1114222	FORWARD:          0	MERGED:          0	TO_CACHE:    1114154
L2C WQ	ACCESS:     179729	FORWARD:         69	MERGED:          0	TO_CACHE:     179729
L2C PQ	ACCESS:     392689	FORWARD:          0	MERGED:          0	TO_CACHE:     392688

L2C Instructions Evicting Data 37479
L2C Translations Evicting Data 27853
L2C Data Evicting Data 556086
L2C Instructions Evicting Instructions 1664
L2C Translations Evicting Instructions 1960
L2C Data Evicting Instructions 37003
L2C Instructions Evicting Translations 1690
L2C Translations Evicting Translations 1126
L2C Data Evicting Translations 27497
L2C Dense regions hint from L2: 0
PSCL5 TOTAL     ACCESS:      86939  HIT:      86939  MISS:          0  HIT %:        100  MISS %:          0   MPKI: 0
PSCL5 LOAD TRANSLATION ACCESS:      86939  HIT:      86939  MISS:          0  HIT %:        100  MISS %:          0   MPKI: 0
PSCL5 PREFETCH  REQUESTED:          0  ISSUED:          0  USEFUL:          0  USELESS:          0
PSCL5 USEFUL LOAD PREFETCHES:          0 PREFETCH ISSUED TO LOWER LEVEL:          0  ACCURACY: -nan
PSCL5 TIMELY PREFETCHES:          0 LATE PREFETCHES: 0 DROPPED PREFETCHES: 0
PSCL5 PREFETCHES SAME FILL-ORIGIN LEVEL: 0 DIFFERENT FILL-ORIGIN LEVEL: 0

PSCL4 TOTAL     ACCESS:      84796  HIT:      84697  MISS:         99  HIT %:    99.8832  MISS %:   0.116751   MPKI: 0.000495
PSCL4 LOAD TRANSLATION ACCESS:      84796  HIT:      84697  MISS:         99  HIT %:    99.8832  MISS %:   0.116751   MPKI: 0.000495
PSCL4 PREFETCH  REQUESTED:          0  ISSUED:          0  USEFUL:          0  USELESS:          0
PSCL4 USEFUL LOAD PREFETCHES:          0 PREFETCH ISSUED TO LOWER LEVEL:          0  ACCURACY: -nan
PSCL4 TIMELY PREFETCHES:          0 LATE PREFETCHES: 0 DROPPED PREFETCHES: 0
PSCL4 PREFETCHES SAME FILL-ORIGIN LEVEL: 0 DIFFERENT FILL-ORIGIN LEVEL: 0

PSCL3 TOTAL     ACCESS:      86605  HIT:      86218  MISS:        387  HIT %:    99.5531  MISS %:   0.446856   MPKI: 0.001935
PSCL3 LOAD TRANSLATION ACCESS:      86605  HIT:      86218  MISS:        387  HIT %:    99.5531  MISS %:   0.446856   MPKI: 0.001935
PSCL3 PREFETCH  REQUESTED:          0  ISSUED:          0  USEFUL:          0  USELESS:          0
PSCL3 USEFUL LOAD PREFETCHES:          0 PREFETCH ISSUED TO LOWER LEVEL:          0  ACCURACY: -nan
PSCL3 TIMELY PREFETCHES:          0 LATE PREFETCHES: 0 DROPPED PREFETCHES: 0
PSCL3 PREFETCHES SAME FILL-ORIGIN LEVEL: 0 DIFFERENT FILL-ORIGIN LEVEL: 0

PSCL2 TOTAL     ACCESS:      86939  HIT:      50003  MISS:      36936  HIT %:     57.515  MISS %:     42.485   MPKI: 0.18468
PSCL2 LOAD TRANSLATION ACCESS:      86939  HIT:      50003  MISS:      36936  HIT %:     57.515  MISS %:     42.485   MPKI: 0.18468
PSCL2 PREFETCH  REQUESTED:          0  ISSUED:          0  USEFUL:          0  USELESS:          0
PSCL2 USEFUL LOAD PREFETCHES:          0 PREFETCH ISSUED TO LOWER LEVEL:          0  ACCURACY: -nan
PSCL2 TIMELY PREFETCHES:          0 LATE PREFETCHES: 0 DROPPED PREFETCHES: 0
PSCL2 PREFETCHES SAME FILL-ORIGIN LEVEL: 0 DIFFERENT FILL-ORIGIN LEVEL: 0

LLC TOTAL     ACCESS:     855183  HIT:     398082  MISS:     457101  HIT %:    46.5493  MISS %:    53.4507   MPKI: 2.2855
LLC LOAD      ACCESS:     215674  HIT:      79612  MISS:     136062  HIT %:    36.9131  MISS %:    63.0869   MPKI: 0.68031
LLC RFO       ACCESS:     110316  HIT:      53748  MISS:      56568  HIT %:    48.7219  MISS %:    51.2781   MPKI: 0.28284
LLC PREFETCH  ACCESS:     335428  HIT:      82160  MISS:     253268  HIT %:    24.4941  MISS %:    75.5059   MPKI: 1.26634
AGUS PREFETCH L1 MISS: 0
LLC WRITEBACK ACCESS:     162826  HIT:     155268  MISS:       7558  HIT %:    95.3582  MISS %:    4.64176   MPKI: 0.03779
LLC LOAD TRANSLATION ACCESS:      30939  HIT:      27294  MISS:       3645  HIT %:    88.2188  MISS %:    11.7812   MPKI: 0.018225
LLC PREFETCH  REQUESTED:          0  ISSUED:          0  USEFUL:       3982  USELESS:     252743
LLC USEFUL LOAD PREFETCHES:       3982 PREFETCH ISSUED TO LOWER LEVEL:     253268  ACCURACY: 1.57225
LLC TIMELY PREFETCHES:       3982 LATE PREFETCHES: 0 DROPPED PREFETCHES: 0
LLC PREFETCHES SAME FILL-ORIGIN LEVEL: 0 DIFFERENT FILL-ORIGIN LEVEL: 0
LLC AVERAGE MISS LATENCY: 155.279 cycles
LLC RQ	ACCESS:     356929	FORWARD:          0	MERGED:          0	TO_CACHE:     356929
LLC WQ	ACCESS:     162826	FORWARD:          1	MERGED:          0	TO_CACHE:     162826
LLC PQ	ACCESS:     335429	FORWARD:          0	MERGED:          0	TO_CACHE:     335428

LLC Dense regions hint to LLC: 0

RAW hits: 2336765
Loads Generated: 51897258
Loads sent to L1D: 49560488
Stores Generated: 24183727
Stores sent to L1D: 24183739
Major fault: 0 Minor fault: 6201
Allocated PAGES: 6201
[Bingo] PHT Access: 196170
[Bingo] PHT Hit PC+Addr: 50426
[Bingo] PHT Hit PC+Offs: 116448
[Bingo] PHT Miss: 29296
[Bingo] Prefetch PC+Addr: 0
[Bingo] Prefetch PC+Offs: 0
[Bingo] Useful PC+Addr: 0
[Bingo] Useful PC+Offs: 0
[Bingo] Useless PC+Addr: 0
[Bingo] Useless PC+Offs: 0
[Bingo] L1 Prefetch per Region: 3.07438
[Bingo] L2 Prefetch per Region: 1.13922
[Bingo] L3 Prefetch per Region: 0
[Bingo] No Prefetch per Region: 27.7864
[Bingo] Number of Voters Mean: 9.26663
[Bingo] Number of Voters SD: 7.82944
PHT read accesses: 1560598
PHT write accesses: 75981
AT read accesses: 24554556
AT write accesses: 24557256
FT read accesses: 12649788
FT write accesses: 196170
PS read accesses: 404041
PS write accesses: 166874
PHT tag read accesses: 4351504
PHT tag write accesses: 126407
AT tag read accesses: 505970474
AT tag write accesses: 24630549
FT tag read accesses: 119235525
FT tag write accesses: 6573031
PS tag read accesses: 499868728
PS tag write accesses: 570525

DRAM Statistics
 CHANNEL 0
 RQ ROW_BUFFER_HIT:     125728  ROW_BUFFER_MISS:     323755
 DBUS_CONGESTED:        363
 WQ ROW_BUFFER_HIT:       7172  ROW_BUFFER_MISS:      74356  FULL:          0

 AVG_CONGESTED_CYCLE: 5
 All warmup complete: 2
Channel 0 Bank busy for read cycles: 0
Channel 0 Bank busy for write cycles: 0
Channel 0
Rank 0
0banks busy for read cycles: 240685480
0banks busy for write cycles: 40229
1banks busy for read cycles: 9254982
1banks busy for write cycles: 5423436
2banks busy for read cycles: 5574194
2banks busy for write cycles: 1730627
3banks busy for read cycles: 6143684
3banks busy for write cycles: 528868
4banks busy for read cycles: 1250371
4banks busy for write cycles: 207138
5banks busy for read cycles: 498553
5banks busy for write cycles: 125204
6banks busy for read cycles: 321518
6banks busy for write cycles: 96385
7banks busy for read cycles: 331039
7banks busy for write cycles: 100831
8banks busy for read cycles: 535237
8banks busy for write cycles: 144858

CPU 0 Branch Prediction Accuracy: 99.7863% MPKI: 0.390065 Average ROB Occupancy at Mispredict: 18.2587
Branch types
NOT_BRANCH: 163487732 81.7439%
BRANCH_DIRECT_JUMP: 2284365 1.14218%
BRANCH_INDIRECT: 12536315 6.26816%
BRANCH_CONDITIONAL: 14135281 7.06764%
BRANCH_DIRECT_CALL: 3327463 1.66373%
BRANCH_INDIRECT_CALL: 450518 0.225259%
BRANCH_RETURN: 3777991 1.889%
BRANCH_OTHER: 0 0%

DRAM PAGES: 1048576
Allocated PAGES: 6201
