
*** ChampSim Multicore Out-of-Order Simulator ***

Warmup Instructions: 50000000
Simulation Instructions: 200000000
Number of CPUs: 1
LLC sets: 2048
LLC ways: 16
Off-chip DRAM Size: 4096 MB Channels: 1 Width: 64-bit Data Rate: 6400 MT/s
CPU 0 runs traces/spec2k17/srv_6.champsimtrace.xz
.xz
BTB has LRU replacement policy
ITLB has LRU replacement policy
DTLB has LRU replacement policy
STLB has LRU replacement policy
L1I has LRU replacement policy
Bingo PHT WAYS: 16 and PHT_SIZE: 16384
L1D has LRU replacement policy
Initialize SRRIP state for L2C
Initialize DRRIP state for LLC
Heartbeat CPU 0 instructions: 10000003 cycles: 2764624 heartbeat IPC: 3.61713 cumulative IPC: 3.61713 (Simulation time: 0 hr 0 min 23 sec) 
Heartbeat CPU 0 instructions: 20000002 cycles: 5525667 heartbeat IPC: 3.62182 cumulative IPC: 3.61947 (Simulation time: 0 hr 0 min 45 sec) 
Heartbeat CPU 0 instructions: 30000001 cycles: 8286595 heartbeat IPC: 3.62197 cumulative IPC: 3.62031 (Simulation time: 0 hr 1 min 7 sec) 
*** Reached end of trace for Core: 0 Repeating trace: traces/spec2k17/srv_6.champsimtrace.xz
Heartbeat CPU 0 instructions: 40000002 cycles: 11044792 heartbeat IPC: 3.62556 cumulative IPC: 3.62162 (Simulation time: 0 hr 1 min 29 sec) 
Heartbeat CPU 0 instructions: 50000003 cycles: 13807263 heartbeat IPC: 3.61995 cumulative IPC: 3.62128 (Simulation time: 0 hr 1 min 52 sec) 

Warmup complete CPU 0 instructions: 50000003 cycles: 13807263 (Simulation time: 0 hr 1 min 52 sec) 

Heartbeat CPU 0 instructions: 60000000 cycles: 34833539 heartbeat IPC: 0.475595 cumulative IPC: 0.475595 (Simulation time: 0 hr 2 min 25 sec) 
*** Reached end of trace for Core: 0 Repeating trace: traces/spec2k17/srv_6.champsimtrace.xz
Heartbeat CPU 0 instructions: 70000000 cycles: 55795712 heartbeat IPC: 0.47705 cumulative IPC: 0.476321 (Simulation time: 0 hr 3 min 0 sec) 
Heartbeat CPU 0 instructions: 80000001 cycles: 76911061 heartbeat IPC: 0.473589 cumulative IPC: 0.475407 (Simulation time: 0 hr 3 min 34 sec) 
Heartbeat CPU 0 instructions: 90000000 cycles: 97516909 heartbeat IPC: 0.485299 cumulative IPC: 0.477842 (Simulation time: 0 hr 4 min 9 sec) 
*** Reached end of trace for Core: 0 Repeating trace: traces/spec2k17/srv_6.champsimtrace.xz
Heartbeat CPU 0 instructions: 100000003 cycles: 118866255 heartbeat IPC: 0.468399 cumulative IPC: 0.475923 (Simulation time: 0 hr 4 min 43 sec) 
Heartbeat CPU 0 instructions: 110000000 cycles: 139868319 heartbeat IPC: 0.476144 cumulative IPC: 0.47596 (Simulation time: 0 hr 5 min 18 sec) 
Heartbeat CPU 0 instructions: 120000002 cycles: 160740058 heartbeat IPC: 0.479117 cumulative IPC: 0.476408 (Simulation time: 0 hr 5 min 52 sec) 
*** Reached end of trace for Core: 0 Repeating trace: traces/spec2k17/srv_6.champsimtrace.xz
Heartbeat CPU 0 instructions: 130000001 cycles: 181898012 heartbeat IPC: 0.472635 cumulative IPC: 0.475933 (Simulation time: 0 hr 6 min 27 sec) 
Heartbeat CPU 0 instructions: 140000003 cycles: 202907626 heartbeat IPC: 0.475973 cumulative IPC: 0.475938 (Simulation time: 0 hr 7 min 2 sec) 
Heartbeat CPU 0 instructions: 150000000 cycles: 223736396 heartbeat IPC: 0.480105 cumulative IPC: 0.476351 (Simulation time: 0 hr 7 min 36 sec) 
*** Reached end of trace for Core: 0 Repeating trace: traces/spec2k17/srv_6.champsimtrace.xz
Heartbeat CPU 0 instructions: 160000000 cycles: 244920293 heartbeat IPC: 0.472057 cumulative IPC: 0.475958 (Simulation time: 0 hr 8 min 10 sec) 
Heartbeat CPU 0 instructions: 170000000 cycles: 265603904 heartbeat IPC: 0.483475 cumulative IPC: 0.476575 (Simulation time: 0 hr 8 min 44 sec) 
Heartbeat CPU 0 instructions: 180000000 cycles: 286781264 heartbeat IPC: 0.472202 cumulative IPC: 0.476236 (Simulation time: 0 hr 9 min 19 sec) 
*** Reached end of trace for Core: 0 Repeating trace: traces/spec2k17/srv_6.champsimtrace.xz
Heartbeat CPU 0 instructions: 190000002 cycles: 307847557 heartbeat IPC: 0.474692 cumulative IPC: 0.476125 (Simulation time: 0 hr 9 min 54 sec) 
Heartbeat CPU 0 instructions: 200000000 cycles: 328606525 heartbeat IPC: 0.481719 cumulative IPC: 0.476494 (Simulation time: 0 hr 10 min 30 sec) 
Heartbeat CPU 0 instructions: 210000000 cycles: 349633970 heartbeat IPC: 0.475569 cumulative IPC: 0.476436 (Simulation time: 0 hr 11 min 4 sec) 
*** Reached end of trace for Core: 0 Repeating trace: traces/spec2k17/srv_6.champsimtrace.xz
Heartbeat CPU 0 instructions: 220000000 cycles: 370838445 heartbeat IPC: 0.471599 cumulative IPC: 0.476149 (Simulation time: 0 hr 11 min 37 sec) 
Heartbeat CPU 0 instructions: 230000002 cycles: 391488101 heartbeat IPC: 0.48427 cumulative IPC: 0.476593 (Simulation time: 0 hr 12 min 9 sec) 
Heartbeat CPU 0 instructions: 240000000 cycles: 412631786 heartbeat IPC: 0.472954 cumulative IPC: 0.4764 (Simulation time: 0 hr 12 min 42 sec) 
*** Reached end of trace for Core: 0 Repeating trace: traces/spec2k17/srv_6.champsimtrace.xz
Heartbeat CPU 0 instructions: 250000000 cycles: 433626245 heartbeat IPC: 0.476316 cumulative IPC: 0.476396 (Simulation time: 0 hr 13 min 14 sec) 
Finished CPU 0 instructions: 200000001 cycles: 419819041 cumulative IPC: 0.476396 (Simulation time: 0 hr 13 min 14 sec) 

ChampSim completed all CPUs

Region of Interest Statistics

CPU 0 cumulative IPC: 0.476396 instructions: 200000001 cycles: 419819041
ITLB TOTAL     ACCESS:   31248809  HIT:   30459002  MISS:     789807  HIT %:    97.4725  MISS %:    2.52748   MPKI: 3.94903
ITLB LOAD TRANSLATION ACCESS:   31248809  HIT:   30459002  MISS:     789807  HIT %:    97.4725  MISS %:    2.52748   MPKI: 3.94903
ITLB PREFETCH  REQUESTED:          0  ISSUED:          0  USEFUL:          0  USELESS:          0
ITLB USEFUL LOAD PREFETCHES:          0 PREFETCH ISSUED TO LOWER LEVEL:          0  ACCURACY: -nan
ITLB TIMELY PREFETCHES:          0 LATE PREFETCHES: 0 DROPPED PREFETCHES: 0
ITLB PREFETCHES SAME FILL-ORIGIN LEVEL: 0 DIFFERENT FILL-ORIGIN LEVEL: 0
ITLB AVERAGE MISS LATENCY: 13.991 cycles
ITLB RQ	ACCESS:   38231664	FORWARD:          0	MERGED:    6790363	TO_CACHE:   31441301

DTLB TOTAL     ACCESS:   37335859  HIT:   34760867  MISS:    2574992  HIT %:    93.1032  MISS %:    6.89683   MPKI: 12.875
DTLB LOAD TRANSLATION ACCESS:   37335859  HIT:   34760867  MISS:    2574992  HIT %:    93.1032  MISS %:    6.89683   MPKI: 12.875
DTLB PREFETCH  REQUESTED:          0  ISSUED:          0  USEFUL:          0  USELESS:          0
DTLB USEFUL LOAD PREFETCHES:          0 PREFETCH ISSUED TO LOWER LEVEL:          0  ACCURACY: -nan
DTLB TIMELY PREFETCHES:          0 LATE PREFETCHES: 0 DROPPED PREFETCHES: 0
DTLB PREFETCHES SAME FILL-ORIGIN LEVEL: 0 DIFFERENT FILL-ORIGIN LEVEL: 0
DTLB AVERAGE MISS LATENCY: 13.7143 cycles
DTLB RQ	ACCESS:   47736395	FORWARD:          0	MERGED:   10252552	TO_CACHE:   37483843

STLB TOTAL     ACCESS:    4060947  HIT:    3716795  MISS:     344152  HIT %:    91.5253  MISS %:    8.47467   MPKI: 1.72076
STLB LOAD TRANSLATION ACCESS:    3364799  HIT:    3020647  MISS:     344152  HIT %:     89.772  MISS %:     10.228   MPKI: 1.72076
STLB TRANSLATION FROM L1D PREFETCHER ACCESS:     696148  HIT:     696148  MISS:          0  HIT %:        100  MISS %:          0   MPKI: 0
STLB PREFETCH  REQUESTED:          0  ISSUED:          0  USEFUL:          0  USELESS:          0
STLB USEFUL LOAD PREFETCHES:          0 PREFETCH ISSUED TO LOWER LEVEL:          0  ACCURACY: -nan
STLB TIMELY PREFETCHES:          0 LATE PREFETCHES: 0 DROPPED PREFETCHES: 0
STLB PREFETCHES SAME FILL-ORIGIN LEVEL: 0 DIFFERENT FILL-ORIGIN LEVEL: 0
STLB AVERAGE MISS LATENCY: 46.472 cycles
STLB RQ	ACCESS:    5530047	FORWARD:          0	MERGED:    1469100	TO_CACHE:    4060947

STLB Hit, L1D data hit: 0
STLB Hit, L2C data hit: 0
STLB Hit, LLC data hit: 0
STLB Hit, LLC data miss: 0
STLB STLB hints to L2: 0
L1D TOTAL     ACCESS:   49391954  HIT:   46537320  MISS:    2854634  HIT %:    94.2204  MISS %:    5.77955   MPKI: 14.2732
L1D LOAD      ACCESS:   27693068  HIT:   26533082  MISS:    1159986  HIT %:    95.8113  MISS %:    4.18872   MPKI: 5.79993
L1D RFO       ACCESS:   19795450  HIT:   19599365  MISS:     196085  HIT %:    99.0094  MISS %:   0.990556   MPKI: 0.980425
L1D PREFETCH  ACCESS:    1903436  HIT:     404873  MISS:    1498563  HIT %:    21.2706  MISS %:    78.7294   MPKI: 7.49281
AGUS PREFETCH L1 MISS: 0
L1D PREFETCH  REQUESTED:    4331020  ISSUED:    4331020  USEFUL:    1168505  USELESS:     330032
L1D USEFUL LOAD PREFETCHES:    1168505 PREFETCH ISSUED TO LOWER LEVEL:    1668922  ACCURACY: 70.0156
L1D TIMELY PREFETCHES:    1168505 LATE PREFETCHES: 26072 DROPPED PREFETCHES: 0
L1D PREFETCHES SAME FILL-ORIGIN LEVEL: 1530232 DIFFERENT FILL-ORIGIN LEVEL: 138690
L1D AVERAGE MISS LATENCY: 2.48495e+06 cycles
L1D RQ	ACCESS:   42297345	FORWARD:          0	MERGED:   14285146	TO_CACHE:   27739409
L1D WQ	ACCESS:   20260083	FORWARD:     273305	MERGED:     263097	TO_CACHE:   19996986
L1D PQ	ACCESS:    2165772	FORWARD:          0	MERGED:          9	TO_CACHE:    2165248

L1D UNIQUE REGIONS ACCESSED: 0
L1D REGIONS CONFLICTS: 0
L1D Cross Page Prefetch Requests: 0
L1D Same Page Prefetch Requests: 2652142
L1D ROI Sum of L1D PQ occupancy: 30931669
L1D PREFETCHES PUSHED FROM L2C: 0
L1I TOTAL     ACCESS:   36462461  HIT:   31447207  MISS:    5015254  HIT %:    86.2454  MISS %:    13.7546   MPKI: 25.0763
L1I LOAD      ACCESS:   36462461  HIT:   31447207  MISS:    5015254  HIT %:    86.2454  MISS %:    13.7546   MPKI: 25.0763
L1I PREFETCH  REQUESTED:          0  ISSUED:          0  USEFUL:          0  USELESS:          0
L1I USEFUL LOAD PREFETCHES:          0 PREFETCH ISSUED TO LOWER LEVEL:          0  ACCURACY: -nan
L1I TIMELY PREFETCHES:          0 LATE PREFETCHES: 0 DROPPED PREFETCHES: 0
L1I PREFETCHES SAME FILL-ORIGIN LEVEL: 0 DIFFERENT FILL-ORIGIN LEVEL: 0
L1I AVERAGE MISS LATENCY: 25.4796 cycles
L1I RQ	ACCESS:   57069494	FORWARD:          0	MERGED:   18837830	TO_CACHE:   38231664

BTB TOTAL     ACCESS:   21970787  HIT:   17815516  MISS:    4155271  HIT %:    81.0873  MISS %:    18.9127   MPKI: 20.7764
BTB BRANCH_DIRECT_JUMP	ACCESS:    1710627  HIT:    1467386  MISS:     243241
BTB BRANCH_INDIRECT	ACCESS:    9437219  HIT:    7430900  MISS:    2006319
BTB BRANCH_CONDITIONAL	ACCESS:    4508285  HIT:    4128634  MISS:     379651
BTB BRANCH_DIRECT_CALL	ACCESS:    2475370  HIT:    2029087  MISS:     446283
BTB BRANCH_INDIRECT_CALL	ACCESS:     681721  HIT:     642211  MISS:      39510
BTB BRANCH_RETURN	ACCESS:    3157565  HIT:    2117298  MISS:    1040267
BTB BRANCH_OTHER ACCESS:          0  HIT:          0  MISS:          0

L2C TOTAL     ACCESS:    9497499  HIT:    6256926  MISS:    3240573  HIT %:    65.8797  MISS %:    34.1203   MPKI: 16.2029
L2C LOAD      ACCESS:    6149157  HIT:    3920211  MISS:    2228946  HIT %:     63.752  MISS %:     36.248   MPKI: 11.1447
L2C DATA LOAD MPKI: 2.2039
L2C INSTRUCTION LOAD MPKI: 8.94082
L2C RFO       ACCESS:     190486  HIT:     116130  MISS:      74356  HIT %:    60.9651  MISS %:    39.0349   MPKI: 0.37178
L2C PREFETCH  ACCESS:    1668110  HIT:     964398  MISS:     703712  HIT %:    57.8138  MISS %:    42.1862   MPKI: 3.51856
AGUS PREFETCH L1 MISS: 0
L2C DATA PREFETCH MPKI: 3.51856
L2C INSTRUCTION PREFETCH MPKI: 0
L2C WRITEBACK ACCESS:    1029655  HIT:     979061  MISS:      50594  HIT %:    95.0863  MISS %:    4.91368   MPKI: 0.25297
L2C LOAD TRANSLATION ACCESS:     460091  HIT:     277126  MISS:     182965  HIT %:    60.2329  MISS %:    39.7671   MPKI: 0.914825
L2C PREFETCH  REQUESTED:          0  ISSUED:          0  USEFUL:      70230  USELESS:     633490
L2C USEFUL LOAD PREFETCHES:      70230 PREFETCH ISSUED TO LOWER LEVEL:     704481  ACCURACY: 9.96904
L2C TIMELY PREFETCHES:      70230 LATE PREFETCHES: 769 DROPPED PREFETCHES: 0
L2C PREFETCHES SAME FILL-ORIGIN LEVEL: 65490 DIFFERENT FILL-ORIGIN LEVEL: 0
L2C AVERAGE MISS LATENCY: 46.3255 cycles
L2C RQ	ACCESS:    6799747	FORWARD:          0	MERGED:          0	TO_CACHE:    6799735
L2C WQ	ACCESS:    1029656	FORWARD:         55	MERGED:          0	TO_CACHE:    1029656
L2C PQ	ACCESS:    1668922	FORWARD:          0	MERGED:          0	TO_CACHE:    1668879

L2C Instructions Evicting Data 691596
L2C Translations Evicting Data 71839
L2C Data Evicting Data 486065
L2C Instructions Evicting Instructions 995827
L2C Translations Evicting Instructions 101729
L2C Data Evicting Instructions 662410
L2C Instructions Evicting Translations 100742
L2C Translations Evicting Translations 9397
L2C Data Evicting Translations 70374
L2C Dense regions hint from L2: 0
PSCL5 TOTAL     ACCESS:     344152  HIT:     344152  MISS:          0  HIT %:        100  MISS %:          0   MPKI: 0
PSCL5 LOAD TRANSLATION ACCESS:     344152  HIT:     344152  MISS:          0  HIT %:        100  MISS %:          0   MPKI: 0
PSCL5 PREFETCH  REQUESTED:          0  ISSUED:          0  USEFUL:          0  USELESS:          0
PSCL5 USEFUL LOAD PREFETCHES:          0 PREFETCH ISSUED TO LOWER LEVEL:          0  ACCURACY: -nan
PSCL5 TIMELY PREFETCHES:          0 LATE PREFETCHES: 0 DROPPED PREFETCHES: 0
PSCL5 PREFETCHES SAME FILL-ORIGIN LEVEL: 0 DIFFERENT FILL-ORIGIN LEVEL: 0

PSCL4 TOTAL     ACCESS:     335502  HIT:     334302  MISS:       1200  HIT %:    99.6423  MISS %:   0.357673   MPKI: 0.006
PSCL4 LOAD TRANSLATION ACCESS:     335502  HIT:     334302  MISS:       1200  HIT %:    99.6423  MISS %:   0.357673   MPKI: 0.006
PSCL4 PREFETCH  REQUESTED:          0  ISSUED:          0  USEFUL:          0  USELESS:          0
PSCL4 USEFUL LOAD PREFETCHES:          0 PREFETCH ISSUED TO LOWER LEVEL:          0  ACCURACY: -nan
PSCL4 TIMELY PREFETCHES:          0 LATE PREFETCHES: 0 DROPPED PREFETCHES: 0
PSCL4 PREFETCHES SAME FILL-ORIGIN LEVEL: 0 DIFFERENT FILL-ORIGIN LEVEL: 0

PSCL3 TOTAL     ACCESS:     342536  HIT:     341336  MISS:       1200  HIT %:    99.6497  MISS %:   0.350328   MPKI: 0.006
PSCL3 LOAD TRANSLATION ACCESS:     342536  HIT:     341336  MISS:       1200  HIT %:    99.6497  MISS %:   0.350328   MPKI: 0.006
PSCL3 PREFETCH  REQUESTED:          0  ISSUED:          0  USEFUL:          0  USELESS:          0
PSCL3 USEFUL LOAD PREFETCHES:          0 PREFETCH ISSUED TO LOWER LEVEL:          0  ACCURACY: -nan
PSCL3 TIMELY PREFETCHES:          0 LATE PREFETCHES: 0 DROPPED PREFETCHES: 0
PSCL3 PREFETCHES SAME FILL-ORIGIN LEVEL: 0 DIFFERENT FILL-ORIGIN LEVEL: 0

PSCL2 TOTAL     ACCESS:     344152  HIT:     230613  MISS:     113539  HIT %:    67.0091  MISS %:    32.9909   MPKI: 0.567695
PSCL2 LOAD TRANSLATION ACCESS:     344152  HIT:     230613  MISS:     113539  HIT %:    67.0091  MISS %:    32.9909   MPKI: 0.567695
PSCL2 PREFETCH  REQUESTED:          0  ISSUED:          0  USEFUL:          0  USELESS:          0
PSCL2 USEFUL LOAD PREFETCHES:          0 PREFETCH ISSUED TO LOWER LEVEL:          0  ACCURACY: -nan
PSCL2 TIMELY PREFETCHES:          0 LATE PREFETCHES: 0 DROPPED PREFETCHES: 0
PSCL2 PREFETCHES SAME FILL-ORIGIN LEVEL: 0 DIFFERENT FILL-ORIGIN LEVEL: 0

LLC TOTAL     ACCESS:    3622582  HIT:    3286867  MISS:     335715  HIT %:    90.7327  MISS %:    9.26729   MPKI: 1.67857
LLC LOAD      ACCESS:    2228400  HIT:    2151470  MISS:      76930  HIT %:    96.5477  MISS %:    3.45225   MPKI: 0.38465
LLC RFO       ACCESS:      74131  HIT:      56160  MISS:      17971  HIT %:    75.7578  MISS %:    24.2422   MPKI: 0.089855
LLC PREFETCH  ACCESS:     704480  HIT:     477857  MISS:     226623  HIT %:    67.8312  MISS %:    32.1688   MPKI: 1.13311
AGUS PREFETCH L1 MISS: 0
LLC WRITEBACK ACCESS:     432606  HIT:     430861  MISS:       1745  HIT %:    99.5966  MISS %:   0.403369   MPKI: 0.008725
LLC LOAD TRANSLATION ACCESS:     182965  HIT:     170519  MISS:      12446  HIT %:    93.1976  MISS %:    6.80239   MPKI: 0.06223
LLC PREFETCH  REQUESTED:          0  ISSUED:          0  USEFUL:       3990  USELESS:     223046
LLC USEFUL LOAD PREFETCHES:       3990 PREFETCH ISSUED TO LOWER LEVEL:     226623  ACCURACY: 1.76063
LLC TIMELY PREFETCHES:       3990 LATE PREFETCHES: 0 DROPPED PREFETCHES: 0
LLC PREFETCHES SAME FILL-ORIGIN LEVEL: 0 DIFFERENT FILL-ORIGIN LEVEL: 0
LLC AVERAGE MISS LATENCY: 162.369 cycles
LLC RQ	ACCESS:    2485499	FORWARD:          0	MERGED:          0	TO_CACHE:    2485497
LLC WQ	ACCESS:     432605	FORWARD:          3	MERGED:          0	TO_CACHE:     432605
LLC PQ	ACCESS:     704481	FORWARD:          0	MERGED:          0	TO_CACHE:     704480

LLC Dense regions hint to LLC: 0

RAW hits: 2571401
Loads Generated: 44868747
Loads sent to L1D: 42297345
Stores Generated: 20260072
Stores sent to L1D: 20260083
Major fault: 0 Minor fault: 6173
Allocated PAGES: 6173
[Bingo] PHT Access: 1216446
[Bingo] PHT Hit PC+Addr: 597592
[Bingo] PHT Hit PC+Offs: 70526
[Bingo] PHT Miss: 548328
[Bingo] Prefetch PC+Addr: 0
[Bingo] Prefetch PC+Offs: 0
[Bingo] Useful PC+Addr: 0
[Bingo] Useful PC+Offs: 0
[Bingo] Useless PC+Addr: 0
[Bingo] Useless PC+Offs: 0
[Bingo] L1 Prefetch per Region: 4.04226
[Bingo] L2 Prefetch per Region: 0.22606
[Bingo] L3 Prefetch per Region: 0
[Bingo] No Prefetch per Region: 27.7317
[Bingo] Number of Voters Mean: 3.63022
[Bingo] Number of Voters SD: 4.33506
PHT read accesses: 9505422
PHT write accesses: 482834
AT read accesses: 21111716
AT write accesses: 21123819
FT read accesses: 13311229
FT write accesses: 1216446
PS read accesses: 1387115
PS write accesses: 668118
PHT tag read accesses: 19779873
PHT tag write accesses: 1080426
AT tag read accesses: 508144439
AT tag write accesses: 21594554
FT tag read accesses: 209257468
FT tag write accesses: 8162854
PS tag read accesses: 466461849
PS tag write accesses: 2052796

DRAM Statistics
 CHANNEL 0
 RQ ROW_BUFFER_HIT:     112159  ROW_BUFFER_MISS:     221811
 DBUS_CONGESTED:        226
 WQ ROW_BUFFER_HIT:      34564  ROW_BUFFER_MISS:     181173  FULL:          0

 AVG_CONGESTED_CYCLE: 4
 All warmup complete: 2
Channel 0 Bank busy for read cycles: 0
Channel 0 Bank busy for write cycles: 0
Channel 0
Rank 0
0banks busy for read cycles: 391565242
0banks busy for write cycles: 38719
1banks busy for read cycles: 8633141
1banks busy for write cycles: 4277524
2banks busy for read cycles: 2269349
2banks busy for write cycles: 2191802
3banks busy for read cycles: 1137575
3banks busy for write cycles: 1527712
4banks busy for read cycles: 730771
4banks busy for write cycles: 1172215
5banks busy for read cycles: 546067
5banks busy for write cycles: 982693
6banks busy for read cycles: 471512
6banks busy for write cycles: 861523
7banks busy for read cycles: 588225
7banks busy for write cycles: 794514
8banks busy for read cycles: 1212190
8banks busy for write cycles: 818268

CPU 0 Branch Prediction Accuracy: 99.8427% MPKI: 0.281055 Average ROB Occupancy at Mispredict: 38.7478
Branch types
NOT_BRANCH: 164271172 82.1356%
BRANCH_DIRECT_JUMP: 1710627 0.855313%
BRANCH_INDIRECT: 9437219 4.71861%
BRANCH_CONDITIONAL: 18266187 9.13309%
BRANCH_DIRECT_CALL: 2475370 1.23768%
BRANCH_INDIRECT_CALL: 681721 0.34086%
BRANCH_RETURN: 3157565 1.57878%
BRANCH_OTHER: 0 0%

DRAM PAGES: 1048576
Allocated PAGES: 6173
