
*** ChampSim Multicore Out-of-Order Simulator ***

Warmup Instructions: 50000000
Simulation Instructions: 200000000
Number of CPUs: 1
LLC sets: 2048
LLC ways: 16
Off-chip DRAM Size: 4096 MB Channels: 1 Width: 64-bit Data Rate: 6400 MT/s
CPU 0 runs traces/spec2k17/srv_59.champsimtrace.xz
.xz
BTB has LRU replacement policy
ITLB has LRU replacement policy
DTLB has LRU replacement policy
STLB has LRU replacement policy
L1I has LRU replacement policy
Bingo PHT WAYS: 16 and PHT_SIZE: 16384
L1D has LRU replacement policy
Initialize SRRIP state for L2C
Initialize DRRIP state for LLC
Heartbeat CPU 0 instructions: 10000001 cycles: 2963580 heartbeat IPC: 3.3743 cumulative IPC: 3.3743 (Simulation time: 0 hr 0 min 28 sec) 
Heartbeat CPU 0 instructions: 20000003 cycles: 5794801 heartbeat IPC: 3.53205 cumulative IPC: 3.45137 (Simulation time: 0 hr 0 min 54 sec) 
Heartbeat CPU 0 instructions: 30000002 cycles: 8583406 heartbeat IPC: 3.58602 cumulative IPC: 3.49512 (Simulation time: 0 hr 1 min 19 sec) 
*** Reached end of trace for Core: 0 Repeating trace: traces/spec2k17/srv_59.champsimtrace.xz
Heartbeat CPU 0 instructions: 40000000 cycles: 11523077 heartbeat IPC: 3.40174 cumulative IPC: 3.4713 (Simulation time: 0 hr 1 min 47 sec) 
Heartbeat CPU 0 instructions: 50000002 cycles: 14381912 heartbeat IPC: 3.49793 cumulative IPC: 3.47659 (Simulation time: 0 hr 2 min 12 sec) 

Warmup complete CPU 0 instructions: 50000002 cycles: 14381912 (Simulation time: 0 hr 2 min 12 sec) 

Heartbeat CPU 0 instructions: 60000001 cycles: 33034730 heartbeat IPC: 0.536112 cumulative IPC: 0.536112 (Simulation time: 0 hr 2 min 45 sec) 
*** Reached end of trace for Core: 0 Repeating trace: traces/spec2k17/srv_59.champsimtrace.xz
Heartbeat CPU 0 instructions: 70000002 cycles: 46812974 heartbeat IPC: 0.725782 cumulative IPC: 0.616693 (Simulation time: 0 hr 3 min 18 sec) 
Heartbeat CPU 0 instructions: 80000001 cycles: 62595847 heartbeat IPC: 0.633598 cumulative IPC: 0.622227 (Simulation time: 0 hr 3 min 52 sec) 
Heartbeat CPU 0 instructions: 90000000 cycles: 81009082 heartbeat IPC: 0.543088 cumulative IPC: 0.600356 (Simulation time: 0 hr 4 min 24 sec) 
*** Reached end of trace for Core: 0 Repeating trace: traces/spec2k17/srv_59.champsimtrace.xz
Heartbeat CPU 0 instructions: 100000001 cycles: 95873039 heartbeat IPC: 0.672768 cumulative IPC: 0.613564 (Simulation time: 0 hr 4 min 58 sec) 
Heartbeat CPU 0 instructions: 110000000 cycles: 110635665 heartbeat IPC: 0.677386 cumulative IPC: 0.623352 (Simulation time: 0 hr 5 min 32 sec) 
Heartbeat CPU 0 instructions: 120000000 cycles: 129272839 heartbeat IPC: 0.536562 cumulative IPC: 0.609273 (Simulation time: 0 hr 6 min 4 sec) 
*** Reached end of trace for Core: 0 Repeating trace: traces/spec2k17/srv_59.champsimtrace.xz
Heartbeat CPU 0 instructions: 130000001 cycles: 144919730 heartbeat IPC: 0.639105 cumulative IPC: 0.612849 (Simulation time: 0 hr 6 min 38 sec) 
Heartbeat CPU 0 instructions: 140000003 cycles: 158827198 heartbeat IPC: 0.719038 cumulative IPC: 0.623073 (Simulation time: 0 hr 7 min 15 sec) 
Heartbeat CPU 0 instructions: 150000003 cycles: 177273561 heartbeat IPC: 0.542112 cumulative IPC: 0.613905 (Simulation time: 0 hr 8 min 7 sec) 
*** Reached end of trace for Core: 0 Repeating trace: traces/spec2k17/srv_59.champsimtrace.xz
Heartbeat CPU 0 instructions: 160000000 cycles: 193961546 heartbeat IPC: 0.599233 cumulative IPC: 0.612542 (Simulation time: 0 hr 8 min 51 sec) 
Heartbeat CPU 0 instructions: 170000000 cycles: 206779653 heartbeat IPC: 0.780146 cumulative IPC: 0.623708 (Simulation time: 0 hr 9 min 25 sec) 
Heartbeat CPU 0 instructions: 180000000 cycles: 225372264 heartbeat IPC: 0.537848 cumulative IPC: 0.616142 (Simulation time: 0 hr 9 min 59 sec) 
*** Reached end of trace for Core: 0 Repeating trace: traces/spec2k17/srv_59.champsimtrace.xz
Heartbeat CPU 0 instructions: 190000000 cycles: 242999227 heartbeat IPC: 0.567313 cumulative IPC: 0.612377 (Simulation time: 0 hr 10 min 33 sec) 
Heartbeat CPU 0 instructions: 200000000 cycles: 254804551 heartbeat IPC: 0.847075 cumulative IPC: 0.623901 (Simulation time: 0 hr 11 min 8 sec) 
Heartbeat CPU 0 instructions: 210000002 cycles: 273430115 heartbeat IPC: 0.536897 cumulative IPC: 0.617646 (Simulation time: 0 hr 11 min 40 sec) 
*** Reached end of trace for Core: 0 Repeating trace: traces/spec2k17/srv_59.champsimtrace.xz
Heartbeat CPU 0 instructions: 220000000 cycles: 291864723 heartbeat IPC: 0.542458 cumulative IPC: 0.612651 (Simulation time: 0 hr 12 min 25 sec) 
Heartbeat CPU 0 instructions: 230000003 cycles: 302939893 heartbeat IPC: 0.902921 cumulative IPC: 0.623791 (Simulation time: 0 hr 13 min 19 sec) 
Heartbeat CPU 0 instructions: 240000000 cycles: 321439778 heartbeat IPC: 0.540544 cumulative IPC: 0.618776 (Simulation time: 0 hr 14 min 1 sec) 
*** Reached end of trace for Core: 0 Repeating trace: traces/spec2k17/srv_59.champsimtrace.xz
Heartbeat CPU 0 instructions: 250000001 cycles: 339818218 heartbeat IPC: 0.544116 cumulative IPC: 0.61456 (Simulation time: 0 hr 14 min 34 sec) 
Finished CPU 0 instructions: 200000001 cycles: 325436307 cumulative IPC: 0.61456 (Simulation time: 0 hr 14 min 34 sec) 

ChampSim completed all CPUs

Region of Interest Statistics

CPU 0 cumulative IPC: 0.61456 instructions: 200000001 cycles: 325436307
ITLB TOTAL     ACCESS:   36235552  HIT:   35634134  MISS:     601418  HIT %:    98.3403  MISS %:    1.65975   MPKI: 3.00709
ITLB LOAD TRANSLATION ACCESS:   36235552  HIT:   35634134  MISS:     601418  HIT %:    98.3403  MISS %:    1.65975   MPKI: 3.00709
ITLB PREFETCH  REQUESTED:          0  ISSUED:          0  USEFUL:          0  USELESS:          0
ITLB USEFUL LOAD PREFETCHES:          0 PREFETCH ISSUED TO LOWER LEVEL:          0  ACCURACY: -nan
ITLB TIMELY PREFETCHES:          0 LATE PREFETCHES: 0 DROPPED PREFETCHES: 0
ITLB PREFETCHES SAME FILL-ORIGIN LEVEL: 0 DIFFERENT FILL-ORIGIN LEVEL: 0
ITLB AVERAGE MISS LATENCY: 9.02625 cycles
ITLB RQ	ACCESS:   40783905	FORWARD:          0	MERGED:    4357731	TO_CACHE:   36426174

DTLB TOTAL     ACCESS:   42675359  HIT:   41969564  MISS:     705795  HIT %:    98.3461  MISS %:    1.65387   MPKI: 3.52897
DTLB LOAD TRANSLATION ACCESS:   42675359  HIT:   41969564  MISS:     705795  HIT %:    98.3461  MISS %:    1.65387   MPKI: 3.52897
DTLB PREFETCH  REQUESTED:          0  ISSUED:          0  USEFUL:          0  USELESS:          0
DTLB USEFUL LOAD PREFETCHES:          0 PREFETCH ISSUED TO LOWER LEVEL:          0  ACCURACY: -nan
DTLB TIMELY PREFETCHES:          0 LATE PREFETCHES: 0 DROPPED PREFETCHES: 0
DTLB PREFETCHES SAME FILL-ORIGIN LEVEL: 0 DIFFERENT FILL-ORIGIN LEVEL: 0
DTLB AVERAGE MISS LATENCY: 9.05629 cycles
DTLB RQ	ACCESS:   58440807	FORWARD:          0	MERGED:   15735022	TO_CACHE:   42705785

STLB TOTAL     ACCESS:    1691486  HIT:    1690758  MISS:        728  HIT %:     99.957  MISS %:  0.0430391   MPKI: 0.00364
STLB LOAD TRANSLATION ACCESS:    1307213  HIT:    1306485  MISS:        728  HIT %:    99.9443  MISS %:   0.055691   MPKI: 0.00364
STLB TRANSLATION FROM L1D PREFETCHER ACCESS:     384273  HIT:     384273  MISS:          0  HIT %:        100  MISS %:          0   MPKI: 0
STLB PREFETCH  REQUESTED:          0  ISSUED:          0  USEFUL:          0  USELESS:          0
STLB USEFUL LOAD PREFETCHES:          0 PREFETCH ISSUED TO LOWER LEVEL:          0  ACCURACY: -nan
STLB TIMELY PREFETCHES:          0 LATE PREFETCHES: 0 DROPPED PREFETCHES: 0
STLB PREFETCHES SAME FILL-ORIGIN LEVEL: 0 DIFFERENT FILL-ORIGIN LEVEL: 0
STLB AVERAGE MISS LATENCY: 67.1923 cycles
STLB RQ	ACCESS:    3153434	FORWARD:          0	MERGED:    1461948	TO_CACHE:    1691486

STLB Hit, L1D data hit: 0
STLB Hit, L2C data hit: 0
STLB Hit, LLC data hit: 0
STLB Hit, LLC data miss: 0
STLB STLB hints to L2: 0
L1D TOTAL     ACCESS:   60028308  HIT:   58676399  MISS:    1351909  HIT %:    97.7479  MISS %:    2.25212   MPKI: 6.75954
L1D LOAD      ACCESS:   37372195  HIT:   37029982  MISS:     342213  HIT %:    99.0843  MISS %:   0.915689   MPKI: 1.71106
L1D RFO       ACCESS:   20868231  HIT:   20702419  MISS:     165812  HIT %:    99.2054  MISS %:   0.794567   MPKI: 0.82906
L1D PREFETCH  ACCESS:    1787882  HIT:     943998  MISS:     843884  HIT %:    52.7998  MISS %:    47.2002   MPKI: 4.21942
AGUS PREFETCH L1 MISS: 0
L1D PREFETCH  REQUESTED:    3692841  ISSUED:    3692841  USEFUL:     647347  USELESS:     196483
L1D USEFUL LOAD PREFETCHES:     647347 PREFETCH ISSUED TO LOWER LEVEL:     878422  ACCURACY: 73.6943
L1D TIMELY PREFETCHES:     647347 LATE PREFETCHES: 9400 DROPPED PREFETCHES: 0
L1D PREFETCHES SAME FILL-ORIGIN LEVEL: 854941 DIFFERENT FILL-ORIGIN LEVEL: 23481
L1D AVERAGE MISS LATENCY: 1.45468e+06 cycles
L1D RQ	ACCESS:   52217771	FORWARD:          0	MERGED:   14616741	TO_CACHE:   37381436
L1D WQ	ACCESS:   21284228	FORWARD:     219864	MERGED:     224857	TO_CACHE:   21059371
L1D PQ	ACCESS:    1846620	FORWARD:          0	MERGED:        129	TO_CACHE:    1846221

L1D UNIQUE REGIONS ACCESSED: 0
L1D REGIONS CONFLICTS: 0
L1D Cross Page Prefetch Requests: 0
L1D Same Page Prefetch Requests: 2224440
L1D ROI Sum of L1D PQ occupancy: 27606542
L1D PREFETCHES PUSHED FROM L2C: 0
L1I TOTAL     ACCESS:   40386228  HIT:   38144105  MISS:    2242123  HIT %:    94.4483  MISS %:     5.5517   MPKI: 11.2106
L1I LOAD      ACCESS:   40386228  HIT:   38144105  MISS:    2242123  HIT %:    94.4483  MISS %:     5.5517   MPKI: 11.2106
L1I PREFETCH  REQUESTED:          0  ISSUED:          0  USEFUL:          0  USELESS:          0
L1I USEFUL LOAD PREFETCHES:          0 PREFETCH ISSUED TO LOWER LEVEL:          0  ACCURACY: -nan
L1I TIMELY PREFETCHES:          0 LATE PREFETCHES: 0 DROPPED PREFETCHES: 0
L1I PREFETCHES SAME FILL-ORIGIN LEVEL: 0 DIFFERENT FILL-ORIGIN LEVEL: 0
L1I AVERAGE MISS LATENCY: 18.7572 cycles
L1I RQ	ACCESS:   63567918	FORWARD:          0	MERGED:   22784013	TO_CACHE:   40783905

BTB TOTAL     ACCESS:   34458816  HIT:   30772877  MISS:    3685939  HIT %:    89.3033  MISS %:    10.6967   MPKI: 18.4297
BTB BRANCH_DIRECT_JUMP	ACCESS:    3454569  HIT:    3286605  MISS:     167964
BTB BRANCH_INDIRECT	ACCESS:   13788073  HIT:   12683450  MISS:    1104623
BTB BRANCH_CONDITIONAL	ACCESS:    7883610  HIT:    7670723  MISS:     212887
BTB BRANCH_DIRECT_CALL	ACCESS:    2450867  HIT:    2153293  MISS:     297574
BTB BRANCH_INDIRECT_CALL	ACCESS:    2215440  HIT:    1977201  MISS:     238239
BTB BRANCH_RETURN	ACCESS:    4666257  HIT:    3001605  MISS:    1664652
BTB BRANCH_OTHER ACCESS:          0  HIT:          0  MISS:          0

L2C TOTAL     ACCESS:    4145969  HIT:    3559968  MISS:     586001  HIT %:    85.8658  MISS %:    14.1342   MPKI: 2.93
L2C LOAD      ACCESS:    2574919  HIT:    2173120  MISS:     401799  HIT %:    84.3957  MISS %:    15.6043   MPKI: 2.00899
L2C DATA LOAD MPKI: 0.25429
L2C INSTRUCTION LOAD MPKI: 1.7547
L2C RFO       ACCESS:     164152  HIT:     125086  MISS:      39066  HIT %:    76.2013  MISS %:    23.7987   MPKI: 0.19533
L2C PREFETCH  ACCESS:     878399  HIT:     745105  MISS:     133294  HIT %:    84.8253  MISS %:    15.1747   MPKI: 0.66647
AGUS PREFETCH L1 MISS: 0
L2C DATA PREFETCH MPKI: 0.66647
L2C INSTRUCTION PREFETCH MPKI: 0
L2C WRITEBACK ACCESS:     527414  HIT:     516534  MISS:      10880  HIT %:    97.9371  MISS %:     2.0629   MPKI: 0.0544
L2C LOAD TRANSLATION ACCESS:       1085  HIT:        123  MISS:        962  HIT %:    11.3364  MISS %:    88.6636   MPKI: 0.00481
L2C PREFETCH  REQUESTED:          0  ISSUED:          0  USEFUL:      16504  USELESS:     116422
L2C USEFUL LOAD PREFETCHES:      16504 PREFETCH ISSUED TO LOWER LEVEL:     133296  ACCURACY: 12.3815
L2C TIMELY PREFETCHES:      16504 LATE PREFETCHES: 2 DROPPED PREFETCHES: 0
L2C PREFETCHES SAME FILL-ORIGIN LEVEL: 8465 DIFFERENT FILL-ORIGIN LEVEL: 0
L2C AVERAGE MISS LATENCY: 29.563 cycles
L2C RQ	ACCESS:    2740176	FORWARD:          0	MERGED:          0	TO_CACHE:    2740156
L2C WQ	ACCESS:     527414	FORWARD:         41	MERGED:          0	TO_CACHE:     527414
L2C PQ	ACCESS:     878422	FORWARD:          0	MERGED:          0	TO_CACHE:     878401

L2C Instructions Evicting Data 121941
L2C Translations Evicting Data 615
L2C Data Evicting Data 106210
L2C Instructions Evicting Instructions 228661
L2C Translations Evicting Instructions 340
L2C Data Evicting Instructions 116402
L2C Instructions Evicting Translations 339
L2C Translations Evicting Translations 7
L2C Data Evicting Translations 605
L2C Dense regions hint from L2: 0
PSCL5 TOTAL     ACCESS:        728  HIT:        728  MISS:          0  HIT %:        100  MISS %:          0   MPKI: 0
PSCL5 LOAD TRANSLATION ACCESS:        728  HIT:        728  MISS:          0  HIT %:        100  MISS %:          0   MPKI: 0
PSCL5 PREFETCH  REQUESTED:          0  ISSUED:          0  USEFUL:          0  USELESS:          0
PSCL5 USEFUL LOAD PREFETCHES:          0 PREFETCH ISSUED TO LOWER LEVEL:          0  ACCURACY: -nan
PSCL5 TIMELY PREFETCHES:          0 LATE PREFETCHES: 0 DROPPED PREFETCHES: 0
PSCL5 PREFETCHES SAME FILL-ORIGIN LEVEL: 0 DIFFERENT FILL-ORIGIN LEVEL: 0

PSCL4 TOTAL     ACCESS:        728  HIT:        728  MISS:          0  HIT %:        100  MISS %:          0   MPKI: 0
PSCL4 LOAD TRANSLATION ACCESS:        728  HIT:        728  MISS:          0  HIT %:        100  MISS %:          0   MPKI: 0
PSCL4 PREFETCH  REQUESTED:          0  ISSUED:          0  USEFUL:          0  USELESS:          0
PSCL4 USEFUL LOAD PREFETCHES:          0 PREFETCH ISSUED TO LOWER LEVEL:          0  ACCURACY: -nan
PSCL4 TIMELY PREFETCHES:          0 LATE PREFETCHES: 0 DROPPED PREFETCHES: 0
PSCL4 PREFETCHES SAME FILL-ORIGIN LEVEL: 0 DIFFERENT FILL-ORIGIN LEVEL: 0

PSCL3 TOTAL     ACCESS:        599  HIT:        477  MISS:        122  HIT %:    79.6327  MISS %:    20.3673   MPKI: 0.00061
PSCL3 LOAD TRANSLATION ACCESS:        599  HIT:        477  MISS:        122  HIT %:    79.6327  MISS %:    20.3673   MPKI: 0.00061
PSCL3 PREFETCH  REQUESTED:          0  ISSUED:          0  USEFUL:          0  USELESS:          0
PSCL3 USEFUL LOAD PREFETCHES:          0 PREFETCH ISSUED TO LOWER LEVEL:          0  ACCURACY: -nan
PSCL3 TIMELY PREFETCHES:          0 LATE PREFETCHES: 0 DROPPED PREFETCHES: 0
PSCL3 PREFETCHES SAME FILL-ORIGIN LEVEL: 0 DIFFERENT FILL-ORIGIN LEVEL: 0

PSCL2 TOTAL     ACCESS:        728  HIT:        493  MISS:        235  HIT %:    67.7198  MISS %:    32.2802   MPKI: 0.001175
PSCL2 LOAD TRANSLATION ACCESS:        728  HIT:        493  MISS:        235  HIT %:    67.7198  MISS %:    32.2802   MPKI: 0.001175
PSCL2 PREFETCH  REQUESTED:          0  ISSUED:          0  USEFUL:          0  USELESS:          0
PSCL2 USEFUL LOAD PREFETCHES:          0 PREFETCH ISSUED TO LOWER LEVEL:          0  ACCURACY: -nan
PSCL2 TIMELY PREFETCHES:          0 LATE PREFETCHES: 0 DROPPED PREFETCHES: 0
PSCL2 PREFETCHES SAME FILL-ORIGIN LEVEL: 0 DIFFERENT FILL-ORIGIN LEVEL: 0

LLC TOTAL     ACCESS:     673449  HIT:     672991  MISS:        458  HIT %:     99.932  MISS %:  0.0680081   MPKI: 0.00229
LLC LOAD      ACCESS:     401797  HIT:     401637  MISS:        160  HIT %:    99.9602  MISS %:  0.0398211   MPKI: 0.0008
LLC RFO       ACCESS:      39066  HIT:      39066  MISS:          0  HIT %:        100  MISS %:          0   MPKI: 0
LLC PREFETCH  ACCESS:     133296  HIT:     133008  MISS:        288  HIT %:    99.7839  MISS %:    0.21606   MPKI: 0.00144
AGUS PREFETCH L1 MISS: 0
LLC WRITEBACK ACCESS:      98328  HIT:      98326  MISS:          2  HIT %:     99.998  MISS %: 0.00203401   MPKI: 1e-05
LLC LOAD TRANSLATION ACCESS:        962  HIT:        954  MISS:          8  HIT %:    99.1684  MISS %:   0.831601   MPKI: 4e-05
LLC PREFETCH  REQUESTED:          0  ISSUED:          0  USEFUL:        268  USELESS:        232
LLC USEFUL LOAD PREFETCHES:        268 PREFETCH ISSUED TO LOWER LEVEL:        288  ACCURACY: 93.0556
LLC TIMELY PREFETCHES:        268 LATE PREFETCHES: 0 DROPPED PREFETCHES: 0
LLC PREFETCHES SAME FILL-ORIGIN LEVEL: 0 DIFFERENT FILL-ORIGIN LEVEL: 0
LLC AVERAGE MISS LATENCY: 153.07 cycles
LLC RQ	ACCESS:     441825	FORWARD:          0	MERGED:          0	TO_CACHE:     441825
LLC WQ	ACCESS:      98328	FORWARD:          0	MERGED:          0	TO_CACHE:      98328
LLC PQ	ACCESS:     133296	FORWARD:          0	MERGED:          0	TO_CACHE:     133296

LLC Dense regions hint to LLC: 0

RAW hits: 3050426
Loads Generated: 55268201
Loads sent to L1D: 52217771
Stores Generated: 21284223
Stores sent to L1D: 21284228
Major fault: 0 Minor fault: 1240
Allocated PAGES: 1240
[Bingo] PHT Access: 439611
[Bingo] PHT Hit PC+Addr: 332748
[Bingo] PHT Hit PC+Offs: 8265
[Bingo] PHT Miss: 98598
[Bingo] Prefetch PC+Addr: 0
[Bingo] Prefetch PC+Offs: 0
[Bingo] Useful PC+Addr: 0
[Bingo] Useful PC+Offs: 0
[Bingo] Useless PC+Addr: 0
[Bingo] Useless PC+Offs: 0
[Bingo] L1 Prefetch per Region: 6.36042
[Bingo] L2 Prefetch per Region: 0.0696249
[Bingo] L3 Prefetch per Region: 0
[Bingo] No Prefetch per Region: 25.57
[Bingo] Number of Voters Mean: 4.59008
[Bingo] Number of Voters SD: 6.1407
PHT read accesses: 1497179
PHT write accesses: 264089
AT read accesses: 32142253
AT write accesses: 32142342
FT read accesses: 11049259
FT write accesses: 439611
PS read accesses: 743885
PS write accesses: 341013
PHT tag read accesses: 6683528
PHT tag write accesses: 596837
AT tag read accesses: 629469637
AT tag write accesses: 32406337
FT tag read accesses: 128923404
FT tag write accesses: 6161220
PS tag read accesses: 609980679
PS tag write accesses: 1084248

DRAM Statistics
 CHANNEL 0
 RQ ROW_BUFFER_HIT:         83  ROW_BUFFER_MISS:        373
 DBUS_CONGESTED:          0
 WQ ROW_BUFFER_HIT:          0  ROW_BUFFER_MISS:          0  FULL:          0

 AVG_CONGESTED_CYCLE: -
 All warmup complete: 2
Channel 0 Bank busy for read cycles: 0
Channel 0 Bank busy for write cycles: 0
Channel 0
Rank 0
0banks busy for read cycles: 325380849
0banks busy for write cycles: 0
1banks busy for read cycles: 52537
1banks busy for write cycles: 0
2banks busy for read cycles: 1787
2banks busy for write cycles: 0
3banks busy for read cycles: 784
3banks busy for write cycles: 0
4banks busy for read cycles: 158
4banks busy for write cycles: 0
5banks busy for read cycles: 153
5banks busy for write cycles: 0
6banks busy for read cycles: 40
6banks busy for write cycles: 0
7banks busy for read cycles: 0
7banks busy for write cycles: 0
8banks busy for read cycles: 0
8banks busy for write cycles: 0

CPU 0 Branch Prediction Accuracy: 99.8703% MPKI: 0.256795 Average ROB Occupancy at Mispredict: 39.4486
Branch types
NOT_BRANCH: 160404714 80.2024%
BRANCH_DIRECT_JUMP: 3454569 1.72728%
BRANCH_INDIRECT: 13788073 6.89404%
BRANCH_CONDITIONAL: 13020077 6.51004%
BRANCH_DIRECT_CALL: 2450867 1.22543%
BRANCH_INDIRECT_CALL: 2215440 1.10772%
BRANCH_RETURN: 4666257 2.33313%
BRANCH_OTHER: 0 0%

DRAM PAGES: 1048576
Allocated PAGES: 1240
