
*** ChampSim Multicore Out-of-Order Simulator ***

Warmup Instructions: 50000000
Simulation Instructions: 200000000
Number of CPUs: 1
LLC sets: 2048
LLC ways: 16
Off-chip DRAM Size: 4096 MB Channels: 1 Width: 64-bit Data Rate: 6400 MT/s
CPU 0 runs traces/spec2k17/client_003.champsimtrace.xz
.xz
BTB has LRU replacement policy
ITLB has LRU replacement policy
DTLB has LRU replacement policy
STLB has LRU replacement policy
L1I has LRU replacement policy
L1D has LRU replacement policy
Initialize SRRIP state for L2C
Initialize DRRIP state for LLC
Heartbeat CPU 0 instructions: 10000002 cycles: 2756542 heartbeat IPC: 3.62773 cumulative IPC: 3.62773 (Simulation time: 0 hr 0 min 39 sec) 
Heartbeat CPU 0 instructions: 20000001 cycles: 5528950 heartbeat IPC: 3.60697 cumulative IPC: 3.61732 (Simulation time: 0 hr 1 min 18 sec) 
Heartbeat CPU 0 instructions: 30000003 cycles: 8282668 heartbeat IPC: 3.63145 cumulative IPC: 3.62202 (Simulation time: 0 hr 1 min 58 sec) 
Heartbeat CPU 0 instructions: 40000003 cycles: 11038779 heartbeat IPC: 3.6283 cumulative IPC: 3.62359 (Simulation time: 0 hr 2 min 40 sec) 
Heartbeat CPU 0 instructions: 50000000 cycles: 13808440 heartbeat IPC: 3.61055 cumulative IPC: 3.62097 (Simulation time: 0 hr 3 min 23 sec) 

Warmup complete CPU 0 instructions: 50000004 cycles: 13808441 (Simulation time: 0 hr 3 min 23 sec) 

Offsets elements: 
Potential of Offsets elements: 
rewards of Offsets elements: 
Printing Sanity1
offset list size1346
Offsets elements: 
Potential of Offsets elements: 
rewards of Offsets elements: 0 0 15152 112 0 0 0 0 0 0 33 0 0 0 0 0 54 33 1929 8 0 0 0 0 0 785 0 0 0 390 549 874 0 0 0 806 618 12 8 0 6 0 0 0 0 0 7 16 0 481 93 181 40 0 0 133 214 8 0 0 0 574 426 348 0 132 318 91 63 88 0 0 0 0 9 0 0 0 0 0 0 6 0 3 0 0 0 0 0 0 0 207 0 0 0 272 0 207 0 0 0 0 67 156 219 0 0 0 0 0 0 0 126 0 0 0 0 0 1 0 203 178 0 0 0 0 0 9 48 0 0 1137 0 0 0 0 0 0 0 0 0 0 0 0 0 0 0 0 0 54 54 0 0 0 0 0 0 0 0 0 0 0 0 0 0 0 0 0 0 0 0 0 144 0 0 27 9 0 0 0 0 0 0 0 0 0 0 42 240 0 0 0 0 223 0 0 0 0 0 0 0 6 56 471 0 0 0 0 0 0 0 0 0 0 0 0 254 0 0 0 0 0 0 0 134 0 29 0 0 0 480 0 0 0 0 0 0 0 0 0 0 0 0 0 0 0 0 0 0 0 0 0 0 0 27 0 0 0 0 0 0 0 0 0 0 0 0 0 0 0 0 0 0 0 895 0 0 0 0 0 0 0 0 0 0 0 0 0 0 368 0 0 0 0 0 0 0 0 0 0 0 0 0 0 0 0 0 0 0 0 0 0 0 0 0 0 0 0 0 0 0 0 0 0 0 355 684 20 20 630 44 0 55 438 89 14 2 2175 42 0 19 0 0 0 0 0 0 0 0 0 0 0 0 0 0 0 0 0 0 1506 0 0 0 0 0 0 0 0 0 339 0 0 0 0 0 0 0 0 0 0 0 0 20 15 34 360 300 40 0 0 0 1459 0 0 0 2 0 0 0 124 236 11 0 0 0 0 10 0 0 51 0 60 0 5 0 0 0 0 0 0 0 0 0 0 0 0 0 4 0 0 0 0 77 160 0 0 0 35 246 135 0 0 0 0 0 0 348 18 0 0 0 0 0 0 0 0 0 0 0 0 0 0 0 0 0 592 0 0 0 0 0 0 0 0 541 0 0 0 0 0 0 0 0 0 0 0 0 0 0 4 2 4 0 0 0 399 269 78 62 533 0 54 0 0 0 0 0 0 0 0 0 0 0 0 0 0 0 0 958 259 0 0 0 7 8 0 0 0 0 0 0 0 0 0 0 0 0 0 0 8 0 0 0 0 0 0 29 47 0 0 0 0 0 0 1111 0 0 0 0 0 0 0 0 0 0 0 0 0 0 0 0 0 0 0 0 0 0 329 0 0 0 0 0 9 0 0 0 0 0 0 0 0 0 0 0 2 0 0 0 0 0 52 0 0 0 0 0 0 0 0 12 0 0 0 0 0 0 2 0 0 0 0 0 0 0 3 0 0 0 0 0 0 0 0 0 0 0 0 0 0 0 0 0 232 0 0 0 674 0 696 0 4 0 82 0 0 86 0 311 0 42 12 0 0 194 118 207 0 152 227 867 236 0 0 50 12 0 0 0 0 0 0 0 1 0 6 108 2045 1634 0 1731 2 15 0 0 0 0 798 0 63 699 151 0 0 1943 0 1011 2660 396 0 0 0 0 0 0 0 0 1800 0 4 8 1 0 0 0 6 0 0 0 0 0 0 0 23 0 0 0 0 0 0 0 24 0 26 1186 0 0 0 0 0 0 0 0 0 0 13 0 0 0 0 0 0 2 0 23 0 0 31 0 0 0 54 0 258 0 7 427 240 0 46 0 0 0 0 0 0 0 84 0 0 5 0 0 41 349 0 31 0 132 614 0 741 0 120 0 546 0 0 1195 90 0 0 236 551 786 930 0 0 0 42 0 0 0 0 0 0 0 0 0 32 16 0 12 59 0 8 135 0 71 0 103 0 0 88 12 0 57 37 47 0 0 0 0 0 0 0 34 25 34 0 22 81 0 0 0 15 0 0 0 0 0 0 0 0 0 0 0 0 0 8 0 0 5 12 0 0 0 0 1 0 0 0 0 0 0 0 0 0 19 4 0 0 0 0 0 0 6 0 7 0 0 0 0 0 0 0 0 0 0 0 0 0 0 0 0 0 0 0 0 2 0 0 0 0 0 0 0 0 0 0 0 0 0 0 0 0 0 0 0 0 0 0 0 0 0 1 0 0 0 0 0 0 0 0 0 0 0 0 0 0 0 0 0 0 0 0 0 0 0 0 0 0 0 0 0 0 0 0 0 0 39 0 0 0 0 0 0 0 0 0 0 0 0 0 0 0 0 0 0 0 0 0 0 0 0 0 6 0 0 0 0 0 0 0 0 0 0 0 0 0 0 0 0 0 0 0 0 0 0 0 0 0 0 0 0 0 0 0 0 0 0 0 0 0 0 0 0 0 0 0 0 0 114 0 0 0 0 0 0 0 0 0 0 0 0 0 0 0 0 0 0 0 0 0 0 0 0 0 0 0 0 0 0 0 0 0 0 0 0 2 0 0 0 0 0 0 0 0 0 0 0 0 0 0 0 0 0 0 0 0 0 0 0 0 1 0 0 0 0 0 0 0 0 0 0 0 0 0 0 0 0 0 0 0 0 0 0 0 0 0 0 0 0 0 0 0 0 0 0 0 0 0 0 0 0 0 0 0 0 0 0 0 0 0 0 0 0 0 0 0 0 0 0 0 0 0 0 0 0 0 0 0 0 0 0 30 0 0 0 0 0 0 0 67 0 0 0 0 0 34 0 0 0 0 0 0 0 0 0 0 0 11 0 0 0 0 0 2 0 0 0 0 0 0 0 0 0 0 0 24 0 3 0 0 0 0 0 0 22 0 0 0 0 0 0 0 0 0 0 0 0 0 0 0 0 0 0 0 0 0 0 0 0 0 0 0 0 0 0 0 0 0 0 0 0 0 0 0 0 0 0 0 0 0 0 0 0 0 0 0 0 0 0 0 0 0 0 0 0 0 0 0 0 0 0 0 0 0 0 0 0 0 0 0 0 0 0 0 0 0 0 0 0 0 0 0 0 0 0 0 880 0 0 0 0 0 
Printing Sanity2
Heartbeat CPU 0 instructions: 60000001 cycles: 29587173 heartbeat IPC: 0.633765 cumulative IPC: 0.633764 (Simulation time: 0 hr 4 min 21 sec) 
Heartbeat CPU 0 instructions: 70000002 cycles: 45062195 heartbeat IPC: 0.646203 cumulative IPC: 0.639923 (Simulation time: 0 hr 5 min 19 sec) 
Heartbeat CPU 0 instructions: 80000003 cycles: 61105525 heartbeat IPC: 0.623312 cumulative IPC: 0.634289 (Simulation time: 0 hr 6 min 19 sec) 
Heartbeat CPU 0 instructions: 90000002 cycles: 80333628 heartbeat IPC: 0.520072 cumulative IPC: 0.601276 (Simulation time: 0 hr 7 min 20 sec) 
Heartbeat CPU 0 instructions: 100000000 cycles: 91581717 heartbeat IPC: 0.88904 cumulative IPC: 0.642894 (Simulation time: 0 hr 8 min 7 sec) 
*** Reached end of trace for Core: 0 Repeating trace: traces/spec2k17/client_003.champsimtrace.xz
Heartbeat CPU 0 instructions: 110000000 cycles: 107670895 heartbeat IPC: 0.621536 cumulative IPC: 0.639233 (Simulation time: 0 hr 9 min 8 sec) 
Heartbeat CPU 0 instructions: 120000002 cycles: 130199480 heartbeat IPC: 0.443881 cumulative IPC: 0.601421 (Simulation time: 0 hr 10 min 9 sec) 
Heartbeat CPU 0 instructions: 130000001 cycles: 146079661 heartbeat IPC: 0.629716 cumulative IPC: 0.604818 (Simulation time: 0 hr 11 min 7 sec) 
Heartbeat CPU 0 instructions: 140000001 cycles: 162181555 heartbeat IPC: 0.621045 cumulative IPC: 0.606579 (Simulation time: 0 hr 12 min 9 sec) 
Heartbeat CPU 0 instructions: 150000000 cycles: 177438715 heartbeat IPC: 0.65543 cumulative IPC: 0.611134 (Simulation time: 0 hr 13 min 9 sec) 
Heartbeat CPU 0 instructions: 160000001 cycles: 193003049 heartbeat IPC: 0.642495 cumulative IPC: 0.613858 (Simulation time: 0 hr 14 min 8 sec) 
Heartbeat CPU 0 instructions: 170000002 cycles: 207963427 heartbeat IPC: 0.668432 cumulative IPC: 0.618063 (Simulation time: 0 hr 15 min 7 sec) 
Heartbeat CPU 0 instructions: 180000003 cycles: 223645338 heartbeat IPC: 0.637677 cumulative IPC: 0.619529 (Simulation time: 0 hr 16 min 4 sec) 
Heartbeat CPU 0 instructions: 190000002 cycles: 243100739 heartbeat IPC: 0.513996 cumulative IPC: 0.610574 (Simulation time: 0 hr 17 min 3 sec) 
Heartbeat CPU 0 instructions: 200000001 cycles: 254495445 heartbeat IPC: 0.8776 cumulative IPC: 0.623216 (Simulation time: 0 hr 17 min 46 sec) 
*** Reached end of trace for Core: 0 Repeating trace: traces/spec2k17/client_003.champsimtrace.xz
Heartbeat CPU 0 instructions: 210000000 cycles: 270340102 heartbeat IPC: 0.631128 cumulative IPC: 0.623705 (Simulation time: 0 hr 18 min 46 sec) 
Heartbeat CPU 0 instructions: 220000000 cycles: 290239942 heartbeat IPC: 0.502517 cumulative IPC: 0.614981 (Simulation time: 0 hr 19 min 48 sec) 
Heartbeat CPU 0 instructions: 230000000 cycles: 309821586 heartbeat IPC: 0.510682 cumulative IPC: 0.608081 (Simulation time: 0 hr 20 min 48 sec) 
Heartbeat CPU 0 instructions: 240000003 cycles: 325656478 heartbeat IPC: 0.631517 cumulative IPC: 0.609271 (Simulation time: 0 hr 21 min 46 sec) 
Heartbeat CPU 0 instructions: 250000003 cycles: 341082137 heartbeat IPC: 0.648271 cumulative IPC: 0.611109 (Simulation time: 0 hr 22 min 45 sec) 
Finished CPU 0 instructions: 200000003 cycles: 327273697 cumulative IPC: 0.611109 (Simulation time: 0 hr 22 min 45 sec) 

ChampSim completed all CPUs

Region of Interest Statistics

CPU 0 cumulative IPC: 0.611109 instructions: 200000003 cycles: 327273697
ITLB TOTAL     ACCESS:   33392643  HIT:   33062492  MISS:     330151  HIT %:    99.0113  MISS %:   0.988694   MPKI: 1.65075
ITLB LOAD TRANSLATION ACCESS:   33392643  HIT:   33062492  MISS:     330151  HIT %:    99.0113  MISS %:   0.988694   MPKI: 1.65075
ITLB PREFETCH  REQUESTED:          0  ISSUED:          0  USEFUL:          0  USELESS:          0
ITLB USEFUL LOAD PREFETCHES:          0 PREFETCH ISSUED TO LOWER LEVEL:          0  ACCURACY: -nan
ITLB TIMELY PREFETCHES:          0 LATE PREFETCHES: 0 DROPPED PREFETCHES: 0
ITLB PREFETCHES SAME FILL-ORIGIN LEVEL: 0 DIFFERENT FILL-ORIGIN LEVEL: 0
ITLB AVERAGE MISS LATENCY: 9.99022 cycles
ITLB RQ	ACCESS:   38143950	FORWARD:          0	MERGED:    4655647	TO_CACHE:   33488303

DTLB TOTAL     ACCESS:   38072219  HIT:   37633256  MISS:     438963  HIT %:     98.847  MISS %:    1.15297   MPKI: 2.19481
DTLB LOAD TRANSLATION ACCESS:   38072219  HIT:   37633256  MISS:     438963  HIT %:     98.847  MISS %:    1.15297   MPKI: 2.19481
DTLB PREFETCH  REQUESTED:          0  ISSUED:          0  USEFUL:          0  USELESS:          0
DTLB USEFUL LOAD PREFETCHES:          0 PREFETCH ISSUED TO LOWER LEVEL:          0  ACCURACY: -nan
DTLB TIMELY PREFETCHES:          0 LATE PREFETCHES: 0 DROPPED PREFETCHES: 0
DTLB PREFETCHES SAME FILL-ORIGIN LEVEL: 0 DIFFERENT FILL-ORIGIN LEVEL: 0
DTLB AVERAGE MISS LATENCY: 11.1692 cycles
DTLB RQ	ACCESS:   53156763	FORWARD:          0	MERGED:   15026887	TO_CACHE:   38129876

STLB TOTAL     ACCESS:   10674192  HIT:   10659297  MISS:      14895  HIT %:    99.8605  MISS %:   0.139542   MPKI: 0.074475
STLB LOAD TRANSLATION ACCESS:     769114  HIT:     754746  MISS:      14368  HIT %:    98.1319  MISS %:    1.86812   MPKI: 0.07184
STLB TRANSLATION FROM L1D PREFETCHER ACCESS:    9905078  HIT:    9904551  MISS:        527  HIT %:    99.9947  MISS %:  0.0053205   MPKI: 0.002635
STLB PREFETCH  REQUESTED:          0  ISSUED:          0  USEFUL:        506  USELESS:         21
STLB USEFUL LOAD PREFETCHES:        506 PREFETCH ISSUED TO LOWER LEVEL:          0  ACCURACY: inf
STLB TIMELY PREFETCHES:        506 LATE PREFETCHES: 0 DROPPED PREFETCHES: 688713
STLB PREFETCHES SAME FILL-ORIGIN LEVEL: 0 DIFFERENT FILL-ORIGIN LEVEL: 0
STLB AVERAGE MISS LATENCY: 87.4441 cycles
STLB RQ	ACCESS:   14309804	FORWARD:          0	MERGED:    2883993	TO_CACHE:   11425811

STLB Hit, L1D data hit: 0
STLB Hit, L2C data hit: 0
STLB Hit, LLC data hit: 0
STLB Hit, LLC data miss: 0
STLB STLB hints to L2: 0
L1D TOTAL     ACCESS:   63045185  HIT:   61283234  MISS:    1761951  HIT %:    97.2053  MISS %:    2.79474   MPKI: 8.80975
L1D LOAD      ACCESS:   25683160  HIT:   25014279  MISS:     668881  HIT %:    97.3956  MISS %:    2.60436   MPKI: 3.3444
L1D RFO       ACCESS:   24706337  HIT:   23921993  MISS:     784344  HIT %:    96.8253  MISS %:    3.17467   MPKI: 3.92172
L1D PREFETCH  ACCESS:   12655688  HIT:   12346962  MISS:     308726  HIT %:    97.5606  MISS %:    2.43942   MPKI: 1.54363
AGUS PREFETCH L1 MISS: 0
L1D PREFETCH  REQUESTED:   28024071  ISSUED:   28023913  USEFUL:      19913  USELESS:     288697
L1D USEFUL LOAD PREFETCHES:      19913 PREFETCH ISSUED TO LOWER LEVEL:     309148  ACCURACY: 6.44125
L1D TIMELY PREFETCHES:      19913 LATE PREFETCHES: 247 DROPPED PREFETCHES: 861774
L1D PREFETCHES SAME FILL-ORIGIN LEVEL: 309148 DIFFERENT FILL-ORIGIN LEVEL: 0
L1D AVERAGE MISS LATENCY: 13114.4 cycles
L1D RQ	ACCESS:   42826117	FORWARD:          0	MERGED:   16268142	TO_CACHE:   25972872
L1D WQ	ACCESS:   28298364	FORWARD:     597164	MERGED:    1114473	TO_CACHE:   27183891
L1D PQ	ACCESS:   14483223	FORWARD:          0	MERGED:     930472	TO_CACHE:   13540690

L1D UNIQUE REGIONS ACCESSED: 0
L1D REGIONS CONFLICTS: 0
L1D Cross Page Prefetch Requests: 12235526
L1D Same Page Prefetch Requests: 2247697
L1D ROI Sum of L1D PQ occupancy: 189629477
L1D PREFETCHES PUSHED FROM L2C: 0
L1I TOTAL     ACCESS:   37673550  HIT:   35747826  MISS:    1925724  HIT %:    94.8884  MISS %:    5.11161   MPKI: 9.62862
L1I LOAD      ACCESS:   37673550  HIT:   35747826  MISS:    1925724  HIT %:    94.8884  MISS %:    5.11161   MPKI: 9.62862
L1I PREFETCH  REQUESTED:          0  ISSUED:          0  USEFUL:          0  USELESS:          0
L1I USEFUL LOAD PREFETCHES:          0 PREFETCH ISSUED TO LOWER LEVEL:          0  ACCURACY: -nan
L1I TIMELY PREFETCHES:          0 LATE PREFETCHES: 0 DROPPED PREFETCHES: 0
L1I PREFETCHES SAME FILL-ORIGIN LEVEL: 0 DIFFERENT FILL-ORIGIN LEVEL: 0
L1I AVERAGE MISS LATENCY: 23.4514 cycles
L1I RQ	ACCESS:   61260418	FORWARD:          0	MERGED:   23116468	TO_CACHE:   38143950

BTB TOTAL     ACCESS:   31972587  HIT:   29330609  MISS:    2641978  HIT %:    91.7367  MISS %:    8.26326   MPKI: 13.2099
BTB BRANCH_DIRECT_JUMP	ACCESS:    1668733  HIT:    1599654  MISS:      69079
BTB BRANCH_INDIRECT	ACCESS:   12964857  HIT:   12148638  MISS:     816219
BTB BRANCH_CONDITIONAL	ACCESS:    9737527  HIT:    9606081  MISS:     131446
BTB BRANCH_DIRECT_CALL	ACCESS:    3293738  HIT:    3140897  MISS:     152841
BTB BRANCH_INDIRECT_CALL	ACCESS:     505068  HIT:     384959  MISS:     120109
BTB BRANCH_RETURN	ACCESS:    3802664  HIT:    2450380  MISS:    1352284
BTB BRANCH_OTHER ACCESS:          0  HIT:          0  MISS:          0

L2C TOTAL     ACCESS:    5375623  HIT:    4036053  MISS:    1339570  HIT %:    75.0807  MISS %:    24.9193   MPKI: 6.69785
L2C LOAD      ACCESS:    2594340  HIT:    2037652  MISS:     556688  HIT %:    78.5422  MISS %:    21.4578   MPKI: 2.78344
L2C DATA LOAD MPKI: 1.53894
L2C INSTRUCTION LOAD MPKI: 1.2445
L2C RFO       ACCESS:     784158  HIT:     139624  MISS:     644534  HIT %:    17.8056  MISS %:    82.1944   MPKI: 3.22267
L2C PREFETCH  ACCESS:     309138  HIT:     200899  MISS:     108239  HIT %:    64.9868  MISS %:    35.0132   MPKI: 0.541195
AGUS PREFETCH L1 MISS: 0
L2C DATA PREFETCH MPKI: 0.541195
L2C INSTRUCTION PREFETCH MPKI: 0
L2C WRITEBACK ACCESS:     909152  HIT:     885764  MISS:      23388  HIT %:    97.4275  MISS %:    2.57251   MPKI: 0.11694
L2C LOAD TRANSLATION ACCESS:      14787  HIT:       9412  MISS:       5375  HIT %:    63.6505  MISS %:    36.3495   MPKI: 0.026875
L2C TRANSLATION FROM L1D PREFETCHER ACCESS:     764048  HIT:     762702  MISS:       1346  HIT %:    99.8238  MISS %:   0.176167   MPKI: 0.00673
L2C PREFETCH  REQUESTED:          0  ISSUED:          0  USEFUL:       8110  USELESS:     100842
L2C USEFUL LOAD PREFETCHES:       8110 PREFETCH ISSUED TO LOWER LEVEL:     108239  ACCURACY: 7.49268
L2C TIMELY PREFETCHES:       8110 LATE PREFETCHES: 0 DROPPED PREFETCHES: 0
L2C PREFETCHES SAME FILL-ORIGIN LEVEL: 0 DIFFERENT FILL-ORIGIN LEVEL: 0
L2C AVERAGE MISS LATENCY: 117.277 cycles
L2C RQ	ACCESS:    4157361	FORWARD:          0	MERGED:          0	TO_CACHE:    4157332
L2C WQ	ACCESS:     909152	FORWARD:         39	MERGED:          0	TO_CACHE:     909152
L2C PQ	ACCESS:     309148	FORWARD:          0	MERGED:          0	TO_CACHE:     309138

L2C Instructions Evicting Data 161113
L2C Translations Evicting Data 4863
L2C Data Evicting Data 901508
L2C Instructions Evicting Instructions 85991
L2C Translations Evicting Instructions 1758
L2C Data Evicting Instructions 154369
L2C Instructions Evicting Translations 1796
L2C Translations Evicting Translations 100
L2C Data Evicting Translations 4684
L2C Dense regions hint from L2: 0
PSCL5 TOTAL     ACCESS:     703608  HIT:     703608  MISS:          0  HIT %:        100  MISS %:          0   MPKI: 0
PSCL5 LOAD TRANSLATION ACCESS:      14368  HIT:      14368  MISS:          0  HIT %:        100  MISS %:          0   MPKI: 0
PSCL5 TRANSLATION FROM L1D PREFETCHER ACCESS:     689240  HIT:     689240  MISS:          0  HIT %:        100  MISS %:          0   MPKI: 0
PSCL5 PREFETCH  REQUESTED:          0  ISSUED:          0  USEFUL:          0  USELESS:          0
PSCL5 USEFUL LOAD PREFETCHES:          0 PREFETCH ISSUED TO LOWER LEVEL:          0  ACCURACY: -nan
PSCL5 TIMELY PREFETCHES:          0 LATE PREFETCHES: 0 DROPPED PREFETCHES: 0
PSCL5 PREFETCHES SAME FILL-ORIGIN LEVEL: 0 DIFFERENT FILL-ORIGIN LEVEL: 0

PSCL4 TOTAL     ACCESS:     703608  HIT:     703608  MISS:          0  HIT %:        100  MISS %:          0   MPKI: 0
PSCL4 LOAD TRANSLATION ACCESS:      14368  HIT:      14368  MISS:          0  HIT %:        100  MISS %:          0   MPKI: 0
PSCL4 TRANSLATION FROM L1D PREFETCHER ACCESS:     689240  HIT:     689240  MISS:          0  HIT %:        100  MISS %:          0   MPKI: 0
PSCL4 PREFETCH  REQUESTED:          0  ISSUED:          0  USEFUL:          0  USELESS:          0
PSCL4 USEFUL LOAD PREFETCHES:          0 PREFETCH ISSUED TO LOWER LEVEL:          0  ACCURACY: -nan
PSCL4 TIMELY PREFETCHES:          0 LATE PREFETCHES: 0 DROPPED PREFETCHES: 0
PSCL4 PREFETCHES SAME FILL-ORIGIN LEVEL: 0 DIFFERENT FILL-ORIGIN LEVEL: 0

PSCL3 TOTAL     ACCESS:     691409  HIT:     691389  MISS:         20  HIT %:    99.9971  MISS %: 0.00289264   MPKI: 0.0001
PSCL3 LOAD TRANSLATION ACCESS:      14223  HIT:      14203  MISS:         20  HIT %:    99.8594  MISS %:   0.140617   MPKI: 0.0001
PSCL3 TRANSLATION FROM L1D PREFETCHER ACCESS:     677186  HIT:     677186  MISS:          0  HIT %:        100  MISS %:          0   MPKI: 0
PSCL3 PREFETCH  REQUESTED:          0  ISSUED:          0  USEFUL:          0  USELESS:          0
PSCL3 USEFUL LOAD PREFETCHES:          0 PREFETCH ISSUED TO LOWER LEVEL:          0  ACCURACY: -nan
PSCL3 TIMELY PREFETCHES:          0 LATE PREFETCHES: 0 DROPPED PREFETCHES: 0
PSCL3 PREFETCHES SAME FILL-ORIGIN LEVEL: 0 DIFFERENT FILL-ORIGIN LEVEL: 0

PSCL2 TOTAL     ACCESS:     585478  HIT:     585037  MISS:        441  HIT %:    99.9247  MISS %:  0.0753231   MPKI: 0.002205
PSCL2 LOAD TRANSLATION ACCESS:      14397  HIT:      13956  MISS:        441  HIT %:    96.9369  MISS %:    3.06314   MPKI: 0.002205
PSCL2 TRANSLATION FROM L1D PREFETCHER ACCESS:     571081  HIT:     571081  MISS:          0  HIT %:        100  MISS %:          0   MPKI: 0
PSCL2 PREFETCH  REQUESTED:          0  ISSUED:          0  USEFUL:          0  USELESS:          0
PSCL2 USEFUL LOAD PREFETCHES:          0 PREFETCH ISSUED TO LOWER LEVEL:          0  ACCURACY: -nan
PSCL2 TIMELY PREFETCHES:          0 LATE PREFETCHES: 0 DROPPED PREFETCHES: 0
PSCL2 PREFETCHES SAME FILL-ORIGIN LEVEL: 0 DIFFERENT FILL-ORIGIN LEVEL: 0

LLC TOTAL     ACCESS:    2017986  HIT:    1244406  MISS:     773580  HIT %:    61.6657  MISS %:    38.3343   MPKI: 3.8679
LLC LOAD      ACCESS:     556688  HIT:     322845  MISS:     233843  HIT %:    57.9939  MISS %:    42.0061   MPKI: 1.16921
LLC RFO       ACCESS:     644534  HIT:     149846  MISS:     494688  HIT %:    23.2487  MISS %:    76.7513   MPKI: 2.47344
LLC PREFETCH  ACCESS:     108239  HIT:      79581  MISS:      28658  HIT %:    73.5234  MISS %:    26.4766   MPKI: 0.14329
AGUS PREFETCH L1 MISS: 0
LLC WRITEBACK ACCESS:     701804  HIT:     688871  MISS:      12933  HIT %:    98.1572  MISS %:    1.84282   MPKI: 0.064665
LLC LOAD TRANSLATION ACCESS:       5375  HIT:       2243  MISS:       3132  HIT %:    41.7302  MISS %:    58.2698   MPKI: 0.01566
LLC TRANSLATION FROM L1D PREFETCHER ACCESS:       1346  HIT:       1020  MISS:        326  HIT %:    75.7801  MISS %:    24.2199   MPKI: 0.00163
LLC PREFETCH  REQUESTED:          0  ISSUED:          0  USEFUL:       6453  USELESS:      20968
LLC USEFUL LOAD PREFETCHES:       6453 PREFETCH ISSUED TO LOWER LEVEL:      28658  ACCURACY: 22.5173
LLC TIMELY PREFETCHES:       6453 LATE PREFETCHES: 0 DROPPED PREFETCHES: 0
LLC PREFETCHES SAME FILL-ORIGIN LEVEL: 0 DIFFERENT FILL-ORIGIN LEVEL: 0
LLC AVERAGE MISS LATENCY: 152.001 cycles
LLC RQ	ACCESS:    1207942	FORWARD:          0	MERGED:          0	TO_CACHE:    1207942
LLC WQ	ACCESS:     701804	FORWARD:          0	MERGED:          0	TO_CACHE:     701804
LLC PQ	ACCESS:     108239	FORWARD:          0	MERGED:          0	TO_CACHE:     108239

LLC Dense regions hint to LLC: 0

RAW hits: 4074552
Loads Generated: 46900669
Loads sent to L1D: 42826117
Stores Generated: 28298347
Stores sent to L1D: 28298364
Major fault: 0 Minor fault: 5106
Allocated PAGES: 5106
ucb ended
-----------------------------------------------------------------------------------------------------------------------------------------------------------------------------------------------------
Offsets elements: 8589776360 26 -1 -31 -8589776329 8589776361 641 -672 -8589776347 8589776346 28 -24 -8589776340 8589777010 -8589777022 8589776350 30 -30 1 -32 34 642 -641 -34 -8589776348 -3 8589776356 -8589776353 -8589776356 -6 5 -2 -36 37 -38 2 -5 -33 33 -8589606273 456 -170566 -8589776343 8589776343 -8589776346 8589776348 -44 44 -45 6 39 -43 679 -678 36 -41 43 -684 -8589776342 -8589776345 8589776341 3 4 -4 -8589776326 7 21 -13 19 9 -50 8589776372 -8589776360 8589776355 38 -8589776260 8589776260 -8589776262 169837 8589606425 17144822 -918 1097 -16975176 16975176 4701111 8567930144 -8589606225 8589606266 -683 8589776385 -42 -643 684 -682 40 -642 42 -8589584704 8589584704 8589584664 -8589584668 -39 41 -40 -8589584675 8589584705 -8589584705 8589584671 -8589593596 8589593624 652 23 -8589776379 -8589776355 -8589776352 8589776352 8589776353 673 -673 -35 35 677 -675 676 -8589777031 8589776392 29 -20 -8589776127 8589776122 22 -8589593624 8589594276 -674 8589594269 -8589606271 363 8589605884 -8589776382 8589776362 -8589776364 8589777028 -8589777028 8589776363 -8589776338 8589776335 -8589776357 8589776357 25 -29 -669 -23 -8589606437 8589606437 -8589776290 8589776292 -8589776292 17144840 1153 -16975232 16975232 8572631208 -8567930158 -21676080 8589606239 -8589606240 8589606240 -668 8589776382 -8589776385 8589776386 -28 643 670 27 -26 -8589593622 8589594274 -8589776362 8589776354 -8589776392 8589776374 -8589776361 8589776364 -8589776373 8589776395 -27 -21 -8589776344 8589776351 217 8589776125 10 -8589776366 8589776359 -8589776359 668 669 -671 672 8589776344 8589776342 14 -8589593623 8589593608 667 -666 -8589593365 -182098 182099 -182980 182977 -182999 8589776358 -8589606880 8589606898 8589776369 -8589776351 24 -663 -8589593361 8589593363 8589593377 -14 666 -651 -8589776367 214 8589776139 11 -8589593378 8589594030 -662 -8589593614 -181888 181888 244 -182086 8589775456 -8589602148 8589602156 -8589780708 186641 8589594070 653 -8589594051 -12871 -169248 8589775514 -8589780706 8589780707 -8589669928 8589669930 -8589606924 227 375 -2164 1563 8570732024 -8570732024 8589606253 -18874229 -8570731423 -2161 1560 -8589593382 8589593395 645 8589606548 364 8589605891 8589593394 -8589593395 12 187314 -8589593397 -187314 8589781364 -8589594039 -12883 -169245 8589775511 8589780709 18874227 -8589605650 8589606251 -18874227 18874228 15 -8589593383 8589593368 -8589593384 8589593386 -8589594040 -12882 -169181 8589775447 -8589780702 187319 -13064 18481681 1703924 -20355312 18651388 -18468617 -76381 8589669768 -8589593390 8589593388 -8589593388 8589594043 -8589594042 -12880 -169208 8589775474 -8589780704 8589780705 -8589593386 8589593369 -8589776130 8589776130 -8589776350 175245 -175243 -18 17 8589776366 -8589776369 8589776349 -8589776363 8589777031 -8589777025 -9 -8589776386 -8589776365 8589777034 -25 -8589775535 8589776202 18 8589593367 671 8589593387 656 -8589606266 12881 -182761 182762 -182982 -4338 8589780688 -8589775458 -908 175243 -175244 -8589776358 -8589593367 8589593385 -22 -8589593368 12878 -182066 8589775454 -8589780703 8589780706 -8589594043 -182087 8589775455 -7 -7732 -5323 13055 8589593374 8589775477 -8589670420 77029 182087 8589593390 -8589594034 8589593393 -8589593400 -169888 170251 -170476 -10 8589776339 -8589776339 8589593396 -8589601128 -175254 32 8589776410 -8589606921 2341 -2544 16974936 8572630818 -8567929509 8589606234 -8589776349 -8589776336 8589776365 -8589776124 8589776124 -8589775527 31 8589593364 678 -652 -8589777038 169914 -169917 -8589777034 675 8589776383 -8589775530 170093 -170112 170476 -170478 -8589777003 -8589776331 8589776331 -8589776315 169853 16974985 -16974079 16975377 8572631064 -8567930154 8567930155 -8589606236 674 -8589593387 -182998 8589777037 8589776376 8589776370 -8589776370 -8589776341 219 -233 8589593383 -8589778265 1899 8589776368 -8589606044 -172225 8589778245 -8589606812 8589606810 -8589776334 8589776337 -8589776308 8589776311 -8589776310 17144858 1205 -16975284 16975284 8572631163 -8567930161 -8589777024 -667 20 8589776134 665 -665 -8589593370 -182127 182126 -182063 8589775435 -15 -8589594046 8589593384 -182118 182119 182127 8589775439 -8589594070 -186641 -8589594032 -12890 -169237 8589775503 -8589780705 8589780708 -1789 2164 8570731423 18874230 -8589593362 8589593375 -8589606253 8589606254 -8589605890 8589605892 13 8589594031 -8589606922 12889 -182100 187327 -8589594021 8589593380 -12887 -170252 12524 8589593381 -8589776139 -218 8589593371 -8589593371 -183005 -8589593364 8589593376 -12 664 -661 -8589606899 -169470 168573 8589608458 -8589594033 -8783 8589602831 -8589607793 8589607809 175261 -175264 -664 -8589776387 8589776390 -8589776389 8589776400 -8589776400 8589776367 47 8589776999 -8589777050 8589776373 -8589776383 8589776403 -8589776388 16 -19 662 -660 -8589776371 -8589775541 -8589777010 663 -17 -8589775540 -8589607812 8589608465 18874226 -8589605649 -601 -1560 8589606250 175232 -175261 -8589606901 8589606874 -8589584759 8589584732 -640 -8589584760 -8589584761 8589584731 8589584730 -8589584762 8589584729 -8589584763 8 -8589584764 8589584728 -8589584765 -8589584766 8589584753 629 -628 8589584727 -8589584767 8589584726 -8589584768 8589584751 625 -625 -8589584769 8589584725 -8589584770 45 -8589585392 -8589584771 8589584724 -8589584772 -8589584773 49 -618 8589584750 -617 -8589584774 8589584723 -8589584775 -614 8589584748 -613 -8589584776 8589584722 -8589584777 8589584721 -8589585388 8589584746 610 -610 -8589584778 -8589584779 -8589584780 8589584720 -8589584746 8589584745 -8589585387 -8589584782 8589584719 -8589584783 603 -603 -8589585386 -8589584784 -8589584785 8589584718 -8589584786 8589584743 -8589585384 8589584717 -8589584787 8589584716 -8589584788 8589584742 -46 -595 -8589584789 -8589584790 48 8589584715 50 591 -8589585382 -8589584792 51 -8589584791 8589584714 52 -8589584793 53 -8589584794 54 -55 -8589584738 8589584713 55 -56 57 -8589584795 56 -57 -58 59 -8589584796 8589584712 58 -59 -8589584737 60 -8589584797 -60 -61 -8589584736 8589584711 62 -8589584798 61 -62 -63 64 -8589584800 63 -64 65 8589584710 -65 -8589584735 -66 67 -8589584802 66 -67 -68 -8589584734 8589584709 69 -8589584803 68 -69 70 -8589584804 8589584735 -70 -572 8589584708 -71 -8589584733 72 -8589584805 71 -72 -73 74 -8589584806 8589584733 73 -74 -568 8589584707 75 -8589584807 -75 -8589584731 8589584706 -76 77 -8589584808 76 -77 -8589585372 -78 -8589584730 79 -8589584809 78 -79 -8589584729 80 -80 106 -81 -561 8589584809 -560 -8589584810 8589584703 81 -82 -8589584728 82 -83 -8589584727 8589584702 84 -8589584811 83 -84 -557 85 557 -8589585368 8589584701 -86 -8589584726 87 -8589584813 86 -87 -88 -553 89 553 -8589585367 8589584700 88 -89 90 -8589584815 -90 -8589584725 -91 92 -8589584816 8589584699 91 -92 -550 93 -8589585366 -93 94 -8589584818 -94 -8589584724 95 -8589584819 -95 -8589584723 8589584698 -96 96 -545 -8589584820 -97 97 -98 99 -8589584821 8589584697 98 -99 -8589584722 100 -8589584822 -100 -542 -101 102 -8589584823 8589584696 101 -102 -8589584721 -103 104 -8589584825 103 -104 -538 105 -8589584826 -105 -8589584720 8589584695 -106 107 -8589584827 -107 -108 109 -8589584828 8589584694 108 -109 -8589584719 110 -8589584829 -110 -111 112 -8589584831 111 -112 -8589584718 8589584693 -113 114 -8589584832 113 -114 115 8589584692 -115 -8589584717 -116 117 -8589584834 116 -117 -118 119 -8589584835 8589584691 118 -119 -8589584716 120 -8589584836 -120 -121 122 -8589584837 8589584690 121 -122 -8589584715 -123 -518 -8589584839 123 -124 125 8589584689 124 -125 -8589584714 -126 127 -8589584840 126 -127 -515 8589584688 -128 -8589584713 129 -8589584842 128 -129 -8589584712 8589584687 130 155 -130 -8589585354 -131 132 -8589584844 131 -132 -133 134 -8589584846 159 -508 -8589584845 133 -134 -507 8589584686 -135 -8589584711 135 -136 137 -8589584847 8589584685 136 -137 -8589584710 163 -138 -504 -8589584848 -503 -8589584849 138 -139 -8589584709 8589584684 140 139 -140 -141 -500 142 500 -8589585350 8589584683 -143 -8589584708 144 -8589584852 143 -144 -8589584707 8589584682 145 -145 -497 146 -8589585349 -146 147 -8589584853 8589584681 -147 -8589584706 -148 149 -8589584855 148 -149 -493 -492 -8589584856 -150 8589584680 150 -151 152 8589584679 151 -152 -153 -488 -8589584857 8589584678 153 -154 -8589584703 -8589584858 154 -155 -156 -8589584702 8589584677 157 -8589584859 -485 8589584676 -158 -8589584701 -8589606900 8589606877 8589776391 -8589776391 8589776384 8589602810 -8589606252 8589605904 -8589584641 8589584641 8589777022 -8589776374 8589777035 661 -646 -8589776384 8589776389 658 -658 -659 -8589776399 -648 -8589602170 8589602170 655 -182126 8589775494 -8589776354 -8589776372 8589776375 -657 -656 -649 651 -650 659 -8589606467 428 -384 2751 -8 8589603673 -8589603829 8589603830 -8589606461 8589606467 -8589606423 2753 -2797 2761 21673491 -21671829 8589602001 -8589603830 8589606465 -8567930179 -21676245 21676285 -21676101 21676246 -52605 52594 -52749 52605 201 18874234 -8589605658 8570733584 8589606259 -8589659024 8589659029 -8589607829 23076 288230371856498740 33412072 -255 -978 979 254 -33408474 33408220 239 534632899 -534632899 534632898 -568041358 -239 241 534632896 -534636348 534636348 -534636386 -5707 534641749 -534632802 534633139 -568040840 33406723 -1838 536907272 -570313049 33404068 -33404068 33403970 534637427 -534632565 -33407949 -901 -2690 2690 33408844 -33408872 33408871 -33408842 -33408894 33408896 -33408895 33408894 -33408912 33408913 33408678 229 -33407935 570312415 -837941488 837941487 -536904479 -33408911 -33407702 -570313371 33408658 -301036775 267629073 -267629073 837941229 -536904220 -33408455 -33408594 33408832 -33408458 240 -241 -301036774 835669577 -534637328 374 -301033816 301034054 -4862 4864 -301035796 267628097 568040505 2271910 835669578 -835669576 267628555 236 -236 -301037011 837941220 -570312665 237 -301037013 301037013 -301034054 267625596 -33407950 33406739 -33406738 -509 534633138 -240 -248 255 -288230371889910810 288230371889910811 288230371856498676 -254 -1233 -33407241 -534632898 -336 -534632803 -534633138 -979 -33404885 -892 568041397 2271652 -2271653 534637329 -534637427 -33403986 901 -3591 33408843 570312414 536904480 -570313391 267629072 -536904713 -956 -267629072 301037007 536904220 -536904222 -301037014 835669576 4525 -33408593 -267625596 301029192 4623 -301035795 301036774 -33408678 976 -570313374 -3812 33412473 -835669577 -835669575 267628554 -301037010 837941219 -237 -2958 -238 -33407952 251 -288230371889910745 288230371889910746 -288230371889910747 -8589659029 74394 -23194 23195 288230371856498630 336 534641779 -6404 -534626421 -323 -534632816 534632817 -568040518 -33407615 33405777 -2271638 -534637354 534637355 -534635245 -33406182 -301036773 301036773 267629071 -267629071 301037006 835669589 4537 33405792 2427 -267626083 267625107 570313391 568040519 -835669590 -835669588 267628553 -301037009 837941218 2988 267625565 -288230371889910700 288230371889910701 -191766 117363 18536841 -18485617 -51223 52223 -1020 -51202 52222 -52222 8589606154 -8571122174 8571122173 -8589659021 8589658965 -8589601098 -57923 8589659021 -8571122173 8571122174 -8589658965 52830 8589606191 -8589659022 57780 8589601241 -8589659020 -57922 8589659020 8589658964 -8589659019 74173 8589584847 -18536846 -74173 8589659019 -8589658964 57345 8589601674 -8589659018 -18536845 8589659018 -54 57344 8589658963 -8589601673 -57345 -8589658963 
Potential of Offsets elements: 27.9318 27.9318 0.306758 139.932 27.9318 27.9318 27.9318 27.9318 27.9318 27.9318 60.9318 27.9318 27.9318 27.9318 27.9318 27.9318 81.9318 60.9318 1956.93 35.9318 27.9318 27.9318 27.9318 27.9318 27.9318 812.932 27.9318 27.9318 27.9318 417.932 576.932 901.932 27.9318 27.9318 27.9318 833.932 645.932 39.9318 35.9318 27.9318 33.9318 27.9318 27.9318 27.9318 27.9318 27.9318 34.9318 43.9318 27.9318 508.932 120.932 208.932 67.9318 27.9318 27.9318 160.932 241.932 35.9318 27.9318 27.9318 27.9318 601.932 453.932 375.932 27.9318 159.932 345.932 118.932 90.9318 115.932 27.9318 27.9318 27.9318 27.9318 36.9318 27.9318 27.9318 27.9318 27.9318 27.9318 27.9318 33.9318 27.9318 30.9318 27.9318 27.9318 27.9318 27.9318 27.9318 27.9318 27.9318 234.932 27.9318 27.9318 27.9318 299.932 27.9318 234.932 27.9318 27.9318 27.9318 27.9318 94.9318 183.932 246.932 27.9318 27.9318 27.9318 27.9318 27.9318 27.9318 27.9318 153.932 27.9318 27.9318 27.9318 27.9318 27.9318 28.9318 27.9318 230.932 205.932 27.9318 27.9318 27.9318 27.9318 27.9318 36.9318 75.9318 27.9318 27.9318 1164.93 27.9318 27.9318 27.9318 27.9318 27.9318 27.9318 27.9318 27.9318 27.9318 27.9318 27.9318 27.9318 27.9318 27.9318 27.9318 27.9318 27.9318 81.9318 81.9318 27.9318 27.9318 27.9318 27.9318 27.9318 27.9318 27.9318 27.9318 27.9318 27.9318 27.9318 27.9318 27.9318 27.9318 27.9318 27.9318 27.9318 27.9318 27.9318 27.9318 27.9318 171.932 27.9318 27.9318 54.9318 36.9318 27.9318 27.9318 27.9318 27.9318 27.9318 27.9318 27.9318 27.9318 27.9318 27.9318 69.9318 267.932 27.9318 27.9318 27.9318 27.9318 250.932 27.9318 27.9318 27.9318 27.9318 27.9318 27.9318 27.9318 33.9318 83.9318 498.932 27.9318 27.9318 27.9318 27.9318 27.9318 27.9318 27.9318 27.9318 27.9318 27.9318 27.9318 27.9318 281.932 27.9318 27.9318 27.9318 27.9318 27.9318 27.9318 27.9318 161.932 27.9318 56.9318 27.9318 27.9318 27.9318 507.932 27.9318 27.9318 27.9318 27.9318 27.9318 27.9318 27.9318 27.9318 27.9318 27.9318 27.9318 27.9318 27.9318 27.9318 27.9318 27.9318 27.9318 27.9318 27.9318 27.9318 27.9318 27.9318 27.9318 54.9318 27.9318 27.9318 27.9318 27.9318 27.9318 27.9318 27.9318 27.9318 27.9318 27.9318 27.9318 27.9318 27.9318 27.9318 27.9318 27.9318 27.9318 27.9318 27.9318 922.932 27.9318 27.9318 27.9318 27.9318 27.9318 27.9318 27.9318 27.9318 27.9318 27.9318 27.9318 27.9318 27.9318 27.9318 395.932 27.9318 27.9318 27.9318 27.9318 27.9318 27.9318 27.9318 27.9318 27.9318 27.9318 27.9318 27.9318 27.9318 27.9318 27.9318 27.9318 27.9318 27.9318 27.9318 27.9318 27.9318 27.9318 27.9318 27.9318 27.9318 27.9318 27.9318 27.9318 27.9318 27.9318 27.9318 27.9318 27.9318 27.9318 27.9318 382.932 711.932 47.9318 47.9318 657.932 71.9318 27.9318 82.9318 465.932 116.932 41.9318 29.9318 2202.93 69.9318 27.9318 46.9318 27.9318 27.9318 27.9318 27.9318 27.9318 27.9318 27.9318 27.9318 27.9318 27.9318 27.9318 27.9318 27.9318 27.9318 27.9318 27.9318 27.9318 27.9318 1533.93 27.9318 27.9318 27.9318 27.9318 27.9318 27.9318 27.9318 27.9318 27.9318 366.932 27.9318 27.9318 27.9318 27.9318 27.9318 27.9318 27.9318 27.9318 27.9318 27.9318 27.9318 27.9318 47.9318 42.9318 61.9318 387.932 327.932 67.9318 27.9318 27.9318 27.9318 1486.93 27.9318 27.9318 27.9318 29.9318 27.9318 27.9318 27.9318 151.932 263.932 38.9318 27.9318 27.9318 27.9318 27.9318 37.9318 27.9318 27.9318 78.9318 27.9318 87.9318 27.9318 32.9318 27.9318 27.9318 27.9318 27.9318 27.9318 27.9318 27.9318 27.9318 27.9318 27.9318 27.9318 27.9318 27.9318 31.9318 27.9318 27.9318 27.9318 27.9318 104.932 187.932 27.9318 27.9318 27.9318 62.9318 273.932 162.932 27.9318 27.9318 27.9318 27.9318 27.9318 27.9318 375.932 45.9318 27.9318 27.9318 27.9318 27.9318 27.9318 27.9318 27.9318 27.9318 27.9318 27.9318 27.9318 27.9318 27.9318 27.9318 27.9318 27.9318 27.9318 619.932 27.9318 27.9318 27.9318 27.9318 27.9318 27.9318 27.9318 27.9318 568.932 27.9318 27.9318 27.9318 27.9318 27.9318 27.9318 27.9318 27.9318 27.9318 27.9318 27.9318 27.9318 27.9318 27.9318 31.9318 29.9318 31.9318 27.9318 27.9318 27.9318 426.932 296.932 105.932 89.9318 560.932 27.9318 81.9318 27.9318 27.9318 27.9318 27.9318 27.9318 27.9318 27.9318 27.9318 27.9318 27.9318 27.9318 27.9318 27.9318 27.9318 27.9318 27.9318 985.932 286.932 27.9318 27.9318 27.9318 34.9318 35.9318 27.9318 27.9318 27.9318 27.9318 27.9318 27.9318 27.9318 27.9318 27.9318 27.9318 27.9318 27.9318 27.9318 27.9318 35.9318 27.9318 27.9318 27.9318 27.9318 27.9318 27.9318 56.9318 74.9318 27.9318 27.9318 27.9318 27.9318 27.9318 27.9318 1138.93 27.9318 27.9318 27.9318 27.9318 27.9318 27.9318 27.9318 27.9318 27.9318 27.9318 27.9318 27.9318 27.9318 27.9318 27.9318 27.9318 27.9318 27.9318 27.9318 27.9318 27.9318 27.9318 356.932 27.9318 27.9318 27.9318 27.9318 27.9318 36.9318 27.9318 27.9318 27.9318 27.9318 27.9318 27.9318 27.9318 27.9318 27.9318 27.9318 27.9318 29.9318 27.9318 27.9318 27.9318 27.9318 27.9318 79.9318 27.9318 27.9318 27.9318 27.9318 27.9318 27.9318 27.9318 27.9318 39.9318 27.9318 27.9318 27.9318 27.9318 27.9318 27.9318 29.9318 27.9318 27.9318 27.9318 27.9318 27.9318 27.9318 27.9318 30.9318 27.9318 27.9318 27.9318 27.9318 27.9318 27.9318 27.9318 27.9318 27.9318 27.9318 27.9318 27.9318 27.9318 27.9318 27.9318 27.9318 27.9318 259.932 27.9318 27.9318 27.9318 701.932 27.9318 723.932 27.9318 31.9318 27.9318 109.932 27.9318 27.9318 113.932 27.9318 338.932 27.9318 69.9318 39.9318 27.9318 27.9318 221.932 145.932 234.932 27.9318 179.932 254.932 894.932 263.932 27.9318 27.9318 77.9318 39.9318 27.9318 27.9318 27.9318 27.9318 27.9318 27.9318 27.9318 28.9318 27.9318 33.9318 135.932 2072.93 1661.93 27.9318 1758.93 29.9318 42.9318 27.9318 27.9318 27.9318 27.9318 825.932 27.9318 90.9318 726.932 178.932 27.9318 27.9318 1970.93 27.9318 1038.93 2660.14 423.932 27.9318 27.9318 27.9318 27.9318 27.9318 27.9318 27.9318 27.9318 1827.93 27.9318 31.9318 35.9318 28.9318 27.9318 27.9318 27.9318 33.9318 27.9318 27.9318 27.9318 27.9318 27.9318 27.9318 27.9318 50.9318 27.9318 27.9318 27.9318 27.9318 27.9318 27.9318 27.9318 51.9318 27.9318 53.9318 1213.93 27.9318 27.9318 27.9318 27.9318 27.9318 27.9318 27.9318 27.9318 27.9318 27.9318 40.9318 27.9318 27.9318 27.9318 27.9318 27.9318 27.9318 29.9318 27.9318 50.9318 27.9318 27.9318 58.9318 27.9318 27.9318 27.9318 81.9318 27.9318 285.932 27.9318 34.9318 454.932 267.932 27.9318 73.9318 27.9318 27.9318 27.9318 27.9318 27.9318 27.9318 27.9318 111.932 27.9318 27.9318 32.9318 27.9318 27.9318 68.9318 376.932 27.9318 58.9318 27.9318 159.932 641.932 27.9318 768.932 27.9318 147.932 27.9318 573.932 27.9318 27.9318 1222.93 117.932 27.9318 27.9318 263.932 578.932 813.932 957.932 27.9318 27.9318 27.9318 69.9318 27.9318 27.9318 27.9318 27.9318 27.9318 27.9318 27.9318 27.9318 27.9318 59.9318 43.9318 27.9318 39.9318 86.9318 27.9318 35.9318 162.932 27.9318 98.9318 27.9318 130.932 27.9318 27.9318 115.932 39.9318 27.9318 84.9318 64.9318 74.9318 27.9318 27.9318 27.9318 27.9318 27.9318 27.9318 27.9318 61.9318 52.9318 61.9318 27.9318 49.9318 108.932 27.9318 27.9318 27.9318 42.9318 27.9318 27.9318 27.9318 27.9318 27.9318 27.9318 27.9318 27.9318 27.9318 27.9318 27.9318 27.9318 27.9318 35.9318 27.9318 27.9318 32.9318 39.9318 27.9318 27.9318 27.9318 27.9318 28.9318 27.9318 27.9318 27.9318 27.9318 27.9318 27.9318 27.9318 27.9318 27.9318 46.9318 31.9318 27.9318 27.9318 27.9318 27.9318 27.9318 27.9318 33.9318 27.9318 34.9318 27.9318 27.9318 27.9318 27.9318 27.9318 27.9318 27.9318 27.9318 27.9318 27.9318 27.9318 27.9318 27.9318 27.9318 27.9318 27.9318 27.9318 27.9318 27.9318 27.9318 29.9318 27.9318 27.9318 27.9318 27.9318 27.9318 27.9318 27.9318 27.9318 27.9318 27.9318 27.9318 27.9318 27.9318 27.9318 27.9318 27.9318 27.9318 27.9318 27.9318 27.9318 27.9318 27.9318 27.9318 27.9318 27.9318 28.9318 27.9318 27.9318 27.9318 27.9318 27.9318 27.9318 27.9318 27.9318 27.9318 27.9318 27.9318 27.9318 27.9318 27.9318 27.9318 27.9318 27.9318 27.9318 27.9318 27.9318 27.9318 27.9318 27.9318 27.9318 27.9318 27.9318 27.9318 27.9318 27.9318 27.9318 27.9318 27.9318 27.9318 27.9318 66.9318 27.9318 27.9318 27.9318 27.9318 27.9318 27.9318 27.9318 27.9318 27.9318 27.9318 27.9318 27.9318 27.9318 27.9318 27.9318 27.9318 27.9318 27.9318 27.9318 27.9318 27.9318 27.9318 27.9318 27.9318 27.9318 33.9318 27.9318 27.9318 27.9318 27.9318 27.9318 27.9318 27.9318 27.9318 27.9318 27.9318 27.9318 27.9318 27.9318 27.9318 27.9318 27.9318 27.9318 27.9318 27.9318 27.9318 27.9318 27.9318 27.9318 27.9318 27.9318 27.9318 27.9318 27.9318 27.9318 27.9318 27.9318 27.9318 27.9318 27.9318 27.9318 27.9318 27.9318 27.9318 27.9318 27.9318 27.9318 27.9318 27.9318 27.9318 27.9318 141.932 27.9318 27.9318 27.9318 27.9318 27.9318 27.9318 27.9318 27.9318 27.9318 27.9318 27.9318 27.9318 27.9318 27.9318 27.9318 27.9318 27.9318 27.9318 27.9318 27.9318 27.9318 27.9318 27.9318 27.9318 27.9318 27.9318 27.9318 27.9318 27.9318 27.9318 27.9318 27.9318 27.9318 27.9318 27.9318 27.9318 29.9318 27.9318 27.9318 27.9318 27.9318 27.9318 27.9318 27.9318 27.9318 27.9318 27.9318 27.9318 27.9318 27.9318 27.9318 27.9318 27.9318 27.9318 27.9318 27.9318 27.9318 27.9318 27.9318 27.9318 27.9318 28.9318 27.9318 27.9318 27.9318 27.9318 27.9318 27.9318 27.9318 27.9318 27.9318 27.9318 27.9318 27.9318 27.9318 27.9318 27.9318 27.9318 27.9318 27.9318 27.9318 27.9318 27.9318 27.9318 27.9318 27.9318 27.9318 27.9318 27.9318 27.9318 27.9318 27.9318 27.9318 27.9318 27.9318 27.9318 27.9318 27.9318 27.9318 27.9318 27.9318 27.9318 27.9318 27.9318 27.9318 27.9318 27.9318 27.9318 27.9318 27.9318 27.9318 27.9318 27.9318 27.9318 27.9318 27.9318 27.9318 27.9318 27.9318 27.9318 27.9318 27.9318 27.9318 27.9318 27.9318 27.9318 27.9318 27.9318 27.9318 27.9318 27.9318 27.9318 57.9318 27.9318 27.9318 27.9318 27.9318 27.9318 27.9318 27.9318 94.9318 27.9318 27.9318 27.9318 27.9318 27.9318 61.9318 27.9318 27.9318 27.9318 27.9318 27.9318 27.9318 27.9318 27.9318 27.9318 27.9318 27.9318 38.9318 27.9318 27.9318 27.9318 27.9318 27.9318 29.9318 27.9318 27.9318 27.9318 27.9318 27.9318 27.9318 27.9318 27.9318 27.9318 27.9318 27.9318 51.9318 27.9318 30.9318 27.9318 27.9318 27.9318 27.9318 27.9318 27.9318 49.9318 27.9318 27.9318 27.9318 27.9318 27.9318 27.9318 27.9318 27.9318 27.9318 27.9318 27.9318 27.9318 27.9318 27.9318 27.9318 27.9318 27.9318 27.9318 27.9318 27.9318 27.9318 27.9318 27.9318 27.9318 27.9318 27.9318 27.9318 27.9318 27.9318 27.9318 27.9318 27.9318 27.9318 27.9318 27.9318 27.9318 27.9318 27.9318 27.9318 27.9318 27.9318 27.9318 27.9318 27.9318 27.9318 27.9318 27.9318 27.9318 27.9318 27.9318 27.9318 27.9318 27.9318 27.9318 27.9318 27.9318 27.9318 27.9318 27.9318 27.9318 27.9318 27.9318 27.9318 27.9318 27.9318 27.9318 27.9318 27.9318 27.9318 27.9318 27.9318 27.9318 27.9318 27.9318 27.9318 27.9318 27.9318 27.9318 27.9318 27.9318 27.9318 27.9318 27.9318 27.9318 27.9318 27.9318 27.9318 27.9318 27.9318 27.9318 27.9318 907.932 27.9318 27.9318 27.9318 27.9318 27.9318 
rewards of Offsets elements: 0 0 0 112 0 0 0 0 0 0 33 0 0 0 0 0 54 33 1929 8 0 0 0 0 0 785 0 0 0 390 549 874 0 0 0 806 618 12 8 0 6 0 0 0 0 0 7 16 0 481 93 181 40 0 0 133 214 8 0 0 0 574 426 348 0 132 318 91 63 88 0 0 0 0 9 0 0 0 0 0 0 6 0 3 0 0 0 0 0 0 0 207 0 0 0 272 0 207 0 0 0 0 67 156 219 0 0 0 0 0 0 0 126 0 0 0 0 0 1 0 203 178 0 0 0 0 0 9 48 0 0 1137 0 0 0 0 0 0 0 0 0 0 0 0 0 0 0 0 0 54 54 0 0 0 0 0 0 0 0 0 0 0 0 0 0 0 0 0 0 0 0 0 144 0 0 27 9 0 0 0 0 0 0 0 0 0 0 42 240 0 0 0 0 223 0 0 0 0 0 0 0 6 56 471 0 0 0 0 0 0 0 0 0 0 0 0 254 0 0 0 0 0 0 0 134 0 29 0 0 0 480 0 0 0 0 0 0 0 0 0 0 0 0 0 0 0 0 0 0 0 0 0 0 0 27 0 0 0 0 0 0 0 0 0 0 0 0 0 0 0 0 0 0 0 895 0 0 0 0 0 0 0 0 0 0 0 0 0 0 368 0 0 0 0 0 0 0 0 0 0 0 0 0 0 0 0 0 0 0 0 0 0 0 0 0 0 0 0 0 0 0 0 0 0 0 355 684 20 20 630 44 0 55 438 89 14 2 2175 42 0 19 0 0 0 0 0 0 0 0 0 0 0 0 0 0 0 0 0 0 1506 0 0 0 0 0 0 0 0 0 339 0 0 0 0 0 0 0 0 0 0 0 0 20 15 34 360 300 40 0 0 0 1459 0 0 0 2 0 0 0 124 236 11 0 0 0 0 10 0 0 51 0 60 0 5 0 0 0 0 0 0 0 0 0 0 0 0 0 4 0 0 0 0 77 160 0 0 0 35 246 135 0 0 0 0 0 0 348 18 0 0 0 0 0 0 0 0 0 0 0 0 0 0 0 0 0 592 0 0 0 0 0 0 0 0 541 0 0 0 0 0 0 0 0 0 0 0 0 0 0 4 2 4 0 0 0 399 269 78 62 533 0 54 0 0 0 0 0 0 0 0 0 0 0 0 0 0 0 0 958 259 0 0 0 7 8 0 0 0 0 0 0 0 0 0 0 0 0 0 0 8 0 0 0 0 0 0 29 47 0 0 0 0 0 0 1111 0 0 0 0 0 0 0 0 0 0 0 0 0 0 0 0 0 0 0 0 0 0 329 0 0 0 0 0 9 0 0 0 0 0 0 0 0 0 0 0 2 0 0 0 0 0 52 0 0 0 0 0 0 0 0 12 0 0 0 0 0 0 2 0 0 0 0 0 0 0 3 0 0 0 0 0 0 0 0 0 0 0 0 0 0 0 0 0 232 0 0 0 674 0 696 0 4 0 82 0 0 86 0 311 0 42 12 0 0 194 118 207 0 152 227 867 236 0 0 50 12 0 0 0 0 0 0 0 1 0 6 108 2045 1634 0 1731 2 15 0 0 0 0 798 0 63 699 151 0 0 1943 0 1011 2660 396 0 0 0 0 0 0 0 0 1800 0 4 8 1 0 0 0 6 0 0 0 0 0 0 0 23 0 0 0 0 0 0 0 24 0 26 1186 0 0 0 0 0 0 0 0 0 0 13 0 0 0 0 0 0 2 0 23 0 0 31 0 0 0 54 0 258 0 7 427 240 0 46 0 0 0 0 0 0 0 84 0 0 5 0 0 41 349 0 31 0 132 614 0 741 0 120 0 546 0 0 1195 90 0 0 236 551 786 930 0 0 0 42 0 0 0 0 0 0 0 0 0 32 16 0 12 59 0 8 135 0 71 0 103 0 0 88 12 0 57 37 47 0 0 0 0 0 0 0 34 25 34 0 22 81 0 0 0 15 0 0 0 0 0 0 0 0 0 0 0 0 0 8 0 0 5 12 0 0 0 0 1 0 0 0 0 0 0 0 0 0 19 4 0 0 0 0 0 0 6 0 7 0 0 0 0 0 0 0 0 0 0 0 0 0 0 0 0 0 0 0 0 2 0 0 0 0 0 0 0 0 0 0 0 0 0 0 0 0 0 0 0 0 0 0 0 0 0 1 0 0 0 0 0 0 0 0 0 0 0 0 0 0 0 0 0 0 0 0 0 0 0 0 0 0 0 0 0 0 0 0 0 0 39 0 0 0 0 0 0 0 0 0 0 0 0 0 0 0 0 0 0 0 0 0 0 0 0 0 6 0 0 0 0 0 0 0 0 0 0 0 0 0 0 0 0 0 0 0 0 0 0 0 0 0 0 0 0 0 0 0 0 0 0 0 0 0 0 0 0 0 0 0 0 0 114 0 0 0 0 0 0 0 0 0 0 0 0 0 0 0 0 0 0 0 0 0 0 0 0 0 0 0 0 0 0 0 0 0 0 0 0 2 0 0 0 0 0 0 0 0 0 0 0 0 0 0 0 0 0 0 0 0 0 0 0 0 1 0 0 0 0 0 0 0 0 0 0 0 0 0 0 0 0 0 0 0 0 0 0 0 0 0 0 0 0 0 0 0 0 0 0 0 0 0 0 0 0 0 0 0 0 0 0 0 0 0 0 0 0 0 0 0 0 0 0 0 0 0 0 0 0 0 0 0 0 0 0 30 0 0 0 0 0 0 0 67 0 0 0 0 0 34 0 0 0 0 0 0 0 0 0 0 0 11 0 0 0 0 0 2 0 0 0 0 0 0 0 0 0 0 0 24 0 3 0 0 0 0 0 0 22 0 0 0 0 0 0 0 0 0 0 0 0 0 0 0 0 0 0 0 0 0 0 0 0 0 0 0 0 0 0 0 0 0 0 0 0 0 0 0 0 0 0 0 0 0 0 0 0 0 0 0 0 0 0 0 0 0 0 0 0 0 0 0 0 0 0 0 0 0 0 0 0 0 0 0 0 0 0 0 0 0 0 0 0 0 0 0 0 0 0 0 880 0 0 0 0 0 Printing Sanity3
offset_index value1346
offset list size1346
reward size1346
potential size1346
-----------------------------------------------------------------------------------------------------------------------------------------------------------------------------------------------------

DRAM Statistics
 CHANNEL 0
 RQ ROW_BUFFER_HIT:     272711  ROW_BUFFER_MISS:     487927
 DBUS_CONGESTED:        614
 WQ ROW_BUFFER_HIT:     138691  ROW_BUFFER_MISS:     382441  FULL:          0

 AVG_CONGESTED_CYCLE: 3
 All warmup complete: 2
Channel 0 Bank busy for read cycles: 0
Channel 0 Bank busy for write cycles: 0
Channel 0
Rank 0
0banks busy for read cycles: 246036841
0banks busy for write cycles: 108535
1banks busy for read cycles: 33116154
1banks busy for write cycles: 15727274
2banks busy for read cycles: 5705410
2banks busy for write cycles: 6457871
3banks busy for read cycles: 3312251
3banks busy for write cycles: 2841972
4banks busy for read cycles: 1373745
4banks busy for write cycles: 1186621
5banks busy for read cycles: 1229288
5banks busy for write cycles: 781669
6banks busy for read cycles: 760943
6banks busy for write cycles: 733234
7banks busy for read cycles: 649420
7banks busy for write cycles: 1068846
8banks busy for read cycles: 1493306
8banks busy for write cycles: 4690318

CPU 0 Branch Prediction Accuracy: 98.7615% MPKI: 2.30067 Average ROB Occupancy at Mispredict: 18.239
Branch types
NOT_BRANCH: 162847965 81.424%
BRANCH_DIRECT_JUMP: 1668733 0.834366%
BRANCH_INDIRECT: 12964857 6.48243%
BRANCH_CONDITIONAL: 14916687 7.45834%
BRANCH_DIRECT_CALL: 3293738 1.64687%
BRANCH_INDIRECT_CALL: 505068 0.252534%
BRANCH_RETURN: 3802664 1.90133%
BRANCH_OTHER: 0 0%

DRAM PAGES: 1048576
Allocated PAGES: 5106
