
*** ChampSim Multicore Out-of-Order Simulator ***

Warmup Instructions: 50000000
Simulation Instructions: 200000000
Number of CPUs: 1
LLC sets: 2048
LLC ways: 16
Off-chip DRAM Size: 4096 MB Channels: 1 Width: 64-bit Data Rate: 6400 MT/s
CPU 0 runs traces/spec2k17/server_003.champsimtrace.xz
.xz
BTB has LRU replacement policy
ITLB has LRU replacement policy
DTLB has LRU replacement policy
STLB has LRU replacement policy
L1I has LRU replacement policy
L1D has LRU replacement policy
Initialize SRRIP state for L2C
Initialize DRRIP state for LLC
Heartbeat CPU 0 instructions: 10000001 cycles: 2785372 heartbeat IPC: 3.59019 cumulative IPC: 3.59019 (Simulation time: 0 hr 0 min 37 sec) 
Heartbeat CPU 0 instructions: 20000000 cycles: 5597121 heartbeat IPC: 3.5565 cumulative IPC: 3.57327 (Simulation time: 0 hr 1 min 13 sec) 
Heartbeat CPU 0 instructions: 30000000 cycles: 8375029 heartbeat IPC: 3.59983 cumulative IPC: 3.58208 (Simulation time: 0 hr 1 min 51 sec) 
Heartbeat CPU 0 instructions: 40000001 cycles: 11186237 heartbeat IPC: 3.55719 cumulative IPC: 3.57582 (Simulation time: 0 hr 2 min 28 sec) 
Heartbeat CPU 0 instructions: 50000002 cycles: 14131583 heartbeat IPC: 3.39519 cumulative IPC: 3.53817 (Simulation time: 0 hr 3 min 10 sec) 

Warmup complete CPU 0 instructions: 50000002 cycles: 14131583 (Simulation time: 0 hr 3 min 10 sec) 

Offsets elements: 
Potential of Offsets elements: 
rewards of Offsets elements: 
Printing Sanity1
offset list size2173
Offsets elements: 
Potential of Offsets elements: 
rewards of Offsets elements: 2067 0 1749 0 0 0 0 0 0 0 353 2254 0 0 0 0 0 0 0 0 0 327 177 37 223 364 0 0 0 0 0 0 0 0 0 0 0 0 0 0 0 0 69 0 0 0 0 0 0 0 0 208 0 0 0 0 0 137 0 0 218 0 0 0 0 126 0 0 1 0 0 0 0 0 0 0 0 0 0 0 0 0 0 0 0 0 0 0 0 0 0 0 1 0 74 0 0 0 0 21 0 0 0 0 0 0 0 73 85 0 0 0 0 0 438 0 0 0 74 25 0 91 0 0 0 0 0 0 0 0 512 0 0 0 0 0 0 0 0 0 0 0 0 0 0 0 0 0 0 0 0 0 0 7 0 0 0 0 0 0 0 0 0 48 0 0 0 0 0 74 0 0 0 0 0 0 0 0 0 0 0 35 0 0 0 0 0 0 0 0 0 0 1304 0 0 0 0 0 0 0 0 0 0 0 196 0 4 0 0 0 0 0 0 0 41 0 0 0 0 0 0 0 0 0 0 0 0 0 0 0 0 0 0 0 1 0 0 0 0 0 0 0 0 0 0 0 0 0 0 0 0 0 0 0 0 0 0 0 0 0 0 0 0 0 0 0 0 0 0 0 4 0 596 0 0 0 0 0 0 0 0 0 0 0 0 0 0 0 0 0 0 0 0 0 0 0 0 0 18 0 0 0 0 0 0 0 0 0 0 0 0 0 0 0 0 0 0 0 0 0 79 0 0 0 0 0 0 0 0 0 0 0 0 0 0 0 0 0 0 0 0 0 0 0 0 0 0 0 2 0 0 0 0 0 0 0 0 6 0 0 0 0 159 0 0 0 0 0 0 0 0 0 0 0 0 0 0 0 0 0 0 0 0 0 0 0 0 0 0 0 0 0 11 0 0 51 0 0 0 0 0 0 0 0 0 0 0 0 0 0 0 12 0 0 0 0 0 0 0 0 0 0 0 0 0 0 0 0 0 0 3 0 0 0 0 0 0 0 0 0 0 0 0 0 0 0 0 0 0 0 0 0 0 0 0 423 0 0 0 0 0 0 0 0 0 0 0 0 30 0 0 0 0 0 0 0 0 0 0 0 0 0 0 20 0 0 0 0 116 0 0 0 0 0 0 0 0 0 0 0 0 0 0 0 0 0 0 0 0 0 0 0 0 0 0 0 0 0 0 0 0 0 0 0 0 0 0 0 0 0 0 0 0 0 0 0 0 0 0 0 0 0 0 0 0 0 0 0 0 0 0 0 0 0 0 3 0 0 0 0 0 0 0 0 0 0 0 0 0 0 0 0 0 0 10 0 0 0 0 0 0 0 24 0 0 0 0 0 0 0 0 0 0 0 0 0 0 0 0 29 0 0 0 0 0 0 0 0 79 0 0 0 0 0 0 0 0 0 0 0 0 0 0 0 0 0 0 0 0 1 0 0 0 0 0 0 0 0 0 0 0 0 0 0 0 0 2 0 0 0 0 0 0 0 0 0 0 10 0 0 0 0 0 0 0 0 0 0 0 0 0 0 0 0 0 0 0 0 0 0 0 0 0 0 0 0 0 0 0 0 0 0 0 6 0 0 0 0 0 2 0 0 0 0 0 0 0 0 0 0 0 0 0 0 0 0 47 0 0 0 0 0 0 0 0 0 0 0 0 0 0 0 0 0 0 0 0 0 0 0 0 0 0 0 0 0 0 0 0 0 0 0 0 0 0 0 0 0 0 0 0 0 0 0 0 0 0 0 0 0 0 0 0 0 0 0 0 865 0 0 0 0 0 0 0 0 0 63 0 0 0 0 0 0 0 70 0 0 0 0 0 0 0 0 0 0 0 0 0 212 3 14 0 0 0 0 0 0 0 0 0 0 0 0 0 0 0 0 0 0 0 0 0 0 0 0 0 0 0 0 0 0 0 0 0 0 0 0 0 0 0 0 0 0 0 0 0 0 0 0 0 0 0 0 0 0 0 0 0 0 0 0 0 0 0 0 0 0 0 0 0 0 0 0 0 0 0 0 0 0 0 0 0 0 0 0 0 0 0 0 0 0 0 0 0 0 0 0 0 0 0 0 0 0 0 0 0 0 0 0 0 0 0 0 0 0 0 0 0 0 0 0 0 6 0 0 0 0 0 0 0 0 0 0 0 0 0 0 0 0 36 0 0 6 0 0 0 0 0 0 0 0 0 0 0 0 0 0 0 0 0 0 0 0 0 0 0 0 0 0 0 0 0 0 0 0 0 0 0 0 0 0 0 0 0 0 0 0 0 0 0 0 0 0 0 0 0 0 0 0 0 0 0 0 0 0 0 0 0 0 0 0 0 0 0 0 0 0 0 0 0 0 0 0 0 0 114 0 0 0 0 0 0 0 0 0 0 0 0 0 0 0 0 0 0 0 0 0 0 0 0 0 0 0 0 0 0 0 4 0 0 0 0 0 0 0 0 0 0 0 0 0 0 0 0 0 0 0 0 0 0 0 0 0 0 0 0 0 0 0 0 51 0 0 0 0 0 0 0 0 0 339 0 0 0 605 0 0 0 0 0 0 0 0 0 0 0 0 0 0 0 0 0 0 0 0 0 0 0 0 0 0 0 0 0 0 0 0 0 0 0 0 0 0 0 0 0 0 0 0 0 0 0 0 0 0 0 0 0 0 0 0 0 0 0 0 0 0 0 0 0 0 0 0 0 0 0 0 0 0 0 0 10 0 0 0 0 0 0 0 0 0 0 0 0 0 0 0 0 0 0 0 0 0 0 0 0 0 0 0 0 0 0 0 0 0 0 0 0 0 0 0 0 0 0 0 0 0 0 0 0 0 0 0 0 0 0 0 0 0 0 0 0 0 0 0 0 0 0 0 0 0 0 0 0 0 0 0 0 0 0 0 0 0 0 0 0 0 0 0 0 0 0 0 0 0 0 0 0 0 0 0 0 0 0 0 0 0 0 0 0 0 0 0 0 0 0 0 0 0 0 0 0 0 0 0 0 0 0 0 0 0 0 0 0 0 0 0 0 0 0 0 0 0 0 0 0 0 0 0 0 0 0 0 0 0 0 0 0 0 0 0 0 0 0 0 0 0 0 0 0 0 0 0 0 0 0 0 0 0 13 0 0 0 0 0 0 0 0 0 0 0 0 0 0 0 0 0 0 0 0 0 0 0 0 0 0 0 0 0 0 0 0 0 0 0 0 0 0 0 0 0 0 0 0 0 0 0 0 0 0 0 0 0 0 0 0 0 0 0 0 0 0 0 0 0 0 0 0 0 0 0 0 0 0 0 0 0 0 0 0 0 0 0 0 0 0 0 0 0 0 0 0 0 0 0 0 0 0 0 0 0 0 0 0 0 0 0 0 0 0 0 0 0 0 0 0 0 0 0 0 0 0 0 0 0 0 0 0 0 0 0 0 0 0 0 0 0 0 0 0 0 0 0 0 0 0 0 0 0 0 0 0 0 0 0 0 0 0 0 0 0 0 0 0 0 0 0 0 0 471 0 0 0 0 0 0 0 0 0 0 0 0 0 0 0 0 0 0 0 0 0 0 0 0 0 0 0 0 0 0 0 0 0 0 0 0 0 0 0 0 0 0 0 0 0 0 0 0 0 0 0 6 0 0 11 0 0 0 0 0 0 0 0 0 0 0 0 0 0 0 0 0 0 0 0 0 313 0 0 0 0 83 0 0 0 0 0 0 1 0 0 0 0 0 0 0 0 0 0 0 0 0 0 0 0 0 0 0 0 0 0 0 0 0 0 0 0 0 0 0 0 0 0 0 0 0 0 0 0 0 0 0 0 0 0 0 0 0 0 0 0 0 0 0 0 0 0 0 0 0 0 0 0 0 0 0 0 0 0 0 0 0 0 0 0 0 0 0 0 0 0 0 0 0 0 0 0 0 0 0 0 0 0 0 0 0 0 0 0 0 0 0 0 0 0 0 0 0 0 0 0 0 0 0 0 0 0 0 0 0 0 0 0 0 0 0 0 0 0 0 0 0 0 0 0 0 0 47 0 0 0 0 0 0 0 0 0 0 0 0 0 0 0 0 0 0 0 18 0 0 0 0 0 0 0 0 0 0 0 0 0 0 0 0 0 0 0 0 0 0 0 0 0 0 2 0 0 0 0 0 0 0 0 0 0 0 0 0 61 0 0 0 0 0 0 0 0 0 0 0 0 0 0 0 0 0 0 0 0 0 0 0 0 0 0 0 0 0 0 0 0 0 0 0 0 3 0 0 0 0 0 0 0 0 0 0 0 0 0 0 0 0 0 3 0 0 0 0 0 0 0 0 0 0 0 0 0 0 0 0 0 15 0 0 0 0 0 0 0 0 0 0 0 0 0 0 0 0 0 0 0 0 0 0 0 1 0 0 0 0 0 0 0 109 0 0 0 0 0 0 0 0 0 0 0 0 0 0 0 0 0 0 0 0 0 0 789 0 0 0 0 0 0 0 0 0 0 0 0 0 0 0 0 0 0 0 0 0 0 0 0 0 0 0 0 0 0 0 0 0 0 0 0 0 0 0 0 0 0 0 0 0 0 0 0 0 0 13 0 0 0 0 0 0 0 0 0 0 0 0 83 0 0 0 0 0 0 0 0 0 0 0 0 159 0 0 0 0 0 0 1 0 0 0 0 0 0 0 0 0 0 0 0 0 0 0 0 0 0 0 0 0 0 0 0 0 0 0 0 0 0 0 0 0 0 0 0 0 0 0 0 0 0 0 0 0 0 0 0 0 0 0 0 0 0 0 0 8 0 0 0 0 0 0 2 0 0 12 0 0 0 0 0 0 0 0 0 0 0 0 0 0 0 0 0 0 0 0 0 0 0 0 0 0 0 0 0 0 0 0 0 0 0 0 0 0 0 0 0 0 0 0 0 0 0 0 0 0 0 0 0 0 0 0 0 0 0 0 0 0 0 0 
Printing Sanity2
Heartbeat CPU 0 instructions: 60000000 cycles: 44436800 heartbeat IPC: 0.329976 cumulative IPC: 0.329976 (Simulation time: 0 hr 4 min 18 sec) 
Heartbeat CPU 0 instructions: 70000001 cycles: 70279839 heartbeat IPC: 0.386951 cumulative IPC: 0.3562 (Simulation time: 0 hr 5 min 20 sec) 
Heartbeat CPU 0 instructions: 80000003 cycles: 98291154 heartbeat IPC: 0.356999 cumulative IPC: 0.356466 (Simulation time: 0 hr 6 min 26 sec) 
Heartbeat CPU 0 instructions: 90000000 cycles: 125417985 heartbeat IPC: 0.368639 cumulative IPC: 0.359433 (Simulation time: 0 hr 7 min 31 sec) 
Heartbeat CPU 0 instructions: 100000000 cycles: 152812176 heartbeat IPC: 0.365041 cumulative IPC: 0.360541 (Simulation time: 0 hr 8 min 34 sec) 
*** Reached end of trace for Core: 0 Repeating trace: traces/spec2k17/server_003.champsimtrace.xz
Heartbeat CPU 0 instructions: 110000000 cycles: 178146788 heartbeat IPC: 0.394717 cumulative IPC: 0.36582 (Simulation time: 0 hr 9 min 36 sec) 
Heartbeat CPU 0 instructions: 120000002 cycles: 207342614 heartbeat IPC: 0.342515 cumulative IPC: 0.362298 (Simulation time: 0 hr 10 min 40 sec) 
Heartbeat CPU 0 instructions: 130000001 cycles: 231876130 heartbeat IPC: 0.407606 cumulative IPC: 0.367403 (Simulation time: 0 hr 11 min 42 sec) 
Heartbeat CPU 0 instructions: 140000000 cycles: 258301315 heartbeat IPC: 0.378427 cumulative IPC: 0.368596 (Simulation time: 0 hr 12 min 45 sec) 
Heartbeat CPU 0 instructions: 150000002 cycles: 285367449 heartbeat IPC: 0.369465 cumulative IPC: 0.368683 (Simulation time: 0 hr 13 min 52 sec) 
Heartbeat CPU 0 instructions: 160000001 cycles: 315279768 heartbeat IPC: 0.33431 cumulative IPC: 0.365269 (Simulation time: 0 hr 15 min 0 sec) 
Heartbeat CPU 0 instructions: 170000001 cycles: 340838129 heartbeat IPC: 0.391261 cumulative IPC: 0.367302 (Simulation time: 0 hr 16 min 2 sec) 
Heartbeat CPU 0 instructions: 180000000 cycles: 369360684 heartbeat IPC: 0.3506 cumulative IPC: 0.365961 (Simulation time: 0 hr 17 min 7 sec) 
Heartbeat CPU 0 instructions: 190000002 cycles: 396235660 heartbeat IPC: 0.372093 cumulative IPC: 0.366392 (Simulation time: 0 hr 18 min 14 sec) 
Heartbeat CPU 0 instructions: 200000003 cycles: 423536716 heartbeat IPC: 0.366286 cumulative IPC: 0.366385 (Simulation time: 0 hr 19 min 18 sec) 
*** Reached end of trace for Core: 0 Repeating trace: traces/spec2k17/server_003.champsimtrace.xz
Heartbeat CPU 0 instructions: 210000003 cycles: 449274579 heartbeat IPC: 0.388533 cumulative IPC: 0.367695 (Simulation time: 0 hr 20 min 21 sec) 
Heartbeat CPU 0 instructions: 220000000 cycles: 476305681 heartbeat IPC: 0.369944 cumulative IPC: 0.367827 (Simulation time: 0 hr 21 min 25 sec) 
Heartbeat CPU 0 instructions: 230000001 cycles: 502908277 heartbeat IPC: 0.375903 cumulative IPC: 0.368266 (Simulation time: 0 hr 22 min 29 sec) 
Heartbeat CPU 0 instructions: 240000002 cycles: 527281394 heartbeat IPC: 0.410288 cumulative IPC: 0.370262 (Simulation time: 0 hr 23 min 31 sec) 
Heartbeat CPU 0 instructions: 250000000 cycles: 556161403 heartbeat IPC: 0.34626 cumulative IPC: 0.368983 (Simulation time: 0 hr 24 min 40 sec) 
Finished CPU 0 instructions: 200000002 cycles: 542029821 cumulative IPC: 0.368983 (Simulation time: 0 hr 24 min 40 sec) 

ChampSim completed all CPUs

Region of Interest Statistics

CPU 0 cumulative IPC: 0.368983 instructions: 200000002 cycles: 542029821
ITLB TOTAL     ACCESS:   33480558  HIT:   32855585  MISS:     624973  HIT %:    98.1333  MISS %:    1.86667   MPKI: 3.12486
ITLB LOAD TRANSLATION ACCESS:   33480558  HIT:   32855585  MISS:     624973  HIT %:    98.1333  MISS %:    1.86667   MPKI: 3.12486
ITLB PREFETCH  REQUESTED:          0  ISSUED:          0  USEFUL:          0  USELESS:          0
ITLB USEFUL LOAD PREFETCHES:          0 PREFETCH ISSUED TO LOWER LEVEL:          0  ACCURACY: -nan
ITLB TIMELY PREFETCHES:          0 LATE PREFETCHES: 0 DROPPED PREFETCHES: 0
ITLB PREFETCHES SAME FILL-ORIGIN LEVEL: 0 DIFFERENT FILL-ORIGIN LEVEL: 0
ITLB AVERAGE MISS LATENCY: 15.8199 cycles
ITLB RQ	ACCESS:   39700232	FORWARD:          0	MERGED:    6067064	TO_CACHE:   33633168

DTLB TOTAL     ACCESS:   41861523  HIT:   39996685  MISS:    1864838  HIT %:    95.5452  MISS %:    4.45478   MPKI: 9.32419
DTLB LOAD TRANSLATION ACCESS:   41861523  HIT:   39996685  MISS:    1864838  HIT %:    95.5452  MISS %:    4.45478   MPKI: 9.32419
DTLB PREFETCH  REQUESTED:          0  ISSUED:          0  USEFUL:          0  USELESS:          0
DTLB USEFUL LOAD PREFETCHES:          0 PREFETCH ISSUED TO LOWER LEVEL:          0  ACCURACY: -nan
DTLB TIMELY PREFETCHES:          0 LATE PREFETCHES: 0 DROPPED PREFETCHES: 0
DTLB PREFETCHES SAME FILL-ORIGIN LEVEL: 0 DIFFERENT FILL-ORIGIN LEVEL: 0
DTLB AVERAGE MISS LATENCY: 14.761 cycles
DTLB RQ	ACCESS:   52597106	FORWARD:          0	MERGED:   10627983	TO_CACHE:   41969123

STLB TOTAL     ACCESS:   10735264  HIT:   10405624  MISS:     329640  HIT %:    96.9294  MISS %:    3.07063   MPKI: 1.6482
STLB LOAD TRANSLATION ACCESS:    2489811  HIT:    2162151  MISS:     327660  HIT %:      86.84  MISS %:      13.16   MPKI: 1.6383
STLB TRANSLATION FROM L1D PREFETCHER ACCESS:    8245453  HIT:    8243473  MISS:       1980  HIT %:     99.976  MISS %:  0.0240132   MPKI: 0.0099
STLB PREFETCH  REQUESTED:          0  ISSUED:          0  USEFUL:       1863  USELESS:        116
STLB USEFUL LOAD PREFETCHES:       1863 PREFETCH ISSUED TO LOWER LEVEL:          0  ACCURACY: inf
STLB TIMELY PREFETCHES:       1863 LATE PREFETCHES: 147 DROPPED PREFETCHES: 19741
STLB PREFETCHES SAME FILL-ORIGIN LEVEL: 0 DIFFERENT FILL-ORIGIN LEVEL: 0
STLB AVERAGE MISS LATENCY: 45.5985 cycles
STLB RQ	ACCESS:   12202995	FORWARD:          0	MERGED:    1447488	TO_CACHE:   10755507

STLB Hit, L1D data hit: 0
STLB Hit, L2C data hit: 0
STLB Hit, LLC data hit: 0
STLB Hit, LLC data miss: 0
STLB STLB hints to L2: 0
L1D TOTAL     ACCESS:   61304740  HIT:   57938043  MISS:    3366697  HIT %:    94.5083  MISS %:    5.49174   MPKI: 16.8335
L1D LOAD      ACCESS:   33268868  HIT:   31142508  MISS:    2126360  HIT %:    93.6086  MISS %:    6.39144   MPKI: 10.6318
L1D RFO       ACCESS:   18596251  HIT:   18147935  MISS:     448316  HIT %:    97.5892  MISS %:    2.41079   MPKI: 2.24158
L1D PREFETCH  ACCESS:    9439621  HIT:    8647600  MISS:     792021  HIT %:    91.6096  MISS %:    8.39039   MPKI: 3.9601
AGUS PREFETCH L1 MISS: 0
L1D PREFETCH  REQUESTED:   19684632  ISSUED:   19684462  USEFUL:     297039  USELESS:     494868
L1D USEFUL LOAD PREFETCHES:     297039 PREFETCH ISSUED TO LOWER LEVEL:     842317  ACCURACY: 35.2645
L1D TIMELY PREFETCHES:     297039 LATE PREFETCHES: 45688 DROPPED PREFETCHES: 19836
L1D PREFETCHES SAME FILL-ORIGIN LEVEL: 842317 DIFFERENT FILL-ORIGIN LEVEL: 0
L1D AVERAGE MISS LATENCY: 4.49715e+06 cycles
L1D RQ	ACCESS:   48989918	FORWARD:          0	MERGED:   15352374	TO_CACHE:   33404231
L1D WQ	ACCESS:   19494845	FORWARD:     243295	MERGED:     301970	TO_CACHE:   19192875
L1D PQ	ACCESS:    9971278	FORWARD:          0	MERGED:     248112	TO_CACHE:    9713184

L1D UNIQUE REGIONS ACCESSED: 0
L1D REGIONS CONFLICTS: 0
L1D Cross Page Prefetch Requests: 125946
L1D Same Page Prefetch Requests: 9845332
L1D ROI Sum of L1D PQ occupancy: 125038287
L1D PREFETCHES PUSHED FROM L2C: 0
L1I TOTAL     ACCESS:   38641281  HIT:   34799954  MISS:    3841327  HIT %:     90.059  MISS %:    9.94099   MPKI: 19.2066
L1I LOAD      ACCESS:   38641281  HIT:   34799954  MISS:    3841327  HIT %:     90.059  MISS %:    9.94099   MPKI: 19.2066
L1I PREFETCH  REQUESTED:          0  ISSUED:          0  USEFUL:          0  USELESS:          0
L1I USEFUL LOAD PREFETCHES:          0 PREFETCH ISSUED TO LOWER LEVEL:          0  ACCURACY: -nan
L1I TIMELY PREFETCHES:          0 LATE PREFETCHES: 0 DROPPED PREFETCHES: 0
L1I PREFETCHES SAME FILL-ORIGIN LEVEL: 0 DIFFERENT FILL-ORIGIN LEVEL: 0
L1I AVERAGE MISS LATENCY: 32.4381 cycles
L1I RQ	ACCESS:   59618210	FORWARD:          0	MERGED:   19917978	TO_CACHE:   39700232

BTB TOTAL     ACCESS:   28423781  HIT:   23262113  MISS:    5161668  HIT %:    81.8403  MISS %:    18.1597   MPKI: 25.8083
BTB BRANCH_DIRECT_JUMP	ACCESS:    1949370  HIT:    1719105  MISS:     230265
BTB BRANCH_INDIRECT	ACCESS:   10330683  HIT:    8220220  MISS:    2110463
BTB BRANCH_CONDITIONAL	ACCESS:    8250333  HIT:    7882120  MISS:     368213
BTB BRANCH_DIRECT_CALL	ACCESS:    2536633  HIT:    2099013  MISS:     437620
BTB BRANCH_INDIRECT_CALL	ACCESS:    1403932  HIT:     934159  MISS:     469773
BTB BRANCH_RETURN	ACCESS:    3952830  HIT:    2407496  MISS:    1545334
BTB BRANCH_OTHER ACCESS:          0  HIT:          0  MISS:          0

L2C TOTAL     ACCESS:    8678486  HIT:    5273976  MISS:    3404510  HIT %:    60.7707  MISS %:    39.2293   MPKI: 17.0225
L2C LOAD      ACCESS:    5921894  HIT:    3394123  MISS:    2527771  HIT %:    57.3148  MISS %:    42.6852   MPKI: 12.6389
L2C DATA LOAD MPKI: 4.49127
L2C INSTRUCTION LOAD MPKI: 8.14758
L2C RFO       ACCESS:     443705  HIT:     177055  MISS:     266650  HIT %:    39.9038  MISS %:    60.0962   MPKI: 1.33325
L2C PREFETCH  ACCESS:     842310  HIT:     429035  MISS:     413275  HIT %:    50.9355  MISS %:    49.0645   MPKI: 2.06637
AGUS PREFETCH L1 MISS: 0
L2C DATA PREFETCH MPKI: 2.06637
L2C INSTRUCTION PREFETCH MPKI: 0
L2C WRITEBACK ACCESS:    1027778  HIT:     990326  MISS:      37452  HIT %:     96.356  MISS %:    3.64398   MPKI: 0.18726
L2C LOAD TRANSLATION ACCESS:     408590  HIT:     250388  MISS:     158202  HIT %:     61.281  MISS %:     38.719   MPKI: 0.79101
L2C TRANSLATION FROM L1D PREFETCHER ACCESS:      34209  HIT:      33049  MISS:       1160  HIT %:    96.6091  MISS %:    3.39092   MPKI: 0.0058
L2C PREFETCH  REQUESTED:          0  ISSUED:          0  USEFUL:      35550  USELESS:     378192
L2C USEFUL LOAD PREFETCHES:      35550 PREFETCH ISSUED TO LOWER LEVEL:     413276  ACCURACY: 8.602
L2C TIMELY PREFETCHES:      35550 LATE PREFETCHES: 0 DROPPED PREFETCHES: 0
L2C PREFETCHES SAME FILL-ORIGIN LEVEL: 0 DIFFERENT FILL-ORIGIN LEVEL: 0
L2C AVERAGE MISS LATENCY: 60.0079 cycles
L2C RQ	ACCESS:    6808507	FORWARD:          0	MERGED:          0	TO_CACHE:    6808398
L2C WQ	ACCESS:    1027778	FORWARD:        115	MERGED:          0	TO_CACHE:    1027778
L2C PQ	ACCESS:     842317	FORWARD:          0	MERGED:          0	TO_CACHE:     842311

L2C Instructions Evicting Data 741130
L2C Translations Evicting Data 73764
L2C Data Evicting Data 782372
L2C Instructions Evicting Instructions 809984
L2C Translations Evicting Instructions 78266
L2C Data Evicting Instructions 724057
L2C Instructions Evicting Translations 78403
L2C Translations Evicting Translations 7332
L2C Data Evicting Translations 71750
L2C Dense regions hint from L2: 0
PSCL5 TOTAL     ACCESS:     349386  HIT:     349386  MISS:          0  HIT %:        100  MISS %:          0   MPKI: 0
PSCL5 LOAD TRANSLATION ACCESS:     327518  HIT:     327518  MISS:          0  HIT %:        100  MISS %:          0   MPKI: 0
PSCL5 TRANSLATION FROM L1D PREFETCHER ACCESS:      21868  HIT:      21868  MISS:          0  HIT %:        100  MISS %:          0   MPKI: 0
PSCL5 PREFETCH  REQUESTED:          0  ISSUED:          0  USEFUL:          0  USELESS:          0
PSCL5 USEFUL LOAD PREFETCHES:          0 PREFETCH ISSUED TO LOWER LEVEL:          0  ACCURACY: -nan
PSCL5 TIMELY PREFETCHES:          0 LATE PREFETCHES: 0 DROPPED PREFETCHES: 0
PSCL5 PREFETCHES SAME FILL-ORIGIN LEVEL: 0 DIFFERENT FILL-ORIGIN LEVEL: 0

PSCL4 TOTAL     ACCESS:     335212  HIT:     334432  MISS:        780  HIT %:    99.7673  MISS %:   0.232689   MPKI: 0.0039
PSCL4 LOAD TRANSLATION ACCESS:     316947  HIT:     316167  MISS:        780  HIT %:    99.7539  MISS %:   0.246098   MPKI: 0.0039
PSCL4 TRANSLATION FROM L1D PREFETCHER ACCESS:      18265  HIT:      18265  MISS:          0  HIT %:        100  MISS %:          0   MPKI: 0
PSCL4 PREFETCH  REQUESTED:          0  ISSUED:          0  USEFUL:          0  USELESS:          0
PSCL4 USEFUL LOAD PREFETCHES:          0 PREFETCH ISSUED TO LOWER LEVEL:          0  ACCURACY: -nan
PSCL4 TIMELY PREFETCHES:          0 LATE PREFETCHES: 0 DROPPED PREFETCHES: 0
PSCL4 PREFETCHES SAME FILL-ORIGIN LEVEL: 0 DIFFERENT FILL-ORIGIN LEVEL: 0

PSCL3 TOTAL     ACCESS:     347487  HIT:     345297  MISS:       2190  HIT %:    99.3698  MISS %:   0.630239   MPKI: 0.01095
PSCL3 LOAD TRANSLATION ACCESS:     325619  HIT:     323429  MISS:       2190  HIT %:    99.3274  MISS %:   0.672565   MPKI: 0.01095
PSCL3 TRANSLATION FROM L1D PREFETCHER ACCESS:      21868  HIT:      21868  MISS:          0  HIT %:        100  MISS %:          0   MPKI: 0
PSCL3 PREFETCH  REQUESTED:          0  ISSUED:          0  USEFUL:          0  USELESS:          0
PSCL3 USEFUL LOAD PREFETCHES:          0 PREFETCH ISSUED TO LOWER LEVEL:          0  ACCURACY: -nan
PSCL3 TIMELY PREFETCHES:          0 LATE PREFETCHES: 0 DROPPED PREFETCHES: 0
PSCL3 PREFETCHES SAME FILL-ORIGIN LEVEL: 0 DIFFERENT FILL-ORIGIN LEVEL: 0

PSCL2 TOTAL     ACCESS:     337413  HIT:     258922  MISS:      78491  HIT %:    76.7374  MISS %:    23.2626   MPKI: 0.392455
PSCL2 LOAD TRANSLATION ACCESS:     327886  HIT:     249395  MISS:      78491  HIT %:    76.0615  MISS %:    23.9385   MPKI: 0.392455
PSCL2 TRANSLATION FROM L1D PREFETCHER ACCESS:       9527  HIT:       9527  MISS:          0  HIT %:        100  MISS %:          0   MPKI: 0
PSCL2 PREFETCH  REQUESTED:          0  ISSUED:          0  USEFUL:          0  USELESS:          0
PSCL2 USEFUL LOAD PREFETCHES:          0 PREFETCH ISSUED TO LOWER LEVEL:          0  ACCURACY: -nan
PSCL2 TIMELY PREFETCHES:          0 LATE PREFETCHES: 0 DROPPED PREFETCHES: 0
PSCL2 PREFETCHES SAME FILL-ORIGIN LEVEL: 0 DIFFERENT FILL-ORIGIN LEVEL: 0

LLC TOTAL     ACCESS:    3898428  HIT:    3264234  MISS:     634194  HIT %:    83.7321  MISS %:    16.2679   MPKI: 3.17097
LLC LOAD      ACCESS:    2527771  HIT:    2201197  MISS:     326574  HIT %:    87.0806  MISS %:    12.9194   MPKI: 1.63287
LLC RFO       ACCESS:     266650  HIT:     103335  MISS:     163315  HIT %:     38.753  MISS %:     61.247   MPKI: 0.816575
LLC PREFETCH  ACCESS:     413276  HIT:     301876  MISS:     111400  HIT %:    73.0446  MISS %:    26.9554   MPKI: 0.557
AGUS PREFETCH L1 MISS: 0
LLC WRITEBACK ACCESS:     531369  HIT:     512104  MISS:      19265  HIT %:    96.3745  MISS %:    3.62554   MPKI: 0.096325
LLC LOAD TRANSLATION ACCESS:     158202  HIT:     144723  MISS:      13479  HIT %:    91.4799  MISS %:    8.52012   MPKI: 0.067395
LLC TRANSLATION FROM L1D PREFETCHER ACCESS:       1160  HIT:        999  MISS:        161  HIT %:    86.1207  MISS %:    13.8793   MPKI: 0.000805
LLC PREFETCH  REQUESTED:          0  ISSUED:          0  USEFUL:      14412  USELESS:      93936
LLC USEFUL LOAD PREFETCHES:      14412 PREFETCH ISSUED TO LOWER LEVEL:     111400  ACCURACY: 12.9372
LLC TIMELY PREFETCHES:      14412 LATE PREFETCHES: 0 DROPPED PREFETCHES: 0
LLC PREFETCHES SAME FILL-ORIGIN LEVEL: 0 DIFFERENT FILL-ORIGIN LEVEL: 0
LLC AVERAGE MISS LATENCY: 162.719 cycles
LLC RQ	ACCESS:    2953783	FORWARD:          0	MERGED:          0	TO_CACHE:    2953783
LLC WQ	ACCESS:     531369	FORWARD:          0	MERGED:          0	TO_CACHE:     531369
LLC PQ	ACCESS:     413276	FORWARD:          0	MERGED:          0	TO_CACHE:     413276

LLC Dense regions hint to LLC: 0

RAW hits: 2627057
Loads Generated: 51616976
Loads sent to L1D: 48989918
Stores Generated: 19494838
Stores sent to L1D: 19494845
Major fault: 0 Minor fault: 8068
Allocated PAGES: 8068
ucb ended
-----------------------------------------------------------------------------------------------------------------------------------------------------------------------------------------------------
Offsets elements: 1 2520424 -1 -2520426 2520431 -2520428 7496436 -4941385 -34627 -2520424 -3 4 7494794 -7494794 7496434 -2520422 2520426 -553651 393341 160306 -2520362 20 -19 28 -8 9 2360016 5135020 -4940074 -2554962 1966685 -1966694 2554972 -2555053 -160310 -2360021 7495030 -4940073 -2554957 2520326 -553647 -1966775 -5 7496435 -7496435 -7496434 2520408 -2520408 34623 -2555054 2520412 18 -2520430 2520430 -34641 -396451 396451 13 -163324 -2357103 -21 7494819 -7494799 7494799 -7494798 -18 34627 -34628 -396464 396465 -553423 553427 2520428 -1966648 2360006 194926 -194926 5134775 -5134775 160289 -553646 553646 -2520423 -2520299 -111 2555033 -2555033 7495586 -7495586 2520406 553647 -2520295 -129 -2520331 31 2520295 -2520326 -588278 -1966695 -82 -2520345 7495045 -7494999 34630 -2554971 1966694 -1966686 -92 92 7495036 -7495129 2555056 -1966777 -7496439 2 7496437 -7496436 -4974386 14 -13 -2520411 5 -588050 156958 236176 -393360 393359 5136299 -4941374 -194925 -2 -5134773 160287 -160288 -393358 553651 -160291 5136297 -34651 -160272 160285 393362 -160290 -289869 -2723926 3208947 4939038 -8147985 3174080 -160286 160290 -553648 103489 77 484729 -34652 103492 159 484653 -484652 449996 4973905 -5134191 -9 5423996 -4939186 -484808 450163 103493 -59 484856 -484855 450212 115 484693 -484694 450039 5134119 -4973829 450154 -450018 -140 484810 -484668 5423845 -5527480 -2620476 3208987 -34865 553644 -450154 289868 -4 -3174117 2723962 -2723955 3208981 -588509 -2620464 3208973 -195151 -5136301 34634 -160289 160293 -163328 3035 -236176 -7494910 2360135 34637 -34637 -156958 393136 160291 393706 -3014232 3209034 -3209033 8148535 -8148535 3174173 -553643 393356 5136300 -5136299 -4974500 -160273 34638 -34638 -396469 -2620750 2620527 -2620528 8148537 -4939505 -3209032 3174171 -553644 553643 -3174172 3174177 -3174170 3174169 -3174169 8148538 -8148542 3209035 -588506 5528006 8148534 -5134650 -3013885 34861 -34861 -2620747 -3174173 2620525 103465 484825 -484824 5424540 -5424541 450179 -3174174 3174174 2723985 5424786 -4939957 -484829 450183 -2620523 3 8148539 -8148538 34862 -34862 103244 -103471 103470 484822 -484822 5424545 -5424545 450176 -450178 -103468 -450180 -450174 5424541 -5424536 -4939719 -588294 103468 -8148532 2723991 -4974376 -450165 -14 34659 -34646 103249 -103473 103446 5424832 -4939988 -484844 450200 103473 -5424540 450178 34647 -34647 553423 -450201 119 -103566 -588291 450205 -450085 8 5424434 -4939710 -484724 450072 -450200 484820 -484819 5425352 -5425353 450173 103447 -5424833 5424833 -5424832 450204 34644 -34644 103350 -103577 103576 484723 -484722 5424439 -5424440 450071 -450072 -103574 -450074 450070 -450069 5424435 -4939714 -588299 5528009 -5424435 -5424563 128 -5424434 450076 34652 103353 7 -103585 103599 5424409 -4939708 -484701 450047 103578 -5424439 5424436 -4974380 -450055 450073 34665 103375 -103602 103601 484700 -484700 5424412 -5424412 450046 -450047 450052 103602 450045 -450026 484703 -484682 5424396 -5528016 -5424410 -5424432 22 5424410 -5424409 450051 34654 -34654 103396 -103621 103624 484678 -484678 5424385 -5424385 450023 103620 -5424417 21 -5424396 450031 34651 -34655 -396465 396452 -553427 103400 -103626 103625 5424387 -4939711 -484676 450021 -450022 450027 103626 -450001 -22 5424370 -4939713 -588303 -5424389 34655 -156957 103420 -103646 -2620514 8149955 -4940933 -3209022 3174160 103643 -5424392 5424371 -5424370 450005 34656 -34656 103402 450025 450022 -450021 6 -103632 103633 484670 -5423847 450014 5424388 -5424387 -450046 -103607 103607 5423871 -4939179 -4974362 484702 -588077 -53606 -103583 -2620450 3208963 -3208962 8148728 -8148729 3174097 103573 -5424442 450075 4974382 -4974369 103247 -103472 103483 103471 -4974365 -450166 34646 -2620748 103443 -2620524 -8148539 -8148537 3174175 103384 -103608 103409 -103633 -450163 450162 1966779 223 -1967024 1966801 -1966801 2520452 -2520450 7494361 -4939289 -2555072 2520446 -2520447 -1966799 -2520444 2555074 -2555070 7494359 -5527562 5527768 -7494569 7494569 -7494574 34626 -34626 -156959 -1967021 2360191 -393393 -961236 1549713 -1549704 6489507 -6489515 1514883 -2520445 2520449 393391 -2360184 2555062 4939684 -7494746 2520436 -1966798 7494363 -7494360 7494360 -1967023 1966785 -1966780 7494798 -4939745 -4973911 -2520435 2520448 553424 -2520453 1966804 -2555074 -5527768 -1966806 7496464 -7496473 7496465 -7496464 7494312 -4973865 -2520438 2520456 34625 -34625 -2520460 2520461 -553424 -223 -590284 36860 -553645 590283 568436 -15013 15047 -15046 220 -38075 -2257223 2295077 -2295075 2848727 -2848715 2883305 -2883305 7823069 -7823069 2848707 7822562 -7822737 170 7822568 -7822568 34593 -430800 396189 -396189 -553429 -2295282 10 2295049 -2295050 2883295 -2883295 7823066 -7823066 2848697 -2848706 2848711 -553652 -2295049 2848693 -2848692 -2848707 -7823055 7823059 -4939768 -588246 -2295059 -7823085 16 34611 -34598 -396202 396202 -2295269 2295045 -3374692 3962905 -3962905 8902972 -8902972 3928340 -2848693 -7823073 7823060 -7823059 34594 -431063 553425 -3928340 1079649 2295043 -5528280 3928344 -2848695 2848690 -3928396 57 2883253 4940070 -2079922 2668123 -2668122 7607447 -7607447 2633542 -3928339 3374692 553652 2848691 -2633539 -1294800 3962920 -2668119 7607444 -8902245 34565 -34565 -2633540 2079890 -3374746 3962956 -2668130 7607473 -5527553 1294800 7607445 -7607445 2633544 34576 -3962920 -3928344 3928327 34566 -587989 156959 -3531929 3374746 -2294978 179 2883059 -2883058 7822352 -7822352 2848447 -3928398 3928398 -2848630 2848626 -2848449 7822354 -4939294 -588259 1294826 -8902302 -34558 -17 -3928397 3928383 -3928382 3928396 -2633569 2668132 -553428 -2451985 327786 1967015 -1967016 2555279 -2555278 7494568 2520664 2848454 -1967015 2520667 -3107141 3141679 -2555290 2520749 -553649 -2553488 3107142 -3107140 586427 2555320 -2555323 7494542 -7494541 2520708 -2553489 586389 -586389 8083086 -8083085 3107141 34537 -2882997 -258681 258683 3107140 -2520712 2555322 -2555322 2520704 -3107120 3107123 -2520705 2520763 4685194 -7205959 2520726 34609 -2555333 2124256 396468 -431077 396507 -39 -2520724 7205957 -4650624 -2883068 2451992 431075 -2883066 2451991 -2124256 12 -7494553 2520706 -2520694 2520712 -586417 2520724 -2685126 -7 7822355 -7822354 2848453 -2883067 2848459 34607 -1967285 1967054 -1967055 2555317 -2555317 7496715 -7496715 -6 -4973846 -2520690 2520703 -1967060 7494538 34614 -34614 -1967279 -1967048 7495054 -2555309 2520695 -2520702 -7496721 -4973847 -2520689 2520707 -1967271 1967046 -2995953 3584112 4940131 -6248704 -2275539 3549601 -1967046 -7495062 7495055 -7495054 2520699 -1967240 1967013 -2553719 3141896 -2555220 2520691 -2553718 3107371 -3107369 586721 2555260 -2555255 7494477 -7494477 2520644 586676 -586676 8083315 -8083315 34543 -2555198 -586698 586699 2520672 -586723 3107353 -2520624 2555255 -2555285 2520673 -3107371 586698 -34615 -163310 -2357340 2520668 -2555284 -2520672 2555283 -34629 -1967220 1966980 -1966989 2555253 -2555252 7496648 -7496648 2520637 -2520648 2520648 -2520632 2555251 -2555251 7496646 -4976025 -2520622 2520635 -1966987 2520639 -2520533 68 2555086 -2555080 7494306 -7494312 -2520635 -2520529 2520528 -2520634 -2520631 98 2520529 -2520589 2555202 -2555244 7494748 -5527769 -1966881 -88 2555236 -2555201 7494418 -5527485 -1966968 7494926 -4939692 -2555234 2520616 553648 -2520617 2520621 -2520620 -2520673 56 -4939694 -2555222 7494512 -1966969 7494925 -7494933 7494927 -7494926 2520620 34632 -2520625 2520611 -2520610 2520628 197941 -2555241 -11 2124170 -2124063 -154 7494586 -4939290 -3209030 653734 2520681 -7496656 7496647 -7496646 34631 -34613 -2520644 2520630 -2357315 -2555260 2124179 -2124163 7496645 -4941395 -2555250 2520633 -1966985 -160347 -3014070 3209257 -3209256 8148317 -8148318 3174413 -2360019 2360045 194946 -34630 -2520633 393305 -2360337 -653736 3209029 -2555294 2520678 -7494538 393306 -2360038 2555009 -2555009 2520380 -2360243 2555205 7494422 -7494422 2520585 1966985 -160346 -2360049 2555018 -160342 -2360291 -2520397 2360055 -2520421 2360079 34624 -2555025 1966750 -2555046 2360080 -2360292 2360078 -2360080 1005541 1549506 1966772 -961223 1549699 -1549709 6488785 -6488784 1514879 393303 -2360120 2520465 -2520465 -1966986 11 2555247 -2555247 7496642 -7496642 -1966982 2520634 -591218 5565303 -4939413 -625890 591185 -2520630 -553650 -37568 -43 625959 -625954 5565085 -5565090 591257 -591213 591212 -2520629 -591217 -1929372 1929361 625844 588352 -625928 591224 -37567 -146 626056 -626051 591359 7494463 591213 -591504 591501 -1929417 34685 -626186 5565342 -5527491 158653 -2088070 2555138 -467235 5406391 34621 -5527498 141404 -2070820 34662 -484469 5423654 -449875 -141336 -1929418 -484537 5423711 -4973837 -37565 141198 -25 484696 588301 -484692 -2070592 34613 -34631 -2124174 7494471 -7494501 25 34616 -34616 -1967161 15 1966922 -1966931 2555199 7496590 -7496590 -4973850 -2520566 2520579 2520589 -2520574 2555196 -2555196 7496588 -2520564 2520577 -1966929 2520581 -3174469 653783 -653734 8148320 -2555296 -2520577 -2620817 653896 2555189 -2555189 7494690 -7494690 2520569 -2520576 1966929 8148357 -4939062 -3209295 3174452 -3174464 3174464 -2520556 7494865 -7494864 -4939689 1967025 588263 -1966908 7494864 -7494875 7494866 -7494865 2520559 34617 -34635 -2520567 2520571 -2520570 2357242 197945 2124101 -2124111 -7496597 7496589 -7496588 -2555205 2520572 163328 -2555190 2124105 7496587 -4941392 -2555195 2520575 -1966927 -3174432 -2520575 -2620784 3174428 -104 2520683 -2520682 -653750 8148319 -2620785 653858 -3174436 -653857 8148337 -8148356 3174455 34840 -3209294 2620806 -3174448 653872 -3174453 8148354 -588487 -3174428 653853 7494480 -3209289 2620802 -2620798 3209285 -3209284 8148346 -5527549 -653864 -8150448 653851 2555428 -3209281 8148343 588487 -3209278 8148340 -2520585 -2357257 2555201 2124120 -2124105 2555192 -2555192 7496584 -7496584 -1966924 2520576 -2520558 -653872 8148330 -4939061 -3209269 3174425 -1966928 7496597 -2124116 7494417 -8148012 653591 34620 -34620 -1967145 1966919 -1966920 -2555188 7494482 -7494483 2520568 -2520568 1966921 -2520571 2520567 7494481 -588269 5527769 -7494700 2520573 -431085 -1967143 1966909 -1967035 2555298 8149050 -7495315 2520570 -2555176 2520555 -1966918 -7494484 -7494481 -34621 -1967144 1966906 -2620806 3209297 -3209297 8149086 -8149086 3174454 -1967155 1966930 -1966921 7496591 -4973851 -2520565 2520583 -2520584 -1967203 1966977 -1966978 2555243 -2555242 7494540 2520626 -2520626 2520631 -1966977 2520625 7494539 -4939298 -588265 -7494748 -7494758 -34618 396469 1966970 -1966976 -7494542 -7494539 -34617 -1967202 1966967 -2620531 3209040 -3209040 8148541 -8148541 3174179 -2620755 2620533 -2620534 3209038 -3209039 8148544 -8148543 -3174178 3174183 -3174177 3174176 -3174175 -3209036 -5528013 -7494988 -653553 -2620752 2620531 -1966941 -8148548 8148545 -8148545 3174180 -2620754 -1966949 2555211 4940561 -7495772 2520592 -2520592 207 2555015 -2555015 2520386 -2520593 2520597 -2520385 -208 -195 -2520403 2555026 -2555020 1966745 -1966814 -1966738 -1966946 7495773 -7495773 7495772 -8149358 653585 2520596 34615 -34633 3174182 -3174181 3010853 -3010853 2777712 -2777710 653714 4973851 -2620530 8148543 3174181 -2520637 1966988 -1966979 2555244 7496649 -2520623 2520641 -2295024 327789 1967010 -1967012 2555276 -2555275 7494564 -7494565 2520660 -2848447 2294800 -2520662 -586480 3141678 -2294799 -7822361 7822353 2848451 -2848456 2848460 -2848459 2848455 -2848454 2883066 -588035 -2124195 1967012 -2520656 -8081272 8081272 2555198 1967042 588265 -34612 2520669 -2520667 -34611 -2237078 2079893 -3374747 1294827 2668131 -3962958 8902301 -8902300 3928395 -2079894 1294798 2633546 -34576 3928326 -34561 -3531930 1079943 2294804 -2294805 2883064 -2883063 7822357 -7822358 -3928394 7607474 3928399 -2451988 327787 1967018 -1967020 7494572 -2555281 -2848452 -4939219 2848457 -34607 2848442 -2848441 1967017 -1966996 7494472 1967020 -1967019 -4973905 -2520666 2520670 2555284 -588040 156960 -3531932 3374741 -3374748 3928400 -3928401 3962959 -2668132 7608202 -8903028 -3374749 3928401 -3928393 3955882 7376 -7375 4946411 -4946412 -27493 3374753 3928389 -2633573 -8902293 3928388 34562 -588210 -3928392 1079938 2883017 -2294807 7823087 -4940021 -8903029 8903029 -34562 -2295032 2294798 -2294808 -2294798 327724 2555335 -2555335 7495084 -7495084 2520722 -2848455 -2848450 -2883060 2848449 -2848446 -10 -2883056 2294797 -2294796 2848443 -2848443 7822349 -4939293 -588260 -7823088 -2295021 327731 1967065 -1967081 2555342 -2555341 2520728 -2848445 -1967065 7822350 -7822349 2848448 34608 -2124257 1967072 -1967073 7495089 -4939756 2520720 -2520721 -2520720 2520719 -2520718 -4939749 -2555331 -5528014 -1967074 -7822818 327734 -1967295 1967064 -2555283 7495300 -7495301 -7495088 7495085 -7495085 2520723 1966993 2555259 588264 -2520645 -27 -2520669 -2520668 24 2520640 -2520660 2520659 -2520654 2555271 -2555270 7494559 -2520640 7494557 -588264 7495301 -1967229 -653819 2620823 -1967005 7494558 -7494557 2520656 34612 -588039 -2520655 95 1966912 -1966937 -1967007 2520560 84 2555176 -5527481 -1966945 -4940561 -2555211 -1966912 -46 2555224 -2555224 2520606 -2520560 1966958 2520655 1967061 -1967061 -1967072 -7495091 7495090 -7495089 -156960 580918 -581141 -2294801 2848444 581141 3955890 4946412 -27489 34865 -34883 -3928400 2633574 34558 -587987 -2452232 2295048 -2295048 7822813 -4939520 -2883293 2848695 -2848697 2848701 -325467 8149957 -3209024 3174162 -2295053 -7823076 7823067 -430801 -2620738 3174163 -3174162 2620518 -2620519 3174167 -3174166 540763 2667987 -2667986 7607304 -7607304 2633399 2620515 -2633401 -540762 -2633405 7607306 -4939318 -588235 -2620513 3174161 -2633403 -540759 -3174165 3208748 -2667990 7607308 -7822808 2295255 -2295254 7823264 -4939772 -2883492 2848902 -2620515 -8149958 8149958 -4975808 -3174149 3174166 -34863 -396201 396207 -2295479 2295252 -2295253 2883491 -2883490 7823269 -7823270 2848901 -2848902 2848907 -2295252 2848900 -2848899 7823265 -588238 -2295255 -8148525 325260 -7823264 2848906 34603 -34590 -2295475 2295243 -2295234 7823243 -4939771 -2883472 2848881 -2295251 -7823269 7823266 -7823265 2848903 -2295457 2295231 -2295232 2883471 -2883470 7823248 -7823249 2848880 -2848881 2848886 -2848879 2848878 -2848878 7823244 -588239 -7823261 17 -7823243 2848885 34604 -34591 -2295454 2295221 -2295220 7823499 -4940040 -2883459 2848867 -2295230 -7823248 7823245 -7823244 2848882 34587 -431056 -2848868 137 2295082 -588240 2848872 -2848734 2848730 -4940070 -2848733 7822640 -4939309 -2883331 2848735 -2848867 2295220 2848729 -2848731 7822636 -588244 -7823500 7823500 -7823499 2848871 34605 -431057 -2295308 -2295083 -7822773 136 7822637 -7822636 34592 -34610 -2848871 -2848866 34588 -588016 -2452271 2295086 -4939343 -3962957 -2295088 133 2848739 34610 -34592 2848854 -2848853 2883459 -2295456 2295218 -2295187 7822666 -4939240 -2883427 2848834 -7823251 7823249 2848884 -430794 -2295411 2295166 -2295175 7824834 -4941419 -2883415 7822668 -2848809 2848822 -2848839 2848839 -2848818 7824832 -34606 -2848807 2848820 -2295173 2848825 -2848738 -79 2883407 -2883406 7822933 -7822934 2848813 -2848820 2295173 7822646 -2883337 2848741 -2848737 2848733 -2848788 2848787 -2848786 7823097 -4939716 -588242 -2295112 2883355 -2883354 7822664 -2295140 -7823097 7823096 -7823119 7823098 2848791 34590 -2883404 2848814 -2848814 2883404 -431059 -2685497 -35 -4939310 -2883362 2848767 -2848821 -2295172 -7824847 7824833 -7824832 2848824 -34589 2883426 -430796 -2685511 7824831 -2883412 2848819 -2295171 2848823 -2848741 -2883327 2848731 2848737 -2848739 -80 7822643 -2883360 2295116 -2295115 -588243 -2848819 -7824831 -16 2848833 -232878 -2452632 2883409 -2883408 7824827 -7824828 2848816 -2295168 -2848785 23 2883353 -2883353 2848758 7824828 -2883428 2848838 34589 232879 -2685510 7822665 -7822712 45 -7822667 34606 -34593 -2295341 2295114 -2295023 2883270 -2883267 7822576 -7822576 2848671 -2295116 -7822674 7822669 -7822668 34591 -2883364 2848773 -2848766 2883357 -431060 -553422 -2295248 2295023 2848675 -2848674 -325743 -2295027 2848670 -2520679 -588263 7822573 -7822580 -34595 -2848675 2848661 -2848660 2848674 -2848668 2848673 588023 -2883338 2452274 -2452240 2295057 -2079892 2668120 2633540 2848743 -2295056 -23 2883324 -2883323 2848726 2883320 -2883315 2848723 -2295091 -2848708 215302 -2667988 2633401 -7822798 154 -2848897 2883482 -430793 -2079978 -215475 2295228 -2079754 2633406 -2848880 144 -2633402 -2295228 -12 2883479 -2883479 2848888 -2848876 215474 -2848912 -168 2883496 2295090 588244 -2883336 540761 7607307 -7607306 2633405 34601 -34583 -3174167 3174150 -3174148 -2295344 -2295025 2883272 -2883268 7822574 -7822578 -2295120 2848771 -2848773 -2295249 327940 1967085 -1967034 2848677 2883268 -2452295 2295111 -2295020 7822572 -4939306 -2883266 2848667 -2848759 2848764 -2848769 2848755 -2848761 -2452203 327997 1967022 -1967025 2555288 -7494578 -2452277 2295092 -2079895 -4939325 -2295094 2848746 -2848744 2848740 -2633404 2667991 152 2848745 -2079980 -215467 2295223 2633408 -2295223 36 -2079756 -2848875 129 -8148068 540759 3209024 -431064 5430816 -57706 -5530399 5588100 -5034628 -396187 396188 4976929 -5373117 -2295389 2295163 -2295164 2883406 -2883405 7822726 -7822727 2848812 -2848812 2295165 -2848815 2848811 -2848810 7822728 -4939321 2295162 -7822944 7822934 2848817 -34594 -2295386 2295140 -2295121 2883364 -2883357 7823394 -7823401 2848769 -2883381 -2295162 7822725 -7822728 -7822725 -2295345 80 2295041 -2295041 2848689 -2848764 -2848760 7823301 -4940033 -2883273 -2848768 7823401 34595 327939 1967087 2848679 -1967087 -327938 
Potential of Offsets elements: 2067.11 28.2543 1777.25 28.2543 28.2543 28.2543 28.2543 28.2543 28.2543 28.2543 381.254 1928 28.2543 28.2543 28.2543 28.2543 28.2543 28.2543 28.2543 28.2543 28.2543 355.254 205.254 65.2543 251.254 392.254 28.2543 28.2543 28.2543 28.2543 28.2543 28.2543 28.2543 28.2543 28.2543 28.2543 28.2543 28.2543 28.2543 28.2543 28.2543 28.2543 97.2543 28.2543 28.2543 28.2543 28.2543 28.2543 28.2543 28.2543 28.2543 236.254 28.2543 28.2543 28.2543 28.2543 28.2543 165.254 28.2543 28.2543 246.254 28.2543 28.2543 28.2543 28.2543 154.254 28.2543 28.2543 29.2543 28.2543 28.2543 28.2543 28.2543 28.2543 28.2543 28.2543 28.2543 28.2543 28.2543 28.2543 28.2543 28.2543 28.2543 28.2543 28.2543 28.2543 28.2543 28.2543 28.2543 28.2543 28.2543 28.2543 29.2543 28.2543 102.254 28.2543 28.2543 28.2543 28.2543 49.2543 28.2543 28.2543 28.2543 28.2543 28.2543 28.2543 28.2543 101.254 113.254 28.2543 28.2543 28.2543 28.2543 28.2543 466.254 28.2543 28.2543 28.2543 102.254 53.2543 28.2543 119.254 28.2543 28.2543 28.2543 28.2543 28.2543 28.2543 28.2543 28.2543 540.254 28.2543 28.2543 28.2543 28.2543 28.2543 28.2543 28.2543 28.2543 28.2543 28.2543 28.2543 28.2543 28.2543 28.2543 28.2543 28.2543 28.2543 28.2543 28.2543 28.2543 28.2543 28.2543 35.2543 28.2543 28.2543 28.2543 28.2543 28.2543 28.2543 28.2543 28.2543 28.2543 76.2543 28.2543 28.2543 28.2543 28.2543 28.2543 102.254 28.2543 28.2543 28.2543 28.2543 28.2543 28.2543 28.2543 28.2543 28.2543 28.2543 28.2543 63.2543 28.2543 28.2543 28.2543 28.2543 28.2543 28.2543 28.2543 28.2543 28.2543 28.2543 1332.25 28.2543 28.2543 28.2543 28.2543 28.2543 28.2543 28.2543 28.2543 28.2543 28.2543 28.2543 224.254 28.2543 32.2543 28.2543 28.2543 28.2543 28.2543 28.2543 28.2543 28.2543 69.2543 28.2543 28.2543 28.2543 28.2543 28.2543 28.2543 28.2543 28.2543 28.2543 28.2543 28.2543 28.2543 28.2543 28.2543 28.2543 28.2543 28.2543 28.2543 28.2543 29.2543 28.2543 28.2543 28.2543 28.2543 28.2543 28.2543 28.2543 28.2543 28.2543 28.2543 28.2543 28.2543 28.2543 28.2543 28.2543 28.2543 28.2543 28.2543 28.2543 28.2543 28.2543 28.2543 28.2543 28.2543 28.2543 28.2543 28.2543 28.2543 28.2543 28.2543 28.2543 28.2543 28.2543 28.2543 28.2543 32.2543 28.2543 624.254 28.2543 28.2543 28.2543 28.2543 28.2543 28.2543 28.2543 28.2543 28.2543 28.2543 28.2543 28.2543 28.2543 28.2543 28.2543 28.2543 28.2543 28.2543 28.2543 28.2543 28.2543 28.2543 28.2543 28.2543 28.2543 46.2543 28.2543 28.2543 28.2543 28.2543 28.2543 28.2543 28.2543 28.2543 28.2543 28.2543 28.2543 28.2543 28.2543 28.2543 28.2543 28.2543 28.2543 28.2543 28.2543 28.2543 28.2543 107.254 28.2543 28.2543 28.2543 28.2543 28.2543 28.2543 28.2543 28.2543 28.2543 28.2543 28.2543 28.2543 28.2543 28.2543 28.2543 28.2543 28.2543 28.2543 28.2543 28.2543 28.2543 28.2543 28.2543 28.2543 28.2543 28.2543 28.2543 30.2543 28.2543 28.2543 28.2543 28.2543 28.2543 28.2543 28.2543 28.2543 34.2543 28.2543 28.2543 28.2543 28.2543 187.254 28.2543 28.2543 28.2543 28.2543 28.2543 28.2543 28.2543 28.2543 28.2543 28.2543 28.2543 28.2543 28.2543 28.2543 28.2543 28.2543 28.2543 28.2543 28.2543 28.2543 28.2543 28.2543 28.2543 28.2543 28.2543 28.2543 28.2543 28.2543 28.2543 39.2543 28.2543 28.2543 79.2543 28.2543 28.2543 28.2543 28.2543 28.2543 28.2543 28.2543 28.2543 28.2543 28.2543 28.2543 28.2543 28.2543 28.2543 28.2543 40.2543 28.2543 28.2543 28.2543 28.2543 28.2543 28.2543 28.2543 28.2543 28.2543 28.2543 28.2543 28.2543 28.2543 28.2543 28.2543 28.2543 28.2543 28.2543 31.2543 28.2543 28.2543 28.2543 28.2543 28.2543 28.2543 28.2543 28.2543 28.2543 28.2543 28.2543 28.2543 28.2543 28.2543 28.2543 28.2543 28.2543 28.2543 28.2543 28.2543 28.2543 28.2543 28.2543 28.2543 451.254 28.2543 28.2543 28.2543 28.2543 28.2543 28.2543 28.2543 28.2543 28.2543 28.2543 28.2543 28.2543 58.2543 28.2543 28.2543 28.2543 28.2543 28.2543 28.2543 28.2543 28.2543 28.2543 28.2543 28.2543 28.2543 28.2543 28.2543 48.2543 28.2543 28.2543 28.2543 28.2543 144.254 28.2543 28.2543 28.2543 28.2543 28.2543 28.2543 28.2543 28.2543 28.2543 28.2543 28.2543 28.2543 28.2543 28.2543 28.2543 28.2543 28.2543 28.2543 28.2543 28.2543 28.2543 28.2543 28.2543 28.2543 28.2543 28.2543 28.2543 28.2543 28.2543 28.2543 28.2543 28.2543 28.2543 28.2543 28.2543 28.2543 28.2543 28.2543 28.2543 28.2543 28.2543 28.2543 28.2543 28.2543 28.2543 28.2543 28.2543 28.2543 28.2543 28.2543 28.2543 28.2543 28.2543 28.2543 28.2543 28.2543 28.2543 28.2543 28.2543 28.2543 28.2543 28.2543 28.2543 28.2543 28.2543 28.2543 31.2543 28.2543 28.2543 28.2543 28.2543 28.2543 28.2543 28.2543 28.2543 28.2543 28.2543 28.2543 28.2543 28.2543 28.2543 28.2543 28.2543 28.2543 28.2543 38.2543 28.2543 28.2543 28.2543 28.2543 28.2543 28.2543 28.2543 52.2543 28.2543 28.2543 28.2543 28.2543 28.2543 28.2543 28.2543 28.2543 28.2543 28.2543 28.2543 28.2543 28.2543 28.2543 28.2543 28.2543 57.2543 28.2543 28.2543 28.2543 28.2543 28.2543 28.2543 28.2543 28.2543 107.254 28.2543 28.2543 28.2543 28.2543 28.2543 28.2543 28.2543 28.2543 28.2543 28.2543 28.2543 28.2543 28.2543 28.2543 28.2543 28.2543 28.2543 28.2543 28.2543 28.2543 29.2543 28.2543 28.2543 28.2543 28.2543 28.2543 28.2543 28.2543 28.2543 28.2543 28.2543 28.2543 28.2543 28.2543 28.2543 28.2543 28.2543 30.2543 28.2543 28.2543 28.2543 28.2543 28.2543 28.2543 28.2543 28.2543 28.2543 28.2543 38.2543 28.2543 28.2543 28.2543 28.2543 28.2543 28.2543 28.2543 28.2543 28.2543 28.2543 28.2543 28.2543 28.2543 28.2543 28.2543 28.2543 28.2543 28.2543 28.2543 28.2543 28.2543 28.2543 28.2543 28.2543 28.2543 28.2543 28.2543 28.2543 28.2543 28.2543 28.2543 28.2543 28.2543 28.2543 28.2543 34.2543 28.2543 28.2543 28.2543 28.2543 28.2543 30.2543 28.2543 28.2543 28.2543 28.2543 28.2543 28.2543 28.2543 28.2543 28.2543 28.2543 28.2543 28.2543 28.2543 28.2543 28.2543 28.2543 75.2543 28.2543 28.2543 28.2543 28.2543 28.2543 28.2543 28.2543 28.2543 28.2543 28.2543 28.2543 28.2543 28.2543 28.2543 28.2543 28.2543 28.2543 28.2543 28.2543 28.2543 28.2543 28.2543 28.2543 28.2543 28.2543 28.2543 28.2543 28.2543 28.2543 28.2543 28.2543 28.2543 28.2543 28.2543 28.2543 28.2543 28.2543 28.2543 28.2543 28.2543 28.2543 28.2543 28.2543 28.2543 28.2543 28.2543 28.2543 28.2543 28.2543 28.2543 28.2543 28.2543 28.2543 28.2543 28.2543 28.2543 28.2543 28.2543 28.2543 28.2543 893.254 28.2543 28.2543 28.2543 28.2543 28.2543 28.2543 28.2543 28.2543 28.2543 91.2543 28.2543 28.2543 28.2543 28.2543 28.2543 28.2543 28.2543 98.2543 28.2543 28.2543 28.2543 28.2543 28.2543 28.2543 28.2543 28.2543 28.2543 28.2543 28.2543 28.2543 28.2543 240.254 31.2543 42.2543 28.2543 28.2543 28.2543 28.2543 28.2543 28.2543 28.2543 28.2543 28.2543 28.2543 28.2543 28.2543 28.2543 28.2543 28.2543 28.2543 28.2543 28.2543 28.2543 28.2543 28.2543 28.2543 28.2543 28.2543 28.2543 28.2543 28.2543 28.2543 28.2543 28.2543 28.2543 28.2543 28.2543 28.2543 28.2543 28.2543 28.2543 28.2543 28.2543 28.2543 28.2543 28.2543 28.2543 28.2543 28.2543 28.2543 28.2543 28.2543 28.2543 28.2543 28.2543 28.2543 28.2543 28.2543 28.2543 28.2543 28.2543 28.2543 28.2543 28.2543 28.2543 28.2543 28.2543 28.2543 28.2543 28.2543 28.2543 28.2543 28.2543 28.2543 28.2543 28.2543 28.2543 28.2543 28.2543 28.2543 28.2543 28.2543 28.2543 28.2543 28.2543 28.2543 28.2543 28.2543 28.2543 28.2543 28.2543 28.2543 28.2543 28.2543 28.2543 28.2543 28.2543 28.2543 28.2543 28.2543 28.2543 28.2543 28.2543 28.2543 28.2543 28.2543 28.2543 28.2543 28.2543 28.2543 28.2543 28.2543 28.2543 28.2543 28.2543 28.2543 28.2543 28.2543 28.2543 28.2543 28.2543 28.2543 28.2543 28.2543 28.2543 34.2543 28.2543 28.2543 28.2543 28.2543 28.2543 28.2543 28.2543 28.2543 28.2543 28.2543 28.2543 28.2543 28.2543 28.2543 28.2543 28.2543 64.2543 28.2543 28.2543 34.2543 28.2543 28.2543 28.2543 28.2543 28.2543 28.2543 28.2543 28.2543 28.2543 28.2543 28.2543 28.2543 28.2543 28.2543 28.2543 28.2543 28.2543 28.2543 28.2543 28.2543 28.2543 28.2543 28.2543 28.2543 28.2543 28.2543 28.2543 28.2543 28.2543 28.2543 28.2543 28.2543 28.2543 28.2543 28.2543 28.2543 28.2543 28.2543 28.2543 28.2543 28.2543 28.2543 28.2543 28.2543 28.2543 28.2543 28.2543 28.2543 28.2543 28.2543 28.2543 28.2543 28.2543 28.2543 28.2543 28.2543 28.2543 28.2543 28.2543 28.2543 28.2543 28.2543 28.2543 28.2543 28.2543 28.2543 28.2543 28.2543 28.2543 28.2543 28.2543 28.2543 28.2543 28.2543 28.2543 28.2543 28.2543 28.2543 28.2543 28.2543 28.2543 28.2543 142.254 28.2543 28.2543 28.2543 28.2543 28.2543 28.2543 28.2543 28.2543 28.2543 28.2543 28.2543 28.2543 28.2543 28.2543 28.2543 28.2543 28.2543 28.2543 28.2543 28.2543 28.2543 28.2543 28.2543 28.2543 28.2543 28.2543 28.2543 28.2543 28.2543 28.2543 28.2543 32.2543 28.2543 28.2543 28.2543 28.2543 28.2543 28.2543 28.2543 28.2543 28.2543 28.2543 28.2543 28.2543 28.2543 28.2543 28.2543 28.2543 28.2543 28.2543 28.2543 28.2543 28.2543 28.2543 28.2543 28.2543 28.2543 28.2543 28.2543 28.2543 28.2543 28.2543 28.2543 28.2543 79.2543 28.2543 28.2543 28.2543 28.2543 28.2543 28.2543 28.2543 28.2543 28.2543 367.254 28.2543 28.2543 28.2543 633.254 28.2543 28.2543 28.2543 28.2543 28.2543 28.2543 28.2543 28.2543 28.2543 28.2543 28.2543 28.2543 28.2543 28.2543 28.2543 28.2543 28.2543 28.2543 28.2543 28.2543 28.2543 28.2543 28.2543 28.2543 28.2543 28.2543 28.2543 28.2543 28.2543 28.2543 28.2543 28.2543 28.2543 28.2543 28.2543 28.2543 28.2543 28.2543 28.2543 28.2543 28.2543 28.2543 28.2543 28.2543 28.2543 28.2543 28.2543 28.2543 28.2543 28.2543 28.2543 28.2543 28.2543 28.2543 28.2543 28.2543 28.2543 28.2543 28.2543 28.2543 28.2543 28.2543 28.2543 28.2543 28.2543 28.2543 28.2543 28.2543 28.2543 28.2543 28.2543 28.2543 28.2543 28.2543 28.2543 28.2543 38.2543 28.2543 28.2543 28.2543 28.2543 28.2543 28.2543 28.2543 28.2543 28.2543 28.2543 28.2543 28.2543 28.2543 28.2543 28.2543 28.2543 28.2543 28.2543 28.2543 28.2543 28.2543 28.2543 28.2543 28.2543 28.2543 28.2543 28.2543 28.2543 28.2543 28.2543 28.2543 28.2543 28.2543 28.2543 28.2543 28.2543 28.2543 28.2543 28.2543 28.2543 28.2543 28.2543 28.2543 28.2543 28.2543 28.2543 28.2543 28.2543 28.2543 28.2543 28.2543 28.2543 28.2543 28.2543 28.2543 28.2543 28.2543 28.2543 28.2543 28.2543 28.2543 28.2543 28.2543 28.2543 28.2543 28.2543 28.2543 28.2543 28.2543 28.2543 28.2543 28.2543 28.2543 28.2543 28.2543 28.2543 28.2543 28.2543 28.2543 28.2543 28.2543 28.2543 28.2543 28.2543 28.2543 28.2543 28.2543 28.2543 28.2543 28.2543 28.2543 28.2543 28.2543 28.2543 28.2543 28.2543 28.2543 28.2543 28.2543 28.2543 28.2543 28.2543 28.2543 28.2543 28.2543 28.2543 28.2543 28.2543 28.2543 28.2543 28.2543 28.2543 28.2543 28.2543 28.2543 28.2543 28.2543 28.2543 28.2543 28.2543 28.2543 28.2543 28.2543 28.2543 28.2543 28.2543 28.2543 28.2543 28.2543 28.2543 28.2543 28.2543 28.2543 28.2543 28.2543 28.2543 28.2543 28.2543 28.2543 28.2543 28.2543 28.2543 28.2543 28.2543 28.2543 28.2543 28.2543 28.2543 28.2543 28.2543 28.2543 28.2543 28.2543 28.2543 28.2543 28.2543 28.2543 28.2543 28.2543 28.2543 28.2543 28.2543 28.2543 28.2543 28.2543 28.2543 28.2543 28.2543 28.2543 28.2543 28.2543 28.2543 28.2543 28.2543 28.2543 28.2543 28.2543 41.2543 28.2543 28.2543 28.2543 28.2543 28.2543 28.2543 28.2543 28.2543 28.2543 28.2543 28.2543 28.2543 28.2543 28.2543 28.2543 28.2543 28.2543 28.2543 28.2543 28.2543 28.2543 28.2543 28.2543 28.2543 28.2543 28.2543 28.2543 28.2543 28.2543 28.2543 28.2543 28.2543 28.2543 28.2543 28.2543 28.2543 28.2543 28.2543 28.2543 28.2543 28.2543 28.2543 28.2543 28.2543 28.2543 28.2543 28.2543 28.2543 28.2543 28.2543 28.2543 28.2543 28.2543 28.2543 28.2543 28.2543 28.2543 28.2543 28.2543 28.2543 28.2543 28.2543 28.2543 28.2543 28.2543 28.2543 28.2543 28.2543 28.2543 28.2543 28.2543 28.2543 28.2543 28.2543 28.2543 28.2543 28.2543 28.2543 28.2543 28.2543 28.2543 28.2543 28.2543 28.2543 28.2543 28.2543 28.2543 28.2543 28.2543 28.2543 28.2543 28.2543 28.2543 28.2543 28.2543 28.2543 28.2543 28.2543 28.2543 28.2543 28.2543 28.2543 28.2543 28.2543 28.2543 28.2543 28.2543 28.2543 28.2543 28.2543 28.2543 28.2543 28.2543 28.2543 28.2543 28.2543 28.2543 28.2543 28.2543 28.2543 28.2543 28.2543 28.2543 28.2543 28.2543 28.2543 28.2543 28.2543 28.2543 28.2543 28.2543 28.2543 28.2543 28.2543 28.2543 28.2543 28.2543 28.2543 28.2543 28.2543 28.2543 28.2543 28.2543 28.2543 28.2543 28.2543 28.2543 28.2543 28.2543 28.2543 28.2543 28.2543 28.2543 28.2543 28.2543 28.2543 28.2543 28.2543 28.2543 28.2543 28.2543 28.2543 28.2543 28.2543 28.2543 28.2543 28.2543 28.2543 28.2543 499.254 28.2543 28.2543 28.2543 28.2543 28.2543 28.2543 28.2543 28.2543 28.2543 28.2543 28.2543 28.2543 28.2543 28.2543 28.2543 28.2543 28.2543 28.2543 28.2543 28.2543 28.2543 28.2543 28.2543 28.2543 28.2543 28.2543 28.2543 28.2543 28.2543 28.2543 28.2543 28.2543 28.2543 28.2543 28.2543 28.2543 28.2543 28.2543 28.2543 28.2543 28.2543 28.2543 28.2543 28.2543 28.2543 28.2543 28.2543 28.2543 28.2543 28.2543 28.2543 34.2543 28.2543 28.2543 39.2543 28.2543 28.2543 28.2543 28.2543 28.2543 28.2543 28.2543 28.2543 28.2543 28.2543 28.2543 28.2543 28.2543 28.2543 28.2543 28.2543 28.2543 28.2543 28.2543 28.2543 28.2543 341.254 28.2543 28.2543 28.2543 28.2543 111.254 28.2543 28.2543 28.2543 28.2543 28.2543 28.2543 29.2543 28.2543 28.2543 28.2543 28.2543 28.2543 28.2543 28.2543 28.2543 28.2543 28.2543 28.2543 28.2543 28.2543 28.2543 28.2543 28.2543 28.2543 28.2543 28.2543 28.2543 28.2543 28.2543 28.2543 28.2543 28.2543 28.2543 28.2543 28.2543 28.2543 28.2543 28.2543 28.2543 28.2543 28.2543 28.2543 28.2543 28.2543 28.2543 28.2543 28.2543 28.2543 28.2543 28.2543 28.2543 28.2543 28.2543 28.2543 28.2543 28.2543 28.2543 28.2543 28.2543 28.2543 28.2543 28.2543 28.2543 28.2543 28.2543 28.2543 28.2543 28.2543 28.2543 28.2543 28.2543 28.2543 28.2543 28.2543 28.2543 28.2543 28.2543 28.2543 28.2543 28.2543 28.2543 28.2543 28.2543 28.2543 28.2543 28.2543 28.2543 28.2543 28.2543 28.2543 28.2543 28.2543 28.2543 28.2543 28.2543 28.2543 28.2543 28.2543 28.2543 28.2543 28.2543 28.2543 28.2543 28.2543 28.2543 28.2543 28.2543 28.2543 28.2543 28.2543 28.2543 28.2543 28.2543 28.2543 28.2543 28.2543 28.2543 28.2543 28.2543 28.2543 28.2543 28.2543 28.2543 28.2543 28.2543 28.2543 28.2543 28.2543 28.2543 28.2543 28.2543 28.2543 28.2543 28.2543 28.2543 28.2543 28.2543 28.2543 28.2543 28.2543 28.2543 28.2543 28.2543 28.2543 28.2543 75.2543 28.2543 28.2543 28.2543 28.2543 28.2543 28.2543 28.2543 28.2543 28.2543 28.2543 28.2543 28.2543 28.2543 28.2543 28.2543 28.2543 28.2543 28.2543 28.2543 46.2543 28.2543 28.2543 28.2543 28.2543 28.2543 28.2543 28.2543 28.2543 28.2543 28.2543 28.2543 28.2543 28.2543 28.2543 28.2543 28.2543 28.2543 28.2543 28.2543 28.2543 28.2543 28.2543 28.2543 28.2543 28.2543 28.2543 30.2543 28.2543 28.2543 28.2543 28.2543 28.2543 28.2543 28.2543 28.2543 28.2543 28.2543 28.2543 28.2543 28.2543 89.2543 28.2543 28.2543 28.2543 28.2543 28.2543 28.2543 28.2543 28.2543 28.2543 28.2543 28.2543 28.2543 28.2543 28.2543 28.2543 28.2543 28.2543 28.2543 28.2543 28.2543 28.2543 28.2543 28.2543 28.2543 28.2543 28.2543 28.2543 28.2543 28.2543 28.2543 28.2543 28.2543 28.2543 28.2543 28.2543 28.2543 31.2543 28.2543 28.2543 28.2543 28.2543 28.2543 28.2543 28.2543 28.2543 28.2543 28.2543 28.2543 28.2543 28.2543 28.2543 28.2543 28.2543 28.2543 31.2543 28.2543 28.2543 28.2543 28.2543 28.2543 28.2543 28.2543 28.2543 28.2543 28.2543 28.2543 28.2543 28.2543 28.2543 28.2543 28.2543 28.2543 43.2543 28.2543 28.2543 28.2543 28.2543 28.2543 28.2543 28.2543 28.2543 28.2543 28.2543 28.2543 28.2543 28.2543 28.2543 28.2543 28.2543 28.2543 28.2543 28.2543 28.2543 28.2543 28.2543 28.2543 29.2543 28.2543 28.2543 28.2543 28.2543 28.2543 28.2543 28.2543 137.254 28.2543 28.2543 28.2543 28.2543 28.2543 28.2543 28.2543 28.2543 28.2543 28.2543 28.2543 28.2543 28.2543 28.2543 28.2543 28.2543 28.2543 28.2543 28.2543 28.2543 28.2543 28.2543 817.254 28.2543 28.2543 28.2543 28.2543 28.2543 28.2543 28.2543 28.2543 28.2543 28.2543 28.2543 28.2543 28.2543 28.2543 28.2543 28.2543 28.2543 28.2543 28.2543 28.2543 28.2543 28.2543 28.2543 28.2543 28.2543 28.2543 28.2543 28.2543 28.2543 28.2543 28.2543 28.2543 28.2543 28.2543 28.2543 28.2543 28.2543 28.2543 28.2543 28.2543 28.2543 28.2543 28.2543 28.2543 28.2543 28.2543 28.2543 28.2543 28.2543 28.2543 41.2543 28.2543 28.2543 28.2543 28.2543 28.2543 28.2543 28.2543 28.2543 28.2543 28.2543 28.2543 28.2543 111.254 28.2543 28.2543 28.2543 28.2543 28.2543 28.2543 28.2543 28.2543 28.2543 28.2543 28.2543 28.2543 187.254 28.2543 28.2543 28.2543 28.2543 28.2543 28.2543 29.2543 28.2543 28.2543 28.2543 28.2543 28.2543 28.2543 28.2543 28.2543 28.2543 28.2543 28.2543 28.2543 28.2543 28.2543 28.2543 28.2543 28.2543 28.2543 28.2543 28.2543 28.2543 28.2543 28.2543 28.2543 28.2543 28.2543 28.2543 28.2543 28.2543 28.2543 28.2543 28.2543 28.2543 28.2543 28.2543 28.2543 28.2543 28.2543 28.2543 28.2543 28.2543 28.2543 28.2543 28.2543 28.2543 28.2543 28.2543 28.2543 28.2543 28.2543 28.2543 28.2543 28.2543 28.2543 28.2543 28.2543 36.2543 28.2543 28.2543 28.2543 28.2543 28.2543 28.2543 30.2543 28.2543 28.2543 40.2543 28.2543 28.2543 28.2543 28.2543 28.2543 28.2543 28.2543 28.2543 28.2543 28.2543 28.2543 28.2543 28.2543 28.2543 28.2543 28.2543 28.2543 28.2543 28.2543 28.2543 28.2543 28.2543 28.2543 28.2543 28.2543 28.2543 28.2543 28.2543 28.2543 28.2543 28.2543 28.2543 28.2543 28.2543 28.2543 28.2543 28.2543 28.2543 28.2543 28.2543 28.2543 28.2543 28.2543 28.2543 28.2543 28.2543 28.2543 28.2543 28.2543 28.2543 28.2543 28.2543 28.2543 28.2543 28.2543 28.2543 28.2543 28.2543 28.2543 28.2543 28.2543 28.2543 28.2543 28.2543 
rewards of Offsets elements: 2067 0 1749 0 0 0 0 0 0 0 353 1927 0 0 0 0 0 0 0 0 0 327 177 37 223 364 0 0 0 0 0 0 0 0 0 0 0 0 0 0 0 0 69 0 0 0 0 0 0 0 0 208 0 0 0 0 0 137 0 0 218 0 0 0 0 126 0 0 1 0 0 0 0 0 0 0 0 0 0 0 0 0 0 0 0 0 0 0 0 0 0 0 1 0 74 0 0 0 0 21 0 0 0 0 0 0 0 73 85 0 0 0 0 0 438 0 0 0 74 25 0 91 0 0 0 0 0 0 0 0 512 0 0 0 0 0 0 0 0 0 0 0 0 0 0 0 0 0 0 0 0 0 0 7 0 0 0 0 0 0 0 0 0 48 0 0 0 0 0 74 0 0 0 0 0 0 0 0 0 0 0 35 0 0 0 0 0 0 0 0 0 0 1304 0 0 0 0 0 0 0 0 0 0 0 196 0 4 0 0 0 0 0 0 0 41 0 0 0 0 0 0 0 0 0 0 0 0 0 0 0 0 0 0 0 1 0 0 0 0 0 0 0 0 0 0 0 0 0 0 0 0 0 0 0 0 0 0 0 0 0 0 0 0 0 0 0 0 0 0 0 4 0 596 0 0 0 0 0 0 0 0 0 0 0 0 0 0 0 0 0 0 0 0 0 0 0 0 0 18 0 0 0 0 0 0 0 0 0 0 0 0 0 0 0 0 0 0 0 0 0 79 0 0 0 0 0 0 0 0 0 0 0 0 0 0 0 0 0 0 0 0 0 0 0 0 0 0 0 2 0 0 0 0 0 0 0 0 6 0 0 0 0 159 0 0 0 0 0 0 0 0 0 0 0 0 0 0 0 0 0 0 0 0 0 0 0 0 0 0 0 0 0 11 0 0 51 0 0 0 0 0 0 0 0 0 0 0 0 0 0 0 12 0 0 0 0 0 0 0 0 0 0 0 0 0 0 0 0 0 0 3 0 0 0 0 0 0 0 0 0 0 0 0 0 0 0 0 0 0 0 0 0 0 0 0 423 0 0 0 0 0 0 0 0 0 0 0 0 30 0 0 0 0 0 0 0 0 0 0 0 0 0 0 20 0 0 0 0 116 0 0 0 0 0 0 0 0 0 0 0 0 0 0 0 0 0 0 0 0 0 0 0 0 0 0 0 0 0 0 0 0 0 0 0 0 0 0 0 0 0 0 0 0 0 0 0 0 0 0 0 0 0 0 0 0 0 0 0 0 0 0 0 0 0 0 3 0 0 0 0 0 0 0 0 0 0 0 0 0 0 0 0 0 0 10 0 0 0 0 0 0 0 24 0 0 0 0 0 0 0 0 0 0 0 0 0 0 0 0 29 0 0 0 0 0 0 0 0 79 0 0 0 0 0 0 0 0 0 0 0 0 0 0 0 0 0 0 0 0 1 0 0 0 0 0 0 0 0 0 0 0 0 0 0 0 0 2 0 0 0 0 0 0 0 0 0 0 10 0 0 0 0 0 0 0 0 0 0 0 0 0 0 0 0 0 0 0 0 0 0 0 0 0 0 0 0 0 0 0 0 0 0 0 6 0 0 0 0 0 2 0 0 0 0 0 0 0 0 0 0 0 0 0 0 0 0 47 0 0 0 0 0 0 0 0 0 0 0 0 0 0 0 0 0 0 0 0 0 0 0 0 0 0 0 0 0 0 0 0 0 0 0 0 0 0 0 0 0 0 0 0 0 0 0 0 0 0 0 0 0 0 0 0 0 0 0 0 865 0 0 0 0 0 0 0 0 0 63 0 0 0 0 0 0 0 70 0 0 0 0 0 0 0 0 0 0 0 0 0 212 3 14 0 0 0 0 0 0 0 0 0 0 0 0 0 0 0 0 0 0 0 0 0 0 0 0 0 0 0 0 0 0 0 0 0 0 0 0 0 0 0 0 0 0 0 0 0 0 0 0 0 0 0 0 0 0 0 0 0 0 0 0 0 0 0 0 0 0 0 0 0 0 0 0 0 0 0 0 0 0 0 0 0 0 0 0 0 0 0 0 0 0 0 0 0 0 0 0 0 0 0 0 0 0 0 0 0 0 0 0 0 0 0 0 0 0 0 0 0 0 0 0 0 6 0 0 0 0 0 0 0 0 0 0 0 0 0 0 0 0 36 0 0 6 0 0 0 0 0 0 0 0 0 0 0 0 0 0 0 0 0 0 0 0 0 0 0 0 0 0 0 0 0 0 0 0 0 0 0 0 0 0 0 0 0 0 0 0 0 0 0 0 0 0 0 0 0 0 0 0 0 0 0 0 0 0 0 0 0 0 0 0 0 0 0 0 0 0 0 0 0 0 0 0 0 0 114 0 0 0 0 0 0 0 0 0 0 0 0 0 0 0 0 0 0 0 0 0 0 0 0 0 0 0 0 0 0 0 4 0 0 0 0 0 0 0 0 0 0 0 0 0 0 0 0 0 0 0 0 0 0 0 0 0 0 0 0 0 0 0 0 51 0 0 0 0 0 0 0 0 0 339 0 0 0 605 0 0 0 0 0 0 0 0 0 0 0 0 0 0 0 0 0 0 0 0 0 0 0 0 0 0 0 0 0 0 0 0 0 0 0 0 0 0 0 0 0 0 0 0 0 0 0 0 0 0 0 0 0 0 0 0 0 0 0 0 0 0 0 0 0 0 0 0 0 0 0 0 0 0 0 0 10 0 0 0 0 0 0 0 0 0 0 0 0 0 0 0 0 0 0 0 0 0 0 0 0 0 0 0 0 0 0 0 0 0 0 0 0 0 0 0 0 0 0 0 0 0 0 0 0 0 0 0 0 0 0 0 0 0 0 0 0 0 0 0 0 0 0 0 0 0 0 0 0 0 0 0 0 0 0 0 0 0 0 0 0 0 0 0 0 0 0 0 0 0 0 0 0 0 0 0 0 0 0 0 0 0 0 0 0 0 0 0 0 0 0 0 0 0 0 0 0 0 0 0 0 0 0 0 0 0 0 0 0 0 0 0 0 0 0 0 0 0 0 0 0 0 0 0 0 0 0 0 0 0 0 0 0 0 0 0 0 0 0 0 0 0 0 0 0 0 0 0 0 0 0 0 0 0 13 0 0 0 0 0 0 0 0 0 0 0 0 0 0 0 0 0 0 0 0 0 0 0 0 0 0 0 0 0 0 0 0 0 0 0 0 0 0 0 0 0 0 0 0 0 0 0 0 0 0 0 0 0 0 0 0 0 0 0 0 0 0 0 0 0 0 0 0 0 0 0 0 0 0 0 0 0 0 0 0 0 0 0 0 0 0 0 0 0 0 0 0 0 0 0 0 0 0 0 0 0 0 0 0 0 0 0 0 0 0 0 0 0 0 0 0 0 0 0 0 0 0 0 0 0 0 0 0 0 0 0 0 0 0 0 0 0 0 0 0 0 0 0 0 0 0 0 0 0 0 0 0 0 0 0 0 0 0 0 0 0 0 0 0 0 0 0 0 0 471 0 0 0 0 0 0 0 0 0 0 0 0 0 0 0 0 0 0 0 0 0 0 0 0 0 0 0 0 0 0 0 0 0 0 0 0 0 0 0 0 0 0 0 0 0 0 0 0 0 0 0 6 0 0 11 0 0 0 0 0 0 0 0 0 0 0 0 0 0 0 0 0 0 0 0 0 313 0 0 0 0 83 0 0 0 0 0 0 1 0 0 0 0 0 0 0 0 0 0 0 0 0 0 0 0 0 0 0 0 0 0 0 0 0 0 0 0 0 0 0 0 0 0 0 0 0 0 0 0 0 0 0 0 0 0 0 0 0 0 0 0 0 0 0 0 0 0 0 0 0 0 0 0 0 0 0 0 0 0 0 0 0 0 0 0 0 0 0 0 0 0 0 0 0 0 0 0 0 0 0 0 0 0 0 0 0 0 0 0 0 0 0 0 0 0 0 0 0 0 0 0 0 0 0 0 0 0 0 0 0 0 0 0 0 0 0 0 0 0 0 0 0 0 0 0 0 0 47 0 0 0 0 0 0 0 0 0 0 0 0 0 0 0 0 0 0 0 18 0 0 0 0 0 0 0 0 0 0 0 0 0 0 0 0 0 0 0 0 0 0 0 0 0 0 2 0 0 0 0 0 0 0 0 0 0 0 0 0 61 0 0 0 0 0 0 0 0 0 0 0 0 0 0 0 0 0 0 0 0 0 0 0 0 0 0 0 0 0 0 0 0 0 0 0 0 3 0 0 0 0 0 0 0 0 0 0 0 0 0 0 0 0 0 3 0 0 0 0 0 0 0 0 0 0 0 0 0 0 0 0 0 15 0 0 0 0 0 0 0 0 0 0 0 0 0 0 0 0 0 0 0 0 0 0 0 1 0 0 0 0 0 0 0 109 0 0 0 0 0 0 0 0 0 0 0 0 0 0 0 0 0 0 0 0 0 0 789 0 0 0 0 0 0 0 0 0 0 0 0 0 0 0 0 0 0 0 0 0 0 0 0 0 0 0 0 0 0 0 0 0 0 0 0 0 0 0 0 0 0 0 0 0 0 0 0 0 0 13 0 0 0 0 0 0 0 0 0 0 0 0 83 0 0 0 0 0 0 0 0 0 0 0 0 159 0 0 0 0 0 0 1 0 0 0 0 0 0 0 0 0 0 0 0 0 0 0 0 0 0 0 0 0 0 0 0 0 0 0 0 0 0 0 0 0 0 0 0 0 0 0 0 0 0 0 0 0 0 0 0 0 0 0 0 0 0 0 0 8 0 0 0 0 0 0 2 0 0 12 0 0 0 0 0 0 0 0 0 0 0 0 0 0 0 0 0 0 0 0 0 0 0 0 0 0 0 0 0 0 0 0 0 0 0 0 0 0 0 0 0 0 0 0 0 0 0 0 0 0 0 0 0 0 0 0 0 0 0 0 0 0 0 0 Printing Sanity3
offset_index value2173
offset list size2173
reward size2173
potential size2173
-----------------------------------------------------------------------------------------------------------------------------------------------------------------------------------------------------

DRAM Statistics
 CHANNEL 0
 RQ ROW_BUFFER_HIT:     142278  ROW_BUFFER_MISS:     472645
 DBUS_CONGESTED:        244
 WQ ROW_BUFFER_HIT:      65269  ROW_BUFFER_MISS:     243815  FULL:          0

 AVG_CONGESTED_CYCLE: 4
 All warmup complete: 2
Channel 0 Bank busy for read cycles: 0
Channel 0 Bank busy for write cycles: 0
Channel 0
Rank 0
0banks busy for read cycles: 447927350
0banks busy for write cycles: 151952
1banks busy for read cycles: 48517294
1banks busy for write cycles: 22675918
2banks busy for read cycles: 8356339
2banks busy for write cycles: 6296298
3banks busy for read cycles: 1435120
3banks busy for write cycles: 2312844
4banks busy for read cycles: 405082
4banks busy for write cycles: 1005017
5banks busy for read cycles: 188202
5banks busy for write cycles: 525059
6banks busy for read cycles: 166034
6banks busy for write cycles: 315367
7banks busy for read cycles: 187937
7banks busy for write cycles: 267044
8banks busy for read cycles: 477215
8banks busy for write cycles: 819750

CPU 0 Branch Prediction Accuracy: 97.3038% MPKI: 5.17532 Average ROB Occupancy at Mispredict: 12.8439
Branch types
NOT_BRANCH: 161610434 80.8052%
BRANCH_DIRECT_JUMP: 1949370 0.974685%
BRANCH_INDIRECT: 10330683 5.16534%
BRANCH_CONDITIONAL: 18215849 9.10792%
BRANCH_DIRECT_CALL: 2536633 1.26832%
BRANCH_INDIRECT_CALL: 1403932 0.701966%
BRANCH_RETURN: 3952830 1.97641%
BRANCH_OTHER: 0 0%

DRAM PAGES: 1048576
Allocated PAGES: 8068
