
*** ChampSim Multicore Out-of-Order Simulator ***

Warmup Instructions: 50000000
Simulation Instructions: 200000000
Number of CPUs: 1
LLC sets: 2048
LLC ways: 16
Off-chip DRAM Size: 4096 MB Channels: 1 Width: 64-bit Data Rate: 6400 MT/s
CPU 0 runs traces/spec2k17/server_020.champsimtrace.xz
.xz
BTB has LRU replacement policy
ITLB has LRU replacement policy
DTLB has LRU replacement policy
STLB has LRU replacement policy
L1I has LRU replacement policy
L1D has LRU replacement policy
Initialize SRRIP state for L2C
Initialize DRRIP state for LLC
Heartbeat CPU 0 instructions: 10000000 cycles: 2936899 heartbeat IPC: 3.40495 cumulative IPC: 3.40495 (Simulation time: 0 hr 0 min 43 sec) 
Heartbeat CPU 0 instructions: 20000001 cycles: 5871193 heartbeat IPC: 3.40798 cumulative IPC: 3.40646 (Simulation time: 0 hr 1 min 25 sec) 
Heartbeat CPU 0 instructions: 30000000 cycles: 8806813 heartbeat IPC: 3.40644 cumulative IPC: 3.40645 (Simulation time: 0 hr 2 min 7 sec) 
Heartbeat CPU 0 instructions: 40000000 cycles: 11741917 heartbeat IPC: 3.40703 cumulative IPC: 3.4066 (Simulation time: 0 hr 2 min 47 sec) 
Heartbeat CPU 0 instructions: 50000000 cycles: 14674126 heartbeat IPC: 3.4104 cumulative IPC: 3.40736 (Simulation time: 0 hr 3 min 27 sec) 

Warmup complete CPU 0 instructions: 50000004 cycles: 14674127 (Simulation time: 0 hr 3 min 27 sec) 

Offsets elements: 
Potential of Offsets elements: 
rewards of Offsets elements: 
Printing Sanity1
offset list size1454
Offsets elements: 
Potential of Offsets elements: 
rewards of Offsets elements: 0 1169 2 0 0 0 1149 0 22 0 229 0 0 0 0 0 0 0 0 0 0 0 0 0 6 0 0 0 0 0 0 0 0 0 0 0 0 0 0 66 8 27 126 66 30 56 88 158 6 5 0 75 40 0 0 60 112 6 12 30 7 60 2 0 0 0 0 0 0 0 0 0 0 0 0 0 0 0 0 0 0 0 0 0 0 0 0 0 0 0 0 0 0 0 0 0 0 0 0 0 0 0 0 0 0 0 0 0 0 0 0 0 0 0 0 0 0 0 0 0 0 0 0 0 0 0 0 0 0 1273 299 0 0 0 2 0 8 3 0 0 0 0 0 0 14 0 33 45 0 0 3 20 0 0 2 0 449 0 0 0 0 95 7 231 54 49 33 0 21 0 0 32 0 686 19 170 0 0 633 107 21 0 0 21 0 0 2 9 0 0 0 14 6 2 14 25 0 0 7 0 259 0 0 169 0 7 0 0 0 20 0 0 30 32 6 0 0 0 0 0 48 67 174 24 131 639 36 40 130 130 11 23 186 0 0 0 1 0 0 507 0 0 0 0 0 0 0 0 0 32 5 0 0 10 0 1296 1 0 0 0 0 0 0 0 0 0 0 0 2 0 0 0 0 0 0 0 0 0 0 0 0 0 3 0 0 0 0 0 6 661 0 0 0 0 0 0 0 0 0 0 0 0 0 0 0 0 10 0 962 0 0 0 0 0 0 0 0 0 396 0 18 0 0 0 0 0 0 12 0 0 4 0 0 0 409 34 305 213 0 0 0 0 0 0 0 373 0 0 0 0 0 0 123 0 0 0 0 0 0 0 0 0 0 0 0 0 0 0 0 0 0 19 0 0 0 0 0 407 181 357 0 0 0 0 0 4 0 0 0 0 0 0 3 0 1 4 0 0 0 6 0 0 0 0 0 9 96 11 0 0 115 1 18 0 0 11 187 0 0 0 0 0 0 0 0 0 1 0 0 12 0 0 0 0 1 3 0 0 0 0 0 0 0 0 0 0 0 0 0 0 0 0 0 0 0 0 0 0 0 0 2 0 0 10 0 0 4 0 0 0 0 0 0 0 0 0 0 0 0 0 0 0 0 0 0 0 0 0 98 0 0 0 2 1 0 0 0 0 0 0 0 2 0 0 0 0 0 0 0 0 0 0 0 4 0 0 0 0 0 0 15 0 0 37 0 0 448 0 0 0 0 0 73 0 3 0 0 0 0 0 12 6 0 498 0 0 0 3 0 16 0 0 55 0 0 0 0 0 24 13 0 19 13 0 0 13 0 6 13 0 0 18 0 4 0 0 41 0 0 0 0 0 0 0 180 6 0 0 16 0 0 64 0 0 0 0 0 0 0 279 0 0 0 0 0 0 0 0 0 0 0 0 0 0 0 0 0 0 0 0 0 0 0 0 0 0 0 0 0 0 0 0 0 0 0 0 0 0 0 0 0 0 0 0 0 0 0 0 0 0 0 0 0 0 0 0 0 0 0 0 0 0 0 0 0 0 0 0 0 0 0 0 0 0 0 0 0 0 0 0 0 0 0 0 0 0 0 0 0 0 0 0 0 0 3 0 0 0 0 0 1 6 0 6 0 0 0 0 3 0 0 0 0 30 0 0 0 8 5 0 0 6 2 0 0 0 0 220 8 0 0 0 0 0 0 0 0 323 0 0 0 3 78 40 0 30 0 0 198 0 0 39 0 0 14 0 4 0 0 0 14 0 0 0 0 0 0 0 0 0 0 0 0 0 0 0 0 0 0 0 0 0 0 0 1 0 0 0 0 0 0 0 0 0 0 0 0 0 0 0 0 0 0 0 14 0 0 451 0 0 0 0 0 0 0 60 0 0 0 0 0 0 0 0 0 0 0 0 0 0 0 0 0 5 0 0 0 0 0 0 0 0 479 0 0 0 4 430 0 0 27 0 0 0 0 0 0 0 0 22 12 0 0 0 0 0 0 0 0 0 0 0 0 0 0 0 0 0 0 0 0 0 0 1 0 0 0 0 0 0 0 0 49 0 0 0 0 0 0 15 0 0 0 0 0 0 36 0 3 0 0 45 0 0 0 0 0 12 0 0 0 0 0 0 25 0 0 0 0 0 0 0 0 0 12 0 0 15 0 0 263 75 0 0 7 1 0 0 0 0 0 0 0 0 0 0 0 18 9 80 0 0 0 0 0 0 0 0 0 0 0 0 0 0 0 0 0 0 0 0 0 0 0 0 0 0 0 0 0 0 0 0 0 0 0 0 0 0 0 0 0 0 0 0 0 0 0 0 0 0 0 0 0 0 0 0 0 0 0 0 0 0 0 0 0 0 0 0 0 0 0 0 0 0 0 0 0 0 0 0 0 0 0 0 0 0 0 0 0 0 0 0 0 0 0 0 0 0 3 0 0 0 0 0 0 0 0 0 0 0 0 0 0 0 0 0 8 0 11 8 0 0 0 0 0 0 0 22 0 0 118 25 0 99 11 17 9 0 0 0 0 0 0 0 0 0 0 0 0 0 0 0 0 48 0 0 0 0 0 0 0 0 0 0 0 0 0 0 0 0 0 0 0 0 88 0 0 0 0 0 0 0 0 0 0 0 0 0 0 0 0 0 0 0 0 0 0 0 0 0 0 0 0 0 0 0 0 0 0 0 0 0 0 0 0 0 0 0 0 0 0 0 0 0 0 0 0 0 0 0 0 0 0 0 0 326 0 0 0 0 0 0 0 0 0 0 0 0 0 0 0 0 3 0 0 0 0 0 0 0 0 0 0 0 0 0 0 0 0 0 0 0 0 0 0 0 0 0 0 0 0 0 0 0 0 0 0 0 0 0 0 0 0 0 0 0 0 0 0 0 0 0 0 0 0 0 0 0 0 0 0 0 0 0 0 0 0 0 0 0 0 0 0 0 0 0 0 0 0 0 0 0 0 0 0 0 0 0 0 0 0 0 0 0 0 0 0 0 0 0 0 0 0 0 0 0 0 0 0 0 0 0 0 35 0 221 0 12 0 0 433 0 0 0 0 0 0 0 0 0 0 0 0 0 0 0 0 0 0 0 0 0 0 0 0 0 0 338 0 0 0 0 0 0 0 0 0 0 0 0 0 0 0 0 0 0 0 0 0 3 0 0 0 0 2 0 0 0 0 0 0 0 0 0 0 0 0 0 0 0 0 0 0 0 0 15 0 13 0 0 0 0 0 0 0 0 0 0 0 0 0 0 9 0 0 0 0 0 0 0 0 0 0 0 0 0 0 0 0 0 0 0 0 0 2 181 0 0 0 0 4 0 0 0 
Printing Sanity2
Heartbeat CPU 0 instructions: 60000002 cycles: 35110126 heartbeat IPC: 0.489333 cumulative IPC: 0.489332 (Simulation time: 0 hr 4 min 44 sec) 
Heartbeat CPU 0 instructions: 70000000 cycles: 54780958 heartbeat IPC: 0.508367 cumulative IPC: 0.498668 (Simulation time: 0 hr 6 min 4 sec) 
Heartbeat CPU 0 instructions: 80000001 cycles: 74494059 heartbeat IPC: 0.507277 cumulative IPC: 0.501505 (Simulation time: 0 hr 7 min 21 sec) 
Heartbeat CPU 0 instructions: 90000001 cycles: 94118186 heartbeat IPC: 0.509577 cumulative IPC: 0.503499 (Simulation time: 0 hr 8 min 37 sec) 
Heartbeat CPU 0 instructions: 100000000 cycles: 113639457 heartbeat IPC: 0.512262 cumulative IPC: 0.505227 (Simulation time: 0 hr 9 min 50 sec) 
*** Reached end of trace for Core: 0 Repeating trace: traces/spec2k17/server_020.champsimtrace.xz
Heartbeat CPU 0 instructions: 110000000 cycles: 133307458 heartbeat IPC: 0.50844 cumulative IPC: 0.50576 (Simulation time: 0 hr 11 min 8 sec) 
Heartbeat CPU 0 instructions: 120000001 cycles: 152828417 heartbeat IPC: 0.51227 cumulative IPC: 0.50668 (Simulation time: 0 hr 12 min 25 sec) 
Heartbeat CPU 0 instructions: 130000001 cycles: 172415420 heartbeat IPC: 0.510543 cumulative IPC: 0.50716 (Simulation time: 0 hr 13 min 43 sec) 
Heartbeat CPU 0 instructions: 140000000 cycles: 191784625 heartbeat IPC: 0.516283 cumulative IPC: 0.508157 (Simulation time: 0 hr 15 min 0 sec) 
Heartbeat CPU 0 instructions: 150000002 cycles: 211274349 heartbeat IPC: 0.513091 cumulative IPC: 0.508646 (Simulation time: 0 hr 16 min 20 sec) 
Heartbeat CPU 0 instructions: 160000002 cycles: 231088714 heartbeat IPC: 0.504684 cumulative IPC: 0.508284 (Simulation time: 0 hr 17 min 37 sec) 
Heartbeat CPU 0 instructions: 170000001 cycles: 250625175 heartbeat IPC: 0.511863 cumulative IPC: 0.50858 (Simulation time: 0 hr 18 min 57 sec) 
Heartbeat CPU 0 instructions: 180000001 cycles: 270100495 heartbeat IPC: 0.51347 cumulative IPC: 0.508953 (Simulation time: 0 hr 20 min 14 sec) 
Heartbeat CPU 0 instructions: 190000000 cycles: 289675011 heartbeat IPC: 0.510868 cumulative IPC: 0.509089 (Simulation time: 0 hr 21 min 35 sec) 
Heartbeat CPU 0 instructions: 200000003 cycles: 309154600 heartbeat IPC: 0.513358 cumulative IPC: 0.509372 (Simulation time: 0 hr 22 min 52 sec) 
Heartbeat CPU 0 instructions: 210000001 cycles: 328736098 heartbeat IPC: 0.510686 cumulative IPC: 0.509454 (Simulation time: 0 hr 24 min 9 sec) 
*** Reached end of trace for Core: 0 Repeating trace: traces/spec2k17/server_020.champsimtrace.xz
Heartbeat CPU 0 instructions: 220000000 cycles: 348259273 heartbeat IPC: 0.512212 cumulative IPC: 0.509615 (Simulation time: 0 hr 25 min 26 sec) 
Heartbeat CPU 0 instructions: 230000001 cycles: 367675315 heartbeat IPC: 0.515038 cumulative IPC: 0.509913 (Simulation time: 0 hr 26 min 44 sec) 
Heartbeat CPU 0 instructions: 240000000 cycles: 387261423 heartbeat IPC: 0.510566 cumulative IPC: 0.509948 (Simulation time: 0 hr 28 min 3 sec) 
Heartbeat CPU 0 instructions: 250000000 cycles: 406733048 heartbeat IPC: 0.513568 cumulative IPC: 0.510127 (Simulation time: 0 hr 29 min 21 sec) 
Finished CPU 0 instructions: 200000000 cycles: 392058930 cumulative IPC: 0.510127 (Simulation time: 0 hr 29 min 21 sec) 

ChampSim completed all CPUs

Region of Interest Statistics

CPU 0 cumulative IPC: 0.510127 instructions: 200000000 cycles: 392058930
ITLB TOTAL     ACCESS:   33727411  HIT:   32234877  MISS:    1492534  HIT %:    95.5747  MISS %:    4.42528   MPKI: 7.46267
ITLB LOAD TRANSLATION ACCESS:   33727411  HIT:   32234877  MISS:    1492534  HIT %:    95.5747  MISS %:    4.42528   MPKI: 7.46267
ITLB PREFETCH  REQUESTED:          0  ISSUED:          0  USEFUL:          0  USELESS:          0
ITLB USEFUL LOAD PREFETCHES:          0 PREFETCH ISSUED TO LOWER LEVEL:          0  ACCURACY: -nan
ITLB TIMELY PREFETCHES:          0 LATE PREFETCHES: 0 DROPPED PREFETCHES: 0
ITLB PREFETCHES SAME FILL-ORIGIN LEVEL: 0 DIFFERENT FILL-ORIGIN LEVEL: 0
ITLB AVERAGE MISS LATENCY: 9.44127 cycles
ITLB RQ	ACCESS:   40549683	FORWARD:          0	MERGED:    6340622	TO_CACHE:   34209061

DTLB TOTAL     ACCESS:   39898393  HIT:   38328527  MISS:    1569866  HIT %:    96.0653  MISS %:    3.93466   MPKI: 7.84933
DTLB LOAD TRANSLATION ACCESS:   39898393  HIT:   38328527  MISS:    1569866  HIT %:    96.0653  MISS %:    3.93466   MPKI: 7.84933
DTLB PREFETCH  REQUESTED:          0  ISSUED:          0  USEFUL:          0  USELESS:          0
DTLB USEFUL LOAD PREFETCHES:          0 PREFETCH ISSUED TO LOWER LEVEL:          0  ACCURACY: -nan
DTLB TIMELY PREFETCHES:          0 LATE PREFETCHES: 0 DROPPED PREFETCHES: 0
DTLB PREFETCHES SAME FILL-ORIGIN LEVEL: 0 DIFFERENT FILL-ORIGIN LEVEL: 0
DTLB AVERAGE MISS LATENCY: 15.171 cycles
DTLB RQ	ACCESS:   60462323	FORWARD:          0	MERGED:   20188523	TO_CACHE:   40273800

STLB TOTAL     ACCESS:   10790908  HIT:   10665856  MISS:     125052  HIT %:    98.8411  MISS %:    1.15886   MPKI: 0.62526
STLB LOAD TRANSLATION ACCESS:    3062400  HIT:    2947100  MISS:     115300  HIT %:     96.235  MISS %:    3.76502   MPKI: 0.5765
STLB TRANSLATION FROM L1D PREFETCHER ACCESS:    7728508  HIT:    7718756  MISS:       9752  HIT %:    99.8738  MISS %:   0.126182   MPKI: 0.04876
STLB PREFETCH  REQUESTED:          0  ISSUED:          0  USEFUL:       8971  USELESS:        776
STLB USEFUL LOAD PREFETCHES:       8971 PREFETCH ISSUED TO LOWER LEVEL:          0  ACCURACY: inf
STLB TIMELY PREFETCHES:       8971 LATE PREFETCHES: 1600 DROPPED PREFETCHES: 47482
STLB PREFETCHES SAME FILL-ORIGIN LEVEL: 0 DIFFERENT FILL-ORIGIN LEVEL: 0
STLB AVERAGE MISS LATENCY: 2.22315e+06 cycles
STLB RQ	ACCESS:   13777224	FORWARD:          0	MERGED:    2890865	TO_CACHE:   10886359

STLB Hit, L1D data hit: 0
STLB Hit, L2C data hit: 0
STLB Hit, LLC data hit: 0
STLB Hit, LLC data miss: 0
STLB STLB hints to L2: 0
L1D TOTAL     ACCESS:   58190205  HIT:   50429835  MISS:    7760370  HIT %:    86.6638  MISS %:    13.3362   MPKI: 38.8019
L1D LOAD      ACCESS:   26749584  HIT:   24149990  MISS:    2599594  HIT %:    90.2817  MISS %:    9.71826   MPKI: 12.998
L1D RFO       ACCESS:   21820785  HIT:   18253356  MISS:    3567429  HIT %:    83.6512  MISS %:    16.3488   MPKI: 17.8371
L1D PREFETCH  ACCESS:    9619836  HIT:    8026489  MISS:    1593347  HIT %:    83.4369  MISS %:    16.5631   MPKI: 7.96673
AGUS PREFETCH L1 MISS: 0
L1D PREFETCH  REQUESTED:   21900862  ISSUED:   21898937  USEFUL:     646373  USELESS:     946798
L1D USEFUL LOAD PREFETCHES:     646373 PREFETCH ISSUED TO LOWER LEVEL:    2266594  ACCURACY: 28.5174
L1D TIMELY PREFETCHES:     646373 LATE PREFETCHES: 663870 DROPPED PREFETCHES: 123064
L1D PREFETCHES SAME FILL-ORIGIN LEVEL: 2266594 DIFFERENT FILL-ORIGIN LEVEL: 0
L1D AVERAGE MISS LATENCY: 1.87942e+07 cycles
L1D RQ	ACCESS:   45180384	FORWARD:          0	MERGED:   17853794	TO_CACHE:   27072908
L1D WQ	ACCESS:   33586965	FORWARD:     254231	MERGED:     197550	TO_CACHE:   33389415
L1D PQ	ACCESS:   11184113	FORWARD:          0	MERGED:     468740	TO_CACHE:   10714824

L1D UNIQUE REGIONS ACCESSED: 0
L1D REGIONS CONFLICTS: 0
L1D Cross Page Prefetch Requests: 838839
L1D Same Page Prefetch Requests: 10345274
L1D ROI Sum of L1D PQ occupancy: 152047028
L1D PREFETCHES PUSHED FROM L2C: 0
L1I TOTAL     ACCESS:   37944912  HIT:   29023620  MISS:    8921292  HIT %:    76.4888  MISS %:    23.5112   MPKI: 44.6065
L1I LOAD      ACCESS:   37944912  HIT:   29023620  MISS:    8921292  HIT %:    76.4888  MISS %:    23.5112   MPKI: 44.6065
L1I PREFETCH  REQUESTED:          0  ISSUED:          0  USEFUL:          0  USELESS:          0
L1I USEFUL LOAD PREFETCHES:          0 PREFETCH ISSUED TO LOWER LEVEL:          0  ACCURACY: -nan
L1I TIMELY PREFETCHES:          0 LATE PREFETCHES: 0 DROPPED PREFETCHES: 0
L1I PREFETCHES SAME FILL-ORIGIN LEVEL: 0 DIFFERENT FILL-ORIGIN LEVEL: 0
L1I AVERAGE MISS LATENCY: 16.7374 cycles
L1I RQ	ACCESS:   58732462	FORWARD:          0	MERGED:   18182779	TO_CACHE:   40549683

BTB TOTAL     ACCESS:   25748402  HIT:   24111404  MISS:    1636998  HIT %:    93.6423  MISS %:    6.35767   MPKI: 8.18499
BTB BRANCH_DIRECT_JUMP	ACCESS:    1705434  HIT:    1695554  MISS:       9880
BTB BRANCH_INDIRECT	ACCESS:    9970641  HIT:    9389854  MISS:     580787
BTB BRANCH_CONDITIONAL	ACCESS:    7278514  HIT:    7264968  MISS:      13546
BTB BRANCH_DIRECT_CALL	ACCESS:    2773558  HIT:    2740277  MISS:      33281
BTB BRANCH_INDIRECT_CALL	ACCESS:     623355  HIT:     515242  MISS:     108113
BTB BRANCH_RETURN	ACCESS:    3396900  HIT:    2505509  MISS:     891391
BTB BRANCH_OTHER ACCESS:          0  HIT:          0  MISS:          0

L2C TOTAL     ACCESS:   21199960  HIT:   13988097  MISS:    7211863  HIT %:    65.9817  MISS %:    34.0183   MPKI: 36.0593
L2C LOAD      ACCESS:   10856216  HIT:    9075073  MISS:    1781143  HIT %:    83.5933  MISS %:    16.4067   MPKI: 8.90572
L2C DATA LOAD MPKI: 5.97089
L2C INSTRUCTION LOAD MPKI: 2.93482
L2C RFO       ACCESS:    3558031  HIT:     133326  MISS:    3424705  HIT %:    3.74718  MISS %:    96.2528   MPKI: 17.1235
L2C PREFETCH  ACCESS:    2266592  HIT:     466586  MISS:    1800006  HIT %:    20.5854  MISS %:    79.4146   MPKI: 9.00003
AGUS PREFETCH L1 MISS: 0
L2C DATA PREFETCH MPKI: 9.00003
L2C INSTRUCTION PREFETCH MPKI: 0
L2C WRITEBACK ACCESS:    4318865  HIT:    4195423  MISS:     123442  HIT %:    97.1418  MISS %:     2.8582   MPKI: 0.61721
L2C LOAD TRANSLATION ACCESS:     126967  HIT:      54295  MISS:      72672  HIT %:    42.7631  MISS %:    57.2369   MPKI: 0.36336
L2C TRANSLATION FROM L1D PREFETCHER ACCESS:      73289  HIT:      63394  MISS:       9895  HIT %:    86.4987  MISS %:    13.5013   MPKI: 0.049475
L2C PREFETCH  REQUESTED:          0  ISSUED:          0  USEFUL:      53931  USELESS:    1754782
L2C USEFUL LOAD PREFETCHES:      53931 PREFETCH ISSUED TO LOWER LEVEL:    1800006  ACCURACY: 2.99616
L2C TIMELY PREFETCHES:      53931 LATE PREFETCHES: 0 DROPPED PREFETCHES: 0
L2C PREFETCHES SAME FILL-ORIGIN LEVEL: 0 DIFFERENT FILL-ORIGIN LEVEL: 0
L2C AVERAGE MISS LATENCY: 153.39 cycles
L2C RQ	ACCESS:   14615325	FORWARD:          0	MERGED:          0	TO_CACHE:   14614504
L2C WQ	ACCESS:    4318865	FORWARD:        823	MERGED:          0	TO_CACHE:    4318865
L2C PQ	ACCESS:    2266594	FORWARD:          0	MERGED:          0	TO_CACHE:    2266592

L2C Instructions Evicting Data 529945
L2C Translations Evicting Data 75028
L2C Data Evicting Data 5825285
L2C Instructions Evicting Instructions 50922
L2C Translations Evicting Instructions 6373
L2C Data Evicting Instructions 519523
L2C Instructions Evicting Translations 6097
L2C Translations Evicting Translations 1166
L2C Data Evicting Translations 74082
L2C Dense regions hint from L2: 0
PSCL5 TOTAL     ACCESS:     172535  HIT:     172535  MISS:          0  HIT %:        100  MISS %:          0   MPKI: 0
PSCL5 LOAD TRANSLATION ACCESS:     113701  HIT:     113701  MISS:          0  HIT %:        100  MISS %:          0   MPKI: 0
PSCL5 TRANSLATION FROM L1D PREFETCHER ACCESS:      58834  HIT:      58834  MISS:          0  HIT %:        100  MISS %:          0   MPKI: 0
PSCL5 PREFETCH  REQUESTED:          0  ISSUED:          0  USEFUL:          0  USELESS:          0
PSCL5 USEFUL LOAD PREFETCHES:          0 PREFETCH ISSUED TO LOWER LEVEL:          0  ACCURACY: -nan
PSCL5 TIMELY PREFETCHES:          0 LATE PREFETCHES: 0 DROPPED PREFETCHES: 0
PSCL5 PREFETCHES SAME FILL-ORIGIN LEVEL: 0 DIFFERENT FILL-ORIGIN LEVEL: 0

PSCL4 TOTAL     ACCESS:     167559  HIT:     167129  MISS:        430  HIT %:    99.7434  MISS %:   0.256626   MPKI: 0.00215
PSCL4 LOAD TRANSLATION ACCESS:     111330  HIT:     110900  MISS:        430  HIT %:    99.6138  MISS %:   0.386239   MPKI: 0.00215
PSCL4 TRANSLATION FROM L1D PREFETCHER ACCESS:      56229  HIT:      56229  MISS:          0  HIT %:        100  MISS %:          0   MPKI: 0
PSCL4 PREFETCH  REQUESTED:          0  ISSUED:          0  USEFUL:          0  USELESS:          0
PSCL4 USEFUL LOAD PREFETCHES:          0 PREFETCH ISSUED TO LOWER LEVEL:          0  ACCURACY: -nan
PSCL4 TIMELY PREFETCHES:          0 LATE PREFETCHES: 0 DROPPED PREFETCHES: 0
PSCL4 PREFETCHES SAME FILL-ORIGIN LEVEL: 0 DIFFERENT FILL-ORIGIN LEVEL: 0

PSCL3 TOTAL     ACCESS:     171083  HIT:     170653  MISS:        430  HIT %:    99.7487  MISS %:    0.25134   MPKI: 0.00215
PSCL3 LOAD TRANSLATION ACCESS:     112436  HIT:     112006  MISS:        430  HIT %:    99.6176  MISS %:    0.38244   MPKI: 0.00215
PSCL3 TRANSLATION FROM L1D PREFETCHER ACCESS:      58647  HIT:      58647  MISS:          0  HIT %:        100  MISS %:          0   MPKI: 0
PSCL3 PREFETCH  REQUESTED:          0  ISSUED:          0  USEFUL:          0  USELESS:          0
PSCL3 USEFUL LOAD PREFETCHES:          0 PREFETCH ISSUED TO LOWER LEVEL:          0  ACCURACY: -nan
PSCL3 TIMELY PREFETCHES:          0 LATE PREFETCHES: 0 DROPPED PREFETCHES: 0
PSCL3 PREFETCHES SAME FILL-ORIGIN LEVEL: 0 DIFFERENT FILL-ORIGIN LEVEL: 0

PSCL2 TOTAL     ACCESS:     158438  HIT:     145694  MISS:      12744  HIT %:    91.9565  MISS %:    8.04352   MPKI: 0.06372
PSCL2 LOAD TRANSLATION ACCESS:     113991  HIT:     101247  MISS:      12744  HIT %:    88.8202  MISS %:    11.1798   MPKI: 0.06372
PSCL2 TRANSLATION FROM L1D PREFETCHER ACCESS:      44447  HIT:      44447  MISS:          0  HIT %:        100  MISS %:          0   MPKI: 0
PSCL2 PREFETCH  REQUESTED:          0  ISSUED:          0  USEFUL:          0  USELESS:          0
PSCL2 USEFUL LOAD PREFETCHES:          0 PREFETCH ISSUED TO LOWER LEVEL:          0  ACCURACY: -nan
PSCL2 TIMELY PREFETCHES:          0 LATE PREFETCHES: 0 DROPPED PREFETCHES: 0
PSCL2 PREFETCHES SAME FILL-ORIGIN LEVEL: 0 DIFFERENT FILL-ORIGIN LEVEL: 0

LLC TOTAL     ACCESS:   11099984  HIT:    4577300  MISS:    6522684  HIT %:     41.237  MISS %:     58.763   MPKI: 32.6134
LLC LOAD      ACCESS:    1781143  HIT:    1457210  MISS:     323933  HIT %:    81.8132  MISS %:    18.1868   MPKI: 1.61966
LLC RFO       ACCESS:    3424686  HIT:     939182  MISS:    2485504  HIT %:    27.4239  MISS %:    72.5761   MPKI: 12.4275
LLC PREFETCH  ACCESS:    1800006  HIT:     595203  MISS:    1204803  HIT %:    33.0667  MISS %:    66.9333   MPKI: 6.02402
AGUS PREFETCH L1 MISS: 0
LLC WRITEBACK ACCESS:    4011582  HIT:    1526052  MISS:    2485530  HIT %:    38.0412  MISS %:    61.9588   MPKI: 12.4276
LLC LOAD TRANSLATION ACCESS:      72672  HIT:      53042  MISS:      19630  HIT %:    72.9882  MISS %:    27.0118   MPKI: 0.09815
LLC TRANSLATION FROM L1D PREFETCHER ACCESS:       9895  HIT:       6611  MISS:       3284  HIT %:    66.8115  MISS %:    33.1885   MPKI: 0.01642
LLC PREFETCH  REQUESTED:          0  ISSUED:          0  USEFUL:       2414  USELESS:    1203999
LLC USEFUL LOAD PREFETCHES:       2414 PREFETCH ISSUED TO LOWER LEVEL:    1204803  ACCURACY: 0.200365
LLC TIMELY PREFETCHES:       2414 LATE PREFETCHES: 0 DROPPED PREFETCHES: 0
LLC PREFETCHES SAME FILL-ORIGIN LEVEL: 0 DIFFERENT FILL-ORIGIN LEVEL: 0
LLC AVERAGE MISS LATENCY: 136.577 cycles
LLC RQ	ACCESS:    5288415	FORWARD:          0	MERGED:          0	TO_CACHE:    5288396
LLC WQ	ACCESS:    4011582	FORWARD:         19	MERGED:          0	TO_CACHE:    4011582
LLC PQ	ACCESS:    1800006	FORWARD:          0	MERGED:          0	TO_CACHE:    1800006

LLC Dense regions hint to LLC: 0

RAW hits: 2340744
Loads Generated: 47521129
Loads sent to L1D: 45180384
Stores Generated: 33586965
Stores sent to L1D: 33586965
Major fault: 0 Minor fault: 22230
Allocated PAGES: 22230
ucb ended
-----------------------------------------------------------------------------------------------------------------------------------------------------------------------------------------------------
Offsets elements: 1465996491869 1 -1465996490415 219 1465991740926 -3758821 -1 8508092 18995156 -1466015485570 1465996490414 -9624569 477880 -1465987343506 1465996490195 -4749311 4749311 -9138539 4981949 4156589 -1465996490194 1465996490194 5467979 -1465992333835 1465986865856 -5467979 23151746 -23151745 1073538 3083051 -1465986865625 1465993407143 -1465993407374 1465993407374 -6541518 6541518 22078207 -22078207 3083052 -1465996490149 -292 328 1465996604963 -1465996606690 1465996606690 -1465996606720 1465996606720 -30 1465996482647 90 -1465996480980 1465996480889 19004378 -18880304 18880305 -1466015485268 -332 1466015485599 -1466015483806 1465986844614 -1465986846103 -1730 1730 1466015485295 -18995156 -1465996490196 1465987351657 28133696 -18995157 1466015485352 -28914515 -1465986571090 408 1466015485198 -28914516 9933718 2021 -16381 -4749268 4749268 -6358911 -1465990131284 1465990131283 -1465990131502 1465990131502 6358912 -9138497 9138496 -1465996490195 -219 1465993407720 3082695 -3082696 -6063993 9146688 18995157 1465996506577 -1465996506796 1465996506797 -16383 -486030 9624568 16382 -9640951 -1465986865856 1465996506807 9640951 9640952 -9640952 18978775 -18978777 -2021 -14359 -18980799 -1465996504809 1465996490455 121684 18873468 -1466015485606 398 1465996288698 215712 1465996612138 -1465996611730 -1466015485598 404 -412 1465996612139 -323040 5 -7 205483 -205482 -1465996289098 377 -78 36 -328 1465996605291 30 1727 1466015485268 -19004379 19004379 -1466015487026 -19004288 305 1489 1466015483807 -28639193 -1465986847833 1465996495961 18991066 -18996155 -1032 -199320 -6 -1465996494572 1465996488410 -199315 19196502 1466015485608 -18873469 -1466015485607 1466015485610 -18873471 18873470 -1466015485590 1465996583439 345 28337 -4961 18878432 2 -1466015485212 -16 1465996288716 -1465996289095 -2 35 375 1465996288687 -1465996289096 386 -386 1465996494549 -1465996494163 1466015485223 -19196510 -1465996289061 1465996289061 1465996504808 -1465996504413 -395 -1466015485231 -377 402 1465996611737 -117600 18991071 -1466015485610 18873469 -19196508 1466015485611 -1466015485211 1465996611738 -1465996611754 1466015485226 -1466015485609 401 1465996494135 -1466015485612 1466015485613 -18873474 18873473 -19196514 -1465996289062 208676 -9631917 28619754 -1466015485276 1466015485607 -1466015483813 1466015485302 -1466015485604 -4 1465996605295 -1465996603501 1465996603501 -1465996604963 1465986846076 1425 1794 -1465986846076 1465996481222 -1465996479424 1465996511171 18972640 -19004386 14 -1465996481240 1465996481240 19004371 -1466015483809 1466015483808 -19196513 -1465996497770 1465996506826 -1465996506494 -27 -1790 1465996480201 125094 -3219 -1465996479427 3 1466015483810 -19005406 -191108 -1465996290518 1465996482648 -192129 223874 -15198 -9926683 9718006 19196515 -1465996289100 1466015485614 -1466015485234 1465996288718 16128 19180388 -19122316 19122318 -19037155 -79876 -5288 -74520 15807 -1465996304556 1465996587440 17806 288223780709529729 -10419615 -2200619201325 2200619201348 -72119 72119 4 87060 9228 -9228 -14969 14968 9230 -12697130 -2200606404121 2200619092022 -12702693 12711919 -12697123 12687897 -1207742 1216967 -2200619181952 2200619181953 -12687903 -5 8228406 -8228407 12697136 -24198 2200619191179 -9227 9227 -9225 9224 -3 -12697131 12697132 -2200619190922 2200606493790 12660576 -2200619047642 2200619047645 12360 24188 -36548 10419340 -2200629472974 2200619077822 -24188 -36551 22 -20 21 16 -13265 13268 36530 -49797 49800 73228 -73252 -8 -49793 123052 -73253 23321 -23424 -36534 9 36522 -2200619108742 2200619108743 -36529 -13269 13248 -13250 57841 -8047 -49794 25607 -25606 13250 -2200619047641 2200619047644 36546 49794 123053 -73258 -49795 49793 -36528 36550 -36550 -10 10 6 36525 -36549 -12359 2200619047647 36545 24187 10395152 14787 -14787 12711921 -12697125 12697124 -9226 1192801 24170 -9230 9229 24202 -288223780699134316 18880338 -19196836 15808 19181028 -19196834 -1465996288778 -408 1465996288776 -1465996288390 1465996304198 -1465996304584 1466015485612 -1466015485219 -394 -15806 379 1465996611760 -1465996612139 -19196833 -15807 -323362 -1465996288751 1465996304559 -1465996288442 1466015485606 -1466015485301 1466015483813 -1466015485603 1465996480200 125095 -1465996605295 -1794 -1757 1465996478406 -1465996479868 1462 -1425 1465996481625 -1465996478403 1465996479425 31746 18972638 -19004385 19004386 -1465996288478 1465996482616 -1465996480889 1466015485274 -1466015487032 19004383 -18880310 18880311 -19004294 19005407 -1466015485302 1465996290199 -1465996304559 -15808 -1399 1466015485273 -1466015487031 124073 18880310 -19004293 -1489 1466015485301 -28639198 1422 371 1465996304213 -1465996304576 1465996304576 19181026 -1465996288477 124072 -1466015485273 1465996481017 -1465996481349 1465996480204 -175620 -1465996304213 -363 -1430 1465996306006 -1465996606716 1465996482660 -1465996480907 1465996481702 -795 -18 19004384 -18880309 18880309 1466015485605 -1466015483811 -28999644 -1465986487383 1465996306002 19180903 -1466015485310 -124018 -1465996480945 -308 -1466015485239 1465996288406 -9737278 -1465986552921 1465996290198 -19196835 19196834 -1466015485613 18873472 1465996497777 114362 -1465996612119 1465986865837 9717586 -9717585 -1465986868580 1465996608022 -21727 -4200 -1465996579374 1465996490071 -1465996490189 1465986865605 -1465986865824 -19 1465996583460 -9717617 9739442 -9739442 9713515 18906238 -18995168 1465996505557 -8190 -1465996497600 1465996583423 9622538 116904 -18902037 -4198 -81753 -11 -7167 -233 9622535 116907 -9717715 90982 -9713515 90981 18906237 -18988002 18988003 -1466015485576 1465996288741 -1465996288776 -371 406 -406 -399 397 -397 1465996288376 382 -382 410 -410 1465996288778 -1465996288779 -1465996494538 -381 23376 4962 19196833 -1466015485575 1465996288742 209001 -9926687 -1465986571091 -10041048 -55050 -1465986516041 1466015485609 -18873470 -19196830 19196831 -18987832 -1465996497777 216032 -18980798 1465991740927 -2111968 -1465989629178 1465989629178 6861237 1465994536884 1953531 -1465996490414 1465987351699 9148175 -9679 1465987343507 9163070 1465991741033 -2111728 6877271 -6877272 -1465989629535 1465989629535 6860890 -9138390 9138390 18995158 -1465996509451 2921 1430 1465996506821 -18980797 -14360 2798385 -1465994539530 1465994539530 1950885 -4154527 -1465992335668 1465996490415 -4154529 -4992160 18995155 -18995155 1465986865629 -1465986865848 1465986865848 9624566 -4749161 -4875405 -1465986865628 1465989629305 1465986865859 2763676 -2763676 2763677 25856045 -25856045 1466015485267 -19004378 -1466015487025 18880304 -19004287 1466015483806 -28639192 9644036 -1465996491870 1466015487026 -28133546 28133547 -1466015485352 1466015485353 -18995159 -1465996490447 1465986571090 -1465986570837 155 1465986570682 1465993408342 3082073 -28141846 28141845 -1465996506577 -4749162 6860889 -1465996506576 1465996506576 6877272 -6877273 6877273 25856047 -25856047 -9154771 -1465987351805 -1465996506807 1465986865860 9640948 -9640948 9640949 -9640949 28619724 18980798 -1465996504410 -409 -18873467 -1465996612131 412 1465996288367 323360 -323355 1465996494578 -1465996494279 78 -370 -1466015485296 1465986846103 -200673 199640 6160 -6160 -1465996488410 -199635 19196822 -1466015485592 28682 -28337 1465996288395 1465996288775 -1465996288741 -1466015485223 1466015485222 205771 -205772 1465996494539 -1465996494137 -402 -323360 -1466015485209 -400 -1466015485611 -1466015485227 1465996288393 323361 -1465996611737 1465996288371 -1465996288742 1465996494506 3235 -1465996497773 332 1465986865521 -1465986864059 -28639200 -1465986846404 -1429 1465996482646 1465986844611 28639199 -224195 208999 1465996506494 -1465996506521 1465996480197 -1465996481626 1465996286977 19196835 -19005407 -1465996480206 -1420 1465996499199 -16551 31745 18972641 1465986570712 28914522 15806 -19122319 85164 -5278 -1465996363278 -597444 615249 -288223780699705204 595090 288221580079908789 24174 -24197 -72096 -2200619004957 2200619004964 87218 -12741104 38116 12702988 -12741101 11533199 1216970 -9068 -2200619182113 2200619182115 9067 15128 -2200606441008 2200606441002 12750176 -9066 9065 -4468727 -8281451 -2200606440746 2200606440746 12725982 37936 -2200619097941 2200619097940 -37936 -10395152 -2200619077823 2200619091568 20 -63801 63804 -13766 -50037 50040 73260 -73284 -50032 123324 -73285 23424 -23527 13744 -13750 13771 -13768 13774 -2200619122516 2200619122507 -13763 -50039 -50038 25847 -25848 58082 -8043 8042 -58081 63786 -63784 -13769 13748 59541 -59544 17 -13760 13746 -2200619034158 2200619097954 12 -37955 2200619097943 -2200619077822 2200619077823 -12702988 -38122 12750178 -12750169 12750168 -1207902 1216971 -24170 24171 -9070 9070 -19495588 20158 -1465996010184 1466015485204 1465995990024 19495589 1465996009798 -1465996009790 1465995989632 -1465995990027 -1466015485233 1465995989647 -1465996010185 1465995990026 622113 -622114 -1465995989999 1465996010159 19475428 -1465995989690 -1466015483812 -19495585 -1465995989726 1465995991447 20160 -20159 -1727 1466015487030 -19004383 -18880311 1465996009813 -1465996010176 1465996010176 19475426 -20160 -19004256 -1465996481017 -470020 -1465996009813 1465996011606 -19495586 20159 -1465996010159 1466015485272 -19004366 794 123262 -1466015485272 1466015483811 1465996011602 19475304 -19475302 19475301 -1465996010008 1465996480971 -9929780 -1465986551499 1465995989654 -1465995991447 1465995991446 19495587 -18873473 -1465995990025 -1465995990006 1465996612119 -28696 -85641 -1465996500524 -9739443 9717716 -1465986865857 1465996579003 -88930 88930 -1465996579119 1465995989989 -1465995990024 -26 37 -1465995989616 378 -1465996611740 -88918 89263 19495585 1465995989990 507778 -1465996497803 1465986571092 10041047 -10095970 -1465986516169 -19495582 19495583 18873471 -18987807 514784 -16380 4749267 1465995609165 -1465995609384 1465995609384 881031 -9138496 28133653 1465996506796 1465991743427 1663148 3100001 -3100001 -1465993406806 -3100002 3100002 22078777 -22078777 3083619 1465993407827 -1465993408058 1465993408058 3098750 -16382 -9135996 9135996 -1465996506530 -2921 2629 1757 -18880306 -19004289 -1465996480979 1465996508252 -1465996506822 18978776 1465991740928 -3756654 -1465987984493 1465987984493 8505922 -28133651 9138495 -9624563 -1465986865851 1465986865633 9624562 -4746768 -1465986865631 1465993406575 1465986865862 6540944 -6540943 6540943 22078775 -22078775 1252 3082367 1465993407826 -1465993408057 1465993408057 -6542195 6542194 22077524 -22077523 3082368 -1466015485267 1465996480979 -1465996481311 -28131152 28131153 1465986571091 -1465986570838 1465986570683 9933717 1465991741147 -20446146 1450990 1465987343508 9163069 -3098750 3098751 -3098751 22077526 -22077525 -9135995 9152377 9640945 9640946 -9640945 28619720 1465995990027 622112 -622107 1465996494623 -1465996494324 1466015486995 19004380 1465996480890 -18880305 9648128 -1466015487027 1465996490872 -499425 498392 6205 -6205 -498387 19495574 1465995989643 -1465995990026 1465995990023 -1465995989989 504523 -504524 1465996504407 -378 -622112 1465996494538 18991073 1465996611754 1465995989618 504516 -1465996494506 1465996497766 -9631945 -1465986865853 -522947 507777 9027 18978782 -301 -1465996478407 -1462 1465996481626 1020 1465996478404 491202 -15169 18987809 -28914520 28914521 19495586 1465995989646 -19122309 85154 -5274 -1465996363282 -594884 612689 -588050 588050 -2200629620940 -23 72096 -72088 -2200619004965 2200619092246 -12741088 37988 12712102 -12750087 12750086 -9001 -1207966 -9004 -2200619182177 2200619182179 9003 -12750094 8281370 4459723 9004 -24196 24195 -9002 -2200619182179 2200619166984 -12725902 -2200606440826 2200619211290 -2200619104568 2200619104568 -44564 2200619098196 -70461 70464 -20394 -50069 50072 74092 -74116 -50071 50073 74115 -50588 -23630 20393 -20391 20399 -2200619129139 2200619058675 70444 -70446 25880 32234 -58112 50069 -50067 53745 -53748 -70441 -70442 50065 20397 -20396 -2200619084192 -20374 20374 20383 20375 44562 -2200619104569 2200619104571 -12703100 -37994 12750098 -12750089 12750088 -9006 9006 -288223780699134315 -19493028 24638 -1465996017224 -22 1465995992198 -1465995992584 1465996017224 -24638 -1465995992587 -619553 -1465996017225 1465995992586 619553 -619554 -1465995992559 1465996017199 19468388 -1465995992250 1465996480196 -1465996481625 -1466015485275 1465996478403 -1465996480926 1465996512672 -520386 -1465995992578 1465995994007 24640 -24639 -1465995992286 -1465996482646 1465996016853 -1465996017216 1465996017216 19468386 -19493025 -24640 24639 -1465995992285 -462980 -1465996016853 1465996018646 -19493026 -1465996017199 1466015485300 1426 19468261 -124019 -1465996480944 1465995992214 -9465725 19468387 -590857 -1465995995308 1465995995307 619554 -6839 -107490 -9631953 -1465996583572 1465986865857 9713517 -1465996579003 1465996579001 1465995992549 -1465995992176 -1465996612138 -1465996494521 23375 -1465996606779 1465996611740 19493025 1465995992550 505225 -1465996497810 -10095842 -1465986516297 -19493022 19493023 -18987800 512224 -4749267 1465993970385 -1465993970604 1465993970604 2519811 1465995607659 882755 1465995607440 882756 6619007 2519488 -28141844 9146687 1465991742576 2793933 1970067 -1970068 -1465994536739 1970069 -1970069 20948844 -20948843 1953686 -9136847 9136847 -2113793 -1465989627353 1465989627353 6863062 1465990699953 5790462 1465990699733 3836813 1953650 1465991208295 5281905 28133651 -9624559 -1465986865855 1465986865636 9624559 -4747619 1953685 -1465986865635 1465994536508 1465986865866 7670873 -7670873 20948842 -20948841 89 19004288 1465996488650 -9644037 28639193 -28132003 28132004 -18995158 -252 1465996506421 4749266 -8507179 -1465987983016 -8507190 -631305 9138494 1465993969350 2521066 -9146687 9146686 1970068 -9153228 -1465987353348 1465986865867 9640941 -9640941 9640942 -9640942 28619717 1465995992587 619552 -619547 1465996494641 -1465996494342 -1466015485601 -18991066 -9648128 9643039 -496865 -1465995994008 1465996489840 6223 -6223 -495827 19493014 1465995992203 -1465995992586 1465995992583 -1465995992549 501963 -501964 -19493024 -1465995992184 1465996497774 -3268 -9628685 -1466015485303 -520387 505224 -1465996497806 1465996478407 1465996603498 18880312 488639 -488640 487620 -1466015487033 1465996499231 -16583 -1465996481228 1465996512973 -9941880 1466015485233 -19493027 -19122305 85150 -5291 -1465996363265 -300932 318737 -305170 288223780709834899 -288223780699110114 96293 -96293 72093 14853 -2200619091905 2200619091905 -12687855 -14672 12711868 -12697193 12697192 -9341 -1207626 -9344 -2200619181839 2200619191182 -12697200 12673002 14852 -12687860 -2200606493977 2200619181837 9343 9341 -12697203 8228477 -2200614722197 2200606493720 12660226 12779 -12780 -2200619047224 2200619047224 12780 2200619040852 -12989 12992 36950 -49942 49943 74063 -74063 74064 -74084 -49937 124028 -74085 23630 
Potential of Offsets elements: 27.9853 1196.99 29.9853 27.9853 27.9853 27.9853 1176.99 27.9853 49.9853 27.9853 256.985 27.9853 27.9853 27.9853 27.9853 27.9853 27.9853 27.9853 27.9853 27.9853 27.9853 27.9853 27.9853 27.9853 33.9853 27.9853 27.9853 27.9853 27.9853 27.9853 27.9853 27.9853 27.9853 27.9853 27.9853 27.9853 27.9853 27.9853 27.9853 93.9853 35.9853 54.9853 153.985 93.9853 57.9853 83.9853 115.985 185.985 33.9853 32.9853 27.9853 102.985 67.9853 27.9853 27.9853 87.9853 139.985 33.9853 39.9853 57.9853 34.9853 87.9853 29.9853 27.9853 27.9853 27.9853 27.9853 27.9853 27.9853 27.9853 27.9853 27.9853 27.9853 27.9853 27.9853 27.9853 27.9853 27.9853 27.9853 27.9853 27.9853 27.9853 27.9853 27.9853 27.9853 27.9853 27.9853 27.9853 27.9853 27.9853 27.9853 27.9853 27.9853 27.9853 27.9853 27.9853 27.9853 27.9853 27.9853 27.9853 27.9853 27.9853 27.9853 27.9853 27.9853 27.9853 27.9853 27.9853 27.9853 27.9853 27.9853 27.9853 27.9853 27.9853 27.9853 27.9853 27.9853 27.9853 27.9853 27.9853 27.9853 27.9853 27.9853 27.9853 27.9853 27.9853 27.9853 27.9853 27.9853 1273.12 326.985 27.9853 27.9853 27.9853 29.9853 27.9853 35.9853 30.9853 27.9853 27.9853 27.9853 27.9853 27.9853 27.9853 41.9853 27.9853 60.9853 72.9853 27.9853 27.9853 30.9853 47.9853 27.9853 27.9853 29.9853 27.9853 476.985 27.9853 27.9853 27.9853 27.9853 122.985 34.9853 258.985 81.9853 76.9853 60.9853 27.9853 48.9853 27.9853 27.9853 59.9853 27.9853 713.985 46.9853 197.985 27.9853 27.9853 660.985 134.985 48.9853 27.9853 27.9853 48.9853 27.9853 27.9853 29.9853 36.9853 27.9853 27.9853 27.9853 41.9853 33.9853 29.9853 41.9853 52.9853 27.9853 27.9853 34.9853 27.9853 286.985 27.9853 27.9853 196.985 27.9853 34.9853 27.9853 27.9853 27.9853 47.9853 27.9853 27.9853 57.9853 59.9853 33.9853 27.9853 27.9853 27.9853 27.9853 27.9853 75.9853 94.9853 201.985 51.9853 158.985 666.985 63.9853 67.9853 157.985 157.985 38.9853 50.9853 213.985 27.9853 27.9853 27.9853 28.9853 27.9853 27.9853 534.985 27.9853 27.9853 27.9853 27.9853 27.9853 27.9853 27.9853 27.9853 27.9853 59.9853 32.9853 27.9853 27.9853 37.9853 27.9853 970.85 28.9853 27.9853 27.9853 27.9853 27.9853 27.9853 27.9853 27.9853 27.9853 27.9853 27.9853 27.9853 29.9853 27.9853 27.9853 27.9853 27.9853 27.9853 27.9853 27.9853 27.9853 27.9853 27.9853 27.9853 27.9853 27.9853 30.9853 27.9853 27.9853 27.9853 27.9853 27.9853 33.9853 688.985 27.9853 27.9853 27.9853 27.9853 27.9853 27.9853 27.9853 27.9853 27.9853 27.9853 27.9853 27.9853 27.9853 27.9853 27.9853 27.9853 37.9853 27.9853 989.985 27.9853 27.9853 27.9853 27.9853 27.9853 27.9853 27.9853 27.9853 27.9853 423.985 27.9853 45.9853 27.9853 27.9853 27.9853 27.9853 27.9853 27.9853 39.9853 27.9853 27.9853 31.9853 27.9853 27.9853 27.9853 436.985 61.9853 332.985 240.985 27.9853 27.9853 27.9853 27.9853 27.9853 27.9853 27.9853 400.985 27.9853 27.9853 27.9853 27.9853 27.9853 27.9853 150.985 27.9853 27.9853 27.9853 27.9853 27.9853 27.9853 27.9853 27.9853 27.9853 27.9853 27.9853 27.9853 27.9853 27.9853 27.9853 27.9853 27.9853 27.9853 46.9853 27.9853 27.9853 27.9853 27.9853 27.9853 434.985 208.985 384.985 27.9853 27.9853 27.9853 27.9853 27.9853 31.9853 27.9853 27.9853 27.9853 27.9853 27.9853 27.9853 30.9853 27.9853 28.9853 31.9853 27.9853 27.9853 27.9853 33.9853 27.9853 27.9853 27.9853 27.9853 27.9853 36.9853 123.985 38.9853 27.9853 27.9853 142.985 28.9853 45.9853 27.9853 27.9853 38.9853 214.985 27.9853 27.9853 27.9853 27.9853 27.9853 27.9853 27.9853 27.9853 27.9853 28.9853 27.9853 27.9853 39.9853 27.9853 27.9853 27.9853 27.9853 28.9853 30.9853 27.9853 27.9853 27.9853 27.9853 27.9853 27.9853 27.9853 27.9853 27.9853 27.9853 27.9853 27.9853 27.9853 27.9853 27.9853 27.9853 27.9853 27.9853 27.9853 27.9853 27.9853 27.9853 27.9853 27.9853 29.9853 27.9853 27.9853 37.9853 27.9853 27.9853 31.9853 27.9853 27.9853 27.9853 27.9853 27.9853 27.9853 27.9853 27.9853 27.9853 27.9853 27.9853 27.9853 27.9853 27.9853 27.9853 27.9853 27.9853 27.9853 27.9853 27.9853 27.9853 125.985 27.9853 27.9853 27.9853 29.9853 28.9853 27.9853 27.9853 27.9853 27.9853 27.9853 27.9853 27.9853 29.9853 27.9853 27.9853 27.9853 27.9853 27.9853 27.9853 27.9853 27.9853 27.9853 27.9853 27.9853 31.9853 27.9853 27.9853 27.9853 27.9853 27.9853 27.9853 42.9853 27.9853 27.9853 64.9853 27.9853 27.9853 475.985 27.9853 27.9853 27.9853 27.9853 27.9853 100.985 27.9853 30.9853 27.9853 27.9853 27.9853 27.9853 27.9853 39.9853 33.9853 27.9853 525.985 27.9853 27.9853 27.9853 30.9853 27.9853 43.9853 27.9853 27.9853 82.9853 27.9853 27.9853 27.9853 27.9853 27.9853 51.9853 40.9853 27.9853 46.9853 40.9853 27.9853 27.9853 40.9853 27.9853 33.9853 40.9853 27.9853 27.9853 45.9853 27.9853 31.9853 27.9853 27.9853 68.9853 27.9853 27.9853 27.9853 27.9853 27.9853 27.9853 27.9853 207.985 33.9853 27.9853 27.9853 43.9853 27.9853 27.9853 91.9853 27.9853 27.9853 27.9853 27.9853 27.9853 27.9853 27.9853 306.985 27.9853 27.9853 27.9853 27.9853 27.9853 27.9853 27.9853 27.9853 27.9853 27.9853 27.9853 27.9853 27.9853 27.9853 27.9853 27.9853 27.9853 27.9853 27.9853 27.9853 27.9853 27.9853 27.9853 27.9853 27.9853 27.9853 27.9853 27.9853 27.9853 27.9853 27.9853 27.9853 27.9853 27.9853 27.9853 27.9853 27.9853 27.9853 27.9853 27.9853 27.9853 27.9853 27.9853 27.9853 27.9853 27.9853 27.9853 27.9853 27.9853 27.9853 27.9853 27.9853 27.9853 27.9853 27.9853 27.9853 27.9853 27.9853 27.9853 27.9853 27.9853 27.9853 27.9853 27.9853 27.9853 27.9853 27.9853 27.9853 27.9853 27.9853 27.9853 27.9853 27.9853 27.9853 27.9853 27.9853 27.9853 27.9853 27.9853 27.9853 27.9853 27.9853 27.9853 27.9853 27.9853 27.9853 27.9853 27.9853 27.9853 27.9853 27.9853 27.9853 27.9853 27.9853 30.9853 27.9853 27.9853 27.9853 27.9853 27.9853 28.9853 33.9853 27.9853 33.9853 27.9853 27.9853 27.9853 27.9853 30.9853 27.9853 27.9853 27.9853 27.9853 57.9853 27.9853 27.9853 27.9853 35.9853 32.9853 27.9853 27.9853 33.9853 29.9853 27.9853 27.9853 27.9853 27.9853 247.985 35.9853 27.9853 27.9853 27.9853 27.9853 27.9853 27.9853 27.9853 27.9853 350.985 27.9853 27.9853 27.9853 30.9853 105.985 67.9853 27.9853 57.9853 27.9853 27.9853 225.985 27.9853 27.9853 66.9853 27.9853 27.9853 41.9853 27.9853 31.9853 27.9853 27.9853 27.9853 41.9853 27.9853 27.9853 27.9853 27.9853 27.9853 27.9853 27.9853 27.9853 27.9853 27.9853 27.9853 27.9853 27.9853 27.9853 27.9853 27.9853 27.9853 27.9853 27.9853 27.9853 27.9853 27.9853 27.9853 28.9853 27.9853 27.9853 27.9853 27.9853 27.9853 27.9853 27.9853 27.9853 27.9853 27.9853 27.9853 27.9853 27.9853 27.9853 27.9853 27.9853 27.9853 27.9853 27.9853 41.9853 27.9853 27.9853 478.985 27.9853 27.9853 27.9853 27.9853 27.9853 27.9853 27.9853 87.9853 27.9853 27.9853 27.9853 27.9853 27.9853 27.9853 27.9853 27.9853 27.9853 27.9853 27.9853 27.9853 27.9853 27.9853 27.9853 27.9853 27.9853 32.9853 27.9853 27.9853 27.9853 27.9853 27.9853 27.9853 27.9853 27.9853 506.985 27.9853 27.9853 27.9853 31.9853 457.985 27.9853 27.9853 54.9853 27.9853 27.9853 27.9853 27.9853 27.9853 27.9853 27.9853 27.9853 49.9853 39.9853 27.9853 27.9853 27.9853 27.9853 27.9853 27.9853 27.9853 27.9853 27.9853 27.9853 27.9853 27.9853 27.9853 27.9853 27.9853 27.9853 27.9853 27.9853 27.9853 27.9853 27.9853 27.9853 28.9853 27.9853 27.9853 27.9853 27.9853 27.9853 27.9853 27.9853 27.9853 76.9853 27.9853 27.9853 27.9853 27.9853 27.9853 27.9853 42.9853 27.9853 27.9853 27.9853 27.9853 27.9853 27.9853 63.9853 27.9853 30.9853 27.9853 27.9853 72.9853 27.9853 27.9853 27.9853 27.9853 27.9853 39.9853 27.9853 27.9853 27.9853 27.9853 27.9853 27.9853 52.9853 27.9853 27.9853 27.9853 27.9853 27.9853 27.9853 27.9853 27.9853 27.9853 39.9853 27.9853 27.9853 42.9853 27.9853 27.9853 290.985 102.985 27.9853 27.9853 34.9853 28.9853 27.9853 27.9853 27.9853 27.9853 27.9853 27.9853 27.9853 27.9853 27.9853 27.9853 27.9853 45.9853 36.9853 107.985 27.9853 27.9853 27.9853 27.9853 27.9853 27.9853 27.9853 27.9853 27.9853 27.9853 27.9853 27.9853 27.9853 27.9853 27.9853 27.9853 27.9853 27.9853 27.9853 27.9853 27.9853 27.9853 27.9853 27.9853 27.9853 27.9853 27.9853 27.9853 27.9853 27.9853 27.9853 27.9853 27.9853 27.9853 27.9853 27.9853 27.9853 27.9853 27.9853 27.9853 27.9853 27.9853 27.9853 27.9853 27.9853 27.9853 27.9853 27.9853 27.9853 27.9853 27.9853 27.9853 27.9853 27.9853 27.9853 27.9853 27.9853 27.9853 27.9853 27.9853 27.9853 27.9853 27.9853 27.9853 27.9853 27.9853 27.9853 27.9853 27.9853 27.9853 27.9853 27.9853 27.9853 27.9853 27.9853 27.9853 27.9853 27.9853 27.9853 27.9853 27.9853 27.9853 27.9853 27.9853 27.9853 27.9853 27.9853 27.9853 27.9853 27.9853 27.9853 27.9853 27.9853 27.9853 27.9853 27.9853 27.9853 27.9853 30.9853 27.9853 27.9853 27.9853 27.9853 27.9853 27.9853 27.9853 27.9853 27.9853 27.9853 27.9853 27.9853 27.9853 27.9853 27.9853 27.9853 27.9853 35.9853 27.9853 38.9853 35.9853 27.9853 27.9853 27.9853 27.9853 27.9853 27.9853 27.9853 49.9853 27.9853 27.9853 145.985 52.9853 27.9853 126.985 38.9853 44.9853 36.9853 27.9853 27.9853 27.9853 27.9853 27.9853 27.9853 27.9853 27.9853 27.9853 27.9853 27.9853 27.9853 27.9853 27.9853 27.9853 27.9853 75.9853 27.9853 27.9853 27.9853 27.9853 27.9853 27.9853 27.9853 27.9853 27.9853 27.9853 27.9853 27.9853 27.9853 27.9853 27.9853 27.9853 27.9853 27.9853 27.9853 27.9853 115.985 27.9853 27.9853 27.9853 27.9853 27.9853 27.9853 27.9853 27.9853 27.9853 27.9853 27.9853 27.9853 27.9853 27.9853 27.9853 27.9853 27.9853 27.9853 27.9853 27.9853 27.9853 27.9853 27.9853 27.9853 27.9853 27.9853 27.9853 27.9853 27.9853 27.9853 27.9853 27.9853 27.9853 27.9853 27.9853 27.9853 27.9853 27.9853 27.9853 27.9853 27.9853 27.9853 27.9853 27.9853 27.9853 27.9853 27.9853 27.9853 27.9853 27.9853 27.9853 27.9853 27.9853 27.9853 27.9853 27.9853 27.9853 27.9853 27.9853 27.9853 353.985 27.9853 27.9853 27.9853 27.9853 27.9853 27.9853 27.9853 27.9853 27.9853 27.9853 27.9853 27.9853 27.9853 27.9853 27.9853 27.9853 30.9853 27.9853 27.9853 27.9853 27.9853 27.9853 27.9853 27.9853 27.9853 27.9853 27.9853 27.9853 27.9853 27.9853 27.9853 27.9853 27.9853 27.9853 27.9853 27.9853 27.9853 27.9853 27.9853 27.9853 27.9853 27.9853 27.9853 27.9853 27.9853 27.9853 27.9853 27.9853 27.9853 27.9853 27.9853 27.9853 27.9853 27.9853 27.9853 27.9853 27.9853 27.9853 27.9853 27.9853 27.9853 27.9853 27.9853 27.9853 27.9853 27.9853 27.9853 27.9853 27.9853 27.9853 27.9853 27.9853 27.9853 27.9853 27.9853 27.9853 27.9853 27.9853 27.9853 27.9853 27.9853 27.9853 27.9853 27.9853 27.9853 27.9853 27.9853 27.9853 27.9853 27.9853 27.9853 27.9853 27.9853 27.9853 27.9853 27.9853 27.9853 27.9853 27.9853 27.9853 27.9853 27.9853 27.9853 27.9853 27.9853 27.9853 27.9853 27.9853 27.9853 27.9853 27.9853 27.9853 27.9853 27.9853 27.9853 27.9853 27.9853 27.9853 27.9853 27.9853 27.9853 27.9853 27.9853 27.9853 27.9853 27.9853 27.9853 62.9853 27.9853 248.985 27.9853 39.9853 27.9853 27.9853 460.985 27.9853 27.9853 27.9853 27.9853 27.9853 27.9853 27.9853 27.9853 27.9853 27.9853 27.9853 27.9853 27.9853 27.9853 27.9853 27.9853 27.9853 27.9853 27.9853 27.9853 27.9853 27.9853 27.9853 27.9853 27.9853 27.9853 365.985 27.9853 27.9853 27.9853 27.9853 27.9853 27.9853 27.9853 27.9853 27.9853 27.9853 27.9853 27.9853 27.9853 27.9853 27.9853 27.9853 27.9853 27.9853 27.9853 27.9853 27.9853 30.9853 27.9853 27.9853 27.9853 27.9853 29.9853 27.9853 27.9853 27.9853 27.9853 27.9853 27.9853 27.9853 27.9853 27.9853 27.9853 27.9853 27.9853 27.9853 27.9853 27.9853 27.9853 27.9853 27.9853 27.9853 27.9853 42.9853 27.9853 40.9853 27.9853 27.9853 27.9853 27.9853 27.9853 27.9853 27.9853 27.9853 27.9853 27.9853 27.9853 27.9853 27.9853 27.9853 36.9853 27.9853 27.9853 27.9853 27.9853 27.9853 27.9853 27.9853 27.9853 27.9853 27.9853 27.9853 27.9853 27.9853 27.9853 27.9853 27.9853 27.9853 27.9853 27.9853 27.9853 27.9853 29.9853 208.985 27.9853 27.9853 27.9853 27.9853 31.9853 27.9853 27.9853 27.9853 
rewards of Offsets elements: 0 1169 2 0 0 0 1149 0 22 0 229 0 0 0 0 0 0 0 0 0 0 0 0 0 6 0 0 0 0 0 0 0 0 0 0 0 0 0 0 66 8 27 126 66 30 56 88 158 6 5 0 75 40 0 0 60 112 6 12 30 7 60 2 0 0 0 0 0 0 0 0 0 0 0 0 0 0 0 0 0 0 0 0 0 0 0 0 0 0 0 0 0 0 0 0 0 0 0 0 0 0 0 0 0 0 0 0 0 0 0 0 0 0 0 0 0 0 0 0 0 0 0 0 0 0 0 0 0 0 1273 299 0 0 0 2 0 8 3 0 0 0 0 0 0 14 0 33 45 0 0 3 20 0 0 2 0 449 0 0 0 0 95 7 231 54 49 33 0 21 0 0 32 0 686 19 170 0 0 633 107 21 0 0 21 0 0 2 9 0 0 0 14 6 2 14 25 0 0 7 0 259 0 0 169 0 7 0 0 0 20 0 0 30 32 6 0 0 0 0 0 48 67 174 24 131 639 36 40 130 130 11 23 186 0 0 0 1 0 0 507 0 0 0 0 0 0 0 0 0 32 5 0 0 10 0 962 1 0 0 0 0 0 0 0 0 0 0 0 2 0 0 0 0 0 0 0 0 0 0 0 0 0 3 0 0 0 0 0 6 661 0 0 0 0 0 0 0 0 0 0 0 0 0 0 0 0 10 0 962 0 0 0 0 0 0 0 0 0 396 0 18 0 0 0 0 0 0 12 0 0 4 0 0 0 409 34 305 213 0 0 0 0 0 0 0 373 0 0 0 0 0 0 123 0 0 0 0 0 0 0 0 0 0 0 0 0 0 0 0 0 0 19 0 0 0 0 0 407 181 357 0 0 0 0 0 4 0 0 0 0 0 0 3 0 1 4 0 0 0 6 0 0 0 0 0 9 96 11 0 0 115 1 18 0 0 11 187 0 0 0 0 0 0 0 0 0 1 0 0 12 0 0 0 0 1 3 0 0 0 0 0 0 0 0 0 0 0 0 0 0 0 0 0 0 0 0 0 0 0 0 2 0 0 10 0 0 4 0 0 0 0 0 0 0 0 0 0 0 0 0 0 0 0 0 0 0 0 0 98 0 0 0 2 1 0 0 0 0 0 0 0 2 0 0 0 0 0 0 0 0 0 0 0 4 0 0 0 0 0 0 15 0 0 37 0 0 448 0 0 0 0 0 73 0 3 0 0 0 0 0 12 6 0 498 0 0 0 3 0 16 0 0 55 0 0 0 0 0 24 13 0 19 13 0 0 13 0 6 13 0 0 18 0 4 0 0 41 0 0 0 0 0 0 0 180 6 0 0 16 0 0 64 0 0 0 0 0 0 0 279 0 0 0 0 0 0 0 0 0 0 0 0 0 0 0 0 0 0 0 0 0 0 0 0 0 0 0 0 0 0 0 0 0 0 0 0 0 0 0 0 0 0 0 0 0 0 0 0 0 0 0 0 0 0 0 0 0 0 0 0 0 0 0 0 0 0 0 0 0 0 0 0 0 0 0 0 0 0 0 0 0 0 0 0 0 0 0 0 0 0 0 0 0 0 3 0 0 0 0 0 1 6 0 6 0 0 0 0 3 0 0 0 0 30 0 0 0 8 5 0 0 6 2 0 0 0 0 220 8 0 0 0 0 0 0 0 0 323 0 0 0 3 78 40 0 30 0 0 198 0 0 39 0 0 14 0 4 0 0 0 14 0 0 0 0 0 0 0 0 0 0 0 0 0 0 0 0 0 0 0 0 0 0 0 1 0 0 0 0 0 0 0 0 0 0 0 0 0 0 0 0 0 0 0 14 0 0 451 0 0 0 0 0 0 0 60 0 0 0 0 0 0 0 0 0 0 0 0 0 0 0 0 0 5 0 0 0 0 0 0 0 0 479 0 0 0 4 430 0 0 27 0 0 0 0 0 0 0 0 22 12 0 0 0 0 0 0 0 0 0 0 0 0 0 0 0 0 0 0 0 0 0 0 1 0 0 0 0 0 0 0 0 49 0 0 0 0 0 0 15 0 0 0 0 0 0 36 0 3 0 0 45 0 0 0 0 0 12 0 0 0 0 0 0 25 0 0 0 0 0 0 0 0 0 12 0 0 15 0 0 263 75 0 0 7 1 0 0 0 0 0 0 0 0 0 0 0 18 9 80 0 0 0 0 0 0 0 0 0 0 0 0 0 0 0 0 0 0 0 0 0 0 0 0 0 0 0 0 0 0 0 0 0 0 0 0 0 0 0 0 0 0 0 0 0 0 0 0 0 0 0 0 0 0 0 0 0 0 0 0 0 0 0 0 0 0 0 0 0 0 0 0 0 0 0 0 0 0 0 0 0 0 0 0 0 0 0 0 0 0 0 0 0 0 0 0 0 0 3 0 0 0 0 0 0 0 0 0 0 0 0 0 0 0 0 0 8 0 11 8 0 0 0 0 0 0 0 22 0 0 118 25 0 99 11 17 9 0 0 0 0 0 0 0 0 0 0 0 0 0 0 0 0 48 0 0 0 0 0 0 0 0 0 0 0 0 0 0 0 0 0 0 0 0 88 0 0 0 0 0 0 0 0 0 0 0 0 0 0 0 0 0 0 0 0 0 0 0 0 0 0 0 0 0 0 0 0 0 0 0 0 0 0 0 0 0 0 0 0 0 0 0 0 0 0 0 0 0 0 0 0 0 0 0 0 326 0 0 0 0 0 0 0 0 0 0 0 0 0 0 0 0 3 0 0 0 0 0 0 0 0 0 0 0 0 0 0 0 0 0 0 0 0 0 0 0 0 0 0 0 0 0 0 0 0 0 0 0 0 0 0 0 0 0 0 0 0 0 0 0 0 0 0 0 0 0 0 0 0 0 0 0 0 0 0 0 0 0 0 0 0 0 0 0 0 0 0 0 0 0 0 0 0 0 0 0 0 0 0 0 0 0 0 0 0 0 0 0 0 0 0 0 0 0 0 0 0 0 0 0 0 0 0 35 0 221 0 12 0 0 433 0 0 0 0 0 0 0 0 0 0 0 0 0 0 0 0 0 0 0 0 0 0 0 0 0 0 338 0 0 0 0 0 0 0 0 0 0 0 0 0 0 0 0 0 0 0 0 0 3 0 0 0 0 2 0 0 0 0 0 0 0 0 0 0 0 0 0 0 0 0 0 0 0 0 15 0 13 0 0 0 0 0 0 0 0 0 0 0 0 0 0 9 0 0 0 0 0 0 0 0 0 0 0 0 0 0 0 0 0 0 0 0 0 2 181 0 0 0 0 4 0 0 0 Printing Sanity3
offset_index value1454
offset list size1454
reward size1454
potential size1454
-----------------------------------------------------------------------------------------------------------------------------------------------------------------------------------------------------

DRAM Statistics
 CHANNEL 0
 RQ ROW_BUFFER_HIT:    2021216  ROW_BUFFER_MISS:    2015377
 DBUS_CONGESTED:       2322
 WQ ROW_BUFFER_HIT:     532678  ROW_BUFFER_MISS:    2090570  FULL:      47526

 AVG_CONGESTED_CYCLE: 3
 All warmup complete: 2
Channel 0 Bank busy for read cycles: 0
Channel 0 Bank busy for write cycles: 0
Channel 0
Rank 0
0banks busy for read cycles: 163225470
0banks busy for write cycles: 285102
1banks busy for read cycles: 43891177
1banks busy for write cycles: 39401514
2banks busy for read cycles: 14500147
2banks busy for write cycles: 16143563
3banks busy for read cycles: 16343332
3banks busy for write cycles: 7973083
4banks busy for read cycles: 5405583
4banks busy for write cycles: 4898069
5banks busy for read cycles: 4619726
5banks busy for write cycles: 3485379
6banks busy for read cycles: 5238641
6banks busy for write cycles: 3133868
7banks busy for read cycles: 6772672
7banks busy for write cycles: 5148667
8banks busy for read cycles: 20697922
8banks busy for write cycles: 30895016

CPU 0 Branch Prediction Accuracy: 99.9427% MPKI: 0.08834 Average ROB Occupancy at Mispredict: 107.686
Branch types
NOT_BRANCH: 169139646 84.5698%
BRANCH_DIRECT_JUMP: 1705434 0.852717%
BRANCH_INDIRECT: 9970641 4.98532%
BRANCH_CONDITIONAL: 12390177 6.19509%
BRANCH_DIRECT_CALL: 2773558 1.38678%
BRANCH_INDIRECT_CALL: 623355 0.311677%
BRANCH_RETURN: 3396900 1.69845%
BRANCH_OTHER: 0 0%

DRAM PAGES: 1048576
Allocated PAGES: 22230
