
*** ChampSim Multicore Out-of-Order Simulator ***

Warmup Instructions: 50000000
Simulation Instructions: 200000000
Number of CPUs: 1
LLC sets: 2048
LLC ways: 16
Off-chip DRAM Size: 4096 MB Channels: 1 Width: 64-bit Data Rate: 6400 MT/s
CPU 0 runs traces/spec2k17/server_011.champsimtrace.xz
.xz
BTB has LRU replacement policy
ITLB has LRU replacement policy
DTLB has LRU replacement policy
STLB has LRU replacement policy
L1I has LRU replacement policy
L1D has LRU replacement policy
Initialize SRRIP state for L2C
Initialize DRRIP state for LLC
Heartbeat CPU 0 instructions: 10000002 cycles: 2779639 heartbeat IPC: 3.59759 cumulative IPC: 3.59759 (Simulation time: 0 hr 0 min 36 sec) 
Heartbeat CPU 0 instructions: 20000000 cycles: 5554280 heartbeat IPC: 3.60407 cumulative IPC: 3.60083 (Simulation time: 0 hr 1 min 12 sec) 
Heartbeat CPU 0 instructions: 30000000 cycles: 8355235 heartbeat IPC: 3.57021 cumulative IPC: 3.59056 (Simulation time: 0 hr 1 min 46 sec) 
Heartbeat CPU 0 instructions: 40000001 cycles: 11130609 heartbeat IPC: 3.60312 cumulative IPC: 3.59369 (Simulation time: 0 hr 2 min 23 sec) 
Heartbeat CPU 0 instructions: 50000000 cycles: 13908128 heartbeat IPC: 3.60034 cumulative IPC: 3.59502 (Simulation time: 0 hr 2 min 58 sec) 

Warmup complete CPU 0 instructions: 50000004 cycles: 13908129 (Simulation time: 0 hr 2 min 58 sec) 

Offsets elements: 
Potential of Offsets elements: 
rewards of Offsets elements: 
Printing Sanity1
offset list size1627
Offsets elements: 
Potential of Offsets elements: 
rewards of Offsets elements: 6 0 130 17 0 0 173 0 3032 0 0 0 0 0 26 0 0 120 0 0 12 0 0 0 8 5 0 0 0 0 63 24 0 16 0 0 60 0 0 0 0 0 0 1746 5516 1612 154 0 2948 0 1943 78 65 38 0 0 123 0 0 0 62 0 0 292 100 43 0 0 1145 0 0 0 0 0 0 0 0 0 0 0 0 0 31 0 0 0 13 14 0 0 0 0 0 0 0 0 0 0 1 0 0 0 233 0 0 0 0 0 0 0 11 0 0 0 0 0 0 0 0 0 0 0 0 0 0 0 0 0 0 0 0 18 18 0 0 0 231 0 0 0 0 0 0 5 0 0 53 0 13 0 0 0 0 0 105 7 0 2 0 8 0 0 0 0 0 0 0 0 0 0 0 0 0 0 0 0 182 0 0 0 0 0 0 0 0 0 0 0 20 29 0 0 0 0 0 0 0 45 0 0 0 0 0 0 12 0 0 0 15 0 0 0 0 0 0 0 0 0 0 0 0 0 0 0 191 0 0 0 0 0 0 0 0 0 0 0 0 0 0 1486 0 0 0 0 0 0 0 0 0 1 0 0 0 0 0 0 0 0 25 0 0 0 0 0 0 0 0 0 0 0 0 0 0 0 0 0 0 0 0 0 0 0 0 0 0 0 0 0 0 0 497 0 0 0 0 202 0 0 0 0 0 0 0 0 0 0 0 0 0 0 0 0 0 0 0 0 0 0 0 0 0 0 0 0 0 0 0 0 0 0 0 18 0 0 0 0 0 0 0 0 0 0 0 0 0 0 124 0 0 1715 0 0 0 0 0 0 0 0 0 0 0 0 0 0 0 0 0 0 0 0 0 0 0 0 0 0 0 0 0 0 5 0 0 0 0 0 0 0 10 82 5 0 0 0 0 0 0 0 0 0 0 0 0 0 0 0 0 0 0 0 0 0 0 0 0 0 0 0 0 0 0 0 0 0 0 0 0 0 0 0 0 0 0 0 0 0 0 0 0 0 0 0 69 0 0 0 120 0 427 642 178 0 0 0 0 0 0 0 0 0 0 0 0 0 0 0 0 0 0 0 0 0 0 0 0 0 0 0 17 0 0 9 0 0 0 0 0 0 0 0 0 0 0 0 18 0 0 0 0 0 0 0 0 0 0 0 0 0 0 0 0 0 0 0 0 0 0 0 0 0 360 0 0 0 0 0 0 0 0 0 0 0 0 0 0 0 0 0 0 0 0 0 0 0 1 0 0 0 0 0 0 0 0 0 0 33 0 0 0 0 0 0 0 0 0 0 0 0 0 0 0 0 0 0 0 0 0 0 0 0 0 0 0 0 0 0 0 0 0 0 0 0 0 0 0 0 0 0 0 0 0 0 0 0 0 0 0 0 0 0 0 0 0 0 0 0 0 0 0 0 0 0 0 0 0 0 0 0 0 0 0 0 0 0 0 0 0 0 0 0 0 0 0 0 0 0 0 0 0 0 0 0 0 0 0 0 0 0 0 0 0 0 0 0 0 0 0 0 0 0 0 0 0 0 0 0 0 0 0 0 0 0 0 0 0 187 0 0 0 0 0 0 0 0 0 0 0 0 0 0 0 0 0 0 0 0 0 0 0 0 0 0 0 0 0 0 0 0 0 0 0 0 0 0 0 0 0 0 0 0 0 0 0 0 0 0 0 0 0 0 0 0 0 0 0 0 0 0 0 0 0 0 63 0 0 0 0 0 0 0 0 0 0 0 0 0 0 0 0 0 0 0 0 0 0 0 258 0 0 0 0 0 0 0 0 0 0 0 0 36 0 0 0 0 21 184 0 139 477 0 0 0 0 0 0 0 0 0 0 0 0 0 0 0 0 0 0 0 0 0 0 0 0 0 0 0 0 0 0 0 0 0 0 0 0 0 0 0 0 0 0 0 0 0 0 0 0 0 0 0 0 0 0 0 0 0 0 0 0 0 0 0 0 0 0 0 0 0 0 0 0 0 0 0 0 0 0 0 0 0 0 0 0 0 0 0 0 0 0 0 0 0 0 0 0 0 0 0 0 0 0 0 0 0 0 0 0 0 0 0 0 0 0 0 0 0 0 0 0 0 0 0 0 0 0 0 0 0 0 0 0 0 0 0 0 0 0 0 0 0 0 0 0 0 0 0 0 0 0 0 0 0 0 0 0 0 0 0 0 0 0 0 0 0 0 0 0 0 0 0 0 0 0 0 0 0 0 0 0 0 0 0 0 0 0 0 0 0 86 0 0 0 0 0 0 0 0 0 0 0 0 0 0 0 0 0 0 0 0 0 0 0 0 0 0 0 0 0 0 0 0 0 0 0 0 0 0 0 0 0 0 4 0 0 0 0 0 0 5 0 0 0 0 0 0 0 0 0 0 0 0 0 0 0 0 0 0 84 0 0 0 59 0 0 0 0 0 0 0 0 0 0 0 0 0 0 0 0 0 0 0 0 0 0 0 0 0 0 0 0 0 0 0 0 0 0 0 0 0 0 0 0 0 0 0 0 0 21 0 0 0 0 0 0 0 0 0 0 0 0 0 0 0 0 0 0 0 0 0 0 0 0 0 0 0 0 0 0 0 0 0 0 0 0 0 0 0 0 0 0 0 0 0 0 0 0 0 0 0 0 0 0 0 0 0 0 0 278 0 0 0 0 0 0 36 0 0 0 0 0 0 0 0 0 0 0 0 0 0 0 0 0 0 0 0 0 0 0 0 0 0 0 0 0 0 0 0 0 0 0 0 0 0 0 0 0 0 0 0 0 0 0 0 0 0 0 0 0 0 0 0 0 0 0 0 0 0 0 0 0 0 0 0 0 0 0 0 0 0 0 0 0 0 0 0 0 0 0 88 0 0 0 0 0 0 0 0 0 0 0 0 0 0 0 0 0 0 0 0 0 0 0 0 0 0 0 0 0 0 0 0 0 0 0 0 0 0 0 0 0 0 0 0 0 0 0 0 0 0 0 0 0 0 0 0 0 0 0 0 0 0 0 0 0 0 0 0 0 0 0 0 0 0 0 0 0 0 0 0 0 0 0 0 0 0 0 0 24 0 0 0 0 0 0 0 0 6 0 0 0 0 0 0 0 0 0 0 0 0 0 0 0 0 0 0 0 0 0 0 0 0 0 0 0 0 0 0 0 0 0 0 0 0 0 0 0 0 0 0 0 0 0 0 0 0 0 0 0 0 0 0 0 0 0 0 0 0 0 0 0 0 0 0 0 0 0 0 0 0 0 0 0 0 0 0 0 0 0 0 0 0 0 0 0 0 0 0 0 0 0 0 0 0 0 0 0 0 0 0 0 0 0 0 0 0 0 0 0 0 0 0 0 0 0 0 0 0 0 0 0 0 0 0 0 0 0 0 0 0 0 0 0 0 0 0 0 0 0 0 0 0 0 0 0 0 0 0 0 0 0 0 0 0 0 0 0 0 0 0 0 0 0 0 0 0 0 0 0 0 0 0 0 0 0 0 0 0 0 38 0 0 0 0 0 0 0 0 0 0 0 0 0 0 0 3 0 0 0 0 0 0 0 0 0 0 0 0 0 0 0 0 0 0 0 0 0 0 0 0 0 0 0 0 0 0 0 0 0 0 0 0 0 0 0 0 0 0 0 0 0 0 0 0 0 0 0 0 0 0 0 0 0 0 0 0 0 0 0 0 0 0 0 0 0 0 0 0 
Printing Sanity2
Heartbeat CPU 0 instructions: 60000001 cycles: 38023588 heartbeat IPC: 0.414672 cumulative IPC: 0.414672 (Simulation time: 0 hr 4 min 2 sec) 
Heartbeat CPU 0 instructions: 70000000 cycles: 62032211 heartbeat IPC: 0.416517 cumulative IPC: 0.415592 (Simulation time: 0 hr 5 min 4 sec) 
Heartbeat CPU 0 instructions: 80000001 cycles: 87685355 heartbeat IPC: 0.389816 cumulative IPC: 0.40663 (Simulation time: 0 hr 6 min 6 sec) 
Heartbeat CPU 0 instructions: 90000003 cycles: 113581818 heartbeat IPC: 0.386153 cumulative IPC: 0.40131 (Simulation time: 0 hr 7 min 7 sec) 
Heartbeat CPU 0 instructions: 100000003 cycles: 136749377 heartbeat IPC: 0.431638 cumulative IPC: 0.407029 (Simulation time: 0 hr 8 min 10 sec) 
*** Reached end of trace for Core: 0 Repeating trace: traces/spec2k17/server_011.champsimtrace.xz
Heartbeat CPU 0 instructions: 110000000 cycles: 160458061 heartbeat IPC: 0.421786 cumulative IPC: 0.409417 (Simulation time: 0 hr 9 min 10 sec) 
Heartbeat CPU 0 instructions: 120000003 cycles: 184714392 heartbeat IPC: 0.412264 cumulative IPC: 0.409821 (Simulation time: 0 hr 10 min 12 sec) 
Heartbeat CPU 0 instructions: 130000000 cycles: 209032189 heartbeat IPC: 0.411221 cumulative IPC: 0.409996 (Simulation time: 0 hr 11 min 15 sec) 
Heartbeat CPU 0 instructions: 140000002 cycles: 235600004 heartbeat IPC: 0.376395 cumulative IPC: 0.405969 (Simulation time: 0 hr 12 min 18 sec) 
Heartbeat CPU 0 instructions: 150000000 cycles: 259837039 heartbeat IPC: 0.412592 cumulative IPC: 0.406622 (Simulation time: 0 hr 13 min 23 sec) 
Heartbeat CPU 0 instructions: 160000002 cycles: 283712489 heartbeat IPC: 0.41884 cumulative IPC: 0.407703 (Simulation time: 0 hr 14 min 25 sec) 
Heartbeat CPU 0 instructions: 170000000 cycles: 307652658 heartbeat IPC: 0.417708 cumulative IPC: 0.408518 (Simulation time: 0 hr 15 min 30 sec) 
Heartbeat CPU 0 instructions: 180000002 cycles: 334342049 heartbeat IPC: 0.374681 cumulative IPC: 0.4057 (Simulation time: 0 hr 16 min 32 sec) 
Heartbeat CPU 0 instructions: 190000001 cycles: 358955710 heartbeat IPC: 0.406278 cumulative IPC: 0.405741 (Simulation time: 0 hr 17 min 32 sec) 
Heartbeat CPU 0 instructions: 200000002 cycles: 382211811 heartbeat IPC: 0.429995 cumulative IPC: 0.407273 (Simulation time: 0 hr 18 min 33 sec) 
*** Reached end of trace for Core: 0 Repeating trace: traces/spec2k17/server_011.champsimtrace.xz
Heartbeat CPU 0 instructions: 210000001 cycles: 405804170 heartbeat IPC: 0.423866 cumulative IPC: 0.408272 (Simulation time: 0 hr 19 min 33 sec) 
Heartbeat CPU 0 instructions: 220000000 cycles: 430139451 heartbeat IPC: 0.410926 cumulative IPC: 0.408427 (Simulation time: 0 hr 20 min 34 sec) 
Heartbeat CPU 0 instructions: 230000002 cycles: 454025436 heartbeat IPC: 0.418656 cumulative IPC: 0.408982 (Simulation time: 0 hr 21 min 35 sec) 
Heartbeat CPU 0 instructions: 240000001 cycles: 480989988 heartbeat IPC: 0.370857 cumulative IPC: 0.406781 (Simulation time: 0 hr 22 min 39 sec) 
Heartbeat CPU 0 instructions: 250000000 cycles: 504784519 heartbeat IPC: 0.420265 cumulative IPC: 0.407435 (Simulation time: 0 hr 23 min 40 sec) 
Finished CPU 0 instructions: 200000000 cycles: 490876393 cumulative IPC: 0.407435 (Simulation time: 0 hr 23 min 40 sec) 

ChampSim completed all CPUs

Region of Interest Statistics

CPU 0 cumulative IPC: 0.407435 instructions: 200000000 cycles: 490876393
ITLB TOTAL     ACCESS:   32107328  HIT:   31346049  MISS:     761279  HIT %:     97.629  MISS %:    2.37104   MPKI: 3.8064
ITLB LOAD TRANSLATION ACCESS:   32107328  HIT:   31346049  MISS:     761279  HIT %:     97.629  MISS %:    2.37104   MPKI: 3.8064
ITLB PREFETCH  REQUESTED:          0  ISSUED:          0  USEFUL:          0  USELESS:          0
ITLB USEFUL LOAD PREFETCHES:          0 PREFETCH ISSUED TO LOWER LEVEL:          0  ACCURACY: -nan
ITLB TIMELY PREFETCHES:          0 LATE PREFETCHES: 0 DROPPED PREFETCHES: 0
ITLB PREFETCHES SAME FILL-ORIGIN LEVEL: 0 DIFFERENT FILL-ORIGIN LEVEL: 0
ITLB AVERAGE MISS LATENCY: 15.7581 cycles
ITLB RQ	ACCESS:   38678938	FORWARD:          0	MERGED:    6386837	TO_CACHE:   32292101

DTLB TOTAL     ACCESS:   38455637  HIT:   36081163  MISS:    2374474  HIT %:    93.8254  MISS %:    6.17458   MPKI: 11.8724
DTLB LOAD TRANSLATION ACCESS:   38455637  HIT:   36081163  MISS:    2374474  HIT %:    93.8254  MISS %:    6.17458   MPKI: 11.8724
DTLB PREFETCH  REQUESTED:          0  ISSUED:          0  USEFUL:          0  USELESS:          0
DTLB USEFUL LOAD PREFETCHES:          0 PREFETCH ISSUED TO LOWER LEVEL:          0  ACCURACY: -nan
DTLB TIMELY PREFETCHES:          0 LATE PREFETCHES: 0 DROPPED PREFETCHES: 0
DTLB PREFETCHES SAME FILL-ORIGIN LEVEL: 0 DIFFERENT FILL-ORIGIN LEVEL: 0
DTLB AVERAGE MISS LATENCY: 14.2993 cycles
DTLB RQ	ACCESS:   48936703	FORWARD:          0	MERGED:   10343385	TO_CACHE:   38593318

STLB TOTAL     ACCESS:   10391540  HIT:    9965739  MISS:     425801  HIT %:    95.9024  MISS %:    4.09757   MPKI: 2.129
STLB LOAD TRANSLATION ACCESS:    3135753  HIT:    2711992  MISS:     423761  HIT %:    86.4861  MISS %:    13.5139   MPKI: 2.11881
STLB TRANSLATION FROM L1D PREFETCHER ACCESS:    7255787  HIT:    7253747  MISS:       2040  HIT %:    99.9719  MISS %:  0.0281155   MPKI: 0.0102
STLB PREFETCH  REQUESTED:          0  ISSUED:          0  USEFUL:       1986  USELESS:         53
STLB USEFUL LOAD PREFETCHES:       1986 PREFETCH ISSUED TO LOWER LEVEL:          0  ACCURACY: inf
STLB TIMELY PREFETCHES:       1986 LATE PREFETCHES: 233 DROPPED PREFETCHES: 33301
STLB PREFETCHES SAME FILL-ORIGIN LEVEL: 0 DIFFERENT FILL-ORIGIN LEVEL: 0
STLB AVERAGE MISS LATENCY: 41.6254 cycles
STLB RQ	ACCESS:   11779510	FORWARD:          0	MERGED:    1354058	TO_CACHE:   10425452

STLB Hit, L1D data hit: 0
STLB Hit, L2C data hit: 0
STLB Hit, LLC data hit: 0
STLB Hit, LLC data miss: 0
STLB STLB hints to L2: 0
L1D TOTAL     ACCESS:   56789940  HIT:   53723598  MISS:    3066342  HIT %:    94.6006  MISS %:    5.39945   MPKI: 15.3317
L1D LOAD      ACCESS:   29121754  HIT:   27107552  MISS:    2014202  HIT %:    93.0835  MISS %:    6.91649   MPKI: 10.071
L1D RFO       ACCESS:   19286755  HIT:   18946118  MISS:     340637  HIT %:    98.2338  MISS %:    1.76617   MPKI: 1.70318
L1D PREFETCH  ACCESS:    8381431  HIT:    7669928  MISS:     711503  HIT %:     91.511  MISS %:    8.48904   MPKI: 3.55751
AGUS PREFETCH L1 MISS: 0
L1D PREFETCH  REQUESTED:   17499832  ISSUED:   17499671  USEFUL:     254905  USELESS:     456473
L1D USEFUL LOAD PREFETCHES:     254905 PREFETCH ISSUED TO LOWER LEVEL:     760784  ACCURACY: 33.5056
L1D TIMELY PREFETCHES:     254905 LATE PREFETCHES: 46755 DROPPED PREFETCHES: 33301
L1D PREFETCHES SAME FILL-ORIGIN LEVEL: 760784 DIFFERENT FILL-ORIGIN LEVEL: 0
L1D AVERAGE MISS LATENCY: 4.4081e+06 cycles
L1D RQ	ACCESS:   43748990	FORWARD:          0	MERGED:   14302132	TO_CACHE:   29233566
L1D WQ	ACCESS:   19987410	FORWARD:     223815	MERGED:     284273	TO_CACHE:   19703137
L1D PQ	ACCESS:    8855914	FORWARD:          0	MERGED:     201634	TO_CACHE:    8643757

L1D UNIQUE REGIONS ACCESSED: 0
L1D REGIONS CONFLICTS: 0
L1D Cross Page Prefetch Requests: 147124
L1D Same Page Prefetch Requests: 8708790
L1D ROI Sum of L1D PQ occupancy: 112054559
L1D PREFETCHES PUSHED FROM L2C: 0
L1I TOTAL     ACCESS:   37141378  HIT:   32273114  MISS:    4868264  HIT %:    86.8926  MISS %:    13.1074   MPKI: 24.3413
L1I LOAD      ACCESS:   37141378  HIT:   32273114  MISS:    4868264  HIT %:    86.8926  MISS %:    13.1074   MPKI: 24.3413
L1I PREFETCH  REQUESTED:          0  ISSUED:          0  USEFUL:          0  USELESS:          0
L1I USEFUL LOAD PREFETCHES:          0 PREFETCH ISSUED TO LOWER LEVEL:          0  ACCURACY: -nan
L1I TIMELY PREFETCHES:          0 LATE PREFETCHES: 0 DROPPED PREFETCHES: 0
L1I PREFETCHES SAME FILL-ORIGIN LEVEL: 0 DIFFERENT FILL-ORIGIN LEVEL: 0
L1I AVERAGE MISS LATENCY: 29.6782 cycles
L1I RQ	ACCESS:   57583746	FORWARD:          0	MERGED:   18904808	TO_CACHE:   38678938

BTB TOTAL     ACCESS:   23884119  HIT:   18824312  MISS:    5059807  HIT %:    78.8152  MISS %:    21.1848   MPKI: 25.299
BTB BRANCH_DIRECT_JUMP	ACCESS:    1754249  HIT:    1463659  MISS:     290590
BTB BRANCH_INDIRECT	ACCESS:    9786566  HIT:    7419553  MISS:    2367013
BTB BRANCH_CONDITIONAL	ACCESS:    5653971  HIT:    5194175  MISS:     459796
BTB BRANCH_DIRECT_CALL	ACCESS:    2532331  HIT:    1980726  MISS:     551605
BTB BRANCH_INDIRECT_CALL	ACCESS:     808488  HIT:     692902  MISS:     115586
BTB BRANCH_RETURN	ACCESS:    3348514  HIT:    2073297  MISS:    1275217
BTB BRANCH_OTHER ACCESS:          0  HIT:          0  MISS:          0

L2C TOTAL     ACCESS:    9547735  HIT:    5541009  MISS:    4006726  HIT %:    58.0348  MISS %:    41.9652   MPKI: 20.0336
L2C LOAD      ACCESS:    6835638  HIT:    3666176  MISS:    3169462  HIT %:    53.6333  MISS %:    46.3667   MPKI: 15.8473
L2C DATA LOAD MPKI: 4.71537
L2C INSTRUCTION LOAD MPKI: 11.1319
L2C RFO       ACCESS:     338108  HIT:     167689  MISS:     170419  HIT %:    49.5963  MISS %:    50.4037   MPKI: 0.852095
L2C PREFETCH  ACCESS:     760781  HIT:     350304  MISS:     410477  HIT %:    46.0453  MISS %:    53.9547   MPKI: 2.05239
AGUS PREFETCH L1 MISS: 0
L2C DATA PREFETCH MPKI: 2.05239
L2C INSTRUCTION PREFETCH MPKI: 0
L2C WRITEBACK ACCESS:    1020763  HIT:     973373  MISS:      47390  HIT %:    95.3574  MISS %:    4.64261   MPKI: 0.23695
L2C LOAD TRANSLATION ACCESS:     537200  HIT:     329485  MISS:     207715  HIT %:    61.3338  MISS %:    38.6662   MPKI: 1.03858
L2C TRANSLATION FROM L1D PREFETCHER ACCESS:      55245  HIT:      53982  MISS:       1263  HIT %:    97.7138  MISS %:    2.28618   MPKI: 0.006315
L2C PREFETCH  REQUESTED:          0  ISSUED:          0  USEFUL:      26582  USELESS:     384437
L2C USEFUL LOAD PREFETCHES:      26582 PREFETCH ISSUED TO LOWER LEVEL:     410477  ACCURACY: 6.47588
L2C TIMELY PREFETCHES:      26582 LATE PREFETCHES: 0 DROPPED PREFETCHES: 0
L2C PREFETCHES SAME FILL-ORIGIN LEVEL: 0 DIFFERENT FILL-ORIGIN LEVEL: 0
L2C AVERAGE MISS LATENCY: 43.4042 cycles
L2C RQ	ACCESS:    7766267	FORWARD:          0	MERGED:          0	TO_CACHE:    7766191
L2C WQ	ACCESS:    1020763	FORWARD:         79	MERGED:          0	TO_CACHE:    1020763
L2C PQ	ACCESS:     760784	FORWARD:          0	MERGED:          0	TO_CACHE:     760781

L2C Instructions Evicting Data 865800
L2C Translations Evicting Data 86028
L2C Data Evicting Data 600587
L2C Instructions Evicting Instructions 1248335
L2C Translations Evicting Instructions 113041
L2C Data Evicting Instructions 838910
L2C Instructions Evicting Translations 112253
L2C Translations Evicting Translations 9909
L2C Data Evicting Translations 84473
L2C Dense regions hint from L2: 0
PSCL5 TOTAL     ACCESS:     459107  HIT:     459107  MISS:          0  HIT %:        100  MISS %:          0   MPKI: 0
PSCL5 LOAD TRANSLATION ACCESS:     423533  HIT:     423533  MISS:          0  HIT %:        100  MISS %:          0   MPKI: 0
PSCL5 TRANSLATION FROM L1D PREFETCHER ACCESS:      35574  HIT:      35574  MISS:          0  HIT %:        100  MISS %:          0   MPKI: 0
PSCL5 PREFETCH  REQUESTED:          0  ISSUED:          0  USEFUL:          0  USELESS:          0
PSCL5 USEFUL LOAD PREFETCHES:          0 PREFETCH ISSUED TO LOWER LEVEL:          0  ACCURACY: -nan
PSCL5 TIMELY PREFETCHES:          0 LATE PREFETCHES: 0 DROPPED PREFETCHES: 0
PSCL5 PREFETCHES SAME FILL-ORIGIN LEVEL: 0 DIFFERENT FILL-ORIGIN LEVEL: 0

PSCL4 TOTAL     ACCESS:     431961  HIT:     430654  MISS:       1307  HIT %:    99.6974  MISS %:   0.302574   MPKI: 0.006535
PSCL4 LOAD TRANSLATION ACCESS:     403144  HIT:     401837  MISS:       1307  HIT %:    99.6758  MISS %:   0.324202   MPKI: 0.006535
PSCL4 TRANSLATION FROM L1D PREFETCHER ACCESS:      28817  HIT:      28817  MISS:          0  HIT %:        100  MISS %:          0   MPKI: 0
PSCL4 PREFETCH  REQUESTED:          0  ISSUED:          0  USEFUL:          0  USELESS:          0
PSCL4 USEFUL LOAD PREFETCHES:          0 PREFETCH ISSUED TO LOWER LEVEL:          0  ACCURACY: -nan
PSCL4 TIMELY PREFETCHES:          0 LATE PREFETCHES: 0 DROPPED PREFETCHES: 0
PSCL4 PREFETCHES SAME FILL-ORIGIN LEVEL: 0 DIFFERENT FILL-ORIGIN LEVEL: 0

PSCL3 TOTAL     ACCESS:     455715  HIT:     452241  MISS:       3474  HIT %:    99.2377  MISS %:   0.762319   MPKI: 0.01737
PSCL3 LOAD TRANSLATION ACCESS:     420146  HIT:     416672  MISS:       3474  HIT %:    99.1731  MISS %:   0.826855   MPKI: 0.01737
PSCL3 TRANSLATION FROM L1D PREFETCHER ACCESS:      35569  HIT:      35569  MISS:          0  HIT %:        100  MISS %:          0   MPKI: 0
PSCL3 PREFETCH  REQUESTED:          0  ISSUED:          0  USEFUL:          0  USELESS:          0
PSCL3 USEFUL LOAD PREFETCHES:          0 PREFETCH ISSUED TO LOWER LEVEL:          0  ACCURACY: -nan
PSCL3 TIMELY PREFETCHES:          0 LATE PREFETCHES: 0 DROPPED PREFETCHES: 0
PSCL3 PREFETCHES SAME FILL-ORIGIN LEVEL: 0 DIFFERENT FILL-ORIGIN LEVEL: 0

PSCL2 TOTAL     ACCESS:     439876  HIT:     330517  MISS:     109359  HIT %:    75.1387  MISS %:    24.8613   MPKI: 0.546795
PSCL2 LOAD TRANSLATION ACCESS:     423972  HIT:     314613  MISS:     109359  HIT %:    74.2061  MISS %:    25.7939   MPKI: 0.546795
PSCL2 TRANSLATION FROM L1D PREFETCHER ACCESS:      15904  HIT:      15904  MISS:          0  HIT %:        100  MISS %:          0   MPKI: 0
PSCL2 PREFETCH  REQUESTED:          0  ISSUED:          0  USEFUL:          0  USELESS:          0
PSCL2 USEFUL LOAD PREFETCHES:          0 PREFETCH ISSUED TO LOWER LEVEL:          0  ACCURACY: -nan
PSCL2 TIMELY PREFETCHES:          0 LATE PREFETCHES: 0 DROPPED PREFETCHES: 0
PSCL2 PREFETCHES SAME FILL-ORIGIN LEVEL: 0 DIFFERENT FILL-ORIGIN LEVEL: 0

LLC TOTAL     ACCESS:    4439776  HIT:    4077949  MISS:     361827  HIT %:    91.8503  MISS %:    8.14967   MPKI: 1.80913
LLC LOAD      ACCESS:    3169461  HIT:    2956933  MISS:     212528  HIT %:    93.2945  MISS %:    6.70549   MPKI: 1.06264
LLC RFO       ACCESS:     170419  HIT:     112287  MISS:      58132  HIT %:    65.8888  MISS %:    34.1112   MPKI: 0.29066
LLC PREFETCH  ACCESS:     410477  HIT:     332600  MISS:      77877  HIT %:    81.0277  MISS %:    18.9723   MPKI: 0.389385
AGUS PREFETCH L1 MISS: 0
LLC WRITEBACK ACCESS:     480441  HIT:     474204  MISS:       6237  HIT %:    98.7018  MISS %:    1.29818   MPKI: 0.031185
LLC LOAD TRANSLATION ACCESS:     207715  HIT:     200792  MISS:       6923  HIT %:    96.6671  MISS %:    3.33293   MPKI: 0.034615
LLC TRANSLATION FROM L1D PREFETCHER ACCESS:       1263  HIT:       1133  MISS:        130  HIT %:     89.707  MISS %:     10.293   MPKI: 0.00065
LLC PREFETCH  REQUESTED:          0  ISSUED:          0  USEFUL:       5026  USELESS:      68056
LLC USEFUL LOAD PREFETCHES:       5026 PREFETCH ISSUED TO LOWER LEVEL:      77877  ACCURACY: 6.45377
LLC TIMELY PREFETCHES:       5026 LATE PREFETCHES: 0 DROPPED PREFETCHES: 0
LLC PREFETCHES SAME FILL-ORIGIN LEVEL: 0 DIFFERENT FILL-ORIGIN LEVEL: 0
LLC AVERAGE MISS LATENCY: 152.263 cycles
LLC RQ	ACCESS:    3548859	FORWARD:          0	MERGED:          0	TO_CACHE:    3548858
LLC WQ	ACCESS:     480441	FORWARD:          1	MERGED:          0	TO_CACHE:     480441
LLC PQ	ACCESS:     410477	FORWARD:          0	MERGED:          0	TO_CACHE:     410477

LLC Dense regions hint to LLC: 0

RAW hits: 2622173
Loads Generated: 46371163
Loads sent to L1D: 43748990
Stores Generated: 19987388
Stores sent to L1D: 19987410
Major fault: 0 Minor fault: 7361
Allocated PAGES: 7361
ucb ended
-----------------------------------------------------------------------------------------------------------------------------------------------------------------------------------------------------
Offsets elements: 44 4397630804108 6889275 -6889276 8491141 -4397639295301 9 131766052 1 -131766062 4397639295292 -8491140 -4397499038086 -131766075 20 4397634536736 -4397634536735 -12 4397630804152 -4397630804140 32 4397637693383 -4397637693416 46 -45 27 4397639295253 -4397639295281 131807637 -131807590 -46 45 1014279 -29 4397629789845 -4397630804114 -28 4397630804141 -4397629789847 -1014293 1014291 -1867 -1012425 2 -1 -21 66 1010564 4 -1010634 -3 53 -53 54 4397630804104 -4397630804158 12 1016975 -2508 -1014455 -11 1014464 -1014452 -10 10 -133 4397629789826 -4397629873111 -2 -931045 4397639295302 -4397639295291 1016964 4397629789691 4397630804107 8491143 -4397639295250 -388065566 388065517 4397630804157 -4397630804104 -32 33 1017479 -373 -1017140 -20 -18 903379 -903380 1017114 858 4397629786165 -4397629806214 -997942 4397639295303 4397630804137 -4397629786625 374 4397629786997 -388065472 388065433 11 4397630804159 4397630804148 -8491142 8491142 -4397630804159 4397633342756 -4397633342688 -70 4397637693438 -4397637693434 4397637693434 -4397637693436 4397637693436 -4397637693435 4397630804158 -4397630804161 4397502770681 -4397634536747 -4397639295234 4397630804094 -4397498996504 -131807637 47 4397630804140 -4397637693369 -4397630804141 4397639295280 -4397639295253 19 -19 1014298 8491138 -4397639295265 -7 4397637693407 -4397637693400 -16 41 -388065125 105 -66 4398018869186 -4397630804127 -15 40 -41 4397630804098 -4397630804138 4397630804126 8491139 -4397639295239 -65 65 4397633342695 -72 4397633342759 -71 -4350678 -4398021407782 388065095 -388065241 388986684 -388986683 388065241 921440 -388986681 921441 -388986682 4397629882651 -1601865 -6889273 -4397639295266 -388061223 -5 388061177 4397639295279 -388061208 4398018865304 4397639295281 -8491141 -4397630804115 -25 -4397629789957 -1014183 25 -24 24 1014153 -1014176 916400 -916376 1014156 -1014134 1014131 35 4397629789927 916425 -916426 916420 -916440 1014411 2511 1014453 -1014412 -1014278 -54 931045 -931043 -4397638364257 -931044 4397630804145 -4397629787181 4397629789690 -4397630804157 4397630804106 8491144 388065515 -388065517 388065527 4397630804156 -4397630804103 -33 1017533 -1017160 903380 113754 4397629786164 4397630804136 -4397629786624 4397629786996 388065432 -8491144 -5952543 -2538600 71 -73 3 -4397637693427 -51 -4397499038099 -131766061 131766070 131766066 -131766022 -4758545 -4397634536736 49 -48 131807636 -131807636 4397630804139 -4397630804091 4397637693367 4397630804091 -4397630804160 42 1016921 1014462 -1014463 4397629789825 -4397629873110 -4397629787182 2509 4397629787181 903381 -903379 903361 4397629900776 -4397629786164 -858 -1017135 997944 -997940 4397639295301 -4397639295302 1017512 -903381 -903360 -4397629786091 -1018066 114154 -1017514 903362 113752 398 -23 835 -4 -4397629787096 -1017061 -4397630804137 903367 -6 114157 -1017163 1017531 -1017159 1017139 -1017114 -4397629786153 -1018004 1017993 4397638277310 1018238 -1018237 903390 113753 -113763 407 470 -479 833 -824 1300 4397629785688 903394 4397638391908 -4397638391922 113792 360 386 -114214 13 -903324 1017497 4397629786982 388065449 -4397630804156 72 -74 -6889277 -4397639295231 4397630804090 -4397630804090 131807587 -49 4397637693415 -4397639295256 916351 97782 4397629789957 1014177 -1014153 -36 1010729 -1010730 52 1014455 -1014456 -1016963 1014410 -1014464 1014331 1017134 -2538601 -8491143 -4397637693438 4397507529230 -4397507529226 -3732596 4397639295248 -4397498996503 50 6889276 -50 51 4397630804160 -1016975 1014467 1014452 -1014462 -4397629806213 1017513 4397629786623 -4397629786996 372 1017115 860 -17290 -97372 4397629900824 -4397639295282 1017516 -374 370 2538600 5952543 74 -76 -4397639295230 4397630804089 -4397630804089 131807586 1601865 -1014132 -8491139 -6889274 -4397630804126 4397630804138 -4397639295259 -22 970975 -970974 1013524 -1013520 1013522 4397629790594 1013156 -1013156 916457 -916453 -4397630804118 970926 42571 4397629790595 -4397630804125 -388064983 4398018869108 -4397639295279 4397633342723 -4397633342684 4397630804087 932154 130833478 4397501577089 -4397633342683 -38 4397637693399 -4397637693364 4397630804135 -4397633342723 4397637693361 6889272 6889273 398812 -7288085 -4397630804099 4397637693371 -6889272 8491137 -8491136 -4397630804130 8491135 -8491135 -4397630804131 8 -8 48 -388061282 388061247 4397639295231 -4397639295280 4397630804144 -4397630804095 4397639295230 4397630804131 -388061098 388061083 -4397630804107 2508 4397629789828 -4397629873115 -931047 -4397629787185 4397629787185 -4398027360815 8491140 -4397633342682 4397630804085 -6889275 4397637693435 -4397630804088 4397637693363 4397630804142 4397630804143 -39 38 4397639295228 73 4397633342687 -78 -4397633342681 -77 4397637693359 -6889270 4397633342685 -4397633342680 4397630804088 6889270 -4397630804102 4397633342693 -13 -4397637693372 4397637693372 -4397637693370 -388061277 4398025754648 -4397633342679 4397637693357 -6889269 6889269 -6889268 8491133 4397633342722 -4397637693399 4397633342721 -4397633342678 4397637693356 -4397633342677 -6889266 8491131 -4397639295274 -388064889 388064882 4397630804169 -4397630804167 131806377 6 4397501336087 -4397633142472 4397630804166 -4397630804168 -8491134 4397633342749 -58 57 4397637693358 -388064883 388064940 -56 -4397639295303 -4397507488926 4397498997791 -4397630804166 131806381 -131806383 -4397498997784 4397633142470 -4397633142461 -2538592 -4397630804084 -62 4397630804147 -4397630804147 -4397630804143 -4397639295222 -4397630804173 4397630804173 8491130 -4397639295225 131806858 -131806858 -17 4397630804112 -4397617912569 4397624801833 -4350672 4737039 -4397636665075 -393787 130775390 -130381597 -438412 497386 67522 4397629262942 -4397630804096 131806866 4397501344254 -4397633151119 -388064110 401037331 -11976551 4397629807442 -4397629814175 6837 -6837 -389054065 389060913 464128 11512313 -11512313 4397629343198 -4397637813510 4397629322375 -4397629807436 -996667 12973218 -12973217 996660 6838 -6847 -389060912 389525041 -464128 11976441 20823 131211 -131211 -543349 674560 -131210 -1481729 1542360 -55892 -1486468 1486468 1481728 4397629322374 -4397637754429 4397629263295 8491134 2538591 914839 -914834 -4397629263294 108067 28070 -28070 4397631693818 -4397633342675 4397637693353 -4397636152564 4397631801886 -4397633342674 1540789 4397636152563 -4397636016429 4397631665751 1676923 -136134 -4397636016428 4397631665750 -4397633342673 -136135 -4397632404324 -938348 4397637693350 -4397636755001 4397636755001 -4397636755002 4397632404322 -4397633342671 4397637693349 4397633342671 4667697 -4397638010367 4397633342670 -4397633342670 -4397633342669 4397633342669 4397637693347 -4397630804079 4397633342673 4397639295214 -4397639295216 -4397639295217 4397630804081 -4397637618293 4397629127160 -4397629127160 -4397633342668 4397637693346 -4397636079381 4397636079381 -62953 4397631728703 -4397631728702 -1613965 4397637693345 -4397633342666 4397633342666 4397638010363 -4667697 4350678 -4397637693343 4397633342665 4397637693343 -4397637693346 4397630804070 2538594 -4397633342664 5 4397637693348 -4397637693345 4397637693344 -4397637693344 4397639295209 -4397639295211 -4397639295212 4397630804076 -4397633342662 4397630804073 2538590 4397630804072 6889268 -4397639295208 4397630804075 7287074 1204059 -8491133 4397637693340 -4397630804086 964940 -964940 4397638029087 -335732 -4397636633719 -1059635 1676925 -1676925 4397637693354 -4397636077364 -2016 -1613975 4397637693355 -4397637693356 -4397636728415 4397637064148 1266132 -4397639295220 1059636 4397636633719 -4397637693354 -1676926 1676926 -656420 130783155 4397501321964 6169585 -4397630804072 131803630 4397505889720 -4397637693350 4397630804079 4397639295215 131803626 -131803626 4397639295211 -4397639295210 4397630804074 4397639295210 -4397639295207 4397637693342 -4397630804075 -4397630804076 1613967 -1613968 4397636079380 -8491137 1613963 -1613967 -4397630804074 -6889271 8491136 -4397629355172 4397636244443 -4397637693355 4397638029089 -4397637064148 4397636728415 -4397638235584 -1059636 -1676914 4397501321926 -4397633125560 -4397507491585 -131803625 4397630804071 6889271 -4397630804071 -4397629190109 -4397629355174 4397637846310 964941 -1676913 1676914 -1676918 4397507491581 131803633 -131803633 4397633125559 -4397633125569 -1613964 4397629190110 -4397637681246 -9 1448896 4397636244449 335733 1613965 -4397629355171 4397637846307 4397629190108 -4397629355169 4397637846305 4397638330280 1613966 -4397629355176 4397636244447 -4397639295221 -4397629355173 4397637846309 -4397629355175 4397637846311 4397633125569 -4397633125556 -4397629355177 4397637846313 -4397629190108 4397630804077 -1613974 -4397636244441 -1448915 -2321484 -4397633342661 4397637693338 -4397633342659 4397633342659 4397637693337 4397630804086 16 1613960 -1613960 4397630804069 -4397629871974 4397629871974 -4397633342658 4397630804064 -4397630804069 -4397630804068 -4397637693341 4397630804068 -1613959 4397633342661 4397639295201 -4397633342657 4397630804063 -4397630804067 -4397637693338 4397630804066 4397629190109 7306901 -4397638110967 -4397630804064 -4397633342656 4397637693334 -4397639295202 4397633342658 4397630804061 -4397637693337 4397630804065 -4397633342654 4397630804060 -8491138 -4397630804062 -2538595 -4397630804059 4397637693332 -4397630804066 4397630804067 -4397630804085 15 1448897 -1448896 2538593 4397633342654 -4397639295196 4397638110961 -7306901 -4397637846308 -1448891 -4397637693333 4397633342655 -4397633342653 4397637693330 -4397630804060 4397633342656 -4397630804057 4397630804062 4397630804057 -4397637693336 -4397639295206 1448895 -1448894 4397633342651 -4397639295194 4397639295196 -4397636662075 -1448886 4397630804058 -4397630804058 4397633342653 -4397633342650 4397637693328 -4397630804055 4397630804059 1448894 131766243 4397502772187 -1195765 1195764 -234 405 -172 4601082 2020 -4603101 -224 -4397502771928 4397501576406 1195768 4603057 -4603057 4603082 -8337445 3734363 4602924 -8337287 4603052 -8337416 3734364 4603049 -4603049 -3734364 8337433 -4603069 -3734365 3734429 4602708 -8337137 4397634636465 -97890 -1195918 1195918 43 4600886 -4601012 4603036 -8337471 3734518 4602916 -4602916 -3734520 3734556 97727 4504856 -8337140 3719322 -4397634523374 4397630804052 -4397634523373 131766248 4397499037803 3734520 4602953 -4602917 -3734554 4602897 3734519 4602792 -4602792 3734557 -3734558 -4397630804052 4397634538573 4602899 -8337418 4602920 -4602920 4602919 -4602919 -3734521 3734559 -4397634538611 4397630804055 4602895 -4602952 8337439 4397634538574 4602946 -8337467 2538608 1195913 3734365 64 -8337465 2538606 1195760 -3734366 1448891 -1448890 4397639295192 4768308 1184235 1448877 -1448880 4397637693329 -4397637693328 4397633342650 -4397633342647 4397637693325 -4397637693326 4397639295191 1448890 2538595 1448898 -1448897 4397633342646 -4397639295189 -4397638110956 1448884 4397629355169 -4397630804053 4397633342648 -4397633342645 4397637693323 -4397630804050 4397630804054 -4397501576422 4397502772188 -4601315 4602930 -1195768 1195767 233 -3734363 -4397499037811 4397502771928 4603297 -158 97981 4602617 4397634538569 1195917 -84 126 -4600929 -112962 4617818 -4397630804047 4397630804047 -4397634523368 4397639295189 -4397499037804 4397502772324 3734558 -4397634538605 4397630804050 -8337472 4397634538568 -4397634538606 -2538607 -154 -2538605 -4397637693339 1448900 -1448899 18 4397633342644 -4397639295186 -4397636662070 -1448883 4397633342645 -4397633342642 4397637693321 -4397630804051 1448899 4397629355170 4397637693320 1448893 -1448892 4397631893769 -4397639295200 4397639295184 -417630 -4397636244447 -1448874 4397630804048 -4397630804048 4397633342643 -4397633342640 4397637693318 -4397630804045 4397630804049 1448892 4397633342657 -4397630804044 4397637693317 -1448895 4397631893766 22 4397630804045 -4397639295184 4397637693319 -4397636662074 4397633342640 -4397633342637 4397633342638 -4397630804042 4397637693315 -1448893 -4397636244446 4397633342663 26 4397633342636 -4397639295204 4397639295181 -4397636662076 -1448870 4397630804043 -4397630804043 -4397633342635 4397637693313 -4397630804040 -4397637693316 -4397630804039 4397637693312 -4397629355178 4397631893770 -4397633342663 4397637693341 -4397639295205 28 -27 4397638110965 -4397637846313 -1448866 4397637693314 -4397637693313 4397630804040 4397633342635 -4397633342632 4397637693311 -4397630804037 4397637693310 4397630804042 4397630804037 -1448898 -2538593 -4397499038496 -131765541 -4397637693311 4397630804041 4397631893763 4397633342630 -4397633342629 4397639295172 -4397639295175 -4397636662071 -1448869 4397633342632 -4397633342628 4397637693306 -4397637693307 4397633342629 -4397630804033 4397637693309 -4397637693310 4397630804038 -4397633342627 -35 4397633342662 -4397633342633 7 131765537 -131765536 4397630804039 -4398018865163 388980547 142732 -85360 4397632365834 -4397632440149 -902476 4397637693303 -4397505857812 4397505857812 4397637693307 -388061124 388061124 1613927 -1613927 1448864 228016 -134478 134478 -134477 -134479 -190466 130428 -130428 -1616842 1448862 228018 -134483 134483 -134482 134482 -60038 -130430 55986 -190469 130430 1676880 -228022 228022 -134489 134488 -55983 130433 -1616841 1486409 130432 -167977 93536 134479 -190467 55989 -60039 -130429 130429 -1486412 1676879 -228013 228013 -134475 134475 -190465 130427 -74436 -130427 -1486414 -228020 228020 -134486 134485 -130431 55984 134486 -190470 130431 -228017 228017 -134481 134481 -134480 -55987 -228019 228019 -134484 134484 -228021 228021 -134487 134487 -190471 -130432 1448865 93537 134477 -134476 134476 -55990 4397629187195 -4397629926676 -877362 1540778 4397629263294 -4397629127159 -1676931 938357 -938354 4397638091163 -4397638091163 1613976 -1613976 1448913 -1448913 1448911 -1448911 1448914 -1448907 1448915 1448908 -4397630804093 4397633342683 -4397633342624 4397633342624 4397637693302 -4397631801886 -1540737 1540737 -602452 4397632404338 -4397633342623 4397637693301 -4397633342622 4397630804028 4397637693300 -4397630804029 131776328 4397501566297 -4397633342625 4397639295167 -4397630804028 -4397633342621 4397637693299 6889274 -2538596 -4397630804025 938287 130859319 -519862196 389003433 4397629865187 -4397629791430 4397638282568 -4397633342620 4397637693297 -4397633342619 4397630804024 -1540733 4397633342619 -4397633342618 4397637693296 4397633342618 -4397633342617 4397637693295 4397633342617 -4397633342616 4397637693294 -4397629926674 4397637197957 -4397636534574 4397629263291 -4397629782519 -24914 616276 4397629191163 -4397629814177 5350 -389059410 389059410 617664 -152033 152033 -616807 464774 4397629343195 -4397637879355 4397629388217 -4397629388217 124926 -59081 4397636593656 -4397637078717 4397632346028 -4397633342615 4397630804018 -4397636696682 -453 546122 -546122 -996162 990145 -990145 990147 623081 -367 -70578 70578 -70577 70577 367 4397629190794 -4397629388218 198106 -4397629155447 -35346 35347 4397629155446 -4397629127047 -137362 4397629264410 -4397637755547 4397629264409 4397633342682 4397630804023 877429 -877429 4397638086412 -4397638086416 1540803 -613920 -926884 4397633342690 -4397632408845 4397632408845 -4397633342614 4397637693291 -4398025758024 388996647 4397636761377 -4397636857804 4397636857804 -4397636857803 -835491 4397633342616 -4397633342613 -4397637693294 -388064729 388064728 2538599 -4397632351815 -990798 4397630804014 -4397629870247 130834586 -130692505 4397636617442 -4397637693295 -4397505924746 -131768549 -4397630804016 -75 -4397633342612 -4397639295158 1540730 -1648797 1648573 28402 -282163 -15390 -1379423 1379423 297553 4397629127042 1613983 4397629190105 -4397630804087 -675636 -4397639295157 -4397630804017 1540728 -1540800 1613984 4397631728702 -4397632404338 -938274 4397637693364 -4397636079380 -1613912 938276 -938276 4397630804017 -4397629190105 -1613979 -4397633342611 4397630804020 1613925 14 -4397630804032 4397633342622 -4397633342610 4397630804016 -4397637693300 2538592 4397637693287 -4397633342608 -4397630804019 4397630804019 -4397630804030 1613909 -1613920 877342 130958304 4397499667578 -4397629889318 -242766 23666 15390 4397629409205 2538596 -4397633342607 4397637693285 -4397637693291 4397630804029 -4397637693303 4397630804031 -4397630804023 -4397637693287 4397633342609 -4397637693297 -4397629864219 130841932 4397502858805 -4397633700737 4397638355356 -4397639295170 4397630804027 -4397630804027 4397633342620 -4397633342606 4397637693284 -4397637693298 4397630804025 4397633342611 1542345 -1542349 1448841 4397629355176 -4397637752788 130225446 -130225446 -93528 4397631893773 -4397633342605 4397637693283 -4397637693285 4397630804010 -4397639295150 -4397630804010 -388061102 4398018865112 -4397638355211 -389005084 4398027360295 -4397638274713 4397638274713 4397633342607 4397630804012 -4397630804036 877358 -877344 -14 -1540728 1676862 -1676860 4397639295157 -4397507459420 4397498968282 136134 4397639295153 131835737 4397498968283 -877352 -4397639295224 4397630804092 7287076 -7287075 39 -4397630804092 75 4397633342627 -4397633342603 4397630804013 -95 4397633342698 -4397633342602 4397637693280 397807 7287075 -4397637157330 4397633342602 -4397633342601 4397637693279 4398025758024 -4397636761377 4397632507126 -4397632507125 -835476 4397637693278 -4398025758023 4398018868753 -4397629813223 4397632351815 -4397633342600 933755 4397629728172 -4397630804012 4397630804011 -4397637693281 131768535 4397507526611 -4397633342599 832019 4397629971988 -4397639295145 4397637693277 -4397630804011 6889267 -7287074 -4397629863882 -940212 -4397630804015 -388060947 389000113 -389000113 388938370 135739 -134324 -22109 -388917676 4398018865038 -1204058 -4748485 4397630804008 4397630804093 -4397629864926 -939167 -388060913 388060913 921430 4397629882662 -1204057 -7287076 -4397632421231 -921367 4397630804009 -4397633342597 4397630804005 -4397639295143 4397639295143 
Potential of Offsets elements: 34.0839 28.0839 158.084 45.0839 28.0839 28.0839 201.084 28.0839 3032.12 28.0839 28.0839 28.0839 28.0839 28.0839 54.0839 28.0839 28.0839 148.084 28.0839 28.0839 40.0839 28.0839 28.0839 28.0839 36.0839 33.0839 28.0839 28.0839 28.0839 28.0839 91.0839 52.0839 28.0839 44.0839 28.0839 28.0839 88.0839 28.0839 28.0839 28.0839 28.0839 28.0839 28.0839 1774.08 1443.71 1640.08 182.084 28.0839 2976.08 28.0839 1971.08 106.084 93.0839 66.0839 28.0839 28.0839 151.084 28.0839 28.0839 28.0839 90.0839 28.0839 28.0839 320.084 128.084 71.0839 28.0839 28.0839 1173.08 28.0839 28.0839 28.0839 28.0839 28.0839 28.0839 28.0839 28.0839 28.0839 28.0839 28.0839 28.0839 28.0839 59.0839 28.0839 28.0839 28.0839 41.0839 42.0839 28.0839 28.0839 28.0839 28.0839 28.0839 28.0839 28.0839 28.0839 28.0839 28.0839 29.0839 28.0839 28.0839 28.0839 261.084 28.0839 28.0839 28.0839 28.0839 28.0839 28.0839 28.0839 39.0839 28.0839 28.0839 28.0839 28.0839 28.0839 28.0839 28.0839 28.0839 28.0839 28.0839 28.0839 28.0839 28.0839 28.0839 28.0839 28.0839 28.0839 28.0839 28.0839 28.0839 46.0839 46.0839 28.0839 28.0839 28.0839 259.084 28.0839 28.0839 28.0839 28.0839 28.0839 28.0839 33.0839 28.0839 28.0839 81.0839 28.0839 41.0839 28.0839 28.0839 28.0839 28.0839 28.0839 133.084 35.0839 28.0839 30.0839 28.0839 36.0839 28.0839 28.0839 28.0839 28.0839 28.0839 28.0839 28.0839 28.0839 28.0839 28.0839 28.0839 28.0839 28.0839 28.0839 28.0839 28.0839 210.084 28.0839 28.0839 28.0839 28.0839 28.0839 28.0839 28.0839 28.0839 28.0839 28.0839 28.0839 48.0839 57.0839 28.0839 28.0839 28.0839 28.0839 28.0839 28.0839 28.0839 73.0839 28.0839 28.0839 28.0839 28.0839 28.0839 28.0839 40.0839 28.0839 28.0839 28.0839 43.0839 28.0839 28.0839 28.0839 28.0839 28.0839 28.0839 28.0839 28.0839 28.0839 28.0839 28.0839 28.0839 28.0839 28.0839 28.0839 219.084 28.0839 28.0839 28.0839 28.0839 28.0839 28.0839 28.0839 28.0839 28.0839 28.0839 28.0839 28.0839 28.0839 28.0839 1514.08 28.0839 28.0839 28.0839 28.0839 28.0839 28.0839 28.0839 28.0839 28.0839 29.0839 28.0839 28.0839 28.0839 28.0839 28.0839 28.0839 28.0839 28.0839 53.0839 28.0839 28.0839 28.0839 28.0839 28.0839 28.0839 28.0839 28.0839 28.0839 28.0839 28.0839 28.0839 28.0839 28.0839 28.0839 28.0839 28.0839 28.0839 28.0839 28.0839 28.0839 28.0839 28.0839 28.0839 28.0839 28.0839 28.0839 28.0839 28.0839 28.0839 28.0839 525.084 28.0839 28.0839 28.0839 28.0839 230.084 28.0839 28.0839 28.0839 28.0839 28.0839 28.0839 28.0839 28.0839 28.0839 28.0839 28.0839 28.0839 28.0839 28.0839 28.0839 28.0839 28.0839 28.0839 28.0839 28.0839 28.0839 28.0839 28.0839 28.0839 28.0839 28.0839 28.0839 28.0839 28.0839 28.0839 28.0839 28.0839 28.0839 28.0839 28.0839 46.0839 28.0839 28.0839 28.0839 28.0839 28.0839 28.0839 28.0839 28.0839 28.0839 28.0839 28.0839 28.0839 28.0839 28.0839 152.084 28.0839 28.0839 1743.08 28.0839 28.0839 28.0839 28.0839 28.0839 28.0839 28.0839 28.0839 28.0839 28.0839 28.0839 28.0839 28.0839 28.0839 28.0839 28.0839 28.0839 28.0839 28.0839 28.0839 28.0839 28.0839 28.0839 28.0839 28.0839 28.0839 28.0839 28.0839 28.0839 28.0839 33.0839 28.0839 28.0839 28.0839 28.0839 28.0839 28.0839 28.0839 38.0839 110.084 33.0839 28.0839 28.0839 28.0839 28.0839 28.0839 28.0839 28.0839 28.0839 28.0839 28.0839 28.0839 28.0839 28.0839 28.0839 28.0839 28.0839 28.0839 28.0839 28.0839 28.0839 28.0839 28.0839 28.0839 28.0839 28.0839 28.0839 28.0839 28.0839 28.0839 28.0839 28.0839 28.0839 28.0839 28.0839 28.0839 28.0839 28.0839 28.0839 28.0839 28.0839 28.0839 28.0839 28.0839 28.0839 28.0839 28.0839 28.0839 28.0839 28.0839 28.0839 28.0839 97.0839 28.0839 28.0839 28.0839 148.084 28.0839 455.084 670.084 206.084 28.0839 28.0839 28.0839 28.0839 28.0839 28.0839 28.0839 28.0839 28.0839 28.0839 28.0839 28.0839 28.0839 28.0839 28.0839 28.0839 28.0839 28.0839 28.0839 28.0839 28.0839 28.0839 28.0839 28.0839 28.0839 28.0839 28.0839 45.0839 28.0839 28.0839 37.0839 28.0839 28.0839 28.0839 28.0839 28.0839 28.0839 28.0839 28.0839 28.0839 28.0839 28.0839 28.0839 46.0839 28.0839 28.0839 28.0839 28.0839 28.0839 28.0839 28.0839 28.0839 28.0839 28.0839 28.0839 28.0839 28.0839 28.0839 28.0839 28.0839 28.0839 28.0839 28.0839 28.0839 28.0839 28.0839 28.0839 28.0839 28.0839 388.084 28.0839 28.0839 28.0839 28.0839 28.0839 28.0839 28.0839 28.0839 28.0839 28.0839 28.0839 28.0839 28.0839 28.0839 28.0839 28.0839 28.0839 28.0839 28.0839 28.0839 28.0839 28.0839 28.0839 29.0839 28.0839 28.0839 28.0839 28.0839 28.0839 28.0839 28.0839 28.0839 28.0839 28.0839 61.0839 28.0839 28.0839 28.0839 28.0839 28.0839 28.0839 28.0839 28.0839 28.0839 28.0839 28.0839 28.0839 28.0839 28.0839 28.0839 28.0839 28.0839 28.0839 28.0839 28.0839 28.0839 28.0839 28.0839 28.0839 28.0839 28.0839 28.0839 28.0839 28.0839 28.0839 28.0839 28.0839 28.0839 28.0839 28.0839 28.0839 28.0839 28.0839 28.0839 28.0839 28.0839 28.0839 28.0839 28.0839 28.0839 28.0839 28.0839 28.0839 28.0839 28.0839 28.0839 28.0839 28.0839 28.0839 28.0839 28.0839 28.0839 28.0839 28.0839 28.0839 28.0839 28.0839 28.0839 28.0839 28.0839 28.0839 28.0839 28.0839 28.0839 28.0839 28.0839 28.0839 28.0839 28.0839 28.0839 28.0839 28.0839 28.0839 28.0839 28.0839 28.0839 28.0839 28.0839 28.0839 28.0839 28.0839 28.0839 28.0839 28.0839 28.0839 28.0839 28.0839 28.0839 28.0839 28.0839 28.0839 28.0839 28.0839 28.0839 28.0839 28.0839 28.0839 28.0839 28.0839 28.0839 28.0839 28.0839 28.0839 28.0839 28.0839 28.0839 28.0839 28.0839 28.0839 28.0839 28.0839 28.0839 28.0839 28.0839 28.0839 28.0839 28.0839 28.0839 28.0839 28.0839 28.0839 28.0839 28.0839 28.0839 215.084 28.0839 28.0839 28.0839 28.0839 28.0839 28.0839 28.0839 28.0839 28.0839 28.0839 28.0839 28.0839 28.0839 28.0839 28.0839 28.0839 28.0839 28.0839 28.0839 28.0839 28.0839 28.0839 28.0839 28.0839 28.0839 28.0839 28.0839 28.0839 28.0839 28.0839 28.0839 28.0839 28.0839 28.0839 28.0839 28.0839 28.0839 28.0839 28.0839 28.0839 28.0839 28.0839 28.0839 28.0839 28.0839 28.0839 28.0839 28.0839 28.0839 28.0839 28.0839 28.0839 28.0839 28.0839 28.0839 28.0839 28.0839 28.0839 28.0839 28.0839 28.0839 28.0839 28.0839 28.0839 28.0839 28.0839 91.0839 28.0839 28.0839 28.0839 28.0839 28.0839 28.0839 28.0839 28.0839 28.0839 28.0839 28.0839 28.0839 28.0839 28.0839 28.0839 28.0839 28.0839 28.0839 28.0839 28.0839 28.0839 28.0839 28.0839 286.084 28.0839 28.0839 28.0839 28.0839 28.0839 28.0839 28.0839 28.0839 28.0839 28.0839 28.0839 28.0839 64.0839 28.0839 28.0839 28.0839 28.0839 49.0839 212.084 28.0839 167.084 505.084 28.0839 28.0839 28.0839 28.0839 28.0839 28.0839 28.0839 28.0839 28.0839 28.0839 28.0839 28.0839 28.0839 28.0839 28.0839 28.0839 28.0839 28.0839 28.0839 28.0839 28.0839 28.0839 28.0839 28.0839 28.0839 28.0839 28.0839 28.0839 28.0839 28.0839 28.0839 28.0839 28.0839 28.0839 28.0839 28.0839 28.0839 28.0839 28.0839 28.0839 28.0839 28.0839 28.0839 28.0839 28.0839 28.0839 28.0839 28.0839 28.0839 28.0839 28.0839 28.0839 28.0839 28.0839 28.0839 28.0839 28.0839 28.0839 28.0839 28.0839 28.0839 28.0839 28.0839 28.0839 28.0839 28.0839 28.0839 28.0839 28.0839 28.0839 28.0839 28.0839 28.0839 28.0839 28.0839 28.0839 28.0839 28.0839 28.0839 28.0839 28.0839 28.0839 28.0839 28.0839 28.0839 28.0839 28.0839 28.0839 28.0839 28.0839 28.0839 28.0839 28.0839 28.0839 28.0839 28.0839 28.0839 28.0839 28.0839 28.0839 28.0839 28.0839 28.0839 28.0839 28.0839 28.0839 28.0839 28.0839 28.0839 28.0839 28.0839 28.0839 28.0839 28.0839 28.0839 28.0839 28.0839 28.0839 28.0839 28.0839 28.0839 28.0839 28.0839 28.0839 28.0839 28.0839 28.0839 28.0839 28.0839 28.0839 28.0839 28.0839 28.0839 28.0839 28.0839 28.0839 28.0839 28.0839 28.0839 28.0839 28.0839 28.0839 28.0839 28.0839 28.0839 28.0839 28.0839 28.0839 28.0839 28.0839 28.0839 28.0839 28.0839 28.0839 28.0839 28.0839 28.0839 28.0839 28.0839 28.0839 28.0839 28.0839 28.0839 28.0839 28.0839 28.0839 28.0839 28.0839 28.0839 28.0839 28.0839 28.0839 28.0839 28.0839 28.0839 28.0839 28.0839 28.0839 28.0839 28.0839 28.0839 28.0839 28.0839 28.0839 28.0839 28.0839 28.0839 28.0839 28.0839 114.084 28.0839 28.0839 28.0839 28.0839 28.0839 28.0839 28.0839 28.0839 28.0839 28.0839 28.0839 28.0839 28.0839 28.0839 28.0839 28.0839 28.0839 28.0839 28.0839 28.0839 28.0839 28.0839 28.0839 28.0839 28.0839 28.0839 28.0839 28.0839 28.0839 28.0839 28.0839 28.0839 28.0839 28.0839 28.0839 28.0839 28.0839 28.0839 28.0839 28.0839 28.0839 28.0839 32.0839 28.0839 28.0839 28.0839 28.0839 28.0839 28.0839 33.0839 28.0839 28.0839 28.0839 28.0839 28.0839 28.0839 28.0839 28.0839 28.0839 28.0839 28.0839 28.0839 28.0839 28.0839 28.0839 28.0839 28.0839 28.0839 112.084 28.0839 28.0839 28.0839 87.0839 28.0839 28.0839 28.0839 28.0839 28.0839 28.0839 28.0839 28.0839 28.0839 28.0839 28.0839 28.0839 28.0839 28.0839 28.0839 28.0839 28.0839 28.0839 28.0839 28.0839 28.0839 28.0839 28.0839 28.0839 28.0839 28.0839 28.0839 28.0839 28.0839 28.0839 28.0839 28.0839 28.0839 28.0839 28.0839 28.0839 28.0839 28.0839 28.0839 28.0839 28.0839 28.0839 28.0839 28.0839 28.0839 49.0839 28.0839 28.0839 28.0839 28.0839 28.0839 28.0839 28.0839 28.0839 28.0839 28.0839 28.0839 28.0839 28.0839 28.0839 28.0839 28.0839 28.0839 28.0839 28.0839 28.0839 28.0839 28.0839 28.0839 28.0839 28.0839 28.0839 28.0839 28.0839 28.0839 28.0839 28.0839 28.0839 28.0839 28.0839 28.0839 28.0839 28.0839 28.0839 28.0839 28.0839 28.0839 28.0839 28.0839 28.0839 28.0839 28.0839 28.0839 28.0839 28.0839 28.0839 28.0839 28.0839 28.0839 28.0839 28.0839 28.0839 28.0839 28.0839 28.0839 306.084 28.0839 28.0839 28.0839 28.0839 28.0839 28.0839 64.0839 28.0839 28.0839 28.0839 28.0839 28.0839 28.0839 28.0839 28.0839 28.0839 28.0839 28.0839 28.0839 28.0839 28.0839 28.0839 28.0839 28.0839 28.0839 28.0839 28.0839 28.0839 28.0839 28.0839 28.0839 28.0839 28.0839 28.0839 28.0839 28.0839 28.0839 28.0839 28.0839 28.0839 28.0839 28.0839 28.0839 28.0839 28.0839 28.0839 28.0839 28.0839 28.0839 28.0839 28.0839 28.0839 28.0839 28.0839 28.0839 28.0839 28.0839 28.0839 28.0839 28.0839 28.0839 28.0839 28.0839 28.0839 28.0839 28.0839 28.0839 28.0839 28.0839 28.0839 28.0839 28.0839 28.0839 28.0839 28.0839 28.0839 28.0839 28.0839 28.0839 28.0839 28.0839 28.0839 28.0839 28.0839 28.0839 28.0839 28.0839 28.0839 28.0839 28.0839 116.084 28.0839 28.0839 28.0839 28.0839 28.0839 28.0839 28.0839 28.0839 28.0839 28.0839 28.0839 28.0839 28.0839 28.0839 28.0839 28.0839 28.0839 28.0839 28.0839 28.0839 28.0839 28.0839 28.0839 28.0839 28.0839 28.0839 28.0839 28.0839 28.0839 28.0839 28.0839 28.0839 28.0839 28.0839 28.0839 28.0839 28.0839 28.0839 28.0839 28.0839 28.0839 28.0839 28.0839 28.0839 28.0839 28.0839 28.0839 28.0839 28.0839 28.0839 28.0839 28.0839 28.0839 28.0839 28.0839 28.0839 28.0839 28.0839 28.0839 28.0839 28.0839 28.0839 28.0839 28.0839 28.0839 28.0839 28.0839 28.0839 28.0839 28.0839 28.0839 28.0839 28.0839 28.0839 28.0839 28.0839 28.0839 28.0839 28.0839 28.0839 28.0839 28.0839 28.0839 28.0839 28.0839 28.0839 28.0839 28.0839 52.0839 28.0839 28.0839 28.0839 28.0839 28.0839 28.0839 28.0839 28.0839 34.0839 28.0839 28.0839 28.0839 28.0839 28.0839 28.0839 28.0839 28.0839 28.0839 28.0839 28.0839 28.0839 28.0839 28.0839 28.0839 28.0839 28.0839 28.0839 28.0839 28.0839 28.0839 28.0839 28.0839 28.0839 28.0839 28.0839 28.0839 28.0839 28.0839 28.0839 28.0839 28.0839 28.0839 28.0839 28.0839 28.0839 28.0839 28.0839 28.0839 28.0839 28.0839 28.0839 28.0839 28.0839 28.0839 28.0839 28.0839 28.0839 28.0839 28.0839 28.0839 28.0839 28.0839 28.0839 28.0839 28.0839 28.0839 28.0839 28.0839 28.0839 28.0839 28.0839 28.0839 28.0839 28.0839 28.0839 28.0839 28.0839 28.0839 28.0839 28.0839 28.0839 28.0839 28.0839 28.0839 28.0839 28.0839 28.0839 28.0839 28.0839 28.0839 28.0839 28.0839 28.0839 28.0839 28.0839 28.0839 28.0839 28.0839 28.0839 28.0839 28.0839 28.0839 28.0839 28.0839 28.0839 28.0839 28.0839 28.0839 28.0839 28.0839 28.0839 28.0839 28.0839 28.0839 28.0839 28.0839 28.0839 28.0839 28.0839 28.0839 28.0839 28.0839 28.0839 28.0839 28.0839 28.0839 28.0839 28.0839 28.0839 28.0839 28.0839 28.0839 28.0839 28.0839 28.0839 28.0839 28.0839 28.0839 28.0839 28.0839 28.0839 28.0839 28.0839 28.0839 28.0839 28.0839 28.0839 28.0839 28.0839 28.0839 28.0839 28.0839 28.0839 28.0839 28.0839 28.0839 28.0839 28.0839 28.0839 28.0839 28.0839 28.0839 28.0839 28.0839 28.0839 28.0839 28.0839 28.0839 28.0839 28.0839 28.0839 28.0839 28.0839 28.0839 28.0839 28.0839 28.0839 28.0839 28.0839 28.0839 28.0839 28.0839 28.0839 28.0839 28.0839 28.0839 28.0839 28.0839 28.0839 28.0839 66.0839 28.0839 28.0839 28.0839 28.0839 28.0839 28.0839 28.0839 28.0839 28.0839 28.0839 28.0839 28.0839 28.0839 28.0839 28.0839 31.0839 28.0839 28.0839 28.0839 28.0839 28.0839 28.0839 28.0839 28.0839 28.0839 28.0839 28.0839 28.0839 28.0839 28.0839 28.0839 28.0839 28.0839 28.0839 28.0839 28.0839 28.0839 28.0839 28.0839 28.0839 28.0839 28.0839 28.0839 28.0839 28.0839 28.0839 28.0839 28.0839 28.0839 28.0839 28.0839 28.0839 28.0839 28.0839 28.0839 28.0839 28.0839 28.0839 28.0839 28.0839 28.0839 28.0839 28.0839 28.0839 28.0839 28.0839 28.0839 28.0839 28.0839 28.0839 28.0839 28.0839 28.0839 28.0839 28.0839 28.0839 28.0839 28.0839 28.0839 28.0839 28.0839 28.0839 28.0839 28.0839 28.0839 28.0839 28.0839 28.0839 
rewards of Offsets elements: 6 0 130 17 0 0 173 0 3032 0 0 0 0 0 26 0 0 120 0 0 12 0 0 0 8 5 0 0 0 0 63 24 0 16 0 0 60 0 0 0 0 0 0 1746 1443 1612 154 0 2948 0 1943 78 65 38 0 0 123 0 0 0 62 0 0 292 100 43 0 0 1145 0 0 0 0 0 0 0 0 0 0 0 0 0 31 0 0 0 13 14 0 0 0 0 0 0 0 0 0 0 1 0 0 0 233 0 0 0 0 0 0 0 11 0 0 0 0 0 0 0 0 0 0 0 0 0 0 0 0 0 0 0 0 18 18 0 0 0 231 0 0 0 0 0 0 5 0 0 53 0 13 0 0 0 0 0 105 7 0 2 0 8 0 0 0 0 0 0 0 0 0 0 0 0 0 0 0 0 182 0 0 0 0 0 0 0 0 0 0 0 20 29 0 0 0 0 0 0 0 45 0 0 0 0 0 0 12 0 0 0 15 0 0 0 0 0 0 0 0 0 0 0 0 0 0 0 191 0 0 0 0 0 0 0 0 0 0 0 0 0 0 1486 0 0 0 0 0 0 0 0 0 1 0 0 0 0 0 0 0 0 25 0 0 0 0 0 0 0 0 0 0 0 0 0 0 0 0 0 0 0 0 0 0 0 0 0 0 0 0 0 0 0 497 0 0 0 0 202 0 0 0 0 0 0 0 0 0 0 0 0 0 0 0 0 0 0 0 0 0 0 0 0 0 0 0 0 0 0 0 0 0 0 0 18 0 0 0 0 0 0 0 0 0 0 0 0 0 0 124 0 0 1715 0 0 0 0 0 0 0 0 0 0 0 0 0 0 0 0 0 0 0 0 0 0 0 0 0 0 0 0 0 0 5 0 0 0 0 0 0 0 10 82 5 0 0 0 0 0 0 0 0 0 0 0 0 0 0 0 0 0 0 0 0 0 0 0 0 0 0 0 0 0 0 0 0 0 0 0 0 0 0 0 0 0 0 0 0 0 0 0 0 0 0 0 69 0 0 0 120 0 427 642 178 0 0 0 0 0 0 0 0 0 0 0 0 0 0 0 0 0 0 0 0 0 0 0 0 0 0 0 17 0 0 9 0 0 0 0 0 0 0 0 0 0 0 0 18 0 0 0 0 0 0 0 0 0 0 0 0 0 0 0 0 0 0 0 0 0 0 0 0 0 360 0 0 0 0 0 0 0 0 0 0 0 0 0 0 0 0 0 0 0 0 0 0 0 1 0 0 0 0 0 0 0 0 0 0 33 0 0 0 0 0 0 0 0 0 0 0 0 0 0 0 0 0 0 0 0 0 0 0 0 0 0 0 0 0 0 0 0 0 0 0 0 0 0 0 0 0 0 0 0 0 0 0 0 0 0 0 0 0 0 0 0 0 0 0 0 0 0 0 0 0 0 0 0 0 0 0 0 0 0 0 0 0 0 0 0 0 0 0 0 0 0 0 0 0 0 0 0 0 0 0 0 0 0 0 0 0 0 0 0 0 0 0 0 0 0 0 0 0 0 0 0 0 0 0 0 0 0 0 0 0 0 0 0 0 187 0 0 0 0 0 0 0 0 0 0 0 0 0 0 0 0 0 0 0 0 0 0 0 0 0 0 0 0 0 0 0 0 0 0 0 0 0 0 0 0 0 0 0 0 0 0 0 0 0 0 0 0 0 0 0 0 0 0 0 0 0 0 0 0 0 0 63 0 0 0 0 0 0 0 0 0 0 0 0 0 0 0 0 0 0 0 0 0 0 0 258 0 0 0 0 0 0 0 0 0 0 0 0 36 0 0 0 0 21 184 0 139 477 0 0 0 0 0 0 0 0 0 0 0 0 0 0 0 0 0 0 0 0 0 0 0 0 0 0 0 0 0 0 0 0 0 0 0 0 0 0 0 0 0 0 0 0 0 0 0 0 0 0 0 0 0 0 0 0 0 0 0 0 0 0 0 0 0 0 0 0 0 0 0 0 0 0 0 0 0 0 0 0 0 0 0 0 0 0 0 0 0 0 0 0 0 0 0 0 0 0 0 0 0 0 0 0 0 0 0 0 0 0 0 0 0 0 0 0 0 0 0 0 0 0 0 0 0 0 0 0 0 0 0 0 0 0 0 0 0 0 0 0 0 0 0 0 0 0 0 0 0 0 0 0 0 0 0 0 0 0 0 0 0 0 0 0 0 0 0 0 0 0 0 0 0 0 0 0 0 0 0 0 0 0 0 0 0 0 0 0 0 86 0 0 0 0 0 0 0 0 0 0 0 0 0 0 0 0 0 0 0 0 0 0 0 0 0 0 0 0 0 0 0 0 0 0 0 0 0 0 0 0 0 0 4 0 0 0 0 0 0 5 0 0 0 0 0 0 0 0 0 0 0 0 0 0 0 0 0 0 84 0 0 0 59 0 0 0 0 0 0 0 0 0 0 0 0 0 0 0 0 0 0 0 0 0 0 0 0 0 0 0 0 0 0 0 0 0 0 0 0 0 0 0 0 0 0 0 0 0 21 0 0 0 0 0 0 0 0 0 0 0 0 0 0 0 0 0 0 0 0 0 0 0 0 0 0 0 0 0 0 0 0 0 0 0 0 0 0 0 0 0 0 0 0 0 0 0 0 0 0 0 0 0 0 0 0 0 0 0 278 0 0 0 0 0 0 36 0 0 0 0 0 0 0 0 0 0 0 0 0 0 0 0 0 0 0 0 0 0 0 0 0 0 0 0 0 0 0 0 0 0 0 0 0 0 0 0 0 0 0 0 0 0 0 0 0 0 0 0 0 0 0 0 0 0 0 0 0 0 0 0 0 0 0 0 0 0 0 0 0 0 0 0 0 0 0 0 0 0 0 88 0 0 0 0 0 0 0 0 0 0 0 0 0 0 0 0 0 0 0 0 0 0 0 0 0 0 0 0 0 0 0 0 0 0 0 0 0 0 0 0 0 0 0 0 0 0 0 0 0 0 0 0 0 0 0 0 0 0 0 0 0 0 0 0 0 0 0 0 0 0 0 0 0 0 0 0 0 0 0 0 0 0 0 0 0 0 0 0 24 0 0 0 0 0 0 0 0 6 0 0 0 0 0 0 0 0 0 0 0 0 0 0 0 0 0 0 0 0 0 0 0 0 0 0 0 0 0 0 0 0 0 0 0 0 0 0 0 0 0 0 0 0 0 0 0 0 0 0 0 0 0 0 0 0 0 0 0 0 0 0 0 0 0 0 0 0 0 0 0 0 0 0 0 0 0 0 0 0 0 0 0 0 0 0 0 0 0 0 0 0 0 0 0 0 0 0 0 0 0 0 0 0 0 0 0 0 0 0 0 0 0 0 0 0 0 0 0 0 0 0 0 0 0 0 0 0 0 0 0 0 0 0 0 0 0 0 0 0 0 0 0 0 0 0 0 0 0 0 0 0 0 0 0 0 0 0 0 0 0 0 0 0 0 0 0 0 0 0 0 0 0 0 0 0 0 0 0 0 0 38 0 0 0 0 0 0 0 0 0 0 0 0 0 0 0 3 0 0 0 0 0 0 0 0 0 0 0 0 0 0 0 0 0 0 0 0 0 0 0 0 0 0 0 0 0 0 0 0 0 0 0 0 0 0 0 0 0 0 0 0 0 0 0 0 0 0 0 0 0 0 0 0 0 0 0 0 0 0 0 0 0 0 0 0 0 0 0 0 Printing Sanity3
offset_index value1627
offset list size1627
reward size1627
potential size1627
-----------------------------------------------------------------------------------------------------------------------------------------------------------------------------------------------------

DRAM Statistics
 CHANNEL 0
 RQ ROW_BUFFER_HIT:      67600  ROW_BUFFER_MISS:     287989
 DBUS_CONGESTED:        101
 WQ ROW_BUFFER_HIT:      33283  ROW_BUFFER_MISS:     190549  FULL:          0

 AVG_CONGESTED_CYCLE: 4
 All warmup complete: 2
Channel 0 Bank busy for read cycles: 0
Channel 0 Bank busy for write cycles: 0
Channel 0
Rank 0
0banks busy for read cycles: 428947203
0banks busy for write cycles: 123794
1banks busy for read cycles: 29665394
1banks busy for write cycles: 16947882
2banks busy for read cycles: 5573359
2banks busy for write cycles: 4819721
3banks busy for read cycles: 1008766
3banks busy for write cycles: 1604276
4banks busy for read cycles: 279007
4banks busy for write cycles: 685989
5banks busy for read cycles: 95915
5banks busy for write cycles: 331879
6banks busy for read cycles: 50105
6banks busy for write cycles: 207058
7banks busy for read cycles: 39988
7banks busy for write cycles: 185869
8banks busy for read cycles: 72346
8banks busy for write cycles: 237843

CPU 0 Branch Prediction Accuracy: 98.8611% MPKI: 2.07212 Average ROB Occupancy at Mispredict: 13.115
Branch types
NOT_BRANCH: 163610883 81.8054%
BRANCH_DIRECT_JUMP: 1754249 0.877124%
BRANCH_INDIRECT: 9786566 4.89328%
BRANCH_CONDITIONAL: 18158639 9.07932%
BRANCH_DIRECT_CALL: 2532331 1.26617%
BRANCH_INDIRECT_CALL: 808488 0.404244%
BRANCH_RETURN: 3348514 1.67426%
BRANCH_OTHER: 0 0%

DRAM PAGES: 1048576
Allocated PAGES: 7361
