
*** ChampSim Multicore Out-of-Order Simulator ***

Warmup Instructions: 50000000
Simulation Instructions: 200000000
Number of CPUs: 1
LLC sets: 2048
LLC ways: 16
Off-chip DRAM Size: 4096 MB Channels: 1 Width: 64-bit Data Rate: 6400 MT/s
CPU 0 runs traces/spec2k17/server_029.champsimtrace.xz
.xz
BTB has LRU replacement policy
ITLB has LRU replacement policy
DTLB has LRU replacement policy
STLB has LRU replacement policy
L1I has LRU replacement policy
L1D has LRU replacement policy
Initialize SRRIP state for L2C
Initialize DRRIP state for LLC
Heartbeat CPU 0 instructions: 10000002 cycles: 2844486 heartbeat IPC: 3.51557 cumulative IPC: 3.51557 (Simulation time: 0 hr 0 min 33 sec) 
Heartbeat CPU 0 instructions: 20000001 cycles: 5682874 heartbeat IPC: 3.52313 cumulative IPC: 3.51935 (Simulation time: 0 hr 1 min 7 sec) 
Heartbeat CPU 0 instructions: 30000002 cycles: 8521926 heartbeat IPC: 3.5223 cumulative IPC: 3.52033 (Simulation time: 0 hr 1 min 41 sec) 
Heartbeat CPU 0 instructions: 40000001 cycles: 11361537 heartbeat IPC: 3.52161 cumulative IPC: 3.52065 (Simulation time: 0 hr 2 min 12 sec) 
Heartbeat CPU 0 instructions: 50000000 cycles: 14201026 heartbeat IPC: 3.52176 cumulative IPC: 3.52087 (Simulation time: 0 hr 2 min 46 sec) 

Warmup complete CPU 0 instructions: 50000004 cycles: 14201027 (Simulation time: 0 hr 2 min 46 sec) 

Offsets elements: 
Potential of Offsets elements: 
rewards of Offsets elements: 
Printing Sanity1
offset list size1971
Offsets elements: 
Potential of Offsets elements: 
rewards of Offsets elements: 898 0 0 0 1185 2 0 0 0 0 0 100 0 0 0 0 0 0 0 0 105 0 0 0 0 0 0 0 0 0 559 0 0 127 0 0 16 0 0 1038 82 47 0 0 0 0 0 10 0 0 0 0 0 0 0 0 0 0 0 0 0 8 0 0 0 0 0 0 0 0 0 0 0 0 0 0 0 19 0 0 0 0 0 45 0 0 0 0 0 0 0 0 566 0 736 0 0 0 0 288 0 0 0 0 0 0 0 0 0 0 0 6 230 0 1003 9 0 0 649 174 186 156 0 0 0 0 0 0 0 0 0 0 0 0 0 0 0 0 1759 760 0 0 0 0 0 0 0 0 0 0 2 0 0 7 0 0 0 33 104 372 0 38 57 0 0 0 0 0 0 0 87 0 0 0 0 0 0 0 0 0 0 0 0 0 0 0 0 0 0 0 0 0 0 0 0 0 0 0 164 0 180 0 0 334 136 0 220 589 5 35 60 748 50 75 20 0 0 0 0 730 2677 0 0 0 0 0 0 0 0 0 0 0 0 0 0 0 0 0 0 0 0 0 0 0 0 0 8 27 0 0 10 0 0 0 0 0 1 0 0 0 0 0 0 0 22 0 0 0 156 0 0 0 0 0 0 0 0 0 0 0 12 0 0 0 0 0 638 31 0 84 0 0 0 0 0 0 0 0 0 0 0 0 0 0 0 0 0 0 0 0 0 0 0 0 0 0 0 0 2 0 0 0 0 0 0 0 793 0 0 0 0 2 6 0 0 0 0 2 0 0 0 0 0 0 166 113 0 0 0 0 0 0 0 0 245 0 0 0 0 0 0 0 0 0 0 0 0 0 0 0 61 20 49 0 0 0 0 0 0 0 16 88 0 0 0 0 0 0 0 0 0 0 0 0 0 0 0 135 0 66 468 0 0 0 0 0 0 0 0 0 0 0 0 0 0 0 0 62 34 5 0 5 0 0 67 0 0 0 0 0 0 0 0 0 0 0 0 42 0 0 0 0 0 0 0 0 0 0 0 0 0 0 0 0 0 0 0 0 0 0 164 0 0 0 20 0 36 38 0 0 0 0 0 0 0 0 0 0 0 0 0 0 0 0 0 0 0 0 0 0 0 0 0 0 0 0 0 765 0 0 0 0 0 123 27 0 0 18 0 0 46 0 0 0 0 0 0 0 0 0 0 0 0 0 0 0 0 0 0 0 43 0 0 0 0 0 0 4 0 0 0 0 0 0 0 0 2 6 0 0 0 0 0 0 0 0 0 0 6 10 0 2 0 0 0 0 0 2 236 0 0 0 82 0 0 0 0 0 0 0 0 0 0 0 0 20 0 0 8 28 35 6 0 0 0 0 0 0 0 0 0 0 0 0 0 0 41 0 0 0 2 0 0 0 0 387 0 0 0 0 0 0 0 0 0 0 0 0 0 0 0 0 0 0 0 0 0 0 0 0 0 0 0 0 0 0 0 0 0 0 0 0 371 221 19 16 0 11 0 0 0 0 240 0 0 0 0 0 0 0 0 0 0 0 0 0 0 0 0 0 0 0 117 61 0 0 0 0 0 0 0 0 0 0 0 0 0 32 32 58 0 0 0 0 0 0 0 0 0 0 0 0 0 0 0 0 0 0 29 18 28 8 0 0 10 0 0 0 0 0 0 0 0 265 0 0 0 0 0 0 2 0 0 0 0 1 121 0 0 0 0 0 0 0 0 0 0 0 0 0 0 6 0 2 0 0 0 0 36 0 0 0 0 0 0 0 0 0 0 4 0 7 6 0 14 0 0 0 0 69 0 0 0 0 0 0 0 0 0 0 0 0 0 0 0 0 0 0 0 0 0 0 0 271 0 0 0 0 0 21 0 0 123 0 0 135 5 343 242 0 0 0 0 0 0 0 0 0 0 54 0 0 0 0 0 0 144 36 208 52 0 0 0 0 0 0 0 0 0 0 0 0 0 0 0 0 0 35 6 0 0 0 0 0 0 0 0 0 0 0 0 0 0 0 0 0 0 0 0 168 0 0 0 0 0 0 0 0 0 0 0 0 0 0 0 0 0 0 0 0 0 60 0 0 0 0 0 0 0 0 0 0 0 0 0 0 0 0 0 0 0 0 2 9 0 0 0 0 0 0 0 0 0 0 0 0 0 0 0 0 0 0 0 0 0 15 0 0 0 0 0 0 0 0 0 0 0 0 0 0 0 0 0 0 0 0 0 0 0 90 0 0 0 0 0 0 0 0 0 158 0 0 425 0 0 0 0 0 0 0 0 0 0 0 0 0 0 0 0 0 0 0 0 0 0 0 0 0 0 0 0 0 0 0 0 0 0 0 0 0 0 0 0 0 0 0 0 0 0 0 0 0 0 0 0 0 0 0 0 0 0 0 0 0 0 0 0 0 0 0 0 0 0 0 0 0 0 0 0 0 0 0 0 0 0 0 0 0 0 0 104 113 5 0 0 0 0 0 0 0 0 0 0 0 0 0 0 0 0 0 0 0 0 0 96 0 0 0 0 0 0 0 0 0 0 0 0 399 0 0 0 0 0 0 68 0 7 4 0 0 0 0 0 92 0 0 0 0 0 0 0 0 0 0 76 31 0 0 0 0 62 0 0 216 0 0 0 0 0 0 0 0 0 0 0 0 182 48 0 4 164 0 0 0 0 0 0 0 0 0 0 0 0 0 0 0 0 0 0 0 0 0 0 0 0 0 0 0 0 0 0 0 0 0 0 0 0 0 0 0 4 0 0 0 210 0 0 0 2 0 0 0 0 0 0 0 0 0 0 0 0 0 0 0 0 0 0 0 0 0 0 0 0 0 0 0 0 0 0 0 0 0 5 0 0 0 0 0 0 0 0 0 0 0 0 0 0 0 0 0 0 0 198 357 206 0 1 3 0 0 0 0 0 0 0 0 2 0 0 0 0 0 0 6 0 25 0 45 0 0 0 0 0 0 0 0 0 0 0 0 0 0 0 0 0 0 0 12 0 0 0 0 0 0 0 0 0 0 0 0 0 0 0 0 0 0 0 0 88 0 0 0 0 0 0 0 0 0 0 0 0 0 0 89 0 0 0 0 0 49 0 0 0 0 0 0 0 0 0 0 0 0 0 0 0 0 0 0 0 0 0 8 0 0 36 0 0 0 0 0 0 0 0 0 0 0 0 0 0 45 0 0 290 0 0 0 0 0 0 0 216 0 0 0 0 0 0 0 0 0 0 0 5 9 0 0 0 0 0 0 0 0 0 0 0 0 0 0 0 0 0 0 0 0 0 0 0 0 0 0 0 0 0 0 0 0 0 0 0 0 0 0 0 0 0 0 0 0 0 0 0 0 0 0 0 0 0 0 0 0 0 0 20 0 0 0 0 0 0 0 0 0 0 0 0 0 0 0 0 0 0 0 0 23 0 0 0 4 0 0 0 0 0 0 0 0 0 0 0 0 0 0 0 0 0 0 0 0 0 0 0 0 0 0 0 0 0 0 0 0 0 0 0 0 0 0 0 0 0 0 0 138 0 0 0 0 0 0 0 0 0 0 0 0 0 0 0 0 0 0 0 0 0 0 0 0 0 0 0 0 0 0 0 0 0 0 0 0 0 0 0 0 0 0 1 1 0 0 0 0 0 0 0 0 0 0 0 0 0 0 24 0 0 0 0 0 4 45 110 0 0 4 0 0 0 0 0 0 0 0 16 0 0 124 0 0 0 331 0 0 0 0 0 0 0 0 0 0 0 0 0 0 0 0 0 0 0 0 0 0 0 0 0 0 0 0 0 0 0 0 0 0 0 0 28 0 3 0 88 8 135 0 8 0 0 0 0 0 0 0 0 0 0 0 0 0 0 0 0 0 0 0 0 0 0 0 0 0 0 0 0 0 0 0 0 0 0 0 0 0 0 84 0 3 0 0 0 0 0 0 0 0 0 0 0 0 0 0 0 0 0 0 0 36 0 0 70 0 0 0 0 0 0 0 0 0 0 0 0 0 0 0 0 0 0 0 0 0 0 0 0 0 0 0 0 0 0 20 26 0 0 0 0 0 0 0 0 0 0 32 48 0 0 0 0 0 0 0 0 0 0 0 0 0 0 0 0 6 0 0 0 0 0 0 0 0 0 12 0 0 0 0 90 0 46 0 0 0 104 0 0 0 0 4 0 2 0 0 0 0 0 0 0 0 0 0 0 0 0 0 0 0 0 4 68 59 0 0 0 0 0 0 0 0 0 0 0 0 0 0 0 0 0 0 0 0 0 0 0 0 0 0 0 0 0 0 0 422 89 0 0 0 0 0 0 0 0 382 2 0 0 0 0 15 0 0 0 0 0 0 0 0 0 0 0 0 0 0 0 0 0 0 0 0 0 0 0 0 218 0 190 0 0 0 0 0 0 0 0 10 18 0 0 0 0 0 0 0 0 0 0 0 0 0 0 0 0 0 0 0 0 564 5 0 10 52 0 0 0 0 4 
Printing Sanity2
Heartbeat CPU 0 instructions: 60000001 cycles: 47370482 heartbeat IPC: 0.301482 cumulative IPC: 0.301482 (Simulation time: 0 hr 3 min 53 sec) 
Heartbeat CPU 0 instructions: 70000001 cycles: 80814494 heartbeat IPC: 0.299007 cumulative IPC: 0.30024 (Simulation time: 0 hr 5 min 1 sec) 
Heartbeat CPU 0 instructions: 80000002 cycles: 113891506 heartbeat IPC: 0.302325 cumulative IPC: 0.300931 (Simulation time: 0 hr 6 min 7 sec) 
*** Reached end of trace for Core: 0 Repeating trace: traces/spec2k17/server_029.champsimtrace.xz
Heartbeat CPU 0 instructions: 90000000 cycles: 146893538 heartbeat IPC: 0.303012 cumulative IPC: 0.301449 (Simulation time: 0 hr 7 min 16 sec) 
Heartbeat CPU 0 instructions: 100000003 cycles: 179443599 heartbeat IPC: 0.307219 cumulative IPC: 0.302585 (Simulation time: 0 hr 8 min 21 sec) 
Heartbeat CPU 0 instructions: 110000000 cycles: 211925566 heartbeat IPC: 0.307863 cumulative IPC: 0.303452 (Simulation time: 0 hr 9 min 30 sec) 
Heartbeat CPU 0 instructions: 120000002 cycles: 244767654 heartbeat IPC: 0.304487 cumulative IPC: 0.3036 (Simulation time: 0 hr 10 min 37 sec) 
Heartbeat CPU 0 instructions: 130000000 cycles: 277793649 heartbeat IPC: 0.302792 cumulative IPC: 0.303499 (Simulation time: 0 hr 11 min 42 sec) 
Heartbeat CPU 0 instructions: 140000002 cycles: 310853852 heartbeat IPC: 0.302479 cumulative IPC: 0.303385 (Simulation time: 0 hr 12 min 46 sec) 
Heartbeat CPU 0 instructions: 150000000 cycles: 343925986 heartbeat IPC: 0.302369 cumulative IPC: 0.303283 (Simulation time: 0 hr 13 min 53 sec) 
Heartbeat CPU 0 instructions: 160000001 cycles: 377114116 heartbeat IPC: 0.301313 cumulative IPC: 0.303103 (Simulation time: 0 hr 15 min 0 sec) 
Heartbeat CPU 0 instructions: 170000001 cycles: 410209066 heartbeat IPC: 0.302161 cumulative IPC: 0.303024 (Simulation time: 0 hr 16 min 4 sec) 
*** Reached end of trace for Core: 0 Repeating trace: traces/spec2k17/server_029.champsimtrace.xz
Heartbeat CPU 0 instructions: 180000002 cycles: 442835454 heartbeat IPC: 0.3065 cumulative IPC: 0.303289 (Simulation time: 0 hr 17 min 13 sec) 
Heartbeat CPU 0 instructions: 190000000 cycles: 475279569 heartbeat IPC: 0.308222 cumulative IPC: 0.303636 (Simulation time: 0 hr 18 min 19 sec) 
Heartbeat CPU 0 instructions: 200000002 cycles: 507983599 heartbeat IPC: 0.305773 cumulative IPC: 0.303777 (Simulation time: 0 hr 19 min 23 sec) 
Heartbeat CPU 0 instructions: 210000003 cycles: 540777748 heartbeat IPC: 0.304932 cumulative IPC: 0.303849 (Simulation time: 0 hr 20 min 26 sec) 
Heartbeat CPU 0 instructions: 220000000 cycles: 573665725 heartbeat IPC: 0.304062 cumulative IPC: 0.303862 (Simulation time: 0 hr 21 min 34 sec) 
Heartbeat CPU 0 instructions: 230000003 cycles: 606758648 heartbeat IPC: 0.30218 cumulative IPC: 0.303768 (Simulation time: 0 hr 22 min 42 sec) 
Heartbeat CPU 0 instructions: 240000003 cycles: 639930211 heartbeat IPC: 0.301463 cumulative IPC: 0.303646 (Simulation time: 0 hr 23 min 50 sec) 
Heartbeat CPU 0 instructions: 250000000 cycles: 673062034 heartbeat IPC: 0.301825 cumulative IPC: 0.303554 (Simulation time: 0 hr 24 min 59 sec) 
Finished CPU 0 instructions: 200000000 cycles: 658861014 cumulative IPC: 0.303554 (Simulation time: 0 hr 24 min 59 sec) 

ChampSim completed all CPUs

Region of Interest Statistics

CPU 0 cumulative IPC: 0.303554 instructions: 200000000 cycles: 658861014
ITLB TOTAL     ACCESS:   35645635  HIT:   33444616  MISS:    2201019  HIT %:    93.8253  MISS %:    6.17472   MPKI: 11.0051
ITLB LOAD TRANSLATION ACCESS:   35645635  HIT:   33444616  MISS:    2201019  HIT %:    93.8253  MISS %:    6.17472   MPKI: 11.0051
ITLB PREFETCH  REQUESTED:          0  ISSUED:          0  USEFUL:          0  USELESS:          0
ITLB USEFUL LOAD PREFETCHES:          0 PREFETCH ISSUED TO LOWER LEVEL:          0  ACCURACY: -nan
ITLB TIMELY PREFETCHES:          0 LATE PREFETCHES: 0 DROPPED PREFETCHES: 0
ITLB PREFETCHES SAME FILL-ORIGIN LEVEL: 0 DIFFERENT FILL-ORIGIN LEVEL: 0
ITLB AVERAGE MISS LATENCY: 9.16591 cycles
ITLB RQ	ACCESS:   41829721	FORWARD:          0	MERGED:    5662467	TO_CACHE:   36167254

DTLB TOTAL     ACCESS:   45189332  HIT:   43094494  MISS:    2094838  HIT %:    95.3643  MISS %:    4.63569   MPKI: 10.4742
DTLB LOAD TRANSLATION ACCESS:   45189332  HIT:   43094494  MISS:    2094838  HIT %:    95.3643  MISS %:    4.63569   MPKI: 10.4742
DTLB PREFETCH  REQUESTED:          0  ISSUED:          0  USEFUL:          0  USELESS:          0
DTLB USEFUL LOAD PREFETCHES:          0 PREFETCH ISSUED TO LOWER LEVEL:          0  ACCURACY: -nan
DTLB TIMELY PREFETCHES:          0 LATE PREFETCHES: 0 DROPPED PREFETCHES: 0
DTLB PREFETCHES SAME FILL-ORIGIN LEVEL: 0 DIFFERENT FILL-ORIGIN LEVEL: 0
DTLB AVERAGE MISS LATENCY: 10.478 cycles
DTLB RQ	ACCESS:   59825735	FORWARD:          0	MERGED:   14581379	TO_CACHE:   45244356

STLB TOTAL     ACCESS:   12576991  HIT:   12522173  MISS:      54818  HIT %:    99.5641  MISS %:   0.435859   MPKI: 0.27409
STLB LOAD TRANSLATION ACCESS:    4295857  HIT:    4241600  MISS:      54257  HIT %:     98.737  MISS %:    1.26301   MPKI: 0.271285
STLB TRANSLATION FROM L1D PREFETCHER ACCESS:    8281134  HIT:    8280573  MISS:        561  HIT %:    99.9932  MISS %: 0.00677443   MPKI: 0.002805
STLB PREFETCH  REQUESTED:          0  ISSUED:          0  USEFUL:        393  USELESS:        167
STLB USEFUL LOAD PREFETCHES:        393 PREFETCH ISSUED TO LOWER LEVEL:          0  ACCURACY: inf
STLB TIMELY PREFETCHES:        393 LATE PREFETCHES: 638 DROPPED PREFETCHES: 16869
STLB PREFETCHES SAME FILL-ORIGIN LEVEL: 0 DIFFERENT FILL-ORIGIN LEVEL: 0
STLB AVERAGE MISS LATENCY: 1.49609e+06 cycles
STLB RQ	ACCESS:   14325605	FORWARD:          0	MERGED:    1723240	TO_CACHE:   12602365

STLB Hit, L1D data hit: 0
STLB Hit, L2C data hit: 0
STLB Hit, LLC data hit: 0
STLB Hit, LLC data miss: 0
STLB STLB hints to L2: 0
L1D TOTAL     ACCESS:   67156298  HIT:   60401097  MISS:    6755201  HIT %:    89.9411  MISS %:    10.0589   MPKI: 33.776
L1D LOAD      ACCESS:   33580990  HIT:   29621541  MISS:    3959449  HIT %:    88.2093  MISS %:    11.7907   MPKI: 19.7972
L1D RFO       ACCESS:   24425537  HIT:   23269699  MISS:    1155838  HIT %:    95.2679  MISS %:    4.73209   MPKI: 5.77919
L1D PREFETCH  ACCESS:    9149771  HIT:    7509857  MISS:    1639914  HIT %:     82.077  MISS %:     17.923   MPKI: 8.19957
AGUS PREFETCH L1 MISS: 0
L1D PREFETCH  REQUESTED:   20301133  ISSUED:   20301130  USEFUL:     640777  USELESS:     999011
L1D USEFUL LOAD PREFETCHES:     640777 PREFETCH ISSUED TO LOWER LEVEL:    2332690  ACCURACY: 27.4694
L1D TIMELY PREFETCHES:     640777 LATE PREFETCHES: 692562 DROPPED PREFETCHES: 24376
L1D PREFETCHES SAME FILL-ORIGIN LEVEL: 2332690 DIFFERENT FILL-ORIGIN LEVEL: 0
L1D AVERAGE MISS LATENCY: 3.62824e+07 cycles
L1D RQ	ACCESS:   46128609	FORWARD:          0	MERGED:   12108357	TO_CACHE:   33710425
L1D WQ	ACCESS:   26256733	FORWARD:     313326	MERGED:     141423	TO_CACHE:   26115310
L1D PQ	ACCESS:   10271382	FORWARD:          0	MERGED:     238135	TO_CACHE:   10029748

L1D UNIQUE REGIONS ACCESSED: 0
L1D REGIONS CONFLICTS: 0
L1D Cross Page Prefetch Requests: 264626
L1D Same Page Prefetch Requests: 10006756
L1D ROI Sum of L1D PQ occupancy: 126764670
L1D PREFETCHES PUSHED FROM L2C: 0
L1I TOTAL     ACCESS:   40200008  HIT:   29021281  MISS:   11178727  HIT %:    72.1922  MISS %:    27.8078   MPKI: 55.8936
L1I LOAD      ACCESS:   40200008  HIT:   29021281  MISS:   11178727  HIT %:    72.1922  MISS %:    27.8078   MPKI: 55.8936
L1I PREFETCH  REQUESTED:          0  ISSUED:          0  USEFUL:          0  USELESS:          0
L1I USEFUL LOAD PREFETCHES:          0 PREFETCH ISSUED TO LOWER LEVEL:          0  ACCURACY: -nan
L1I TIMELY PREFETCHES:          0 LATE PREFETCHES: 0 DROPPED PREFETCHES: 0
L1I PREFETCHES SAME FILL-ORIGIN LEVEL: 0 DIFFERENT FILL-ORIGIN LEVEL: 0
L1I AVERAGE MISS LATENCY: 16.2432 cycles
L1I RQ	ACCESS:   58314090	FORWARD:          0	MERGED:   16484369	TO_CACHE:   41829721

BTB TOTAL     ACCESS:   30539919  HIT:   18140103  MISS:   12399816  HIT %:     59.398  MISS %:     40.602   MPKI: 61.9991
BTB BRANCH_DIRECT_JUMP	ACCESS:    2018954  HIT:    1218809  MISS:     800145
BTB BRANCH_INDIRECT	ACCESS:   11947792  HIT:    7156444  MISS:    4791348
BTB BRANCH_CONDITIONAL	ACCESS:    7548510  HIT:    6291453  MISS:    1257057
BTB BRANCH_DIRECT_CALL	ACCESS:    3801012  HIT:    1784913  MISS:    2016099
BTB BRANCH_INDIRECT_CALL	ACCESS:     711313  HIT:     347925  MISS:     363388
BTB BRANCH_RETURN	ACCESS:    4512338  HIT:    1340559  MISS:    3171779
BTB BRANCH_OTHER ACCESS:          0  HIT:          0  MISS:          0

L2C TOTAL     ACCESS:   20376273  HIT:   18808267  MISS:    1568006  HIT %:    92.3047  MISS %:    7.69525   MPKI: 7.84003
L2C LOAD      ACCESS:   14445612  HIT:   13332934  MISS:    1112678  HIT %:    92.2975  MISS %:    7.70253   MPKI: 5.56339
L2C DATA LOAD MPKI: 1.62309
L2C INSTRUCTION LOAD MPKI: 3.9403
L2C RFO       ACCESS:    1155624  HIT:    1052891  MISS:     102733  HIT %:    91.1102  MISS %:    8.88983   MPKI: 0.513665
L2C PREFETCH  ACCESS:    2332690  HIT:    2052886  MISS:     279804  HIT %:    88.0051  MISS %:    11.9949   MPKI: 1.39902
AGUS PREFETCH L1 MISS: 0
L2C DATA PREFETCH MPKI: 1.39902
L2C INSTRUCTION PREFETCH MPKI: 0
L2C WRITEBACK ACCESS:    2328761  HIT:    2300679  MISS:      28082  HIT %:    98.7941  MISS %:    1.20588   MPKI: 0.14041
L2C LOAD TRANSLATION ACCESS:      80645  HIT:      36365  MISS:      44280  HIT %:    45.0927  MISS %:    54.9073   MPKI: 0.2214
L2C TRANSLATION FROM L1D PREFETCHER ACCESS:      32941  HIT:      32512  MISS:        429  HIT %:    98.6977  MISS %:    1.30233   MPKI: 0.002145
L2C PREFETCH  REQUESTED:          0  ISSUED:          0  USEFUL:      10204  USELESS:     268937
L2C USEFUL LOAD PREFETCHES:      10204 PREFETCH ISSUED TO LOWER LEVEL:     279804  ACCURACY: 3.64684
L2C TIMELY PREFETCHES:      10204 LATE PREFETCHES: 0 DROPPED PREFETCHES: 0
L2C PREFETCHES SAME FILL-ORIGIN LEVEL: 0 DIFFERENT FILL-ORIGIN LEVEL: 0
L2C AVERAGE MISS LATENCY: 44.0929 cycles
L2C RQ	ACCESS:   15714824	FORWARD:          0	MERGED:          0	TO_CACHE:   15714822
L2C WQ	ACCESS:    2328761	FORWARD:          2	MERGED:          0	TO_CACHE:    2328761
L2C PQ	ACCESS:    2332690	FORWARD:          0	MERGED:          0	TO_CACHE:    2332690

L2C Instructions Evicting Data 308790
L2C Translations Evicting Data 30692
L2C Data Evicting Data 383304
L2C Instructions Evicting Instructions 467782
L2C Translations Evicting Instructions 10766
L2C Data Evicting Instructions 294164
L2C Instructions Evicting Translations 11489
L2C Translations Evicting Translations 3251
L2C Data Evicting Translations 29686
L2C Dense regions hint from L2: 0
PSCL5 TOTAL     ACCESS:      71732  HIT:      71732  MISS:          0  HIT %:        100  MISS %:          0   MPKI: 0
PSCL5 LOAD TRANSLATION ACCESS:      53664  HIT:      53664  MISS:          0  HIT %:        100  MISS %:          0   MPKI: 0
PSCL5 TRANSLATION FROM L1D PREFETCHER ACCESS:      18068  HIT:      18068  MISS:          0  HIT %:        100  MISS %:          0   MPKI: 0
PSCL5 PREFETCH  REQUESTED:          0  ISSUED:          0  USEFUL:          0  USELESS:          0
PSCL5 USEFUL LOAD PREFETCHES:          0 PREFETCH ISSUED TO LOWER LEVEL:          0  ACCURACY: -nan
PSCL5 TIMELY PREFETCHES:          0 LATE PREFETCHES: 0 DROPPED PREFETCHES: 0
PSCL5 PREFETCHES SAME FILL-ORIGIN LEVEL: 0 DIFFERENT FILL-ORIGIN LEVEL: 0

PSCL4 TOTAL     ACCESS:      58821  HIT:      58161  MISS:        660  HIT %:     98.878  MISS %:    1.12205   MPKI: 0.0033
PSCL4 LOAD TRANSLATION ACCESS:      52294  HIT:      51634  MISS:        660  HIT %:    98.7379  MISS %:     1.2621   MPKI: 0.0033
PSCL4 TRANSLATION FROM L1D PREFETCHER ACCESS:       6527  HIT:       6527  MISS:          0  HIT %:        100  MISS %:          0   MPKI: 0
PSCL4 PREFETCH  REQUESTED:          0  ISSUED:          0  USEFUL:          0  USELESS:          0
PSCL4 USEFUL LOAD PREFETCHES:          0 PREFETCH ISSUED TO LOWER LEVEL:          0  ACCURACY: -nan
PSCL4 TIMELY PREFETCHES:          0 LATE PREFETCHES: 0 DROPPED PREFETCHES: 0
PSCL4 PREFETCHES SAME FILL-ORIGIN LEVEL: 0 DIFFERENT FILL-ORIGIN LEVEL: 0

PSCL3 TOTAL     ACCESS:      71601  HIT:      70940  MISS:        661  HIT %:    99.0768  MISS %:   0.923171   MPKI: 0.003305
PSCL3 LOAD TRANSLATION ACCESS:      53558  HIT:      52897  MISS:        661  HIT %:    98.7658  MISS %:    1.23418   MPKI: 0.003305
PSCL3 TRANSLATION FROM L1D PREFETCHER ACCESS:      18043  HIT:      18043  MISS:          0  HIT %:        100  MISS %:          0   MPKI: 0
PSCL3 PREFETCH  REQUESTED:          0  ISSUED:          0  USEFUL:          0  USELESS:          0
PSCL3 USEFUL LOAD PREFETCHES:          0 PREFETCH ISSUED TO LOWER LEVEL:          0  ACCURACY: -nan
PSCL3 TIMELY PREFETCHES:          0 LATE PREFETCHES: 0 DROPPED PREFETCHES: 0
PSCL3 PREFETCHES SAME FILL-ORIGIN LEVEL: 0 DIFFERENT FILL-ORIGIN LEVEL: 0

PSCL2 TOTAL     ACCESS:      57225  HIT:      31218  MISS:      26007  HIT %:    54.5531  MISS %:    45.4469   MPKI: 0.130035
PSCL2 LOAD TRANSLATION ACCESS:      53984  HIT:      27977  MISS:      26007  HIT %:    51.8246  MISS %:    48.1754   MPKI: 0.130035
PSCL2 TRANSLATION FROM L1D PREFETCHER ACCESS:       3241  HIT:       3241  MISS:          0  HIT %:        100  MISS %:          0   MPKI: 0
PSCL2 PREFETCH  REQUESTED:          0  ISSUED:          0  USEFUL:          0  USELESS:          0
PSCL2 USEFUL LOAD PREFETCHES:          0 PREFETCH ISSUED TO LOWER LEVEL:          0  ACCURACY: -nan
PSCL2 TIMELY PREFETCHES:          0 LATE PREFETCHES: 0 DROPPED PREFETCHES: 0
PSCL2 PREFETCHES SAME FILL-ORIGIN LEVEL: 0 DIFFERENT FILL-ORIGIN LEVEL: 0

LLC TOTAL     ACCESS:    1689101  HIT:    1530108  MISS:     158993  HIT %:    90.5871  MISS %:    9.41288   MPKI: 0.794965
LLC LOAD      ACCESS:    1112678  HIT:    1040534  MISS:      72144  HIT %:    93.5162  MISS %:    6.48382   MPKI: 0.36072
LLC RFO       ACCESS:     102731  HIT:      89646  MISS:      13085  HIT %:    87.2629  MISS %:    12.7371   MPKI: 0.065425
LLC PREFETCH  ACCESS:     279804  HIT:     210728  MISS:      69076  HIT %:    75.3127  MISS %:    24.6873   MPKI: 0.34538
AGUS PREFETCH L1 MISS: 0
LLC WRITEBACK ACCESS:     149179  HIT:     148369  MISS:        810  HIT %:     99.457  MISS %:   0.542972   MPKI: 0.00405
LLC LOAD TRANSLATION ACCESS:      44280  HIT:      40470  MISS:       3810  HIT %:    91.3957  MISS %:    8.60434   MPKI: 0.01905
LLC TRANSLATION FROM L1D PREFETCHER ACCESS:        429  HIT:        361  MISS:         68  HIT %:    84.1492  MISS %:    15.8508   MPKI: 0.00034
LLC PREFETCH  REQUESTED:          0  ISSUED:          0  USEFUL:       1594  USELESS:      58257
LLC USEFUL LOAD PREFETCHES:       1594 PREFETCH ISSUED TO LOWER LEVEL:      69076  ACCURACY: 2.3076
LLC TIMELY PREFETCHES:       1594 LATE PREFETCHES: 0 DROPPED PREFETCHES: 0
LLC PREFETCHES SAME FILL-ORIGIN LEVEL: 0 DIFFERENT FILL-ORIGIN LEVEL: 0
LLC AVERAGE MISS LATENCY: 144.204 cycles
LLC RQ	ACCESS:    1260120	FORWARD:          0	MERGED:          0	TO_CACHE:    1260118
LLC WQ	ACCESS:     149179	FORWARD:          2	MERGED:          0	TO_CACHE:     149179
LLC PQ	ACCESS:     279804	FORWARD:          0	MERGED:          0	TO_CACHE:     279804

LLC Dense regions hint to LLC: 0

RAW hits: 1433689
Loads Generated: 47562298
Loads sent to L1D: 46128609
Stores Generated: 26256735
Stores sent to L1D: 26256733
Major fault: 0 Minor fault: 6134
Allocated PAGES: 6134
ucb ended
-----------------------------------------------------------------------------------------------------------------------------------------------------------------------------------------------------
Offsets elements: 1 2604098 -2604099 54 -1 -1465993386127 1465995990172 -1465995990172 -2604098 -1465993385836 1465993385890 -54 -1465993386073 -2604100 -1465993385833 1146348 1465992239487 -1465992239487 -1465993386074 1465993386074 31 -1465993224826 1465993224849 -1465992239541 -1146348 1465994832199 -2592658 -55 -1465992239485 1465992239485 -1465993386105 -1465995832167 -158005 -1465993226041 -142100 1683723 1465991684420 -1465993229186 -156888 3 1465995990169 -1465995989925 155836 1465993229987 151 -94 -1465993385881 1465993385882 -1465993230042 59307 -59307 59298 1465993170744 -1465993170744 1465993170743 -1465993385887 1465993385888 1465993170687 -1465993229984 -156083 215381 -215136 155835 -1465993386071 160031 1465995830141 -1465994288517 -1541624 -142357 1683980 -1544766 985890 -986711 5425 -172457 172474 1465993224550 -1465993226029 -142110 1128674 555059 -1683725 -17929 1230996 1465994759176 1465993386060 2604112 -2604115 -1465993386056 1465993386069 2604103 -2604111 13 -2604103 4 29 1465993386076 2604096 -2604097 -26 -1465993386079 -2604091 -1465988464146 -3366632 -1395272 -805 1465993229998 -1465993386081 1465993386268 2603904 -1465995990061 21454 5 48970 -3 -54715 1134175 -1150000 1465993386071 2604101 -2604101 -1465993386076 -1465995990133 653 -692 -1465995832172 1465993228038 -1465993386038 1465993386037 2604135 -2799 4805 1465993226031 -1465993226033 -160004 1465993386033 2604139 -2604139 2 -5 1465993386032 -1465993228032 1465993228033 -2604138 1465993226034 -1465993226034 43249 1465993182779 -1465993386033 -1465995830167 -159758 159758 1465993226027 190 -1465993226216 -160006 70426 -48972 -21565 15825 1465993370207 -1465993315492 -48970 1465995968603 -1465991068238 -4761928 881807 -1041810 160002 -159757 -248 1465993386034 2604138 -1465993182778 -43251 43250 -4398 1465993187181 -1465993386037 1465993370208 -1465993315494 -1465991054850 1465988450715 -1465988464102 1465988464101 -1465993182782 -203254 -2604133 -1465993182785 -203016 203016 1465993182785 -1465993386034 -1465993182783 835561 1465992347222 -186198 1465993368979 9 -1465993386045 1465995968602 -1465994840198 1465992236071 -7 -1465992236065 1465992236065 -11 7 1465988464102 20623 1465995969549 -2603904 -1465993386157 21470 48956 -70426 37007 -15549 -70539 -4 -2 -1465988464100 -2932032940362 2932032940361 -1555299 4935323 1465991054849 -1465991054849 1465988450710 -1465988450710 -4935085 4935085 1465988450705 -1465988450705 1465988450706 1465993386031 2604141 -2604142 -4935084 4935084 -5118175 5118175 -5104636 1465993555346 -2604141 -1465988464096 3366632 -4763934 -1465993386032 1465993386044 -1465993367914 -18076 17912 -17275 17275 138921 -167782 167785 4109 1465993225034 -1465993396872 1465993396878 -1465993386040 -2604137 40 -1465988464139 -3366635 2932031543063 -158001 158000 1465995832172 1465993386040 2604132 1465993230837 2604134 -1465995830168 -1465993228037 -1465993226036 43251 -203255 35 -2932032940361 2932031385062 -4935323 -1465988450717 -1465993385802 -238 1465993386036 -1465988450714 -1465993568891 183091 13539 1465993555351 -1465993386039 4921935 1465995832171 -1465994434869 1465991830737 -1465993367833 1465993367833 -1465993368555 180463 1465993188126 1465993370214 -1465993315498 -1465995792126 -197728 -318 -1465991068237 -3366636 3380024 1465988450717 1465993386038 -2604134 -1465988450715 1465993386035 -1465988450712 1465988450713 -4935083 -183092 -2604136 -54714 4906109 -4921934 2604137 1465988450714 -6 -2604135 -4737275 -197808 1465995978545 -1465995775531 -5205 1465995792123 -1465995786918 1465995775532 -1465995775532 1465993187989 2592747 11387 1465993182783 4761931 -4921935 -2604132 6 -32 -1465988464107 1465988464108 -1465992236070 -111161 111160 3785348 -3785348 -1149974 -21581 1465993386039 -1465993348894 1465995953028 -1128405 128317 1465993187189 -1465993356288 1465995960421 -1465995919631 -48971 1465993315503 -1465993386043 1465993386072 2604100 -2604131 32 1465993370241 -1465993315524 48971 1465995919631 -1465994759700 -1230472 -2604104 -1465993386069 1230473 1465992155589 -1465993386062 1465993386063 2604109 1465993370238 -1465993315523 -1465991050701 -3708999 -1070441 1541623 -1544764 -156834 637 160265 -171492 171492 1465993225105 205 -1465993386268 111 1465995990061 -1465995919635 1465993370237 -1465993315522 -1465991050700 1465988446594 -1465993386066 -21566 -1465993315518 1465995968601 -2604109 -1465992155084 -1230978 -1465991050699 -1230474 -1465994759210 1465992155101 -1465992155591 1465992155592 -1465988446594 -4939473 -1465993356153 1465995960263 -1465995919628 -48973 48972 1465993315522 -1465993386065 -1465993348909 1465995953019 -1465994759699 -1208904 1465993315526 -1465993385825 -1465995820789 1072477 1465994759699 -11386 -1465995820790 1465992155590 2592722 -2592723 2604110 -2604105 -1465993386067 -2604108 -1465992155593 -1230475 -1230473 -70537 1465993386065 -1465993370239 54713 1465995919634 -1465995968603 4397505 -4418827 157756 1465993228219 -1465993228219 1465993228062 -1465993228062 44909 -202912 1465993370239 -1465993315525 -48969 -1465991571098 -4419074 158003 1465995832168 157757 1465993228057 -1465993228059 -44909 -158004 1465993386064 2604108 -1465993385815 157755 1465993228063 1465992155593 -1032426 -209290 209290 1465993188019 -1465992155594 -1465993397310 1241716 11244 1465993386067 2604105 -2604106 -2604102 1465993386075 2604097 -2604096 8 -1465992155609 3691463 -3366633 -1555302 -1465995830141 -160031 -1465994288518 -1544763 3142 1465993226036 -1465993368865 142828 -160032 -1465991830772 -1537336 1465993368109 -1465993229188 -139214 138393 -172456 10964 1469 1465995828672 -1540163 -172463 172466 1540155 172464 -161500 1465993386128 -1465993224635 1465995828680 -1465996001137 -161509 -1465993386080 -1465995990058 21480 1465993364674 -1465993386156 21450 1465993364514 -1465993385965 15612 1465993348547 -1465993243840 -104671 104670 -142120 21466 120655 -142121 21467 1465993364493 -1465993243839 -113248 113248 -104669 56661 48008 -113247 8577 -50 1465993348560 -1465993348508 1465993348509 -1465993291848 1465993291848 -1465993385963 142122 -120640 -12 -21469 -21562 -1465993370250 1465995974347 -1465993226050 1541624 -1701655 1230472 1465994759700 -198046 -11244 1465996001416 -1465993386075 1465993370244 -1465993315530 -1465995834948 1465993230847 -1465993188025 1465993397315 1465993188024 1465993370245 -1465993315526 1465993364500 -1465994759295 1465992155198 -1465993230851 42822 1465993188029 -181036 1465993566873 -1465993385837 378844 1465993397319 -2604084 -1465992155211 -1230639 1465993385850 -17 -1465992155198 -1230877 8328 -8338 48973 -1465993386070 -1465993350070 1465995954172 21569 48969 1465993315537 -1465993385840 1465993385849 -1465992239494 1465992239494 -1465993386088 -1465995972683 1212986 3708998 -1070440 995130 -1166448 1166492 3784265 1465988446600 -1465988446600 -4778514 4778514 -1465992155599 -1032424 -198048 4067 1465993225113 -1465993188024 209292 -1465995792123 843766 -1041814 38044 4723886 1465988464133 -1465992344253 -839292 -213268 10746 -111 -1465993364497 1465993364496 -1465993370238 -1465995919625 -48975 180950 1028090 -1028090 -42490 -1465994840176 -1149996 1149996 1465994840176 -1465994926989 -1063180 1063180 -1062936 1062936 1465992322872 167 -1465992323038 1062935 -860284 1465993183157 -1465992236061 1465993386057 2604115 -111137 -813359 -225503 225498 1465995764674 -1465995766151 427 -63231 -167198 231479 -225498 -1465995765728 -224444 1465993386053 2604119 -2604120 -1465993160554 -1086 1097 -1096 121 965 -1069 -224437 -1465995996161 1465993392046 -1465993160548 1465993160549 -1465993392046 1465993392045 1465993386056 2604116 -2604117 -1465993160546 -1088 254573 -253472 253472 -253474 -1061 1055 -25753 25756 26848 1088 -1100 110 1465993161535 -1465993161646 254563 -254578 1099 1465993160547 -10 -1050 -224448 -1465993367849 -51 179793 952047 -994802 -165680 11204 -718 -1465995989886 1465995931508 -8 58386 -58033 53072 -2599154 -1465993386057 1465993386061 2604111 -2604114 -1465992236062 1465992236066 1038861 1465994951311 -1465991068235 -3883066 3883066 -4921676 4921676 -4921927 -1465993348941 1465995953054 968322 -1038861 -2604112 -1465993386060 -2604110 -1465992155455 -1241352 10740 4921934 1465991068238 1465993386059 2604113 1465993370232 -1465993315514 1465993364488 1465992155185 -1465988464133 1465988464128 -1465988464128 -4921697 4921696 1465988464127 -1465993386061 -1465988464127 -1465988464126 -4921696 4921697 1465988464123 -1465988464122 1465988464124 -1465993386058 -1465992155447 -202522 2604107 -2604107 1230877 1465994759295 1465993386062 -1465992155185 1230639 -1465992155182 1465992155183 2604114 1465992155186 -1465993386063 -251 11 1465992155417 -1465993502843 117026 -117026 1465993502844 -1465993386055 -1465995989923 1230628 -240 -1465992155176 1230399 -1465993385818 1465993385818 -2604116 1465993386058 1465992155422 -1465992155422 1465992155423 -1465993502847 117025 -117025 1465993502849 -1465992155188 -1465995968601 1160068 25 -97925 1465992253348 -1465994857456 1465992253347 -1465993386059 225502 -1465995765724 1050 224444 1465995765728 -2604122 -1465992253335 -977510 1465993230860 -1465992253349 1465992253342 -1465993160550 -225508 -1465993385985 18075 1114564 -907209 -23781 23777 -1465992253341 -1132712 -1465995765760 -1091 109 -22788 23765 907213 -930991 1031427 -100441 -907204 653739 -254575 1101 -23774 22680 25757 934068 -907214 -23785 23789 -1476 1481 907219 -1132722 1132721 -930992 1465995788443 -1465995788451 1465993184338 -1465993184334 837154 106563 -12726 1465992253343 -1465992240617 88096 -194659 93836 97914 -83880 83880 -1308 -106562 12726 85188 2905 -2905 -83881 83881 -1307 12727 85187 -85188 194657 -100821 100820 -86786 2906 -2906 1465992240618 -1465992240618 225503 1465995764669 -1465995788443 23769 105 -22784 -23778 1031803 -381 -1299701 268275 23776 201729 -1465995788445 1031807 -1008023 1008023 -225511 -1465993160532 -23782 1465993184314 -1465992152508 -89387 -918644 918643 -942417 942417 -942424 -26856 -198652 -1465993184313 1031809 1465992152525 -1465992241912 1465992241913 -1465993184335 1465993184336 -1465992152525 -11431 33 89366 -100830 100830 -2916 -86483 11481 89350 -2917 42 -11473 100832 -2918 37 -11468 -55356 -31127 -11471 42607 55307 -55307 -55306 -31177 39 -11470 11431 38 -11469 136075 -38161 38161 66 -124711 136077 -38163 136078 -38164 38164 1465992117266 -1465992241911 5840 439356 61227 1465991735488 -1465993160555 1650571 -1448842 1448850 1465991735485 -1465992253340 1366347 -1366348 1366348 1465990789078 1389607 528315 -528315 -1291693 1820008 1465990335418 -1465990335418 -1917922 1465992253340 -1465992155426 -97914 1283677 -1381591 1381591 1236293 -1864137 2734621 -3390454 3390454 1465988764972 3422093 -3324179 3324179 -2404407 1706553 -198731 -2427594 2427594 1465989727832 -1465989727832 -2525508 3308772 1465988846654 -1465988846654 -3406686 2056715 1465990196625 -584166 411673 -92540 -1693768 1693768 1465990461658 1944638 505209 -1112036 -1337811 1337811 1465990817615 -1465990817615 -1435725 1541862 -1443948 1443948 1465990711478 -1465990711478 -1541862 3407720 -3407720 1465988747705 -2604118 -1465992253336 100816 -100816 3505632 257 -4413098 4413099 1465988747455 -1465992253344 -1132717 1233533 1465994756639 -1465994846026 -11429 -4638606 -2604113 -1465992155436 -1230626 -1465994759560 -97900 -1132716 1465993386052 1465992253341 -1465995764670 1465993161601 2604127 -1465994857460 -977514 977513 2604120 -2604121 -1465992155439 1465992155446 3407726 -4638111 1230388 -25 -1241351 1241351 -1230612 1132712 1465994857460 1465993386048 2604124 1465992253335 -1465993160549 -1054 1465993161596 -977512 977516 1465992253334 -2604125 -1465993386053 4638606 1465991351566 -2604119 -1465988747447 1465993386051 2604121 -1465993386052 -1465992155431 -1241353 1241378 -14 1038860 1465994951312 -1465994951311 93852 1465993161615 108 -22787 907203 10 -1007650 907216 100813 -1008030 942419 -918643 23784 889524 -889523 1465993160551 -1465992253346 -907208 1465993160555 -1465992347202 21565 -5740 -1465995919633 4900358 -4921677 4921687 -3883076 3883076 -4921937 -1465993356155 -1465995968600 48975 1465993315520 1465993386068 2604104 -1465993188018 951951 1465993370242 -1465993315528 -1465991571097 -3269075 1465992236067 -1465992236068 1465993370243 -1465993315527 -1465994840172 1465992236094 -1465993188020 1465993188022 3269074 3269075 -3269074 -1150001 994777 -40052 -157997 -1465995790463 -210434 210435 -199710 -1465991386912 -4443228 39678 950287 -1149997 160032 1465995830140 -111135 -1465991068245 4921686 -1465993315731 -1465993385951 1465993385950 -1465995968591 1017280 -1001743 1465993348944 -1465993364494 1465995919633 -1465993386064 -1465993188022 4405212 -4405212 -208777 1160729 -3269100 3453286 -4613989 10729 4603261 -3453287 1465994840198 -1465994757538 -1232634 1232638 1465994757534 -1465992153424 1465992153425 1008194 -1077429 1465993230853 155205 1465993230851 -1465995834967 -221567 1465993452416 -1465993386054 1465993386054 2604118 -1465992153419 1465992153422 1465995834967 -221545 1465993452393 -1465992153418 1465992153419 -1465993160547 2604117 -1465993367910 1214486 -1007131 224448 -24633 1465995790357 225509 -1465995764669 1007131 -1032819 24585 1090 -977 813868 -559295 753651 -1007136 1007135 -1008236 1098 1058 -25691 25695 -25687 279160 -280329 26853 -1481 -24201 1032820 -1232643 199815 -1465994757535 838961 -839901 -626 840528 193857 1465992153420 -1465993452603 221757 883567 -839900 1465993187180 -1465993186240 1465993186240 1465995764663 -1465995790349 24589 -25682 -1576 1574 24692 -24696 838452 -1038273 -66548 264799 1465995791921 -1465995764662 -25680 1465993186214 -1465993187784 27260 -1465993160538 1465993160528 -1465993160530 1465993160533 -1465993186220 1465993186234 -1465992347237 1465994951354 -1465993161650 -24589 -1567 -1465995791520 840166 193819 -193818 193818 2296957 1465989856463 -1465989856453 -3316687 -279463 981600 2392783 16 -3316661 825870 -1465993230846 981609 2392774 -3596140 3596158 -1687137 -609838 -1465991565624 -1665222 3374383 -2296957 2296976 1465989856444 3585040 -1547700 -2037340 1815583 1558800 2296977 1465989856443 801336 1465989055107 4669449 -825483 -4065723 3467202 -3467202 3596140 20 1140581 -3437558 -1465993228624 -2222 -221757 1465989856464 -1465989856444 -3529614 4470368 -4470370 -266369 1104821 4670195 -4444692 1465995764661 4444685 -4470372 -199823 -1465993160526 1465993160532 1465995790351 -1465991319978 -4444691 25675 1465993386055 -18 -1465993160529 4254361 1465988906166 24591 1465993161631 -1465995791921 401 26851 838997 1465992347240 25688 889523 -915213 -1465988715861 1465988715863 -1465988906189 -3247232 -1032820 4470377 -190325 1465988906189 -1465988906188 -3247226 -82731 3329956 -1465993230825 4184941 -4114671 4340175 -4140352 1465995790349 -1465995790357 4140360 139686 1465988906194 -1465992153417 -1077426 4324650 1465988906193 3247224 -4324650 1465993230843 3112778 -4190203 -1465988906179 -3247238 3247237 -134459 -4190204 3247278 82541 -4407245 -1465988823598 -3329819 4324705 82540 3251 1465988820347 -1465988820347 -3333070 1465992153417 -1465988809790 -4421053 1077426 4421053 16882 1465988792908 4437935 -1465988789906 -3363511 4440937 45 1465988789861 4440982 17263 1465988772598 3380819 -4458245 4477186 -1765 15280 1465988740142 -1465988755422 -3397995 4482542 -4482542 1465988748301 -1465988748301 -3405116 -1465988748285 -3405132 4482558 26 1465988748259 3374445 1465988778971 -1465993230843 3374446 -4451873 -1465988778970 -3374447 4482584 -30711 3405158 3402906 -4480332 4480332 -28458 28462 1465988750505 -1465988778967 -3374450 3402910 -4480336 4480336 -3402907 3402907 1465988750507 4480338 -3402911 3402912 -4480334 4480335 1465988750508 -1465988750505 -3402912 3405967 1465988747450 4483393 1465988747449 -1465994757530 1465994757530 -1465994757533 3437560 -31589 -4413097 4417215 -3410083 -1232639 1232639 1465994757533 -27472 -4642722 -1465988747454 -158736 1465988906191 1465992153423 -1465994757534 -1077433 1465993230857 -1465992236090 989964 -1160712 1160712 1465992236072 -1465988743346 -3492748 1465992236093 -1465992236093 -1465992236067 1465988966993 -1465993386068 -951926 1465993386070 2604102 -1465993225114 -198047 1465992155601 -1465992236073 -3269101 1465992236102 -1465992155604 1465992236097 -1465988743358 1465988743359 -1465988743359 -4642484 4642484 -3087436 -1555303 -1465994434871 1465991830774 -1465993367868 -725 180466 1032525 3188601 -3188602 3188602 1465993228071 147 1465993228073 -1465993228073 -1465988967002 -4261071 4216162 -48956 -1465995954036 121868 -136435 -70290 -1465993349939 1465995954036 89493 1465991684422 -156885 247 1465995989925 -1465995834089 1465993230139 -95 -1465993385882 1465993230042 -1465993170735 1465993170734 155846 1465993170689 -1465993229986 156080 -155835 215136 -215384 2604099 1125104 558876 -821 17 -172474 170996 1128666 -1146595 1701654 1465994288518 -1465994759176 1465992155063 -2604093 -1465992155607 -3366634 1465991830775 -1465993367869 1465993188131 -143155 1129710 -1146586 209291 1465993188025 197 -1465993370243 -1465993315529 -1465995834965 1465993230863 1465993397314 -1465993188023 -1465993230864 42839 209293 -1465993230868 1465993230869 -4741424 -198049 -197811 197811 4741424 1465988446595 1465993385831 14419 -14431 1465993315531 -1465993315531 -70538 -1465988446603 -1465988446596 -4781474 -2932031543253 2932032476096 1465992295227 -1465993385829 4939233 -3848631 1465992295228 4939222 1465988446603 1465988446599 -1465992239484 1465992239489 -1465993348917 1465993315533 94 -93 -1465992239489 1465992239490 1465993386123 2604049 -1465992155605 3708997 -4939472 -1465993356165 1159931 -1465993348921 1159934 1465993386073 -1465993348954 127509 -4613990 4613990 -4603260 193774 1465994757537 -1007137 -25683 25683 -1007125 -25673 1032809 -1032807 1032817 -1008232 813866 -812770 1007136 -983 986 4444688 -4470371 25687 4254359 -4254367 915211 1465993186249 -1465992153426 1465992153427 -1465992153432 -1007130 1465993160563 -1465992347210 15714 1465993370246 -1465993315533 1465995919635 -1465995968607 48974 -4921684 1038611 1465988464145 -1465993386072 -1465993349576 1465995953676 -1465995792125 -176477 127506 1465993188028 -1465993349990 1465995954088 -1208902 1159930 -80472 1465992236099 8170 1465993356322 -1465993385962 1465995919632 -1465995968602 1128430 -1465993350073 1079462 -1149754 1465993385828 -1465992236074 1465992236075 -1465993349938 -1465993356323 1159932 -3691453 -1235163 4718 1230448 -1230445 8327 1465993356166 -1465993315537 2863844 -4419144 1484761 -1465993348930 -1465994434873 -1533730 -1465993355531 1465995959629 21570 -49919 -1465993348957 1465993365645 -1465993356167 1465995960264 -1465995919630 1465993315564 -27 -1465993386103 -1465995973296 143155 1465993226072 -1465992239517 -986555 -138906 1128605 1465992239516 -1465995989934 1146349 -1465992239486 -1465993230908 -154476 286 1465995989886 -58378 -1465995942272 1465996000658 -2599138 30 -1465992239515 -1316732 170145 -1465993385826 155842 1465993230133 -149 -1465993229963 -2932031541295 2932032529845 -988550 988573 1465992241391 1465993385836 -1465992241394 1465992241394 -556964 1465992241378 -1465992241384 -1261512 1261512 1465992241386 -1465993229980 -155841 155840 -156088 27 -1465992230942 -1166447 11285 -1465994835010 1465992230868 -1465992230906 -1138458 1138454 -1166449 1166449 -1154915 159344 1465993226480 -1465992231055 -995576 -159343 1465993385823 -1465993369366 1138458 1465992230912 -1465992230907 1465992230907 -1465992230890 1465992230889 -1465992230905 1465992230905 -1465992230904 1465992230904 -1465992230903 1465992230903 -1465992230901 1465992230901 -1465992230900 1465992230900 -1465992230899 1465992230899 -1465992230897 1465992230897 -1465992230896 1465992230894 1465992230892 -1465992230891 -1155181 -1465992230941 1155162 1465994835010 -1465994835008 44 -1166492 1465993397359 -1465993369365 -1154918 1154915 1465993397509 -1465993226631 995575 159343 1465993226479 1465992230911 -1465992230908 1465992230908 -1465992230889 1465992230896 -1465992230894 -1465992230893 1465992230893 -1465992230892 -1155183 1465993386104 2604068 -2604068 27994 -1155162 -11285 1465996001457 1465993397358 -1465993369364 1138457 -1154917 170878 1465993226631 -1465992231058 -1154916 1465993226478 1138499 -43 -1138294 -16591 17865 1465993367926 1465992230910 -1465992230909 1465992230909 -1465992230888 -19 1465992230906 -1465992230902 1465992230902 -1465992230898 1465992230898 -1465992230895 1465992230895 1465992230891 1166448 -1465992230911 -31 -11534 -1465992231059 22 -22 -1465992230910 -2604069 -1465993226071 -1166446 1166446 
Potential of Offsets elements: 926.266 28.266 28.266 28.266 1213.27 30.266 28.266 28.266 28.266 28.266 28.266 128.266 28.266 28.266 28.266 28.266 28.266 28.266 28.266 28.266 133.266 28.266 28.266 28.266 28.266 28.266 28.266 28.266 28.266 28.266 587.266 28.266 28.266 155.266 28.266 28.266 44.266 28.266 28.266 1066.27 110.266 75.266 28.266 28.266 28.266 28.266 28.266 38.266 28.266 28.266 28.266 28.266 28.266 28.266 28.266 28.266 28.266 28.266 28.266 28.266 28.266 36.266 28.266 28.266 28.266 28.266 28.266 28.266 28.266 28.266 28.266 28.266 28.266 28.266 28.266 28.266 28.266 47.266 28.266 28.266 28.266 28.266 28.266 73.266 28.266 28.266 28.266 28.266 28.266 28.266 28.266 28.266 594.266 28.266 764.266 28.266 28.266 28.266 28.266 316.266 28.266 28.266 28.266 28.266 28.266 28.266 28.266 28.266 28.266 28.266 28.266 34.266 258.266 28.266 1031.27 37.266 28.266 28.266 677.266 202.266 214.266 184.266 28.266 28.266 28.266 28.266 28.266 28.266 28.266 28.266 28.266 28.266 28.266 28.266 28.266 28.266 28.266 28.266 1759.11 788.266 28.266 28.266 28.266 28.266 28.266 28.266 28.266 28.266 28.266 28.266 30.266 28.266 28.266 35.266 28.266 28.266 28.266 61.266 132.266 400.266 28.266 66.266 85.266 28.266 28.266 28.266 28.266 28.266 28.266 28.266 115.266 28.266 28.266 28.266 28.266 28.266 28.266 28.266 28.266 28.266 28.266 28.266 28.266 28.266 28.266 28.266 28.266 28.266 28.266 28.266 28.266 28.266 28.266 28.266 28.266 28.266 28.266 28.266 192.266 28.266 208.266 28.266 28.266 362.266 164.266 28.266 248.266 617.266 33.266 63.266 88.266 776.266 78.266 103.266 48.266 28.266 28.266 28.266 28.266 758.266 1289.41 28.266 28.266 28.266 28.266 28.266 28.266 28.266 28.266 28.266 28.266 28.266 28.266 28.266 28.266 28.266 28.266 28.266 28.266 28.266 28.266 28.266 28.266 28.266 28.266 28.266 36.266 55.266 28.266 28.266 38.266 28.266 28.266 28.266 28.266 28.266 29.266 28.266 28.266 28.266 28.266 28.266 28.266 28.266 50.266 28.266 28.266 28.266 184.266 28.266 28.266 28.266 28.266 28.266 28.266 28.266 28.266 28.266 28.266 28.266 40.266 28.266 28.266 28.266 28.266 28.266 666.266 59.266 28.266 112.266 28.266 28.266 28.266 28.266 28.266 28.266 28.266 28.266 28.266 28.266 28.266 28.266 28.266 28.266 28.266 28.266 28.266 28.266 28.266 28.266 28.266 28.266 28.266 28.266 28.266 28.266 28.266 28.266 30.266 28.266 28.266 28.266 28.266 28.266 28.266 28.266 821.266 28.266 28.266 28.266 28.266 30.266 34.266 28.266 28.266 28.266 28.266 30.266 28.266 28.266 28.266 28.266 28.266 28.266 194.266 141.266 28.266 28.266 28.266 28.266 28.266 28.266 28.266 28.266 273.266 28.266 28.266 28.266 28.266 28.266 28.266 28.266 28.266 28.266 28.266 28.266 28.266 28.266 28.266 28.266 89.266 48.266 77.266 28.266 28.266 28.266 28.266 28.266 28.266 28.266 44.266 116.266 28.266 28.266 28.266 28.266 28.266 28.266 28.266 28.266 28.266 28.266 28.266 28.266 28.266 28.266 28.266 163.266 28.266 94.266 496.266 28.266 28.266 28.266 28.266 28.266 28.266 28.266 28.266 28.266 28.266 28.266 28.266 28.266 28.266 28.266 28.266 90.266 62.266 33.266 28.266 33.266 28.266 28.266 95.266 28.266 28.266 28.266 28.266 28.266 28.266 28.266 28.266 28.266 28.266 28.266 28.266 70.266 28.266 28.266 28.266 28.266 28.266 28.266 28.266 28.266 28.266 28.266 28.266 28.266 28.266 28.266 28.266 28.266 28.266 28.266 28.266 28.266 28.266 28.266 192.266 28.266 28.266 28.266 48.266 28.266 64.266 66.266 28.266 28.266 28.266 28.266 28.266 28.266 28.266 28.266 28.266 28.266 28.266 28.266 28.266 28.266 28.266 28.266 28.266 28.266 28.266 28.266 28.266 28.266 28.266 28.266 28.266 28.266 28.266 28.266 28.266 793.266 28.266 28.266 28.266 28.266 28.266 151.266 55.266 28.266 28.266 46.266 28.266 28.266 74.266 28.266 28.266 28.266 28.266 28.266 28.266 28.266 28.266 28.266 28.266 28.266 28.266 28.266 28.266 28.266 28.266 28.266 28.266 28.266 71.266 28.266 28.266 28.266 28.266 28.266 28.266 32.266 28.266 28.266 28.266 28.266 28.266 28.266 28.266 28.266 30.266 34.266 28.266 28.266 28.266 28.266 28.266 28.266 28.266 28.266 28.266 28.266 34.266 38.266 28.266 30.266 28.266 28.266 28.266 28.266 28.266 30.266 264.266 28.266 28.266 28.266 110.266 28.266 28.266 28.266 28.266 28.266 28.266 28.266 28.266 28.266 28.266 28.266 28.266 48.266 28.266 28.266 36.266 56.266 63.266 34.266 28.266 28.266 28.266 28.266 28.266 28.266 28.266 28.266 28.266 28.266 28.266 28.266 28.266 28.266 69.266 28.266 28.266 28.266 30.266 28.266 28.266 28.266 28.266 415.266 28.266 28.266 28.266 28.266 28.266 28.266 28.266 28.266 28.266 28.266 28.266 28.266 28.266 28.266 28.266 28.266 28.266 28.266 28.266 28.266 28.266 28.266 28.266 28.266 28.266 28.266 28.266 28.266 28.266 28.266 28.266 28.266 28.266 28.266 28.266 28.266 399.266 249.266 47.266 44.266 28.266 39.266 28.266 28.266 28.266 28.266 268.266 28.266 28.266 28.266 28.266 28.266 28.266 28.266 28.266 28.266 28.266 28.266 28.266 28.266 28.266 28.266 28.266 28.266 28.266 28.266 145.266 89.266 28.266 28.266 28.266 28.266 28.266 28.266 28.266 28.266 28.266 28.266 28.266 28.266 28.266 60.266 60.266 86.266 28.266 28.266 28.266 28.266 28.266 28.266 28.266 28.266 28.266 28.266 28.266 28.266 28.266 28.266 28.266 28.266 28.266 28.266 57.266 46.266 56.266 36.266 28.266 28.266 38.266 28.266 28.266 28.266 28.266 28.266 28.266 28.266 28.266 293.266 28.266 28.266 28.266 28.266 28.266 28.266 30.266 28.266 28.266 28.266 28.266 29.266 149.266 28.266 28.266 28.266 28.266 28.266 28.266 28.266 28.266 28.266 28.266 28.266 28.266 28.266 28.266 34.266 28.266 30.266 28.266 28.266 28.266 28.266 64.266 28.266 28.266 28.266 28.266 28.266 28.266 28.266 28.266 28.266 28.266 32.266 28.266 35.266 34.266 28.266 42.266 28.266 28.266 28.266 28.266 97.266 28.266 28.266 28.266 28.266 28.266 28.266 28.266 28.266 28.266 28.266 28.266 28.266 28.266 28.266 28.266 28.266 28.266 28.266 28.266 28.266 28.266 28.266 28.266 299.266 28.266 28.266 28.266 28.266 28.266 49.266 28.266 28.266 151.266 28.266 28.266 163.266 33.266 371.266 270.266 28.266 28.266 28.266 28.266 28.266 28.266 28.266 28.266 28.266 28.266 82.266 28.266 28.266 28.266 28.266 28.266 28.266 172.266 64.266 236.266 80.266 28.266 28.266 28.266 28.266 28.266 28.266 28.266 28.266 28.266 28.266 28.266 28.266 28.266 28.266 28.266 28.266 28.266 63.266 34.266 28.266 28.266 28.266 28.266 28.266 28.266 28.266 28.266 28.266 28.266 28.266 28.266 28.266 28.266 28.266 28.266 28.266 28.266 28.266 28.266 196.266 28.266 28.266 28.266 28.266 28.266 28.266 28.266 28.266 28.266 28.266 28.266 28.266 28.266 28.266 28.266 28.266 28.266 28.266 28.266 28.266 28.266 88.266 28.266 28.266 28.266 28.266 28.266 28.266 28.266 28.266 28.266 28.266 28.266 28.266 28.266 28.266 28.266 28.266 28.266 28.266 28.266 28.266 30.266 37.266 28.266 28.266 28.266 28.266 28.266 28.266 28.266 28.266 28.266 28.266 28.266 28.266 28.266 28.266 28.266 28.266 28.266 28.266 28.266 28.266 28.266 43.266 28.266 28.266 28.266 28.266 28.266 28.266 28.266 28.266 28.266 28.266 28.266 28.266 28.266 28.266 28.266 28.266 28.266 28.266 28.266 28.266 28.266 28.266 28.266 118.266 28.266 28.266 28.266 28.266 28.266 28.266 28.266 28.266 28.266 186.266 28.266 28.266 453.266 28.266 28.266 28.266 28.266 28.266 28.266 28.266 28.266 28.266 28.266 28.266 28.266 28.266 28.266 28.266 28.266 28.266 28.266 28.266 28.266 28.266 28.266 28.266 28.266 28.266 28.266 28.266 28.266 28.266 28.266 28.266 28.266 28.266 28.266 28.266 28.266 28.266 28.266 28.266 28.266 28.266 28.266 28.266 28.266 28.266 28.266 28.266 28.266 28.266 28.266 28.266 28.266 28.266 28.266 28.266 28.266 28.266 28.266 28.266 28.266 28.266 28.266 28.266 28.266 28.266 28.266 28.266 28.266 28.266 28.266 28.266 28.266 28.266 28.266 28.266 28.266 28.266 28.266 28.266 28.266 28.266 28.266 28.266 28.266 28.266 28.266 28.266 132.266 141.266 33.266 28.266 28.266 28.266 28.266 28.266 28.266 28.266 28.266 28.266 28.266 28.266 28.266 28.266 28.266 28.266 28.266 28.266 28.266 28.266 28.266 28.266 124.266 28.266 28.266 28.266 28.266 28.266 28.266 28.266 28.266 28.266 28.266 28.266 28.266 427.266 28.266 28.266 28.266 28.266 28.266 28.266 96.266 28.266 35.266 32.266 28.266 28.266 28.266 28.266 28.266 120.266 28.266 28.266 28.266 28.266 28.266 28.266 28.266 28.266 28.266 28.266 104.266 59.266 28.266 28.266 28.266 28.266 90.266 28.266 28.266 244.266 28.266 28.266 28.266 28.266 28.266 28.266 28.266 28.266 28.266 28.266 28.266 28.266 210.266 76.266 28.266 32.266 192.266 28.266 28.266 28.266 28.266 28.266 28.266 28.266 28.266 28.266 28.266 28.266 28.266 28.266 28.266 28.266 28.266 28.266 28.266 28.266 28.266 28.266 28.266 28.266 28.266 28.266 28.266 28.266 28.266 28.266 28.266 28.266 28.266 28.266 28.266 28.266 28.266 28.266 28.266 28.266 32.266 28.266 28.266 28.266 238.266 28.266 28.266 28.266 30.266 28.266 28.266 28.266 28.266 28.266 28.266 28.266 28.266 28.266 28.266 28.266 28.266 28.266 28.266 28.266 28.266 28.266 28.266 28.266 28.266 28.266 28.266 28.266 28.266 28.266 28.266 28.266 28.266 28.266 28.266 28.266 28.266 28.266 33.266 28.266 28.266 28.266 28.266 28.266 28.266 28.266 28.266 28.266 28.266 28.266 28.266 28.266 28.266 28.266 28.266 28.266 28.266 28.266 226.266 385.266 234.266 28.266 29.266 31.266 28.266 28.266 28.266 28.266 28.266 28.266 28.266 28.266 30.266 28.266 28.266 28.266 28.266 28.266 28.266 34.266 28.266 53.266 28.266 73.266 28.266 28.266 28.266 28.266 28.266 28.266 28.266 28.266 28.266 28.266 28.266 28.266 28.266 28.266 28.266 28.266 28.266 28.266 28.266 40.266 28.266 28.266 28.266 28.266 28.266 28.266 28.266 28.266 28.266 28.266 28.266 28.266 28.266 28.266 28.266 28.266 28.266 28.266 28.266 28.266 116.266 28.266 28.266 28.266 28.266 28.266 28.266 28.266 28.266 28.266 28.266 28.266 28.266 28.266 28.266 117.266 28.266 28.266 28.266 28.266 28.266 77.266 28.266 28.266 28.266 28.266 28.266 28.266 28.266 28.266 28.266 28.266 28.266 28.266 28.266 28.266 28.266 28.266 28.266 28.266 28.266 28.266 28.266 36.266 28.266 28.266 64.266 28.266 28.266 28.266 28.266 28.266 28.266 28.266 28.266 28.266 28.266 28.266 28.266 28.266 28.266 73.266 28.266 28.266 318.266 28.266 28.266 28.266 28.266 28.266 28.266 28.266 244.266 28.266 28.266 28.266 28.266 28.266 28.266 28.266 28.266 28.266 28.266 28.266 33.266 37.266 28.266 28.266 28.266 28.266 28.266 28.266 28.266 28.266 28.266 28.266 28.266 28.266 28.266 28.266 28.266 28.266 28.266 28.266 28.266 28.266 28.266 28.266 28.266 28.266 28.266 28.266 28.266 28.266 28.266 28.266 28.266 28.266 28.266 28.266 28.266 28.266 28.266 28.266 28.266 28.266 28.266 28.266 28.266 28.266 28.266 28.266 28.266 28.266 28.266 28.266 28.266 28.266 28.266 28.266 28.266 28.266 28.266 28.266 48.266 28.266 28.266 28.266 28.266 28.266 28.266 28.266 28.266 28.266 28.266 28.266 28.266 28.266 28.266 28.266 28.266 28.266 28.266 28.266 28.266 51.266 28.266 28.266 28.266 32.266 28.266 28.266 28.266 28.266 28.266 28.266 28.266 28.266 28.266 28.266 28.266 28.266 28.266 28.266 28.266 28.266 28.266 28.266 28.266 28.266 28.266 28.266 28.266 28.266 28.266 28.266 28.266 28.266 28.266 28.266 28.266 28.266 28.266 28.266 28.266 28.266 28.266 28.266 28.266 28.266 28.266 28.266 28.266 166.266 28.266 28.266 28.266 28.266 28.266 28.266 28.266 28.266 28.266 28.266 28.266 28.266 28.266 28.266 28.266 28.266 28.266 28.266 28.266 28.266 28.266 28.266 28.266 28.266 28.266 28.266 28.266 28.266 28.266 28.266 28.266 28.266 28.266 28.266 28.266 28.266 28.266 28.266 28.266 28.266 28.266 28.266 29.266 29.266 28.266 28.266 28.266 28.266 28.266 28.266 28.266 28.266 28.266 28.266 28.266 28.266 28.266 28.266 52.266 28.266 28.266 28.266 28.266 28.266 32.266 73.266 138.266 28.266 28.266 32.266 28.266 28.266 28.266 28.266 28.266 28.266 28.266 28.266 44.266 28.266 28.266 152.266 28.266 28.266 28.266 359.266 28.266 28.266 28.266 28.266 28.266 28.266 28.266 28.266 28.266 28.266 28.266 28.266 28.266 28.266 28.266 28.266 28.266 28.266 28.266 28.266 28.266 28.266 28.266 28.266 28.266 28.266 28.266 28.266 28.266 28.266 28.266 28.266 28.266 28.266 28.266 28.266 56.266 28.266 31.266 28.266 116.266 36.266 163.266 28.266 36.266 28.266 28.266 28.266 28.266 28.266 28.266 28.266 28.266 28.266 28.266 28.266 28.266 28.266 28.266 28.266 28.266 28.266 28.266 28.266 28.266 28.266 28.266 28.266 28.266 28.266 28.266 28.266 28.266 28.266 28.266 28.266 28.266 28.266 28.266 28.266 28.266 28.266 28.266 112.266 28.266 31.266 28.266 28.266 28.266 28.266 28.266 28.266 28.266 28.266 28.266 28.266 28.266 28.266 28.266 28.266 28.266 28.266 28.266 28.266 28.266 64.266 28.266 28.266 98.266 28.266 28.266 28.266 28.266 28.266 28.266 28.266 28.266 28.266 28.266 28.266 28.266 28.266 28.266 28.266 28.266 28.266 28.266 28.266 28.266 28.266 28.266 28.266 28.266 28.266 28.266 28.266 28.266 28.266 28.266 48.266 54.266 28.266 28.266 28.266 28.266 28.266 28.266 28.266 28.266 28.266 28.266 60.266 76.266 28.266 28.266 28.266 28.266 28.266 28.266 28.266 28.266 28.266 28.266 28.266 28.266 28.266 28.266 28.266 28.266 34.266 28.266 28.266 28.266 28.266 28.266 28.266 28.266 28.266 28.266 40.266 28.266 28.266 28.266 28.266 118.266 28.266 74.266 28.266 28.266 28.266 132.266 28.266 28.266 28.266 28.266 32.266 28.266 30.266 28.266 28.266 28.266 28.266 28.266 28.266 28.266 28.266 28.266 28.266 28.266 28.266 28.266 28.266 28.266 28.266 28.266 32.266 96.266 87.266 28.266 28.266 28.266 28.266 28.266 28.266 28.266 28.266 28.266 28.266 28.266 28.266 28.266 28.266 28.266 28.266 28.266 28.266 28.266 28.266 28.266 28.266 28.266 28.266 28.266 28.266 28.266 28.266 28.266 28.266 28.266 450.266 117.266 28.266 28.266 28.266 28.266 28.266 28.266 28.266 28.266 410.266 30.266 28.266 28.266 28.266 28.266 43.266 28.266 28.266 28.266 28.266 28.266 28.266 28.266 28.266 28.266 28.266 28.266 28.266 28.266 28.266 28.266 28.266 28.266 28.266 28.266 28.266 28.266 28.266 28.266 28.266 246.266 28.266 218.266 28.266 28.266 28.266 28.266 28.266 28.266 28.266 28.266 38.266 46.266 28.266 28.266 28.266 28.266 28.266 28.266 28.266 28.266 28.266 28.266 28.266 28.266 28.266 28.266 28.266 28.266 28.266 28.266 28.266 28.266 592.266 33.266 28.266 38.266 80.266 28.266 28.266 28.266 28.266 32.266 
rewards of Offsets elements: 898 0 0 0 1185 2 0 0 0 0 0 100 0 0 0 0 0 0 0 0 105 0 0 0 0 0 0 0 0 0 559 0 0 127 0 0 16 0 0 1038 82 47 0 0 0 0 0 10 0 0 0 0 0 0 0 0 0 0 0 0 0 8 0 0 0 0 0 0 0 0 0 0 0 0 0 0 0 19 0 0 0 0 0 45 0 0 0 0 0 0 0 0 566 0 736 0 0 0 0 288 0 0 0 0 0 0 0 0 0 0 0 6 230 0 1003 9 0 0 649 174 186 156 0 0 0 0 0 0 0 0 0 0 0 0 0 0 0 0 1759 760 0 0 0 0 0 0 0 0 0 0 2 0 0 7 0 0 0 33 104 372 0 38 57 0 0 0 0 0 0 0 87 0 0 0 0 0 0 0 0 0 0 0 0 0 0 0 0 0 0 0 0 0 0 0 0 0 0 0 164 0 180 0 0 334 136 0 220 589 5 35 60 748 50 75 20 0 0 0 0 730 1285 0 0 0 0 0 0 0 0 0 0 0 0 0 0 0 0 0 0 0 0 0 0 0 0 0 8 27 0 0 10 0 0 0 0 0 1 0 0 0 0 0 0 0 22 0 0 0 156 0 0 0 0 0 0 0 0 0 0 0 12 0 0 0 0 0 638 31 0 84 0 0 0 0 0 0 0 0 0 0 0 0 0 0 0 0 0 0 0 0 0 0 0 0 0 0 0 0 2 0 0 0 0 0 0 0 793 0 0 0 0 2 6 0 0 0 0 2 0 0 0 0 0 0 166 113 0 0 0 0 0 0 0 0 245 0 0 0 0 0 0 0 0 0 0 0 0 0 0 0 61 20 49 0 0 0 0 0 0 0 16 88 0 0 0 0 0 0 0 0 0 0 0 0 0 0 0 135 0 66 468 0 0 0 0 0 0 0 0 0 0 0 0 0 0 0 0 62 34 5 0 5 0 0 67 0 0 0 0 0 0 0 0 0 0 0 0 42 0 0 0 0 0 0 0 0 0 0 0 0 0 0 0 0 0 0 0 0 0 0 164 0 0 0 20 0 36 38 0 0 0 0 0 0 0 0 0 0 0 0 0 0 0 0 0 0 0 0 0 0 0 0 0 0 0 0 0 765 0 0 0 0 0 123 27 0 0 18 0 0 46 0 0 0 0 0 0 0 0 0 0 0 0 0 0 0 0 0 0 0 43 0 0 0 0 0 0 4 0 0 0 0 0 0 0 0 2 6 0 0 0 0 0 0 0 0 0 0 6 10 0 2 0 0 0 0 0 2 236 0 0 0 82 0 0 0 0 0 0 0 0 0 0 0 0 20 0 0 8 28 35 6 0 0 0 0 0 0 0 0 0 0 0 0 0 0 41 0 0 0 2 0 0 0 0 387 0 0 0 0 0 0 0 0 0 0 0 0 0 0 0 0 0 0 0 0 0 0 0 0 0 0 0 0 0 0 0 0 0 0 0 0 371 221 19 16 0 11 0 0 0 0 240 0 0 0 0 0 0 0 0 0 0 0 0 0 0 0 0 0 0 0 117 61 0 0 0 0 0 0 0 0 0 0 0 0 0 32 32 58 0 0 0 0 0 0 0 0 0 0 0 0 0 0 0 0 0 0 29 18 28 8 0 0 10 0 0 0 0 0 0 0 0 265 0 0 0 0 0 0 2 0 0 0 0 1 121 0 0 0 0 0 0 0 0 0 0 0 0 0 0 6 0 2 0 0 0 0 36 0 0 0 0 0 0 0 0 0 0 4 0 7 6 0 14 0 0 0 0 69 0 0 0 0 0 0 0 0 0 0 0 0 0 0 0 0 0 0 0 0 0 0 0 271 0 0 0 0 0 21 0 0 123 0 0 135 5 343 242 0 0 0 0 0 0 0 0 0 0 54 0 0 0 0 0 0 144 36 208 52 0 0 0 0 0 0 0 0 0 0 0 0 0 0 0 0 0 35 6 0 0 0 0 0 0 0 0 0 0 0 0 0 0 0 0 0 0 0 0 168 0 0 0 0 0 0 0 0 0 0 0 0 0 0 0 0 0 0 0 0 0 60 0 0 0 0 0 0 0 0 0 0 0 0 0 0 0 0 0 0 0 0 2 9 0 0 0 0 0 0 0 0 0 0 0 0 0 0 0 0 0 0 0 0 0 15 0 0 0 0 0 0 0 0 0 0 0 0 0 0 0 0 0 0 0 0 0 0 0 90 0 0 0 0 0 0 0 0 0 158 0 0 425 0 0 0 0 0 0 0 0 0 0 0 0 0 0 0 0 0 0 0 0 0 0 0 0 0 0 0 0 0 0 0 0 0 0 0 0 0 0 0 0 0 0 0 0 0 0 0 0 0 0 0 0 0 0 0 0 0 0 0 0 0 0 0 0 0 0 0 0 0 0 0 0 0 0 0 0 0 0 0 0 0 0 0 0 0 0 0 104 113 5 0 0 0 0 0 0 0 0 0 0 0 0 0 0 0 0 0 0 0 0 0 96 0 0 0 0 0 0 0 0 0 0 0 0 399 0 0 0 0 0 0 68 0 7 4 0 0 0 0 0 92 0 0 0 0 0 0 0 0 0 0 76 31 0 0 0 0 62 0 0 216 0 0 0 0 0 0 0 0 0 0 0 0 182 48 0 4 164 0 0 0 0 0 0 0 0 0 0 0 0 0 0 0 0 0 0 0 0 0 0 0 0 0 0 0 0 0 0 0 0 0 0 0 0 0 0 0 4 0 0 0 210 0 0 0 2 0 0 0 0 0 0 0 0 0 0 0 0 0 0 0 0 0 0 0 0 0 0 0 0 0 0 0 0 0 0 0 0 0 5 0 0 0 0 0 0 0 0 0 0 0 0 0 0 0 0 0 0 0 198 357 206 0 1 3 0 0 0 0 0 0 0 0 2 0 0 0 0 0 0 6 0 25 0 45 0 0 0 0 0 0 0 0 0 0 0 0 0 0 0 0 0 0 0 12 0 0 0 0 0 0 0 0 0 0 0 0 0 0 0 0 0 0 0 0 88 0 0 0 0 0 0 0 0 0 0 0 0 0 0 89 0 0 0 0 0 49 0 0 0 0 0 0 0 0 0 0 0 0 0 0 0 0 0 0 0 0 0 8 0 0 36 0 0 0 0 0 0 0 0 0 0 0 0 0 0 45 0 0 290 0 0 0 0 0 0 0 216 0 0 0 0 0 0 0 0 0 0 0 5 9 0 0 0 0 0 0 0 0 0 0 0 0 0 0 0 0 0 0 0 0 0 0 0 0 0 0 0 0 0 0 0 0 0 0 0 0 0 0 0 0 0 0 0 0 0 0 0 0 0 0 0 0 0 0 0 0 0 0 20 0 0 0 0 0 0 0 0 0 0 0 0 0 0 0 0 0 0 0 0 23 0 0 0 4 0 0 0 0 0 0 0 0 0 0 0 0 0 0 0 0 0 0 0 0 0 0 0 0 0 0 0 0 0 0 0 0 0 0 0 0 0 0 0 0 0 0 0 138 0 0 0 0 0 0 0 0 0 0 0 0 0 0 0 0 0 0 0 0 0 0 0 0 0 0 0 0 0 0 0 0 0 0 0 0 0 0 0 0 0 0 1 1 0 0 0 0 0 0 0 0 0 0 0 0 0 0 24 0 0 0 0 0 4 45 110 0 0 4 0 0 0 0 0 0 0 0 16 0 0 124 0 0 0 331 0 0 0 0 0 0 0 0 0 0 0 0 0 0 0 0 0 0 0 0 0 0 0 0 0 0 0 0 0 0 0 0 0 0 0 0 28 0 3 0 88 8 135 0 8 0 0 0 0 0 0 0 0 0 0 0 0 0 0 0 0 0 0 0 0 0 0 0 0 0 0 0 0 0 0 0 0 0 0 0 0 0 0 84 0 3 0 0 0 0 0 0 0 0 0 0 0 0 0 0 0 0 0 0 0 36 0 0 70 0 0 0 0 0 0 0 0 0 0 0 0 0 0 0 0 0 0 0 0 0 0 0 0 0 0 0 0 0 0 20 26 0 0 0 0 0 0 0 0 0 0 32 48 0 0 0 0 0 0 0 0 0 0 0 0 0 0 0 0 6 0 0 0 0 0 0 0 0 0 12 0 0 0 0 90 0 46 0 0 0 104 0 0 0 0 4 0 2 0 0 0 0 0 0 0 0 0 0 0 0 0 0 0 0 0 4 68 59 0 0 0 0 0 0 0 0 0 0 0 0 0 0 0 0 0 0 0 0 0 0 0 0 0 0 0 0 0 0 0 422 89 0 0 0 0 0 0 0 0 382 2 0 0 0 0 15 0 0 0 0 0 0 0 0 0 0 0 0 0 0 0 0 0 0 0 0 0 0 0 0 218 0 190 0 0 0 0 0 0 0 0 10 18 0 0 0 0 0 0 0 0 0 0 0 0 0 0 0 0 0 0 0 0 564 5 0 10 52 0 0 0 0 4 Printing Sanity3
offset_index value1971
offset list size1971
reward size1971
potential size1971
-----------------------------------------------------------------------------------------------------------------------------------------------------------------------------------------------------

DRAM Statistics
 CHANNEL 0
 RQ ROW_BUFFER_HIT:      53816  ROW_BUFFER_MISS:     104332
 DBUS_CONGESTED:        331
 WQ ROW_BUFFER_HIT:       2363  ROW_BUFFER_MISS:      12399  FULL:          0

 AVG_CONGESTED_CYCLE: 4
 All warmup complete: 2
Channel 0 Bank busy for read cycles: 0
Channel 0 Bank busy for write cycles: 0
Channel 0
Rank 0
0banks busy for read cycles: 645458842
0banks busy for write cycles: 8954
1banks busy for read cycles: 8175958
1banks busy for write cycles: 1552514
2banks busy for read cycles: 1700392
2banks busy for write cycles: 328449
3banks busy for read cycles: 551369
3banks busy for write cycles: 112249
4banks busy for read cycles: 201821
4banks busy for write cycles: 44824
5banks busy for read cycles: 159420
5banks busy for write cycles: 21074
6banks busy for read cycles: 145149
6banks busy for write cycles: 8524
7banks busy for read cycles: 152478
7banks busy for write cycles: 5355
8banks busy for read cycles: 197451
8banks busy for write cycles: 36192

CPU 0 Branch Prediction Accuracy: 99.7832% MPKI: 0.392085 Average ROB Occupancy at Mispredict: 44.9899
Branch types
NOT_BRANCH: 163831453 81.9157%
BRANCH_DIRECT_JUMP: 2018954 1.00948%
BRANCH_INDIRECT: 11947792 5.9739%
BRANCH_CONDITIONAL: 13177116 6.58856%
BRANCH_DIRECT_CALL: 3801012 1.90051%
BRANCH_INDIRECT_CALL: 711313 0.355656%
BRANCH_RETURN: 4512338 2.25617%
BRANCH_OTHER: 0 0%

DRAM PAGES: 1048576
Allocated PAGES: 6134
