
*** ChampSim Multicore Out-of-Order Simulator ***

Warmup Instructions: 50000000
Simulation Instructions: 200000000
Number of CPUs: 1
LLC sets: 2048
LLC ways: 16
Off-chip DRAM Size: 4096 MB Channels: 1 Width: 64-bit Data Rate: 6400 MT/s
CPU 0 runs traces/spec2k17/server_002.champsimtrace.xz
.xz
BTB has LRU replacement policy
ITLB has LRU replacement policy
DTLB has LRU replacement policy
STLB has LRU replacement policy
L1I has LRU replacement policy
L1D has LRU replacement policy
Initialize SRRIP state for L2C
Initialize DRRIP state for LLC
Heartbeat CPU 0 instructions: 10000000 cycles: 2661985 heartbeat IPC: 3.7566 cumulative IPC: 3.7566 (Simulation time: 0 hr 0 min 41 sec) 
Heartbeat CPU 0 instructions: 20000002 cycles: 5357865 heartbeat IPC: 3.70936 cumulative IPC: 3.73283 (Simulation time: 0 hr 1 min 20 sec) 
Heartbeat CPU 0 instructions: 30000002 cycles: 8019018 heartbeat IPC: 3.75777 cumulative IPC: 3.74111 (Simulation time: 0 hr 2 min 0 sec) 
Heartbeat CPU 0 instructions: 40000002 cycles: 10681090 heartbeat IPC: 3.75647 cumulative IPC: 3.74494 (Simulation time: 0 hr 2 min 41 sec) 
Heartbeat CPU 0 instructions: 50000002 cycles: 13342555 heartbeat IPC: 3.75733 cumulative IPC: 3.74741 (Simulation time: 0 hr 3 min 20 sec) 

Warmup complete CPU 0 instructions: 50000002 cycles: 13342555 (Simulation time: 0 hr 3 min 20 sec) 

Offsets elements: 
Potential of Offsets elements: 
rewards of Offsets elements: 
Printing Sanity1
offset list size868
Offsets elements: 
Potential of Offsets elements: 
rewards of Offsets elements: 1362 904 257 887 177 42 2 36 70 157 303 1399 115 528 90 250 375 69 25 0 135 189 0 96 241 53 797 1236 56 105 63 705 60 66 84 165 92 47 0 69 158 0 6 33 76 154 31 0 0 2 0 5 1 0 0 0 19 36 4 215 22 0 15 41 10 21 275 2 6 0 93 20 14 45 32 102 54 30 87 65 0 130 55 0 0 0 0 63 0 711 33 0 0 10 0 10 87 82 3 924 230 54 15 15 2 8 10 34 0 6 43 5 1 112 10 23 0 3 17 34 13 27 16 5 2 199 33 564 69 0 0 84 29 0 1 3 4 14 0 0 2 6 21 109 30 32 109 51 0 0 263 16 8 42 0 19 26 9 0 39 135 379 172 125 0 94 129 2 50 0 25 96 69 8 51 9 1 6 9 12 32 12 5 23 166 1 8 2 194 0 4 4 3 105 2 2 196 309 143 21 150 83 236 43 51 14 167 60 30 53 23 32 28 88 0 4 13 42 0 343 46 54 270 138 133 404 174 115 56 19 30 5 23 434 98 222 121 74 50 0 206 71 113 0 8 8 90 65 9 3 8 19 84 41 481 0 80 164 3 20 126 4 9 2 0 133 31 6 29 58 5 4 4 8 3 7 3 18 67 11 8 32 0 10 14 1 0 0 40 0 6 93 6 14 12 77 0 17 39 10 5 0 30 179 2 43 10 0 4 136 28 0 101 21 0 0 23 0 33 299 0 86 178 12 28 2 21 32 20 30 1 2 0 1 100 128 143 33 15 0 2 30 6 18 286 10 7 132 3 410 30 3 0 4 3 0 30 8 0 0 238 164 0 12 16 88 96 38 37 32 3 43 281 68 163 56 10 0 381 28 0 126 176 7 74 48 197 8 104 0 80 81 315 30 157 0 85 125 0 88 154 84 28 120 6 25 135 57 91 132 11 6 53 34 51 27 9 0 0 3 0 1 2 0 24 69 0 1 136 50 20 6 1 1 0 59 210 134 147 77 9 154 141 0 141 0 0 8 32 0 32 0 0 0 0 0 0 14 121 20 59 102 0 10 15 16 6 1 0 43 0 0 24 24 36 17 47 18 0 16 16 0 93 2 0 33 74 0 1 0 0 9 1 17 77 52 6 0 22 14 11 42 10 22 92 23 4 20 18 0 81 0 8 177 53 27 262 43 8 0 40 12 12 61 6 0 12 47 2 6 0 2 495 145 281 67 24 0 5 0 0 6 5 15 20 224 7 0 67 56 13 28 0 0 143 87 200 92 68 0 106 138 0 79 5 49 17 9 9 267 478 16 0 257 121 24 35 2 2 63 64 8 27 11 1 25 97 2 116 55 2 0 6 2 27 34 22 24 37 2 18 56 0 4 19 0 3 42 14 0 13 2 0 0 4 0 55 72 6 2 5 0 5 27 6 73 8 0 84 36 26 0 217 0 0 227 56 18 28 45 10 78 3 4 0 382 12 0 173 15 2 39 212 12 212 42 229 44 28 0 1 65 0 39 22 0 43 272 0 27 16 68 32 305 0 37 301 6 25 118 27 45 0 5 3 0 6 0 0 6 21 34 1 0 18 42 128 16 3 20 7 0 12 0 0 0 0 0 6 0 2 27 10 0 4 61 0 3 0 36 0 24 0 0 141 21 0 27 119 0 30 22 0 2 0 0 0 22 0 45 155 0 6 256 35 36 118 1 39 102 11 24 46 2 0 68 18 0 4 37 0 0 10 0 3 38 5 14 18 32 5 44 33 5 53 189 11 65 9 3 21 0 117 39 8 12 11 202 67 0 0 2 0 0 2 6 9 33 31 0 15 128 137 15 199 42 44 5 0 1 0 24 9 16 4 0 8 0 237 8 0 14 3 0 80 28 0 85 59 0 63 105 0 35 30 0 0 0 0 0 0 24 36 0 175 0 42 4 104 0 109 43 0 0 2 60 21 345 4 6 8 5 0 143 111 10 17 1 
Printing Sanity2
Heartbeat CPU 0 instructions: 60000002 cycles: 28335099 heartbeat IPC: 0.666998 cumulative IPC: 0.666998 (Simulation time: 0 hr 4 min 15 sec) 
Heartbeat CPU 0 instructions: 70000001 cycles: 43238854 heartbeat IPC: 0.670972 cumulative IPC: 0.668979 (Simulation time: 0 hr 5 min 11 sec) 
Heartbeat CPU 0 instructions: 80000002 cycles: 58160281 heartbeat IPC: 0.670177 cumulative IPC: 0.669378 (Simulation time: 0 hr 6 min 8 sec) 
Heartbeat CPU 0 instructions: 90000001 cycles: 73095501 heartbeat IPC: 0.669558 cumulative IPC: 0.669423 (Simulation time: 0 hr 7 min 4 sec) 
Heartbeat CPU 0 instructions: 100000002 cycles: 88040552 heartbeat IPC: 0.669118 cumulative IPC: 0.669362 (Simulation time: 0 hr 8 min 1 sec) 
Heartbeat CPU 0 instructions: 110000000 cycles: 102975383 heartbeat IPC: 0.669576 cumulative IPC: 0.669398 (Simulation time: 0 hr 8 min 57 sec) 
Heartbeat CPU 0 instructions: 120000000 cycles: 117929458 heartbeat IPC: 0.668714 cumulative IPC: 0.6693 (Simulation time: 0 hr 9 min 53 sec) 
*** Reached end of trace for Core: 0 Repeating trace: traces/spec2k17/server_002.champsimtrace.xz
Heartbeat CPU 0 instructions: 130000003 cycles: 132746289 heartbeat IPC: 0.674908 cumulative IPC: 0.669996 (Simulation time: 0 hr 10 min 51 sec) 
Heartbeat CPU 0 instructions: 140000002 cycles: 149223612 heartbeat IPC: 0.606895 cumulative IPC: 0.662344 (Simulation time: 0 hr 11 min 51 sec) 
Heartbeat CPU 0 instructions: 150000000 cycles: 164145409 heartbeat IPC: 0.67016 cumulative IPC: 0.663117 (Simulation time: 0 hr 12 min 50 sec) 
Heartbeat CPU 0 instructions: 160000000 cycles: 179365088 heartbeat IPC: 0.657044 cumulative IPC: 0.662561 (Simulation time: 0 hr 13 min 48 sec) 
Heartbeat CPU 0 instructions: 170000003 cycles: 194320986 heartbeat IPC: 0.668633 cumulative IPC: 0.663062 (Simulation time: 0 hr 14 min 45 sec) 
Heartbeat CPU 0 instructions: 180000001 cycles: 209261693 heartbeat IPC: 0.669312 cumulative IPC: 0.663539 (Simulation time: 0 hr 15 min 39 sec) 
Heartbeat CPU 0 instructions: 190000001 cycles: 224191585 heartbeat IPC: 0.669797 cumulative IPC: 0.663982 (Simulation time: 0 hr 16 min 36 sec) 
Heartbeat CPU 0 instructions: 200000001 cycles: 239106812 heartbeat IPC: 0.670456 cumulative IPC: 0.66441 (Simulation time: 0 hr 17 min 33 sec) 
Heartbeat CPU 0 instructions: 210000003 cycles: 254026749 heartbeat IPC: 0.670244 cumulative IPC: 0.664772 (Simulation time: 0 hr 18 min 30 sec) 
Heartbeat CPU 0 instructions: 220000000 cycles: 268982279 heartbeat IPC: 0.668649 cumulative IPC: 0.664998 (Simulation time: 0 hr 19 min 27 sec) 
Heartbeat CPU 0 instructions: 230000000 cycles: 283926340 heartbeat IPC: 0.669162 cumulative IPC: 0.665228 (Simulation time: 0 hr 20 min 22 sec) 
Heartbeat CPU 0 instructions: 240000002 cycles: 298872094 heartbeat IPC: 0.669086 cumulative IPC: 0.66543 (Simulation time: 0 hr 21 min 18 sec) 
*** Reached end of trace for Core: 0 Repeating trace: traces/spec2k17/server_002.champsimtrace.xz
Heartbeat CPU 0 instructions: 250000000 cycles: 313867426 heartbeat IPC: 0.666874 cumulative IPC: 0.665502 (Simulation time: 0 hr 22 min 14 sec) 
Finished CPU 0 instructions: 200000002 cycles: 300524873 cumulative IPC: 0.665502 (Simulation time: 0 hr 22 min 14 sec) 

ChampSim completed all CPUs

Region of Interest Statistics

CPU 0 cumulative IPC: 0.665502 instructions: 200000002 cycles: 300524873
ITLB TOTAL     ACCESS:   34083209  HIT:   33094410  MISS:     988799  HIT %:    97.0989  MISS %:    2.90113   MPKI: 4.94399
ITLB LOAD TRANSLATION ACCESS:   34083209  HIT:   33094410  MISS:     988799  HIT %:    97.0989  MISS %:    2.90113   MPKI: 4.94399
ITLB PREFETCH  REQUESTED:          0  ISSUED:          0  USEFUL:          0  USELESS:          0
ITLB USEFUL LOAD PREFETCHES:          0 PREFETCH ISSUED TO LOWER LEVEL:          0  ACCURACY: -nan
ITLB TIMELY PREFETCHES:          0 LATE PREFETCHES: 0 DROPPED PREFETCHES: 0
ITLB PREFETCHES SAME FILL-ORIGIN LEVEL: 0 DIFFERENT FILL-ORIGIN LEVEL: 0
ITLB AVERAGE MISS LATENCY: 9.02859 cycles
ITLB RQ	ACCESS:   38889728	FORWARD:          0	MERGED:    4660559	TO_CACHE:   34229169

DTLB TOTAL     ACCESS:   39026998  HIT:   38108099  MISS:     918899  HIT %:    97.6455  MISS %:    2.35452   MPKI: 4.59449
DTLB LOAD TRANSLATION ACCESS:   39026998  HIT:   38108099  MISS:     918899  HIT %:    97.6455  MISS %:    2.35452   MPKI: 4.59449
DTLB PREFETCH  REQUESTED:          0  ISSUED:          0  USEFUL:          0  USELESS:          0
DTLB USEFUL LOAD PREFETCHES:          0 PREFETCH ISSUED TO LOWER LEVEL:          0  ACCURACY: -nan
DTLB TIMELY PREFETCHES:          0 LATE PREFETCHES: 0 DROPPED PREFETCHES: 0
DTLB PREFETCHES SAME FILL-ORIGIN LEVEL: 0 DIFFERENT FILL-ORIGIN LEVEL: 0
DTLB AVERAGE MISS LATENCY: 9.1034 cycles
DTLB RQ	ACCESS:   57613486	FORWARD:          0	MERGED:   18500747	TO_CACHE:   39112739

STLB TOTAL     ACCESS:   10553904  HIT:   10552510  MISS:       1394  HIT %:    99.9868  MISS %:  0.0132084   MPKI: 0.00697
STLB LOAD TRANSLATION ACCESS:    1907698  HIT:    1906315  MISS:       1383  HIT %:    99.9275  MISS %:  0.0724958   MPKI: 0.006915
STLB TRANSLATION FROM L1D PREFETCHER ACCESS:    8646206  HIT:    8646195  MISS:         11  HIT %:    99.9999  MISS %: 0.000127223   MPKI: 5.5e-05
STLB PREFETCH  REQUESTED:          0  ISSUED:          0  USEFUL:         10  USELESS:          0
STLB USEFUL LOAD PREFETCHES:         10 PREFETCH ISSUED TO LOWER LEVEL:          0  ACCURACY: inf
STLB TIMELY PREFETCHES:         10 LATE PREFETCHES: 1 DROPPED PREFETCHES: 47518
STLB PREFETCHES SAME FILL-ORIGIN LEVEL: 0 DIFFERENT FILL-ORIGIN LEVEL: 0
STLB AVERAGE MISS LATENCY: 129.661 cycles
STLB RQ	ACCESS:   12429705	FORWARD:          0	MERGED:    1828277	TO_CACHE:   10601428

STLB Hit, L1D data hit: 0
STLB Hit, L2C data hit: 0
STLB Hit, LLC data hit: 0
STLB Hit, LLC data miss: 0
STLB STLB hints to L2: 0
L1D TOTAL     ACCESS:   68006569  HIT:   67930624  MISS:      75945  HIT %:    99.8883  MISS %:   0.111673   MPKI: 0.379725
L1D LOAD      ACCESS:   25974185  HIT:   25940198  MISS:      33987  HIT %:    99.8692  MISS %:   0.130849   MPKI: 0.169935
L1D RFO       ACCESS:   31576475  HIT:   31541536  MISS:      34939  HIT %:    99.8894  MISS %:   0.110649   MPKI: 0.174695
L1D PREFETCH  ACCESS:   10455909  HIT:   10448890  MISS:       7019  HIT %:    99.9329  MISS %:  0.0671295   MPKI: 0.035095
AGUS PREFETCH L1 MISS: 0
L1D PREFETCH  REQUESTED:   21744943  ISSUED:   21744943  USEFUL:       1441  USELESS:       5421
L1D USEFUL LOAD PREFETCHES:       1441 PREFETCH ISSUED TO LOWER LEVEL:       7739  ACCURACY: 18.62
L1D TIMELY PREFETCHES:       1441 LATE PREFETCHES: 707 DROPPED PREFETCHES: 47518
L1D PREFETCHES SAME FILL-ORIGIN LEVEL: 7739 DIFFERENT FILL-ORIGIN LEVEL: 0
L1D AVERAGE MISS LATENCY: 1.90781e+06 cycles
L1D RQ	ACCESS:   44305050	FORWARD:          0	MERGED:   17906546	TO_CACHE:   25976968
L1D WQ	ACCESS:   31931576	FORWARD:     425610	MERGED:     295058	TO_CACHE:   31636518
L1D PQ	ACCESS:   11222936	FORWARD:          0	MERGED:     696855	TO_CACHE:   10522007

L1D UNIQUE REGIONS ACCESSED: 0
L1D REGIONS CONFLICTS: 0
L1D Cross Page Prefetch Requests: 204865
L1D Same Page Prefetch Requests: 11018071
L1D ROI Sum of L1D PQ occupancy: 134742102
L1D PREFETCHES PUSHED FROM L2C: 0
L1I TOTAL     ACCESS:   37964937  HIT:   35021723  MISS:    2943214  HIT %:    92.2475  MISS %:    7.75245   MPKI: 14.7161
L1I LOAD      ACCESS:   37964937  HIT:   35021723  MISS:    2943214  HIT %:    92.2475  MISS %:    7.75245   MPKI: 14.7161
L1I PREFETCH  REQUESTED:          0  ISSUED:          0  USEFUL:          0  USELESS:          0
L1I USEFUL LOAD PREFETCHES:          0 PREFETCH ISSUED TO LOWER LEVEL:          0  ACCURACY: -nan
L1I TIMELY PREFETCHES:          0 LATE PREFETCHES: 0 DROPPED PREFETCHES: 0
L1I PREFETCHES SAME FILL-ORIGIN LEVEL: 0 DIFFERENT FILL-ORIGIN LEVEL: 0
L1I AVERAGE MISS LATENCY: 14.4259 cycles
L1I RQ	ACCESS:   58518523	FORWARD:          0	MERGED:   19628795	TO_CACHE:   38889728

BTB TOTAL     ACCESS:   27373725  HIT:   24469526  MISS:    2904199  HIT %:    89.3906  MISS %:    10.6094   MPKI: 14.521
BTB BRANCH_DIRECT_JUMP	ACCESS:    1709698  HIT:    1678160  MISS:      31538
BTB BRANCH_INDIRECT	ACCESS:   11565575  HIT:   10530298  MISS:    1035277
BTB BRANCH_CONDITIONAL	ACCESS:    4591094  HIT:    4588736  MISS:       2358
BTB BRANCH_DIRECT_CALL	ACCESS:    4331725  HIT:    4266076  MISS:      65649
BTB BRANCH_INDIRECT_CALL	ACCESS:     421962  HIT:     358275  MISS:      63687
BTB BRANCH_RETURN	ACCESS:    4753671  HIT:    3047981  MISS:    1705690
BTB BRANCH_OTHER ACCESS:          0  HIT:          0  MISS:          0

L2C TOTAL     ACCESS:    3112288  HIT:    3032642  MISS:      79646  HIT %:    97.4409  MISS %:    2.55908   MPKI: 0.39823
L2C LOAD      ACCESS:    2976494  HIT:    2937349  MISS:      39145  HIT %:    98.6849  MISS %:    1.31514   MPKI: 0.195725
L2C DATA LOAD MPKI: 0.13184
L2C INSTRUCTION LOAD MPKI: 0.063885
L2C RFO       ACCESS:      34926  HIT:       1589  MISS:      33337  HIT %:    4.54962  MISS %:    95.4504   MPKI: 0.166685
L2C PREFETCH  ACCESS:       7739  HIT:       2282  MISS:       5457  HIT %:     29.487  MISS %:     70.513   MPKI: 0.027285
AGUS PREFETCH L1 MISS: 0
L2C DATA PREFETCH MPKI: 0.027285
L2C INSTRUCTION PREFETCH MPKI: 0
L2C WRITEBACK ACCESS:      42542  HIT:      41676  MISS:        866  HIT %:    97.9644  MISS %:    2.03564   MPKI: 0.00433
L2C LOAD TRANSLATION ACCESS:       1571  HIT:        772  MISS:        799  HIT %:    49.1407  MISS %:    50.8593   MPKI: 0.003995
L2C TRANSLATION FROM L1D PREFETCHER ACCESS:      49016  HIT:      48974  MISS:         42  HIT %:    99.9143  MISS %:  0.0856863   MPKI: 0.00021
L2C PREFETCH  REQUESTED:          0  ISSUED:          0  USEFUL:        273  USELESS:       4277
L2C USEFUL LOAD PREFETCHES:        273 PREFETCH ISSUED TO LOWER LEVEL:       5457  ACCURACY: 5.00275
L2C TIMELY PREFETCHES:        273 LATE PREFETCHES: 0 DROPPED PREFETCHES: 0
L2C PREFETCHES SAME FILL-ORIGIN LEVEL: 0 DIFFERENT FILL-ORIGIN LEVEL: 0
L2C AVERAGE MISS LATENCY: 212.81 cycles
L2C RQ	ACCESS:    3062007	FORWARD:          0	MERGED:          0	TO_CACHE:    3062007
L2C WQ	ACCESS:      42542	FORWARD:          0	MERGED:          0	TO_CACHE:      42542
L2C PQ	ACCESS:       7739	FORWARD:          0	MERGED:          0	TO_CACHE:       7739

L2C Instructions Evicting Data 10867
L2C Translations Evicting Data 708
L2C Data Evicting Data 53418
L2C Instructions Evicting Instructions 1764
L2C Translations Evicting Instructions 125
L2C Data Evicting Instructions 10978
L2C Instructions Evicting Translations 146
L2C Translations Evicting Translations 8
L2C Data Evicting Translations 766
L2C Dense regions hint from L2: 0
PSCL5 TOTAL     ACCESS:      48912  HIT:      48912  MISS:          0  HIT %:        100  MISS %:          0   MPKI: 0
PSCL5 LOAD TRANSLATION ACCESS:       1382  HIT:       1382  MISS:          0  HIT %:        100  MISS %:          0   MPKI: 0
PSCL5 TRANSLATION FROM L1D PREFETCHER ACCESS:      47530  HIT:      47530  MISS:          0  HIT %:        100  MISS %:          0   MPKI: 0
PSCL5 PREFETCH  REQUESTED:          0  ISSUED:          0  USEFUL:          0  USELESS:          0
PSCL5 USEFUL LOAD PREFETCHES:          0 PREFETCH ISSUED TO LOWER LEVEL:          0  ACCURACY: -nan
PSCL5 TIMELY PREFETCHES:          0 LATE PREFETCHES: 0 DROPPED PREFETCHES: 0
PSCL5 PREFETCHES SAME FILL-ORIGIN LEVEL: 0 DIFFERENT FILL-ORIGIN LEVEL: 0

PSCL4 TOTAL     ACCESS:      47622  HIT:      47612  MISS:         10  HIT %:     99.979  MISS %:  0.0209987   MPKI: 5e-05
PSCL4 LOAD TRANSLATION ACCESS:        854  HIT:        844  MISS:         10  HIT %:     98.829  MISS %:    1.17096   MPKI: 5e-05
PSCL4 TRANSLATION FROM L1D PREFETCHER ACCESS:      46768  HIT:      46768  MISS:          0  HIT %:        100  MISS %:          0   MPKI: 0
PSCL4 PREFETCH  REQUESTED:          0  ISSUED:          0  USEFUL:          0  USELESS:          0
PSCL4 USEFUL LOAD PREFETCHES:          0 PREFETCH ISSUED TO LOWER LEVEL:          0  ACCURACY: -nan
PSCL4 TIMELY PREFETCHES:          0 LATE PREFETCHES: 0 DROPPED PREFETCHES: 0
PSCL4 PREFETCHES SAME FILL-ORIGIN LEVEL: 0 DIFFERENT FILL-ORIGIN LEVEL: 0

PSCL3 TOTAL     ACCESS:      48837  HIT:      48827  MISS:         10  HIT %:    99.9795  MISS %:  0.0204763   MPKI: 5e-05
PSCL3 LOAD TRANSLATION ACCESS:       1323  HIT:       1313  MISS:         10  HIT %:    99.2441  MISS %:   0.755858   MPKI: 5e-05
PSCL3 TRANSLATION FROM L1D PREFETCHER ACCESS:      47514  HIT:      47514  MISS:          0  HIT %:        100  MISS %:          0   MPKI: 0
PSCL3 PREFETCH  REQUESTED:          0  ISSUED:          0  USEFUL:          0  USELESS:          0
PSCL3 USEFUL LOAD PREFETCHES:          0 PREFETCH ISSUED TO LOWER LEVEL:          0  ACCURACY: -nan
PSCL3 TIMELY PREFETCHES:          0 LATE PREFETCHES: 0 DROPPED PREFETCHES: 0
PSCL3 PREFETCHES SAME FILL-ORIGIN LEVEL: 0 DIFFERENT FILL-ORIGIN LEVEL: 0

PSCL2 TOTAL     ACCESS:      47448  HIT:      47277  MISS:        171  HIT %:    99.6396  MISS %:   0.360395   MPKI: 0.000855
PSCL2 LOAD TRANSLATION ACCESS:       1384  HIT:       1213  MISS:        171  HIT %:    87.6445  MISS %:    12.3555   MPKI: 0.000855
PSCL2 TRANSLATION FROM L1D PREFETCHER ACCESS:      46064  HIT:      46064  MISS:          0  HIT %:        100  MISS %:          0   MPKI: 0
PSCL2 PREFETCH  REQUESTED:          0  ISSUED:          0  USEFUL:          0  USELESS:          0
PSCL2 USEFUL LOAD PREFETCHES:          0 PREFETCH ISSUED TO LOWER LEVEL:          0  ACCURACY: -nan
PSCL2 TIMELY PREFETCHES:          0 LATE PREFETCHES: 0 DROPPED PREFETCHES: 0
PSCL2 PREFETCHES SAME FILL-ORIGIN LEVEL: 0 DIFFERENT FILL-ORIGIN LEVEL: 0

LLC TOTAL     ACCESS:     117348  HIT:      62064  MISS:      55284  HIT %:    52.8888  MISS %:    47.1112   MPKI: 0.27642
LLC LOAD      ACCESS:      39145  HIT:      13457  MISS:      25688  HIT %:    34.3773  MISS %:    65.6227   MPKI: 0.12844
LLC RFO       ACCESS:      33337  HIT:       8978  MISS:      24359  HIT %:     26.931  MISS %:     73.069   MPKI: 0.121795
LLC PREFETCH  ACCESS:       5457  HIT:       1115  MISS:       4342  HIT %:    20.4325  MISS %:    79.5675   MPKI: 0.02171
AGUS PREFETCH L1 MISS: 0
LLC WRITEBACK ACCESS:      38568  HIT:      38223  MISS:        345  HIT %:    99.1055  MISS %:   0.894524   MPKI: 0.001725
LLC LOAD TRANSLATION ACCESS:        799  HIT:        278  MISS:        521  HIT %:    34.7935  MISS %:    65.2065   MPKI: 0.002605
LLC TRANSLATION FROM L1D PREFETCHER ACCESS:         42  HIT:         13  MISS:         29  HIT %:    30.9524  MISS %:    69.0476   MPKI: 0.000145
LLC PREFETCH  REQUESTED:          0  ISSUED:          0  USEFUL:         91  USELESS:       1953
LLC USEFUL LOAD PREFETCHES:         91 PREFETCH ISSUED TO LOWER LEVEL:       4342  ACCURACY: 2.09581
LLC TIMELY PREFETCHES:         91 LATE PREFETCHES: 0 DROPPED PREFETCHES: 0
LLC PREFETCHES SAME FILL-ORIGIN LEVEL: 0 DIFFERENT FILL-ORIGIN LEVEL: 0
LLC AVERAGE MISS LATENCY: 263.814 cycles
LLC RQ	ACCESS:      73323	FORWARD:          0	MERGED:          0	TO_CACHE:      73323
LLC WQ	ACCESS:      38568	FORWARD:          0	MERGED:          0	TO_CACHE:      38568
LLC PQ	ACCESS:       5457	FORWARD:          0	MERGED:          0	TO_CACHE:       5457

LLC Dense regions hint to LLC: 0

RAW hits: 3793915
Loads Generated: 48098966
Loads sent to L1D: 44305050
Stores Generated: 31931560
Stores sent to L1D: 31931576
Major fault: 0 Minor fault: 2002
Allocated PAGES: 2002
ucb ended
-----------------------------------------------------------------------------------------------------------------------------------------------------------------------------------------------------
Offsets elements: 1 -2 104482 2 15 -104497 -2200619031180 2200629616963 -10481301 10481302 -10485609 -1 10485641 -33 -10485607 10485606 -10520192 38891 -160 -104324 104323 162 -104488 104324 -38730 38730 4 -3 -38728 10520222 -10481491 -4 38734 -38732 38731 -38729 38728 -104326 10585820 -10585821 10481303 -10481281 -2200619020259 2200629501574 -10481336 10481337 -10481485 10479329 -10557261 -2200618911611 -30729 2200629499900 -10557570 -2200618985935 2200618985945 -26563 104496 10481322 -10481322 -15 -147 10479749 -10479764 -104318 104357 171 -162 -104366 -2200618872898 2200618977234 -18 38 -103845 103806 10481498 -10585270 10585306 -10585304 103805 -103804 97723 -97722 97721 -51059 -2200619077012 2200619077012 -46659 96521 -96544 -5 46662 -3744087173 3744138233 -3744138233 3744040512 -97720 97720 -97721 97722 3 97727 -97727 97726 -12684610 23099 8286645 4374867 -1123442 -2200617857020 2200618882731 -12563780 8286659 4277121 97730 -11538068 12563780 23098 -23098 12586886 -12563779 12661503 -1123438 1025713 103829 -103826 103796 40 5 -103844 10583303 -10583302 -103796 -103792 -288223780680062743 -4398046436992 268 288228178737083037 -10479781 -2200619138086 2200619138111 -1082251 1076158 -97732 97732 6065 -6066 -97730 -12563775 -2200606345270 2200619006776 -97733 -12661510 12661510 -2200619128086 2200619128086 -12661508 8286635 -8286635 -2200619128085 2200619030353 97736 -7 97733 -97728 -288228178726311625 288228178726311601 97735 97728 -98245 104504 -27 17 -103982 103982 -2200619020257 2200619020245 -2200619020258 2200629499601 306 -2200629499907 2200629501559 -1652 -10583619 -10481320 -17 -2200629501581 2398 2200618913872 10585308 -10585308 -2200618916266 2200619020251 10481323 -10481335 -2200619135663 2200619135678 -13 -38893 -10481494 -103816 -38890 -10520223 38893 -38892 38894 -103979 103978 -38891 38918 -32 10481301 37 -10520227 -65086 -2200618916284 2200629501370 -10520001 -2200618979367 2200619018260 65085 38892 -103978 -4309 34 -31 -34584 34584 -34586 34581 -1125107 11610715 -10585281 99671 10485640 -10485640 10485607 -10485610 10485605 -10585277 99670 -10485606 10485609 35 -14846857 4261548 103970 10481336 -10481334 -2200619135500 2200629616996 -2200629499591 2200619018093 -38731 38739 -8 -65088 103816 10481494 10585307 -10481497 -103809 103973 -2200619135662 2200629616999 -10585309 -35 -10481275 -103995 -509 510 97734 8286644 14862713 -10585582 -2200606318960 2200606318959 8286650 4277123 -12563772 12563772 -4277139 4277139 8286643 4277130 10585582 -10585580 -12684621 23111 12563778 -12586889 12586889 -12563770 12563769 -1123446 1123446 6095 -2200629617868 2200619138087 25 -103822 -978429 1076151 6073 -6074 -12563784 12661507 -2200619006768 2200619006767 12586884 -12563777 12563776 1025714 97724 -2200619128078 2200619128079 -12661509 -8286644 12563789 2200619030354 -11 -97719 103800 -103803 103803 28 10479478 -10479506 -2200619020095 2200629501593 -2200629501574 2200629501586 -10585316 10583878 -10583877 10585270 10585305 -10481499 10481501 -2200629501579 2200618913875 -2200618913876 2200629499181 2200619020089 10481485 11 -2200619135512 2200619135504 -10481495 -103977 -6 -103791 103822 -2200619017662 -446 2200629497891 -10583622 103835 -103834 87703 16114 -10520225 38732 -38733 38756 10481431 -10481460 32 -38759 -65083 -2200618916286 -10481269 -103815 65083 -4145 -10485608 1125108 11610714 -99669 -99670 99669 -10585275 99668 -10585274 10585274 -10585273 103823 10481463 -2200629616962 -10585271 10585272 -10481464 -4144 10485608 99667 -10585305 -65084 103976 -103974 38896 38889 10481333 -10520224 38895 -38894 -65087 103977 -103976 -10585306 103808 10481465 -10481443 -2200619020097 -10481498 175 10481324 -10481323 10479491 -10557331 -2200618911541 2200618942260 10557640 -2200629543505 2200618985875 -25982 103821 10481484 10479587 -10583570 103968 39 -153 132 -2200618977396 2200618977426 -48 -104519 104480 -34 -10585781 10585816 -10585815 104477 -104476 98247 98245 -51032 -47210 -2200619029841 2200619029843 107273 -107296 47212 -2200619077051 2200619077051 51033 -3744138235 3744039990 3744138234 98246 -98244 -98243 98251 -12684625 12684625 -12661514 11538060 -3251425 2200614605609 4276610 98254 -12661513 12563260 -1025201 1025200 98250 12563266 -12563258 12563257 -1123450 1025203 104500 -104499 104470 -104518 10583814 -10479344 -104470 -288223780680062231 -2200629617867 2200619138248 -104496 -977941 1076170 6239 -6240 -98230 -12563272 -2200619006764 2200618908531 98232 12661508 -2200619128074 2200619128077 -98233 12667747 -4381103 4374863 -2200619128073 2200619029841 98236 -98229 -288228178726311113 288228178726311089 98233 98228 103830 12 -104332 104320 1652 -2200629501559 2200629499907 1687 -10481482 2200618913361 -2200618913361 2200618913360 10585821 -10585820 -2200618915754 -2200619135501 2200619135516 -12 -10481332 31 -21 104511 -2200619017818 2200618913308 88265 -2200619002019 2200619018084 10479804 -10518535 38733 -104329 104329 -65598 -2200618915772 2200618981369 10520001 -10481270 -2200618913769 2200618913770 65597 -65597 -4147 -10485641 -10485604 -100183 100183 -10485605 -10585789 100182 4261036 -10481496 10481496 117405 2200619018255 13 8 154 -65600 104490 10481332 -104327 -2200618913770 2200618913771 10585819 10481499 -104481 -2200619135661 2200629616997 -10481437 -104345 514 -513 98234 -98232 -12661507 8286653 -10487858 -2200606318951 4276611 -12563269 12563270 -4374863 12563273 -4276620 4276619 -4276621 4276622 10586091 -10586091 -12684606 12563276 -12563267 -1123434 1123434 -98231 -12667777 12563278 -104466 2200619138249 1076186 6223 -6224 -98246 -12563263 -2200619006780 2200619006779 12586375 -12563256 12563256 1025202 98248 -2200619128091 2200619128093 -98249 12667733 -12667738 4374879 -98248 -2200619029842 98252 -104477 98244 6260 -28 10479344 -2200619020238 -19 2200629501605 -1427 1393 -10481337 10481339 2200618913363 -10585817 10585818 -2200619135674 2200619135666 10520225 -38896 10520224 -10481329 -10481298 -2200618981369 2200618915774 10585596 -10481107 -104489 65595 -4307 10485603 -10585787 100180 -10585786 10585786 -10585785 10481286 -10481302 -4306 10585784 -65596 104326 -104487 -65599 104327 -10585818 -149 10481486 2200618911601 -2200618942330 -43605 2200629543505 -10584123 26564 77932 -10584082 104318 -30 -2200618977234 2200618977216 -10585269 10585304 -10585303 -103802 -51068 -46650 -2200619030353 2200619030355 46652 -2200619077003 2200619077003 51069 -3744138232 3744138232 11561168 2200606318949 12563781 -1025713 1025712 1025715 103826 -103825 10583302 -288223780680062742 2200619138086 12661506 -2200619006776 2200618909043 -2200619128088 2200619030356 12667576 -4380941 4374875 2200619030352 16 2200618913873 38727 103837 -2200619017656 2200618913820 87705 -2200619001971 2200619018246 10479645 -10479642 10481329 103979 -2200618914281 2200618914282 -65085 10485610 -10485637 -99671 2200619018106 -170 -103807 -2200619135499 -510 511 -2200618980470 -8286649 12563773 -4374875 -4277132 4277131 -4277133 4277134 10585579 -10585579 -97731 -12667605 -12661506 12563777 -2200619128079 2200619128081 -97725 12667580 -12667585 -97724 -2200619030354 -6082 6082 -2200619020076 163 2200618913822 2200619018087 10479807 -10518538 -38727 10481491 -10585084 103815 10481448 -10481463 10481462 2200618911531 -2200618942260 -10583611 25982 77840 -2200619077052 -2200614605595 -23111 12586377 -98228 -288228178726311112 -10479804 10485604 -10520191 2200619135503 10481493 157 38890 -1082437 977938 -100180 -2200619077004 12661511 -2200618980462 2200606318950 3251425 -3251410 4374852 -2200618913873 10585309 -10481108 2200618914281 -10487846 -2200619138087 2200619138112 10520223 2200618916286 10585084 -10485639 -10585276 10585276 10481331 -10520222 10585273 -22 -2200619020075 -51031 -47211 47213 2200619077052 51032 -2200619128076 2200619029844 4381103 -10585825 104325 -2200619018098 2200618979367 2200619018268 -6232 2200618913362 -161 104509 2200618913310 88263 2200619018249 -38889 -38895 -65595 -2200618915774 2200619020263 10481107 -10585596 -100181 -100182 100181 -192 30 -2200618977264 
Potential of Offsets elements: 1362.13 931.932 284.932 914.932 204.932 69.9321 29.9321 63.9321 97.9321 184.932 330.932 1186.76 142.932 555.932 117.932 277.932 402.932 96.9321 52.9321 27.9321 162.932 216.932 27.9321 123.932 268.932 80.9321 824.932 1263.93 83.9321 132.932 90.9321 732.932 87.9321 93.9321 111.932 192.932 119.932 74.9321 27.9321 96.9321 185.932 27.9321 33.9321 60.9321 103.932 181.932 58.9321 27.9321 27.9321 29.9321 27.9321 32.9321 28.9321 27.9321 27.9321 27.9321 46.9321 63.9321 31.9321 242.932 49.9321 27.9321 42.9321 68.9321 37.9321 48.9321 302.932 29.9321 33.9321 27.9321 120.932 47.9321 41.9321 72.9321 59.9321 129.932 81.9321 57.9321 114.932 92.9321 27.9321 157.932 82.9321 27.9321 27.9321 27.9321 27.9321 90.9321 27.9321 738.932 60.9321 27.9321 27.9321 37.9321 27.9321 37.9321 114.932 109.932 30.9321 951.932 257.932 81.9321 42.9321 42.9321 29.9321 35.9321 37.9321 61.9321 27.9321 33.9321 70.9321 32.9321 28.9321 139.932 37.9321 50.9321 27.9321 30.9321 44.9321 61.9321 40.9321 54.9321 43.9321 32.9321 29.9321 226.932 60.9321 591.932 96.9321 27.9321 27.9321 111.932 56.9321 27.9321 28.9321 30.9321 31.9321 41.9321 27.9321 27.9321 29.9321 33.9321 48.9321 136.932 57.9321 59.9321 136.932 78.9321 27.9321 27.9321 290.932 43.9321 35.9321 69.9321 27.9321 46.9321 53.9321 36.9321 27.9321 66.9321 162.932 406.932 199.932 152.932 27.9321 121.932 156.932 29.9321 77.9321 27.9321 52.9321 123.932 96.9321 35.9321 78.9321 36.9321 28.9321 33.9321 36.9321 39.9321 59.9321 39.9321 32.9321 50.9321 193.932 28.9321 35.9321 29.9321 221.932 27.9321 31.9321 31.9321 30.9321 132.932 29.9321 29.9321 223.932 336.932 170.932 48.9321 177.932 110.932 263.932 70.9321 78.9321 41.9321 194.932 87.9321 57.9321 80.9321 50.9321 59.9321 55.9321 115.932 27.9321 31.9321 40.9321 69.9321 27.9321 370.932 73.9321 81.9321 297.932 165.932 160.932 431.932 201.932 142.932 83.9321 46.9321 57.9321 32.9321 50.9321 461.932 125.932 249.932 148.932 101.932 77.9321 27.9321 233.932 98.9321 140.932 27.9321 35.9321 35.9321 117.932 92.9321 36.9321 30.9321 35.9321 46.9321 111.932 68.9321 508.932 27.9321 107.932 191.932 30.9321 47.9321 153.932 31.9321 36.9321 29.9321 27.9321 160.932 58.9321 33.9321 56.9321 85.9321 32.9321 31.9321 31.9321 35.9321 30.9321 34.9321 30.9321 45.9321 94.9321 38.9321 35.9321 59.9321 27.9321 37.9321 41.9321 28.9321 27.9321 27.9321 67.9321 27.9321 33.9321 120.932 33.9321 41.9321 39.9321 104.932 27.9321 44.9321 66.9321 37.9321 32.9321 27.9321 57.9321 206.932 29.9321 70.9321 37.9321 27.9321 31.9321 163.932 55.9321 27.9321 128.932 48.9321 27.9321 27.9321 50.9321 27.9321 60.9321 326.932 27.9321 113.932 205.932 39.9321 55.9321 29.9321 48.9321 59.9321 47.9321 57.9321 28.9321 29.9321 27.9321 28.9321 127.932 155.932 170.932 60.9321 42.9321 27.9321 29.9321 57.9321 33.9321 45.9321 313.932 37.9321 34.9321 159.932 30.9321 437.932 57.9321 30.9321 27.9321 31.9321 30.9321 27.9321 57.9321 35.9321 27.9321 27.9321 265.932 191.932 27.9321 39.9321 43.9321 115.932 123.932 65.9321 64.9321 59.9321 30.9321 70.9321 308.932 95.9321 190.932 83.9321 37.9321 27.9321 408.932 55.9321 27.9321 153.932 203.932 34.9321 101.932 75.9321 224.932 35.9321 131.932 27.9321 107.932 108.932 342.932 57.9321 184.932 27.9321 112.932 152.932 27.9321 115.932 181.932 111.932 55.9321 147.932 33.9321 52.9321 162.932 84.9321 118.932 159.932 38.9321 33.9321 80.9321 61.9321 78.9321 54.9321 36.9321 27.9321 27.9321 30.9321 27.9321 28.9321 29.9321 27.9321 51.9321 96.9321 27.9321 28.9321 163.932 77.9321 47.9321 33.9321 28.9321 28.9321 27.9321 86.9321 237.932 161.932 174.932 104.932 36.9321 181.932 168.932 27.9321 168.932 27.9321 27.9321 35.9321 59.9321 27.9321 59.9321 27.9321 27.9321 27.9321 27.9321 27.9321 27.9321 41.9321 148.932 47.9321 86.9321 129.932 27.9321 37.9321 42.9321 43.9321 33.9321 28.9321 27.9321 70.9321 27.9321 27.9321 51.9321 51.9321 63.9321 44.9321 74.9321 45.9321 27.9321 43.9321 43.9321 27.9321 120.932 29.9321 27.9321 60.9321 101.932 27.9321 28.9321 27.9321 27.9321 36.9321 28.9321 44.9321 104.932 79.9321 33.9321 27.9321 49.9321 41.9321 38.9321 69.9321 37.9321 49.9321 119.932 50.9321 31.9321 47.9321 45.9321 27.9321 108.932 27.9321 35.9321 204.932 80.9321 54.9321 289.932 70.9321 35.9321 27.9321 67.9321 39.9321 39.9321 88.9321 33.9321 27.9321 39.9321 74.9321 29.9321 33.9321 27.9321 29.9321 522.932 172.932 308.932 94.9321 51.9321 27.9321 32.9321 27.9321 27.9321 33.9321 32.9321 42.9321 47.9321 251.932 34.9321 27.9321 94.9321 83.9321 40.9321 55.9321 27.9321 27.9321 170.932 114.932 227.932 119.932 95.9321 27.9321 133.932 165.932 27.9321 106.932 32.9321 76.9321 44.9321 36.9321 36.9321 294.932 505.932 43.9321 27.9321 284.932 148.932 51.9321 62.9321 29.9321 29.9321 90.9321 91.9321 35.9321 54.9321 38.9321 28.9321 52.9321 124.932 29.9321 143.932 82.9321 29.9321 27.9321 33.9321 29.9321 54.9321 61.9321 49.9321 51.9321 64.9321 29.9321 45.9321 83.9321 27.9321 31.9321 46.9321 27.9321 30.9321 69.9321 41.9321 27.9321 40.9321 29.9321 27.9321 27.9321 31.9321 27.9321 82.9321 99.9321 33.9321 29.9321 32.9321 27.9321 32.9321 54.9321 33.9321 100.932 35.9321 27.9321 111.932 63.9321 53.9321 27.9321 244.932 27.9321 27.9321 254.932 83.9321 45.9321 55.9321 72.9321 37.9321 105.932 30.9321 31.9321 27.9321 409.932 39.9321 27.9321 200.932 42.9321 29.9321 66.9321 239.932 39.9321 239.932 69.9321 256.932 71.9321 55.9321 27.9321 28.9321 92.9321 27.9321 66.9321 49.9321 27.9321 70.9321 299.932 27.9321 54.9321 43.9321 95.9321 59.9321 332.932 27.9321 64.9321 328.932 33.9321 52.9321 145.932 54.9321 72.9321 27.9321 32.9321 30.9321 27.9321 33.9321 27.9321 27.9321 33.9321 48.9321 61.9321 28.9321 27.9321 45.9321 69.9321 155.932 43.9321 30.9321 47.9321 34.9321 27.9321 39.9321 27.9321 27.9321 27.9321 27.9321 27.9321 33.9321 27.9321 29.9321 54.9321 37.9321 27.9321 31.9321 88.9321 27.9321 30.9321 27.9321 63.9321 27.9321 51.9321 27.9321 27.9321 168.932 48.9321 27.9321 54.9321 146.932 27.9321 57.9321 49.9321 27.9321 29.9321 27.9321 27.9321 27.9321 49.9321 27.9321 72.9321 182.932 27.9321 33.9321 283.932 62.9321 63.9321 145.932 28.9321 66.9321 129.932 38.9321 51.9321 73.9321 29.9321 27.9321 95.9321 45.9321 27.9321 31.9321 64.9321 27.9321 27.9321 37.9321 27.9321 30.9321 65.9321 32.9321 41.9321 45.9321 59.9321 32.9321 71.9321 60.9321 32.9321 80.9321 216.932 38.9321 92.9321 36.9321 30.9321 48.9321 27.9321 144.932 66.9321 35.9321 39.9321 38.9321 229.932 94.9321 27.9321 27.9321 29.9321 27.9321 27.9321 29.9321 33.9321 36.9321 60.9321 58.9321 27.9321 42.9321 155.932 164.932 42.9321 226.932 69.9321 71.9321 32.9321 27.9321 28.9321 27.9321 51.9321 36.9321 43.9321 31.9321 27.9321 35.9321 27.9321 264.932 35.9321 27.9321 41.9321 30.9321 27.9321 107.932 55.9321 27.9321 112.932 86.9321 27.9321 90.9321 132.932 27.9321 62.9321 57.9321 27.9321 27.9321 27.9321 27.9321 27.9321 27.9321 51.9321 63.9321 27.9321 202.932 27.9321 69.9321 31.9321 131.932 27.9321 136.932 70.9321 27.9321 27.9321 29.9321 87.9321 48.9321 372.932 31.9321 33.9321 35.9321 32.9321 27.9321 170.932 138.932 37.9321 44.9321 28.9321 
rewards of Offsets elements: 1362 904 257 887 177 42 2 36 70 157 303 1186 115 528 90 250 375 69 25 0 135 189 0 96 241 53 797 1236 56 105 63 705 60 66 84 165 92 47 0 69 158 0 6 33 76 154 31 0 0 2 0 5 1 0 0 0 19 36 4 215 22 0 15 41 10 21 275 2 6 0 93 20 14 45 32 102 54 30 87 65 0 130 55 0 0 0 0 63 0 711 33 0 0 10 0 10 87 82 3 924 230 54 15 15 2 8 10 34 0 6 43 5 1 112 10 23 0 3 17 34 13 27 16 5 2 199 33 564 69 0 0 84 29 0 1 3 4 14 0 0 2 6 21 109 30 32 109 51 0 0 263 16 8 42 0 19 26 9 0 39 135 379 172 125 0 94 129 2 50 0 25 96 69 8 51 9 1 6 9 12 32 12 5 23 166 1 8 2 194 0 4 4 3 105 2 2 196 309 143 21 150 83 236 43 51 14 167 60 30 53 23 32 28 88 0 4 13 42 0 343 46 54 270 138 133 404 174 115 56 19 30 5 23 434 98 222 121 74 50 0 206 71 113 0 8 8 90 65 9 3 8 19 84 41 481 0 80 164 3 20 126 4 9 2 0 133 31 6 29 58 5 4 4 8 3 7 3 18 67 11 8 32 0 10 14 1 0 0 40 0 6 93 6 14 12 77 0 17 39 10 5 0 30 179 2 43 10 0 4 136 28 0 101 21 0 0 23 0 33 299 0 86 178 12 28 2 21 32 20 30 1 2 0 1 100 128 143 33 15 0 2 30 6 18 286 10 7 132 3 410 30 3 0 4 3 0 30 8 0 0 238 164 0 12 16 88 96 38 37 32 3 43 281 68 163 56 10 0 381 28 0 126 176 7 74 48 197 8 104 0 80 81 315 30 157 0 85 125 0 88 154 84 28 120 6 25 135 57 91 132 11 6 53 34 51 27 9 0 0 3 0 1 2 0 24 69 0 1 136 50 20 6 1 1 0 59 210 134 147 77 9 154 141 0 141 0 0 8 32 0 32 0 0 0 0 0 0 14 121 20 59 102 0 10 15 16 6 1 0 43 0 0 24 24 36 17 47 18 0 16 16 0 93 2 0 33 74 0 1 0 0 9 1 17 77 52 6 0 22 14 11 42 10 22 92 23 4 20 18 0 81 0 8 177 53 27 262 43 8 0 40 12 12 61 6 0 12 47 2 6 0 2 495 145 281 67 24 0 5 0 0 6 5 15 20 224 7 0 67 56 13 28 0 0 143 87 200 92 68 0 106 138 0 79 5 49 17 9 9 267 478 16 0 257 121 24 35 2 2 63 64 8 27 11 1 25 97 2 116 55 2 0 6 2 27 34 22 24 37 2 18 56 0 4 19 0 3 42 14 0 13 2 0 0 4 0 55 72 6 2 5 0 5 27 6 73 8 0 84 36 26 0 217 0 0 227 56 18 28 45 10 78 3 4 0 382 12 0 173 15 2 39 212 12 212 42 229 44 28 0 1 65 0 39 22 0 43 272 0 27 16 68 32 305 0 37 301 6 25 118 27 45 0 5 3 0 6 0 0 6 21 34 1 0 18 42 128 16 3 20 7 0 12 0 0 0 0 0 6 0 2 27 10 0 4 61 0 3 0 36 0 24 0 0 141 21 0 27 119 0 30 22 0 2 0 0 0 22 0 45 155 0 6 256 35 36 118 1 39 102 11 24 46 2 0 68 18 0 4 37 0 0 10 0 3 38 5 14 18 32 5 44 33 5 53 189 11 65 9 3 21 0 117 39 8 12 11 202 67 0 0 2 0 0 2 6 9 33 31 0 15 128 137 15 199 42 44 5 0 1 0 24 9 16 4 0 8 0 237 8 0 14 3 0 80 28 0 85 59 0 63 105 0 35 30 0 0 0 0 0 0 24 36 0 175 0 42 4 104 0 109 43 0 0 2 60 21 345 4 6 8 5 0 143 111 10 17 1 Printing Sanity3
offset_index value868
offset list size868
reward size868
potential size868
-----------------------------------------------------------------------------------------------------------------------------------------------------------------------------------------------------

DRAM Statistics
 CHANNEL 0
 RQ ROW_BUFFER_HIT:      21670  ROW_BUFFER_MISS:      33269
 DBUS_CONGESTED:         18
 WQ ROW_BUFFER_HIT:       8054  ROW_BUFFER_MISS:      23478  FULL:          0

 AVG_CONGESTED_CYCLE: 5
 All warmup complete: 2
Channel 0 Bank busy for read cycles: 0
Channel 0 Bank busy for write cycles: 0
Channel 0
Rank 0
0banks busy for read cycles: 296466468
0banks busy for write cycles: 3581
1banks busy for read cycles: 1334561
1banks busy for write cycles: 547980
2banks busy for read cycles: 358037
2banks busy for write cycles: 309970
3banks busy for read cycles: 159773
3banks busy for write cycles: 179270
4banks busy for read cycles: 77339
4banks busy for write cycles: 97414
5banks busy for read cycles: 48282
5banks busy for write cycles: 52049
6banks busy for read cycles: 65185
6banks busy for write cycles: 37175
7banks busy for read cycles: 102715
7banks busy for write cycles: 61233
8banks busy for read cycles: 255553
8banks busy for write cycles: 368289

CPU 0 Branch Prediction Accuracy: 99.8625% MPKI: 0.21409 Average ROB Occupancy at Mispredict: 15.0703
Branch types
NOT_BRANCH: 168868799 84.4344%
BRANCH_DIRECT_JUMP: 1709698 0.854849%
BRANCH_INDIRECT: 11565575 5.78279%
BRANCH_CONDITIONAL: 8348252 4.17413%
BRANCH_DIRECT_CALL: 4331725 2.16586%
BRANCH_INDIRECT_CALL: 421962 0.210981%
BRANCH_RETURN: 4753671 2.37684%
BRANCH_OTHER: 0 0%

DRAM PAGES: 1048576
Allocated PAGES: 2002
