
*** ChampSim Multicore Out-of-Order Simulator ***

Warmup Instructions: 50000000
Simulation Instructions: 200000000
Number of CPUs: 1
LLC sets: 2048
LLC ways: 16
Off-chip DRAM Size: 4096 MB Channels: 1 Width: 64-bit Data Rate: 6400 MT/s
CPU 0 runs traces/spec2k17/server_019.champsimtrace.xz
.xz
BTB has LRU replacement policy
ITLB has LRU replacement policy
DTLB has LRU replacement policy
STLB has LRU replacement policy
L1I has LRU replacement policy
L1D has LRU replacement policy
Initialize SRRIP state for L2C
Initialize DRRIP state for LLC
Heartbeat CPU 0 instructions: 10000001 cycles: 2941832 heartbeat IPC: 3.39924 cumulative IPC: 3.39924 (Simulation time: 0 hr 0 min 41 sec) 
Heartbeat CPU 0 instructions: 20000002 cycles: 5881718 heartbeat IPC: 3.40149 cumulative IPC: 3.40037 (Simulation time: 0 hr 1 min 23 sec) 
Heartbeat CPU 0 instructions: 30000000 cycles: 8818599 heartbeat IPC: 3.40497 cumulative IPC: 3.4019 (Simulation time: 0 hr 2 min 6 sec) 
Heartbeat CPU 0 instructions: 40000003 cycles: 11761134 heartbeat IPC: 3.39843 cumulative IPC: 3.40103 (Simulation time: 0 hr 2 min 47 sec) 
Heartbeat CPU 0 instructions: 50000000 cycles: 14694716 heartbeat IPC: 3.4088 cumulative IPC: 3.40258 (Simulation time: 0 hr 3 min 30 sec) 

Warmup complete CPU 0 instructions: 50000004 cycles: 14694717 (Simulation time: 0 hr 3 min 30 sec) 

Offsets elements: 
Potential of Offsets elements: 
rewards of Offsets elements: 
Printing Sanity1
offset list size1359
Offsets elements: 
Potential of Offsets elements: 
rewards of Offsets elements: 27 876 52 18 45 54 78 6 0 28 27 245 45 30 169 32 0 0 16 0 0 0 0 0 39 0 0 0 0 0 1390 0 16 84 60 49 24 168 140 11 5 0 70 538 0 0 0 24 198 305 67 0 15 55 27 15 225 25 4 0 0 0 0 0 0 0 0 48 0 0 471 29 20 19 93 0 0 0 0 0 0 260 0 0 2 0 1 6 0 0 0 0 2 0 0 0 0 0 0 0 0 0 0 0 0 0 0 0 0 0 0 0 0 0 0 0 0 0 373 0 0 0 0 0 0 0 0 0 0 0 0 0 0 0 0 888 0 296 0 3 0 0 0 0 0 0 1219 633 414 0 0 0 0 0 0 0 0 0 0 0 0 0 0 1 0 2 6 0 0 0 0 0 32 0 7 48 0 27 3 0 7 7 0 0 7 0 0 0 0 0 0 0 326 8 21 0 0 0 0 0 0 0 109 6 0 73 28 0 60 0 0 0 0 0 220 0 3 122 90 72 0 0 0 0 0 0 110 55 30 9 55 9 121 0 0 0 88 0 0 0 0 0 0 0 40 0 45 0 0 65 0 0 0 0 149 0 0 0 0 0 0 0 0 0 0 0 0 0 0 0 0 0 0 0 0 0 0 0 0 0 0 0 0 0 0 0 0 0 0 0 0 0 0 0 0 6 0 0 0 4 0 0 0 0 876 0 0 0 0 0 0 0 0 0 0 0 0 0 0 562 0 0 241 0 0 2 0 0 0 0 0 0 0 0 0 2 0 1 0 0 12 0 0 0 0 0 0 0 0 0 2 0 0 0 0 45 288 42 0 30 69 553 100 54 72 0 187 0 16 6 6 0 0 0 100 7 514 96 10 0 63 99 52 30 456 103 0 0 0 14 0 0 0 0 16 0 0 2 0 0 0 0 0 0 18 1 0 0 11 0 1 0 0 326 0 0 0 0 0 0 0 0 0 0 0 0 0 0 0 8 0 0 400 0 0 0 0 0 0 0 1675 54 0 0 4 0 0 6 0 1 0 0 0 8 36 18 8 3 0 10 378 267 70 0 0 0 0 0 120 0 0 0 36 0 0 0 451 0 48 0 0 0 0 0 0 0 74 0 0 10 0 0 0 0 0 14 0 0 0 0 0 387 522 0 0 0 0 0 0 0 0 0 0 0 0 0 9 0 7 0 0 0 1298 0 0 0 0 0 0 0 0 0 0 147 1 0 0 0 2 60 0 108 0 0 0 0 90 35 25 0 0 32 0 27 4 49 3 0 20 0 48 28 56 12 0 0 0 0 84 180 42 58 18 0 24 150 0 18 0 0 0 0 0 4 6 0 52 0 0 2 8 0 0 48 0 18 0 10 9 0 0 0 20 0 0 0 0 0 0 0 0 8 0 0 0 33 0 0 0 0 0 0 0 0 0 0 0 0 0 0 0 0 0 0 0 0 0 0 38 336 0 0 495 0 0 0 0 0 0 0 0 0 0 0 0 0 30 0 0 0 0 0 0 0 0 0 0 0 0 0 0 0 0 0 0 0 0 0 0 0 0 0 0 0 0 0 0 0 0 0 0 0 0 0 0 0 0 0 0 0 0 0 0 0 0 0 0 0 0 0 8 0 15 0 0 0 0 0 6 1 42 0 0 0 0 0 0 0 0 0 42 4 0 0 0 1 13 0 0 2 0 0 0 0 2 28 0 0 2 0 0 0 0 60 57 0 0 105 0 0 0 0 0 32 16 11 0 4 0 0 2 0 0 4 0 0 0 0 0 0 0 18 0 256 0 0 0 0 0 0 0 0 0 0 0 0 0 0 0 0 0 0 0 0 0 0 0 0 0 0 0 0 0 0 0 0 0 2 0 0 0 0 0 0 0 0 2 0 0 0 10 0 0 0 0 0 0 0 0 0 0 0 0 0 35 0 0 0 0 0 0 0 0 0 0 0 255 7 16 0 2 0 0 0 0 0 20 20 0 0 0 0 0 0 0 0 43 0 0 0 0 0 0 0 129 0 0 0 0 0 0 0 0 0 0 0 21 15 0 40 0 0 0 168 45 0 0 0 0 0 56 0 0 0 0 0 0 0 105 0 0 9 0 0 0 0 0 0 0 0 0 0 61 0 0 0 0 0 459 0 0 0 0 0 0 0 0 6 0 16 0 0 0 0 0 0 9 24 0 2 0 24 0 0 0 0 0 0 0 0 0 0 0 0 0 0 0 0 36 0 0 0 0 0 0 0 0 0 0 0 0 0 0 0 0 0 0 0 0 6 0 0 0 0 0 0 0 0 0 0 0 0 0 0 0 0 0 0 0 0 0 0 0 0 0 0 0 0 0 0 0 0 0 0 0 0 0 15 0 0 0 0 0 0 0 0 0 0 0 0 0 0 0 0 2 0 0 33 0 0 0 0 0 0 0 0 0 0 0 0 0 0 0 0 0 0 19 0 0 0 0 1 0 0 4 0 0 0 0 0 0 0 0 0 0 0 0 0 0 0 0 0 0 0 0 0 0 0 0 0 0 0 0 0 0 0 0 0 0 0 0 0 0 483 299 341 0 0 0 0 0 0 0 0 0 0 8 0 0 0 0 0 0 0 0 0 0 0 0 0 0 0 0 0 13 0 0 0 0 0 0 0 0 0 0 0 0 0 0 0 0 0 0 0 0 0 0 0 0 0 0 13 0 0 0 0 0 0 0 115 0 0 0 0 0 0 0 0 0 0 0 0 0 0 0 0 0 0 0 0 0 0 12 0 0 0 0 0 0 0 0 0 0 0 0 0 9 0 0 0 0 0 0 0 0 0 0 0 0 0 0 0 0 0 0 0 0 0 0 0 0 0 0 0 0 0 0 0 0 0 0 4 0 0 0 0 0 0 4 0 0 0 0 20 0 0 0 0 0 0 87 0 0 0 0 0 0 0 0 0 0 0 0 0 0 0 2 27 0 0 0 6 0 36 0 0 0 0 0 0 0 0 0 0 0 0 0 0 0 6 0 0 0 27 0 0 220 2 0 0 0 0 0 0 0 0 0 0 0 0 0 0 0 0 0 0 0 0 0 0 0 0 0 0 0 6 0 0 4 
Printing Sanity2
Heartbeat CPU 0 instructions: 60000000 cycles: 38051898 heartbeat IPC: 0.428134 cumulative IPC: 0.428134 (Simulation time: 0 hr 5 min 3 sec) 
Heartbeat CPU 0 instructions: 70000000 cycles: 59560720 heartbeat IPC: 0.464925 cumulative IPC: 0.445772 (Simulation time: 0 hr 6 min 24 sec) 
Heartbeat CPU 0 instructions: 80000000 cycles: 93039836 heartbeat IPC: 0.298694 cumulative IPC: 0.382921 (Simulation time: 0 hr 7 min 50 sec) 
Heartbeat CPU 0 instructions: 90000000 cycles: 115142659 heartbeat IPC: 0.452431 cumulative IPC: 0.398216 (Simulation time: 0 hr 9 min 12 sec) 
Heartbeat CPU 0 instructions: 100000000 cycles: 137153698 heartbeat IPC: 0.454317 cumulative IPC: 0.4083 (Simulation time: 0 hr 10 min 36 sec) 
*** Reached end of trace for Core: 0 Repeating trace: traces/spec2k17/server_019.champsimtrace.xz
Heartbeat CPU 0 instructions: 110000000 cycles: 158590611 heartbeat IPC: 0.466485 cumulative IPC: 0.416968 (Simulation time: 0 hr 11 min 56 sec) 
Heartbeat CPU 0 instructions: 120000003 cycles: 179449065 heartbeat IPC: 0.479422 cumulative IPC: 0.424875 (Simulation time: 0 hr 13 min 18 sec) 
Heartbeat CPU 0 instructions: 130000000 cycles: 200198512 heartbeat IPC: 0.48194 cumulative IPC: 0.431258 (Simulation time: 0 hr 14 min 41 sec) 
Heartbeat CPU 0 instructions: 140000000 cycles: 220782957 heartbeat IPC: 0.485804 cumulative IPC: 0.436706 (Simulation time: 0 hr 16 min 6 sec) 
Heartbeat CPU 0 instructions: 150000003 cycles: 241344110 heartbeat IPC: 0.486354 cumulative IPC: 0.44121 (Simulation time: 0 hr 17 min 27 sec) 
Heartbeat CPU 0 instructions: 160000000 cycles: 260920060 heartbeat IPC: 0.510831 cumulative IPC: 0.446745 (Simulation time: 0 hr 18 min 42 sec) 
Heartbeat CPU 0 instructions: 170000000 cycles: 284059097 heartbeat IPC: 0.43217 cumulative IPC: 0.445493 (Simulation time: 0 hr 20 min 14 sec) 
Heartbeat CPU 0 instructions: 180000000 cycles: 308012090 heartbeat IPC: 0.417484 cumulative IPC: 0.443206 (Simulation time: 0 hr 21 min 34 sec) 
Heartbeat CPU 0 instructions: 190000001 cycles: 339474353 heartbeat IPC: 0.317841 cumulative IPC: 0.431062 (Simulation time: 0 hr 22 min 59 sec) 
Heartbeat CPU 0 instructions: 200000002 cycles: 362563936 heartbeat IPC: 0.433096 cumulative IPC: 0.431197 (Simulation time: 0 hr 24 min 17 sec) 
Heartbeat CPU 0 instructions: 210000000 cycles: 384010063 heartbeat IPC: 0.466285 cumulative IPC: 0.433234 (Simulation time: 0 hr 25 min 36 sec) 
*** Reached end of trace for Core: 0 Repeating trace: traces/spec2k17/server_019.champsimtrace.xz
Heartbeat CPU 0 instructions: 220000000 cycles: 404332150 heartbeat IPC: 0.492075 cumulative IPC: 0.436303 (Simulation time: 0 hr 26 min 58 sec) 
Heartbeat CPU 0 instructions: 230000000 cycles: 424835445 heartbeat IPC: 0.487726 cumulative IPC: 0.438874 (Simulation time: 0 hr 28 min 18 sec) 
Heartbeat CPU 0 instructions: 240000003 cycles: 445042829 heartbeat IPC: 0.494869 cumulative IPC: 0.441503 (Simulation time: 0 hr 29 min 36 sec) 
Heartbeat CPU 0 instructions: 250000000 cycles: 465036208 heartbeat IPC: 0.500165 cumulative IPC: 0.444107 (Simulation time: 0 hr 30 min 55 sec) 
Finished CPU 0 instructions: 200000000 cycles: 450341493 cumulative IPC: 0.444107 (Simulation time: 0 hr 30 min 55 sec) 

ChampSim completed all CPUs

Region of Interest Statistics

CPU 0 cumulative IPC: 0.444107 instructions: 200000000 cycles: 450341493
ITLB TOTAL     ACCESS:   33632648  HIT:   32203084  MISS:    1429564  HIT %:    95.7495  MISS %:    4.25052   MPKI: 7.14782
ITLB LOAD TRANSLATION ACCESS:   33632648  HIT:   32203084  MISS:    1429564  HIT %:    95.7495  MISS %:    4.25052   MPKI: 7.14782
ITLB PREFETCH  REQUESTED:          0  ISSUED:          0  USEFUL:          0  USELESS:          0
ITLB USEFUL LOAD PREFETCHES:          0 PREFETCH ISSUED TO LOWER LEVEL:          0  ACCURACY: -nan
ITLB TIMELY PREFETCHES:          0 LATE PREFETCHES: 0 DROPPED PREFETCHES: 0
ITLB PREFETCHES SAME FILL-ORIGIN LEVEL: 0 DIFFERENT FILL-ORIGIN LEVEL: 0
ITLB AVERAGE MISS LATENCY: 9.4286 cycles
ITLB RQ	ACCESS:   40260468	FORWARD:          0	MERGED:    6167631	TO_CACHE:   34092837

DTLB TOTAL     ACCESS:   38912286  HIT:   37314775  MISS:    1597511  HIT %:    95.8946  MISS %:    4.10542   MPKI: 7.98756
DTLB LOAD TRANSLATION ACCESS:   38912286  HIT:   37314775  MISS:    1597511  HIT %:    95.8946  MISS %:    4.10542   MPKI: 7.98756
DTLB PREFETCH  REQUESTED:          0  ISSUED:          0  USEFUL:          0  USELESS:          0
DTLB USEFUL LOAD PREFETCHES:          0 PREFETCH ISSUED TO LOWER LEVEL:          0  ACCURACY: -nan
DTLB TIMELY PREFETCHES:          0 LATE PREFETCHES: 0 DROPPED PREFETCHES: 0
DTLB PREFETCHES SAME FILL-ORIGIN LEVEL: 0 DIFFERENT FILL-ORIGIN LEVEL: 0
DTLB AVERAGE MISS LATENCY: 19.9375 cycles
DTLB RQ	ACCESS:   58877138	FORWARD:          0	MERGED:   19578680	TO_CACHE:   39298458

STLB TOTAL     ACCESS:   10610870  HIT:   10440272  MISS:     170598  HIT %:    98.3922  MISS %:    1.60777   MPKI: 0.85299
STLB LOAD TRANSLATION ACCESS:    3027075  HIT:    2859862  MISS:     167213  HIT %:    94.4761  MISS %:    5.52391   MPKI: 0.836065
STLB TRANSLATION FROM L1D PREFETCHER ACCESS:    7583795  HIT:    7580410  MISS:       3385  HIT %:    99.9554  MISS %:  0.0446346   MPKI: 0.016925
STLB PREFETCH  REQUESTED:          0  ISSUED:          0  USEFUL:       2612  USELESS:        772
STLB USEFUL LOAD PREFETCHES:       2612 PREFETCH ISSUED TO LOWER LEVEL:          0  ACCURACY: inf
STLB TIMELY PREFETCHES:       2612 LATE PREFETCHES: 592 DROPPED PREFETCHES: 10973
STLB PREFETCHES SAME FILL-ORIGIN LEVEL: 0 DIFFERENT FILL-ORIGIN LEVEL: 0
STLB AVERAGE MISS LATENCY: 107.054 cycles
STLB RQ	ACCESS:   13403099	FORWARD:          0	MERGED:    2780593	TO_CACHE:   10622506

STLB Hit, L1D data hit: 0
STLB Hit, L2C data hit: 0
STLB Hit, LLC data hit: 0
STLB Hit, LLC data miss: 0
STLB STLB hints to L2: 0
L1D TOTAL     ACCESS:   56768299  HIT:   49292505  MISS:    7475794  HIT %:     86.831  MISS %:     13.169   MPKI: 37.379
L1D LOAD      ACCESS:   26060751  HIT:   23069584  MISS:    2991167  HIT %:    88.5223  MISS %:    11.4777   MPKI: 14.9558
L1D RFO       ACCESS:   21698925  HIT:   18164051  MISS:    3534874  HIT %:    83.7095  MISS %:    16.2905   MPKI: 17.6744
L1D PREFETCH  ACCESS:    9008623  HIT:    8058870  MISS:     949753  HIT %:    89.4573  MISS %:    10.5427   MPKI: 4.74876
AGUS PREFETCH L1 MISS: 0
L1D PREFETCH  REQUESTED:   21149384  ISSUED:   21149372  USEFUL:     297518  USELESS:     652177
L1D USEFUL LOAD PREFETCHES:     297518 PREFETCH ISSUED TO LOWER LEVEL:    1338185  ACCURACY: 22.2329
L1D TIMELY PREFETCHES:     297518 LATE PREFETCHES: 382918 DROPPED PREFETCHES: 11096
L1D PREFETCHES SAME FILL-ORIGIN LEVEL: 1338185 DIFFERENT FILL-ORIGIN LEVEL: 0
L1D AVERAGE MISS LATENCY: 1.3343e+07 cycles
L1D RQ	ACCESS:   44291204	FORWARD:          0	MERGED:   17593075	TO_CACHE:   26451718
L1D WQ	ACCESS:   32636784	FORWARD:     255127	MERGED:     211364	TO_CACHE:   32425420
L1D PQ	ACCESS:   10773349	FORWARD:          0	MERGED:     388610	TO_CACHE:   10376023

L1D UNIQUE REGIONS ACCESSED: 0
L1D REGIONS CONFLICTS: 0
L1D Cross Page Prefetch Requests: 156956
L1D Same Page Prefetch Requests: 10616393
L1D ROI Sum of L1D PQ occupancy: 135860556
L1D PREFETCHES PUSHED FROM L2C: 0
L1I TOTAL     ACCESS:   37773208  HIT:   29271781  MISS:    8501427  HIT %:    77.4935  MISS %:    22.5065   MPKI: 42.5071
L1I LOAD      ACCESS:   37773208  HIT:   29271781  MISS:    8501427  HIT %:    77.4935  MISS %:    22.5065   MPKI: 42.5071
L1I PREFETCH  REQUESTED:          0  ISSUED:          0  USEFUL:          0  USELESS:          0
L1I USEFUL LOAD PREFETCHES:          0 PREFETCH ISSUED TO LOWER LEVEL:          0  ACCURACY: -nan
L1I TIMELY PREFETCHES:          0 LATE PREFETCHES: 0 DROPPED PREFETCHES: 0
L1I PREFETCHES SAME FILL-ORIGIN LEVEL: 0 DIFFERENT FILL-ORIGIN LEVEL: 0
L1I AVERAGE MISS LATENCY: 17.2031 cycles
L1I RQ	ACCESS:   58614034	FORWARD:          0	MERGED:   18353566	TO_CACHE:   40260468

BTB TOTAL     ACCESS:   25868833  HIT:   24240387  MISS:    1628446  HIT %:     93.705  MISS %:    6.29501   MPKI: 8.14223
BTB BRANCH_DIRECT_JUMP	ACCESS:    1694760  HIT:    1684405  MISS:      10355
BTB BRANCH_INDIRECT	ACCESS:    9830410  HIT:    9194063  MISS:     636347
BTB BRANCH_CONDITIONAL	ACCESS:    7683208  HIT:    7668728  MISS:      14480
BTB BRANCH_DIRECT_CALL	ACCESS:    2643025  HIT:    2609037  MISS:      33988
BTB BRANCH_INDIRECT_CALL	ACCESS:     687193  HIT:     583910  MISS:     103283
BTB BRANCH_RETURN	ACCESS:    3330237  HIT:    2500244  MISS:     829993
BTB BRANCH_OTHER ACCESS:          0  HIT:          0  MISS:          0

L2C TOTAL     ACCESS:   20590533  HIT:   13524913  MISS:    7065620  HIT %:    65.6851  MISS %:    34.3149   MPKI: 35.3281
L2C LOAD      ACCESS:   11109353  HIT:    8647881  MISS:    2461472  HIT %:    77.8432  MISS %:    22.1568   MPKI: 12.3074
L2C DATA LOAD MPKI: 9.50808
L2C INSTRUCTION LOAD MPKI: 2.79928
L2C RFO       ACCESS:    3529355  HIT:     134193  MISS:    3395162  HIT %:     3.8022  MISS %:    96.1978   MPKI: 16.9758
L2C PREFETCH  ACCESS:    1338185  HIT:     348488  MISS:     989697  HIT %:    26.0418  MISS %:    73.9582   MPKI: 4.94848
AGUS PREFETCH L1 MISS: 0
L2C DATA PREFETCH MPKI: 4.94848
L2C INSTRUCTION PREFETCH MPKI: 0
L2C WRITEBACK ACCESS:    4364949  HIT:    4230881  MISS:     134068  HIT %:    96.9285  MISS %:    3.07147   MPKI: 0.67034
L2C LOAD TRANSLATION ACCESS:     225781  HIT:     143070  MISS:      82711  HIT %:    63.3667  MISS %:    36.6333   MPKI: 0.413555
L2C TRANSLATION FROM L1D PREFETCHER ACCESS:      22910  HIT:      20400  MISS:       2510  HIT %:    89.0441  MISS %:    10.9559   MPKI: 0.01255
L2C PREFETCH  REQUESTED:          0  ISSUED:          0  USEFUL:      41802  USELESS:     949881
L2C USEFUL LOAD PREFETCHES:      41802 PREFETCH ISSUED TO LOWER LEVEL:     989697  ACCURACY: 4.22372
L2C TIMELY PREFETCHES:      41802 LATE PREFETCHES: 0 DROPPED PREFETCHES: 0
L2C PREFETCHES SAME FILL-ORIGIN LEVEL: 0 DIFFERENT FILL-ORIGIN LEVEL: 0
L2C AVERAGE MISS LATENCY: 182.492 cycles
L2C RQ	ACCESS:   14887727	FORWARD:          0	MERGED:          0	TO_CACHE:   14887399
L2C WQ	ACCESS:    4364949	FORWARD:        328	MERGED:          0	TO_CACHE:    4364949
L2C PQ	ACCESS:    1338185	FORWARD:          0	MERGED:          0	TO_CACHE:    1338185

L2C Instructions Evicting Data 510571
L2C Translations Evicting Data 77994
L2C Data Evicting Data 5709521
L2C Instructions Evicting Instructions 43460
L2C Translations Evicting Instructions 6091
L2C Data Evicting Instructions 499895
L2C Instructions Evicting Translations 5824
L2C Translations Evicting Translations 1136
L2C Data Evicting Translations 77060
L2C Dense regions hint from L2: 0
PSCL5 TOTAL     ACCESS:     181571  HIT:     181571  MISS:          0  HIT %:        100  MISS %:          0   MPKI: 0
PSCL5 LOAD TRANSLATION ACCESS:     166621  HIT:     166621  MISS:          0  HIT %:        100  MISS %:          0   MPKI: 0
PSCL5 TRANSLATION FROM L1D PREFETCHER ACCESS:      14950  HIT:      14950  MISS:          0  HIT %:        100  MISS %:          0   MPKI: 0
PSCL5 PREFETCH  REQUESTED:          0  ISSUED:          0  USEFUL:          0  USELESS:          0
PSCL5 USEFUL LOAD PREFETCHES:          0 PREFETCH ISSUED TO LOWER LEVEL:          0  ACCURACY: -nan
PSCL5 TIMELY PREFETCHES:          0 LATE PREFETCHES: 0 DROPPED PREFETCHES: 0
PSCL5 PREFETCHES SAME FILL-ORIGIN LEVEL: 0 DIFFERENT FILL-ORIGIN LEVEL: 0

PSCL4 TOTAL     ACCESS:     177770  HIT:     177447  MISS:        323  HIT %:    99.8183  MISS %:   0.181695   MPKI: 0.001615
PSCL4 LOAD TRANSLATION ACCESS:     163257  HIT:     162934  MISS:        323  HIT %:    99.8022  MISS %:   0.197848   MPKI: 0.001615
PSCL4 TRANSLATION FROM L1D PREFETCHER ACCESS:      14513  HIT:      14513  MISS:          0  HIT %:        100  MISS %:          0   MPKI: 0
PSCL4 PREFETCH  REQUESTED:          0  ISSUED:          0  USEFUL:          0  USELESS:          0
PSCL4 USEFUL LOAD PREFETCHES:          0 PREFETCH ISSUED TO LOWER LEVEL:          0  ACCURACY: -nan
PSCL4 TIMELY PREFETCHES:          0 LATE PREFETCHES: 0 DROPPED PREFETCHES: 0
PSCL4 PREFETCHES SAME FILL-ORIGIN LEVEL: 0 DIFFERENT FILL-ORIGIN LEVEL: 0

PSCL3 TOTAL     ACCESS:     178137  HIT:     176527  MISS:       1610  HIT %:    99.0962  MISS %:   0.903799   MPKI: 0.00805
PSCL3 LOAD TRANSLATION ACCESS:     163469  HIT:     161859  MISS:       1610  HIT %:    99.0151  MISS %:   0.984896   MPKI: 0.00805
PSCL3 TRANSLATION FROM L1D PREFETCHER ACCESS:      14668  HIT:      14668  MISS:          0  HIT %:        100  MISS %:          0   MPKI: 0
PSCL3 PREFETCH  REQUESTED:          0  ISSUED:          0  USEFUL:          0  USELESS:          0
PSCL3 USEFUL LOAD PREFETCHES:          0 PREFETCH ISSUED TO LOWER LEVEL:          0  ACCURACY: -nan
PSCL3 TIMELY PREFETCHES:          0 LATE PREFETCHES: 0 DROPPED PREFETCHES: 0
PSCL3 PREFETCHES SAME FILL-ORIGIN LEVEL: 0 DIFFERENT FILL-ORIGIN LEVEL: 0

PSCL2 TOTAL     ACCESS:     174411  HIT:     116566  MISS:      57845  HIT %:    66.8341  MISS %:    33.1659   MPKI: 0.289225
PSCL2 LOAD TRANSLATION ACCESS:     167169  HIT:     109324  MISS:      57845  HIT %:    65.3973  MISS %:    34.6027   MPKI: 0.289225
PSCL2 TRANSLATION FROM L1D PREFETCHER ACCESS:       7242  HIT:       7242  MISS:          0  HIT %:        100  MISS %:          0   MPKI: 0
PSCL2 PREFETCH  REQUESTED:          0  ISSUED:          0  USEFUL:          0  USELESS:          0
PSCL2 USEFUL LOAD PREFETCHES:          0 PREFETCH ISSUED TO LOWER LEVEL:          0  ACCURACY: -nan
PSCL2 TIMELY PREFETCHES:          0 LATE PREFETCHES: 0 DROPPED PREFETCHES: 0
PSCL2 PREFETCHES SAME FILL-ORIGIN LEVEL: 0 DIFFERENT FILL-ORIGIN LEVEL: 0

LLC TOTAL     ACCESS:   10993208  HIT:    4996629  MISS:    5996579  HIT %:     45.452  MISS %:     54.548   MPKI: 29.9829
LLC LOAD      ACCESS:    2461469  HIT:    1273348  MISS:    1188121  HIT %:    51.7312  MISS %:    48.2688   MPKI: 5.9406
LLC RFO       ACCESS:    3395137  HIT:     717178  MISS:    2677959  HIT %:    21.1237  MISS %:    78.8763   MPKI: 13.3898
LLC PREFETCH  ACCESS:     989697  HIT:     444769  MISS:     544928  HIT %:    44.9399  MISS %:    55.0601   MPKI: 2.72464
AGUS PREFETCH L1 MISS: 0
LLC WRITEBACK ACCESS:    4061684  HIT:    2527837  MISS:    1533847  HIT %:    62.2362  MISS %:    37.7638   MPKI: 7.66923
LLC LOAD TRANSLATION ACCESS:      82711  HIT:      32463  MISS:      50248  HIT %:    39.2487  MISS %:    60.7513   MPKI: 0.25124
LLC TRANSLATION FROM L1D PREFETCHER ACCESS:       2510  HIT:       1034  MISS:       1476  HIT %:    41.1952  MISS %:    58.8048   MPKI: 0.00738
LLC PREFETCH  REQUESTED:          0  ISSUED:          0  USEFUL:      11841  USELESS:     532997
LLC USEFUL LOAD PREFETCHES:      11841 PREFETCH ISSUED TO LOWER LEVEL:     544928  ACCURACY: 2.17295
LLC TIMELY PREFETCHES:      11841 LATE PREFETCHES: 0 DROPPED PREFETCHES: 0
LLC PREFETCHES SAME FILL-ORIGIN LEVEL: 0 DIFFERENT FILL-ORIGIN LEVEL: 0
LLC AVERAGE MISS LATENCY: 179.927 cycles
LLC RQ	ACCESS:    5941855	FORWARD:          0	MERGED:          0	TO_CACHE:    5941827
LLC WQ	ACCESS:    4061684	FORWARD:         28	MERGED:          0	TO_CACHE:    4061684
LLC PQ	ACCESS:     989697	FORWARD:          0	MERGED:          0	TO_CACHE:     989697

LLC Dense regions hint to LLC: 0

RAW hits: 2507227
Loads Generated: 46798431
Loads sent to L1D: 44291204
Stores Generated: 32636771
Stores sent to L1D: 32636784
Major fault: 0 Minor fault: 25901
Allocated PAGES: 25901
ucb ended
-----------------------------------------------------------------------------------------------------------------------------------------------------------------------------------------------------
Offsets elements: 1465996482647 -1 19004385 -19004384 -1465996480890 1465996604963 -1465996605295 1465996481306 -1465996479512 1466015483811 -1466015485605 1466015485606 -1466015485301 -308 25 1466015485585 -19479906 -1465996005696 1789 1465996308867 -1465996310293 1465996310294 -304961 -34259581 -1465961747545 1465996007126 19479908 -19174948 -304960 304960 1 -1465996310366 -292 328 -1465996606690 1465996606690 -1465996606720 1465996606720 -30 1465996482648 126 -1465996481017 1465996480889 2 19004383 -18880310 18880311 -1466015485273 -332 1466015485605 -1466015483812 1465996478407 -1465996479896 -1730 1730 1466015485301 -1466015485609 371 -363 1465996005696 19479906 -19174945 -1465996005679 1465996005679 304961 -1465996606716 1465996482660 -1465996480907 1465996481701 -794 -18 19004384 -18880309 18880309 -1466015483811 -1489 -54296542 -1465961190485 1465996007122 19479781 -1466015485310 36 -328 1465996605291 1465996482646 -1466015485274 -1727 -1465996604963 -1757 -1465996481222 1465996481280 -1465996479486 1466015485610 -1466015485239 -34859454 -1465961452633 1465996312086 -19174947 19174946 -1466015485613 1465996612139 18873472 -1465996310666 1465996497793 114346 -1465996612119 1465961760401 34823022 -34823022 -1465961763143 1465996608022 -21727 -4200 -1465996579374 1465996490071 -1465996490189 1465961760168 -1465961760387 -19 1465996583460 -34823054 34844879 -34844879 34818952 18906238 -18995168 15367 -8190 -7178 1465996490189 -1465996490422 1465996583423 34727975 18997214 -4198 -2 -81753 -11 -7167 -233 34727972 116907 -34823152 90982 -34818952 90981 3 -7 5 18906237 -18988002 18988003 -1466015485576 1465996310629 -1465996310664 -371 408 -408 406 -406 402 -399 397 -397 1465996310264 382 -382 410 -410 1465996310666 -1465996310667 379 1465996611760 -117600 -1465996494538 398 -381 1465996583439 345 28337 -4961 18878432 -19174946 19174945 -1466015485575 1465996310630 187129 -35032795 -1465961464999 -35147140 -263262 -1465961201737 1466015485609 -18873470 18873469 -19174942 19174943 -18987815 -1465996497794 -301474 194144 -14359 18995156 -18980798 2021 -16381 -1465996490195 1465996506577 -1465996506796 1465996506796 -16383 -17892978 17892978 18995158 -18978777 -1465996509451 2921 30 1727 1466015485268 -19004379 19004379 -1466015487026 18880305 -19004294 -1465996480974 1794 1466015483806 -1466015485601 305 1489 1465961744326 1465996508252 -1465996506821 1465996506822 18978775 -18980797 -14360 1465961760194 -1465961760413 1465961760413 34730001 -1465996490149 1466015485267 -19004378 19004378 -1466015487025 18880304 -1465996480973 1466015487025 -18995155 -17892977 -1465978597218 1466015485353 -18995157 -1465996490194 1466015485352 -54020607 -1465961464998 1466015485198 -54020608 35039810 16382 -1465996506577 1465996506797 -16837020 34729997 1465996506576 -34746383 -1465961760424 1465996506807 34746383 34746384 -34746384 53725159 -2021 18995157 -18980799 -1465996504809 1465996490455 121684 18873468 -1466015485606 1465996310664 -1465996310266 1465996504410 1465996612138 -1465996611730 -1466015485598 404 -412 -301472 183945 -183944 377 -78 -19004295 1466015483807 -53739481 1465996495961 18991066 -18996155 -1032 -177752 -6 -6192 -1465996488410 1465996488410 -177747 19174934 1466015485608 -18873469 -1466015485607 -18873471 18873470 -1466015485590 23376 4962 -1466015485212 -16 1465996310284 -1465996310663 35 375 1465996310255 386 -386 1465996494549 -1465996494163 1466015485223 -1465996310629 1465996504808 -1465996504413 -395 -1466015485231 -377 1465996611737 18991071 -1466015485610 -19174940 1466015485611 -1466015485211 1465996611738 -1465996611754 1466015485226 401 1465996494135 -1466015485612 1466015485613 -18873474 18873473 -1465996310630 187127 -34737372 53725190 -1466015485276 1466015485607 -1466015483813 -1465961745815 1466015485302 -1466015485604 -4 1465996605295 -1465996603501 1465996603501 1465961745788 1425 -1465961745788 1465996481222 -1465996479424 -18972639 -202307 187128 -1465996497790 1465996506826 -1465996506494 -27 -1790 1465996480201 125094 -3219 3219 -1794 -1465996479869 1462 -1425 1465996478404 19005406 31745 18972640 34845666 19174947 -1465996310668 1466015485614 -1466015485234 1465996310286 -19122310 19122312 -19037155 -79876 -5280 -52320 -303360 19477987 -1466015485584 1465996587440 17806 288223780709529729 -10419615 -2200619201325 2200619201348 -72119 72119 6 87178 9108 -9108 -15089 15088 9110 -12750224 -2200606351027 2200619092142 -12702831 12711937 -12750217 12741111 -1207862 1216968 -2200619182072 2200619182073 -12741117 -5 8281500 -8281501 12750230 -24198 2200619191179 -9107 9104 -3 -12750225 12750226 -2200619190922 2200606440696 12763666 -2200619097638 2200619097641 -37637 37636 -13448 13448 -37636 10419340 -2200629472974 2200619077822 -24188 24188 13445 22 -20 21 16 -63565 63568 -13466 -50101 50104 24172 -24196 -50096 74300 -24197 84500 -84603 13462 9 -13474 -2200619108742 2200619108743 13467 -63569 63548 -63550 58145 -8047 -50098 25911 -25910 63550 -2200619097637 2200619097640 -13450 50098 74301 -24202 -50099 50097 13468 -13446 13446 14 -10 -13465 13447 37637 2200619097643 -13451 10395152 2200619077821 -9105 -38289 38289 12711939 -12750219 12750218 -9106 1192801 24170 -9110 9109 24202 4 -288223780699134316 18880338 -19174628 19477988 -19174626 -1465996310986 1465996310984 -1465996310598 1465996007238 -1465996007624 1466015485612 -1466015485219 -394 303362 -1465996310987 -1465996611760 -379 -19174625 303361 -301154 -1465996310959 1465996007599 -1465996310650 1466015483813 -1466015485302 -301 1465996480200 125095 1465996478406 -1465996479868 -19005406 19005407 -1466015483810 1465996479425 31746 -201986 -1465996310686 1466015487001 -1466015487031 19004386 -19004383 1465996481305 -1465996479511 1465996312407 1465996482616 -1465996482646 1757 1465996480890 -18880311 18880310 -19004300 19004301 332 -1465961746123 -1793 1465996009046 -1465996007616 1465996007616 19477986 303360 -19004382 1465996481349 -1465996481044 1466015483812 1465996007624 472580 -1465996479833 -1430 -303361 -1465996007599 -1465996480889 1466015485272 -19004366 794 123262 -1466015485272 1466015485300 1465996009042 19477861 124074 1465996481279 -1465996479485 1465961450903 -1465961451211 1465996310614 -1465996312407 1465996312406 19174627 -18873473 -1465996310985 1465996310986 -1465996310966 1465996612119 -28696 -85648 -1465996500517 34823152 -1465961760420 1465996579003 -88930 -18906238 18995168 -18995167 -1465996490190 1465996505557 -1465996497600 116904 -18902037 7167 -1465996497356 -116907 95180 90980 1465996310949 -1465996310984 -26 37 -402 -1465996310576 -8 378 -1465996611740 -88918 89263 18878433 19174625 1465996310950 186810 -1465996497795 1465961465000 35147139 -35410274 54283743 -1466015485608 -19174623 19174624 -114344 193824 18980798 -16380 -17900186 36895344 -18995158 -18880306 -123990 19004296 -1466015485600 1466015485296 -1466015483807 1465961187268 35317765 -1465996506822 1465996506821 -1465996508251 1466015487027 -35300359 -1465961189836 1465961189836 -1465961190055 1465961190055 35300358 -1465978589963 -18880305 1466015483805 -1466015485599 1466015485600 -1466015485295 1465996488651 -35301382 54296539 -36895342 -1465978590010 -1466015487027 1466015487026 -1465996490447 -1465961464746 155 1465996506421 -17400170 35300355 -35316741 -1465961190066 35316741 -35316742 35316742 54295516 -1465996504410 -409 -18873467 -1465996612131 1465996310987 301152 -301147 1465996494612 -1465996494313 78 -370 -54296539 35305474 -19174620 178459 -178464 -1465996310978 1465996494604 -6194 -177427 19174614 -1465996612139 -1466015485592 1465996310603 1465996310983 -1465996310949 -1466015485223 1466015485222 -19174622 183564 -1465996494513 1465996494539 -1465996494137 -301152 -1466015485210 1466015485225 -1465996611737 1465996310579 183556 -1465996494506 1465996497791 -1465996495997 1465961758623 -14297 -1466015487033 1429 1465961744323 53739487 -19004385 -170241 201987 186809 -1465996497791 1465996506494 -1465996506521 -1465996478407 1465996481626 1465996481223 1802 1465996495994 18987818 1465996512593 -35047972 34845987 -19122311 85156 -5271 -1465996363285 -611090 288223780710140818 -288223780710116499 288223780699696884 -288223780699110114 288221580079908789 8 87321 8965 -8964 -15233 -2200619077053 2200619092285 -12703224 -37854 12750040 -12750037 12750036 -8961 -1208006 1216970 -2200619182219 2200619191182 -12750044 12725846 15232 -12741084 12750047 -2200619191180 -8962 -4459766 -8281321 -2200606440876 2200619211590 -2200619104869 2200619104868 -20676 44864 -44864 -10395152 -2200619077823 2200619098496 -70641 70644 -20694 -49949 49951 -49953 49954 24140 -24164 -49944 74116 -24165 48557 -48648 -24166 84489 -84500 20693 -20691 20699 -2200619129439 2200619058795 70624 -70626 25760 32234 -57992 -20677 20676 3493 -3496 -20671 -49950 -2200619034246 2200619104884 -20699 20683 10 -24189 2200619104871 -2200619077822 2200619077823 -37860 12750048 -12750039 12750038 1216971 -24170 24171 -8966 8966 -288223780680253978 -18880338 -1465995994186 -19467108 19467109 -1466015485205 -22 1465995994184 -1465995993790 1465996018110 -24318 -1465995994187 -1466015485233 1465995993807 24318 -1465996018505 1465995994186 617953 -617954 -1465995994159 1465996018479 19467108 -19491428 -1465995993850 -1466015485603 1465996480196 -1466015485275 1465996479427 1465996478403 -1465996481625 -1465996512672 1465995993886 -1465995994178 1466015485274 -1466015487032 -19004301 1465995995607 24319 -1465996018205 -53739486 1422 1465996018133 -1465996018496 1465996018496 19467106 -19491425 -24320 -1465995993885 1466015485273 124072 -19004256 1465996480204 -461700 -1465996018133 1465996019926 -19491426 -1465996018479 24320 -24319 -1465995993886 1465996019922 19466981 -1797 1465995993814 -19491427 -34542973 19467107 -617953 20 -2742 1465996586165 -85626 114322 -6839 -1465996605299 1465961760420 -1465961760049 1465996583201 34730022 88933 -1465996579120 88930 -1465996579119 1465995994149 -1465995994184 -1465995993776 -1465996494140 18873471 19491425 1465995994150 503633 -1465996497818 -35410146 -1465961201993 -19491422 19491423 -18987792 510624 -17889128 36884286 -35300351 -1465961189844 1465961189844 -1465961190063 1465961190063 35300351 -1465978601021 -54296538 35301383 -1465996491869 -36884284 -1465978601068 1465961464591 35039809 -17411223 35300350 1465996490194 -35316733 -1465961190074 35316733 -35316734 35316734 54295509 1465995994187 617952 -617947 1465996494652 -1465996494353 1466015486995 -1465996481221 -1465996481000 1465996490872 -495265 494232 6234 -6234 -494227 19491414 1465995993803 1465995994183 -1465995994149 500363 -500364 1465996504809 -1465996504407 -378 -617952 1465996494538 18991073 -1466015485209 1465996611754 1465995993783 -1465995993778 1465995993779 500356 1465996497781 -34737396 -1465961760417 -53739488 -1465961746116 -1429 -518787 503632 9012 18978781 1465996479869 -1465996480201 -1462 1020 -1465996481626 487042 16591 15154 -54020612 -1465961465001 19491426 1465995993806 -19122302 85147 -5285 -1465996363271 -297170 -307521 604690 -10419592 -2200619201348 2200619201325 -72096 72091 15017 -2200619092069 2200619092069 -12741133 38310 12712000 -12750307 12750306 -9177 -1207790 -9180 -2200619182000 2200619182003 9181 -12726116 12741132 9180 -12750318 -2200606440863 -9178 -12741141 8281591 -2200614722197 2200619203822 -2200619097101 2200619060004 37096 -37096 2200619090728 -62817 62820 -12926 -49893 49895 -49897 49898 24108 -24132 -49888 74028 -24133 48454 -48557 12925 -12923 12906 -62802 62822 -62820 62825 -2200619121676 2200619058850 25704 -57935 49890 12929 -12909 -12905 24137 -74029 -2200619034302 2200619097100 -12906 12922 -15 7 12 -37115 37094 2200619097103 -12702822 -38316 12750318 -12750309 12750308 -9182 9182 -288223780699134315 -19177508 -307522 -1465996000584 1465996307718 -1465996308104 1465996000584 307522 -1465996308107 -304033 -1465996000585 1465996308106 304033 -304034 -1465996308079 1465996000559 19485028 -1465996307770 -1465996603498 1021 1465996307806 -1465996308098 1465996309527 -307520 307521 -1465996307806 1465996000213 -1465996000576 1465996000576 19485026 -19177505 307520 -479620 -1465996000213 1465996002006 -19177506 -1465996000559 -1465996481211 1465996513637 73800 -73800 18971936 -18880331 -124031 -1465996481239 1797 1465996511173 696 -35324415 -1465961189252 1761 1465961187491 1759 34 -1801 339 1465996480907 32427 -1465996513667 1465961189252 -1465961187491 -1760 1760 1465996479445 -1465996481246 1465996513673 -1465996513334 1465961188919 35324415 -1465996513637 1465996513636 -693 -1465996512944 1465996512944 74493 17805 -1465996605271 -339 1465996512970 -1465996512975 -35323903 -1465961190482 1465961190685 54296332 1465961187270 35323911 -1465996512979 -1465996612135 334 1460 1465961188730 1465961190482 54296297 -54296298 -1465961189271 1466015485601 -18873462 18873429 1465996512975 -1465996511181 365 1465996512609 -1465961187270 1465961187272 35323909 18873430 -1466015485569 -54296313 35422851 -1466015485564 1466015485599 -1466015483806 54296534 -1746 1746 1465961187507 -18972628 -1465996512943 1465996512943 693 18880331 -18971917 18971917 -18971935 -1465961189268 -35 1465961187473 54296333 -19004362 -1465996513673 1465961189274 -1465961188935 -333 -1465961189267 -1465996511906 -1761 -1766 1801 1465996511907 -1428 1465961187508 -1465961187507 1465996513666 333 -34 35324399 1428 -1465961187508 1465996479480 -1465996479445 -1465961189274 1465961188935 1465996481240 54296336 -19004363 32444 -1465996513636 18971938 19004365 -19003569 -813 24 -1465996481250 1465996481250 19004357 -1466015483805 1466015483804 -1466015485300 1465996002002 19484901 1465996480947 -57 1465996307734 -1465996309527 1465996309526 19177507 -1465996308106 1465996497784 114355 -34851718 -1465961760401 -1465996586165 1465961763143 -93130 -88933 88929 1465996308069 -29 399 -1465996307709 13 1465996494521 88918 -19177504 19177506 1465996308070 189680 -1465996497785 -35410018 -1465961202121 -19177502 19177503 -18987825 196704 1465978617043 14790223 3099310 -3099310 -1465993407497 -3099311 3099311 22078086 -22078086 3082928 -1465996506576 -231 1465977550859 18955949 18978776 -1465996482647 1465996482729 -18978775 -2022 
Potential of Offsets elements: 54.9554 903.955 79.9554 45.9554 72.9554 81.9554 105.955 33.9554 27.9554 55.9554 54.9554 272.955 72.9554 57.9554 196.955 59.9554 27.9554 27.9554 43.9554 27.9554 27.9554 27.9554 27.9554 27.9554 66.9554 27.9554 27.9554 27.9554 27.9554 27.9554 1390.13 27.9554 43.9554 111.955 87.9554 76.9554 51.9554 195.955 167.955 38.9554 32.9554 27.9554 97.9554 565.955 27.9554 27.9554 27.9554 51.9554 225.955 332.955 94.9554 27.9554 42.9554 82.9554 54.9554 42.9554 252.955 52.9554 31.9554 27.9554 27.9554 27.9554 27.9554 27.9554 27.9554 27.9554 27.9554 75.9554 27.9554 27.9554 498.955 56.9554 47.9554 46.9554 120.955 27.9554 27.9554 27.9554 27.9554 27.9554 27.9554 287.955 27.9554 27.9554 29.9554 27.9554 28.9554 33.9554 27.9554 27.9554 27.9554 27.9554 29.9554 27.9554 27.9554 27.9554 27.9554 27.9554 27.9554 27.9554 27.9554 27.9554 27.9554 27.9554 27.9554 27.9554 27.9554 27.9554 27.9554 27.9554 27.9554 27.9554 27.9554 27.9554 27.9554 27.9554 27.9554 27.9554 400.955 27.9554 27.9554 27.9554 27.9554 27.9554 27.9554 27.9554 27.9554 27.9554 27.9554 27.9554 27.9554 27.9554 27.9554 27.9554 27.9554 915.955 27.9554 323.955 27.9554 30.9554 27.9554 27.9554 27.9554 27.9554 27.9554 27.9554 1246.96 660.955 441.955 27.9554 27.9554 27.9554 27.9554 27.9554 27.9554 27.9554 27.9554 27.9554 27.9554 27.9554 27.9554 27.9554 27.9554 28.9554 27.9554 29.9554 33.9554 27.9554 27.9554 27.9554 27.9554 27.9554 59.9554 27.9554 34.9554 75.9554 27.9554 54.9554 30.9554 27.9554 34.9554 34.9554 27.9554 27.9554 34.9554 27.9554 27.9554 27.9554 27.9554 27.9554 27.9554 27.9554 353.955 35.9554 48.9554 27.9554 27.9554 27.9554 27.9554 27.9554 27.9554 27.9554 136.955 33.9554 27.9554 100.955 55.9554 27.9554 87.9554 27.9554 27.9554 27.9554 27.9554 27.9554 247.955 27.9554 30.9554 149.955 117.955 99.9554 27.9554 27.9554 27.9554 27.9554 27.9554 27.9554 137.955 82.9554 57.9554 36.9554 82.9554 36.9554 148.955 27.9554 27.9554 27.9554 115.955 27.9554 27.9554 27.9554 27.9554 27.9554 27.9554 27.9554 67.9554 27.9554 72.9554 27.9554 27.9554 92.9554 27.9554 27.9554 27.9554 27.9554 176.955 27.9554 27.9554 27.9554 27.9554 27.9554 27.9554 27.9554 27.9554 27.9554 27.9554 27.9554 27.9554 27.9554 27.9554 27.9554 27.9554 27.9554 27.9554 27.9554 27.9554 27.9554 27.9554 27.9554 27.9554 27.9554 27.9554 27.9554 27.9554 27.9554 27.9554 27.9554 27.9554 27.9554 27.9554 27.9554 27.9554 27.9554 27.9554 27.9554 27.9554 33.9554 27.9554 27.9554 27.9554 31.9554 27.9554 27.9554 27.9554 27.9554 903.955 27.9554 27.9554 27.9554 27.9554 27.9554 27.9554 27.9554 27.9554 27.9554 27.9554 27.9554 27.9554 27.9554 27.9554 589.955 27.9554 27.9554 268.955 27.9554 27.9554 29.9554 27.9554 27.9554 27.9554 27.9554 27.9554 27.9554 27.9554 27.9554 27.9554 29.9554 27.9554 28.9554 27.9554 27.9554 39.9554 27.9554 27.9554 27.9554 27.9554 27.9554 27.9554 27.9554 27.9554 27.9554 29.9554 27.9554 27.9554 27.9554 27.9554 72.9554 315.955 69.9554 27.9554 57.9554 96.9554 580.955 127.955 81.9554 99.9554 27.9554 214.955 27.9554 43.9554 33.9554 33.9554 27.9554 27.9554 27.9554 127.955 34.9554 541.955 123.955 37.9554 27.9554 90.9554 126.955 79.9554 57.9554 483.955 130.955 27.9554 27.9554 27.9554 41.9554 27.9554 27.9554 27.9554 27.9554 43.9554 27.9554 27.9554 29.9554 27.9554 27.9554 27.9554 27.9554 27.9554 27.9554 45.9554 28.9554 27.9554 27.9554 38.9554 27.9554 28.9554 27.9554 27.9554 353.955 27.9554 27.9554 27.9554 27.9554 27.9554 27.9554 27.9554 27.9554 27.9554 27.9554 27.9554 27.9554 27.9554 27.9554 27.9554 35.9554 27.9554 27.9554 427.955 27.9554 27.9554 27.9554 27.9554 27.9554 27.9554 27.9554 923.588 81.9554 27.9554 27.9554 31.9554 27.9554 27.9554 33.9554 27.9554 28.9554 27.9554 27.9554 27.9554 35.9554 63.9554 45.9554 35.9554 30.9554 27.9554 37.9554 405.955 294.955 97.9554 27.9554 27.9554 27.9554 27.9554 27.9554 147.955 27.9554 27.9554 27.9554 63.9554 27.9554 27.9554 27.9554 478.955 27.9554 75.9554 27.9554 27.9554 27.9554 27.9554 27.9554 27.9554 27.9554 101.955 27.9554 27.9554 37.9554 27.9554 27.9554 27.9554 27.9554 27.9554 41.9554 27.9554 27.9554 27.9554 27.9554 27.9554 414.955 549.955 27.9554 27.9554 27.9554 27.9554 27.9554 27.9554 27.9554 27.9554 27.9554 27.9554 27.9554 27.9554 27.9554 36.9554 27.9554 34.9554 27.9554 27.9554 27.9554 1325.96 27.9554 27.9554 27.9554 27.9554 27.9554 27.9554 27.9554 27.9554 27.9554 27.9554 174.955 28.9554 27.9554 27.9554 27.9554 29.9554 87.9554 27.9554 135.955 27.9554 27.9554 27.9554 27.9554 117.955 62.9554 52.9554 27.9554 27.9554 59.9554 27.9554 54.9554 31.9554 76.9554 30.9554 27.9554 47.9554 27.9554 75.9554 55.9554 83.9554 39.9554 27.9554 27.9554 27.9554 27.9554 111.955 207.955 69.9554 85.9554 45.9554 27.9554 51.9554 177.955 27.9554 45.9554 27.9554 27.9554 27.9554 27.9554 27.9554 31.9554 33.9554 27.9554 79.9554 27.9554 27.9554 29.9554 35.9554 27.9554 27.9554 75.9554 27.9554 45.9554 27.9554 37.9554 36.9554 27.9554 27.9554 27.9554 47.9554 27.9554 27.9554 27.9554 27.9554 27.9554 27.9554 27.9554 27.9554 35.9554 27.9554 27.9554 27.9554 60.9554 27.9554 27.9554 27.9554 27.9554 27.9554 27.9554 27.9554 27.9554 27.9554 27.9554 27.9554 27.9554 27.9554 27.9554 27.9554 27.9554 27.9554 27.9554 27.9554 27.9554 27.9554 27.9554 65.9554 363.955 27.9554 27.9554 522.955 27.9554 27.9554 27.9554 27.9554 27.9554 27.9554 27.9554 27.9554 27.9554 27.9554 27.9554 27.9554 27.9554 57.9554 27.9554 27.9554 27.9554 27.9554 27.9554 27.9554 27.9554 27.9554 27.9554 27.9554 27.9554 27.9554 27.9554 27.9554 27.9554 27.9554 27.9554 27.9554 27.9554 27.9554 27.9554 27.9554 27.9554 27.9554 27.9554 27.9554 27.9554 27.9554 27.9554 27.9554 27.9554 27.9554 27.9554 27.9554 27.9554 27.9554 27.9554 27.9554 27.9554 27.9554 27.9554 27.9554 27.9554 27.9554 27.9554 27.9554 27.9554 27.9554 27.9554 27.9554 27.9554 27.9554 27.9554 35.9554 27.9554 42.9554 27.9554 27.9554 27.9554 27.9554 27.9554 33.9554 28.9554 69.9554 27.9554 27.9554 27.9554 27.9554 27.9554 27.9554 27.9554 27.9554 27.9554 69.9554 31.9554 27.9554 27.9554 27.9554 28.9554 40.9554 27.9554 27.9554 29.9554 27.9554 27.9554 27.9554 27.9554 29.9554 55.9554 27.9554 27.9554 29.9554 27.9554 27.9554 27.9554 27.9554 87.9554 84.9554 27.9554 27.9554 132.955 27.9554 27.9554 27.9554 27.9554 27.9554 59.9554 43.9554 38.9554 27.9554 31.9554 27.9554 27.9554 29.9554 27.9554 27.9554 31.9554 27.9554 27.9554 27.9554 27.9554 27.9554 27.9554 27.9554 45.9554 27.9554 283.955 27.9554 27.9554 27.9554 27.9554 27.9554 27.9554 27.9554 27.9554 27.9554 27.9554 27.9554 27.9554 27.9554 27.9554 27.9554 27.9554 27.9554 27.9554 27.9554 27.9554 27.9554 27.9554 27.9554 27.9554 27.9554 27.9554 27.9554 27.9554 27.9554 27.9554 27.9554 27.9554 27.9554 29.9554 27.9554 27.9554 27.9554 27.9554 27.9554 27.9554 27.9554 27.9554 29.9554 27.9554 27.9554 27.9554 37.9554 27.9554 27.9554 27.9554 27.9554 27.9554 27.9554 27.9554 27.9554 27.9554 27.9554 27.9554 27.9554 27.9554 62.9554 27.9554 27.9554 27.9554 27.9554 27.9554 27.9554 27.9554 27.9554 27.9554 27.9554 27.9554 282.955 34.9554 43.9554 27.9554 29.9554 27.9554 27.9554 27.9554 27.9554 27.9554 47.9554 47.9554 27.9554 27.9554 27.9554 27.9554 27.9554 27.9554 27.9554 27.9554 70.9554 27.9554 27.9554 27.9554 27.9554 27.9554 27.9554 27.9554 156.955 27.9554 27.9554 27.9554 27.9554 27.9554 27.9554 27.9554 27.9554 27.9554 27.9554 27.9554 48.9554 42.9554 27.9554 67.9554 27.9554 27.9554 27.9554 195.955 72.9554 27.9554 27.9554 27.9554 27.9554 27.9554 83.9554 27.9554 27.9554 27.9554 27.9554 27.9554 27.9554 27.9554 132.955 27.9554 27.9554 36.9554 27.9554 27.9554 27.9554 27.9554 27.9554 27.9554 27.9554 27.9554 27.9554 27.9554 88.9554 27.9554 27.9554 27.9554 27.9554 27.9554 486.955 27.9554 27.9554 27.9554 27.9554 27.9554 27.9554 27.9554 27.9554 33.9554 27.9554 43.9554 27.9554 27.9554 27.9554 27.9554 27.9554 27.9554 36.9554 51.9554 27.9554 29.9554 27.9554 51.9554 27.9554 27.9554 27.9554 27.9554 27.9554 27.9554 27.9554 27.9554 27.9554 27.9554 27.9554 27.9554 27.9554 27.9554 27.9554 27.9554 63.9554 27.9554 27.9554 27.9554 27.9554 27.9554 27.9554 27.9554 27.9554 27.9554 27.9554 27.9554 27.9554 27.9554 27.9554 27.9554 27.9554 27.9554 27.9554 27.9554 27.9554 33.9554 27.9554 27.9554 27.9554 27.9554 27.9554 27.9554 27.9554 27.9554 27.9554 27.9554 27.9554 27.9554 27.9554 27.9554 27.9554 27.9554 27.9554 27.9554 27.9554 27.9554 27.9554 27.9554 27.9554 27.9554 27.9554 27.9554 27.9554 27.9554 27.9554 27.9554 27.9554 27.9554 27.9554 27.9554 27.9554 27.9554 27.9554 42.9554 27.9554 27.9554 27.9554 27.9554 27.9554 27.9554 27.9554 27.9554 27.9554 27.9554 27.9554 27.9554 27.9554 27.9554 27.9554 27.9554 29.9554 27.9554 27.9554 60.9554 27.9554 27.9554 27.9554 27.9554 27.9554 27.9554 27.9554 27.9554 27.9554 27.9554 27.9554 27.9554 27.9554 27.9554 27.9554 27.9554 27.9554 27.9554 46.9554 27.9554 27.9554 27.9554 27.9554 28.9554 27.9554 27.9554 31.9554 27.9554 27.9554 27.9554 27.9554 27.9554 27.9554 27.9554 27.9554 27.9554 27.9554 27.9554 27.9554 27.9554 27.9554 27.9554 27.9554 27.9554 27.9554 27.9554 27.9554 27.9554 27.9554 27.9554 27.9554 27.9554 27.9554 27.9554 27.9554 27.9554 27.9554 27.9554 27.9554 27.9554 27.9554 27.9554 27.9554 27.9554 27.9554 510.955 326.955 368.955 27.9554 27.9554 27.9554 27.9554 27.9554 27.9554 27.9554 27.9554 27.9554 27.9554 35.9554 27.9554 27.9554 27.9554 27.9554 27.9554 27.9554 27.9554 27.9554 27.9554 27.9554 27.9554 27.9554 27.9554 27.9554 27.9554 27.9554 27.9554 40.9554 27.9554 27.9554 27.9554 27.9554 27.9554 27.9554 27.9554 27.9554 27.9554 27.9554 27.9554 27.9554 27.9554 27.9554 27.9554 27.9554 27.9554 27.9554 27.9554 27.9554 27.9554 27.9554 27.9554 27.9554 27.9554 27.9554 40.9554 27.9554 27.9554 27.9554 27.9554 27.9554 27.9554 27.9554 142.955 27.9554 27.9554 27.9554 27.9554 27.9554 27.9554 27.9554 27.9554 27.9554 27.9554 27.9554 27.9554 27.9554 27.9554 27.9554 27.9554 27.9554 27.9554 27.9554 27.9554 27.9554 27.9554 39.9554 27.9554 27.9554 27.9554 27.9554 27.9554 27.9554 27.9554 27.9554 27.9554 27.9554 27.9554 27.9554 27.9554 36.9554 27.9554 27.9554 27.9554 27.9554 27.9554 27.9554 27.9554 27.9554 27.9554 27.9554 27.9554 27.9554 27.9554 27.9554 27.9554 27.9554 27.9554 27.9554 27.9554 27.9554 27.9554 27.9554 27.9554 27.9554 27.9554 27.9554 27.9554 27.9554 27.9554 27.9554 27.9554 27.9554 27.9554 27.9554 31.9554 27.9554 27.9554 27.9554 27.9554 27.9554 27.9554 31.9554 27.9554 27.9554 27.9554 27.9554 47.9554 27.9554 27.9554 27.9554 27.9554 27.9554 27.9554 114.955 27.9554 27.9554 27.9554 27.9554 27.9554 27.9554 27.9554 27.9554 27.9554 27.9554 27.9554 27.9554 27.9554 27.9554 27.9554 29.9554 54.9554 27.9554 27.9554 27.9554 33.9554 27.9554 63.9554 27.9554 27.9554 27.9554 27.9554 27.9554 27.9554 27.9554 27.9554 27.9554 27.9554 27.9554 27.9554 27.9554 27.9554 27.9554 33.9554 27.9554 27.9554 27.9554 54.9554 27.9554 27.9554 247.955 29.9554 27.9554 27.9554 27.9554 27.9554 27.9554 27.9554 27.9554 27.9554 27.9554 27.9554 27.9554 27.9554 27.9554 27.9554 27.9554 27.9554 27.9554 27.9554 27.9554 27.9554 27.9554 27.9554 27.9554 27.9554 27.9554 27.9554 27.9554 33.9554 27.9554 27.9554 31.9554 
rewards of Offsets elements: 27 876 52 18 45 54 78 6 0 28 27 245 45 30 169 32 0 0 16 0 0 0 0 0 39 0 0 0 0 0 1390 0 16 84 60 49 24 168 140 11 5 0 70 538 0 0 0 24 198 305 67 0 15 55 27 15 225 25 4 0 0 0 0 0 0 0 0 48 0 0 471 29 20 19 93 0 0 0 0 0 0 260 0 0 2 0 1 6 0 0 0 0 2 0 0 0 0 0 0 0 0 0 0 0 0 0 0 0 0 0 0 0 0 0 0 0 0 0 373 0 0 0 0 0 0 0 0 0 0 0 0 0 0 0 0 888 0 296 0 3 0 0 0 0 0 0 1219 633 414 0 0 0 0 0 0 0 0 0 0 0 0 0 0 1 0 2 6 0 0 0 0 0 32 0 7 48 0 27 3 0 7 7 0 0 7 0 0 0 0 0 0 0 326 8 21 0 0 0 0 0 0 0 109 6 0 73 28 0 60 0 0 0 0 0 220 0 3 122 90 72 0 0 0 0 0 0 110 55 30 9 55 9 121 0 0 0 88 0 0 0 0 0 0 0 40 0 45 0 0 65 0 0 0 0 149 0 0 0 0 0 0 0 0 0 0 0 0 0 0 0 0 0 0 0 0 0 0 0 0 0 0 0 0 0 0 0 0 0 0 0 0 0 0 0 0 6 0 0 0 4 0 0 0 0 876 0 0 0 0 0 0 0 0 0 0 0 0 0 0 562 0 0 241 0 0 2 0 0 0 0 0 0 0 0 0 2 0 1 0 0 12 0 0 0 0 0 0 0 0 0 2 0 0 0 0 45 288 42 0 30 69 553 100 54 72 0 187 0 16 6 6 0 0 0 100 7 514 96 10 0 63 99 52 30 456 103 0 0 0 14 0 0 0 0 16 0 0 2 0 0 0 0 0 0 18 1 0 0 11 0 1 0 0 326 0 0 0 0 0 0 0 0 0 0 0 0 0 0 0 8 0 0 400 0 0 0 0 0 0 0 923 54 0 0 4 0 0 6 0 1 0 0 0 8 36 18 8 3 0 10 378 267 70 0 0 0 0 0 120 0 0 0 36 0 0 0 451 0 48 0 0 0 0 0 0 0 74 0 0 10 0 0 0 0 0 14 0 0 0 0 0 387 522 0 0 0 0 0 0 0 0 0 0 0 0 0 9 0 7 0 0 0 1298 0 0 0 0 0 0 0 0 0 0 147 1 0 0 0 2 60 0 108 0 0 0 0 90 35 25 0 0 32 0 27 4 49 3 0 20 0 48 28 56 12 0 0 0 0 84 180 42 58 18 0 24 150 0 18 0 0 0 0 0 4 6 0 52 0 0 2 8 0 0 48 0 18 0 10 9 0 0 0 20 0 0 0 0 0 0 0 0 8 0 0 0 33 0 0 0 0 0 0 0 0 0 0 0 0 0 0 0 0 0 0 0 0 0 0 38 336 0 0 495 0 0 0 0 0 0 0 0 0 0 0 0 0 30 0 0 0 0 0 0 0 0 0 0 0 0 0 0 0 0 0 0 0 0 0 0 0 0 0 0 0 0 0 0 0 0 0 0 0 0 0 0 0 0 0 0 0 0 0 0 0 0 0 0 0 0 0 8 0 15 0 0 0 0 0 6 1 42 0 0 0 0 0 0 0 0 0 42 4 0 0 0 1 13 0 0 2 0 0 0 0 2 28 0 0 2 0 0 0 0 60 57 0 0 105 0 0 0 0 0 32 16 11 0 4 0 0 2 0 0 4 0 0 0 0 0 0 0 18 0 256 0 0 0 0 0 0 0 0 0 0 0 0 0 0 0 0 0 0 0 0 0 0 0 0 0 0 0 0 0 0 0 0 0 2 0 0 0 0 0 0 0 0 2 0 0 0 10 0 0 0 0 0 0 0 0 0 0 0 0 0 35 0 0 0 0 0 0 0 0 0 0 0 255 7 16 0 2 0 0 0 0 0 20 20 0 0 0 0 0 0 0 0 43 0 0 0 0 0 0 0 129 0 0 0 0 0 0 0 0 0 0 0 21 15 0 40 0 0 0 168 45 0 0 0 0 0 56 0 0 0 0 0 0 0 105 0 0 9 0 0 0 0 0 0 0 0 0 0 61 0 0 0 0 0 459 0 0 0 0 0 0 0 0 6 0 16 0 0 0 0 0 0 9 24 0 2 0 24 0 0 0 0 0 0 0 0 0 0 0 0 0 0 0 0 36 0 0 0 0 0 0 0 0 0 0 0 0 0 0 0 0 0 0 0 0 6 0 0 0 0 0 0 0 0 0 0 0 0 0 0 0 0 0 0 0 0 0 0 0 0 0 0 0 0 0 0 0 0 0 0 0 0 0 15 0 0 0 0 0 0 0 0 0 0 0 0 0 0 0 0 2 0 0 33 0 0 0 0 0 0 0 0 0 0 0 0 0 0 0 0 0 0 19 0 0 0 0 1 0 0 4 0 0 0 0 0 0 0 0 0 0 0 0 0 0 0 0 0 0 0 0 0 0 0 0 0 0 0 0 0 0 0 0 0 0 0 0 0 0 483 299 341 0 0 0 0 0 0 0 0 0 0 8 0 0 0 0 0 0 0 0 0 0 0 0 0 0 0 0 0 13 0 0 0 0 0 0 0 0 0 0 0 0 0 0 0 0 0 0 0 0 0 0 0 0 0 0 13 0 0 0 0 0 0 0 115 0 0 0 0 0 0 0 0 0 0 0 0 0 0 0 0 0 0 0 0 0 0 12 0 0 0 0 0 0 0 0 0 0 0 0 0 9 0 0 0 0 0 0 0 0 0 0 0 0 0 0 0 0 0 0 0 0 0 0 0 0 0 0 0 0 0 0 0 0 0 0 4 0 0 0 0 0 0 4 0 0 0 0 20 0 0 0 0 0 0 87 0 0 0 0 0 0 0 0 0 0 0 0 0 0 0 2 27 0 0 0 6 0 36 0 0 0 0 0 0 0 0 0 0 0 0 0 0 0 6 0 0 0 27 0 0 220 2 0 0 0 0 0 0 0 0 0 0 0 0 0 0 0 0 0 0 0 0 0 0 0 0 0 0 0 6 0 0 4 Printing Sanity3
offset_index value1359
offset list size1359
reward size1359
potential size1359
-----------------------------------------------------------------------------------------------------------------------------------------------------------------------------------------------------

DRAM Statistics
 CHANNEL 0
 RQ ROW_BUFFER_HIT:    1677895  ROW_BUFFER_MISS:    2784400
 DBUS_CONGESTED:       1531
 WQ ROW_BUFFER_HIT:     679970  ROW_BUFFER_MISS:    2303682  FULL:      44120

 AVG_CONGESTED_CYCLE: 3
 All warmup complete: 2
Channel 0 Bank busy for read cycles: 0
Channel 0 Bank busy for write cycles: 0
Channel 0
Rank 0
0banks busy for read cycles: 165347242
0banks busy for write cycles: 216768
1banks busy for read cycles: 67427656
1banks busy for write cycles: 31510081
2banks busy for read cycles: 25492608
2banks busy for write cycles: 16121178
3banks busy for read cycles: 19903495
3banks busy for write cycles: 9891282
4banks busy for read cycles: 6932085
4banks busy for write cycles: 6445139
5banks busy for read cycles: 5638915
5banks busy for write cycles: 4664459
6banks busy for read cycles: 6732866
6banks busy for write cycles: 3954048
7banks busy for read cycles: 12297178
7banks busy for write cycles: 6413710
8banks busy for read cycles: 19033665
8banks busy for write cycles: 42319119

CPU 0 Branch Prediction Accuracy: 99.9365% MPKI: 0.098915 Average ROB Occupancy at Mispredict: 108.209
Branch types
NOT_BRANCH: 168850935 84.4255%
BRANCH_DIRECT_JUMP: 1694760 0.84738%
BRANCH_INDIRECT: 9830410 4.91521%
BRANCH_CONDITIONAL: 12963086 6.48154%
BRANCH_DIRECT_CALL: 2643025 1.32151%
BRANCH_INDIRECT_CALL: 687193 0.343597%
BRANCH_RETURN: 3330237 1.66512%
BRANCH_OTHER: 0 0%

DRAM PAGES: 1048576
Allocated PAGES: 25901
