
*** ChampSim Multicore Out-of-Order Simulator ***

Warmup Instructions: 50000000
Simulation Instructions: 200000000
Number of CPUs: 1
LLC sets: 2048
LLC ways: 16
Off-chip DRAM Size: 4096 MB Channels: 1 Width: 64-bit Data Rate: 6400 MT/s
CPU 0 runs traces/spec2k17/server_013.champsimtrace.xz
.xz
BTB has LRU replacement policy
ITLB has LRU replacement policy
DTLB has LRU replacement policy
STLB has LRU replacement policy
L1I has LRU replacement policy
L1D has LRU replacement policy
Initialize SRRIP state for L2C
Initialize DRRIP state for LLC
Heartbeat CPU 0 instructions: 10000002 cycles: 2778817 heartbeat IPC: 3.59865 cumulative IPC: 3.59865 (Simulation time: 0 hr 0 min 35 sec) 
Heartbeat CPU 0 instructions: 20000002 cycles: 5552918 heartbeat IPC: 3.60477 cumulative IPC: 3.60171 (Simulation time: 0 hr 1 min 12 sec) 
Heartbeat CPU 0 instructions: 30000000 cycles: 8328703 heartbeat IPC: 3.60258 cumulative IPC: 3.602 (Simulation time: 0 hr 1 min 47 sec) 
Heartbeat CPU 0 instructions: 40000002 cycles: 11104316 heartbeat IPC: 3.60281 cumulative IPC: 3.6022 (Simulation time: 0 hr 2 min 23 sec) 
Heartbeat CPU 0 instructions: 50000002 cycles: 13879159 heartbeat IPC: 3.60381 cumulative IPC: 3.60252 (Simulation time: 0 hr 2 min 59 sec) 

Warmup complete CPU 0 instructions: 50000002 cycles: 13879159 (Simulation time: 0 hr 2 min 59 sec) 

Offsets elements: 
Potential of Offsets elements: 
rewards of Offsets elements: 
Printing Sanity1
offset list size1294
Offsets elements: 
Potential of Offsets elements: 
rewards of Offsets elements: 0 0 2006 0 0 0 2057 0 0 5 842 0 0 0 0 0 0 0 0 0 0 0 0 0 0 93 421 2315 1108 1245 0 0 0 0 0 0 1070 29 0 0 0 0 0 0 549 0 0 0 0 194 2677 36 0 0 1 152 0 0 0 0 0 0 0 0 0 0 0 0 0 0 0 0 0 0 0 0 0 0 0 0 0 0 0 0 0 0 0 0 0 0 0 0 0 0 0 545 0 0 0 0 94 0 0 0 0 0 0 0 0 0 0 786 0 0 0 0 0 0 0 0 0 0 0 0 0 0 0 0 0 0 0 0 0 0 0 0 0 0 0 0 0 0 0 0 0 0 0 0 0 0 0 0 0 0 0 0 0 0 0 0 0 0 0 0 0 0 0 0 0 0 4 7 0 0 0 0 0 0 0 0 0 0 0 0 0 0 0 0 0 0 0 0 0 0 0 0 0 0 0 0 0 0 0 0 0 0 0 0 0 0 0 0 0 0 0 0 0 0 0 0 0 0 0 0 0 0 0 0 0 0 0 0 0 0 0 0 0 0 0 0 0 0 0 0 0 0 0 0 0 0 0 0 0 0 0 0 0 0 0 0 0 0 0 0 0 0 0 0 0 0 0 0 0 0 0 0 0 0 0 0 0 0 0 0 0 0 0 0 0 0 0 12 0 0 0 0 0 0 0 1624 0 0 0 0 0 0 0 0 0 0 0 0 0 0 0 0 0 0 0 0 0 0 0 0 0 0 765 0 0 140 0 0 0 0 0 38 0 0 0 0 0 0 0 0 0 0 0 0 0 0 0 0 0 0 0 0 0 0 0 0 0 0 0 0 0 0 0 0 0 0 0 0 0 0 0 0 0 0 0 0 0 0 0 0 0 0 0 0 0 0 0 0 0 0 0 0 0 0 0 0 0 0 0 0 0 0 0 0 0 0 0 0 0 262 0 0 0 0 0 5 304 0 0 0 0 0 1 0 0 0 0 0 0 0 0 0 552 0 0 0 0 0 0 0 0 0 0 0 0 0 0 0 0 0 0 73 0 0 0 0 0 0 0 0 0 0 0 0 0 0 0 12 0 0 0 0 0 0 0 0 0 0 0 0 0 0 0 0 0 0 0 0 0 0 0 0 0 0 0 0 0 0 0 0 0 10 0 0 0 0 0 0 0 0 0 156 0 0 0 0 0 0 0 0 0 0 0 0 0 204 0 0 0 0 0 0 0 60 0 0 0 0 0 0 0 0 0 0 0 0 0 0 0 0 0 0 0 0 0 0 0 0 0 0 0 0 0 0 0 0 0 0 0 0 0 0 0 0 0 0 0 0 0 0 0 0 0 0 0 0 0 0 0 0 0 0 0 0 0 0 0 0 0 0 0 0 0 0 0 0 0 0 0 0 0 0 0 26 0 0 0 0 0 0 0 0 0 0 0 0 53 0 0 47 0 0 0 0 0 0 0 0 0 0 0 0 0 0 0 0 0 2 0 0 0 0 0 0 0 0 0 0 0 0 0 0 0 0 0 0 0 0 0 0 0 0 0 0 0 0 0 0 0 0 0 0 0 0 0 0 0 0 0 0 0 0 0 0 0 0 0 0 0 0 0 0 0 0 0 0 0 0 0 0 0 0 0 0 0 0 0 0 0 0 0 0 0 0 0 0 0 0 0 0 0 0 0 0 0 0 0 0 0 0 0 0 0 0 0 0 0 0 0 0 0 0 0 0 0 0 0 0 0 0 0 0 0 0 0 0 0 0 0 0 0 0 0 0 0 0 0 0 0 0 0 0 0 0 0 0 0 0 0 0 0 0 0 0 0 0 0 0 0 0 0 0 0 0 0 0 0 0 0 0 0 0 0 0 0 0 0 0 0 0 0 0 0 0 0 0 0 0 0 0 0 0 0 0 12 0 0 0 0 0 0 0 0 0 0 0 0 0 0 0 0 0 0 0 0 0 0 0 0 0 0 0 0 0 0 0 0 0 0 0 0 0 0 0 0 0 0 0 0 0 0 0 0 0 0 0 0 0 0 0 0 0 0 0 0 0 0 0 0 0 0 0 0 0 0 0 0 0 0 0 0 0 0 0 0 0 0 0 0 0 0 0 0 0 0 0 0 0 0 0 0 0 0 0 0 0 0 0 0 0 0 0 0 60 0 0 0 0 0 84 121 288 144 121 0 0 8 0 0 0 0 0 54 0 0 0 0 0 0 1 0 0 0 0 0 0 0 0 0 0 0 0 0 0 0 0 0 0 0 0 0 0 0 0 0 0 0 0 0 0 0 0 0 0 0 0 0 0 0 0 0 0 0 0 0 0 0 0 4 0 0 18 0 6 0 0 0 0 0 0 0 0 0 0 0 0 0 0 0 0 0 0 0 0 0 0 0 0 0 0 120 0 0 0 0 0 0 0 0 0 16 0 0 0 0 0 0 0 0 0 0 0 0 0 0 0 0 0 0 0 0 0 0 0 0 0 0 0 0 0 0 0 0 0 0 0 0 0 0 0 0 0 0 0 0 0 0 0 0 0 0 0 0 0 0 0 0 0 0 0 0 0 0 0 0 0 0 0 0 0 0 0 0 0 0 0 0 0 128 109 0 0 0 0 0 0 0 0 0 0 0 0 0 0 0 0 0 0 0 102 121 42 0 0 0 0 0 0 0 0 0 15 0 0 0 0 0 0 0 0 0 0 27 0 156 0 18 0 0 0 0 0 0 0 0 0 0 0 0 0 0 0 0 0 0 0 0 0 0 0 0 0 0 0 0 0 0 0 0 0 0 0 0 0 0 0 0 0 0 0 0 0 0 0 0 0 0 0 0 0 0 0 0 0 0 0 0 0 0 0 0 0 0 0 0 0 0 0 0 0 0 0 0 0 0 0 0 0 0 0 0 0 0 0 0 0 0 0 0 0 0 0 0 0 0 0 0 0 0 0 
Printing Sanity2
Heartbeat CPU 0 instructions: 60000003 cycles: 38706721 heartbeat IPC: 0.402778 cumulative IPC: 0.402778 (Simulation time: 0 hr 4 min 2 sec) 
Heartbeat CPU 0 instructions: 70000000 cycles: 63114608 heartbeat IPC: 0.409704 cumulative IPC: 0.406211 (Simulation time: 0 hr 5 min 3 sec) 
Heartbeat CPU 0 instructions: 80000001 cycles: 87267413 heartbeat IPC: 0.414031 cumulative IPC: 0.408785 (Simulation time: 0 hr 6 min 6 sec) 
Heartbeat CPU 0 instructions: 90000001 cycles: 111047007 heartbeat IPC: 0.420529 cumulative IPC: 0.411659 (Simulation time: 0 hr 7 min 6 sec) 
Heartbeat CPU 0 instructions: 100000001 cycles: 135203161 heartbeat IPC: 0.413973 cumulative IPC: 0.41212 (Simulation time: 0 hr 8 min 6 sec) 
*** Reached end of trace for Core: 0 Repeating trace: traces/spec2k17/server_013.champsimtrace.xz
Heartbeat CPU 0 instructions: 110000000 cycles: 159113118 heartbeat IPC: 0.418236 cumulative IPC: 0.413126 (Simulation time: 0 hr 9 min 7 sec) 
Heartbeat CPU 0 instructions: 120000000 cycles: 183007552 heartbeat IPC: 0.418508 cumulative IPC: 0.413887 (Simulation time: 0 hr 10 min 9 sec) 
Heartbeat CPU 0 instructions: 130000003 cycles: 207069648 heartbeat IPC: 0.415592 cumulative IPC: 0.414099 (Simulation time: 0 hr 11 min 9 sec) 
Heartbeat CPU 0 instructions: 140000001 cycles: 231403584 heartbeat IPC: 0.410949 cumulative IPC: 0.413747 (Simulation time: 0 hr 12 min 12 sec) 
Heartbeat CPU 0 instructions: 150000002 cycles: 255444494 heartbeat IPC: 0.415958 cumulative IPC: 0.413967 (Simulation time: 0 hr 13 min 14 sec) 
Heartbeat CPU 0 instructions: 160000000 cycles: 280472175 heartbeat IPC: 0.399558 cumulative IPC: 0.412614 (Simulation time: 0 hr 14 min 16 sec) 
Heartbeat CPU 0 instructions: 170000000 cycles: 304153618 heartbeat IPC: 0.422272 cumulative IPC: 0.413402 (Simulation time: 0 hr 15 min 17 sec) 
Heartbeat CPU 0 instructions: 180000002 cycles: 328603658 heartbeat IPC: 0.408997 cumulative IPC: 0.41306 (Simulation time: 0 hr 16 min 19 sec) 
Heartbeat CPU 0 instructions: 190000001 cycles: 352500584 heartbeat IPC: 0.418464 cumulative IPC: 0.413441 (Simulation time: 0 hr 17 min 21 sec) 
Heartbeat CPU 0 instructions: 200000000 cycles: 376384258 heartbeat IPC: 0.418696 cumulative IPC: 0.413787 (Simulation time: 0 hr 18 min 22 sec) 
*** Reached end of trace for Core: 0 Repeating trace: traces/spec2k17/server_013.champsimtrace.xz
Heartbeat CPU 0 instructions: 210000003 cycles: 400844988 heartbeat IPC: 0.408819 cumulative IPC: 0.413473 (Simulation time: 0 hr 19 min 25 sec) 
Heartbeat CPU 0 instructions: 220000000 cycles: 424311307 heartbeat IPC: 0.426143 cumulative IPC: 0.414198 (Simulation time: 0 hr 20 min 28 sec) 
Heartbeat CPU 0 instructions: 230000000 cycles: 448263427 heartbeat IPC: 0.4175 cumulative IPC: 0.41438 (Simulation time: 0 hr 21 min 30 sec) 
Heartbeat CPU 0 instructions: 240000001 cycles: 472123507 heartbeat IPC: 0.41911 cumulative IPC: 0.414626 (Simulation time: 0 hr 22 min 32 sec) 
Heartbeat CPU 0 instructions: 250000002 cycles: 496283207 heartbeat IPC: 0.413912 cumulative IPC: 0.41459 (Simulation time: 0 hr 23 min 35 sec) 
Finished CPU 0 instructions: 200000000 cycles: 482404048 cumulative IPC: 0.41459 (Simulation time: 0 hr 23 min 35 sec) 

ChampSim completed all CPUs

Region of Interest Statistics

CPU 0 cumulative IPC: 0.41459 instructions: 200000000 cycles: 482404048
ITLB TOTAL     ACCESS:   31559154  HIT:   30736460  MISS:     822694  HIT %:    97.3932  MISS %:    2.60683   MPKI: 4.11347
ITLB LOAD TRANSLATION ACCESS:   31559154  HIT:   30736460  MISS:     822694  HIT %:    97.3932  MISS %:    2.60683   MPKI: 4.11347
ITLB PREFETCH  REQUESTED:          0  ISSUED:          0  USEFUL:          0  USELESS:          0
ITLB USEFUL LOAD PREFETCHES:          0 PREFETCH ISSUED TO LOWER LEVEL:          0  ACCURACY: -nan
ITLB TIMELY PREFETCHES:          0 LATE PREFETCHES: 0 DROPPED PREFETCHES: 0
ITLB PREFETCHES SAME FILL-ORIGIN LEVEL: 0 DIFFERENT FILL-ORIGIN LEVEL: 0
ITLB AVERAGE MISS LATENCY: 16.0401 cycles
ITLB RQ	ACCESS:   38402621	FORWARD:          0	MERGED:    6645985	TO_CACHE:   31756636

DTLB TOTAL     ACCESS:   37702763  HIT:   35151517  MISS:    2551246  HIT %:    93.2333  MISS %:    6.76673   MPKI: 12.7562
DTLB LOAD TRANSLATION ACCESS:   37702763  HIT:   35151517  MISS:    2551246  HIT %:    93.2333  MISS %:    6.76673   MPKI: 12.7562
DTLB PREFETCH  REQUESTED:          0  ISSUED:          0  USEFUL:          0  USELESS:          0
DTLB USEFUL LOAD PREFETCHES:          0 PREFETCH ISSUED TO LOWER LEVEL:          0  ACCURACY: -nan
DTLB TIMELY PREFETCHES:          0 LATE PREFETCHES: 0 DROPPED PREFETCHES: 0
DTLB PREFETCHES SAME FILL-ORIGIN LEVEL: 0 DIFFERENT FILL-ORIGIN LEVEL: 0
DTLB AVERAGE MISS LATENCY: 14.1183 cycles
DTLB RQ	ACCESS:   48081994	FORWARD:          0	MERGED:   10230556	TO_CACHE:   37851438

STLB TOTAL     ACCESS:   10255724  HIT:    9789863  MISS:     465861  HIT %:    95.4576  MISS %:    4.54245   MPKI: 2.32931
STLB LOAD TRANSLATION ACCESS:    3373940  HIT:    2911954  MISS:     461986  HIT %:    86.3072  MISS %:    13.6928   MPKI: 2.30993
STLB TRANSLATION FROM L1D PREFETCHER ACCESS:    6881784  HIT:    6877909  MISS:       3875  HIT %:    99.9437  MISS %:  0.0563081   MPKI: 0.019375
STLB PREFETCH  REQUESTED:          0  ISSUED:          0  USEFUL:       3632  USELESS:        243
STLB USEFUL LOAD PREFETCHES:       3632 PREFETCH ISSUED TO LOWER LEVEL:          0  ACCURACY: inf
STLB TIMELY PREFETCHES:       3632 LATE PREFETCHES: 470 DROPPED PREFETCHES: 46547
STLB PREFETCHES SAME FILL-ORIGIN LEVEL: 0 DIFFERENT FILL-ORIGIN LEVEL: 0
STLB AVERAGE MISS LATENCY: 7709.36 cycles
STLB RQ	ACCESS:   11593573	FORWARD:          0	MERGED:    1288762	TO_CACHE:   10304811

STLB Hit, L1D data hit: 0
STLB Hit, L2C data hit: 0
STLB Hit, LLC data hit: 0
STLB Hit, LLC data miss: 0
STLB STLB hints to L2: 0
L1D TOTAL     ACCESS:   55569988  HIT:   52254858  MISS:    3315130  HIT %:    94.0343  MISS %:    5.96568   MPKI: 16.5756
L1D LOAD      ACCESS:   28047686  HIT:   25989835  MISS:    2057851  HIT %:     92.663  MISS %:    7.33697   MPKI: 10.2893
L1D RFO       ACCESS:   19536237  HIT:   19198017  MISS:     338220  HIT %:    98.2688  MISS %:    1.73124   MPKI: 1.6911
L1D PREFETCH  ACCESS:    7986065  HIT:    7067006  MISS:     919059  HIT %:    88.4917  MISS %:    11.5083   MPKI: 4.5953
AGUS PREFETCH L1 MISS: 0
L1D PREFETCH  REQUESTED:   16628453  ISSUED:   16628381  USEFUL:     277162  USELESS:     641739
L1D USEFUL LOAD PREFETCHES:     277162 PREFETCH ISSUED TO LOWER LEVEL:     971524  ACCURACY: 28.5286
L1D TIMELY PREFETCHES:     277162 LATE PREFETCHES: 51903 DROPPED PREFETCHES: 75128
L1D PREFETCHES SAME FILL-ORIGIN LEVEL: 971524 DIFFERENT FILL-ORIGIN LEVEL: 0
L1D AVERAGE MISS LATENCY: 4.12985e+06 cycles
L1D RQ	ACCESS:   42157553	FORWARD:          0	MERGED:   13800200	TO_CACHE:   28154984
L1D WQ	ACCESS:   20246575	FORWARD:     205085	MERGED:     319565	TO_CACHE:   19927010
L1D PQ	ACCESS:    8408749	FORWARD:          0	MERGED:     186401	TO_CACHE:    8219632

L1D UNIQUE REGIONS ACCESSED: 0
L1D REGIONS CONFLICTS: 0
L1D Cross Page Prefetch Requests: 347696
L1D Same Page Prefetch Requests: 8061053
L1D ROI Sum of L1D PQ occupancy: 107824081
L1D PREFETCHES PUSHED FROM L2C: 0
L1I TOTAL     ACCESS:   36705438  HIT:   31450960  MISS:    5254478  HIT %:    85.6847  MISS %:    14.3153   MPKI: 26.2724
L1I LOAD      ACCESS:   36705438  HIT:   31450960  MISS:    5254478  HIT %:    85.6847  MISS %:    14.3153   MPKI: 26.2724
L1I PREFETCH  REQUESTED:          0  ISSUED:          0  USEFUL:          0  USELESS:          0
L1I USEFUL LOAD PREFETCHES:          0 PREFETCH ISSUED TO LOWER LEVEL:          0  ACCURACY: -nan
L1I TIMELY PREFETCHES:          0 LATE PREFETCHES: 0 DROPPED PREFETCHES: 0
L1I PREFETCHES SAME FILL-ORIGIN LEVEL: 0 DIFFERENT FILL-ORIGIN LEVEL: 0
L1I AVERAGE MISS LATENCY: 28.6531 cycles
L1I RQ	ACCESS:   57191317	FORWARD:          0	MERGED:   18788696	TO_CACHE:   38402621

BTB TOTAL     ACCESS:   22787434  HIT:   17577150  MISS:    5210284  HIT %:    77.1353  MISS %:    22.8647   MPKI: 26.0514
BTB BRANCH_DIRECT_JUMP	ACCESS:    1802124  HIT:    1488715  MISS:     313409
BTB BRANCH_INDIRECT	ACCESS:    9657284  HIT:    7208240  MISS:    2449044
BTB BRANCH_CONDITIONAL	ACCESS:    4724018  HIT:    4227730  MISS:     496288
BTB BRANCH_DIRECT_CALL	ACCESS:    2593017  HIT:    1983731  MISS:     609286
BTB BRANCH_INDIRECT_CALL	ACCESS:     705122  HIT:     643336  MISS:      61786
BTB BRANCH_RETURN	ACCESS:    3305869  HIT:    2025398  MISS:    1280471
BTB BRANCH_OTHER ACCESS:          0  HIT:          0  MISS:          0

L2C TOTAL     ACCESS:   10276911  HIT:    5822986  MISS:    4453925  HIT %:    56.6609  MISS %:    43.3391   MPKI: 22.2696
L2C LOAD      ACCESS:    7260265  HIT:    3791776  MISS:    3468489  HIT %:    52.2264  MISS %:    47.7736   MPKI: 17.3424
L2C DATA LOAD MPKI: 5.00228
L2C INSTRUCTION LOAD MPKI: 12.3402
L2C RFO       ACCESS:     337654  HIT:     176617  MISS:     161037  HIT %:    52.3071  MISS %:    47.6929   MPKI: 0.805185
L2C PREFETCH  ACCESS:     971503  HIT:     426272  MISS:     545231  HIT %:    43.8776  MISS %:    56.1224   MPKI: 2.72615
AGUS PREFETCH L1 MISS: 0
L2C DATA PREFETCH MPKI: 2.72615
L2C INSTRUCTION PREFETCH MPKI: 0
L2C WRITEBACK ACCESS:    1045547  HIT:     997939  MISS:      47608  HIT %:    95.4466  MISS %:    4.55341   MPKI: 0.23804
L2C LOAD TRANSLATION ACCESS:     585388  HIT:     356606  MISS:     228782  HIT %:    60.9179  MISS %:    39.0821   MPKI: 1.14391
L2C TRANSLATION FROM L1D PREFETCHER ACCESS:      76554  HIT:      73776  MISS:       2778  HIT %:    96.3712  MISS %:    3.62881   MPKI: 0.01389
L2C PREFETCH  REQUESTED:          0  ISSUED:          0  USEFUL:      28243  USELESS:     518938
L2C USEFUL LOAD PREFETCHES:      28243 PREFETCH ISSUED TO LOWER LEVEL:     545231  ACCURACY: 5.18001
L2C TIMELY PREFETCHES:      28243 LATE PREFETCHES: 0 DROPPED PREFETCHES: 0
L2C PREFETCHES SAME FILL-ORIGIN LEVEL: 0 DIFFERENT FILL-ORIGIN LEVEL: 0
L2C AVERAGE MISS LATENCY: 40.613 cycles
L2C RQ	ACCESS:    8260025	FORWARD:          0	MERGED:          0	TO_CACHE:    8259861
L2C WQ	ACCESS:    1045547	FORWARD:        185	MERGED:          0	TO_CACHE:    1045547
L2C PQ	ACCESS:     971524	FORWARD:          0	MERGED:          0	TO_CACHE:     971503

L2C Instructions Evicting Data 964614
L2C Translations Evicting Data 93627
L2C Data Evicting Data 676888
L2C Instructions Evicting Instructions 1376500
L2C Translations Evicting Instructions 126296
L2C Data Evicting Instructions 939266
L2C Instructions Evicting Translations 126918
L2C Translations Evicting Translations 11637
L2C Data Evicting Translations 90571
L2C Dense regions hint from L2: 0
PSCL5 TOTAL     ACCESS:     512414  HIT:     512414  MISS:          0  HIT %:        100  MISS %:          0   MPKI: 0
PSCL5 LOAD TRANSLATION ACCESS:     461522  HIT:     461522  MISS:          0  HIT %:        100  MISS %:          0   MPKI: 0
PSCL5 TRANSLATION FROM L1D PREFETCHER ACCESS:      50892  HIT:      50892  MISS:          0  HIT %:        100  MISS %:          0   MPKI: 0
PSCL5 PREFETCH  REQUESTED:          0  ISSUED:          0  USEFUL:          0  USELESS:          0
PSCL5 USEFUL LOAD PREFETCHES:          0 PREFETCH ISSUED TO LOWER LEVEL:          0  ACCURACY: -nan
PSCL5 TIMELY PREFETCHES:          0 LATE PREFETCHES: 0 DROPPED PREFETCHES: 0
PSCL5 PREFETCHES SAME FILL-ORIGIN LEVEL: 0 DIFFERENT FILL-ORIGIN LEVEL: 0

PSCL4 TOTAL     ACCESS:     477688  HIT:     476407  MISS:       1281  HIT %:    99.7318  MISS %:   0.268167   MPKI: 0.006405
PSCL4 LOAD TRANSLATION ACCESS:     436144  HIT:     434863  MISS:       1281  HIT %:    99.7063  MISS %:    0.29371   MPKI: 0.006405
PSCL4 TRANSLATION FROM L1D PREFETCHER ACCESS:      41544  HIT:      41544  MISS:          0  HIT %:        100  MISS %:          0   MPKI: 0
PSCL4 PREFETCH  REQUESTED:          0  ISSUED:          0  USEFUL:          0  USELESS:          0
PSCL4 USEFUL LOAD PREFETCHES:          0 PREFETCH ISSUED TO LOWER LEVEL:          0  ACCURACY: -nan
PSCL4 TIMELY PREFETCHES:          0 LATE PREFETCHES: 0 DROPPED PREFETCHES: 0
PSCL4 PREFETCHES SAME FILL-ORIGIN LEVEL: 0 DIFFERENT FILL-ORIGIN LEVEL: 0

PSCL3 TOTAL     ACCESS:     509167  HIT:     505242  MISS:       3925  HIT %:    99.2291  MISS %:   0.770867   MPKI: 0.019625
PSCL3 LOAD TRANSLATION ACCESS:     458276  HIT:     454351  MISS:       3925  HIT %:    99.1435  MISS %:   0.856471   MPKI: 0.019625
PSCL3 TRANSLATION FROM L1D PREFETCHER ACCESS:      50891  HIT:      50891  MISS:          0  HIT %:        100  MISS %:          0   MPKI: 0
PSCL3 PREFETCH  REQUESTED:          0  ISSUED:          0  USEFUL:          0  USELESS:          0
PSCL3 USEFUL LOAD PREFETCHES:          0 PREFETCH ISSUED TO LOWER LEVEL:          0  ACCURACY: -nan
PSCL3 TIMELY PREFETCHES:          0 LATE PREFETCHES: 0 DROPPED PREFETCHES: 0
PSCL3 PREFETCHES SAME FILL-ORIGIN LEVEL: 0 DIFFERENT FILL-ORIGIN LEVEL: 0

PSCL2 TOTAL     ACCESS:     487563  HIT:     368040  MISS:     119523  HIT %:    75.4856  MISS %:    24.5144   MPKI: 0.597615
PSCL2 LOAD TRANSLATION ACCESS:     462331  HIT:     342808  MISS:     119523  HIT %:    74.1477  MISS %:    25.8523   MPKI: 0.597615
PSCL2 TRANSLATION FROM L1D PREFETCHER ACCESS:      25232  HIT:      25232  MISS:          0  HIT %:        100  MISS %:          0   MPKI: 0
PSCL2 PREFETCH  REQUESTED:          0  ISSUED:          0  USEFUL:          0  USELESS:          0
PSCL2 USEFUL LOAD PREFETCHES:          0 PREFETCH ISSUED TO LOWER LEVEL:          0  ACCURACY: -nan
PSCL2 TIMELY PREFETCHES:          0 LATE PREFETCHES: 0 DROPPED PREFETCHES: 0
PSCL2 PREFETCHES SAME FILL-ORIGIN LEVEL: 0 DIFFERENT FILL-ORIGIN LEVEL: 0

LLC TOTAL     ACCESS:    4894866  HIT:    4585112  MISS:     309754  HIT %:    93.6719  MISS %:    6.32814   MPKI: 1.54877
LLC LOAD      ACCESS:    3468489  HIT:    3303236  MISS:     165253  HIT %:    95.2356  MISS %:    4.76441   MPKI: 0.826265
LLC RFO       ACCESS:     161037  HIT:     116981  MISS:      44056  HIT %:    72.6423  MISS %:    27.3577   MPKI: 0.22028
LLC PREFETCH  ACCESS:     545231  HIT:     452500  MISS:      92731  HIT %:    82.9923  MISS %:    17.0077   MPKI: 0.463655
AGUS PREFETCH L1 MISS: 0
LLC WRITEBACK ACCESS:     488549  HIT:     486070  MISS:       2479  HIT %:    99.4926  MISS %:   0.507421   MPKI: 0.012395
LLC LOAD TRANSLATION ACCESS:     228782  HIT:     223727  MISS:       5055  HIT %:    97.7905  MISS %:    2.20953   MPKI: 0.025275
LLC TRANSLATION FROM L1D PREFETCHER ACCESS:       2778  HIT:       2598  MISS:        180  HIT %:    93.5205  MISS %:    6.47948   MPKI: 0.0009
LLC PREFETCH  REQUESTED:          0  ISSUED:          0  USEFUL:       4932  USELESS:      81976
LLC USEFUL LOAD PREFETCHES:       4932 PREFETCH ISSUED TO LOWER LEVEL:      92731  ACCURACY: 5.31861
LLC TIMELY PREFETCHES:       4932 LATE PREFETCHES: 0 DROPPED PREFETCHES: 0
LLC PREFETCHES SAME FILL-ORIGIN LEVEL: 0 DIFFERENT FILL-ORIGIN LEVEL: 0
LLC AVERAGE MISS LATENCY: 157.095 cycles
LLC RQ	ACCESS:    3861086	FORWARD:          0	MERGED:          0	TO_CACHE:    3861086
LLC WQ	ACCESS:     488549	FORWARD:          0	MERGED:          0	TO_CACHE:     488549
LLC PQ	ACCESS:     545231	FORWARD:          0	MERGED:          0	TO_CACHE:     545231

LLC Dense regions hint to LLC: 0

RAW hits: 2660193
Loads Generated: 44817750
Loads sent to L1D: 42157553
Stores Generated: 20246565
Stores sent to L1D: 20246575
Major fault: 0 Minor fault: 6553
Allocated PAGES: 6553
ucb ended
-----------------------------------------------------------------------------------------------------------------------------------------------------------------------------------------------------
Offsets elements: -2200619168465 2200619168453 -1 2200618025068 1143402 34541 1 -34529 34528 -34525 -2 34526 34530 -34527 -2200619203012 2200619168463 -1143397 1177943 -2200619201858 2200618023913 -2200618025598 2200619203543 -34531 -628232 628231 5 -6 2 3 -3 -628233 -1177946 1177948 -34530 34529 -34533 4 -20 34551 -34554 34553 -34553 34552 -34546 -10 34534 -1143416 1177947 -34551 20 -5 -14 -2200619168463 2200619168462 22 -4 -2200619228990 2200619228983 34556 -1177949 1177949 -1177950 -34537 34538 -2200619169015 2200619169009 2200619168466 -2200619169012 34537 -34534 34533 34554 -2200619193937 2200629766674 -10607271 -2200619228991 2200619228974 -34544 -7 -507368 -2200618651862 2200618651863 -611156 -2200618040851 2200618015977 1177950 -34545 -507377 -2200618721710 2200619263631 -507376 -2200618721709 2200618721709 -2200618040854 2200619159388 -8 -628261 25 628235 -34555 10 34549 -549690 -541919 541919 -2200619193936 2200618652016 11114659 -10572738 10572738 -10607293 11 34543 -541920 2200618652010 541920 69848 2200618651864 2200618721710 2200618110546 1153086 -628236 628234 -541918 -611164 -1178182 1178181 -86341 -2200618565432 2200618277287 -3540214 3914697 -3914701 -2200614746926 2200614746929 4456619 628236 -1178181 549946 -524850 1153084 -1153079 -25102 25102 -24876 24159 571536 -570824 -710 -24386 11750525 -10572343 -524855 1153090 -1153085 -2200618124907 2200619277992 -1177957 1177957 -1177956 1177956 24865 -705 11726139 -10572346 -2200619203150 2200618050061 1153091 2200619277991 -34552 17 -17 -1143407 -628260 -524821 13502 511319 -549697 -1153077 -25104 -2200618025335 2200629775976 -10572462 -1153090 11725552 -2200629775607 2200629775607 -11750636 -2200618010996 2200629761637 -11750419 11750650 -11750651 24162 -24160 24863 11725434 -11750525 228 -228 2200618010996 2200629761181 -11772325 -2200618003226 2200618025366 1142548 -2200619153544 2200618011223 -227 227 11749961 -2200629775654 100 432 2200629775570 -11750411 11750416 -2200629775570 -10572457 -1153089 -24871 11750415 -10572455 -2200619203152 2200619203150 1153081 145 2200618025047 24869 1153089 628233 -2200619203005 2200619203007 -2200618040860 2200619193938 10572737 -10572736 -2200619193938 2200618565677 11200976 -11201001 628260 -2200619193928 2200619193930 -86340 628259 541921 524817 -2200618540561 2200617990857 -2200618025083 -60442 2200619263490 -1153075 -2200618040861 2200619193939 10572736 -11200995 -628257 628257 -628259 86339 -611158 1153077 -2200618574758 2200618025049 -2200617990864 3443669 2200615690579 -1143381 1143379 -593678 593686 34572 -2200618040846 2200619193922 -34582 34580 -1177966 1143381 -1143596 1143597 34585 -34567 34566 -34584 -593651 593669 -593693 -2200618574754 2200619168449 -21 34582 34584 -34574 -507347 2200618651862 -611157 2200619193929 21 593694 34563 -34565 593698 -593698 -1143402 1143406 34564 -34583 -34562 -2200619145703 2200619145707 34559 -34566 -2200619159352 2200629766682 -10607328 -34563 34586 -2200619193740 2200618015771 1143385 -1143386 1143401 34569 -34568 8 -2200619168990 2200619168979 6 34562 -1177968 1143404 -34561 -34558 16 55912 -2200619223210 2200619167295 -2200619168979 2200619168991 -13 -2200619168966 2200619224894 -55917 -1143404 1143411 -1143408 1143410 -2200619168435 2200619168418 -2200629776292 2200619168985 55923 -55912 -55928 55928 -1199318 1199318 -55904 55905 -55909 55907 -55910 55910 -1199321 1199320 -1199319 1143409 1199317 -1199317 -1199320 -55932 55934 -2200619215089 2200619159156 55931 -1199323 1199323 -529168 529168 -3744240789 3739760836 15031203 -3754792039 3280628 -3743041463 3743041462 1199322 -2200619224507 2200614744561 -3739760332 3754791522 -3754791522 3739760332 3280617 -3280615 3280616 -3743040948 3743040951 1143414 -22 19 -1143406 -2200618025578 532 -1143412 1143412 -507339 2200618085658 1143415 -1143409 1143413 -9 2200618025032 1143403 2200619168441 -2200619168441 2200618025029 -19 14 -1143410 1143407 -1143413 -2200619168434 2200619168434 23 -2200619159368 -9073 2200619168442 -1143411 -2200618025573 2200619168984 -2200619168452 -1143389 1143397 7 -12806385 12806401 -507353 2200619229062 2200619168435 2200619168977 -1143401 1143392 -456657 462510 -462462 518327 -518329 518329 -518328 -518327 -20555 -35367 -26 -1149173 1149173 -2200619174705 2200619174694 35144 -2200619209847 2200618025335 11748138 -2200629773473 2200629775521 -1662 -10599141 -15 10599190 -2200629773884 1642 2200618023885 11748355 -11748354 -2200618025459 2200619174634 10599178 -10599189 -2200619259287 2200619259301 42181 10557004 -10557004 -42181 10599185 42178 -42180 42182 42183 -42156 -31 31 10599125 36 -10557008 -7040 2200619216890 10556783 222 -11786874 -3240094 3240095 1229867 -1229866 1229864 -4469983 4469984 -2200619173227 2200619215408 -42182 -1149168 1191350 -4427803 15026959 33 -10549878 10549845 -10549846 10549846 -10549845 -1198480 11748326 -15026956 15026958 -15026955 15026957 -15026960 15026955 32 -2200629759230 2200614732334 15026862 -2200629772382 2200614745425 3278635 11748320 35 -11785647 37292 1149163 -646160 -2200618613127 86062 2200629772414 -11245350 681557 -681549 646160 42749 -688917 695470 -4477112 -10549847 10549878 -4477113 -2200614745425 2200614745426 15026989 681560 10563792 -11748560 1184768 -2200619195878 -98853 84708 598 -85306 2200618110164 -2200618025456 -84708 2200618025457 1198477 -11245349 10563790 1149165 -2200619259286 2200629858478 -11748356 11748319 -10599130 -1149188 1205108 -1205107 686780 -686779 686732 -686732 686731 -686730 -1143385 1143382 -1143380 -2200618015972 2200618015974 11750700 -11750700 11750417 -11750418 -2200618025588 2200618025591 11750411 -223 11750624 -11750397 1142323 -1142323 229 1177944 -2200619169009 2200619169006 1143393 34550 -2200619193932 2200629766691 -11750702 -34541 12 -2200619168483 2200619168484 -2200619169006 1143416 2200619168475 -2200619169016 2200618025601 1143390 -1143627 1143628 -2200619159185 2200619159206 237 638556 -638554 -11661660 12300215 -12190363 -109851 109851 11551808 -11661649 12300205 -601414 -37144 638550 -638800 249 1142326 -1142326 -250 254 -288223780706293556 -83 -4398019018019 4398018295578 8911356 -8188913 -4397629468196 4397629468195 -4397629468194 -2928613 4397632396807 -4397629468193 4397632396805 8343684 -8343682 -4397629337724 11287991 -11287991 4397618049733 -4397618049733 4397617327294 -4398018289165 4398019011603 -4397629555678 -333656 -85360 -61355 698326 4397629337725 4397618049732 8343681 -8343680 -4397618045362 -11292228 -158116 130395085 -130395085 11450344 -11450344 4397629495704 -4397629337587 11287859 118949606 4397499100121 -1055601 -4397628281986 11292227 -11292227 4397636104613 -4397636262729 -389515836 389602103 -86268 -5847 -584394 -388925595 388906605 643238 -624248 605032 -624022 623150 4397629481784 -4398019011460 4398018289021 -4397628739257 -93983 130400392 -130400386 93978 -16079 202381 -192853 -14343 4397629482585 8343685 -4397626442234 -11346519 4397629445068 6766924 -6766924 -4397629438874 4397636183647 -6744774 -8343683 -4397629495703 -389515837 389708087 -389714066 389714067 740 -740 4397628581015 -4397628580275 -34522 4397636082206 -6744973 -8343684 -4397618049728 -400961812 388975455 11990725 -400966180 -11292364 11292366 1015 -400967195 -389673951 -5980 389714060 4397628581021 -4397628581021 748 4397637646394 -4397629337266 4397636082238 -4397624790331 -158118 130395086 -130395086 -118944741 -11450345 4397629495705 -4397629337586 11287858 -130237464 4397628281984 -4397628281985 4397628281986 -4397616989760 -519910920 389515834 86270 -5846 -389509989 18990 624248 -18990 623151 871 -872 -389529675 93984 130306408 77899 4397629477772 -8343685 -4397629275390 -169677 -23175 29375 -43713 37510 4397629445079 -4397629445079 -389566461 4398019011539 -4398027361202 4398025762279 -4397636240464 56830 4397628716436 -4397628581014 4397636048225 -4397636047486 -739 -33783 1598712 -4398019011540 400961812 698498 -400966179 389714059 -4397628581022 749 -749 -33807 4397629337265 6744972 4397618045360 -4397618045360 4397617322922 -4397628833241 130400386 -519856254 389533767 -806443 806444 302 4397629275092 -8343681 -4397626389044 4397618045363 -4397629337727 11291458 4397626389950 8343679 -8343678 8343678 -8343677 8343677 -8343676 8343676 -8343675 8343675 -4397640740492 3143109 -8413 4397629262121 -4397629506577 -2926911 36649 133298890 4397497402266 -4397630701156 2901124 4397636644964 -4397636558694 -86271 -4397636644964 -5844 4397637235203 -4397637254192 -19216 -389529677 -93984 93977 -130322487 202382 -192852 4397629468249 -4397637826270 4397629482591 -4397629482592 37526 4397629445077 -4397637783303 -5454 4397636189832 -4397636240466 4397636240477 -4397636048223 739 4397628581014 -6744966 -4397629262121 8413 -8414 7990 -158267 158691 252868 4397628531257 -4397629363483 -2310877 4397640585495 145511 312 22337 -4976 -8351868 -722451 -4397631674360 4397639135799 382889 -4397636717942 -489869 4397629363488 -4397628722163 -58000 4397636247249 -6744639 8343674 -4397640740493 -386621652 389422407 -389422407 4397629596064 -4397632396819 4397639135805 -4398025757457 -389422406 389422406 -6738986 -4397632396820 4397632396820 -722447 -4397631674372 2841131 -530248 530253 4397629477783 -4397632396821 4397632396821 8343673 -8343670 -4397629363488 532288 16917 -16921 4397629553648 -4397630085938 4397638429609 -9480 -145512 17673 4976 -22337 -8334505 -4398019018601 388946857 4397630071743 8343671 -4397638429610 4397630085940 -4397629363487 532294 -528208 4397630081858 -4397630085937 4062 4397630081875 8334191 22650 -17360 -8334508 -4397630085933 641326 -2894205 4397632396815 -4397630071920 -9954 9954 485413 -475459 -9953 519334 -519334 4397630081874 -4397630081874 4397629359426 -4397629349473 4397637162128 -4397636645895 4397636780593 -6744534 -4397630036059 4397629313611 -4397629349470 4397637984048 -4397637984047 35862 -35862 4397630036058 -4397630036058 4397633074298 5332144 -8334455 -74 288223780706293376 -2200618112446 2200618112446 1142572 -1142572 567964 574608 -574608 3684 -21392 563729 -1113738 1113738 205 -208 -1113736 -254 255 -73 -722450 -4398018296091 4398018296101 -8188904 7090210 -7812655 722446 -4397629889342 333656 4397629555686 -4397629974702 4397630036059 -4397630071919 4397629562540 9953 4397630071919 -4397629596462 4397629596460 -4397630081875 -4397630071922 4397630071922 -8343671 4397638420129 489474 43013 4397629553449 17360 -8351865 8351866 -8351866 8334192 4397632396818 -4397630085939 -388932662 4398019018600 -4397630071744 4397638415414 -4397638429608 4397630085938 4397629553650 -4397630081858 -4079 4397630085937 -4397638416066 4397638270554 8351869 4397629444609 -4397629502609 2324895 475459 -485412 4397628840092 7812655 -4397637162128 516233 4397636633878 -4397636780593 61355 4397629252256 288223780706293302 567718 -550008 1113737 -1113735 1113736 -1113737 1113941 -1114193 252 -722522 722449 -4398019018542 722453 8188903 -8911349 722445 4397629889342 4397630071920 -4397629562540 -509380 -9955 -475460 8334190 -4397638420128 4397638274617 4977 -4397638433739 4397638416378 43077 4397629553385 9481 -154992 163184 -17672 -17361 -8356842 4397629444612 -4397629502614 2310880 -2310881 4397632396819 -4398019018600 -4397629553650 -532290 4397630085939 -4397628814277 -549211 4397638416066 -145511 163185 -4397636719238 1113937 251 -288223780706293627 71 -722440 4398018296091 4397629596462 -4397629553449 4397637897122 17672 8188679 -4397638274616 4397638420127 -4397638416378 4397638438715 -8356845 4397633038436 563728 -1113945 -288223780706293375 -4398018296101 -4397637880398 722450 -4397629553644 -532287 17361 4397629313608 4397630071921 1167593 -1113944 1113945 -1113946 1113943 -1113938 1113733 -1113734 -71 288223780706293373 -8188903 -722446 4397630081873 509380 -519335 -4397638438715 8351865 2843169 -4398018296150 4398027362271 14194 -532289 4081 -345673 -4397636300222 4397629166896 -4397629313611 97217 4397637886831 -1113739 1113741 1113939 -288223780706293302 -722445 7090209 8343670 -4063 -17673 4397629502614 -4397629502613 4397629502612 -2310880 386621781 14195 4397629349293 -4397628831200 532293 -532295 532289 16923 -16917 4397629553644 -4397629553648 -528210 509381 -326804 4397636300222 -567964 246 -1142324 567714 571393 -550005 1113732 -1113733 1113735 1113940 4398018296098 1098694 -4397629555686 -182577 4397630071925 4397638437800 -4397628840092 4397636652747 -567718 571402 -1113941 1113942 4397630071918 -4397630071921 -4397630081878 4397630081877 -4397637940135 4397637785143 2324896 4397630081872 -4397630081872 509382 475458 4397629596464 4397630036057 4397629562542 -7090209 -45815 -4397629562538 -485413 4398019018543 -1098694 168161 -532288 4397638274616 -4397638270537 4397638416048 -4397638416065 -146715 4397629252253 1113734 -1113729 -4397629252256 1113740 -1113741 -1113730 -4397638437802 4397638442778 -4397632396817 2310881 518093 4397628831198 6852 -567716 571398 -571648 550004 -4397637744589 4397630071924 4397638437801 
Potential of Offsets elements: 28.0356 28.0356 2034.04 28.0356 28.0356 28.0356 2085.04 28.0356 28.0356 33.0356 870.036 28.0356 28.0356 28.0356 28.0356 28.0356 28.0356 28.0356 28.0356 28.0356 28.0356 28.0356 28.0356 28.0356 28.0356 121.036 449.036 2315.12 1136.04 1273.04 28.0356 28.0356 28.0356 28.0356 28.0356 28.0356 1098.04 57.0356 28.0356 28.0356 28.0356 28.0356 28.0356 28.0356 577.036 28.0356 28.0356 28.0356 28.0356 222.036 1315.3 64.0356 28.0356 28.0356 29.0356 180.036 28.0356 28.0356 28.0356 28.0356 28.0356 28.0356 28.0356 28.0356 28.0356 28.0356 28.0356 28.0356 28.0356 28.0356 28.0356 28.0356 28.0356 28.0356 28.0356 28.0356 28.0356 28.0356 28.0356 28.0356 28.0356 28.0356 28.0356 28.0356 28.0356 28.0356 28.0356 28.0356 28.0356 28.0356 28.0356 28.0356 28.0356 28.0356 28.0356 573.036 28.0356 28.0356 28.0356 28.0356 122.036 28.0356 28.0356 28.0356 28.0356 28.0356 28.0356 28.0356 28.0356 28.0356 28.0356 814.036 28.0356 28.0356 28.0356 28.0356 28.0356 28.0356 28.0356 28.0356 28.0356 28.0356 28.0356 28.0356 28.0356 28.0356 28.0356 28.0356 28.0356 28.0356 28.0356 28.0356 28.0356 28.0356 28.0356 28.0356 28.0356 28.0356 28.0356 28.0356 28.0356 28.0356 28.0356 28.0356 28.0356 28.0356 28.0356 28.0356 28.0356 28.0356 28.0356 28.0356 28.0356 28.0356 28.0356 28.0356 28.0356 28.0356 28.0356 28.0356 28.0356 28.0356 28.0356 28.0356 28.0356 28.0356 28.0356 28.0356 28.0356 28.0356 32.0356 35.0356 28.0356 28.0356 28.0356 28.0356 28.0356 28.0356 28.0356 28.0356 28.0356 28.0356 28.0356 28.0356 28.0356 28.0356 28.0356 28.0356 28.0356 28.0356 28.0356 28.0356 28.0356 28.0356 28.0356 28.0356 28.0356 28.0356 28.0356 28.0356 28.0356 28.0356 28.0356 28.0356 28.0356 28.0356 28.0356 28.0356 28.0356 28.0356 28.0356 28.0356 28.0356 28.0356 28.0356 28.0356 28.0356 28.0356 28.0356 28.0356 28.0356 28.0356 28.0356 28.0356 28.0356 28.0356 28.0356 28.0356 28.0356 28.0356 28.0356 28.0356 28.0356 28.0356 28.0356 28.0356 28.0356 28.0356 28.0356 28.0356 28.0356 28.0356 28.0356 28.0356 28.0356 28.0356 28.0356 28.0356 28.0356 28.0356 28.0356 28.0356 28.0356 28.0356 28.0356 28.0356 28.0356 28.0356 28.0356 28.0356 28.0356 28.0356 28.0356 28.0356 28.0356 28.0356 28.0356 28.0356 28.0356 28.0356 28.0356 28.0356 28.0356 28.0356 28.0356 28.0356 28.0356 28.0356 28.0356 28.0356 28.0356 28.0356 28.0356 28.0356 28.0356 28.0356 28.0356 28.0356 28.0356 28.0356 28.0356 40.0356 28.0356 28.0356 28.0356 28.0356 28.0356 28.0356 28.0356 1652.04 28.0356 28.0356 28.0356 28.0356 28.0356 28.0356 28.0356 28.0356 28.0356 28.0356 28.0356 28.0356 28.0356 28.0356 28.0356 28.0356 28.0356 28.0356 28.0356 28.0356 28.0356 28.0356 28.0356 28.0356 28.0356 28.0356 793.036 28.0356 28.0356 168.036 28.0356 28.0356 28.0356 28.0356 28.0356 66.0356 28.0356 28.0356 28.0356 28.0356 28.0356 28.0356 28.0356 28.0356 28.0356 28.0356 28.0356 28.0356 28.0356 28.0356 28.0356 28.0356 28.0356 28.0356 28.0356 28.0356 28.0356 28.0356 28.0356 28.0356 28.0356 28.0356 28.0356 28.0356 28.0356 28.0356 28.0356 28.0356 28.0356 28.0356 28.0356 28.0356 28.0356 28.0356 28.0356 28.0356 28.0356 28.0356 28.0356 28.0356 28.0356 28.0356 28.0356 28.0356 28.0356 28.0356 28.0356 28.0356 28.0356 28.0356 28.0356 28.0356 28.0356 28.0356 28.0356 28.0356 28.0356 28.0356 28.0356 28.0356 28.0356 28.0356 28.0356 28.0356 28.0356 28.0356 28.0356 28.0356 28.0356 28.0356 28.0356 28.0356 28.0356 290.036 28.0356 28.0356 28.0356 28.0356 28.0356 33.0356 332.036 28.0356 28.0356 28.0356 28.0356 28.0356 29.0356 28.0356 28.0356 28.0356 28.0356 28.0356 28.0356 28.0356 28.0356 28.0356 580.036 28.0356 28.0356 28.0356 28.0356 28.0356 28.0356 28.0356 28.0356 28.0356 28.0356 28.0356 28.0356 28.0356 28.0356 28.0356 28.0356 28.0356 28.0356 101.036 28.0356 28.0356 28.0356 28.0356 28.0356 28.0356 28.0356 28.0356 28.0356 28.0356 28.0356 28.0356 28.0356 28.0356 28.0356 40.0356 28.0356 28.0356 28.0356 28.0356 28.0356 28.0356 28.0356 28.0356 28.0356 28.0356 28.0356 28.0356 28.0356 28.0356 28.0356 28.0356 28.0356 28.0356 28.0356 28.0356 28.0356 28.0356 28.0356 28.0356 28.0356 28.0356 28.0356 28.0356 28.0356 28.0356 28.0356 28.0356 28.0356 38.0356 28.0356 28.0356 28.0356 28.0356 28.0356 28.0356 28.0356 28.0356 28.0356 184.036 28.0356 28.0356 28.0356 28.0356 28.0356 28.0356 28.0356 28.0356 28.0356 28.0356 28.0356 28.0356 28.0356 232.036 28.0356 28.0356 28.0356 28.0356 28.0356 28.0356 28.0356 88.0356 28.0356 28.0356 28.0356 28.0356 28.0356 28.0356 28.0356 28.0356 28.0356 28.0356 28.0356 28.0356 28.0356 28.0356 28.0356 28.0356 28.0356 28.0356 28.0356 28.0356 28.0356 28.0356 28.0356 28.0356 28.0356 28.0356 28.0356 28.0356 28.0356 28.0356 28.0356 28.0356 28.0356 28.0356 28.0356 28.0356 28.0356 28.0356 28.0356 28.0356 28.0356 28.0356 28.0356 28.0356 28.0356 28.0356 28.0356 28.0356 28.0356 28.0356 28.0356 28.0356 28.0356 28.0356 28.0356 28.0356 28.0356 28.0356 28.0356 28.0356 28.0356 28.0356 28.0356 28.0356 28.0356 28.0356 28.0356 28.0356 28.0356 28.0356 28.0356 28.0356 28.0356 28.0356 28.0356 28.0356 28.0356 28.0356 28.0356 54.0356 28.0356 28.0356 28.0356 28.0356 28.0356 28.0356 28.0356 28.0356 28.0356 28.0356 28.0356 28.0356 81.0356 28.0356 28.0356 75.0356 28.0356 28.0356 28.0356 28.0356 28.0356 28.0356 28.0356 28.0356 28.0356 28.0356 28.0356 28.0356 28.0356 28.0356 28.0356 28.0356 28.0356 30.0356 28.0356 28.0356 28.0356 28.0356 28.0356 28.0356 28.0356 28.0356 28.0356 28.0356 28.0356 28.0356 28.0356 28.0356 28.0356 28.0356 28.0356 28.0356 28.0356 28.0356 28.0356 28.0356 28.0356 28.0356 28.0356 28.0356 28.0356 28.0356 28.0356 28.0356 28.0356 28.0356 28.0356 28.0356 28.0356 28.0356 28.0356 28.0356 28.0356 28.0356 28.0356 28.0356 28.0356 28.0356 28.0356 28.0356 28.0356 28.0356 28.0356 28.0356 28.0356 28.0356 28.0356 28.0356 28.0356 28.0356 28.0356 28.0356 28.0356 28.0356 28.0356 28.0356 28.0356 28.0356 28.0356 28.0356 28.0356 28.0356 28.0356 28.0356 28.0356 28.0356 28.0356 28.0356 28.0356 28.0356 28.0356 28.0356 28.0356 28.0356 28.0356 28.0356 28.0356 28.0356 28.0356 28.0356 28.0356 28.0356 28.0356 28.0356 28.0356 28.0356 28.0356 28.0356 28.0356 28.0356 28.0356 28.0356 28.0356 28.0356 28.0356 28.0356 28.0356 28.0356 28.0356 28.0356 28.0356 28.0356 28.0356 28.0356 28.0356 28.0356 28.0356 28.0356 28.0356 28.0356 28.0356 28.0356 28.0356 28.0356 28.0356 28.0356 28.0356 28.0356 28.0356 28.0356 28.0356 28.0356 28.0356 28.0356 28.0356 28.0356 28.0356 28.0356 28.0356 28.0356 28.0356 28.0356 28.0356 28.0356 28.0356 28.0356 28.0356 28.0356 28.0356 28.0356 28.0356 28.0356 28.0356 28.0356 28.0356 28.0356 28.0356 28.0356 28.0356 28.0356 28.0356 28.0356 28.0356 28.0356 28.0356 28.0356 28.0356 28.0356 28.0356 28.0356 28.0356 28.0356 28.0356 28.0356 28.0356 28.0356 28.0356 28.0356 28.0356 28.0356 28.0356 28.0356 28.0356 28.0356 28.0356 28.0356 28.0356 28.0356 28.0356 28.0356 40.0356 28.0356 28.0356 28.0356 28.0356 28.0356 28.0356 28.0356 28.0356 28.0356 28.0356 28.0356 28.0356 28.0356 28.0356 28.0356 28.0356 28.0356 28.0356 28.0356 28.0356 28.0356 28.0356 28.0356 28.0356 28.0356 28.0356 28.0356 28.0356 28.0356 28.0356 28.0356 28.0356 28.0356 28.0356 28.0356 28.0356 28.0356 28.0356 28.0356 28.0356 28.0356 28.0356 28.0356 28.0356 28.0356 28.0356 28.0356 28.0356 28.0356 28.0356 28.0356 28.0356 28.0356 28.0356 28.0356 28.0356 28.0356 28.0356 28.0356 28.0356 28.0356 28.0356 28.0356 28.0356 28.0356 28.0356 28.0356 28.0356 28.0356 28.0356 28.0356 28.0356 28.0356 28.0356 28.0356 28.0356 28.0356 28.0356 28.0356 28.0356 28.0356 28.0356 28.0356 28.0356 28.0356 28.0356 28.0356 28.0356 28.0356 28.0356 28.0356 28.0356 28.0356 28.0356 28.0356 28.0356 28.0356 28.0356 28.0356 28.0356 28.0356 28.0356 28.0356 28.0356 28.0356 28.0356 28.0356 28.0356 88.0356 28.0356 28.0356 28.0356 28.0356 28.0356 112.036 149.036 316.036 172.036 149.036 28.0356 28.0356 36.0356 28.0356 28.0356 28.0356 28.0356 28.0356 82.0356 28.0356 28.0356 28.0356 28.0356 28.0356 28.0356 29.0356 28.0356 28.0356 28.0356 28.0356 28.0356 28.0356 28.0356 28.0356 28.0356 28.0356 28.0356 28.0356 28.0356 28.0356 28.0356 28.0356 28.0356 28.0356 28.0356 28.0356 28.0356 28.0356 28.0356 28.0356 28.0356 28.0356 28.0356 28.0356 28.0356 28.0356 28.0356 28.0356 28.0356 28.0356 28.0356 28.0356 28.0356 28.0356 28.0356 28.0356 28.0356 28.0356 28.0356 28.0356 28.0356 28.0356 28.0356 28.0356 32.0356 28.0356 28.0356 46.0356 28.0356 34.0356 28.0356 28.0356 28.0356 28.0356 28.0356 28.0356 28.0356 28.0356 28.0356 28.0356 28.0356 28.0356 28.0356 28.0356 28.0356 28.0356 28.0356 28.0356 28.0356 28.0356 28.0356 28.0356 28.0356 28.0356 28.0356 28.0356 148.036 28.0356 28.0356 28.0356 28.0356 28.0356 28.0356 28.0356 28.0356 28.0356 44.0356 28.0356 28.0356 28.0356 28.0356 28.0356 28.0356 28.0356 28.0356 28.0356 28.0356 28.0356 28.0356 28.0356 28.0356 28.0356 28.0356 28.0356 28.0356 28.0356 28.0356 28.0356 28.0356 28.0356 28.0356 28.0356 28.0356 28.0356 28.0356 28.0356 28.0356 28.0356 28.0356 28.0356 28.0356 28.0356 28.0356 28.0356 28.0356 28.0356 28.0356 28.0356 28.0356 28.0356 28.0356 28.0356 28.0356 28.0356 28.0356 28.0356 28.0356 28.0356 28.0356 28.0356 28.0356 28.0356 28.0356 28.0356 28.0356 28.0356 28.0356 28.0356 28.0356 28.0356 28.0356 28.0356 28.0356 28.0356 28.0356 28.0356 28.0356 28.0356 28.0356 28.0356 28.0356 28.0356 28.0356 28.0356 156.036 137.036 28.0356 28.0356 28.0356 28.0356 28.0356 28.0356 28.0356 28.0356 28.0356 28.0356 28.0356 28.0356 28.0356 28.0356 28.0356 28.0356 28.0356 28.0356 28.0356 130.036 149.036 70.0356 28.0356 28.0356 28.0356 28.0356 28.0356 28.0356 28.0356 28.0356 28.0356 43.0356 28.0356 28.0356 28.0356 28.0356 28.0356 28.0356 28.0356 28.0356 28.0356 28.0356 55.0356 28.0356 184.036 28.0356 46.0356 28.0356 28.0356 28.0356 28.0356 28.0356 28.0356 28.0356 28.0356 28.0356 28.0356 28.0356 28.0356 28.0356 28.0356 28.0356 28.0356 28.0356 28.0356 28.0356 28.0356 28.0356 28.0356 28.0356 28.0356 28.0356 28.0356 28.0356 28.0356 28.0356 28.0356 28.0356 28.0356 28.0356 28.0356 28.0356 28.0356 28.0356 28.0356 28.0356 28.0356 28.0356 28.0356 28.0356 28.0356 28.0356 28.0356 28.0356 28.0356 28.0356 28.0356 28.0356 28.0356 28.0356 28.0356 28.0356 28.0356 28.0356 28.0356 28.0356 28.0356 28.0356 28.0356 28.0356 28.0356 28.0356 28.0356 28.0356 28.0356 28.0356 28.0356 28.0356 28.0356 28.0356 28.0356 28.0356 28.0356 28.0356 28.0356 28.0356 28.0356 28.0356 28.0356 28.0356 28.0356 28.0356 28.0356 28.0356 28.0356 28.0356 28.0356 28.0356 28.0356 28.0356 28.0356 28.0356 28.0356 28.0356 28.0356 28.0356 28.0356 28.0356 28.0356 28.0356 
rewards of Offsets elements: 0 0 2006 0 0 0 2057 0 0 5 842 0 0 0 0 0 0 0 0 0 0 0 0 0 0 93 421 2315 1108 1245 0 0 0 0 0 0 1070 29 0 0 0 0 0 0 549 0 0 0 0 194 1310 36 0 0 1 152 0 0 0 0 0 0 0 0 0 0 0 0 0 0 0 0 0 0 0 0 0 0 0 0 0 0 0 0 0 0 0 0 0 0 0 0 0 0 0 545 0 0 0 0 94 0 0 0 0 0 0 0 0 0 0 786 0 0 0 0 0 0 0 0 0 0 0 0 0 0 0 0 0 0 0 0 0 0 0 0 0 0 0 0 0 0 0 0 0 0 0 0 0 0 0 0 0 0 0 0 0 0 0 0 0 0 0 0 0 0 0 0 0 0 4 7 0 0 0 0 0 0 0 0 0 0 0 0 0 0 0 0 0 0 0 0 0 0 0 0 0 0 0 0 0 0 0 0 0 0 0 0 0 0 0 0 0 0 0 0 0 0 0 0 0 0 0 0 0 0 0 0 0 0 0 0 0 0 0 0 0 0 0 0 0 0 0 0 0 0 0 0 0 0 0 0 0 0 0 0 0 0 0 0 0 0 0 0 0 0 0 0 0 0 0 0 0 0 0 0 0 0 0 0 0 0 0 0 0 0 0 0 0 0 0 12 0 0 0 0 0 0 0 1624 0 0 0 0 0 0 0 0 0 0 0 0 0 0 0 0 0 0 0 0 0 0 0 0 0 0 765 0 0 140 0 0 0 0 0 38 0 0 0 0 0 0 0 0 0 0 0 0 0 0 0 0 0 0 0 0 0 0 0 0 0 0 0 0 0 0 0 0 0 0 0 0 0 0 0 0 0 0 0 0 0 0 0 0 0 0 0 0 0 0 0 0 0 0 0 0 0 0 0 0 0 0 0 0 0 0 0 0 0 0 0 0 0 262 0 0 0 0 0 5 304 0 0 0 0 0 1 0 0 0 0 0 0 0 0 0 552 0 0 0 0 0 0 0 0 0 0 0 0 0 0 0 0 0 0 73 0 0 0 0 0 0 0 0 0 0 0 0 0 0 0 12 0 0 0 0 0 0 0 0 0 0 0 0 0 0 0 0 0 0 0 0 0 0 0 0 0 0 0 0 0 0 0 0 0 10 0 0 0 0 0 0 0 0 0 156 0 0 0 0 0 0 0 0 0 0 0 0 0 204 0 0 0 0 0 0 0 60 0 0 0 0 0 0 0 0 0 0 0 0 0 0 0 0 0 0 0 0 0 0 0 0 0 0 0 0 0 0 0 0 0 0 0 0 0 0 0 0 0 0 0 0 0 0 0 0 0 0 0 0 0 0 0 0 0 0 0 0 0 0 0 0 0 0 0 0 0 0 0 0 0 0 0 0 0 0 0 26 0 0 0 0 0 0 0 0 0 0 0 0 53 0 0 47 0 0 0 0 0 0 0 0 0 0 0 0 0 0 0 0 0 2 0 0 0 0 0 0 0 0 0 0 0 0 0 0 0 0 0 0 0 0 0 0 0 0 0 0 0 0 0 0 0 0 0 0 0 0 0 0 0 0 0 0 0 0 0 0 0 0 0 0 0 0 0 0 0 0 0 0 0 0 0 0 0 0 0 0 0 0 0 0 0 0 0 0 0 0 0 0 0 0 0 0 0 0 0 0 0 0 0 0 0 0 0 0 0 0 0 0 0 0 0 0 0 0 0 0 0 0 0 0 0 0 0 0 0 0 0 0 0 0 0 0 0 0 0 0 0 0 0 0 0 0 0 0 0 0 0 0 0 0 0 0 0 0 0 0 0 0 0 0 0 0 0 0 0 0 0 0 0 0 0 0 0 0 0 0 0 0 0 0 0 0 0 0 0 0 0 0 0 0 0 0 0 0 0 0 12 0 0 0 0 0 0 0 0 0 0 0 0 0 0 0 0 0 0 0 0 0 0 0 0 0 0 0 0 0 0 0 0 0 0 0 0 0 0 0 0 0 0 0 0 0 0 0 0 0 0 0 0 0 0 0 0 0 0 0 0 0 0 0 0 0 0 0 0 0 0 0 0 0 0 0 0 0 0 0 0 0 0 0 0 0 0 0 0 0 0 0 0 0 0 0 0 0 0 0 0 0 0 0 0 0 0 0 0 60 0 0 0 0 0 84 121 288 144 121 0 0 8 0 0 0 0 0 54 0 0 0 0 0 0 1 0 0 0 0 0 0 0 0 0 0 0 0 0 0 0 0 0 0 0 0 0 0 0 0 0 0 0 0 0 0 0 0 0 0 0 0 0 0 0 0 0 0 0 0 0 0 0 0 4 0 0 18 0 6 0 0 0 0 0 0 0 0 0 0 0 0 0 0 0 0 0 0 0 0 0 0 0 0 0 0 120 0 0 0 0 0 0 0 0 0 16 0 0 0 0 0 0 0 0 0 0 0 0 0 0 0 0 0 0 0 0 0 0 0 0 0 0 0 0 0 0 0 0 0 0 0 0 0 0 0 0 0 0 0 0 0 0 0 0 0 0 0 0 0 0 0 0 0 0 0 0 0 0 0 0 0 0 0 0 0 0 0 0 0 0 0 0 0 128 109 0 0 0 0 0 0 0 0 0 0 0 0 0 0 0 0 0 0 0 102 121 42 0 0 0 0 0 0 0 0 0 15 0 0 0 0 0 0 0 0 0 0 27 0 156 0 18 0 0 0 0 0 0 0 0 0 0 0 0 0 0 0 0 0 0 0 0 0 0 0 0 0 0 0 0 0 0 0 0 0 0 0 0 0 0 0 0 0 0 0 0 0 0 0 0 0 0 0 0 0 0 0 0 0 0 0 0 0 0 0 0 0 0 0 0 0 0 0 0 0 0 0 0 0 0 0 0 0 0 0 0 0 0 0 0 0 0 0 0 0 0 0 0 0 0 0 0 0 0 0 Printing Sanity3
offset_index value1294
offset list size1294
reward size1294
potential size1294
-----------------------------------------------------------------------------------------------------------------------------------------------------------------------------------------------------

DRAM Statistics
 CHANNEL 0
 RQ ROW_BUFFER_HIT:      49270  ROW_BUFFER_MISS:     258005
 DBUS_CONGESTED:        112
 WQ ROW_BUFFER_HIT:      22541  ROW_BUFFER_MISS:     200922  FULL:          0

 AVG_CONGESTED_CYCLE: 3
 All warmup complete: 2
Channel 0 Bank busy for read cycles: 0
Channel 0 Bank busy for write cycles: 0
Channel 0
Rank 0
0banks busy for read cycles: 427300424
0banks busy for write cycles: 124787
1banks busy for read cycles: 24563761
1banks busy for write cycles: 16062334
2banks busy for read cycles: 4836165
2banks busy for write cycles: 4364999
3banks busy for read cycles: 1309173
3banks busy for write cycles: 1573072
4banks busy for read cycles: 379323
4banks busy for write cycles: 684936
5banks busy for read cycles: 111102
5banks busy for write cycles: 357875
6banks busy for read cycles: 38676
6banks busy for write cycles: 220910
7banks busy for read cycles: 32934
7banks busy for write cycles: 166599
8banks busy for read cycles: 59575
8banks busy for write cycles: 217404

CPU 0 Branch Prediction Accuracy: 99.7599% MPKI: 0.43378 Average ROB Occupancy at Mispredict: 28.2891
Branch types
NOT_BRANCH: 163865475 81.9327%
BRANCH_DIRECT_JUMP: 1802124 0.901062%
BRANCH_INDIRECT: 9657284 4.82864%
BRANCH_CONDITIONAL: 18071065 9.03553%
BRANCH_DIRECT_CALL: 2593017 1.29651%
BRANCH_INDIRECT_CALL: 705122 0.352561%
BRANCH_RETURN: 3305869 1.65293%
BRANCH_OTHER: 0 0%

DRAM PAGES: 1048576
Allocated PAGES: 6553
