
*** ChampSim Multicore Out-of-Order Simulator ***

Warmup Instructions: 50000000
Simulation Instructions: 200000000
Number of CPUs: 1
LLC sets: 2048
LLC ways: 16
Off-chip DRAM Size: 4096 MB Channels: 1 Width: 64-bit Data Rate: 6400 MT/s
CPU 0 runs traces/spec2k17/server_010.champsimtrace.xz
.xz
BTB has LRU replacement policy
ITLB has LRU replacement policy
DTLB has LRU replacement policy
STLB has LRU replacement policy
L1I has LRU replacement policy
L1D has LRU replacement policy
Initialize SRRIP state for L2C
Initialize DRRIP state for LLC
Heartbeat CPU 0 instructions: 10000003 cycles: 2781152 heartbeat IPC: 3.59563 cumulative IPC: 3.59563 (Simulation time: 0 hr 0 min 34 sec) 
Heartbeat CPU 0 instructions: 20000002 cycles: 5553666 heartbeat IPC: 3.60683 cumulative IPC: 3.60123 (Simulation time: 0 hr 1 min 9 sec) 
Heartbeat CPU 0 instructions: 30000002 cycles: 8329787 heartbeat IPC: 3.60215 cumulative IPC: 3.60153 (Simulation time: 0 hr 1 min 45 sec) 
Heartbeat CPU 0 instructions: 40000002 cycles: 11102270 heartbeat IPC: 3.60688 cumulative IPC: 3.60287 (Simulation time: 0 hr 2 min 22 sec) 
Heartbeat CPU 0 instructions: 50000002 cycles: 13876767 heartbeat IPC: 3.60426 cumulative IPC: 3.60314 (Simulation time: 0 hr 3 min 0 sec) 

Warmup complete CPU 0 instructions: 50000002 cycles: 13876767 (Simulation time: 0 hr 3 min 0 sec) 

Offsets elements: 
Potential of Offsets elements: 
rewards of Offsets elements: 
Printing Sanity1
offset list size770
Offsets elements: 
Potential of Offsets elements: 
rewards of Offsets elements: 0 520 0 0 0 873 0 0 0 0 1152 0 0 0 0 0 0 0 0 0 0 0 0 0 0 9 0 0 0 0 0 0 0 12 0 0 0 0 1025 0 0 0 1397 16 60 534 0 0 0 0 92 0 0 0 0 0 24 2 1 0 79 366 180 40 45 375 566 187 189 396 128 4 0 0 0 0 0 0 0 0 0 4 0 0 2 0 0 0 0 0 0 0 0 0 0 0 0 0 0 0 0 0 0 0 0 571 7 0 0 0 0 0 0 0 0 0 0 0 0 0 0 0 0 0 0 0 0 0 0 0 0 0 0 0 0 0 0 0 1411 0 0 0 0 0 0 0 0 0 0 0 0 0 478 0 0 0 12 0 0 0 0 0 0 0 0 0 0 0 0 0 0 0 0 3 0 0 0 0 0 0 0 0 0 0 0 0 4 129 80 26 27 57 0 47 0 0 0 6 107 108 72 55 0 216 84 48 108 18 90 54 66 4 4 6 0 0 0 0 0 4 1 0 0 0 0 0 0 0 0 0 0 0 375 0 0 0 0 0 0 0 0 71 0 0 0 0 0 0 0 0 0 0 0 0 0 0 0 0 0 0 0 0 0 0 0 0 0 0 0 0 24 0 0 72 0 0 0 0 0 0 0 150 90 0 0 0 0 0 0 0 0 0 4 0 0 0 0 0 0 0 0 0 0 0 0 0 0 0 0 0 0 0 0 0 0 0 0 0 0 0 0 0 0 0 0 0 2 0 0 0 0 0 0 0 0 0 0 0 0 0 0 0 9 0 0 0 0 0 0 0 0 0 0 0 0 0 0 0 0 0 0 0 419 0 0 0 0 0 0 0 0 0 0 0 0 0 0 0 0 226 218 0 0 0 0 0 0 0 0 0 0 0 0 0 0 0 0 0 0 0 0 0 0 0 0 4 0 0 0 0 0 18 12 22 27 9 9 33 0 0 0 0 12 252 252 72 183 9 9 8 18 102 288 111 0 0 0 0 0 0 0 0 0 0 0 0 0 0 0 0 0 0 0 0 0 0 108 0 0 0 0 0 0 0 0 0 0 0 0 0 0 0 0 0 0 0 0 0 0 0 0 0 0 0 0 0 0 0 0 17 0 0 0 0 0 0 0 0 0 0 0 0 0 0 0 0 0 0 0 0 0 0 0 0 0 0 0 0 0 0 0 0 0 0 0 0 0 1 0 0 0 0 0 0 0 0 0 0 0 0 0 0 0 0 0 0 0 0 0 0 0 0 0 0 0 0 0 0 0 0 0 0 0 0 0 0 0 189 0 0 0 0 0 0 0 0 0 0 0 0 0 0 0 0 0 0 0 0 0 0 0 0 0 0 0 0 0 0 0 0 0 0 0 10 0 0 0 0 0 586 125 21 0 0 0 0 0 0 0 0 0 12 0 0 46 0 3 0 0 0 0 0 0 0 0 0 0 525 0 0 0 0 0 0 78 24 3 0 0 0 0 0 0 0 0 0 0 0 0 0 0 0 0 0 0 0 0 0 0 0 0 15 498 10 83 0 197 204 0 0 0 0 0 0 0 0 0 0 0 0 0 0 0 0 0 220 0 0 0 0 0 0 0 0 0 0 0 0 195 0 0 0 0 0 0 0 0 159 132 0 354 0 0 0 0 0 0 1 32 0 0 0 0 0 0 0 0 0 0 0 0 0 0 0 0 0 0 0 0 0 0 18 0 0 0 0 0 0 0 0 0 0 0 0 36 19 0 0 0 0 
Printing Sanity2
Heartbeat CPU 0 instructions: 60000001 cycles: 37054547 heartbeat IPC: 0.431448 cumulative IPC: 0.431448 (Simulation time: 0 hr 4 min 2 sec) 
Heartbeat CPU 0 instructions: 70000002 cycles: 60857740 heartbeat IPC: 0.420112 cumulative IPC: 0.425704 (Simulation time: 0 hr 5 min 4 sec) 
Heartbeat CPU 0 instructions: 80000003 cycles: 84290886 heartbeat IPC: 0.426746 cumulative IPC: 0.426051 (Simulation time: 0 hr 6 min 5 sec) 
Heartbeat CPU 0 instructions: 90000001 cycles: 107784949 heartbeat IPC: 0.425639 cumulative IPC: 0.425948 (Simulation time: 0 hr 7 min 9 sec) 
Heartbeat CPU 0 instructions: 100000000 cycles: 138816820 heartbeat IPC: 0.322249 cumulative IPC: 0.400192 (Simulation time: 0 hr 8 min 25 sec) 
*** Reached end of trace for Core: 0 Repeating trace: traces/spec2k17/server_010.champsimtrace.xz
Heartbeat CPU 0 instructions: 110000000 cycles: 166394113 heartbeat IPC: 0.362617 cumulative IPC: 0.393398 (Simulation time: 0 hr 9 min 36 sec) 
Heartbeat CPU 0 instructions: 120000001 cycles: 190203259 heartbeat IPC: 0.420007 cumulative IPC: 0.396991 (Simulation time: 0 hr 10 min 35 sec) 
Heartbeat CPU 0 instructions: 130000003 cycles: 214085881 heartbeat IPC: 0.418715 cumulative IPC: 0.399582 (Simulation time: 0 hr 11 min 38 sec) 
Heartbeat CPU 0 instructions: 140000001 cycles: 237589780 heartbeat IPC: 0.425461 cumulative IPC: 0.402301 (Simulation time: 0 hr 12 min 39 sec) 
Heartbeat CPU 0 instructions: 150000000 cycles: 260873261 heartbeat IPC: 0.429489 cumulative IPC: 0.404864 (Simulation time: 0 hr 13 min 42 sec) 
Heartbeat CPU 0 instructions: 160000000 cycles: 283913511 heartbeat IPC: 0.434023 cumulative IPC: 0.407352 (Simulation time: 0 hr 14 min 44 sec) 
Heartbeat CPU 0 instructions: 170000000 cycles: 307725817 heartbeat IPC: 0.419951 cumulative IPC: 0.408373 (Simulation time: 0 hr 15 min 46 sec) 
Heartbeat CPU 0 instructions: 180000001 cycles: 330934219 heartbeat IPC: 0.430878 cumulative IPC: 0.41002 (Simulation time: 0 hr 16 min 46 sec) 
Heartbeat CPU 0 instructions: 190000001 cycles: 354505187 heartbeat IPC: 0.424251 cumulative IPC: 0.411005 (Simulation time: 0 hr 17 min 46 sec) 
Heartbeat CPU 0 instructions: 200000000 cycles: 380076296 heartbeat IPC: 0.391066 cumulative IPC: 0.409613 (Simulation time: 0 hr 18 min 50 sec) 
*** Reached end of trace for Core: 0 Repeating trace: traces/spec2k17/server_010.champsimtrace.xz
Heartbeat CPU 0 instructions: 210000000 cycles: 413078520 heartbeat IPC: 0.30301 cumulative IPC: 0.4008 (Simulation time: 0 hr 20 min 8 sec) 
Heartbeat CPU 0 instructions: 220000000 cycles: 436791507 heartbeat IPC: 0.42171 cumulative IPC: 0.401972 (Simulation time: 0 hr 21 min 8 sec) 
Heartbeat CPU 0 instructions: 230000002 cycles: 460288655 heartbeat IPC: 0.425584 cumulative IPC: 0.403215 (Simulation time: 0 hr 22 min 9 sec) 
Heartbeat CPU 0 instructions: 240000000 cycles: 484035467 heartbeat IPC: 0.421109 cumulative IPC: 0.404119 (Simulation time: 0 hr 23 min 12 sec) 
Heartbeat CPU 0 instructions: 250000002 cycles: 507425121 heartbeat IPC: 0.42754 cumulative IPC: 0.405229 (Simulation time: 0 hr 24 min 14 sec) 
Finished CPU 0 instructions: 200000000 cycles: 493548354 cumulative IPC: 0.405229 (Simulation time: 0 hr 24 min 14 sec) 

ChampSim completed all CPUs

Region of Interest Statistics

CPU 0 cumulative IPC: 0.405229 instructions: 200000000 cycles: 493548354
ITLB TOTAL     ACCESS:   32856638  HIT:   32107218  MISS:     749420  HIT %:    97.7191  MISS %:    2.28088   MPKI: 3.7471
ITLB LOAD TRANSLATION ACCESS:   32856638  HIT:   32107218  MISS:     749420  HIT %:    97.7191  MISS %:    2.28088   MPKI: 3.7471
ITLB PREFETCH  REQUESTED:          0  ISSUED:          0  USEFUL:          0  USELESS:          0
ITLB USEFUL LOAD PREFETCHES:          0 PREFETCH ISSUED TO LOWER LEVEL:          0  ACCURACY: -nan
ITLB TIMELY PREFETCHES:          0 LATE PREFETCHES: 0 DROPPED PREFETCHES: 0
ITLB PREFETCHES SAME FILL-ORIGIN LEVEL: 0 DIFFERENT FILL-ORIGIN LEVEL: 0
ITLB AVERAGE MISS LATENCY: 16.0778 cycles
ITLB RQ	ACCESS:   39529933	FORWARD:          0	MERGED:    6492951	TO_CACHE:   33036982

DTLB TOTAL     ACCESS:   38802997  HIT:   34934938  MISS:    3868059  HIT %:    90.0315  MISS %:    9.96845   MPKI: 19.3403
DTLB LOAD TRANSLATION ACCESS:   38802997  HIT:   34934938  MISS:    3868059  HIT %:    90.0315  MISS %:    9.96845   MPKI: 19.3403
DTLB PREFETCH  REQUESTED:          0  ISSUED:          0  USEFUL:          0  USELESS:          0
DTLB USEFUL LOAD PREFETCHES:          0 PREFETCH ISSUED TO LOWER LEVEL:          0  ACCURACY: -nan
DTLB TIMELY PREFETCHES:          0 LATE PREFETCHES: 0 DROPPED PREFETCHES: 0
DTLB PREFETCHES SAME FILL-ORIGIN LEVEL: 0 DIFFERENT FILL-ORIGIN LEVEL: 0
DTLB AVERAGE MISS LATENCY: 12.1722 cycles
DTLB RQ	ACCESS:   50161895	FORWARD:          0	MERGED:   11200268	TO_CACHE:   38961627

STLB TOTAL     ACCESS:   12507776  HIT:   12064306  MISS:     443470  HIT %:    96.4544  MISS %:    3.54555   MPKI: 2.21735
STLB LOAD TRANSLATION ACCESS:    4617479  HIT:    4178450  MISS:     439029  HIT %:     90.492  MISS %:    9.50798   MPKI: 2.19515
STLB TRANSLATION FROM L1D PREFETCHER ACCESS:    7890297  HIT:    7885856  MISS:       4441  HIT %:    99.9437  MISS %:  0.0562843   MPKI: 0.022205
STLB PREFETCH  REQUESTED:          0  ISSUED:          0  USEFUL:       4321  USELESS:        119
STLB USEFUL LOAD PREFETCHES:       4321 PREFETCH ISSUED TO LOWER LEVEL:          0  ACCURACY: inf
STLB TIMELY PREFETCHES:       4321 LATE PREFETCHES: 170 DROPPED PREFETCHES: 76480
STLB PREFETCHES SAME FILL-ORIGIN LEVEL: 0 DIFFERENT FILL-ORIGIN LEVEL: 0
STLB AVERAGE MISS LATENCY: 6679.8 cycles
STLB RQ	ACCESS:   13949176	FORWARD:          0	MERGED:    1362402	TO_CACHE:   12586774

STLB Hit, L1D data hit: 0
STLB Hit, L2C data hit: 0
STLB Hit, LLC data hit: 0
STLB Hit, LLC data miss: 0
STLB STLB hints to L2: 0
L1D TOTAL     ACCESS:   57864730  HIT:   52577399  MISS:    5287331  HIT %:    90.8626  MISS %:     9.1374   MPKI: 26.4367
L1D LOAD      ACCESS:   30552296  HIT:   26484688  MISS:    4067608  HIT %:    86.6864  MISS %:    13.3136   MPKI: 20.338
L1D RFO       ACCESS:   19118387  HIT:   18774125  MISS:     344262  HIT %:    98.1993  MISS %:    1.80069   MPKI: 1.72131
L1D PREFETCH  ACCESS:    8194047  HIT:    7318586  MISS:     875461  HIT %:    89.3159  MISS %:    10.6841   MPKI: 4.3773
AGUS PREFETCH L1 MISS: 0
L1D PREFETCH  REQUESTED:   18855585  ISSUED:   18855459  USEFUL:     264811  USELESS:     610508
L1D USEFUL LOAD PREFETCHES:     264811 PREFETCH ISSUED TO LOWER LEVEL:     918314  ACCURACY: 28.8367
L1D TIMELY PREFETCHES:     264811 LATE PREFETCHES: 42365 DROPPED PREFETCHES: 114088
L1D PREFETCHES SAME FILL-ORIGIN LEVEL: 918314 DIFFERENT FILL-ORIGIN LEVEL: 0
L1D AVERAGE MISS LATENCY: 2.19425e+06 cycles
L1D RQ	ACCESS:   44500062	FORWARD:          0	MERGED:   13636955	TO_CACHE:   30656839
L1D WQ	ACCESS:   19787120	FORWARD:     208873	MERGED:     282064	TO_CACHE:   19505056
L1D PQ	ACCESS:    9523762	FORWARD:          0	MERGED:     189460	TO_CACHE:    9331697

L1D UNIQUE REGIONS ACCESSED: 0
L1D REGIONS CONFLICTS: 0
L1D Cross Page Prefetch Requests: 406896
L1D Same Page Prefetch Requests: 9116866
L1D ROI Sum of L1D PQ occupancy: 123869532
L1D PREFETCHES PUSHED FROM L2C: 0
L1I TOTAL     ACCESS:   37988256  HIT:   33251091  MISS:    4737165  HIT %:    87.5299  MISS %:    12.4701   MPKI: 23.6858
L1I LOAD      ACCESS:   37988256  HIT:   33251091  MISS:    4737165  HIT %:    87.5299  MISS %:    12.4701   MPKI: 23.6858
L1I PREFETCH  REQUESTED:          0  ISSUED:          0  USEFUL:          0  USELESS:          0
L1I USEFUL LOAD PREFETCHES:          0 PREFETCH ISSUED TO LOWER LEVEL:          0  ACCURACY: -nan
L1I TIMELY PREFETCHES:          0 LATE PREFETCHES: 0 DROPPED PREFETCHES: 0
L1I PREFETCHES SAME FILL-ORIGIN LEVEL: 0 DIFFERENT FILL-ORIGIN LEVEL: 0
L1I AVERAGE MISS LATENCY: 28.5549 cycles
L1I RQ	ACCESS:   58896910	FORWARD:          0	MERGED:   19366977	TO_CACHE:   39529933

BTB TOTAL     ACCESS:   24868891  HIT:   19988027  MISS:    4880864  HIT %:    80.3736  MISS %:    19.6264   MPKI: 24.4043
BTB BRANCH_DIRECT_JUMP	ACCESS:    1753351  HIT:    1473058  MISS:     280293
BTB BRANCH_INDIRECT	ACCESS:   11709257  HIT:    9373220  MISS:    2336037
BTB BRANCH_CONDITIONAL	ACCESS:    4650053  HIT:    4206572  MISS:     443481
BTB BRANCH_DIRECT_CALL	ACCESS:    2659359  HIT:    2113070  MISS:     546289
BTB BRANCH_INDIRECT_CALL	ACCESS:     715231  HIT:     659865  MISS:      55366
BTB BRANCH_RETURN	ACCESS:    3381640  HIT:    2162242  MISS:    1219398
BTB BRANCH_OTHER ACCESS:          0  HIT:          0  MISS:          0

L2C TOTAL     ACCESS:   11707834  HIT:    7622447  MISS:    4085387  HIT %:    65.1055  MISS %:    34.8945   MPKI: 20.4269
L2C LOAD      ACCESS:    8762299  HIT:    5613608  MISS:    3148691  HIT %:    64.0655  MISS %:    35.9345   MPKI: 15.7435
L2C DATA LOAD MPKI: 4.6814
L2C INSTRUCTION LOAD MPKI: 11.062
L2C RFO       ACCESS:     343774  HIT:     178826  MISS:     164948  HIT %:    52.0185  MISS %:    47.9815   MPKI: 0.82474
L2C PREFETCH  ACCESS:     918298  HIT:     408853  MISS:     509445  HIT %:    44.5229  MISS %:    55.4771   MPKI: 2.54723
AGUS PREFETCH L1 MISS: 0
L2C DATA PREFETCH MPKI: 2.54723
L2C INSTRUCTION PREFETCH MPKI: 0
L2C WRITEBACK ACCESS:    1006367  HIT:     959629  MISS:      46738  HIT %:    95.3558  MISS %:    4.64423   MPKI: 0.23369
L2C LOAD TRANSLATION ACCESS:     556393  HIT:     343531  MISS:     212862  HIT %:    61.7425  MISS %:    38.2575   MPKI: 1.06431
L2C TRANSLATION FROM L1D PREFETCHER ACCESS:     120703  HIT:     118000  MISS:       2703  HIT %:    97.7606  MISS %:    2.23938   MPKI: 0.013515
L2C PREFETCH  REQUESTED:          0  ISSUED:          0  USEFUL:      29926  USELESS:     481359
L2C USEFUL LOAD PREFETCHES:      29926 PREFETCH ISSUED TO LOWER LEVEL:     509445  ACCURACY: 5.87424
L2C TIMELY PREFETCHES:      29926 LATE PREFETCHES: 0 DROPPED PREFETCHES: 0
L2C PREFETCHES SAME FILL-ORIGIN LEVEL: 0 DIFFERENT FILL-ORIGIN LEVEL: 0
L2C AVERAGE MISS LATENCY: 39.9662 cycles
L2C RQ	ACCESS:    9783281	FORWARD:          0	MERGED:          0	TO_CACHE:    9783170
L2C WQ	ACCESS:    1006367	FORWARD:        126	MERGED:          0	TO_CACHE:    1006367
L2C PQ	ACCESS:     918314	FORWARD:          0	MERGED:          0	TO_CACHE:     918299

L2C Instructions Evicting Data 895382
L2C Translations Evicting Data 89282
L2C Data Evicting Data 652735
L2C Instructions Evicting Instructions 1202350
L2C Translations Evicting Instructions 115166
L2C Data Evicting Instructions 870499
L2C Instructions Evicting Translations 114678
L2C Translations Evicting Translations 11117
L2C Data Evicting Translations 87440
L2C Dense regions hint from L2: 0
PSCL5 TOTAL     ACCESS:     519962  HIT:     519962  MISS:          0  HIT %:        100  MISS %:          0   MPKI: 0
PSCL5 LOAD TRANSLATION ACCESS:     438871  HIT:     438871  MISS:          0  HIT %:        100  MISS %:          0   MPKI: 0
PSCL5 TRANSLATION FROM L1D PREFETCHER ACCESS:      81091  HIT:      81091  MISS:          0  HIT %:        100  MISS %:          0   MPKI: 0
PSCL5 PREFETCH  REQUESTED:          0  ISSUED:          0  USEFUL:          0  USELESS:          0
PSCL5 USEFUL LOAD PREFETCHES:          0 PREFETCH ISSUED TO LOWER LEVEL:          0  ACCURACY: -nan
PSCL5 TIMELY PREFETCHES:          0 LATE PREFETCHES: 0 DROPPED PREFETCHES: 0
PSCL5 PREFETCHES SAME FILL-ORIGIN LEVEL: 0 DIFFERENT FILL-ORIGIN LEVEL: 0

PSCL4 TOTAL     ACCESS:     474948  HIT:     473861  MISS:       1087  HIT %:    99.7711  MISS %:   0.228867   MPKI: 0.005435
PSCL4 LOAD TRANSLATION ACCESS:     401490  HIT:     400403  MISS:       1087  HIT %:    99.7293  MISS %:   0.270741   MPKI: 0.005435
PSCL4 TRANSLATION FROM L1D PREFETCHER ACCESS:      73458  HIT:      73458  MISS:          0  HIT %:        100  MISS %:          0   MPKI: 0
PSCL4 PREFETCH  REQUESTED:          0  ISSUED:          0  USEFUL:          0  USELESS:          0
PSCL4 USEFUL LOAD PREFETCHES:          0 PREFETCH ISSUED TO LOWER LEVEL:          0  ACCURACY: -nan
PSCL4 TIMELY PREFETCHES:          0 LATE PREFETCHES: 0 DROPPED PREFETCHES: 0
PSCL4 PREFETCHES SAME FILL-ORIGIN LEVEL: 0 DIFFERENT FILL-ORIGIN LEVEL: 0

PSCL3 TOTAL     ACCESS:     516073  HIT:     512502  MISS:       3571  HIT %:     99.308  MISS %:   0.691956   MPKI: 0.017855
PSCL3 LOAD TRANSLATION ACCESS:     435376  HIT:     431805  MISS:       3571  HIT %:    99.1798  MISS %:   0.820211   MPKI: 0.017855
PSCL3 TRANSLATION FROM L1D PREFETCHER ACCESS:      80697  HIT:      80697  MISS:          0  HIT %:        100  MISS %:          0   MPKI: 0
PSCL3 PREFETCH  REQUESTED:          0  ISSUED:          0  USEFUL:          0  USELESS:          0
PSCL3 USEFUL LOAD PREFETCHES:          0 PREFETCH ISSUED TO LOWER LEVEL:          0  ACCURACY: -nan
PSCL3 TIMELY PREFETCHES:          0 LATE PREFETCHES: 0 DROPPED PREFETCHES: 0
PSCL3 PREFETCHES SAME FILL-ORIGIN LEVEL: 0 DIFFERENT FILL-ORIGIN LEVEL: 0

PSCL2 TOTAL     ACCESS:     481286  HIT:     367556  MISS:     113730  HIT %:    76.3696  MISS %:    23.6304   MPKI: 0.56865
PSCL2 LOAD TRANSLATION ACCESS:     439694  HIT:     325964  MISS:     113730  HIT %:    74.1343  MISS %:    25.8657   MPKI: 0.56865
PSCL2 TRANSLATION FROM L1D PREFETCHER ACCESS:      41592  HIT:      41592  MISS:          0  HIT %:        100  MISS %:          0   MPKI: 0
PSCL2 PREFETCH  REQUESTED:          0  ISSUED:          0  USEFUL:          0  USELESS:          0
PSCL2 USEFUL LOAD PREFETCHES:          0 PREFETCH ISSUED TO LOWER LEVEL:          0  ACCURACY: -nan
PSCL2 TIMELY PREFETCHES:          0 LATE PREFETCHES: 0 DROPPED PREFETCHES: 0
PSCL2 PREFETCHES SAME FILL-ORIGIN LEVEL: 0 DIFFERENT FILL-ORIGIN LEVEL: 0

LLC TOTAL     ACCESS:    4515897  HIT:    4247431  MISS:     268466  HIT %:    94.0551  MISS %:    5.94491   MPKI: 1.34233
LLC LOAD      ACCESS:    3148691  HIT:    3009596  MISS:     139095  HIT %:    95.5824  MISS %:    4.41755   MPKI: 0.695475
LLC RFO       ACCESS:     164945  HIT:     125962  MISS:      38983  HIT %:    76.3661  MISS %:    23.6339   MPKI: 0.194915
LLC PREFETCH  ACCESS:     509445  HIT:     425502  MISS:      83943  HIT %:    83.5227  MISS %:    16.4773   MPKI: 0.419715
AGUS PREFETCH L1 MISS: 0
LLC WRITEBACK ACCESS:     477251  HIT:     474975  MISS:       2276  HIT %:    99.5231  MISS %:   0.476898   MPKI: 0.01138
LLC LOAD TRANSLATION ACCESS:     212862  HIT:     208921  MISS:       3941  HIT %:    98.1486  MISS %:    1.85143   MPKI: 0.019705
LLC TRANSLATION FROM L1D PREFETCHER ACCESS:       2703  HIT:       2475  MISS:        228  HIT %:    91.5649  MISS %:    8.43507   MPKI: 0.00114
LLC PREFETCH  REQUESTED:          0  ISSUED:          0  USEFUL:       5355  USELESS:      72673
LLC USEFUL LOAD PREFETCHES:       5355 PREFETCH ISSUED TO LOWER LEVEL:      83943  ACCURACY: 6.37933
LLC TIMELY PREFETCHES:       5355 LATE PREFETCHES: 0 DROPPED PREFETCHES: 0
LLC PREFETCHES SAME FILL-ORIGIN LEVEL: 0 DIFFERENT FILL-ORIGIN LEVEL: 0
LLC AVERAGE MISS LATENCY: 156.766 cycles
LLC RQ	ACCESS:    3529204	FORWARD:          0	MERGED:          0	TO_CACHE:    3529201
LLC WQ	ACCESS:     477251	FORWARD:          3	MERGED:          0	TO_CACHE:     477251
LLC PQ	ACCESS:     509445	FORWARD:          0	MERGED:          0	TO_CACHE:     509445

LLC Dense regions hint to LLC: 0

RAW hits: 2575337
Loads Generated: 47075399
Loads sent to L1D: 44500062
Stores Generated: 19787116
Stores sent to L1D: 19787120
Major fault: 0 Minor fault: 5910
Allocated PAGES: 5910
ucb ended
-----------------------------------------------------------------------------------------------------------------------------------------------------------------------------------------------------
Offsets elements: -4397629119285 -2 641344 -58012 -3298983 -1 2729674 4397629349445 7812687 -4397637172056 1 485379 40775 -333650 317692 4397628849169 7467017 -7467014 -4397629349444 -9921 107141 4397629793562 -4397629890782 35835 4397633038466 5332144 -9301111 -74 288223780708398208 -2200619250622 2200619250622 4084 -574296 3684 -21397 563865 24306 -24306 3 -343 340 24308 2 -250 254 -4 -288223780708398388 244174 -4398018296059 4398018296069 -10 8911388 -9155560 244179 -244178 8056865 -8056865 -4397628589036 -85360 -107141 4397629115187 -4397629105267 -9923 510196 -510196 4397629115192 -4397629105268 -9924 9925 4397629105266 -4397628629813 -485380 9924 4397629105269 9310329 -9310327 -4397629119290 4089 4397629115201 -4397629119291 4397638274625 145511 312 22337 -4976 -9318521 489476 60399 4397628569413 -9480 -145512 17673 4976 -22337 -9301161 9300848 -145511 163184 4977 -17361 -4397629363465 -3298984 4397631834942 -4397629119292 532288 6 186 -190 4397628587001 -388932654 388946857 4397629105087 9310327 -4397638429618 4397629119292 244173 -4397629363464 532294 -528199 4397629115202 9300847 -9301164 4397631834940 -9925 485380 -475456 475455 -485379 -4397629115192 4397629359368 -4397629349445 4397637162132 -4397636645901 4397636826379 -4397636826379 4397629115189 -4397629115189 4397629359365 -3 -4397629349441 4397629890782 -4397629890781 -35835 4397629069432 4397633074302 -3838 -570458 588173 -24307 24309 -24308 24307 4 -24651 24399 252 -73 -244171 9155559 -8911381 -244179 8056866 4397628922686 -4397629008046 9920 4397629105267 -9926 24817 -500273 -9310326 9300846 -4397638420137 -4397638433721 4397638416360 4397628629812 -4397637879806 4397637870325 145512 17672 -9323498 4397628477947 -4397628535961 -583331 4397629119291 -4397631834944 -386217001 4398018051944 -4397628587001 -532293 -4397629105088 4397638415414 532480 -532479 532293 4397628587003 -4397629115202 -4088 4397629119290 -4397629115201 4397638416048 4397628477944 -4397628535956 2729673 475456 4397628849172 -4397637162132 516231 4397636633878 4397629252224 -35836 288223780708398134 -4398018051885 8911378 -8911388 244178 -9920 -107144 -4397628604996 -500271 17674 17360 -9318522 -4397628535959 3356995 4397628535958 -9310328 4397628587000 7711194 -7711193 -4397629363466 641343 4397637788275 -6 192 -389465133 386217000 133698764 -519915764 4397638420137 -4397631834943 133698768 9 4397498030183 -4397631728967 -386216874 4398018295992 -2715651 3205532 -389422407 389422407 -3205533 4397639539793 -4397639539793 3547887 -8410 -3556551 3564960 7987 -7986 4397628539632 -4397632079108 3539476 7986 -3547465 3547888 -8409 8409 423 4397628295460 -4397628287051 4397628531223 -4397629363460 4397629363460 9056679 -4397641135786 4397640990274 -4397632079107 4397639539788 383679 -4397636717942 -489878 4397629363465 -4397628722122 4397636247252 -7711295 9310330 -4398027362145 386216875 4397628629408 -4397631834941 -4398025756667 -389422406 389422406 -7704852 4397631834941 244177 -4397632079118 3245903 -530256 130930649 -130322489 4397628511129 -4397631834942 4397638429617 -4398018051945 -4397629349261 -14203 -532288 -4397628586997 -528205 528201 -532289 -3298982 2729671 4397629890781 -4397629854946 -182581 3247939 244183 -244184 4398018296066 -8056866 9155560 -4397637744595 -4397629115187 -97221 22650 9318522 4397631834943 -4397628587003 -389464943 9310326 -4397638415414 -4397628830985 -532480 -9318525 244102 -244175 -4398018051886 60335 4397628569477 9300849 -17673 9481 -154992 163185 -386217002 -4397638429617 -24655 251 4398018296059 -9155559 4397629115191 500271 -510197 9155335 -4397638274625 4397638420136 -4397638433720 4397638433721 -9323501 24647 5 -288223780708398459 71 -288223780708398207 244184 -4398018296069 -186 4397628587002 -4397628831177 -4397638416048 4397638433720 -192501 4397629252221 4397636816458 -7711190 4397629900703 35836 24648 -24647 24646 24654 -24310 24315 -71 288223780708398205 -4397638438697 9318521 -4398018296118 4398027362271 14204 -345673 -4397636300228 4397629166864 24305 -24303 -24653 -288223780708398134 9318519 9323498 -9323496 4397628535961 2715652 388932653 532289 -532294 4397628586811 500273 15958 574296 570460 -566782 566528 255 -588180 588176 -24312 24311 -24309 -24652 1098694 4397629105272 -4397638420136 4397638437809 -4397638416360 4397629115199 570458 -566774 24651 -24650 500272 -4397629105265 -4397629105269 -4397629115196 4397629115195 -4397637940142 4397637785150 4397638438697 2729672 4397629115190 -4397629115190 510197 475454 4397628629815 4397629008047 9921 4397628629813 9923 4397628604999 -7812687 -4397628922686 -419010 -1098694 4397637870262 -9300849 -8192 -4397628831171 4088 4397638270536 4397629105268 -6925676 -4397628833214 -516231 192501 97220 4397629349261 190 -566778 -588177 -24311 4397629105265 3356994 4397628535959 4397636830484 -4397636830485 4397629119293 9066153 -4397637788275 -641343 386217002 -4397498136180 -130983110 133698766 -133698776 -386216876 -4397632079115 2715650 130983131 -130983132 489881 4397628523434 -4397631728965 4397639539791 -4397639539790 3547886 4397632096184 -4397628531646 -3547460 -7987 8410 4397628287051 -423 -2715645 4397640990272 -2715646 4397639923465 -4397637207820 4397636824141 -4397636334263 151466 -4398025763110 4398018051815 -4397637939738 -3205530 -4397631834939 -4397636334260 4397631834939 7704852 -4397639539791 -4397632079116 3245901 4397498188640 -4397628511129 -9066153 -4397628586811 4397637897138 17361 -3298980 2729669 4397629349444 526154 -15958 -317692 570212 246 3838 -3836 -570459 570461 -566783 24653 -254 -24400 -288223780708373734 -244183 4397628589036 97221 -24817 -2715649 3247937 24652 4397628604994 -4397629105266 -4397629115193 9926 288228178337028014 -2200619149310 -13940 2200629775495 -230 -10612015 4076 10607891 -10611967 -4418515 -8390683 -9 23421170 -15029463 -2200614744500 2200606352780 23421183 -23421182 8391720 15029507 -2200629772676 2200629773278 -15031042 15031044 -452 -2200629752428 -13994 2200629766221 -2200629752227 2200629752426 2200629752226 200 -200 199 -11126738 11126739 -11126740 11126740 -4096 4097 -4095 -2304 7936 -7935 2303 -619007 11749843 -203 -2200629775458 2200618648921 11126738 -11126737 -49983 25 -26 15 11176506 -11176506 -2200618598957 2200618598946 49740 -2200618648695 2200619163511 10612010 -2200629775521 2200629775907 -386 -11176551 -15 11176986 -2200629775932 1642 2200629773816 472 -471 -2200629775390 2200618598886 11176974 -11176985 -2200618683539 2200618683553 -13 62237 11114744 -10608368 -506379 506378 -506378 506379 -311 20 -625754 11233628 -11114271 -62237 11176981 62234 -62236 62238 62239 -62212 -31 31 11176921 36 -11114748 -12500 2200629775721 -11114523 11114745 -11235926 81254 -81253 121179 -121178 121176 -39907 11154622 -11154624 11154654 -33 -11154621 11154180 -11154181 11154621 11154619 -439 -11114274 -2200618597479 2200618659716 568928 -568928 10607584 22329 11154620 34 -11154655 11154618 -11154618 32 -2200629761278 2200614732334 3874289 11154183 436 -437 -11176516 568616 -2200619252155 86062 2200629774462 -10608370 -4063 -502316 506387 -568616 568608 506376 10608368 -568617 2200618597480 7 -8 22330 11154653 -4060 10612432 -10612432 10611958 -10607896 471 -10608369 10612430 -470 -11176515 -2200618683538 2200629860526 -473 435 -11176926 11176492 201 -11130835 11130835 -11130836 11130836 7935 -7937 11133140 -2200629775457 2200629775458 -11130632 11130834 -11177448 14 11 46361 518912 -565273 -2200618598229 2200629775521 386 -11177665 11177714 -2200629773817 2200629773818 -472 2200618598147 -2200618682812 2200618745781 11114747 -506376 -62969 62966 
Potential of Offsets elements: 28.1448 548.145 28.1448 28.1448 28.1448 901.145 28.1448 28.1448 28.1448 28.1448 1180.14 28.1448 28.1448 28.1448 28.1448 28.1448 28.1448 28.1448 28.1448 28.1448 28.1448 28.1448 28.1448 28.1448 28.1448 37.1448 28.1448 28.1448 28.1448 28.1448 28.1448 28.1448 28.1448 40.1448 28.1448 28.1448 28.1448 28.1448 1053.14 28.1448 28.1448 28.1448 1397.12 44.1448 88.1448 562.145 28.1448 28.1448 28.1448 28.1448 120.145 28.1448 28.1448 28.1448 28.1448 28.1448 52.1448 30.1448 29.1448 28.1448 107.145 394.145 208.145 68.1448 73.1448 403.145 594.145 215.145 217.145 424.145 156.145 32.1448 28.1448 28.1448 28.1448 28.1448 28.1448 28.1448 28.1448 28.1448 28.1448 32.1448 28.1448 28.1448 30.1448 28.1448 28.1448 28.1448 28.1448 28.1448 28.1448 28.1448 28.1448 28.1448 28.1448 28.1448 28.1448 28.1448 28.1448 28.1448 28.1448 28.1448 28.1448 28.1448 28.1448 599.145 35.1448 28.1448 28.1448 28.1448 28.1448 28.1448 28.1448 28.1448 28.1448 28.1448 28.1448 28.1448 28.1448 28.1448 28.1448 28.1448 28.1448 28.1448 28.1448 28.1448 28.1448 28.1448 28.1448 28.1448 28.1448 28.1448 28.1448 28.1448 28.1448 28.1448 28.1448 28.1448 1276.6 28.1448 28.1448 28.1448 28.1448 28.1448 28.1448 28.1448 28.1448 28.1448 28.1448 28.1448 28.1448 28.1448 506.145 28.1448 28.1448 28.1448 40.1448 28.1448 28.1448 28.1448 28.1448 28.1448 28.1448 28.1448 28.1448 28.1448 28.1448 28.1448 28.1448 28.1448 28.1448 28.1448 28.1448 31.1448 28.1448 28.1448 28.1448 28.1448 28.1448 28.1448 28.1448 28.1448 28.1448 28.1448 28.1448 28.1448 32.1448 157.145 108.145 54.1448 55.1448 85.1448 28.1448 75.1448 28.1448 28.1448 28.1448 34.1448 135.145 136.145 100.145 83.1448 28.1448 244.145 112.145 76.1448 136.145 46.1448 118.145 82.1448 94.1448 32.1448 32.1448 34.1448 28.1448 28.1448 28.1448 28.1448 28.1448 32.1448 29.1448 28.1448 28.1448 28.1448 28.1448 28.1448 28.1448 28.1448 28.1448 28.1448 28.1448 28.1448 403.145 28.1448 28.1448 28.1448 28.1448 28.1448 28.1448 28.1448 28.1448 99.1448 28.1448 28.1448 28.1448 28.1448 28.1448 28.1448 28.1448 28.1448 28.1448 28.1448 28.1448 28.1448 28.1448 28.1448 28.1448 28.1448 28.1448 28.1448 28.1448 28.1448 28.1448 28.1448 28.1448 28.1448 28.1448 28.1448 28.1448 28.1448 52.1448 28.1448 28.1448 100.145 28.1448 28.1448 28.1448 28.1448 28.1448 28.1448 28.1448 178.145 118.145 28.1448 28.1448 28.1448 28.1448 28.1448 28.1448 28.1448 28.1448 28.1448 32.1448 28.1448 28.1448 28.1448 28.1448 28.1448 28.1448 28.1448 28.1448 28.1448 28.1448 28.1448 28.1448 28.1448 28.1448 28.1448 28.1448 28.1448 28.1448 28.1448 28.1448 28.1448 28.1448 28.1448 28.1448 28.1448 28.1448 28.1448 28.1448 28.1448 28.1448 28.1448 28.1448 28.1448 30.1448 28.1448 28.1448 28.1448 28.1448 28.1448 28.1448 28.1448 28.1448 28.1448 28.1448 28.1448 28.1448 28.1448 28.1448 28.1448 37.1448 28.1448 28.1448 28.1448 28.1448 28.1448 28.1448 28.1448 28.1448 28.1448 28.1448 28.1448 28.1448 28.1448 28.1448 28.1448 28.1448 28.1448 28.1448 28.1448 447.145 28.1448 28.1448 28.1448 28.1448 28.1448 28.1448 28.1448 28.1448 28.1448 28.1448 28.1448 28.1448 28.1448 28.1448 28.1448 28.1448 254.145 246.145 28.1448 28.1448 28.1448 28.1448 28.1448 28.1448 28.1448 28.1448 28.1448 28.1448 28.1448 28.1448 28.1448 28.1448 28.1448 28.1448 28.1448 28.1448 28.1448 28.1448 28.1448 28.1448 28.1448 28.1448 32.1448 28.1448 28.1448 28.1448 28.1448 28.1448 46.1448 40.1448 50.1448 55.1448 37.1448 37.1448 61.1448 28.1448 28.1448 28.1448 28.1448 40.1448 280.145 280.145 100.145 211.145 37.1448 37.1448 36.1448 46.1448 130.145 316.145 139.145 28.1448 28.1448 28.1448 28.1448 28.1448 28.1448 28.1448 28.1448 28.1448 28.1448 28.1448 28.1448 28.1448 28.1448 28.1448 28.1448 28.1448 28.1448 28.1448 28.1448 28.1448 28.1448 136.145 28.1448 28.1448 28.1448 28.1448 28.1448 28.1448 28.1448 28.1448 28.1448 28.1448 28.1448 28.1448 28.1448 28.1448 28.1448 28.1448 28.1448 28.1448 28.1448 28.1448 28.1448 28.1448 28.1448 28.1448 28.1448 28.1448 28.1448 28.1448 28.1448 28.1448 28.1448 28.1448 45.1448 28.1448 28.1448 28.1448 28.1448 28.1448 28.1448 28.1448 28.1448 28.1448 28.1448 28.1448 28.1448 28.1448 28.1448 28.1448 28.1448 28.1448 28.1448 28.1448 28.1448 28.1448 28.1448 28.1448 28.1448 28.1448 28.1448 28.1448 28.1448 28.1448 28.1448 28.1448 28.1448 28.1448 28.1448 28.1448 28.1448 28.1448 29.1448 28.1448 28.1448 28.1448 28.1448 28.1448 28.1448 28.1448 28.1448 28.1448 28.1448 28.1448 28.1448 28.1448 28.1448 28.1448 28.1448 28.1448 28.1448 28.1448 28.1448 28.1448 28.1448 28.1448 28.1448 28.1448 28.1448 28.1448 28.1448 28.1448 28.1448 28.1448 28.1448 28.1448 28.1448 28.1448 28.1448 28.1448 28.1448 28.1448 217.145 28.1448 28.1448 28.1448 28.1448 28.1448 28.1448 28.1448 28.1448 28.1448 28.1448 28.1448 28.1448 28.1448 28.1448 28.1448 28.1448 28.1448 28.1448 28.1448 28.1448 28.1448 28.1448 28.1448 28.1448 28.1448 28.1448 28.1448 28.1448 28.1448 28.1448 28.1448 28.1448 28.1448 28.1448 28.1448 38.1448 28.1448 28.1448 28.1448 28.1448 28.1448 614.145 153.145 49.1448 28.1448 28.1448 28.1448 28.1448 28.1448 28.1448 28.1448 28.1448 28.1448 40.1448 28.1448 28.1448 74.1448 28.1448 31.1448 28.1448 28.1448 28.1448 28.1448 28.1448 28.1448 28.1448 28.1448 28.1448 28.1448 553.145 28.1448 28.1448 28.1448 28.1448 28.1448 28.1448 106.145 52.1448 31.1448 28.1448 28.1448 28.1448 28.1448 28.1448 28.1448 28.1448 28.1448 28.1448 28.1448 28.1448 28.1448 28.1448 28.1448 28.1448 28.1448 28.1448 28.1448 28.1448 28.1448 28.1448 28.1448 28.1448 28.1448 43.1448 526.145 38.1448 111.145 28.1448 225.145 232.145 28.1448 28.1448 28.1448 28.1448 28.1448 28.1448 28.1448 28.1448 28.1448 28.1448 28.1448 28.1448 28.1448 28.1448 28.1448 28.1448 28.1448 248.145 28.1448 28.1448 28.1448 28.1448 28.1448 28.1448 28.1448 28.1448 28.1448 28.1448 28.1448 28.1448 223.145 28.1448 28.1448 28.1448 28.1448 28.1448 28.1448 28.1448 28.1448 187.145 160.145 28.1448 382.145 28.1448 28.1448 28.1448 28.1448 28.1448 28.1448 29.1448 60.1448 28.1448 28.1448 28.1448 28.1448 28.1448 28.1448 28.1448 28.1448 28.1448 28.1448 28.1448 28.1448 28.1448 28.1448 28.1448 28.1448 28.1448 28.1448 28.1448 28.1448 28.1448 28.1448 46.1448 28.1448 28.1448 28.1448 28.1448 28.1448 28.1448 28.1448 28.1448 28.1448 28.1448 28.1448 28.1448 64.1448 47.1448 28.1448 28.1448 28.1448 28.1448 
rewards of Offsets elements: 0 520 0 0 0 873 0 0 0 0 1152 0 0 0 0 0 0 0 0 0 0 0 0 0 0 9 0 0 0 0 0 0 0 12 0 0 0 0 1025 0 0 0 1397 16 60 534 0 0 0 0 92 0 0 0 0 0 24 2 1 0 79 366 180 40 45 375 566 187 189 396 128 4 0 0 0 0 0 0 0 0 0 4 0 0 2 0 0 0 0 0 0 0 0 0 0 0 0 0 0 0 0 0 0 0 0 571 7 0 0 0 0 0 0 0 0 0 0 0 0 0 0 0 0 0 0 0 0 0 0 0 0 0 0 0 0 0 0 0 1275 0 0 0 0 0 0 0 0 0 0 0 0 0 478 0 0 0 12 0 0 0 0 0 0 0 0 0 0 0 0 0 0 0 0 3 0 0 0 0 0 0 0 0 0 0 0 0 4 129 80 26 27 57 0 47 0 0 0 6 107 108 72 55 0 216 84 48 108 18 90 54 66 4 4 6 0 0 0 0 0 4 1 0 0 0 0 0 0 0 0 0 0 0 375 0 0 0 0 0 0 0 0 71 0 0 0 0 0 0 0 0 0 0 0 0 0 0 0 0 0 0 0 0 0 0 0 0 0 0 0 0 24 0 0 72 0 0 0 0 0 0 0 150 90 0 0 0 0 0 0 0 0 0 4 0 0 0 0 0 0 0 0 0 0 0 0 0 0 0 0 0 0 0 0 0 0 0 0 0 0 0 0 0 0 0 0 0 2 0 0 0 0 0 0 0 0 0 0 0 0 0 0 0 9 0 0 0 0 0 0 0 0 0 0 0 0 0 0 0 0 0 0 0 419 0 0 0 0 0 0 0 0 0 0 0 0 0 0 0 0 226 218 0 0 0 0 0 0 0 0 0 0 0 0 0 0 0 0 0 0 0 0 0 0 0 0 4 0 0 0 0 0 18 12 22 27 9 9 33 0 0 0 0 12 252 252 72 183 9 9 8 18 102 288 111 0 0 0 0 0 0 0 0 0 0 0 0 0 0 0 0 0 0 0 0 0 0 108 0 0 0 0 0 0 0 0 0 0 0 0 0 0 0 0 0 0 0 0 0 0 0 0 0 0 0 0 0 0 0 0 17 0 0 0 0 0 0 0 0 0 0 0 0 0 0 0 0 0 0 0 0 0 0 0 0 0 0 0 0 0 0 0 0 0 0 0 0 0 1 0 0 0 0 0 0 0 0 0 0 0 0 0 0 0 0 0 0 0 0 0 0 0 0 0 0 0 0 0 0 0 0 0 0 0 0 0 0 0 189 0 0 0 0 0 0 0 0 0 0 0 0 0 0 0 0 0 0 0 0 0 0 0 0 0 0 0 0 0 0 0 0 0 0 0 10 0 0 0 0 0 586 125 21 0 0 0 0 0 0 0 0 0 12 0 0 46 0 3 0 0 0 0 0 0 0 0 0 0 525 0 0 0 0 0 0 78 24 3 0 0 0 0 0 0 0 0 0 0 0 0 0 0 0 0 0 0 0 0 0 0 0 0 15 498 10 83 0 197 204 0 0 0 0 0 0 0 0 0 0 0 0 0 0 0 0 0 220 0 0 0 0 0 0 0 0 0 0 0 0 195 0 0 0 0 0 0 0 0 159 132 0 354 0 0 0 0 0 0 1 32 0 0 0 0 0 0 0 0 0 0 0 0 0 0 0 0 0 0 0 0 0 0 18 0 0 0 0 0 0 0 0 0 0 0 0 36 19 0 0 0 0 Printing Sanity3
offset_index value770
offset list size770
reward size770
potential size770
-----------------------------------------------------------------------------------------------------------------------------------------------------------------------------------------------------

DRAM Statistics
 CHANNEL 0
 RQ ROW_BUFFER_HIT:      41157  ROW_BUFFER_MISS:     225032
 DBUS_CONGESTED:         80
 WQ ROW_BUFFER_HIT:      18503  ROW_BUFFER_MISS:     182608  FULL:          0

 AVG_CONGESTED_CYCLE: 4
 All warmup complete: 2
Channel 0 Bank busy for read cycles: 0
Channel 0 Bank busy for write cycles: 0
Channel 0
Rank 0
0banks busy for read cycles: 445204630
0banks busy for write cycles: 112636
1banks busy for read cycles: 21405113
1banks busy for write cycles: 14307245
2banks busy for read cycles: 4242711
2banks busy for write cycles: 3889942
3banks busy for read cycles: 1048058
3banks busy for write cycles: 1305944
4banks busy for read cycles: 327914
4banks busy for write cycles: 575897
5banks busy for read cycles: 100488
5banks busy for write cycles: 292811
6banks busy for read cycles: 42020
6banks busy for write cycles: 203564
7banks busy for read cycles: 38092
7banks busy for write cycles: 165033
8banks busy for read cycles: 57484
8banks busy for write cycles: 228773

CPU 0 Branch Prediction Accuracy: 99.7971% MPKI: 0.38142 Average ROB Occupancy at Mispredict: 30.6062
Branch types
NOT_BRANCH: 162402318 81.2012%
BRANCH_DIRECT_JUMP: 1753351 0.876676%
BRANCH_INDIRECT: 11709257 5.85463%
BRANCH_CONDITIONAL: 17378503 8.68925%
BRANCH_DIRECT_CALL: 2659359 1.32968%
BRANCH_INDIRECT_CALL: 715231 0.357615%
BRANCH_RETURN: 3381640 1.69082%
BRANCH_OTHER: 0 0%

DRAM PAGES: 1048576
Allocated PAGES: 5910
