
*** ChampSim Multicore Out-of-Order Simulator ***

Warmup Instructions: 50000000
Simulation Instructions: 200000000
Number of CPUs: 1
LLC sets: 2048
LLC ways: 16
Off-chip DRAM Size: 4096 MB Channels: 1 Width: 64-bit Data Rate: 6400 MT/s
CPU 0 runs traces/spec2k17/srv_9.champsimtrace.xz
.xz
BTB has LRU replacement policy
ITLB has LRU replacement policy
DTLB has LRU replacement policy
STLB has LRU replacement policy
L1I has LRU replacement policy
L1D has LRU replacement policy
Initialize SRRIP state for L2C
Initialize DRRIP state for LLC
Heartbeat CPU 0 instructions: 10000001 cycles: 3610652 heartbeat IPC: 2.76958 cumulative IPC: 2.76958 (Simulation time: 0 hr 0 min 46 sec) 
Heartbeat CPU 0 instructions: 20000002 cycles: 7637218 heartbeat IPC: 2.48351 cumulative IPC: 2.61875 (Simulation time: 0 hr 1 min 31 sec) 
Heartbeat CPU 0 instructions: 30000000 cycles: 10599004 heartbeat IPC: 3.37634 cumulative IPC: 2.83045 (Simulation time: 0 hr 2 min 0 sec) 
*** Reached end of trace for Core: 0 Repeating trace: traces/spec2k17/srv_9.champsimtrace.xz
Heartbeat CPU 0 instructions: 40000001 cycles: 14125018 heartbeat IPC: 2.83606 cumulative IPC: 2.83185 (Simulation time: 0 hr 2 min 41 sec) 
Heartbeat CPU 0 instructions: 50000003 cycles: 18051426 heartbeat IPC: 2.54686 cumulative IPC: 2.76986 (Simulation time: 0 hr 3 min 23 sec) 

Warmup complete CPU 0 instructions: 50000003 cycles: 18051426 (Simulation time: 0 hr 3 min 23 sec) 

Offsets elements: 
Potential of Offsets elements: 
rewards of Offsets elements: 
Printing Sanity1
offset list size1569
Offsets elements: 
Potential of Offsets elements: 
rewards of Offsets elements: 860 1092 540 450 3929 7 0 0 0 0 0 0 9 0 0 0 0 0 0 0 0 0 0 0 0 0 0 0 0 0 0 0 0 0 0 80 0 0 0 0 0 0 0 0 0 0 0 0 0 0 0 0 0 0 9 0 36 0 0 0 0 0 0 0 0 0 0 0 0 0 0 453 0 0 0 0 0 0 0 0 49 0 0 0 0 0 0 0 0 70 0 0 0 0 0 0 0 0 0 12 0 0 0 0 0 0 0 0 0 0 0 24 0 0 0 0 0 0 0 0 0 0 0 0 0 0 0 0 0 0 0 0 0 0 499 0 32 0 0 0 0 0 0 0 0 0 0 0 0 0 32 0 0 0 0 0 71 0 0 0 0 0 0 0 0 0 0 4 0 0 0 0 0 0 0 0 0 0 0 0 0 0 0 0 4 0 0 0 0 0 0 9 0 0 0 0 0 0 0 0 24 32 0 0 0 0 0 0 0 0 0 46 0 0 0 0 0 0 0 0 0 0 0 0 0 0 0 0 30 0 0 0 0 0 0 0 0 0 0 0 0 0 0 0 0 0 0 0 0 0 0 13 0 0 0 0 0 0 0 0 0 0 0 0 0 0 0 0 0 0 0 0 0 0 0 0 0 0 0 0 0 0 0 0 0 0 0 0 0 0 0 0 0 0 0 28 0 0 0 0 0 0 6 0 0 0 0 0 0 0 0 0 28 0 0 0 0 0 0 0 0 0 0 0 0 0 0 0 0 0 36 0 0 0 0 0 0 0 0 0 0 0 12 0 0 0 0 58 17 44 0 0 0 0 0 0 0 0 0 0 0 0 0 0 0 0 0 0 0 0 0 0 0 0 0 0 0 0 0 0 0 0 0 0 0 0 0 0 0 0 0 0 0 39 0 0 0 0 0 0 0 32 0 0 0 0 0 0 0 0 0 0 0 0 0 0 0 0 0 0 0 0 90 0 0 0 6 0 0 0 90 0 0 0 0 0 0 0 0 0 0 0 0 0 0 0 0 0 0 0 0 0 0 0 0 0 0 0 0 4 0 0 0 0 0 0 0 0 0 0 0 0 0 0 0 0 0 6 0 0 0 0 64 0 0 0 0 0 0 0 0 0 0 0 0 0 0 0 0 0 0 0 0 0 0 0 0 0 0 0 0 0 0 0 0 0 0 0 0 4 0 0 0 0 6 0 0 0 0 0 4 0 0 0 0 0 0 0 0 0 0 0 0 0 0 0 0 4 0 0 0 0 0 0 0 0 0 0 0 0 0 0 0 0 0 0 0 0 0 0 0 6 0 0 0 0 0 0 0 0 0 0 0 0 0 0 0 0 0 0 0 0 0 0 0 0 0 0 0 0 34 0 0 0 0 0 0 0 36 0 0 4 0 0 0 0 0 0 0 0 0 0 0 0 0 0 0 0 0 0 0 0 0 0 0 0 6 0 0 0 0 10 0 0 0 8 0 0 0 0 0 0 0 0 0 0 0 0 0 0 0 0 0 0 0 0 0 0 0 0 0 0 0 0 0 0 0 0 0 0 0 0 0 0 0 0 0 6 0 0 0 0 0 0 0 0 0 0 0 0 0 0 0 0 0 0 0 0 0 0 0 0 0 0 0 0 0 0 0 0 0 0 0 0 0 0 0 0 0 0 0 0 0 0 8 0 0 0 0 0 0 0 0 0 0 0 0 0 0 0 0 0 0 0 0 0 0 0 0 0 0 0 0 0 0 0 6 0 0 0 0 0 0 0 0 0 0 0 0 0 0 0 0 0 0 0 0 0 0 6 0 0 0 0 0 0 0 0 0 18 78 0 0 0 0 4 0 0 0 0 0 0 0 0 0 30 0 0 49 0 0 0 0 0 0 0 34 6 0 0 0 0 0 0 0 0 0 87 0 0 0 0 0 0 0 0 0 6 0 0 0 0 0 0 0 0 0 0 0 0 0 0 0 0 0 0 0 0 0 0 0 0 0 0 0 0 0 0 0 0 0 0 0 0 0 0 0 0 0 0 0 0 36 0 0 0 0 0 0 0 0 0 0 0 0 0 0 0 0 0 0 0 0 0 0 157 0 0 0 0 0 0 0 0 0 0 0 0 0 0 0 0 0 0 0 0 0 0 0 0 0 0 0 0 0 0 0 0 0 0 0 0 0 0 0 0 0 0 0 0 0 0 0 0 0 0 0 0 0 0 0 0 0 0 0 0 0 0 0 0 0 0 0 0 0 0 0 0 0 0 0 0 0 0 0 0 0 0 0 0 0 0 0 0 0 0 0 0 101 23 0 0 0 0 0 0 0 0 0 0 0 0 0 0 0 0 0 0 0 0 0 0 0 0 0 0 0 0 0 0 0 0 0 0 0 0 0 0 0 0 0 0 0 0 0 0 0 24 0 0 0 0 39 0 0 0 0 0 0 0 0 0 0 0 0 0 0 0 0 0 0 0 0 0 0 0 0 0 0 0 0 0 0 0 0 0 0 0 34 0 0 0 0 68 0 0 0 0 0 0 50 0 0 0 26 0 0 0 0 0 0 0 0 0 0 0 0 0 0 0 0 0 0 0 0 0 0 0 0 0 0 0 0 0 0 0 0 0 0 0 0 0 0 0 0 0 0 0 0 0 0 0 0 0 0 0 6 0 0 0 0 0 0 11 0 0 0 0 0 0 0 0 0 0 0 0 0 0 0 0 0 0 0 0 0 0 0 0 0 0 0 0 0 0 0 0 0 0 0 0 0 0 0 0 0 0 0 0 0 0 0 0 0 0 0 0 0 0 0 0 0 0 0 0 0 0 0 0 0 0 0 0 0 0 0 0 152 0 0 0 0 0 0 0 0 0 102 0 0 0 0 0 0 0 0 0 0 0 0 0 0 0 0 0 0 0 0 0 0 0 0 0 0 0 0 0 0 0 0 0 0 0 0 0 0 0 0 0 0 0 0 0 0 0 0 0 0 0 0 0 0 0 0 0 0 0 0 0 0 0 0 0 0 0 0 0 0 0 0 0 0 0 0 154 0 0 0 0 0 0 0 0 0 0 0 0 0 0 0 0 0 0 0 0 0 0 0 0 0 38 0 0 0 0 0 0 0 0 0 0 0 0 0 0 0 0 0 0 0 0 0 0 0 0 0 0 0 0 0 0 0 0 0 0 0 0 0 0 0 0 0 0 0 0 0 0 0 0 0 0 0 0 0 0 0 0 0 0 0 0 0 0 0 0 0 0 0 0 0 0 0 0 4 0 0 0 0 0 0 0 0 0 0 0 0 0 0 0 0 0 0 0 0 0 0 0 0 0 0 0 0 0 0 0 0 0 0 0 0 0 0 0 0 0 0 0 0 0 0 0 0 0 0 0 0 0 0 0 0 0 0 0 0 0 0 0 0 262 0 0 0 0 0 0 0 0 0 0 0 0 0 0 0 0 0 0 0 0 0 0 0 0 0 0 0 0 0 0 0 0 0 0 0 0 0 0 0 0 0 0 0 0 0 0 0 0 0 0 0 0 0 0 0 0 0 0 0 0 0 0 0 0 0 0 0 0 0 0 0 
Printing Sanity2
Heartbeat CPU 0 instructions: 60000001 cycles: 41080093 heartbeat IPC: 0.434241 cumulative IPC: 0.434241 (Simulation time: 0 hr 4 min 31 sec) 
*** Reached end of trace for Core: 0 Repeating trace: traces/spec2k17/srv_9.champsimtrace.xz
Heartbeat CPU 0 instructions: 70000000 cycles: 68339382 heartbeat IPC: 0.366847 cumulative IPC: 0.397709 (Simulation time: 0 hr 5 min 41 sec) 
Heartbeat CPU 0 instructions: 80000000 cycles: 103162459 heartbeat IPC: 0.287166 cumulative IPC: 0.352481 (Simulation time: 0 hr 6 min 57 sec) 
Heartbeat CPU 0 instructions: 90000001 cycles: 127588214 heartbeat IPC: 0.409404 cumulative IPC: 0.365174 (Simulation time: 0 hr 8 min 5 sec) 
*** Reached end of trace for Core: 0 Repeating trace: traces/spec2k17/srv_9.champsimtrace.xz
Heartbeat CPU 0 instructions: 100000003 cycles: 154044532 heartbeat IPC: 0.377982 cumulative IPC: 0.367666 (Simulation time: 0 hr 9 min 1 sec) 
Heartbeat CPU 0 instructions: 110000000 cycles: 190005607 heartbeat IPC: 0.278078 cumulative IPC: 0.34893 (Simulation time: 0 hr 10 min 12 sec) 
Heartbeat CPU 0 instructions: 120000001 cycles: 214368306 heartbeat IPC: 0.410464 cumulative IPC: 0.356566 (Simulation time: 0 hr 11 min 15 sec) 
*** Reached end of trace for Core: 0 Repeating trace: traces/spec2k17/srv_9.champsimtrace.xz
Heartbeat CPU 0 instructions: 130000003 cycles: 239633507 heartbeat IPC: 0.395801 cumulative IPC: 0.36104 (Simulation time: 0 hr 12 min 12 sec) 
Heartbeat CPU 0 instructions: 140000001 cycles: 276541625 heartbeat IPC: 0.270943 cumulative IPC: 0.348176 (Simulation time: 0 hr 13 min 9 sec) 
Heartbeat CPU 0 instructions: 150000002 cycles: 301050066 heartbeat IPC: 0.408023 cumulative IPC: 0.353359 (Simulation time: 0 hr 13 min 58 sec) 
*** Reached end of trace for Core: 0 Repeating trace: traces/spec2k17/srv_9.champsimtrace.xz
Heartbeat CPU 0 instructions: 160000001 cycles: 325147486 heartbeat IPC: 0.414982 cumulative IPC: 0.358194 (Simulation time: 0 hr 15 min 12 sec) 
Heartbeat CPU 0 instructions: 170000000 cycles: 362555767 heartbeat IPC: 0.26732 cumulative IPC: 0.348327 (Simulation time: 0 hr 16 min 43 sec) 
Heartbeat CPU 0 instructions: 180000000 cycles: 387650338 heartbeat IPC: 0.398493 cumulative IPC: 0.351733 (Simulation time: 0 hr 17 min 29 sec) 
*** Reached end of trace for Core: 0 Repeating trace: traces/spec2k17/srv_9.champsimtrace.xz
Heartbeat CPU 0 instructions: 190000000 cycles: 410454568 heartbeat IPC: 0.438515 cumulative IPC: 0.356776 (Simulation time: 0 hr 18 min 11 sec) 
Heartbeat CPU 0 instructions: 200000000 cycles: 447795298 heartbeat IPC: 0.267804 cumulative IPC: 0.349045 (Simulation time: 0 hr 19 min 2 sec) 
Heartbeat CPU 0 instructions: 210000000 cycles: 474106798 heartbeat IPC: 0.380062 cumulative IPC: 0.350835 (Simulation time: 0 hr 19 min 45 sec) 
*** Reached end of trace for Core: 0 Repeating trace: traces/spec2k17/srv_9.champsimtrace.xz
Heartbeat CPU 0 instructions: 220000000 cycles: 493515280 heartbeat IPC: 0.515239 cumulative IPC: 0.357546 (Simulation time: 0 hr 20 min 23 sec) 
Heartbeat CPU 0 instructions: 230000000 cycles: 532772355 heartbeat IPC: 0.254731 cumulative IPC: 0.349704 (Simulation time: 0 hr 21 min 7 sec) 
Heartbeat CPU 0 instructions: 240000000 cycles: 559206948 heartbeat IPC: 0.378292 cumulative IPC: 0.351101 (Simulation time: 0 hr 21 min 41 sec) 
*** Reached end of trace for Core: 0 Repeating trace: traces/spec2k17/srv_9.champsimtrace.xz
Heartbeat CPU 0 instructions: 250000003 cycles: 577710808 heartbeat IPC: 0.540428 cumulative IPC: 0.35736 (Simulation time: 0 hr 22 min 12 sec) 
Finished CPU 0 instructions: 200000000 cycles: 559659382 cumulative IPC: 0.35736 (Simulation time: 0 hr 22 min 12 sec) 

ChampSim completed all CPUs

Region of Interest Statistics

CPU 0 cumulative IPC: 0.35736 instructions: 200000000 cycles: 559659382
ITLB TOTAL     ACCESS:   41408793  HIT:   41268681  MISS:     140112  HIT %:    99.6616  MISS %:   0.338363   MPKI: 0.70056
ITLB LOAD TRANSLATION ACCESS:   41408793  HIT:   41268681  MISS:     140112  HIT %:    99.6616  MISS %:   0.338363   MPKI: 0.70056
ITLB PREFETCH  REQUESTED:          0  ISSUED:          0  USEFUL:          0  USELESS:          0
ITLB USEFUL LOAD PREFETCHES:          0 PREFETCH ISSUED TO LOWER LEVEL:          0  ACCURACY: -nan
ITLB TIMELY PREFETCHES:          0 LATE PREFETCHES: 0 DROPPED PREFETCHES: 0
ITLB PREFETCHES SAME FILL-ORIGIN LEVEL: 0 DIFFERENT FILL-ORIGIN LEVEL: 0
ITLB AVERAGE MISS LATENCY: 18.5632 cycles
ITLB RQ	ACCESS:   44979884	FORWARD:          0	MERGED:    3532376	TO_CACHE:   41447508

DTLB TOTAL     ACCESS:   42508081  HIT:   33996826  MISS:    8511255  HIT %:    79.9773  MISS %:    20.0227   MPKI: 42.5563
DTLB LOAD TRANSLATION ACCESS:   42508081  HIT:   33996826  MISS:    8511255  HIT %:    79.9773  MISS %:    20.0227   MPKI: 42.5563
DTLB PREFETCH  REQUESTED:          0  ISSUED:          0  USEFUL:          0  USELESS:          0
DTLB USEFUL LOAD PREFETCHES:          0 PREFETCH ISSUED TO LOWER LEVEL:          0  ACCURACY: -nan
DTLB TIMELY PREFETCHES:          0 LATE PREFETCHES: 0 DROPPED PREFETCHES: 0
DTLB PREFETCHES SAME FILL-ORIGIN LEVEL: 0 DIFFERENT FILL-ORIGIN LEVEL: 0
DTLB AVERAGE MISS LATENCY: 9.83944 cycles
DTLB RQ	ACCESS:   55803536	FORWARD:          0	MERGED:   13179340	TO_CACHE:   42624196

STLB TOTAL     ACCESS:    9121452  HIT:    9023356  MISS:      98096  HIT %:    98.9246  MISS %:    1.07544   MPKI: 0.49048
STLB LOAD TRANSLATION ACCESS:    8651367  HIT:    8553988  MISS:      97379  HIT %:    98.8744  MISS %:    1.12559   MPKI: 0.486895
STLB TRANSLATION FROM L1D PREFETCHER ACCESS:     470085  HIT:     469368  MISS:        717  HIT %:    99.8475  MISS %:   0.152526   MPKI: 0.003585
STLB PREFETCH  REQUESTED:          0  ISSUED:          0  USEFUL:        699  USELESS:         18
STLB USEFUL LOAD PREFETCHES:        699 PREFETCH ISSUED TO LOWER LEVEL:          0  ACCURACY: inf
STLB TIMELY PREFETCHES:        699 LATE PREFETCHES: 73 DROPPED PREFETCHES: 10110973
STLB PREFETCHES SAME FILL-ORIGIN LEVEL: 0 DIFFERENT FILL-ORIGIN LEVEL: 0
STLB AVERAGE MISS LATENCY: 86.4199 cycles
STLB RQ	ACCESS:   20748045	FORWARD:          0	MERGED:    1173703	TO_CACHE:   19574342

STLB Hit, L1D data hit: 0
STLB Hit, L2C data hit: 0
STLB Hit, LLC data hit: 0
STLB Hit, LLC data miss: 0
STLB STLB hints to L2: 0
L1D TOTAL     ACCESS:   54987639  HIT:   41535969  MISS:   13451670  HIT %:    75.5369  MISS %:    24.4631   MPKI: 67.2583
L1D LOAD      ACCESS:   40198094  HIT:   27035397  MISS:   13162697  HIT %:    67.2554  MISS %:    32.7446   MPKI: 65.8135
L1D RFO       ACCESS:   14339835  HIT:   14120156  MISS:     219679  HIT %:    98.4681  MISS %:    1.53195   MPKI: 1.0984
L1D PREFETCH  ACCESS:     449710  HIT:     380416  MISS:      69294  HIT %:    84.5914  MISS %:    15.4086   MPKI: 0.34647
AGUS PREFETCH L1 MISS: 0
L1D PREFETCH  REQUESTED:   24781872  ISSUED:   24781548  USEFUL:      20813  USELESS:      48481
L1D USEFUL LOAD PREFETCHES:      20813 PREFETCH ISSUED TO LOWER LEVEL:     100738  ACCURACY: 20.6605
L1D TIMELY PREFETCHES:      20813 LATE PREFETCHES: 31404 DROPPED PREFETCHES: 11581413
L1D PREFETCHES SAME FILL-ORIGIN LEVEL: 100738 DIFFERENT FILL-ORIGIN LEVEL: 0
L1D AVERAGE MISS LATENCY: 89923.3 cycles
L1D RQ	ACCESS:   58973390	FORWARD:          0	MERGED:   17673050	TO_CACHE:   41193667
L1D WQ	ACCESS:   18280129	FORWARD:     111889	MERGED:    3670260	TO_CACHE:   14609869
L1D PQ	ACCESS:   12684870	FORWARD:          0	MERGED:     582976	TO_CACHE:   12096678

L1D UNIQUE REGIONS ACCESSED: 0
L1D REGIONS CONFLICTS: 0
L1D Cross Page Prefetch Requests: 12256717
L1D Same Page Prefetch Requests: 428153
L1D ROI Sum of L1D PQ occupancy: 398800049
L1D PREFETCHES PUSHED FROM L2C: 0
L1I TOTAL     ACCESS:   44738086  HIT:   44045578  MISS:     692508  HIT %:    98.4521  MISS %:    1.54792   MPKI: 3.46254
L1I LOAD      ACCESS:   44738086  HIT:   44045578  MISS:     692508  HIT %:    98.4521  MISS %:    1.54792   MPKI: 3.46254
L1I PREFETCH  REQUESTED:          0  ISSUED:          0  USEFUL:          0  USELESS:          0
L1I USEFUL LOAD PREFETCHES:          0 PREFETCH ISSUED TO LOWER LEVEL:          0  ACCURACY: -nan
L1I TIMELY PREFETCHES:          0 LATE PREFETCHES: 0 DROPPED PREFETCHES: 0
L1I PREFETCHES SAME FILL-ORIGIN LEVEL: 0 DIFFERENT FILL-ORIGIN LEVEL: 0
L1I AVERAGE MISS LATENCY: 46.5705 cycles
L1I RQ	ACCESS:   72767536	FORWARD:          0	MERGED:   27787652	TO_CACHE:   44979884

BTB TOTAL     ACCESS:   41124960  HIT:   38918352  MISS:    2206608  HIT %:    94.6344  MISS %:    5.36562   MPKI: 11.033
BTB BRANCH_DIRECT_JUMP	ACCESS:    1846529  HIT:    1816856  MISS:      29673
BTB BRANCH_INDIRECT	ACCESS:   24302767  HIT:   22906219  MISS:    1396548
BTB BRANCH_CONDITIONAL	ACCESS:    9638325  HIT:    9593200  MISS:      45125
BTB BRANCH_DIRECT_CALL	ACCESS:    2098552  HIT:    2045391  MISS:      53161
BTB BRANCH_INDIRECT_CALL	ACCESS:     567787  HIT:     550197  MISS:      17590
BTB BRANCH_RETURN	ACCESS:    2671000  HIT:    2006489  MISS:     664511
BTB BRANCH_OTHER ACCESS:          0  HIT:          0  MISS:          0

L2C TOTAL     ACCESS:   25695359  HIT:   24136847  MISS:    1558512  HIT %:    93.9347  MISS %:    6.06534   MPKI: 7.79256
L2C LOAD      ACCESS:   13823801  HIT:   12450765  MISS:    1373036  HIT %:    90.0676  MISS %:    9.93241   MPKI: 6.86518
L2C DATA LOAD MPKI: 5.59815
L2C INSTRUCTION LOAD MPKI: 1.26703
L2C RFO       ACCESS:     219633  HIT:     147794  MISS:      71839  HIT %:    67.2913  MISS %:    32.7087   MPKI: 0.359195
L2C PREFETCH  ACCESS:     100738  HIT:      47455  MISS:      53283  HIT %:    47.1073  MISS %:    52.8927   MPKI: 0.266415
AGUS PREFETCH L1 MISS: 0
L2C DATA PREFETCH MPKI: 0.266415
L2C INSTRUCTION PREFETCH MPKI: 0
L2C WRITEBACK ACCESS:     349840  HIT:     341586  MISS:       8254  HIT %:    97.6406  MISS %:    2.35936   MPKI: 0.04127
L2C LOAD TRANSLATION ACCESS:     117802  HIT:      70211  MISS:      47591  HIT %:    59.6009  MISS %:    40.3991   MPKI: 0.237955
L2C TRANSLATION FROM L1D PREFETCHER ACCESS:   11083545  HIT:   11079036  MISS:       4509  HIT %:    99.9593  MISS %:  0.0406819   MPKI: 0.022545
L2C PREFETCH  REQUESTED:          0  ISSUED:          0  USEFUL:       4186  USELESS:      53595
L2C USEFUL LOAD PREFETCHES:       4186 PREFETCH ISSUED TO LOWER LEVEL:      53283  ACCURACY: 7.85616
L2C TIMELY PREFETCHES:       4186 LATE PREFETCHES: 0 DROPPED PREFETCHES: 0
L2C PREFETCHES SAME FILL-ORIGIN LEVEL: 0 DIFFERENT FILL-ORIGIN LEVEL: 0
L2C AVERAGE MISS LATENCY: 120.738 cycles
L2C RQ	ACCESS:   25244787	FORWARD:          0	MERGED:          0	TO_CACHE:   25244781
L2C WQ	ACCESS:     349840	FORWARD:          6	MERGED:          0	TO_CACHE:     349840
L2C PQ	ACCESS:     100738	FORWARD:          0	MERGED:          0	TO_CACHE:     100738

L2C Instructions Evicting Data 156684
L2C Translations Evicting Data 34809
L2C Data Evicting Data 1054741
L2C Instructions Evicting Instructions 82068
L2C Translations Evicting Instructions 14681
L2C Data Evicting Instructions 155675
L2C Instructions Evicting Translations 14654
L2C Translations Evicting Translations 2610
L2C Data Evicting Translations 34336
L2C Dense regions hint from L2: 0
PSCL5 TOTAL     ACCESS:   10209069  HIT:   10209069  MISS:          0  HIT %:        100  MISS %:          0   MPKI: 0
PSCL5 LOAD TRANSLATION ACCESS:      97306  HIT:      97306  MISS:          0  HIT %:        100  MISS %:          0   MPKI: 0
PSCL5 TRANSLATION FROM L1D PREFETCHER ACCESS:   10111763  HIT:   10111763  MISS:          0  HIT %:        100  MISS %:          0   MPKI: 0
PSCL5 PREFETCH  REQUESTED:          0  ISSUED:          0  USEFUL:          0  USELESS:          0
PSCL5 USEFUL LOAD PREFETCHES:          0 PREFETCH ISSUED TO LOWER LEVEL:          0  ACCURACY: -nan
PSCL5 TIMELY PREFETCHES:          0 LATE PREFETCHES: 0 DROPPED PREFETCHES: 0
PSCL5 PREFETCHES SAME FILL-ORIGIN LEVEL: 0 DIFFERENT FILL-ORIGIN LEVEL: 0

PSCL4 TOTAL     ACCESS:   10087252  HIT:   10087154  MISS:         98  HIT %:     99.999  MISS %: 0.000971523   MPKI: 0.00049
PSCL4 LOAD TRANSLATION ACCESS:      87518  HIT:      87420  MISS:         98  HIT %:     99.888  MISS %:   0.111977   MPKI: 0.00049
PSCL4 TRANSLATION FROM L1D PREFETCHER ACCESS:    9999734  HIT:    9999734  MISS:          0  HIT %:        100  MISS %:          0   MPKI: 0
PSCL4 PREFETCH  REQUESTED:          0  ISSUED:          0  USEFUL:          0  USELESS:          0
PSCL4 USEFUL LOAD PREFETCHES:          0 PREFETCH ISSUED TO LOWER LEVEL:          0  ACCURACY: -nan
PSCL4 TIMELY PREFETCHES:          0 LATE PREFETCHES: 0 DROPPED PREFETCHES: 0
PSCL4 PREFETCHES SAME FILL-ORIGIN LEVEL: 0 DIFFERENT FILL-ORIGIN LEVEL: 0

PSCL3 TOTAL     ACCESS:    5657799  HIT:    5657569  MISS:        230  HIT %:    99.9959  MISS %: 0.00406519   MPKI: 0.00115
PSCL3 LOAD TRANSLATION ACCESS:      97105  HIT:      96875  MISS:        230  HIT %:    99.7631  MISS %:   0.236857   MPKI: 0.00115
PSCL3 TRANSLATION FROM L1D PREFETCHER ACCESS:    5560694  HIT:    5560694  MISS:          0  HIT %:        100  MISS %:          0   MPKI: 0
PSCL3 PREFETCH  REQUESTED:          0  ISSUED:          0  USEFUL:          0  USELESS:          0
PSCL3 USEFUL LOAD PREFETCHES:          0 PREFETCH ISSUED TO LOWER LEVEL:          0  ACCURACY: -nan
PSCL3 TIMELY PREFETCHES:          0 LATE PREFETCHES: 0 DROPPED PREFETCHES: 0
PSCL3 PREFETCHES SAME FILL-ORIGIN LEVEL: 0 DIFFERENT FILL-ORIGIN LEVEL: 0

PSCL2 TOTAL     ACCESS:     643242  HIT:     622967  MISS:      20275  HIT %:     96.848  MISS %:      3.152   MPKI: 0.101375
PSCL2 LOAD TRANSLATION ACCESS:      97413  HIT:      77138  MISS:      20275  HIT %:    79.1866  MISS %:    20.8134   MPKI: 0.101375
PSCL2 TRANSLATION FROM L1D PREFETCHER ACCESS:     545829  HIT:     545829  MISS:          0  HIT %:        100  MISS %:          0   MPKI: 0
PSCL2 PREFETCH  REQUESTED:          0  ISSUED:          0  USEFUL:          0  USELESS:          0
PSCL2 USEFUL LOAD PREFETCHES:          0 PREFETCH ISSUED TO LOWER LEVEL:          0  ACCURACY: -nan
PSCL2 TIMELY PREFETCHES:          0 LATE PREFETCHES: 0 DROPPED PREFETCHES: 0
PSCL2 PREFETCHES SAME FILL-ORIGIN LEVEL: 0 DIFFERENT FILL-ORIGIN LEVEL: 0

LLC TOTAL     ACCESS:    1726731  HIT:     454119  MISS:    1272612  HIT %:    26.2993  MISS %:    73.7007   MPKI: 6.36306
LLC LOAD      ACCESS:    1373036  HIT:     272173  MISS:    1100863  HIT %:    19.8227  MISS %:    80.1773   MPKI: 5.50432
LLC RFO       ACCESS:      71839  HIT:      12092  MISS:      59747  HIT %:    16.8321  MISS %:    83.1679   MPKI: 0.298735
LLC PREFETCH  ACCESS:      53283  HIT:       2989  MISS:      50294  HIT %:    5.60967  MISS %:    94.3903   MPKI: 0.25147
AGUS PREFETCH L1 MISS: 0
LLC WRITEBACK ACCESS:     176473  HIT:     143069  MISS:      33404  HIT %:    81.0713  MISS %:    18.9287   MPKI: 0.16702
LLC LOAD TRANSLATION ACCESS:      47591  HIT:      21951  MISS:      25640  HIT %:    46.1243  MISS %:    53.8757   MPKI: 0.1282
LLC TRANSLATION FROM L1D PREFETCHER ACCESS:       4509  HIT:       1845  MISS:       2664  HIT %:    40.9182  MISS %:    59.0818   MPKI: 0.01332
LLC PREFETCH  REQUESTED:          0  ISSUED:          0  USEFUL:       1137  USELESS:      51783
LLC USEFUL LOAD PREFETCHES:       1137 PREFETCH ISSUED TO LOWER LEVEL:      50294  ACCURACY: 2.26071
LLC TIMELY PREFETCHES:       1137 LATE PREFETCHES: 0 DROPPED PREFETCHES: 0
LLC PREFETCHES SAME FILL-ORIGIN LEVEL: 0 DIFFERENT FILL-ORIGIN LEVEL: 0
LLC AVERAGE MISS LATENCY: 111.318 cycles
LLC RQ	ACCESS:    1496975	FORWARD:          0	MERGED:          0	TO_CACHE:    1496975
LLC WQ	ACCESS:     176473	FORWARD:          0	MERGED:          0	TO_CACHE:     176473
LLC PQ	ACCESS:      53283	FORWARD:          0	MERGED:          0	TO_CACHE:      53283

LLC Dense regions hint to LLC: 0

RAW hits: 7102630
Loads Generated: 66076024
Loads sent to L1D: 58973390
Stores Generated: 18280128
Stores sent to L1D: 18280129
Major fault: 0 Minor fault: 9438
Allocated PAGES: 9438
ucb ended
-----------------------------------------------------------------------------------------------------------------------------------------------------------------------------------------------------
Offsets elements: -6889555 8491137 -8491136 -4397630659154 1 126 4397630659026 7249153 -4398026117057 4398027359041 -1601582 -4397637548544 -163 732499 4397636816208 -4397637548545 732338 588902 -563802 4397629901552 6889555 -4397636577480 4397629687925 -4397629901552 213619 -971222 1241659 4397636307051 -4397637548711 4397637908309 -4710559 -4397632319549 -878032 4397637548542 -4397630658989 -1 4397630658990 -4397630658991 1241495 -1241494 1241519 4397629417471 -4397630658990 -165 166 -166 131671195 -130429510 -363484 4397629780955 -8491137 4397630658992 131671030 -130429535 25 131671034 5 4397501164460 -4397632835664 4397630659153 -4397498987958 -131671195 878035 363484 4397629417469 8491139 -4397639150128 4397630658989 -4397630658987 131671028 -131671030 2 1241494 -1241518 4397630658987 -1241660 1241685 363459 4397631956090 -4397633197580 -4 -388208863 4398027358990 -4397637908608 4397636620372 -4397637861890 1241493 -4350961 -4397633197583 3 -388208697 -4397638272092 4397629780954 6889556 -6889556 4397630658984 6889557 -4397630659153 164 -38 -4397630658988 -164 4397637548707 -4397637548543 4397639150125 -4397638417789 4397637175805 -4397637150705 -4397637548707 1321402 -350175 -8 4397629687933 -4397637908640 -1241649 359598 388941251 4397629926653 -757603 4397630659155 -4397630659152 -4397636307058 -1241653 -4397636666656 4397631956097 -4397630658985 4397637548540 4397639150124 -4397637908633 -1241492 1241485 -1241486 -167 -363459 -2 -130429542 7 4397629417496 131671199 -131671032 131671204 -130429543 130793003 4397507479089 -6314629 -4397632835497 -4397630658986 131671027 -131671028 1241491 -7 -1241485 4397630658986 1241660 363452 -4397633197579 -3 -388208865 -4397639150126 4397629417494 7202903 -7202902 4397633197581 4350961 -1241484 4397630658983 -4397629417501 -168 2538595 -4397633197578 4397630658982 4397630659154 4397639150289 -1241984 -4397637175805 4397629926652 4397636791107 -350183 4397636937086 4398021406498 -4397632226519 -4397638417790 145698 -878200 171 4397637548539 165 1241471 -484036 484036 -1241640 168 -4397629417516 -1241471 1241484 169 131671026 -130792994 4397629417503 -130429555 13 9 -4397632835495 -363452 -878033 -4397630658984 131671025 -131671027 -1241483 -4397629417514 1241653 -13 -363439 4397632319549 -4397633197577 389450350 4397637908640 -1288236 -4397637861887 1241470 4397636307071 -4397637548541 4397630658981 6889554 1601582 -4397639150122 4397630659152 -4397630659026 41 -4397637908138 732333 -757600 -4397636227305 -4397638217605 -932684 4397637908305 4398025757459 -4397629926653 -732502 -4397636791107 -757604 932688 4397636975621 -4397630658982 4397637548537 -4397637548540 4397630658985 932518 -932517 1241469 4397629417516 -170 -131671025 -4397630659155 4397630659156 -4397637908653 -130738507 308952 -131671029 -130429563 -4397632835494 -4397630658983 131671024 1241468 -308952 932517 -932518 -4397633197576 -388208867 389450337 4397637908653 -8491139 -4397637861885 932516 4397629726467 -4397636616023 -932688 -4397633197575 4397630658979 -4397629337750 4397636227305 -4397636816208 238728 -971230 971222 4397636577488 175096 4397629726456 -4397632265050 -932700 878201 -878029 4397637548536 -4397637548539 932529 -12 172 131671023 54487 4397638217605 -130738495 4397629726468 -171 -130738515 -54487 -4397632835493 -4397630658981 131671022 -131671024 932528 -932515 -932528 12 4397632265050 -878025 -388208868 389141385 -4397637861884 932527 4397636616011 -4397637548538 -4397633197574 4397630658978 -4397637548537 -7249153 4397639150119 -732500 563802 4397637828887 -4397636577488 8 4397636937078 -4397629417486 -509167 4397637548710 -4397636307041 -484066 363469 -1241493 1241497 -1241496 932526 -173 -54499 4397638272092 -130429525 -308970 -174 173 4 -130738499 4397507479090 -4397507479089 -131671031 2176510 -4397632835490 131671021 -131671022 932525 308970 4397630658980 -4397630658979 1241496 -1241497 1241670 -4397633197573 -388208870 389141397 4397638217593 -4397630658980 4397633197575 -1241495 4397630658977 -4397629417484 4398018867851 -4397633197572 4397630658976 -4397637908613 -1241676 -4397636307031 -484076 -4397636666628 4397631956069 -4397630658978 4397637548533 -4397637548536 4397629417486 -4397629417475 -1241506 1241505 175 131671020 -130429514 -10 -130429533 -363469 131671019 -131671021 1241506 -4397629417474 -1241505 11 -363480 -4397633197571 -388208872 388208872 -4397637908623 4397636620387 -4397637861881 1241504 4397636307031 -4397637548535 -4397630658975 1241501 -175 4397630658975 -4397637548534 -4397637908132 732327 338445 4397636598641 -2538594 176 4397637548531 -4397636239043 4397629349488 177 1309492 -1309491 4397629417476 -176 1241681 130429514 -130429515 -363479 -130361527 -67987 -131671023 -4397631593983 -1241681 1241680 4397629417474 -4397630658977 131671018 -131671019 1241502 67987 -4397630658976 1309491 -1309492 -67988 -4397633197570 -388208873 389450377 4397637908613 4397633197572 -1309490 4397630658974 -4397629349486 -177 -4397633197569 4397630658973 -4397637548533 732326 -1321276 4397637548581 -213627 4397638179070 -4397637908637 4397636666653 4397637908308 -359598 -4397636307055 4397631956094 -4397632440146 120597 -878201 181 -4397637548532 1241479 -1241478 1309490 178 131671017 1309668 -130429539 68012 -130361535 -431467 -4397632835487 131671016 -131671018 1241478 -1309489 -4397629417498 -68012 -363455 -4397633197568 -388208874 389518365 4397637840625 -4397637861878 1241477 4397636307055 -4398018867851 -4397639150111 -1241656 4397630658972 -4397637548531 -4397637908129 732324 -4397638217586 -932703 -4397636616004 -175103 4397637150705 -4397636975602 4397632265043 -4397630659156 180 878021 -878018 4397637548528 -932527 179 363455 4397637908637 -130738488 308949 4397629417500 -179 -131671020 -130429547 -4397632835485 -4397630658974 131671015 -131671016 1241475 -308949 -932526 -4397629726447 4397633197750 -4397632265043 -388208876 389450353 4397633197569 4397630658971 -180 -4397633197566 4397630658970 4397637548530 732500 -4397638392689 4397636586903 389179971 -971219 -4397629687925 4397636577480 1241642 4397636307068 -4397636666666 4397631956107 -4397630658972 4397637548527 -4397637548530 -4397629417513 -308936 131671014 54506 4397629726449 -130429552 -181 -130738492 -54506 -4397632835482 131671013 -131671015 1241462 -932525 -4397629417511 -1241462 932707 308936 -363442 -4397633197565 -388208877 389141404 4397638217586 -4397637861875 1241461 -4397637548529 -1241643 389086898 4397629780953 -8491138 4397630658969 -4397637548528 -4397637908126 732321 -350174 -9 -4397639150289 -4397636307073 -484034 -4397636666670 4397631956111 -878015 1241460 -5 4397629417518 -4397639150110 -182 -4397630658973 -130429556 4397629417513 -131671017 -130429560 -4397630658971 131671012 -131671013 1241459 -1241455 -4397630658970 1241455 -1241457 1241643 -363438 -4397633197564 -388208880 388208879 4397639150111 -4397637908650 4397629417511 4397633197566 -1241454 4397630658968 -183 -4397633197563 4397630658967 -38547 4397636975633 186 4397637548524 -4397629726480 -175072 184 308963 4397639150109 4397629417517 -4397498987961 363437 4397629417519 -308963 308962 131671011 -130429565 130429566 -4397631594025 -4397630658969 131671010 -131671012 932492 -1241453 -4397629726478 -932492 1241639 -308962 -54475 -4397633197562 389450335 4397637908655 -4397637861872 932491 4397636616035 -4397637548526 -932676 4397630658966 56 -4397637908123 732318 -878012 -4397637548525 1297572 -1297572 -4397629361399 -365081 -932490 -185 -130738519 -130373438 4397629726480 -131671014 -130738527 -4397632835479 -4397630658968 131671009 -131671010 932489 365081 -1297571 -4397630658967 1297571 1297757 -4397633197561 -388208882 389141373 4397638217617 -4397636250954 4397636250954 1297568 -389506454 388208697 4397639150293 -4397633197560 4397630658964 238729 -971231 -213619 175071 -932675 -4397636975634 4397632265075 878014 -878011 4397637548521 932488 -932489 -1297757 -4397639150106 131671008 419556 4397629361399 -130738520 365082 -186 -130373446 -419556 -4397632835478 -4397630658966 131671007 -131671009 -1297569 -932488 -365082 -54474 -4397633197559 -388208883 389506454 4397637852536 -4397637861869 932487 4397636616036 -4397637548523 4397630658963 -4397637548522 -4397639150104 732315 -4397636577479 -4397629417470 -509183 -4397636307025 -484082 363485 1241498 932486 4397629726481 -188 -130429509 -309011 -130738524 130738529 -130793002 -4397632835476 -4397630658965 131671006 -131671007 932485 309011 4397630658965 -4397630658964 -1241498 1241686 -4397633197558 -388208885 389141372 4397638217618 4397633197560 4397630658962 -4397629417468 -189 -4397637548518 4397630658961 131620531 4397501577089 -2538593 -4397630658953 4397630658953 -4397630659027 61 -59 -62 -65 4397630659020 -6889554 -4397637548520 -187 732314 -4397636616006 4397636975604 -175101 -4397636975604 4397632265045 -877997 4397630658952 -4397637548510 -11 4397630658954 4397629417470 190 131671005 -308981 4397638217588 -4397630658955 4397498987962 932515 4397629726451 -190 189 -130429513 -363485 -4397632835463 131670994 -131671006 308981 -4397630658952 -54504 -4397633197546 -14 -388208886 389450383 4397637908607 4397633197548 -932503 4397630658950 -4397629726449 -4397633197545 4397630658949 187 -4397630658954 4397637548509 -4397637175806 4397632465247 -4397632226518 -93022 -757399 4397637548506 -4397636616007 -932704 202 932502 4397638217589 -4397639150092 -201 131670993 -4397629726451 4397629726452 4397630658956 -130738491 -131670997 -130738498 -4397630658951 131670992 -131670994 -932502 4397630658951 -4397629726450 932705 -54503 54503 4397632265046 -4397633197544 -388208899 388208899 4397639150092 -4397638217588 4397636929352 -4397637861854 932501 4397636616007 -4397637548508 4397630658948 -4397637548507 -200 -4397637908105 732300 4397629337750 -4397638179061 -4397630658949 4397637548504 -932501 932500 -203 -130738490 -2176511 -4397639150090 877998 4397629726450 -932500 932704 -4397633197543 -388208900 389141401 -4397630658950 4397633197545 4397630658947 -204 -4397633197542 4397630658946 4397637548708 -4397636816207 -1321215 4397637548520 -213628 -4397637908629 4397636666645 -4397636307047 4397632440146 -4397633197750 -877993 -4397637548505 -1241459 4397498987960 -4397639150088 877996 54504 131670991 -130429531 -308959 131670990 -4397632835460 -4397630658948 131670989 -131670991 -932499 -4397629417490 308959 -363463 -4397633197541 -388208901 389141402 -4397637861851 1241458 4397629417491 388208902 4397637548502 4397637908629 -4397639150293 4397630658945 -4397637548504 -4397637908102 732297 -4397638217590 -932699 757600 -4397636616008 -877991 932497 -932496 1241457 4397629417492 -206 308961 -131670993 -4397632835458 -4397630658947 131670988 -131670989 932495 -932495 932496 -932497 -4397632265047 -388208903 389450361 4397633197542 4397630658944 -207 -4397633197539 4397630658943 -4397637908101 4397639150085 389179980 509176 4397629417477 -4397636307032 -484075 -4397636666630 4397631956071 -4397630658945 4397637548500 -4397637548503 -4397629417477 -308976 208 131670987 54502 4397629726453 -130429516 -208 207 130738501 -130793003 130793002 -4397632835457 131670986 -131670988 -932494 932703 308976 -363478 -4397633197538 -388208904 389141400 4397638217590 -4397637861848 4397636307032 -4397637548502 -1241679 4397630658942 -4397637548501 -4397637908099 732294 4397636666624 4397637908614 -4397639150083 -1241476 -209 -4397630658946 -6 -131670990 -130429524 -4397632835455 -4397630658944 131670985 -131670986 6 -1241475 -4397630658943 -4397633197537 -388208907 -4397639150084 4397629417475 4397633197539 -4397636307026 -1241474 4397630658941 -4397629417469 -210 -4397633197536 4397630658940 -4397632265040 4397629726446 213 4397637548497 -175106 211 4397629726445 -4397629726446 1241474 131670984 -130738484 308975 -4397630658942 131670983 -131670985 -1241473 -4397629726444 -308974 -54510 -4397633197535 389450382 4397637908608 -4397637861845 932498 4397636616001 -4397637548499 -932710 -6889557 4397630658939 6889558 359597 -4397632465247 -877985 4397637548496 -4397636791108 -757391 -213 -932476 -212 932711 -932498 -932711 932710 23 -131670987 -130738493 -4397632835452 -4397630658941 131670982 -131670983 -23 -932475 -4397630658940 932475 22 -54509 -4397633197534 -388208909 389141407 4397638217583 932474 932472 -4397633197533 4397630658937 175098 4397636975607 214 877987 -877984 4397637548495 131670981 -4397632835451 -4397630658939 131670980 -131670982 -932473 4397632265062 -4397632265048 -54501 -877983 -388208910 -4397637861842 4397636616010 -4350962 4350962 -4397637548497 -932702 -4397633197532 4397630658936 -4397637548495 212 4397637908093 -4397629926652 4397638417789 -4397636616028 4397629726473 -175079 54482 -4397630658937 4397637548493 -4397637548496 932468 -932467 4397629726454 -215 -130738512 19 -216 215 130738502 -4397632835448 131670979 -131670980 -19 4397630658938 932467 -932468 932683 -4397633197531 -388208912 389141399 4397638217591 -4397630658938 4397633197533 -4397636616029 -932466 4397630658935 -4397629726471 -389086898 -4397633197530 4397630658934 4397637548494 -4397632226517 -971232 -757384 4397637548492 -4397637548712 217 1241439 -1241438 932466 -308972 4397639150076 -4397639150077 131670978 -4397629726473 4397629726474 -130429540 -54482 -4397630658936 131670977 -131670979 1241438 -932465 -4397629417499 308972 -363454 -4397633197529 -388208914 388208914 4397639150077 -4397638217610 4397636929374 -4397637861839 1241437 4397636307057 -4397637548494 -1241655 4397630658933 -4397637548492 -4397637908090 732285 -350173 270459 4397636666627 4398018867904 -4397631956068 -1241682 757604 -877979 -4397637548493 1241464 -1241463 1241436 4397629417501 -218 -27 -131670981 -130429548 130429549 -4397631594009 -4397639150075 -4397630658935 131670976 -131670977 1241435 27 -4397630658934 1241463 -1241464 1241655 -363481 -4397633197528 -388208915 389450352 4397637908638 4397633197530 -4397636307030 4397630658932 -4397629417472 -219 -4397633197527 4397630658931 1241984 -4397639150072 -4397637548491 732284 -4397636577478 -213629 -4397637908646 4397636666662 -4397636307064 363446 -1241424 1241428 -1241427 220 131670975 35 -130429521 -4397632835445 -4397630658933 131670974 -131670976 1241427 -1241461 -4397629417507 1241682 -35 -363446 -4397633197526 -388208916 389450379 4397637908611 -4397637861836 1241426 4397636307065 4398025757409 1601581 -4397639150073 1241423 -1241647 4397630658930 -4397637548489 -4397637908087 732282 -1241652 1241656 -4397636666652 4397631956093 -877976 -4397637548490 -1241435 1241425 4397629417509 -221 -130429538 -131670978 -4397632835443 -4397630658932 131670973 -131670974 1241424 10 -1241434 -4397630658931 1241434 -4397631956103 -363456 -388208918 389450344 4397637908646 4397633197527 -4397636307056 -1241433 4397630658929 -222 -4397633197524 4397630658928 4397637548488 -4398018867904 25101 1321406 -4397629780955 54484 -932459 4397637548486 4397639150070 -4397639150071 223 131670972 363456 4397629417499 -4397629417500 308971 -131671199 130429547 -130429546 -4397632835442 -4397630658930 131670971 -131670973 932462 -1241432 -4397629726469 -932462 1241657 -308971 -54484 -4397633197523 -388208919 -4397637861833 932461 4397636616027 -4397637548488 -932685 4397630658927 -4397637548486 -4397637908084 732279 -932679 4397636975626 -4397630658928 4397637548484 -4397637548487 932459 -932458 932460 -4397639150068 -224 -130738510 4397629726471 -131670975 -130738518 -4397632835440 -4397630658929 131670970 -131670971 932458 932685 -4397633197522 -388208922 388208921 4397639150069 -4397638217608 4397629726469 4397633197524 -932457 4397630658926 -225 -4397633197521 4397630658925 4397637548485 -4397637828887 -1309664 2538594 225 -1309439 4397637548483 1309443 -1309442 932457 226 131670969 -376985 -4397631957463 -4397630658927 131670968 -131670970 1309442 -932456 376985 -4397633197520 389141380 4397638217610 -4397637861830 1309441 4397636239044 -4397637548485 -1309668 4397630658924 224 -4397637908081 -4397637908615 -1241674 -4397636307033 -484074 -4397636666631 4397631956072 -4397630658925 4397637548481 -4397637548484 1241451 -1241450 1309440 -227 -130429517 67990 -131670972 -4397632835437 -4397630658926 131670967 -131670968 1309439 -67990 1241450 -1241451 1241678 -4397633197519 -388208924 4397633197521 -4397636307034 -4397630658923 -389450375 -4397633197518 4397630658922 4397637548482 -4397637908643 -1241646 1241650 4397636666659 -4397636666659 -363449 -4397630658924 4397637548480 -4397637548483 -4397629417506 28 -1241449 -228 229 131670966 363477 4397629417478 -130429545 -363477 -4397632835436 131670965 -131670967 1241421 -1241448 1241422 -1241650 -877968 -388208925 389450375 4397637908615 -4397637861827 1241420 4397636307062 -4397637548482 -4397633197517 4397630658921 -4397637548480 -4397637908078 732273 25100 -4397629726457 -200196 -4397636616012 -175095 54498 -4397637548481 932469 1241419 4397629417506 -230 -130738496 308951 -231 230 -130429549 -4397632835433 131670964 -131670965 1241418 -308951 4397630658923 -4397630658922 -932469 932699 -4397633197516 -388208927 389450347 4397637908643 4397633197518 -4397636616013 4397630658920 -4397629726455 -4397637548477 4397630658919 4397637548479 4397629687923 -4397629687933 4397636975620 -4397636616022 -175085 -4397636975619 4397632265060 
Potential of Offsets elements: 888.52 1092.1 568.52 478.52 0.468363 35.5202 28.5202 28.5202 28.5202 28.5202 28.5202 28.5202 37.5202 28.5202 28.5202 28.5202 28.5202 28.5202 28.5202 28.5202 28.5202 28.5202 28.5202 28.5202 28.5202 28.5202 28.5202 28.5202 28.5202 28.5202 28.5202 28.5202 28.5202 28.5202 28.5202 108.52 28.5202 28.5202 28.5202 28.5202 28.5202 28.5202 28.5202 28.5202 28.5202 28.5202 28.5202 28.5202 28.5202 28.5202 28.5202 28.5202 28.5202 28.5202 37.5202 28.5202 64.5202 28.5202 28.5202 28.5202 28.5202 28.5202 28.5202 28.5202 28.5202 28.5202 28.5202 28.5202 28.5202 28.5202 28.5202 481.52 28.5202 28.5202 28.5202 28.5202 28.5202 28.5202 28.5202 28.5202 77.5202 28.5202 28.5202 28.5202 28.5202 28.5202 28.5202 28.5202 28.5202 98.5202 28.5202 28.5202 28.5202 28.5202 28.5202 28.5202 28.5202 28.5202 28.5202 40.5202 28.5202 28.5202 28.5202 28.5202 28.5202 28.5202 28.5202 28.5202 28.5202 28.5202 28.5202 52.5202 28.5202 28.5202 28.5202 28.5202 28.5202 28.5202 28.5202 28.5202 28.5202 28.5202 28.5202 28.5202 28.5202 28.5202 28.5202 28.5202 28.5202 28.5202 28.5202 28.5202 28.5202 28.5202 527.52 28.5202 60.5202 28.5202 28.5202 28.5202 28.5202 28.5202 28.5202 28.5202 28.5202 28.5202 28.5202 28.5202 28.5202 28.5202 60.5202 28.5202 28.5202 28.5202 28.5202 28.5202 99.5202 28.5202 28.5202 28.5202 28.5202 28.5202 28.5202 28.5202 28.5202 28.5202 28.5202 32.5202 28.5202 28.5202 28.5202 28.5202 28.5202 28.5202 28.5202 28.5202 28.5202 28.5202 28.5202 28.5202 28.5202 28.5202 28.5202 28.5202 32.5202 28.5202 28.5202 28.5202 28.5202 28.5202 28.5202 37.5202 28.5202 28.5202 28.5202 28.5202 28.5202 28.5202 28.5202 28.5202 52.5202 60.5202 28.5202 28.5202 28.5202 28.5202 28.5202 28.5202 28.5202 28.5202 28.5202 74.5202 28.5202 28.5202 28.5202 28.5202 28.5202 28.5202 28.5202 28.5202 28.5202 28.5202 28.5202 28.5202 28.5202 28.5202 28.5202 28.5202 58.5202 28.5202 28.5202 28.5202 28.5202 28.5202 28.5202 28.5202 28.5202 28.5202 28.5202 28.5202 28.5202 28.5202 28.5202 28.5202 28.5202 28.5202 28.5202 28.5202 28.5202 28.5202 28.5202 41.5202 28.5202 28.5202 28.5202 28.5202 28.5202 28.5202 28.5202 28.5202 28.5202 28.5202 28.5202 28.5202 28.5202 28.5202 28.5202 28.5202 28.5202 28.5202 28.5202 28.5202 28.5202 28.5202 28.5202 28.5202 28.5202 28.5202 28.5202 28.5202 28.5202 28.5202 28.5202 28.5202 28.5202 28.5202 28.5202 28.5202 28.5202 28.5202 28.5202 28.5202 28.5202 28.5202 28.5202 56.5202 28.5202 28.5202 28.5202 28.5202 28.5202 28.5202 34.5202 28.5202 28.5202 28.5202 28.5202 28.5202 28.5202 28.5202 28.5202 28.5202 56.5202 28.5202 28.5202 28.5202 28.5202 28.5202 28.5202 28.5202 28.5202 28.5202 28.5202 28.5202 28.5202 28.5202 28.5202 28.5202 28.5202 28.5202 64.5202 28.5202 28.5202 28.5202 28.5202 28.5202 28.5202 28.5202 28.5202 28.5202 28.5202 28.5202 40.5202 28.5202 28.5202 28.5202 28.5202 86.5202 45.5202 72.5202 28.5202 28.5202 28.5202 28.5202 28.5202 28.5202 28.5202 28.5202 28.5202 28.5202 28.5202 28.5202 28.5202 28.5202 28.5202 28.5202 28.5202 28.5202 28.5202 28.5202 28.5202 28.5202 28.5202 28.5202 28.5202 28.5202 28.5202 28.5202 28.5202 28.5202 28.5202 28.5202 28.5202 28.5202 28.5202 28.5202 28.5202 28.5202 28.5202 28.5202 28.5202 28.5202 28.5202 67.5202 28.5202 28.5202 28.5202 28.5202 28.5202 28.5202 28.5202 60.5202 28.5202 28.5202 28.5202 28.5202 28.5202 28.5202 28.5202 28.5202 28.5202 28.5202 28.5202 28.5202 28.5202 28.5202 28.5202 28.5202 28.5202 28.5202 28.5202 28.5202 118.52 28.5202 28.5202 28.5202 34.5202 28.5202 28.5202 28.5202 118.52 28.5202 28.5202 28.5202 28.5202 28.5202 28.5202 28.5202 28.5202 28.5202 28.5202 28.5202 28.5202 28.5202 28.5202 28.5202 28.5202 28.5202 28.5202 28.5202 28.5202 28.5202 28.5202 28.5202 28.5202 28.5202 28.5202 28.5202 28.5202 32.5202 28.5202 28.5202 28.5202 28.5202 28.5202 28.5202 28.5202 28.5202 28.5202 28.5202 28.5202 28.5202 28.5202 28.5202 28.5202 28.5202 28.5202 34.5202 28.5202 28.5202 28.5202 28.5202 92.5202 28.5202 28.5202 28.5202 28.5202 28.5202 28.5202 28.5202 28.5202 28.5202 28.5202 28.5202 28.5202 28.5202 28.5202 28.5202 28.5202 28.5202 28.5202 28.5202 28.5202 28.5202 28.5202 28.5202 28.5202 28.5202 28.5202 28.5202 28.5202 28.5202 28.5202 28.5202 28.5202 28.5202 28.5202 28.5202 28.5202 32.5202 28.5202 28.5202 28.5202 28.5202 34.5202 28.5202 28.5202 28.5202 28.5202 28.5202 32.5202 28.5202 28.5202 28.5202 28.5202 28.5202 28.5202 28.5202 28.5202 28.5202 28.5202 28.5202 28.5202 28.5202 28.5202 28.5202 28.5202 32.5202 28.5202 28.5202 28.5202 28.5202 28.5202 28.5202 28.5202 28.5202 28.5202 28.5202 28.5202 28.5202 28.5202 28.5202 28.5202 28.5202 28.5202 28.5202 28.5202 28.5202 28.5202 28.5202 28.5202 34.5202 28.5202 28.5202 28.5202 28.5202 28.5202 28.5202 28.5202 28.5202 28.5202 28.5202 28.5202 28.5202 28.5202 28.5202 28.5202 28.5202 28.5202 28.5202 28.5202 28.5202 28.5202 28.5202 28.5202 28.5202 28.5202 28.5202 28.5202 28.5202 62.5202 28.5202 28.5202 28.5202 28.5202 28.5202 28.5202 28.5202 64.5202 28.5202 28.5202 32.5202 28.5202 28.5202 28.5202 28.5202 28.5202 28.5202 28.5202 28.5202 28.5202 28.5202 28.5202 28.5202 28.5202 28.5202 28.5202 28.5202 28.5202 28.5202 28.5202 28.5202 28.5202 28.5202 28.5202 28.5202 34.5202 28.5202 28.5202 28.5202 28.5202 38.5202 28.5202 28.5202 28.5202 36.5202 28.5202 28.5202 28.5202 28.5202 28.5202 28.5202 28.5202 28.5202 28.5202 28.5202 28.5202 28.5202 28.5202 28.5202 28.5202 28.5202 28.5202 28.5202 28.5202 28.5202 28.5202 28.5202 28.5202 28.5202 28.5202 28.5202 28.5202 28.5202 28.5202 28.5202 28.5202 28.5202 28.5202 28.5202 28.5202 28.5202 28.5202 28.5202 28.5202 28.5202 28.5202 34.5202 28.5202 28.5202 28.5202 28.5202 28.5202 28.5202 28.5202 28.5202 28.5202 28.5202 28.5202 28.5202 28.5202 28.5202 28.5202 28.5202 28.5202 28.5202 28.5202 28.5202 28.5202 28.5202 28.5202 28.5202 28.5202 28.5202 28.5202 28.5202 28.5202 28.5202 28.5202 28.5202 28.5202 28.5202 28.5202 28.5202 28.5202 28.5202 28.5202 28.5202 28.5202 28.5202 28.5202 28.5202 28.5202 28.5202 36.5202 28.5202 28.5202 28.5202 28.5202 28.5202 28.5202 28.5202 28.5202 28.5202 28.5202 28.5202 28.5202 28.5202 28.5202 28.5202 28.5202 28.5202 28.5202 28.5202 28.5202 28.5202 28.5202 28.5202 28.5202 28.5202 28.5202 28.5202 28.5202 28.5202 28.5202 28.5202 34.5202 28.5202 28.5202 28.5202 28.5202 28.5202 28.5202 28.5202 28.5202 28.5202 28.5202 28.5202 28.5202 28.5202 28.5202 28.5202 28.5202 28.5202 28.5202 28.5202 28.5202 28.5202 28.5202 34.5202 28.5202 28.5202 28.5202 28.5202 28.5202 28.5202 28.5202 28.5202 28.5202 46.5202 106.52 28.5202 28.5202 28.5202 28.5202 32.5202 28.5202 28.5202 28.5202 28.5202 28.5202 28.5202 28.5202 28.5202 28.5202 58.5202 28.5202 28.5202 77.5202 28.5202 28.5202 28.5202 28.5202 28.5202 28.5202 28.5202 62.5202 34.5202 28.5202 28.5202 28.5202 28.5202 28.5202 28.5202 28.5202 28.5202 28.5202 115.52 28.5202 28.5202 28.5202 28.5202 28.5202 28.5202 28.5202 28.5202 28.5202 34.5202 28.5202 28.5202 28.5202 28.5202 28.5202 28.5202 28.5202 28.5202 28.5202 28.5202 28.5202 28.5202 28.5202 28.5202 28.5202 28.5202 28.5202 28.5202 28.5202 28.5202 28.5202 28.5202 28.5202 28.5202 28.5202 28.5202 28.5202 28.5202 28.5202 28.5202 28.5202 28.5202 28.5202 28.5202 28.5202 28.5202 28.5202 28.5202 28.5202 28.5202 28.5202 28.5202 28.5202 28.5202 64.5202 28.5202 28.5202 28.5202 28.5202 28.5202 28.5202 28.5202 28.5202 28.5202 28.5202 28.5202 28.5202 28.5202 28.5202 28.5202 28.5202 28.5202 28.5202 28.5202 28.5202 28.5202 28.5202 185.52 28.5202 28.5202 28.5202 28.5202 28.5202 28.5202 28.5202 28.5202 28.5202 28.5202 28.5202 28.5202 28.5202 28.5202 28.5202 28.5202 28.5202 28.5202 28.5202 28.5202 28.5202 28.5202 28.5202 28.5202 28.5202 28.5202 28.5202 28.5202 28.5202 28.5202 28.5202 28.5202 28.5202 28.5202 28.5202 28.5202 28.5202 28.5202 28.5202 28.5202 28.5202 28.5202 28.5202 28.5202 28.5202 28.5202 28.5202 28.5202 28.5202 28.5202 28.5202 28.5202 28.5202 28.5202 28.5202 28.5202 28.5202 28.5202 28.5202 28.5202 28.5202 28.5202 28.5202 28.5202 28.5202 28.5202 28.5202 28.5202 28.5202 28.5202 28.5202 28.5202 28.5202 28.5202 28.5202 28.5202 28.5202 28.5202 28.5202 28.5202 28.5202 28.5202 28.5202 28.5202 28.5202 28.5202 28.5202 28.5202 28.5202 28.5202 28.5202 28.5202 129.52 51.5202 28.5202 28.5202 28.5202 28.5202 28.5202 28.5202 28.5202 28.5202 28.5202 28.5202 28.5202 28.5202 28.5202 28.5202 28.5202 28.5202 28.5202 28.5202 28.5202 28.5202 28.5202 28.5202 28.5202 28.5202 28.5202 28.5202 28.5202 28.5202 28.5202 28.5202 28.5202 28.5202 28.5202 28.5202 28.5202 28.5202 28.5202 28.5202 28.5202 28.5202 28.5202 28.5202 28.5202 28.5202 28.5202 28.5202 28.5202 52.5202 28.5202 28.5202 28.5202 28.5202 67.5202 28.5202 28.5202 28.5202 28.5202 28.5202 28.5202 28.5202 28.5202 28.5202 28.5202 28.5202 28.5202 28.5202 28.5202 28.5202 28.5202 28.5202 28.5202 28.5202 28.5202 28.5202 28.5202 28.5202 28.5202 28.5202 28.5202 28.5202 28.5202 28.5202 28.5202 28.5202 28.5202 28.5202 28.5202 28.5202 62.5202 28.5202 28.5202 28.5202 28.5202 96.5202 28.5202 28.5202 28.5202 28.5202 28.5202 28.5202 78.5202 28.5202 28.5202 28.5202 54.5202 28.5202 28.5202 28.5202 28.5202 28.5202 28.5202 28.5202 28.5202 28.5202 28.5202 28.5202 28.5202 28.5202 28.5202 28.5202 28.5202 28.5202 28.5202 28.5202 28.5202 28.5202 28.5202 28.5202 28.5202 28.5202 28.5202 28.5202 28.5202 28.5202 28.5202 28.5202 28.5202 28.5202 28.5202 28.5202 28.5202 28.5202 28.5202 28.5202 28.5202 28.5202 28.5202 28.5202 28.5202 28.5202 28.5202 28.5202 28.5202 28.5202 28.5202 28.5202 34.5202 28.5202 28.5202 28.5202 28.5202 28.5202 28.5202 39.5202 28.5202 28.5202 28.5202 28.5202 28.5202 28.5202 28.5202 28.5202 28.5202 28.5202 28.5202 28.5202 28.5202 28.5202 28.5202 28.5202 28.5202 28.5202 28.5202 28.5202 28.5202 28.5202 28.5202 28.5202 28.5202 28.5202 28.5202 28.5202 28.5202 28.5202 28.5202 28.5202 28.5202 28.5202 28.5202 28.5202 28.5202 28.5202 28.5202 28.5202 28.5202 28.5202 28.5202 28.5202 28.5202 28.5202 28.5202 28.5202 28.5202 28.5202 28.5202 28.5202 28.5202 28.5202 28.5202 28.5202 28.5202 28.5202 28.5202 28.5202 28.5202 28.5202 28.5202 28.5202 28.5202 28.5202 28.5202 28.5202 28.5202 28.5202 28.5202 28.5202 180.52 28.5202 28.5202 28.5202 28.5202 28.5202 28.5202 28.5202 28.5202 28.5202 130.52 28.5202 28.5202 28.5202 28.5202 28.5202 28.5202 28.5202 28.5202 28.5202 28.5202 28.5202 28.5202 28.5202 28.5202 28.5202 28.5202 28.5202 28.5202 28.5202 28.5202 28.5202 28.5202 28.5202 28.5202 28.5202 28.5202 28.5202 28.5202 28.5202 28.5202 28.5202 28.5202 28.5202 28.5202 28.5202 28.5202 28.5202 28.5202 28.5202 28.5202 28.5202 28.5202 28.5202 28.5202 28.5202 28.5202 28.5202 28.5202 28.5202 28.5202 28.5202 28.5202 28.5202 28.5202 28.5202 28.5202 28.5202 28.5202 28.5202 28.5202 28.5202 28.5202 28.5202 28.5202 28.5202 28.5202 28.5202 28.5202 28.5202 28.5202 28.5202 28.5202 28.5202 28.5202 28.5202 28.5202 182.52 28.5202 28.5202 28.5202 28.5202 28.5202 28.5202 28.5202 28.5202 28.5202 28.5202 28.5202 28.5202 28.5202 28.5202 28.5202 28.5202 28.5202 28.5202 28.5202 28.5202 28.5202 28.5202 28.5202 28.5202 28.5202 66.5202 28.5202 28.5202 28.5202 28.5202 28.5202 28.5202 28.5202 28.5202 28.5202 28.5202 28.5202 28.5202 28.5202 28.5202 28.5202 28.5202 28.5202 28.5202 28.5202 28.5202 28.5202 28.5202 28.5202 28.5202 28.5202 28.5202 28.5202 28.5202 28.5202 28.5202 28.5202 28.5202 28.5202 28.5202 28.5202 28.5202 28.5202 28.5202 28.5202 28.5202 28.5202 28.5202 28.5202 28.5202 28.5202 28.5202 28.5202 28.5202 28.5202 28.5202 28.5202 28.5202 28.5202 28.5202 28.5202 28.5202 28.5202 28.5202 28.5202 28.5202 28.5202 28.5202 28.5202 28.5202 28.5202 28.5202 28.5202 28.5202 28.5202 28.5202 28.5202 28.5202 32.5202 28.5202 28.5202 28.5202 28.5202 28.5202 28.5202 28.5202 28.5202 28.5202 28.5202 28.5202 28.5202 28.5202 28.5202 28.5202 28.5202 28.5202 28.5202 28.5202 28.5202 28.5202 28.5202 28.5202 28.5202 28.5202 28.5202 28.5202 28.5202 28.5202 28.5202 28.5202 28.5202 28.5202 28.5202 28.5202 28.5202 28.5202 28.5202 28.5202 28.5202 28.5202 28.5202 28.5202 28.5202 28.5202 28.5202 28.5202 28.5202 28.5202 28.5202 28.5202 28.5202 28.5202 28.5202 28.5202 28.5202 28.5202 28.5202 28.5202 28.5202 28.5202 28.5202 28.5202 28.5202 290.52 28.5202 28.5202 28.5202 28.5202 28.5202 28.5202 28.5202 28.5202 28.5202 28.5202 28.5202 28.5202 28.5202 28.5202 28.5202 28.5202 28.5202 28.5202 28.5202 28.5202 28.5202 28.5202 28.5202 28.5202 28.5202 28.5202 28.5202 28.5202 28.5202 28.5202 28.5202 28.5202 28.5202 28.5202 28.5202 28.5202 28.5202 28.5202 28.5202 28.5202 28.5202 28.5202 28.5202 28.5202 28.5202 28.5202 28.5202 28.5202 28.5202 28.5202 28.5202 28.5202 28.5202 28.5202 28.5202 28.5202 28.5202 28.5202 28.5202 28.5202 28.5202 28.5202 28.5202 28.5202 28.5202 28.5202 28.5202 28.5202 28.5202 28.5202 28.5202 
rewards of Offsets elements: 860 1092 540 450 0 7 0 0 0 0 0 0 9 0 0 0 0 0 0 0 0 0 0 0 0 0 0 0 0 0 0 0 0 0 0 80 0 0 0 0 0 0 0 0 0 0 0 0 0 0 0 0 0 0 9 0 36 0 0 0 0 0 0 0 0 0 0 0 0 0 0 453 0 0 0 0 0 0 0 0 49 0 0 0 0 0 0 0 0 70 0 0 0 0 0 0 0 0 0 12 0 0 0 0 0 0 0 0 0 0 0 24 0 0 0 0 0 0 0 0 0 0 0 0 0 0 0 0 0 0 0 0 0 0 499 0 32 0 0 0 0 0 0 0 0 0 0 0 0 0 32 0 0 0 0 0 71 0 0 0 0 0 0 0 0 0 0 4 0 0 0 0 0 0 0 0 0 0 0 0 0 0 0 0 4 0 0 0 0 0 0 9 0 0 0 0 0 0 0 0 24 32 0 0 0 0 0 0 0 0 0 46 0 0 0 0 0 0 0 0 0 0 0 0 0 0 0 0 30 0 0 0 0 0 0 0 0 0 0 0 0 0 0 0 0 0 0 0 0 0 0 13 0 0 0 0 0 0 0 0 0 0 0 0 0 0 0 0 0 0 0 0 0 0 0 0 0 0 0 0 0 0 0 0 0 0 0 0 0 0 0 0 0 0 0 28 0 0 0 0 0 0 6 0 0 0 0 0 0 0 0 0 28 0 0 0 0 0 0 0 0 0 0 0 0 0 0 0 0 0 36 0 0 0 0 0 0 0 0 0 0 0 12 0 0 0 0 58 17 44 0 0 0 0 0 0 0 0 0 0 0 0 0 0 0 0 0 0 0 0 0 0 0 0 0 0 0 0 0 0 0 0 0 0 0 0 0 0 0 0 0 0 0 39 0 0 0 0 0 0 0 32 0 0 0 0 0 0 0 0 0 0 0 0 0 0 0 0 0 0 0 0 90 0 0 0 6 0 0 0 90 0 0 0 0 0 0 0 0 0 0 0 0 0 0 0 0 0 0 0 0 0 0 0 0 0 0 0 0 4 0 0 0 0 0 0 0 0 0 0 0 0 0 0 0 0 0 6 0 0 0 0 64 0 0 0 0 0 0 0 0 0 0 0 0 0 0 0 0 0 0 0 0 0 0 0 0 0 0 0 0 0 0 0 0 0 0 0 0 4 0 0 0 0 6 0 0 0 0 0 4 0 0 0 0 0 0 0 0 0 0 0 0 0 0 0 0 4 0 0 0 0 0 0 0 0 0 0 0 0 0 0 0 0 0 0 0 0 0 0 0 6 0 0 0 0 0 0 0 0 0 0 0 0 0 0 0 0 0 0 0 0 0 0 0 0 0 0 0 0 34 0 0 0 0 0 0 0 36 0 0 4 0 0 0 0 0 0 0 0 0 0 0 0 0 0 0 0 0 0 0 0 0 0 0 0 6 0 0 0 0 10 0 0 0 8 0 0 0 0 0 0 0 0 0 0 0 0 0 0 0 0 0 0 0 0 0 0 0 0 0 0 0 0 0 0 0 0 0 0 0 0 0 0 0 0 0 6 0 0 0 0 0 0 0 0 0 0 0 0 0 0 0 0 0 0 0 0 0 0 0 0 0 0 0 0 0 0 0 0 0 0 0 0 0 0 0 0 0 0 0 0 0 0 8 0 0 0 0 0 0 0 0 0 0 0 0 0 0 0 0 0 0 0 0 0 0 0 0 0 0 0 0 0 0 0 6 0 0 0 0 0 0 0 0 0 0 0 0 0 0 0 0 0 0 0 0 0 0 6 0 0 0 0 0 0 0 0 0 18 78 0 0 0 0 4 0 0 0 0 0 0 0 0 0 30 0 0 49 0 0 0 0 0 0 0 34 6 0 0 0 0 0 0 0 0 0 87 0 0 0 0 0 0 0 0 0 6 0 0 0 0 0 0 0 0 0 0 0 0 0 0 0 0 0 0 0 0 0 0 0 0 0 0 0 0 0 0 0 0 0 0 0 0 0 0 0 0 0 0 0 0 36 0 0 0 0 0 0 0 0 0 0 0 0 0 0 0 0 0 0 0 0 0 0 157 0 0 0 0 0 0 0 0 0 0 0 0 0 0 0 0 0 0 0 0 0 0 0 0 0 0 0 0 0 0 0 0 0 0 0 0 0 0 0 0 0 0 0 0 0 0 0 0 0 0 0 0 0 0 0 0 0 0 0 0 0 0 0 0 0 0 0 0 0 0 0 0 0 0 0 0 0 0 0 0 0 0 0 0 0 0 0 0 0 0 0 0 101 23 0 0 0 0 0 0 0 0 0 0 0 0 0 0 0 0 0 0 0 0 0 0 0 0 0 0 0 0 0 0 0 0 0 0 0 0 0 0 0 0 0 0 0 0 0 0 0 24 0 0 0 0 39 0 0 0 0 0 0 0 0 0 0 0 0 0 0 0 0 0 0 0 0 0 0 0 0 0 0 0 0 0 0 0 0 0 0 0 34 0 0 0 0 68 0 0 0 0 0 0 50 0 0 0 26 0 0 0 0 0 0 0 0 0 0 0 0 0 0 0 0 0 0 0 0 0 0 0 0 0 0 0 0 0 0 0 0 0 0 0 0 0 0 0 0 0 0 0 0 0 0 0 0 0 0 0 6 0 0 0 0 0 0 11 0 0 0 0 0 0 0 0 0 0 0 0 0 0 0 0 0 0 0 0 0 0 0 0 0 0 0 0 0 0 0 0 0 0 0 0 0 0 0 0 0 0 0 0 0 0 0 0 0 0 0 0 0 0 0 0 0 0 0 0 0 0 0 0 0 0 0 0 0 0 0 0 152 0 0 0 0 0 0 0 0 0 102 0 0 0 0 0 0 0 0 0 0 0 0 0 0 0 0 0 0 0 0 0 0 0 0 0 0 0 0 0 0 0 0 0 0 0 0 0 0 0 0 0 0 0 0 0 0 0 0 0 0 0 0 0 0 0 0 0 0 0 0 0 0 0 0 0 0 0 0 0 0 0 0 0 0 0 0 154 0 0 0 0 0 0 0 0 0 0 0 0 0 0 0 0 0 0 0 0 0 0 0 0 0 38 0 0 0 0 0 0 0 0 0 0 0 0 0 0 0 0 0 0 0 0 0 0 0 0 0 0 0 0 0 0 0 0 0 0 0 0 0 0 0 0 0 0 0 0 0 0 0 0 0 0 0 0 0 0 0 0 0 0 0 0 0 0 0 0 0 0 0 0 0 0 0 0 4 0 0 0 0 0 0 0 0 0 0 0 0 0 0 0 0 0 0 0 0 0 0 0 0 0 0 0 0 0 0 0 0 0 0 0 0 0 0 0 0 0 0 0 0 0 0 0 0 0 0 0 0 0 0 0 0 0 0 0 0 0 0 0 0 262 0 0 0 0 0 0 0 0 0 0 0 0 0 0 0 0 0 0 0 0 0 0 0 0 0 0 0 0 0 0 0 0 0 0 0 0 0 0 0 0 0 0 0 0 0 0 0 0 0 0 0 0 0 0 0 0 0 0 0 0 0 0 0 0 0 0 0 0 0 0 0 Printing Sanity3
offset_index value1569
offset list size1569
reward size1569
potential size1569
-----------------------------------------------------------------------------------------------------------------------------------------------------------------------------------------------------

DRAM Statistics
 CHANNEL 0
 RQ ROW_BUFFER_HIT:     721540  ROW_BUFFER_MISS:     517666
 DBUS_CONGESTED:       1447
 WQ ROW_BUFFER_HIT:      74219  ROW_BUFFER_MISS:      69040  FULL:          0

 AVG_CONGESTED_CYCLE: 4
 All warmup complete: 2
Channel 0 Bank busy for read cycles: 0
Channel 0 Bank busy for write cycles: 0
Channel 0
Rank 0
0banks busy for read cycles: 449268307
0banks busy for write cycles: 63784
1banks busy for read cycles: 69725225
1banks busy for write cycles: 11831613
2banks busy for read cycles: 18445788
2banks busy for write cycles: 3008405
3banks busy for read cycles: 1083935
3banks busy for write cycles: 1260172
4banks busy for read cycles: 228947
4banks busy for write cycles: 890304
5banks busy for read cycles: 105935
5banks busy for write cycles: 819768
6banks busy for read cycles: 80354
6banks busy for write cycles: 888080
7banks busy for read cycles: 87150
7banks busy for write cycles: 813396
8banks busy for read cycles: 169666
8banks busy for write cycles: 888554

CPU 0 Branch Prediction Accuracy: 99.6511% MPKI: 0.819515 Average ROB Occupancy at Mispredict: 30.2593
Branch types
NOT_BRANCH: 153025148 76.5126%
BRANCH_DIRECT_JUMP: 1846529 0.923265%
BRANCH_INDIRECT: 24302767 12.1514%
BRANCH_CONDITIONAL: 15487960 7.74398%
BRANCH_DIRECT_CALL: 2098552 1.04928%
BRANCH_INDIRECT_CALL: 567787 0.283894%
BRANCH_RETURN: 2671000 1.3355%
BRANCH_OTHER: 0 0%

DRAM PAGES: 1048576
Allocated PAGES: 9438
