
*** ChampSim Multicore Out-of-Order Simulator ***

Warmup Instructions: 50000000
Simulation Instructions: 200000000
Number of CPUs: 1
LLC sets: 2048
LLC ways: 16
Off-chip DRAM Size: 4096 MB Channels: 1 Width: 64-bit Data Rate: 6400 MT/s
CPU 0 runs traces/spec2k17/srv_47.champsimtrace.xz
.xz
BTB has LRU replacement policy
ITLB has LRU replacement policy
DTLB has LRU replacement policy
STLB has LRU replacement policy
L1I has LRU replacement policy
L1D has LRU replacement policy
Initialize SRRIP state for L2C
Initialize DRRIP state for LLC
Heartbeat CPU 0 instructions: 10000000 cycles: 2949567 heartbeat IPC: 3.39033 cumulative IPC: 3.39033 (Simulation time: 0 hr 0 min 42 sec) 
Heartbeat CPU 0 instructions: 20000002 cycles: 5911923 heartbeat IPC: 3.37569 cumulative IPC: 3.38299 (Simulation time: 0 hr 1 min 24 sec) 
Heartbeat CPU 0 instructions: 30000001 cycles: 8859665 heartbeat IPC: 3.39243 cumulative IPC: 3.38613 (Simulation time: 0 hr 2 min 8 sec) 
*** Reached end of trace for Core: 0 Repeating trace: traces/spec2k17/srv_47.champsimtrace.xz
Heartbeat CPU 0 instructions: 40000000 cycles: 11800076 heartbeat IPC: 3.40088 cumulative IPC: 3.38981 (Simulation time: 0 hr 2 min 49 sec) 
Heartbeat CPU 0 instructions: 50000000 cycles: 14765685 heartbeat IPC: 3.37199 cumulative IPC: 3.38623 (Simulation time: 0 hr 3 min 31 sec) 

Warmup complete CPU 0 instructions: 50000004 cycles: 14765686 (Simulation time: 0 hr 3 min 31 sec) 

Offsets elements: 
Potential of Offsets elements: 
rewards of Offsets elements: 
Printing Sanity1
offset list size1252
Offsets elements: 
Potential of Offsets elements: 
rewards of Offsets elements: 56 4106 154 60 39 240 0 0 192 0 0 3242 332 1077 135 0 0 0 0 56 0 16 1382 2924 1147 0 0 2 374 277 100 46 729 0 0 0 0 0 0 12 28 0 6 0 0 0 0 0 0 0 0 0 729 0 0 109 0 0 0 0 0 0 305 9 39 14 0 0 0 0 459 0 0 0 0 0 0 0 0 0 0 0 0 0 0 210 0 0 0 0 0 0 0 0 130 58 0 0 0 44 0 0 0 0 0 0 0 0 0 0 0 0 0 103 0 0 0 9 21 0 155 78 0 0 0 0 26 0 0 0 0 0 0 0 0 0 0 0 0 0 0 614 13 12 98 0 0 0 0 0 0 0 0 0 72 0 0 0 44 0 0 0 0 0 0 0 0 0 0 836 0 0 0 0 10 0 0 372 0 0 0 0 0 0 0 0 0 0 389 0 0 194 223 0 0 0 0 0 0 0 0 0 0 0 0 0 0 0 0 0 0 12 134 105 0 0 0 0 0 0 0 0 0 0 0 0 0 0 0 31 0 120 179 0 0 0 0 0 0 44 36 8 0 0 0 122 0 0 0 44 427 0 0 0 0 0 0 0 0 0 0 0 0 0 0 4 0 0 78 523 0 0 0 0 0 80 32 10 190 0 0 0 0 0 0 108 216 0 0 0 0 0 0 0 0 0 12 0 0 0 0 0 0 116 0 0 0 0 0 0 0 0 0 0 0 0 0 0 0 0 0 0 0 0 0 0 0 224 0 0 0 0 109 0 0 0 0 0 0 0 0 0 0 0 0 0 0 0 0 0 0 0 0 0 0 0 0 701 0 0 0 0 0 0 0 0 0 0 0 0 0 0 0 0 0 0 0 0 0 0 0 0 0 0 0 0 0 0 0 0 0 0 0 36 0 0 0 0 0 0 0 0 0 0 0 0 0 0 0 0 0 0 0 0 0 0 0 0 0 0 0 0 0 0 0 0 0 0 0 0 0 0 0 0 0 0 0 0 0 0 0 0 0 706 0 0 0 0 0 0 0 0 0 0 0 0 0 0 0 0 0 0 0 0 0 0 0 0 0 0 0 0 0 0 0 0 0 0 0 0 50 0 0 0 0 0 34 0 0 0 0 0 0 0 0 0 0 0 0 0 0 0 18 2 80 265 0 0 0 0 244 84 61 0 0 0 0 0 0 0 0 0 0 0 0 0 0 0 0 0 0 0 0 380 0 0 0 0 470 0 0 0 0 0 0 0 0 0 0 42 0 0 0 0 0 0 0 0 10 0 0 0 0 0 0 0 0 0 0 0 0 0 0 0 0 0 0 0 0 0 0 0 0 0 0 0 0 0 0 0 0 0 0 0 0 0 0 0 0 0 0 73 0 0 0 0 0 0 0 0 0 0 71 0 67 0 0 0 0 0 11 80 0 0 2 270 0 0 0 0 0 0 0 0 0 0 114 0 0 0 0 0 0 0 0 6 1 0 0 46 0 4 0 4 1 0 85 0 0 0 0 544 0 0 0 0 0 71 0 0 0 0 0 0 0 0 0 0 0 0 0 0 0 0 0 0 0 26 0 0 9 3 0 0 18 12 6 0 0 0 0 0 0 0 0 47 106 0 0 0 0 47 0 0 0 0 0 0 0 0 0 0 0 32 0 0 11 0 0 0 0 0 0 0 0 0 0 0 0 0 0 0 0 0 0 0 13 0 5 0 0 0 0 0 0 0 0 0 0 0 0 0 0 0 0 0 0 0 0 0 0 0 0 0 0 0 0 0 0 0 0 0 0 0 0 0 0 0 3 0 0 0 0 2 0 0 0 0 0 0 0 7 0 0 0 0 0 0 0 0 0 0 0 0 0 0 0 0 0 0 0 0 0 0 0 3 0 0 0 2 0 0 0 0 0 0 0 0 0 0 0 0 0 0 0 0 363 0 0 0 0 0 0 0 0 0 0 0 0 0 0 0 0 0 0 0 0 0 1 60 0 0 0 0 0 0 0 0 0 0 54 0 84 0 0 0 0 0 0 0 0 0 0 312 0 0 0 0 0 0 0 0 0 0 0 0 0 0 0 0 0 0 0 0 0 0 0 0 0 23 0 0 0 0 0 0 0 6 0 53 0 0 0 0 0 0 0 0 0 0 0 0 0 1 0 9 8 4 0 0 0 0 0 0 0 0 0 0 0 0 0 0 0 0 0 0 0 0 0 0 0 0 0 0 0 0 1 0 0 0 0 0 0 0 0 0 0 0 0 13 23 32 0 0 0 0 0 0 0 0 0 3 0 0 0 0 0 0 0 0 0 0 0 0 3 0 1 0 0 0 31 55 0 0 0 0 0 0 0 0 0 0 0 0 0 0 0 0 0 0 0 0 0 0 0 0 0 0 0 0 0 0 0 0 0 0 0 0 0 0 0 0 0 50 0 0 0 0 0 0 0 0 0 2 0 0 0 0 0 0 1 0 0 0 0 0 0 0 0 0 0 0 0 0 0 0 0 0 0 0 0 0 0 0 0 0 0 0 0 0 0 0 0 0 0 0 0 0 0 0 0 0 0 0 0 0 0 0 0 0 0 0 0 0 0 0 0 0 0 0 0 0 0 0 0 0 0 0 0 0 0 0 172 0 0 0 0 0 0 2 0 0 0 0 0 1 0 0 0 0 0 1 0 0 0 0 0 0 0 0 0 0 0 0 0 0 0 0 0 0 0 0 0 0 0 0 0 0 0 0 0 0 0 0 0 0 0 0 0 0 0 0 0 0 0 0 0 0 0 0 0 0 0 0 0 0 0 0 0 0 0 0 0 0 0 0 0 0 0 0 0 8 0 24 1 0 0 1 0 0 0 0 
Printing Sanity2
Heartbeat CPU 0 instructions: 60000000 cycles: 38701196 heartbeat IPC: 0.417789 cumulative IPC: 0.417789 (Simulation time: 0 hr 4 min 37 sec) 
*** Reached end of trace for Core: 0 Repeating trace: traces/spec2k17/srv_47.champsimtrace.xz
Heartbeat CPU 0 instructions: 70000003 cycles: 62739123 heartbeat IPC: 0.416009 cumulative IPC: 0.416897 (Simulation time: 0 hr 5 min 43 sec) 
Heartbeat CPU 0 instructions: 80000000 cycles: 86364435 heartbeat IPC: 0.423275 cumulative IPC: 0.419002 (Simulation time: 0 hr 6 min 48 sec) 
Heartbeat CPU 0 instructions: 90000001 cycles: 109582883 heartbeat IPC: 0.430692 cumulative IPC: 0.421864 (Simulation time: 0 hr 7 min 54 sec) 
*** Reached end of trace for Core: 0 Repeating trace: traces/spec2k17/srv_47.champsimtrace.xz
Heartbeat CPU 0 instructions: 100000002 cycles: 133008337 heartbeat IPC: 0.426886 cumulative IPC: 0.422859 (Simulation time: 0 hr 8 min 59 sec) 
Heartbeat CPU 0 instructions: 110000000 cycles: 157465634 heartbeat IPC: 0.408876 cumulative IPC: 0.420463 (Simulation time: 0 hr 10 min 4 sec) 
Heartbeat CPU 0 instructions: 120000003 cycles: 180562664 heartbeat IPC: 0.432956 cumulative IPC: 0.422203 (Simulation time: 0 hr 11 min 8 sec) 
*** Reached end of trace for Core: 0 Repeating trace: traces/spec2k17/srv_47.champsimtrace.xz
Heartbeat CPU 0 instructions: 130000001 cycles: 204204239 heartbeat IPC: 0.422984 cumulative IPC: 0.422301 (Simulation time: 0 hr 12 min 12 sec) 
Heartbeat CPU 0 instructions: 140000003 cycles: 227833391 heartbeat IPC: 0.423206 cumulative IPC: 0.422401 (Simulation time: 0 hr 13 min 16 sec) 
Heartbeat CPU 0 instructions: 150000001 cycles: 251032244 heartbeat IPC: 0.431056 cumulative IPC: 0.423251 (Simulation time: 0 hr 14 min 19 sec) 
*** Reached end of trace for Core: 0 Repeating trace: traces/spec2k17/srv_47.champsimtrace.xz
Heartbeat CPU 0 instructions: 160000002 cycles: 274587603 heartbeat IPC: 0.424532 cumulative IPC: 0.423367 (Simulation time: 0 hr 15 min 22 sec) 
Heartbeat CPU 0 instructions: 170000001 cycles: 298048103 heartbeat IPC: 0.426248 cumulative IPC: 0.423606 (Simulation time: 0 hr 16 min 28 sec) 
Heartbeat CPU 0 instructions: 180000000 cycles: 322487843 heartbeat IPC: 0.40917 cumulative IPC: 0.422459 (Simulation time: 0 hr 17 min 32 sec) 
*** Reached end of trace for Core: 0 Repeating trace: traces/spec2k17/srv_47.champsimtrace.xz
Heartbeat CPU 0 instructions: 190000000 cycles: 345817840 heartbeat IPC: 0.428633 cumulative IPC: 0.422894 (Simulation time: 0 hr 18 min 38 sec) 
Heartbeat CPU 0 instructions: 200000002 cycles: 369471836 heartbeat IPC: 0.422762 cumulative IPC: 0.422885 (Simulation time: 0 hr 19 min 42 sec) 
Heartbeat CPU 0 instructions: 210000001 cycles: 393138290 heartbeat IPC: 0.422539 cumulative IPC: 0.422864 (Simulation time: 0 hr 20 min 46 sec) 
*** Reached end of trace for Core: 0 Repeating trace: traces/spec2k17/srv_47.champsimtrace.xz
Heartbeat CPU 0 instructions: 220000000 cycles: 416924445 heartbeat IPC: 0.420413 cumulative IPC: 0.422719 (Simulation time: 0 hr 21 min 53 sec) 
Heartbeat CPU 0 instructions: 230000000 cycles: 439871630 heartbeat IPC: 0.435783 cumulative IPC: 0.423424 (Simulation time: 0 hr 22 min 56 sec) 
Heartbeat CPU 0 instructions: 240000001 cycles: 463764061 heartbeat IPC: 0.418543 cumulative IPC: 0.423164 (Simulation time: 0 hr 24 min 3 sec) 
*** Reached end of trace for Core: 0 Repeating trace: traces/spec2k17/srv_47.champsimtrace.xz
Heartbeat CPU 0 instructions: 250000003 cycles: 487797080 heartbeat IPC: 0.416094 cumulative IPC: 0.422805 (Simulation time: 0 hr 25 min 8 sec) 
Finished CPU 0 instructions: 200000003 cycles: 473031395 cumulative IPC: 0.422805 (Simulation time: 0 hr 25 min 8 sec) 

ChampSim completed all CPUs

Region of Interest Statistics

CPU 0 cumulative IPC: 0.422805 instructions: 200000003 cycles: 473031395
ITLB TOTAL     ACCESS:   35038792  HIT:   33688292  MISS:    1350500  HIT %:    96.1457  MISS %:     3.8543   MPKI: 6.7525
ITLB LOAD TRANSLATION ACCESS:   35038792  HIT:   33688292  MISS:    1350500  HIT %:    96.1457  MISS %:     3.8543   MPKI: 6.7525
ITLB PREFETCH  REQUESTED:          0  ISSUED:          0  USEFUL:          0  USELESS:          0
ITLB USEFUL LOAD PREFETCHES:          0 PREFETCH ISSUED TO LOWER LEVEL:          0  ACCURACY: -nan
ITLB TIMELY PREFETCHES:          0 LATE PREFETCHES: 0 DROPPED PREFETCHES: 0
ITLB PREFETCHES SAME FILL-ORIGIN LEVEL: 0 DIFFERENT FILL-ORIGIN LEVEL: 0
ITLB AVERAGE MISS LATENCY: 9.46743 cycles
ITLB RQ	ACCESS:   40175292	FORWARD:          0	MERGED:    4749799	TO_CACHE:   35425493

DTLB TOTAL     ACCESS:   45349783  HIT:   44089366  MISS:    1260417  HIT %:    97.2207  MISS %:    2.77932   MPKI: 6.30208
DTLB LOAD TRANSLATION ACCESS:   45349783  HIT:   44089366  MISS:    1260417  HIT %:    97.2207  MISS %:    2.77932   MPKI: 6.30208
DTLB PREFETCH  REQUESTED:          0  ISSUED:          0  USEFUL:          0  USELESS:          0
DTLB USEFUL LOAD PREFETCHES:          0 PREFETCH ISSUED TO LOWER LEVEL:          0  ACCURACY: -nan
DTLB TIMELY PREFETCHES:          0 LATE PREFETCHES: 0 DROPPED PREFETCHES: 0
DTLB PREFETCHES SAME FILL-ORIGIN LEVEL: 0 DIFFERENT FILL-ORIGIN LEVEL: 0
DTLB AVERAGE MISS LATENCY: 13.0323 cycles
DTLB RQ	ACCESS:   61998115	FORWARD:          0	MERGED:   16562619	TO_CACHE:   45435496

STLB TOTAL     ACCESS:   12322032  HIT:   12264653  MISS:      57379  HIT %:    99.5343  MISS %:   0.465662   MPKI: 0.286895
STLB LOAD TRANSLATION ACCESS:    2610917  HIT:    2553824  MISS:      57093  HIT %:    97.8133  MISS %:     2.1867   MPKI: 0.285465
STLB TRANSLATION FROM L1D PREFETCHER ACCESS:    9711115  HIT:    9710829  MISS:        286  HIT %:    99.9971  MISS %: 0.00294508   MPKI: 0.00143
STLB PREFETCH  REQUESTED:          0  ISSUED:          0  USEFUL:        274  USELESS:         12
STLB USEFUL LOAD PREFETCHES:        274 PREFETCH ISSUED TO LOWER LEVEL:          0  ACCURACY: inf
STLB TIMELY PREFETCHES:        274 LATE PREFETCHES: 0 DROPPED PREFETCHES: 24481
STLB PREFETCHES SAME FILL-ORIGIN LEVEL: 0 DIFFERENT FILL-ORIGIN LEVEL: 0
STLB AVERAGE MISS LATENCY: 99.5043 cycles
STLB RQ	ACCESS:   15315696	FORWARD:          0	MERGED:    2969182	TO_CACHE:   12346514

STLB Hit, L1D data hit: 0
STLB Hit, L2C data hit: 0
STLB Hit, LLC data hit: 0
STLB Hit, LLC data miss: 0
STLB STLB hints to L2: 0
L1D TOTAL     ACCESS:   72315008  HIT:   69151724  MISS:    3163284  HIT %:    95.6257  MISS %:    4.37431   MPKI: 15.8164
L1D LOAD      ACCESS:   37298458  HIT:   35556628  MISS:    1741830  HIT %:      95.33  MISS %:    4.66998   MPKI: 8.70915
L1D RFO       ACCESS:   22484299  HIT:   21671995  MISS:     812304  HIT %:    96.3872  MISS %:    3.61276   MPKI: 4.06152
L1D PREFETCH  ACCESS:   12532251  HIT:   11923101  MISS:     609150  HIT %:    95.1393  MISS %:    4.86066   MPKI: 3.04575
AGUS PREFETCH L1 MISS: 0
L1D PREFETCH  REQUESTED:   25729141  ISSUED:   25729141  USEFUL:     156837  USELESS:     452202
L1D USEFUL LOAD PREFETCHES:     156837 PREFETCH ISSUED TO LOWER LEVEL:     614653  ACCURACY: 25.5163
L1D TIMELY PREFETCHES:     156837 LATE PREFETCHES: 4435 DROPPED PREFETCHES: 24481
L1D PREFETCHES SAME FILL-ORIGIN LEVEL: 614653 DIFFERENT FILL-ORIGIN LEVEL: 0
L1D AVERAGE MISS LATENCY: 445575 cycles
L1D RQ	ACCESS:   54598621	FORWARD:          0	MERGED:   17018367	TO_CACHE:   37437843
L1D WQ	ACCESS:   25007272	FORWARD:     153429	MERGED:     447000	TO_CACHE:   24560272
L1D PQ	ACCESS:   13024362	FORWARD:          0	MERGED:     308565	TO_CACHE:   12704779

L1D UNIQUE REGIONS ACCESSED: 0
L1D REGIONS CONFLICTS: 0
L1D Cross Page Prefetch Requests: 231989
L1D Same Page Prefetch Requests: 12792373
L1D ROI Sum of L1D PQ occupancy: 160986871
L1D PREFETCHES PUSHED FROM L2C: 0
L1I TOTAL     ACCESS:   39469720  HIT:   34337991  MISS:    5131729  HIT %:    86.9983  MISS %:    13.0017   MPKI: 25.6586
L1I LOAD      ACCESS:   39469720  HIT:   34337991  MISS:    5131729  HIT %:    86.9983  MISS %:    13.0017   MPKI: 25.6586
L1I PREFETCH  REQUESTED:          0  ISSUED:          0  USEFUL:          0  USELESS:          0
L1I USEFUL LOAD PREFETCHES:          0 PREFETCH ISSUED TO LOWER LEVEL:          0  ACCURACY: -nan
L1I TIMELY PREFETCHES:          0 LATE PREFETCHES: 0 DROPPED PREFETCHES: 0
L1I PREFETCHES SAME FILL-ORIGIN LEVEL: 0 DIFFERENT FILL-ORIGIN LEVEL: 0
L1I AVERAGE MISS LATENCY: 19.842 cycles
L1I RQ	ACCESS:   60686275	FORWARD:          0	MERGED:   20510983	TO_CACHE:   40175292

BTB TOTAL     ACCESS:   31810941  HIT:   25200143  MISS:    6610798  HIT %:    79.2185  MISS %:    20.7815   MPKI: 33.054
BTB BRANCH_DIRECT_JUMP	ACCESS:    2592848  HIT:    2153159  MISS:     439689
BTB BRANCH_INDIRECT	ACCESS:   13337314  HIT:   10769669  MISS:    2567645
BTB BRANCH_CONDITIONAL	ACCESS:    7075229  HIT:    6545706  MISS:     529523
BTB BRANCH_DIRECT_CALL	ACCESS:    3079695  HIT:    2283613  MISS:     796082
BTB BRANCH_INDIRECT_CALL	ACCESS:    1323118  HIT:     950696  MISS:     372422
BTB BRANCH_RETURN	ACCESS:    4402737  HIT:    2497300  MISS:    1905437
BTB BRANCH_OTHER ACCESS:          0  HIT:          0  MISS:          0

L2C TOTAL     ACCESS:    9724793  HIT:    7435655  MISS:    2289138  HIT %:    76.4608  MISS %:    23.5392   MPKI: 11.4457
L2C LOAD      ACCESS:    6869097  HIT:    5359321  MISS:    1509776  HIT %:    78.0208  MISS %:    21.9792   MPKI: 7.54888
L2C DATA LOAD MPKI: 2.79598
L2C INSTRUCTION LOAD MPKI: 4.75289
L2C RFO       ACCESS:     811221  HIT:     371820  MISS:     439401  HIT %:    45.8346  MISS %:    54.1654   MPKI: 2.197
L2C PREFETCH  ACCESS:     614651  HIT:     399013  MISS:     215638  HIT %:     64.917  MISS %:     35.083   MPKI: 1.07819
AGUS PREFETCH L1 MISS: 0
L2C DATA PREFETCH MPKI: 1.07819
L2C INSTRUCTION PREFETCH MPKI: 0
L2C WRITEBACK ACCESS:    1303673  HIT:    1235804  MISS:      67869  HIT %:     94.794  MISS %:    5.20598   MPKI: 0.339345
L2C LOAD TRANSLATION ACCESS:      88164  HIT:      34578  MISS:      53586  HIT %:    39.2201  MISS %:    60.7799   MPKI: 0.26793
L2C TRANSLATION FROM L1D PREFETCHER ACCESS:      37987  HIT:      35119  MISS:       2868  HIT %:      92.45  MISS %:    7.54995   MPKI: 0.01434
L2C PREFETCH  REQUESTED:          0  ISSUED:          0  USEFUL:      18191  USELESS:     199771
L2C USEFUL LOAD PREFETCHES:      18191 PREFETCH ISSUED TO LOWER LEVEL:     215638  ACCURACY: 8.4359
L2C TIMELY PREFETCHES:      18191 LATE PREFETCHES: 0 DROPPED PREFETCHES: 0
L2C PREFETCHES SAME FILL-ORIGIN LEVEL: 0 DIFFERENT FILL-ORIGIN LEVEL: 0
L2C AVERAGE MISS LATENCY: 59.5115 cycles
L2C RQ	ACCESS:    7806511	FORWARD:          0	MERGED:          0	TO_CACHE:    7806469
L2C WQ	ACCESS:    1303673	FORWARD:         44	MERGED:          0	TO_CACHE:    1303673
L2C PQ	ACCESS:     614653	FORWARD:          0	MERGED:          0	TO_CACHE:     614651

L2C Instructions Evicting Data 511792
L2C Translations Evicting Data 34947
L2C Data Evicting Data 699456
L2C Instructions Evicting Instructions 418035
L2C Translations Evicting Instructions 19676
L2C Data Evicting Instructions 481982
L2C Instructions Evicting Translations 20752
L2C Translations Evicting Translations 1831
L2C Data Evicting Translations 32798
L2C Dense regions hint from L2: 0
PSCL5 TOTAL     ACCESS:      81860  HIT:      81860  MISS:          0  HIT %:        100  MISS %:          0   MPKI: 0
PSCL5 LOAD TRANSLATION ACCESS:      57093  HIT:      57093  MISS:          0  HIT %:        100  MISS %:          0   MPKI: 0
PSCL5 TRANSLATION FROM L1D PREFETCHER ACCESS:      24767  HIT:      24767  MISS:          0  HIT %:        100  MISS %:          0   MPKI: 0
PSCL5 PREFETCH  REQUESTED:          0  ISSUED:          0  USEFUL:          0  USELESS:          0
PSCL5 USEFUL LOAD PREFETCHES:          0 PREFETCH ISSUED TO LOWER LEVEL:          0  ACCURACY: -nan
PSCL5 TIMELY PREFETCHES:          0 LATE PREFETCHES: 0 DROPPED PREFETCHES: 0
PSCL5 PREFETCHES SAME FILL-ORIGIN LEVEL: 0 DIFFERENT FILL-ORIGIN LEVEL: 0

PSCL4 TOTAL     ACCESS:      80844  HIT:      80429  MISS:        415  HIT %:    99.4867  MISS %:   0.513334   MPKI: 0.002075
PSCL4 LOAD TRANSLATION ACCESS:      56439  HIT:      56024  MISS:        415  HIT %:    99.2647  MISS %:   0.735307   MPKI: 0.002075
PSCL4 TRANSLATION FROM L1D PREFETCHER ACCESS:      24405  HIT:      24405  MISS:          0  HIT %:        100  MISS %:          0   MPKI: 0
PSCL4 PREFETCH  REQUESTED:          0  ISSUED:          0  USEFUL:          0  USELESS:          0
PSCL4 USEFUL LOAD PREFETCHES:          0 PREFETCH ISSUED TO LOWER LEVEL:          0  ACCURACY: -nan
PSCL4 TIMELY PREFETCHES:          0 LATE PREFETCHES: 0 DROPPED PREFETCHES: 0
PSCL4 PREFETCHES SAME FILL-ORIGIN LEVEL: 0 DIFFERENT FILL-ORIGIN LEVEL: 0

PSCL3 TOTAL     ACCESS:      72119  HIT:      64240  MISS:       7879  HIT %:     89.075  MISS %:     10.925   MPKI: 0.039395
PSCL3 LOAD TRANSLATION ACCESS:      53327  HIT:      45448  MISS:       7879  HIT %:    85.2251  MISS %:    14.7749   MPKI: 0.039395
PSCL3 TRANSLATION FROM L1D PREFETCHER ACCESS:      18792  HIT:      18792  MISS:          0  HIT %:        100  MISS %:          0   MPKI: 0
PSCL3 PREFETCH  REQUESTED:          0  ISSUED:          0  USEFUL:          0  USELESS:          0
PSCL3 USEFUL LOAD PREFETCHES:          0 PREFETCH ISSUED TO LOWER LEVEL:          0  ACCURACY: -nan
PSCL3 TIMELY PREFETCHES:          0 LATE PREFETCHES: 0 DROPPED PREFETCHES: 0
PSCL3 PREFETCHES SAME FILL-ORIGIN LEVEL: 0 DIFFERENT FILL-ORIGIN LEVEL: 0

PSCL2 TOTAL     ACCESS:      71001  HIT:      48174  MISS:      22827  HIT %:    67.8497  MISS %:    32.1503   MPKI: 0.114135
PSCL2 LOAD TRANSLATION ACCESS:      57143  HIT:      34316  MISS:      22827  HIT %:    60.0528  MISS %:    39.9472   MPKI: 0.114135
PSCL2 TRANSLATION FROM L1D PREFETCHER ACCESS:      13858  HIT:      13858  MISS:          0  HIT %:        100  MISS %:          0   MPKI: 0
PSCL2 PREFETCH  REQUESTED:          0  ISSUED:          0  USEFUL:          0  USELESS:          0
PSCL2 USEFUL LOAD PREFETCHES:          0 PREFETCH ISSUED TO LOWER LEVEL:          0  ACCURACY: -nan
PSCL2 TIMELY PREFETCHES:          0 LATE PREFETCHES: 0 DROPPED PREFETCHES: 0
PSCL2 PREFETCHES SAME FILL-ORIGIN LEVEL: 0 DIFFERENT FILL-ORIGIN LEVEL: 0

LLC TOTAL     ACCESS:    2803254  HIT:    2364731  MISS:     438523  HIT %:    84.3566  MISS %:    15.6434   MPKI: 2.19261
LLC LOAD      ACCESS:    1509770  HIT:    1297487  MISS:     212283  HIT %:    85.9394  MISS %:    14.0606   MPKI: 1.06141
LLC RFO       ACCESS:     439401  HIT:     286694  MISS:     152707  HIT %:    65.2466  MISS %:    34.7534   MPKI: 0.763535
LLC PREFETCH  ACCESS:     215638  HIT:     162121  MISS:      53517  HIT %:     75.182  MISS %:     24.818   MPKI: 0.267585
AGUS PREFETCH L1 MISS: 0
LLC WRITEBACK ACCESS:     581991  HIT:     575346  MISS:       6645  HIT %:    98.8582  MISS %:    1.14177   MPKI: 0.033225
LLC LOAD TRANSLATION ACCESS:      53586  HIT:      40879  MISS:      12707  HIT %:    76.2867  MISS %:    23.7133   MPKI: 0.063535
LLC TRANSLATION FROM L1D PREFETCHER ACCESS:       2868  HIT:       2204  MISS:        664  HIT %:     76.848  MISS %:     23.152   MPKI: 0.00332
LLC PREFETCH  REQUESTED:          0  ISSUED:          0  USEFUL:       2901  USELESS:      48652
LLC USEFUL LOAD PREFETCHES:       2901 PREFETCH ISSUED TO LOWER LEVEL:      53517  ACCURACY: 5.42071
LLC TIMELY PREFETCHES:       2901 LATE PREFETCHES: 0 DROPPED PREFETCHES: 0
LLC PREFETCHES SAME FILL-ORIGIN LEVEL: 0 DIFFERENT FILL-ORIGIN LEVEL: 0
LLC AVERAGE MISS LATENCY: 158.694 cycles
LLC RQ	ACCESS:    2005631	FORWARD:          0	MERGED:          0	TO_CACHE:    2005625
LLC WQ	ACCESS:     581991	FORWARD:          6	MERGED:          0	TO_CACHE:     581991
LLC PQ	ACCESS:     215638	FORWARD:          0	MERGED:          0	TO_CACHE:     215638

LLC Dense regions hint to LLC: 0

RAW hits: 2778112
Loads Generated: 57376736
Loads sent to L1D: 54598621
Stores Generated: 25007264
Stores sent to L1D: 25007272
Major fault: 0 Minor fault: 5261
Allocated PAGES: 5261
ucb ended
-----------------------------------------------------------------------------------------------------------------------------------------------------------------------------------------------------
Offsets elements: -3494 1 -1465140613728 1465140613730 3494 855615816 -1465996233377 337 1465140613728 -1465116853182 1465116856678 -1 8 2 855615807 -855638749 19438 -1465140614725 1465140614914 -21 -19658 19660 -2 3 20 -1465140613917 1465146440984 -5827081 13 -12 -5 855619143 -1465996233040 1465140627379 855605661 -855619124 5827066 -1465146437151 1465140609573 -1465140609572 1465140609570 -1465140609564 1465146437144 -1465146502181 1465140674601 -1465140674601 1465140674602 -1465140674602 1465140674603 -1465140674603 1465146502179 -1465146440982 1465996233040 -849792060 -5827084 5 13467 -13474 5827080 -5827082 13501 5813581 14 -1465140610084 -6 1465140609571 12104 -1465140686705 1465146502181 -5813577 -28 5813609 -1465146437150 12066 5815514 -1465146437145 -65036 -5813606 5813610 -1465146440983 -849792057 -5827085 -1465140613771 1465140613276 493 16 5827068 -1465146440986 1465146440986 849792054 -849792054 -5823752 5823753 -5827070 -20 3327 -1465140617369 1465140613872 -1465140613727 49 855619263 -855619313 -19422 19472 -1465140613777 1465146440987 849792053 -849792056 -1465146440985 1465146440989 849792051 -849792053 -5845840 -8 5845851 -5845904 -664 664 44 -732 24 -33 741 5845862 -5845894 5845893 33 24690 -1465140621567 1747 1465140619822 855613219 -855612199 -1019 1051 -1465140621863 1465140621873 5820106 -5820106 5820107 -5820113 -4 -36 36 -43 -1465140621823 1465140621868 -1465140620881 1465140620873 855612167 -855612203 -1465140620863 -998 1465140621861 -38 5820152 -5846750 26647 40 -889734 854007604 -1465993738742 15787 1465140605085 -1465140620923 -856501790 889676 -889737 889734 6 -889680 889673 889735 -889674 -61 854007610 -853117872 -3 -1465140620801 1465140613081 7717 3687 -11403 -1465140613081 3688 -1465140624487 1465140613082 7715 4 5820020 -5820021 29 -9 -1465146440966 1465146440985 849792055 -849792098 -5820057 5820103 -5820064 853117875 -853117926 853117927 -853144466 -1465140594345 1465146440997 -1465146424531 1465140604426 -1465140620882 -849792052 -5820108 32 -25 25 -1465140633917 1465140633893 -1465140633893 1465140633897 -7097 7096 5820100 -5820107 5820111 -5821168 -1465140619822 1465146440991 849792049 -849792049 -5845906 -52 796 -46 17 17965 -1465140624292 11222 1465140613075 855619965 -855619968 -42 -80 79 -1465140625313 1465140625317 7772 19 -1465140633897 1465140633900 -7858 80 -11 -1465140625397 1465140625400 -1465140613023 -855620016 -1465140613024 -849792058 -5827951 -1465140625402 1465140625405 -1465140613028 1465140613030 5827952 849792058 -855620009 -89 5827958 -5827913 -41 9 -1465140613027 1465146440990 849792050 -5845901 -749 85 -32 42 -44 803 5845854 -5845839 5845840 -1465146444055 1465140598216 -16 -13 18606 3503 -22110 5845869 -5845905 25740 -1465140620763 1465140620764 -25741 25748 5820090 -5846567 725 -758 -1465140582686 1465146429286 62 22074 -22083 18644 -855615816 -3496 3496 -1465116856678 1465116833745 5846695 -5823756 -1465140617560 -660 1465140618221 -22986 19491 3504 -3316 1465140613898 855619142 -855619143 -1465140613904 1465140613897 -855619137 -7 13475 -13482 5827087 -5813605 30 5827078 -1465140613902 1465140613916 855619124 1465140609566 -1465140609573 1465146437151 -5827580 -1465146440981 1465146440982 -855619138 13483 -13490 13494 -13480 5827580 -5815455 5815454 -1465146437143 1465140688595 5813590 -5815504 -1465140621639 1465140688593 -10 5813600 5827082 -5813600 13478 -13478 -1465140610085 12068 13992 -1465146437147 1465140686629 -1465140621593 1465140688571 -13470 5827065 -5813609 -1465140623541 11994 -1465140621559 1465146502184 1465996232914 -855619637 -855615807 5823754 -5823763 -3307 -1465140614062 1465140614042 -1465140613897 5827259 -5827260 5827262 -855637911 18 -842 780 54 -5827213 -18680 5845894 -5846569 709 -742 -1465140594397 1465140595130 855637910 -855613220 1020 -1465140620873 1465140620883 -1465140622630 1465140622624 -1465140621868 1465140621871 855612159 -855612167 -1465140620869 1465140620826 -1465140621824 1465140621823 -26598 5846750 -5820103 -1465140620872 1465993738742 -854007604 -1465139731189 1465140620923 -1465140605085 1465996217202 -853117871 -1465140620798 1465140620802 -7718 7714 -7714 11400 -1465140624485 1465140613084 1465140624486 -11402 7712 -5820040 5820049 -1465146440975 849792099 11 853117916 -847297813 -5820063 5820062 -26589 26548 853117917 -847297812 -6709800 6709799 -1465146440999 1465140620890 855612161 -855612162 -1465140604455 1465140604431 -7093 -1465140626800 1465140633896 -5820110 -5821169 -855637955 -1465140595086 1465140595103 855637935 -855619965 -1465140613072 1465140613031 -1465140624253 1465996244262 -855620017 91 -1465140625491 1465140633262 -1465140633091 1465140633092 -23 -1465140633878 1465140626043 -1465140613031 1465140613028 855620015 -1465996245417 1465140625408 5827954 -5827963 89 -84 5827959 -5827914 17902 855620009 -855637943 -761 666 17898 84 -17883 -751 697 50 15 -814 814 -1465140598216 1465140598205 -14 26 27 -63 -1465140594959 1465140595024 18577 -19391 22894 3660 -25740 5845838 5845843 -5820091 -26510 1465140583383 18642 3491 -1465140617221 1465140617224 -855619312 -23760883 1465140617560 7 -22940 19437 1465140595235 22995 -188 -1465140613729 1465140613896 855619146 -855619123 -1465140613916 1465140613904 855619137 13476 -13483 -5813604 21 5813584 1465140613902 855619138 -512 1465140609572 13484 -13491 -13464 12100 -1465140621665 -1465140686701 -5813601 5813603 12056 5815524 1465140688580 5813604 145 170 -855638735 -1465140594305 1465140613777 5827207 849792056 -849792055 -1465146440989 5845905 -5845861 855637911 5845844 -5845852 -718 -1465140595130 1465140594388 855638643 -855637910 24691 1019 1757 1465140620867 -1465140620802 1465140613087 7711 3686 -11399 7709 5820099 -5820116 -1465140621269 -589 1465140621869 -50 -1050 5821164 -5820111 5820112 5845861 -5846655 794 -794 5846655 740 -24 25732 46 -1032462 1032461 854613783 -50214 -848743460 41 -26 25763 -25781 -803 -29 5823760 -5827263 -1465140614188 1465140617684 -1465140618228 1465140618238 -3506 -1465140617479 -741 1465140596147 -53 -1465140594972 1465140612997 -17974 -1465140595421 287 1465140595120 855637920 -1465140594576 1465140593814 -1465140593814 17355 -17748 1465146441029 849783350 -1465996224730 22151 -21963 21962 1465995212757 43 -1465995212763 6589 1465146412446 -5845854 -19 -1465140595647 1465140595648 -1465140584610 -10343 1465996161230 100 -131 -849720161 -5847012 35192 855532187 -855567372 19505 855547661 -855547790 5827629 -5846977 855567200 -849720408 849720552 -849720552 -5827315 -19512 19512 855547867 -167 -849720382 -1465146441063 2265 866 -3291 235 21916 1465996211124 -1465996211086 7984 1465146411049 -1465146440987 1465146440988 849792052 -5845855 17887 755 48 -48 -1465140617233 5827092 -5823755 -3497 52 3443 190 -142 -1465140613775 -5827092 -5845849 -1465140595468 10791 1465140584678 -1465140595156 1465140595134 -904 855638810 -855637919 34 -1465140595628 588 10515 1465146430334 183 -855630287 174 -697 5846579 -5845810 17993 -17969 -1465140607348 1465140607348 -1465140607355 1465140607331 5845811 -5846622 790 -35 17886 35 -18689 118 -146 -1465140569072 -10946 -14271 -1465996207826 1465140569075 -1465140594289 1465146440965 849792075 -849792076 -5846676 921 853143589 -847297834 5846677 -5827210 -1465140613636 1465140613637 -18608 -1465140595449 1465140595449 22065 -1465140630002 1465140630002 1465140630004 -22067 -1465140630008 1465140630008 1465140630010 -1465140630004 16611 1465140591326 -3463 3463 -1465140630009 1465140607944 -1465140630006 -18620 -929 929 1465140630006 -18571 18620 5827190 -5846739 5846746 -5827245 3497 5823749 -5845845 -883 854208582 -848361935 -1465140614067 1465140617563 -1465140618232 1465140618234 5823747 -5846628 5846634 -5846746 5846753 -1465146441334 11864 -11377 1465996161233 849720223 -855567235 855567379 -855567379 855567173 -855567233 5846803 -5846775 19743 -19742 21201 -1458 -19743 -19773 855567377 -849720576 -5846802 19774 -19774 5846805 -1465146441039 -160 2190 19764 -21916 -1465146437909 1465996229984 -1465996203234 1465146411170 10 -1465146441247 10904 -10633 -1465996222407 1465146440966 849792074 -1465996201433 1465146409357 -1465146441177 22681 -22322 33481 -33498 -849720223 -5846976 5846769 849720368 5278 -5279 5846770 -1465146441038 19726 38 1465996211086 3056 -1465996202928 1465146410852 -1465146440838 33501 1465146407338 -1465146441178 -94979 94961 -31 131 -69 849720161 -1465140594269 1465140594269 -1465140594428 2425 -2190 1465140599474 -1465140577520 -1465146410852 1465996202928 -1465996232914 -94959 1465146535798 -1465146441454 22918 -22429 -22339 -849720292 -5847010 19975 -19977 5846800 -5846770 19977 -21201 -20007 5846798 849720580 -855547370 5826793 -1465146441036 1465146437905 -1465146441196 21954 1465146419008 -1465146419046 23 -1465146441211 262 1465146440962 -849792077 812 5845816 -1465146441318 455 1465146430349 168 -1465996224863 1465140594709 5846628 -5845838 18604 5827251 -5823754 -1465140618220 1465140618230 -1465140722802 1465146546535 -5823743 -1465140617562 -666 11636 -10515 1465996224382 -849783350 -1465146441577 1465140617652 -1465140617684 -544 5823738 5827246 5827245 -5827246 -18577 22067 5823750 -5827239 -3434 -5827244 -22090 5823740 -5827243 3464 613 1465146441367 -1465140617231 -855619310 3493 -1465140618229 3505 -22996 19680 11484 -11484 11483 -1465140625254 1465140625255 5815583 -5823739 -5823730 -5823748 -3495 -1465140614734 1465140618239 -3306 5827049 -5846630 5846642 -5845844 -702 5846584 -1465146440979 1465146440979 849792061 -855637884 -22065 -1465140607939 -1465140617667 -12337 1465140630003 -1465140613391 1465140613383 5823739 -1465146440867 3738 1465146502159 -5845802 5845823 -5823744 -1465140617108 1465146440852 -1465146440978 -849792078 -5846549 5846583 -1465140614923 1465140614924 -190 169 -19659 31146 -11486 11485 -1465140625256 1465140625256 5815580 -5823731 -5823742 -19582 -5845836 -713 5846551 -5845867 -735 -1465140595600 1465140617667 -1465140617128 3739 -16612 -1465140626541 -1465140613392 1465140609564 -1465146440837 1465146440961 -5823728 5823732 -849792070 5846550 22843 -1465140617107 1465140613602 1465140614923 -19681 5827067 -5815580 5815579 5823733 -1465140617224 1465140617223 -19392 855638704 -1465996234046 1465140596140 30251 -11468 -19496 30963 -30261 -1465140594388 1465146440972 -849792050 -5845834 1465146502161 -5845805 5845821 -5845822 -3503 189 1465140594111 19659 11490 5815576 -5823741 1465140595342 19581 855619123 -855619122 5827060 -5845853 5845848 -5846584 5846602 -1465146440990 -849792061 -1465146441423 1465140595600 -1465140595063 1465140617130 -1465140613390 1465140626539 1465140626185 -19660 -1465140594111 1465140613770 11492 5815575 -5846627 -5815575 -30255 22803 5823742 1465146440971 -18605 -1465140595394 5827055 849792064 5827053 -1465146440971 1465146440978 5845805 11495 5815573 -18784 -5846557 -1465140613385 1465146437122 -1465146437129 11497 5815571 -849792069 798 22812 5823748 -5827053 1465140596129 19530 5827061 -1465140617223 -22836 22845 -1465140618239 1465140614734 855619312 187 11499 5815569 19582 855619122 -18783 -18 1465140656356 11501 5815567 -5846583 -1465146440976 -1465996233484 16621 5827046 1465146440838 -5827067 3328 8175 -31062 -1465140595342 1465996234046 -855637906 702 -1465146440970 16614 5845822 -1465146440852 1465140617108 5823727 -1465146440961 849792078 19307 855638652 -189 -1465140614924 1465140614903 31164 5815563 -5823740 -1465140617665 5823737 -12874 16612 -16611 1465140626182 -1465140609570 65037 11507 5815561 22802 5823743 -5823733 -22101 5845853 -5846588 -1006 -5823727 5823744 1465146440970 -5827242 -855638619 855615817 -22845 3306 -3327 -1465140613770 11677 -31167 5846726 -5846551 5846557 11511 5815557 -5845856 -855615817 -3493 -1465140614736 -5827045 5846729 8186 -22897 -1465140595427 -18794 1465140613389 -1465140630001 31174 5815553 11517 5815551 30992 -22100 849792070 -12873 16613 5845806 -1465146440963 126 1465146440835 -5823732 855615806 11519 5815549 11521 5815547 -855638704 
Potential of Offsets elements: 84.3993 1267.02 182.399 88.3993 67.3993 268.399 28.3993 28.3993 220.399 28.3993 28.3993 3242.11 360.399 1105.4 163.399 28.3993 28.3993 28.3993 28.3993 84.3993 28.3993 44.3993 1410.4 2952.4 1175.4 28.3993 28.3993 30.3993 402.399 305.399 128.399 74.3993 757.399 28.3993 28.3993 28.3993 28.3993 28.3993 28.3993 40.3993 56.3993 28.3993 34.3993 28.3993 28.3993 28.3993 28.3993 28.3993 28.3993 28.3993 28.3993 28.3993 757.399 28.3993 28.3993 137.399 28.3993 28.3993 28.3993 28.3993 28.3993 28.3993 333.399 37.3993 67.3993 42.3993 28.3993 28.3993 28.3993 28.3993 487.399 28.3993 28.3993 28.3993 28.3993 28.3993 28.3993 28.3993 28.3993 28.3993 28.3993 28.3993 28.3993 28.3993 28.3993 238.399 28.3993 28.3993 28.3993 28.3993 28.3993 28.3993 28.3993 28.3993 158.399 86.3993 28.3993 28.3993 28.3993 72.3993 28.3993 28.3993 28.3993 28.3993 28.3993 28.3993 28.3993 28.3993 28.3993 28.3993 28.3993 28.3993 28.3993 131.399 28.3993 28.3993 28.3993 37.3993 49.3993 28.3993 183.399 106.399 28.3993 28.3993 28.3993 28.3993 54.3993 28.3993 28.3993 28.3993 28.3993 28.3993 28.3993 28.3993 28.3993 28.3993 28.3993 28.3993 28.3993 28.3993 28.3993 642.399 41.3993 40.3993 126.399 28.3993 28.3993 28.3993 28.3993 28.3993 28.3993 28.3993 28.3993 28.3993 100.399 28.3993 28.3993 28.3993 72.3993 28.3993 28.3993 28.3993 28.3993 28.3993 28.3993 28.3993 28.3993 28.3993 28.3993 864.399 28.3993 28.3993 28.3993 28.3993 38.3993 28.3993 28.3993 400.399 28.3993 28.3993 28.3993 28.3993 28.3993 28.3993 28.3993 28.3993 28.3993 28.3993 417.399 28.3993 28.3993 222.399 251.399 28.3993 28.3993 28.3993 28.3993 28.3993 28.3993 28.3993 28.3993 28.3993 28.3993 28.3993 28.3993 28.3993 28.3993 28.3993 28.3993 28.3993 28.3993 40.3993 162.399 133.399 28.3993 28.3993 28.3993 28.3993 28.3993 28.3993 28.3993 28.3993 28.3993 28.3993 28.3993 28.3993 28.3993 28.3993 28.3993 59.3993 28.3993 148.399 207.399 28.3993 28.3993 28.3993 28.3993 28.3993 28.3993 72.3993 64.3993 36.3993 28.3993 28.3993 28.3993 150.399 28.3993 28.3993 28.3993 72.3993 455.399 28.3993 28.3993 28.3993 28.3993 28.3993 28.3993 28.3993 28.3993 28.3993 28.3993 28.3993 28.3993 28.3993 28.3993 32.3993 28.3993 28.3993 106.399 551.399 28.3993 28.3993 28.3993 28.3993 28.3993 108.399 60.3993 38.3993 218.399 28.3993 28.3993 28.3993 28.3993 28.3993 28.3993 136.399 244.399 28.3993 28.3993 28.3993 28.3993 28.3993 28.3993 28.3993 28.3993 28.3993 40.3993 28.3993 28.3993 28.3993 28.3993 28.3993 28.3993 144.399 28.3993 28.3993 28.3993 28.3993 28.3993 28.3993 28.3993 28.3993 28.3993 28.3993 28.3993 28.3993 28.3993 28.3993 28.3993 28.3993 28.3993 28.3993 28.3993 28.3993 28.3993 28.3993 28.3993 252.399 28.3993 28.3993 28.3993 28.3993 137.399 28.3993 28.3993 28.3993 28.3993 28.3993 28.3993 28.3993 28.3993 28.3993 28.3993 28.3993 28.3993 28.3993 28.3993 28.3993 28.3993 28.3993 28.3993 28.3993 28.3993 28.3993 28.3993 28.3993 28.3993 729.399 28.3993 28.3993 28.3993 28.3993 28.3993 28.3993 28.3993 28.3993 28.3993 28.3993 28.3993 28.3993 28.3993 28.3993 28.3993 28.3993 28.3993 28.3993 28.3993 28.3993 28.3993 28.3993 28.3993 28.3993 28.3993 28.3993 28.3993 28.3993 28.3993 28.3993 28.3993 28.3993 28.3993 28.3993 28.3993 64.3993 28.3993 28.3993 28.3993 28.3993 28.3993 28.3993 28.3993 28.3993 28.3993 28.3993 28.3993 28.3993 28.3993 28.3993 28.3993 28.3993 28.3993 28.3993 28.3993 28.3993 28.3993 28.3993 28.3993 28.3993 28.3993 28.3993 28.3993 28.3993 28.3993 28.3993 28.3993 28.3993 28.3993 28.3993 28.3993 28.3993 28.3993 28.3993 28.3993 28.3993 28.3993 28.3993 28.3993 28.3993 28.3993 28.3993 28.3993 28.3993 28.3993 734.399 28.3993 28.3993 28.3993 28.3993 28.3993 28.3993 28.3993 28.3993 28.3993 28.3993 28.3993 28.3993 28.3993 28.3993 28.3993 28.3993 28.3993 28.3993 28.3993 28.3993 28.3993 28.3993 28.3993 28.3993 28.3993 28.3993 28.3993 28.3993 28.3993 28.3993 28.3993 28.3993 28.3993 28.3993 28.3993 28.3993 78.3993 28.3993 28.3993 28.3993 28.3993 28.3993 62.3993 28.3993 28.3993 28.3993 28.3993 28.3993 28.3993 28.3993 28.3993 28.3993 28.3993 28.3993 28.3993 28.3993 28.3993 28.3993 46.3993 30.3993 108.399 293.399 28.3993 28.3993 28.3993 28.3993 272.399 112.399 89.3993 28.3993 28.3993 28.3993 28.3993 28.3993 28.3993 28.3993 28.3993 28.3993 28.3993 28.3993 28.3993 28.3993 28.3993 28.3993 28.3993 28.3993 28.3993 28.3993 28.3993 408.399 28.3993 28.3993 28.3993 28.3993 498.399 28.3993 28.3993 28.3993 28.3993 28.3993 28.3993 28.3993 28.3993 28.3993 28.3993 70.3993 28.3993 28.3993 28.3993 28.3993 28.3993 28.3993 28.3993 28.3993 38.3993 28.3993 28.3993 28.3993 28.3993 28.3993 28.3993 28.3993 28.3993 28.3993 28.3993 28.3993 28.3993 28.3993 28.3993 28.3993 28.3993 28.3993 28.3993 28.3993 28.3993 28.3993 28.3993 28.3993 28.3993 28.3993 28.3993 28.3993 28.3993 28.3993 28.3993 28.3993 28.3993 28.3993 28.3993 28.3993 28.3993 28.3993 28.3993 28.3993 28.3993 28.3993 28.3993 101.399 28.3993 28.3993 28.3993 28.3993 28.3993 28.3993 28.3993 28.3993 28.3993 28.3993 99.3993 28.3993 95.3993 28.3993 28.3993 28.3993 28.3993 28.3993 39.3993 108.399 28.3993 28.3993 30.3993 298.399 28.3993 28.3993 28.3993 28.3993 28.3993 28.3993 28.3993 28.3993 28.3993 28.3993 142.399 28.3993 28.3993 28.3993 28.3993 28.3993 28.3993 28.3993 28.3993 34.3993 29.3993 28.3993 28.3993 74.3993 28.3993 32.3993 28.3993 32.3993 29.3993 28.3993 113.399 28.3993 28.3993 28.3993 28.3993 572.399 28.3993 28.3993 28.3993 28.3993 28.3993 99.3993 28.3993 28.3993 28.3993 28.3993 28.3993 28.3993 28.3993 28.3993 28.3993 28.3993 28.3993 28.3993 28.3993 28.3993 28.3993 28.3993 28.3993 28.3993 28.3993 54.3993 28.3993 28.3993 37.3993 31.3993 28.3993 28.3993 46.3993 40.3993 34.3993 28.3993 28.3993 28.3993 28.3993 28.3993 28.3993 28.3993 28.3993 75.3993 134.399 28.3993 28.3993 28.3993 28.3993 75.3993 28.3993 28.3993 28.3993 28.3993 28.3993 28.3993 28.3993 28.3993 28.3993 28.3993 28.3993 60.3993 28.3993 28.3993 39.3993 28.3993 28.3993 28.3993 28.3993 28.3993 28.3993 28.3993 28.3993 28.3993 28.3993 28.3993 28.3993 28.3993 28.3993 28.3993 28.3993 28.3993 28.3993 28.3993 41.3993 28.3993 33.3993 28.3993 28.3993 28.3993 28.3993 28.3993 28.3993 28.3993 28.3993 28.3993 28.3993 28.3993 28.3993 28.3993 28.3993 28.3993 28.3993 28.3993 28.3993 28.3993 28.3993 28.3993 28.3993 28.3993 28.3993 28.3993 28.3993 28.3993 28.3993 28.3993 28.3993 28.3993 28.3993 28.3993 28.3993 28.3993 28.3993 28.3993 28.3993 28.3993 31.3993 28.3993 28.3993 28.3993 28.3993 30.3993 28.3993 28.3993 28.3993 28.3993 28.3993 28.3993 28.3993 35.3993 28.3993 28.3993 28.3993 28.3993 28.3993 28.3993 28.3993 28.3993 28.3993 28.3993 28.3993 28.3993 28.3993 28.3993 28.3993 28.3993 28.3993 28.3993 28.3993 28.3993 28.3993 28.3993 28.3993 31.3993 28.3993 28.3993 28.3993 30.3993 28.3993 28.3993 28.3993 28.3993 28.3993 28.3993 28.3993 28.3993 28.3993 28.3993 28.3993 28.3993 28.3993 28.3993 28.3993 28.3993 391.399 28.3993 28.3993 28.3993 28.3993 28.3993 28.3993 28.3993 28.3993 28.3993 28.3993 28.3993 28.3993 28.3993 28.3993 28.3993 28.3993 28.3993 28.3993 28.3993 28.3993 28.3993 29.3993 88.3993 28.3993 28.3993 28.3993 28.3993 28.3993 28.3993 28.3993 28.3993 28.3993 28.3993 82.3993 28.3993 112.399 28.3993 28.3993 28.3993 28.3993 28.3993 28.3993 28.3993 28.3993 28.3993 28.3993 340.399 28.3993 28.3993 28.3993 28.3993 28.3993 28.3993 28.3993 28.3993 28.3993 28.3993 28.3993 28.3993 28.3993 28.3993 28.3993 28.3993 28.3993 28.3993 28.3993 28.3993 28.3993 28.3993 28.3993 28.3993 28.3993 51.3993 28.3993 28.3993 28.3993 28.3993 28.3993 28.3993 28.3993 34.3993 28.3993 81.3993 28.3993 28.3993 28.3993 28.3993 28.3993 28.3993 28.3993 28.3993 28.3993 28.3993 28.3993 28.3993 28.3993 29.3993 28.3993 37.3993 36.3993 32.3993 28.3993 28.3993 28.3993 28.3993 28.3993 28.3993 28.3993 28.3993 28.3993 28.3993 28.3993 28.3993 28.3993 28.3993 28.3993 28.3993 28.3993 28.3993 28.3993 28.3993 28.3993 28.3993 28.3993 28.3993 28.3993 28.3993 28.3993 28.3993 29.3993 28.3993 28.3993 28.3993 28.3993 28.3993 28.3993 28.3993 28.3993 28.3993 28.3993 28.3993 28.3993 41.3993 51.3993 60.3993 28.3993 28.3993 28.3993 28.3993 28.3993 28.3993 28.3993 28.3993 28.3993 31.3993 28.3993 28.3993 28.3993 28.3993 28.3993 28.3993 28.3993 28.3993 28.3993 28.3993 28.3993 28.3993 31.3993 28.3993 29.3993 28.3993 28.3993 28.3993 59.3993 83.3993 28.3993 28.3993 28.3993 28.3993 28.3993 28.3993 28.3993 28.3993 28.3993 28.3993 28.3993 28.3993 28.3993 28.3993 28.3993 28.3993 28.3993 28.3993 28.3993 28.3993 28.3993 28.3993 28.3993 28.3993 28.3993 28.3993 28.3993 28.3993 28.3993 28.3993 28.3993 28.3993 28.3993 28.3993 28.3993 28.3993 28.3993 28.3993 28.3993 28.3993 28.3993 78.3993 28.3993 28.3993 28.3993 28.3993 28.3993 28.3993 28.3993 28.3993 28.3993 30.3993 28.3993 28.3993 28.3993 28.3993 28.3993 28.3993 29.3993 28.3993 28.3993 28.3993 28.3993 28.3993 28.3993 28.3993 28.3993 28.3993 28.3993 28.3993 28.3993 28.3993 28.3993 28.3993 28.3993 28.3993 28.3993 28.3993 28.3993 28.3993 28.3993 28.3993 28.3993 28.3993 28.3993 28.3993 28.3993 28.3993 28.3993 28.3993 28.3993 28.3993 28.3993 28.3993 28.3993 28.3993 28.3993 28.3993 28.3993 28.3993 28.3993 28.3993 28.3993 28.3993 28.3993 28.3993 28.3993 28.3993 28.3993 28.3993 28.3993 28.3993 28.3993 28.3993 28.3993 28.3993 28.3993 28.3993 28.3993 28.3993 28.3993 28.3993 28.3993 28.3993 28.3993 28.3993 28.3993 28.3993 28.3993 28.3993 200.399 28.3993 28.3993 28.3993 28.3993 28.3993 28.3993 30.3993 28.3993 28.3993 28.3993 28.3993 28.3993 29.3993 28.3993 28.3993 28.3993 28.3993 28.3993 29.3993 28.3993 28.3993 28.3993 28.3993 28.3993 28.3993 28.3993 28.3993 28.3993 28.3993 28.3993 28.3993 28.3993 28.3993 28.3993 28.3993 28.3993 28.3993 28.3993 28.3993 28.3993 28.3993 28.3993 28.3993 28.3993 28.3993 28.3993 28.3993 28.3993 28.3993 28.3993 28.3993 28.3993 28.3993 28.3993 28.3993 28.3993 28.3993 28.3993 28.3993 28.3993 28.3993 28.3993 28.3993 28.3993 28.3993 28.3993 28.3993 28.3993 28.3993 28.3993 28.3993 28.3993 28.3993 28.3993 28.3993 28.3993 28.3993 28.3993 28.3993 28.3993 28.3993 28.3993 28.3993 28.3993 28.3993 28.3993 28.3993 28.3993 36.3993 28.3993 52.3993 29.3993 28.3993 28.3993 29.3993 28.3993 28.3993 28.3993 28.3993 
rewards of Offsets elements: 56 1262 154 60 39 240 0 0 192 0 0 3242 332 1077 135 0 0 0 0 56 0 16 1382 2924 1147 0 0 2 374 277 100 46 729 0 0 0 0 0 0 12 28 0 6 0 0 0 0 0 0 0 0 0 729 0 0 109 0 0 0 0 0 0 305 9 39 14 0 0 0 0 459 0 0 0 0 0 0 0 0 0 0 0 0 0 0 210 0 0 0 0 0 0 0 0 130 58 0 0 0 44 0 0 0 0 0 0 0 0 0 0 0 0 0 103 0 0 0 9 21 0 155 78 0 0 0 0 26 0 0 0 0 0 0 0 0 0 0 0 0 0 0 614 13 12 98 0 0 0 0 0 0 0 0 0 72 0 0 0 44 0 0 0 0 0 0 0 0 0 0 836 0 0 0 0 10 0 0 372 0 0 0 0 0 0 0 0 0 0 389 0 0 194 223 0 0 0 0 0 0 0 0 0 0 0 0 0 0 0 0 0 0 12 134 105 0 0 0 0 0 0 0 0 0 0 0 0 0 0 0 31 0 120 179 0 0 0 0 0 0 44 36 8 0 0 0 122 0 0 0 44 427 0 0 0 0 0 0 0 0 0 0 0 0 0 0 4 0 0 78 523 0 0 0 0 0 80 32 10 190 0 0 0 0 0 0 108 216 0 0 0 0 0 0 0 0 0 12 0 0 0 0 0 0 116 0 0 0 0 0 0 0 0 0 0 0 0 0 0 0 0 0 0 0 0 0 0 0 224 0 0 0 0 109 0 0 0 0 0 0 0 0 0 0 0 0 0 0 0 0 0 0 0 0 0 0 0 0 701 0 0 0 0 0 0 0 0 0 0 0 0 0 0 0 0 0 0 0 0 0 0 0 0 0 0 0 0 0 0 0 0 0 0 0 36 0 0 0 0 0 0 0 0 0 0 0 0 0 0 0 0 0 0 0 0 0 0 0 0 0 0 0 0 0 0 0 0 0 0 0 0 0 0 0 0 0 0 0 0 0 0 0 0 0 706 0 0 0 0 0 0 0 0 0 0 0 0 0 0 0 0 0 0 0 0 0 0 0 0 0 0 0 0 0 0 0 0 0 0 0 0 50 0 0 0 0 0 34 0 0 0 0 0 0 0 0 0 0 0 0 0 0 0 18 2 80 265 0 0 0 0 244 84 61 0 0 0 0 0 0 0 0 0 0 0 0 0 0 0 0 0 0 0 0 380 0 0 0 0 470 0 0 0 0 0 0 0 0 0 0 42 0 0 0 0 0 0 0 0 10 0 0 0 0 0 0 0 0 0 0 0 0 0 0 0 0 0 0 0 0 0 0 0 0 0 0 0 0 0 0 0 0 0 0 0 0 0 0 0 0 0 0 73 0 0 0 0 0 0 0 0 0 0 71 0 67 0 0 0 0 0 11 80 0 0 2 270 0 0 0 0 0 0 0 0 0 0 114 0 0 0 0 0 0 0 0 6 1 0 0 46 0 4 0 4 1 0 85 0 0 0 0 544 0 0 0 0 0 71 0 0 0 0 0 0 0 0 0 0 0 0 0 0 0 0 0 0 0 26 0 0 9 3 0 0 18 12 6 0 0 0 0 0 0 0 0 47 106 0 0 0 0 47 0 0 0 0 0 0 0 0 0 0 0 32 0 0 11 0 0 0 0 0 0 0 0 0 0 0 0 0 0 0 0 0 0 0 13 0 5 0 0 0 0 0 0 0 0 0 0 0 0 0 0 0 0 0 0 0 0 0 0 0 0 0 0 0 0 0 0 0 0 0 0 0 0 0 0 0 3 0 0 0 0 2 0 0 0 0 0 0 0 7 0 0 0 0 0 0 0 0 0 0 0 0 0 0 0 0 0 0 0 0 0 0 0 3 0 0 0 2 0 0 0 0 0 0 0 0 0 0 0 0 0 0 0 0 363 0 0 0 0 0 0 0 0 0 0 0 0 0 0 0 0 0 0 0 0 0 1 60 0 0 0 0 0 0 0 0 0 0 54 0 84 0 0 0 0 0 0 0 0 0 0 312 0 0 0 0 0 0 0 0 0 0 0 0 0 0 0 0 0 0 0 0 0 0 0 0 0 23 0 0 0 0 0 0 0 6 0 53 0 0 0 0 0 0 0 0 0 0 0 0 0 1 0 9 8 4 0 0 0 0 0 0 0 0 0 0 0 0 0 0 0 0 0 0 0 0 0 0 0 0 0 0 0 0 1 0 0 0 0 0 0 0 0 0 0 0 0 13 23 32 0 0 0 0 0 0 0 0 0 3 0 0 0 0 0 0 0 0 0 0 0 0 3 0 1 0 0 0 31 55 0 0 0 0 0 0 0 0 0 0 0 0 0 0 0 0 0 0 0 0 0 0 0 0 0 0 0 0 0 0 0 0 0 0 0 0 0 0 0 0 0 50 0 0 0 0 0 0 0 0 0 2 0 0 0 0 0 0 1 0 0 0 0 0 0 0 0 0 0 0 0 0 0 0 0 0 0 0 0 0 0 0 0 0 0 0 0 0 0 0 0 0 0 0 0 0 0 0 0 0 0 0 0 0 0 0 0 0 0 0 0 0 0 0 0 0 0 0 0 0 0 0 0 0 0 0 0 0 0 0 172 0 0 0 0 0 0 2 0 0 0 0 0 1 0 0 0 0 0 1 0 0 0 0 0 0 0 0 0 0 0 0 0 0 0 0 0 0 0 0 0 0 0 0 0 0 0 0 0 0 0 0 0 0 0 0 0 0 0 0 0 0 0 0 0 0 0 0 0 0 0 0 0 0 0 0 0 0 0 0 0 0 0 0 0 0 0 0 0 8 0 24 1 0 0 1 0 0 0 0 Printing Sanity3
offset_index value1252
offset list size1252
reward size1252
potential size1252
-----------------------------------------------------------------------------------------------------------------------------------------------------------------------------------------------------

DRAM Statistics
 CHANNEL 0
 RQ ROW_BUFFER_HIT:     140400  ROW_BUFFER_MISS:     291474
 DBUS_CONGESTED:        316
 WQ ROW_BUFFER_HIT:      41156  ROW_BUFFER_MISS:     162323  FULL:          0

 AVG_CONGESTED_CYCLE: 5
 All warmup complete: 2
Channel 0 Bank busy for read cycles: 0
Channel 0 Bank busy for write cycles: 0
Channel 0
Rank 0
0banks busy for read cycles: 420281716
0banks busy for write cycles: 89814
1banks busy for read cycles: 23300719
1banks busy for write cycles: 12896561
2banks busy for read cycles: 6395100
2banks busy for write cycles: 3520575
3banks busy for read cycles: 1388566
3banks busy for write cycles: 1175343
4banks busy for read cycles: 337146
4banks busy for write cycles: 554644
5banks busy for read cycles: 187231
5banks busy for write cycles: 326820
6banks busy for read cycles: 160377
6banks busy for write cycles: 222026
7banks busy for read cycles: 170050
7banks busy for write cycles: 233140
8banks busy for read cycles: 768154
8banks busy for write cycles: 1023414

CPU 0 Branch Prediction Accuracy: 99.7602% MPKI: 0.428415 Average ROB Occupancy at Mispredict: 26.5966
Branch types
NOT_BRANCH: 164263835 82.1319%
BRANCH_DIRECT_JUMP: 2592848 1.29642%
BRANCH_INDIRECT: 13337314 6.66866%
BRANCH_CONDITIONAL: 11000191 5.5001%
BRANCH_DIRECT_CALL: 3079695 1.53985%
BRANCH_INDIRECT_CALL: 1323118 0.661559%
BRANCH_RETURN: 4402737 2.20137%
BRANCH_OTHER: 0 0%

DRAM PAGES: 1048576
Allocated PAGES: 5261
