
*** ChampSim Multicore Out-of-Order Simulator ***

Warmup Instructions: 50000000
Simulation Instructions: 200000000
Number of CPUs: 1
LLC sets: 2048
LLC ways: 16
Off-chip DRAM Size: 4096 MB Channels: 1 Width: 64-bit Data Rate: 6400 MT/s
CPU 0 runs traces/spec2k17/srv_54.champsimtrace.xz
.xz
BTB has LRU replacement policy
ITLB has LRU replacement policy
DTLB has LRU replacement policy
STLB has LRU replacement policy
L1I has LRU replacement policy
L1D has LRU replacement policy
Initialize SRRIP state for L2C
Initialize DRRIP state for LLC
Heartbeat CPU 0 instructions: 10000000 cycles: 2817581 heartbeat IPC: 3.54914 cumulative IPC: 3.54914 (Simulation time: 0 hr 0 min 37 sec) 
Heartbeat CPU 0 instructions: 20000002 cycles: 5631294 heartbeat IPC: 3.55402 cumulative IPC: 3.55158 (Simulation time: 0 hr 1 min 15 sec) 
Heartbeat CPU 0 instructions: 30000001 cycles: 8451741 heartbeat IPC: 3.54554 cumulative IPC: 3.54956 (Simulation time: 0 hr 1 min 53 sec) 
*** Reached end of trace for Core: 0 Repeating trace: traces/spec2k17/srv_54.champsimtrace.xz
Heartbeat CPU 0 instructions: 40000000 cycles: 11257867 heartbeat IPC: 3.56363 cumulative IPC: 3.55307 (Simulation time: 0 hr 2 min 31 sec) 
Heartbeat CPU 0 instructions: 50000003 cycles: 14079490 heartbeat IPC: 3.54406 cumulative IPC: 3.55127 (Simulation time: 0 hr 3 min 8 sec) 

Warmup complete CPU 0 instructions: 50000003 cycles: 14079490 (Simulation time: 0 hr 3 min 8 sec) 

Offsets elements: 
Potential of Offsets elements: 
rewards of Offsets elements: 
Printing Sanity1
offset list size1607
Offsets elements: 
Potential of Offsets elements: 
rewards of Offsets elements: 0 949 0 0 0 0 0 0 0 1109 0 0 0 909 0 0 0 0 0 0 352 0 0 0 128 0 0 0 0 0 0 7 0 0 160 0 0 0 0 346 0 0 0 0 0 0 260 0 0 147 0 0 0 0 0 129 0 0 0 0 0 0 0 0 0 0 1 0 0 0 0 0 0 0 0 0 0 0 0 0 0 0 0 0 0 0 0 0 0 0 0 147 0 0 0 0 0 0 0 0 0 0 0 0 0 0 0 0 0 0 0 0 0 0 0 0 0 0 0 0 0 0 0 0 0 0 0 0 0 0 0 0 120 27 0 0 0 0 1038 0 0 0 125 2 0 0 0 0 0 0 0 0 0 270 30 0 0 0 0 0 0 0 0 0 0 134 0 0 0 0 0 0 0 0 0 100 0 0 0 0 0 0 0 0 119 0 0 0 0 0 0 0 0 0 0 0 0 0 0 0 0 0 0 0 0 0 0 0 0 0 0 0 0 0 0 0 0 0 0 148 0 0 0 0 20 39 69 0 0 0 0 0 0 0 130 0 0 67 0 0 0 0 0 0 0 0 0 0 0 0 0 0 0 0 0 0 0 0 0 0 258 0 0 0 24 12 326 345 174 0 0 12 0 0 0 0 0 0 0 9 11 0 0 75 3 0 0 0 0 0 16 2 0 5 90 0 0 0 0 0 0 0 0 0 0 0 0 0 0 0 0 0 0 0 0 0 0 0 0 0 0 0 0 0 0 0 0 0 910 0 0 737 0 0 0 0 0 0 0 0 0 0 0 89 0 0 0 0 0 0 0 0 0 0 0 682 0 0 3 47 0 0 0 0 3 0 0 0 0 0 0 0 0 897 0 0 0 0 0 323 33 0 0 0 0 0 0 0 0 0 0 0 0 0 0 24 0 0 30 0 0 36 0 0 0 0 0 0 0 0 23 0 0 0 16 13 2 0 0 0 0 0 0 20 3 0 0 0 0 0 0 0 0 0 0 42 0 0 0 0 0 0 0 0 0 0 0 0 0 0 0 0 0 0 0 0 72 251 0 0 0 0 0 0 0 0 0 0 0 0 0 0 0 0 0 0 0 0 0 0 0 0 0 0 0 0 0 0 0 0 0 0 0 0 0 0 0 0 0 0 0 0 0 164 0 0 1 0 0 0 0 0 0 0 0 0 0 0 0 0 0 0 0 121 0 0 0 0 0 0 0 0 0 0 0 0 0 0 0 0 0 0 0 0 0 0 0 0 0 0 0 0 0 0 0 0 0 0 0 0 0 0 0 0 0 0 0 0 0 0 0 0 0 0 0 0 0 0 0 0 0 0 0 0 0 0 0 0 0 0 0 0 0 0 0 0 0 0 0 0 0 0 0 0 0 0 0 0 0 135 0 0 0 0 0 0 0 0 0 0 0 0 0 75 0 0 0 0 0 0 0 0 0 0 0 0 0 0 118 0 0 0 0 1132 0 0 0 0 0 0 0 0 0 0 0 0 0 0 0 0 0 0 0 0 0 0 0 0 0 0 0 0 0 0 0 0 0 0 0 0 86 0 0 0 0 0 0 0 0 0 0 0 0 0 0 0 0 0 0 0 0 0 0 0 0 0 14 0 0 0 0 0 22 0 0 0 0 309 0 0 0 0 0 18 0 0 0 0 0 0 0 0 75 0 0 0 0 0 0 0 0 0 0 0 0 0 0 0 0 0 0 0 0 0 0 0 0 0 0 0 0 57 0 0 0 0 0 0 0 0 0 0 0 0 0 0 0 0 0 0 0 0 110 0 0 0 0 0 0 0 0 0 0 0 0 0 0 0 0 0 0 0 0 0 502 0 0 0 0 0 0 0 0 0 0 0 0 0 0 0 0 0 0 0 0 0 0 0 0 0 0 0 0 0 0 0 0 0 0 0 0 0 0 0 0 0 0 0 0 0 50 42 0 0 0 0 0 0 0 0 0 0 0 0 0 32 0 0 0 0 0 0 0 0 0 64 2 0 0 0 0 0 0 0 0 0 0 0 0 0 0 0 0 0 0 0 0 0 0 0 0 0 0 0 0 0 0 0 0 0 0 73 0 0 0 0 0 0 55 36 0 0 0 0 19 0 0 0 0 0 126 0 0 24 0 0 0 0 0 0 0 0 0 0 0 0 0 0 0 0 0 83 50 0 0 0 42 116 0 0 0 0 0 0 0 0 0 0 0 0 0 0 0 0 0 373 0 0 0 0 0 0 0 0 0 0 0 0 0 0 0 0 0 0 0 0 0 0 0 0 0 0 0 0 0 0 0 0 0 0 0 0 0 0 0 0 0 0 0 0 0 0 0 0 0 0 0 0 0 0 0 0 0 0 0 0 0 0 0 0 0 35 0 0 92 0 0 0 0 0 0 0 0 0 0 0 0 0 0 0 0 0 0 0 84 9 14 0 0 0 0 0 0 0 0 23 0 0 2 0 0 0 0 0 0 0 493 0 0 68 0 0 0 0 0 0 0 0 0 0 0 0 0 0 0 0 0 0 0 0 0 0 0 0 0 0 0 0 0 0 68 0 0 0 0 0 0 0 0 0 0 0 0 0 0 0 0 0 0 0 0 0 0 0 0 0 0 0 0 0 0 0 0 0 0 0 0 0 0 0 0 0 0 0 0 0 0 0 0 0 0 0 0 0 0 2 46 0 0 10 0 0 0 0 0 0 2 100 0 0 0 0 0 0 0 0 0 0 0 0 0 0 0 0 0 0 0 0 0 0 0 0 0 0 0 96 0 0 0 0 0 0 0 0 0 0 0 0 0 0 0 0 0 0 0 0 0 3 1 0 0 0 0 0 10 0 0 0 0 0 0 0 0 0 0 0 0 0 0 0 0 0 0 0 0 0 0 0 0 0 0 0 0 0 0 0 0 0 0 0 152 0 0 0 0 0 39 0 0 0 45 127 0 0 0 0 0 0 0 0 0 0 0 0 0 0 0 0 0 0 0 0 0 0 0 0 0 0 0 0 0 0 0 0 0 0 51 0 0 0 0 0 0 0 0 0 0 0 0 66 93 0 0 0 24 0 0 0 0 0 0 0 0 0 0 0 0 0 0 0 0 0 0 0 118 0 0 0 2 0 0 0 0 0 0 0 0 0 0 0 0 0 0 0 0 0 0 0 0 0 0 0 0 0 0 0 0 0 0 0 19 0 0 0 0 0 0 0 0 5 0 0 0 0 0 0 0 0 0 0 0 0 0 0 0 0 0 0 0 0 0 0 913 0 0 30 24 0 70 0 0 0 0 0 0 0 0 0 0 216 100 0 0 0 0 0 0 0 0 0 0 0 0 0 0 0 0 0 0 0 0 0 0 0 0 0 0 0 0 0 0 0 0 0 0 0 0 0 0 0 0 0 0 0 0 0 0 0 0 0 0 0 0 0 0 0 0 0 0 0 0 0 0 0 0 0 0 593 0 0 0 0 0 0 0 0 0 0 0 0 0 0 0 0 0 0 0 0 0 0 0 0 0 0 0 0 0 0 0 0 0 0 0 0 0 0 0 0 0 0 0 0 0 0 0 0 0 0 2 0 0 135 0 0 0 0 0 0 0 5 0 0 0 0 0 363 8 2 0 0 58 0 2 83 0 0 0 0 0 0 0 0 46 51 0 0 0 
Printing Sanity2
Heartbeat CPU 0 instructions: 60000003 cycles: 34032168 heartbeat IPC: 0.501186 cumulative IPC: 0.501186 (Simulation time: 0 hr 4 min 8 sec) 
*** Reached end of trace for Core: 0 Repeating trace: traces/spec2k17/srv_54.champsimtrace.xz
Heartbeat CPU 0 instructions: 70000001 cycles: 51895765 heartbeat IPC: 0.559798 cumulative IPC: 0.528873 (Simulation time: 0 hr 5 min 3 sec) 
Heartbeat CPU 0 instructions: 80000001 cycles: 71360041 heartbeat IPC: 0.513762 cumulative IPC: 0.523738 (Simulation time: 0 hr 6 min 0 sec) 
Heartbeat CPU 0 instructions: 90000001 cycles: 91866212 heartbeat IPC: 0.487658 cumulative IPC: 0.514227 (Simulation time: 0 hr 7 min 0 sec) 
*** Reached end of trace for Core: 0 Repeating trace: traces/spec2k17/srv_54.champsimtrace.xz
Heartbeat CPU 0 instructions: 100000002 cycles: 111150575 heartbeat IPC: 0.518555 cumulative IPC: 0.515086 (Simulation time: 0 hr 7 min 57 sec) 
Heartbeat CPU 0 instructions: 110000000 cycles: 128526503 heartbeat IPC: 0.575509 cumulative IPC: 0.52426 (Simulation time: 0 hr 8 min 54 sec) 
Heartbeat CPU 0 instructions: 120000003 cycles: 149929675 heartbeat IPC: 0.467221 cumulative IPC: 0.515274 (Simulation time: 0 hr 9 min 52 sec) 
*** Reached end of trace for Core: 0 Repeating trace: traces/spec2k17/srv_54.champsimtrace.xz
Heartbeat CPU 0 instructions: 130000001 cycles: 168763398 heartbeat IPC: 0.530962 cumulative IPC: 0.517184 (Simulation time: 0 hr 10 min 52 sec) 
Heartbeat CPU 0 instructions: 140000000 cycles: 187494673 heartbeat IPC: 0.533866 cumulative IPC: 0.518986 (Simulation time: 0 hr 11 min 50 sec) 
Heartbeat CPU 0 instructions: 150000000 cycles: 208948452 heartbeat IPC: 0.466118 cumulative IPC: 0.513165 (Simulation time: 0 hr 12 min 49 sec) 
*** Reached end of trace for Core: 0 Repeating trace: traces/spec2k17/srv_54.champsimtrace.xz
Heartbeat CPU 0 instructions: 160000002 cycles: 226683688 heartbeat IPC: 0.563849 cumulative IPC: 0.517393 (Simulation time: 0 hr 13 min 45 sec) 
Heartbeat CPU 0 instructions: 170000001 cycles: 246345866 heartbeat IPC: 0.508591 cumulative IPC: 0.516648 (Simulation time: 0 hr 14 min 43 sec) 
Heartbeat CPU 0 instructions: 180000001 cycles: 267651223 heartbeat IPC: 0.469366 cumulative IPC: 0.512675 (Simulation time: 0 hr 15 min 43 sec) 
*** Reached end of trace for Core: 0 Repeating trace: traces/spec2k17/srv_54.champsimtrace.xz
Heartbeat CPU 0 instructions: 190000002 cycles: 284897328 heartbeat IPC: 0.579841 cumulative IPC: 0.516953 (Simulation time: 0 hr 16 min 40 sec) 
Heartbeat CPU 0 instructions: 200000000 cycles: 303490553 heartbeat IPC: 0.53783 cumulative IPC: 0.518294 (Simulation time: 0 hr 17 min 37 sec) 
Heartbeat CPU 0 instructions: 210000000 cycles: 326448243 heartbeat IPC: 0.435584 cumulative IPC: 0.512215 (Simulation time: 0 hr 18 min 38 sec) 
*** Reached end of trace for Core: 0 Repeating trace: traces/spec2k17/srv_54.champsimtrace.xz
Heartbeat CPU 0 instructions: 220000000 cycles: 343841541 heartbeat IPC: 0.574934 cumulative IPC: 0.515523 (Simulation time: 0 hr 19 min 35 sec) 
Heartbeat CPU 0 instructions: 230000001 cycles: 360423501 heartbeat IPC: 0.603065 cumulative IPC: 0.519714 (Simulation time: 0 hr 20 min 33 sec) 
Heartbeat CPU 0 instructions: 240000002 cycles: 385287554 heartbeat IPC: 0.402187 cumulative IPC: 0.511842 (Simulation time: 0 hr 21 min 36 sec) 
*** Reached end of trace for Core: 0 Repeating trace: traces/spec2k17/srv_54.champsimtrace.xz
Heartbeat CPU 0 instructions: 250000000 cycles: 402237795 heartbeat IPC: 0.589962 cumulative IPC: 0.515254 (Simulation time: 0 hr 22 min 30 sec) 
Finished CPU 0 instructions: 200000002 cycles: 388158536 cumulative IPC: 0.515253 (Simulation time: 0 hr 22 min 30 sec) 

ChampSim completed all CPUs

Region of Interest Statistics

CPU 0 cumulative IPC: 0.515253 instructions: 200000002 cycles: 388158536
ITLB TOTAL     ACCESS:   33885675  HIT:   33286549  MISS:     599126  HIT %:    98.2319  MISS %:    1.76808   MPKI: 2.99563
ITLB LOAD TRANSLATION ACCESS:   33885675  HIT:   33286549  MISS:     599126  HIT %:    98.2319  MISS %:    1.76808   MPKI: 2.99563
ITLB PREFETCH  REQUESTED:          0  ISSUED:          0  USEFUL:          0  USELESS:          0
ITLB USEFUL LOAD PREFETCHES:          0 PREFETCH ISSUED TO LOWER LEVEL:          0  ACCURACY: -nan
ITLB TIMELY PREFETCHES:          0 LATE PREFETCHES: 0 DROPPED PREFETCHES: 0
ITLB PREFETCHES SAME FILL-ORIGIN LEVEL: 0 DIFFERENT FILL-ORIGIN LEVEL: 0
ITLB AVERAGE MISS LATENCY: 10.7024 cycles
ITLB RQ	ACCESS:   38517510	FORWARD:          0	MERGED:    4459061	TO_CACHE:   34058449

DTLB TOTAL     ACCESS:   39152337  HIT:   38527319  MISS:     625018  HIT %:    98.4036  MISS %:    1.59637   MPKI: 3.12509
DTLB LOAD TRANSLATION ACCESS:   39152337  HIT:   38527319  MISS:     625018  HIT %:    98.4036  MISS %:    1.59637   MPKI: 3.12509
DTLB PREFETCH  REQUESTED:          0  ISSUED:          0  USEFUL:          0  USELESS:          0
DTLB USEFUL LOAD PREFETCHES:          0 PREFETCH ISSUED TO LOWER LEVEL:          0  ACCURACY: -nan
DTLB TIMELY PREFETCHES:          0 LATE PREFETCHES: 0 DROPPED PREFETCHES: 0
DTLB PREFETCHES SAME FILL-ORIGIN LEVEL: 0 DIFFERENT FILL-ORIGIN LEVEL: 0
DTLB AVERAGE MISS LATENCY: 16.4607 cycles
DTLB RQ	ACCESS:   51380578	FORWARD:          0	MERGED:   12179101	TO_CACHE:   39201477

STLB TOTAL     ACCESS:    9404595  HIT:    9326010  MISS:      78585  HIT %:    99.1644  MISS %:   0.835602   MPKI: 0.392925
STLB LOAD TRANSLATION ACCESS:    1224144  HIT:    1146607  MISS:      77537  HIT %:     93.666  MISS %:    6.33398   MPKI: 0.387685
STLB TRANSLATION FROM L1D PREFETCHER ACCESS:    8180451  HIT:    8179403  MISS:       1048  HIT %:    99.9872  MISS %:   0.012811   MPKI: 0.00524
STLB PREFETCH  REQUESTED:          0  ISSUED:          0  USEFUL:        913  USELESS:        134
STLB USEFUL LOAD PREFETCHES:        913 PREFETCH ISSUED TO LOWER LEVEL:          0  ACCURACY: inf
STLB TIMELY PREFETCHES:        913 LATE PREFETCHES: 69 DROPPED PREFETCHES: 43455
STLB PREFETCHES SAME FILL-ORIGIN LEVEL: 0 DIFFERENT FILL-ORIGIN LEVEL: 0
STLB AVERAGE MISS LATENCY: 32394.1 cycles
STLB RQ	ACCESS:   11819819	FORWARD:          0	MERGED:    2366629	TO_CACHE:    9453190

STLB Hit, L1D data hit: 0
STLB Hit, L2C data hit: 0
STLB Hit, LLC data hit: 0
STLB Hit, LLC data miss: 0
STLB STLB hints to L2: 0
L1D TOTAL     ACCESS:   60979313  HIT:   58857150  MISS:    2122163  HIT %:    96.5199  MISS %:    3.48014   MPKI: 10.6108
L1D LOAD      ACCESS:   31304966  HIT:   30238658  MISS:    1066308  HIT %:    96.5938  MISS %:    3.40619   MPKI: 5.33154
L1D RFO       ACCESS:   19252603  HIT:   18758095  MISS:     494508  HIT %:    97.4315  MISS %:    2.56853   MPKI: 2.47254
L1D PREFETCH  ACCESS:   10421744  HIT:    9860397  MISS:     561347  HIT %:    94.6137  MISS %:    5.38631   MPKI: 2.80673
AGUS PREFETCH L1 MISS: 0
L1D PREFETCH  REQUESTED:   21870674  ISSUED:   21870674  USEFUL:     178262  USELESS:     382956
L1D USEFUL LOAD PREFETCHES:     178262 PREFETCH ISSUED TO LOWER LEVEL:     587237  ACCURACY: 30.3561
L1D TIMELY PREFETCHES:     178262 LATE PREFETCHES: 24093 DROPPED PREFETCHES: 66073
L1D PREFETCHES SAME FILL-ORIGIN LEVEL: 587237 DIFFERENT FILL-ORIGIN LEVEL: 0
L1D AVERAGE MISS LATENCY: 2.62655e+06 cycles
L1D RQ	ACCESS:   43793361	FORWARD:          0	MERGED:   12095588	TO_CACHE:   31380097
L1D WQ	ACCESS:   20218308	FORWARD:     320723	MERGED:     217827	TO_CACHE:   20000481
L1D PQ	ACCESS:   11274999	FORWARD:          0	MERGED:     676277	TO_CACHE:   10595675

L1D UNIQUE REGIONS ACCESSED: 0
L1D REGIONS CONFLICTS: 0
L1D Cross Page Prefetch Requests: 291047
L1D Same Page Prefetch Requests: 10983952
L1D ROI Sum of L1D PQ occupancy: 139269781
L1D PREFETCHES PUSHED FROM L2C: 0
L1I TOTAL     ACCESS:   37978585  HIT:   34695331  MISS:    3283254  HIT %:     91.355  MISS %:    8.64501   MPKI: 16.4163
L1I LOAD      ACCESS:   37978585  HIT:   34695331  MISS:    3283254  HIT %:     91.355  MISS %:    8.64501   MPKI: 16.4163
L1I PREFETCH  REQUESTED:          0  ISSUED:          0  USEFUL:          0  USELESS:          0
L1I USEFUL LOAD PREFETCHES:          0 PREFETCH ISSUED TO LOWER LEVEL:          0  ACCURACY: -nan
L1I TIMELY PREFETCHES:          0 LATE PREFETCHES: 0 DROPPED PREFETCHES: 0
L1I PREFETCHES SAME FILL-ORIGIN LEVEL: 0 DIFFERENT FILL-ORIGIN LEVEL: 0
L1I AVERAGE MISS LATENCY: 23.0243 cycles
L1I RQ	ACCESS:   60216282	FORWARD:          0	MERGED:   21698772	TO_CACHE:   38517510

BTB TOTAL     ACCESS:   31119945  HIT:   26685031  MISS:    4434914  HIT %:     85.749  MISS %:     14.251   MPKI: 22.1746
BTB BRANCH_DIRECT_JUMP	ACCESS:    3483278  HIT:    3224169  MISS:     259109
BTB BRANCH_INDIRECT	ACCESS:   12132846  HIT:   10375979  MISS:    1756867
BTB BRANCH_CONDITIONAL	ACCESS:    9258792  HIT:    8942003  MISS:     316789
BTB BRANCH_DIRECT_CALL	ACCESS:    2660044  HIT:    2167295  MISS:     492749
BTB BRANCH_INDIRECT_CALL	ACCESS:     462477  HIT:     321593  MISS:     140884
BTB BRANCH_RETURN	ACCESS:    3122508  HIT:    1653992  MISS:    1468516
BTB BRANCH_OTHER ACCESS:          0  HIT:          0  MISS:          0

L2C TOTAL     ACCESS:    6555185  HIT:    4452120  MISS:    2103065  HIT %:    67.9175  MISS %:    32.0825   MPKI: 10.5153
L2C LOAD      ACCESS:    4325456  HIT:    2946283  MISS:    1379173  HIT %:     68.115  MISS %:     31.885   MPKI: 6.89586
L2C DATA LOAD MPKI: 2.23517
L2C INSTRUCTION LOAD MPKI: 4.66069
L2C RFO       ACCESS:     492708  HIT:     198014  MISS:     294694  HIT %:    40.1889  MISS %:    59.8111   MPKI: 1.47347
L2C PREFETCH  ACCESS:     587220  HIT:     274286  MISS:     312934  HIT %:    46.7092  MISS %:    53.2908   MPKI: 1.56467
AGUS PREFETCH L1 MISS: 0
L2C DATA PREFETCH MPKI: 1.56467
L2C INSTRUCTION PREFETCH MPKI: 0
L2C WRITEBACK ACCESS:     929793  HIT:     882306  MISS:      47487  HIT %:    94.8927  MISS %:    5.10727   MPKI: 0.237435
L2C LOAD TRANSLATION ACCESS:     117219  HIT:      49973  MISS:      67246  HIT %:    42.6322  MISS %:    57.3678   MPKI: 0.33623
L2C TRANSLATION FROM L1D PREFETCHER ACCESS:     102789  HIT:     101258  MISS:       1531  HIT %:    98.5105  MISS %:    1.48946   MPKI: 0.007655
L2C PREFETCH  REQUESTED:          0  ISSUED:          0  USEFUL:      27833  USELESS:     285825
L2C USEFUL LOAD PREFETCHES:      27833 PREFETCH ISSUED TO LOWER LEVEL:     312934  ACCURACY: 8.89421
L2C TIMELY PREFETCHES:      27833 LATE PREFETCHES: 0 DROPPED PREFETCHES: 0
L2C PREFETCHES SAME FILL-ORIGIN LEVEL: 0 DIFFERENT FILL-ORIGIN LEVEL: 0
L2C AVERAGE MISS LATENCY: 60.6852 cycles
L2C RQ	ACCESS:    5038188	FORWARD:          0	MERGED:          0	TO_CACHE:    5038173
L2C WQ	ACCESS:     929794	FORWARD:         32	MERGED:          0	TO_CACHE:     929794
L2C PQ	ACCESS:     587237	FORWARD:          0	MERGED:          0	TO_CACHE:     587220

L2C Instructions Evicting Data 474159
L2C Translations Evicting Data 35407
L2C Data Evicting Data 566560
L2C Instructions Evicting Instructions 427691
L2C Translations Evicting Instructions 30702
L2C Data Evicting Instructions 453352
L2C Instructions Evicting Translations 30288
L2C Translations Evicting Translations 2668
L2C Data Evicting Translations 34751
L2C Dense regions hint from L2: 0
PSCL5 TOTAL     ACCESS:     122040  HIT:     122040  MISS:          0  HIT %:        100  MISS %:          0   MPKI: 0
PSCL5 LOAD TRANSLATION ACCESS:      77468  HIT:      77468  MISS:          0  HIT %:        100  MISS %:          0   MPKI: 0
PSCL5 TRANSLATION FROM L1D PREFETCHER ACCESS:      44572  HIT:      44572  MISS:          0  HIT %:        100  MISS %:          0   MPKI: 0
PSCL5 PREFETCH  REQUESTED:          0  ISSUED:          0  USEFUL:          0  USELESS:          0
PSCL5 USEFUL LOAD PREFETCHES:          0 PREFETCH ISSUED TO LOWER LEVEL:          0  ACCURACY: -nan
PSCL5 TIMELY PREFETCHES:          0 LATE PREFETCHES: 0 DROPPED PREFETCHES: 0
PSCL5 PREFETCHES SAME FILL-ORIGIN LEVEL: 0 DIFFERENT FILL-ORIGIN LEVEL: 0

PSCL4 TOTAL     ACCESS:     113185  HIT:     112631  MISS:        554  HIT %:    99.5105  MISS %:   0.489464   MPKI: 0.00277
PSCL4 LOAD TRANSLATION ACCESS:      75748  HIT:      75194  MISS:        554  HIT %:    99.2686  MISS %:   0.731372   MPKI: 0.00277
PSCL4 TRANSLATION FROM L1D PREFETCHER ACCESS:      37437  HIT:      37437  MISS:          0  HIT %:        100  MISS %:          0   MPKI: 0
PSCL4 PREFETCH  REQUESTED:          0  ISSUED:          0  USEFUL:          0  USELESS:          0
PSCL4 USEFUL LOAD PREFETCHES:          0 PREFETCH ISSUED TO LOWER LEVEL:          0  ACCURACY: -nan
PSCL4 TIMELY PREFETCHES:          0 LATE PREFETCHES: 0 DROPPED PREFETCHES: 0
PSCL4 PREFETCHES SAME FILL-ORIGIN LEVEL: 0 DIFFERENT FILL-ORIGIN LEVEL: 0

PSCL3 TOTAL     ACCESS:      93593  HIT:      83321  MISS:      10272  HIT %:    89.0248  MISS %:    10.9752   MPKI: 0.05136
PSCL3 LOAD TRANSLATION ACCESS:      71229  HIT:      60957  MISS:      10272  HIT %:    85.5789  MISS %:    14.4211   MPKI: 0.05136
PSCL3 TRANSLATION FROM L1D PREFETCHER ACCESS:      22364  HIT:      22364  MISS:          0  HIT %:        100  MISS %:          0   MPKI: 0
PSCL3 PREFETCH  REQUESTED:          0  ISSUED:          0  USEFUL:          0  USELESS:          0
PSCL3 USEFUL LOAD PREFETCHES:          0 PREFETCH ISSUED TO LOWER LEVEL:          0  ACCURACY: -nan
PSCL3 TIMELY PREFETCHES:          0 LATE PREFETCHES: 0 DROPPED PREFETCHES: 0
PSCL3 PREFETCHES SAME FILL-ORIGIN LEVEL: 0 DIFFERENT FILL-ORIGIN LEVEL: 0

PSCL2 TOTAL     ACCESS:      91386  HIT:      62315  MISS:      29071  HIT %:    68.1888  MISS %:    31.8112   MPKI: 0.145355
PSCL2 LOAD TRANSLATION ACCESS:      77563  HIT:      48492  MISS:      29071  HIT %:    62.5195  MISS %:    37.4805   MPKI: 0.145355
PSCL2 TRANSLATION FROM L1D PREFETCHER ACCESS:      13823  HIT:      13823  MISS:          0  HIT %:        100  MISS %:          0   MPKI: 0
PSCL2 PREFETCH  REQUESTED:          0  ISSUED:          0  USEFUL:          0  USELESS:          0
PSCL2 USEFUL LOAD PREFETCHES:          0 PREFETCH ISSUED TO LOWER LEVEL:          0  ACCURACY: -nan
PSCL2 TIMELY PREFETCHES:          0 LATE PREFETCHES: 0 DROPPED PREFETCHES: 0
PSCL2 PREFETCHES SAME FILL-ORIGIN LEVEL: 0 DIFFERENT FILL-ORIGIN LEVEL: 0

LLC TOTAL     ACCESS:    2561105  HIT:    2210584  MISS:     350521  HIT %:    86.3137  MISS %:    13.6863   MPKI: 1.7526
LLC LOAD      ACCESS:    1379166  HIT:    1254226  MISS:     124940  HIT %:    90.9409  MISS %:     9.0591   MPKI: 0.6247
LLC RFO       ACCESS:     294689  HIT:     173983  MISS:     120706  HIT %:    59.0395  MISS %:    40.9605   MPKI: 0.60353
LLC PREFETCH  ACCESS:     312933  HIT:     219864  MISS:      93069  HIT %:    70.2591  MISS %:    29.7409   MPKI: 0.465345
AGUS PREFETCH L1 MISS: 0
LLC WRITEBACK ACCESS:     505540  HIT:     503439  MISS:       2101  HIT %:    99.5844  MISS %:   0.415595   MPKI: 0.010505
LLC LOAD TRANSLATION ACCESS:      67246  HIT:      57786  MISS:       9460  HIT %:    85.9322  MISS %:    14.0678   MPKI: 0.0473
LLC TRANSLATION FROM L1D PREFETCHER ACCESS:       1531  HIT:       1286  MISS:        245  HIT %:    83.9974  MISS %:    16.0026   MPKI: 0.001225
LLC PREFETCH  REQUESTED:          0  ISSUED:          0  USEFUL:       5461  USELESS:      81989
LLC USEFUL LOAD PREFETCHES:       5461 PREFETCH ISSUED TO LOWER LEVEL:      93069  ACCURACY: 5.86769
LLC TIMELY PREFETCHES:       5461 LATE PREFETCHES: 0 DROPPED PREFETCHES: 0
LLC PREFETCHES SAME FILL-ORIGIN LEVEL: 0 DIFFERENT FILL-ORIGIN LEVEL: 0
LLC AVERAGE MISS LATENCY: 188.165 cycles
LLC RQ	ACCESS:    1742644	FORWARD:          0	MERGED:          0	TO_CACHE:    1742632
LLC WQ	ACCESS:     505540	FORWARD:         13	MERGED:          0	TO_CACHE:     505540
LLC PQ	ACCESS:     312934	FORWARD:          0	MERGED:          0	TO_CACHE:     312933

LLC Dense regions hint to LLC: 0

RAW hits: 2259730
Loads Generated: 46053091
Loads sent to L1D: 43793361
Stores Generated: 20218330
Stores sent to L1D: 20218308
Major fault: 0 Minor fault: 4930
Allocated PAGES: 4930
ucb ended
-----------------------------------------------------------------------------------------------------------------------------------------------------------------------------------------------------
Offsets elements: -9987826 -1 9986388 -9986387 9987780 -9987780 9987815 -10129737 10129737 2 -2200629505677 2448 2200619515411 1 9987816 -9987816 -2200629505670 2200619375945 10129725 -10129726 -10 -2200619490334 2200619490336 -420600 -3 10550337 -10129734 -420603 420602 -420602 420603 -52 141967 -141914 -4 141951 -141922 -2200619373468 -446 -2 2200629501937 -9986132 -141895 -22595 164491 -141916 3 10550334 -10550337 4 -420604 420604 -420605 -420601 420628 -30 10129701 -10129700 562519 -2200619517872 2200629505466 -10129509 141915 -562519 -430521 10560222 34 -33 -10560220 -10560223 9920 -9920 9918 -9923 -970889 11531113 -10560225 10560256 -10560257 10560223 572437 -572436 572436 -572438 -10560222 10560225 -10560226 10560221 -9987785 -9987783 -141907 -15 10129702 -2200629620034 2200629620035 -9987781 -141921 10129703 -10560224 10560224 -9987818 9987782 572438 9987785 562518 -141968 141970 -141971 52 141916 -141970 -420550 420550 -420548 -10129787 420554 -420552 420551 -420549 420548 141968 9987818 -9987819 -141920 -10129683 -2200619375953 2200629505670 -10129736 -10129778 10129777 10129724 -10129724 -13 -39 10128041 -10128054 141974 -141937 9 141876 -2200619475070 2200619333112 -16 36 -13946 13909 10129788 -10143663 10143699 -10143697 13908 -13907 13906 38 5 10127751 -10141703 -13906 -13901 -288225246695613800 23756984 288225246681998789 -10128071 -2200619492864 2200619492864 13 -13925 -2200619361968 2200619361968 -2200615817850 2200615817850 2200615815291 2561 -2560 15978 -26 -13392 -2559 -2200615815291 2200615817849 2200615817852 13418 -13421 13396 15 -13407 13407 -2200619375379 2200619375369 -2200619375382 2200629503697 306 -2200629504003 2200629504003 1652 35 -10130294 10130311 -2200629505675 2200619359519 10143707 2200619375373 10130297 -10130308 -2200619489762 2200619489776 -420031 10129786 -10143710 -420028 -10130303 -420030 420031 420032 -13405 13403 -420029 420056 10130273 37 -10550339 -2200618955353 2200619361980 10143486 -10550113 -2200618953301 2200619373332 -13404 -406627 420499 -468 467 468 -13871 -429951 -10560219 10560253 -31 -970888 970890 416546 -416544 416545 10143676 -10143677 10143677 -10143676 -416546 -10143673 13397 10130308 -10130307 520 -2200619490281 2200629620068 -2200629503637 2200619373849 -420551 420559 -520 -8 406624 13923 -10129786 -2200619373331 2200619373333 7 -429950 10560255 -10129788 10129791 -1995 -10127796 -13920 13922 -10143707 10143708 10129789 13399 -2200619489761 2200629620071 -10143709 10143705 -35 -10130249 -13420 13395 -13394 10127796 -2200619375901 2200629505689 2200629505682 10142270 1393 -10129789 -10143698 13910 10129754 -10129755 -430469 -10143670 -416556 10143665 -10143668 -416555 -10550304 10129787 420030 406635 10143668 -10143667 -13393 13392 406632 13916 420498 -521 -13863 13919 -10550335 -13917 13393 -516 420028 -13395 10143700 -10143699 10143666 20 10129768 -2200629505669 12 -10130297 10129776 10128561 -10128574 -13389 13426 529 -2200619332592 2200619332576 -15997 15960 -34 -10146232 10146269 -10146268 15957 -2200619341902 2200619325946 15947 -15992 15946 10128316 -10144257 -5 -288225246671854256 1465127136296 84 -82 845331073 8554 -845339626 -1465127136297 -23756984 288225246705755773 -2200629620935 2200619492344 -15969 -2200619359408 2200619359408 -2200615815290 2200615815292 6 15950 -15942 -288223781544717956 -1465150846456 -46960 1465996233040 -1465996233115 2265 857 1465994134186 -1465994137094 46820 1465150846455 82 -74 842911872 -842911872 -1465150846463 1465150846461 -1465150846462 -47035 856 43913 -46827 46827 -46959 1465150893416 845339624 -845339625 -1465150893415 1465150893418 845339622 -845339623 -1465127136306 1465127136308 -1465127136065 -121 -23757386 23757264 -23740404 23740644 -23757586 23757464 240 -23739710 23739589 -23739383 23739264 118 -119 -122 -23757190 23754065 1465127136319 -1465150893430 -845339620 -1465150875775 -23757234 -1465972475925 119 -23757112 -1465996233109 1465150893477 -1465150875590 -17818 1465150893407 -1465150876700 1465996216333 -845339631 -1465150796406 -96998 3545800 1465992687240 -1465992687207 -3545908 1465994131208 -1465990588424 1465147347563 -1465150893395 1465150893397 845339643 -845339644 14 -9 -1465150796402 1465150796401 -1465147347599 1465147347600 1465150796411 -1465147347609 1465989931064 -842583456 735932654 -735932662 -1465150893748 97362 1465150796394 -1465150890528 -2851 17823 1465886808210 -1465147347567 1465994131209 -1465990588425 1465147347566 735932663 -735932654 -1465150893379 1465886808212 -735932665 -1465886808244 79190 1465150796388 735932666 -735932663 -1465150893398 1465886826066 109406974 -109406976 -1465886826064 -293 1465996233333 -1465996233341 1465886826365 -1465886823184 -2806 2806 -3195 -1465886825990 -14 -3181 2820 3181 -2742 288225246705755767 -2200629620932 2200619492341 10130274 -10146220 2200629620069 -10130271 420038 10130298 2200619356970 10146256 10130306 521 -16471 15952 29 -15977 15964 -15970 -6053 -2200619350867 2200629503176 -2200629503622 -10128619 414000 10146220 -10130274 -10128316 -2200619375381 -1439 -2200629504243 2200629505636 -15949 15949 2200629620036 -429949 10560257 413996 -413994 413995 10146225 -10146228 -413995 420027 2200618953302 10146228 -10146227 15955 -15953 10130309 -10146257 -15946 -288223781544717978 735932670 -1465886826365 1465150893695 -1465150893845 3331 14121 -17088 17088 8310 -25311 -1465996186080 1465150846431 106 -1465150846537 1465993758335 -1465993805370 -2914 -46806 -36 1465996161249 71674 -71690 345 71345 -4961 -845334689 845267976 -845267976 845339650 -845339651 842911905 -106979229 -1465886825926 1465150893357 -1465147830328 -3063036 3063035 1465147830223 -1465150893390 1465150893392 845339648 -845339649 -1465150876393 1465886809063 46960 1465996186080 -1465994090274 -46820 -101 -1465150846435 1465150893263 842911900 3063029 1465147830222 -1465147830221 -1465147830329 -3063039 1465996224358 -1465993161318 1465993169872 -1465993169871 1465147830220 108 288223781554862408 -15965 -2200619359404 2200619359404 -2200615813432 2200615813432 15993 -288225246692564180 288225246692548187 15956 -15954 -2200615813437 2200615813437 15953 26 10128290 -2200619375362 -19 2200629505701 -12 -1427 -10130309 2200619356957 -2200619375373 2200619375362 10 -2200619489772 2200619489764 -420034 -420032 10550336 -420033 -10130272 404065 -2200619359418 -10130081 -15967 -404065 10560226 -10560253 -10146239 -413984 -10146238 10146238 -10146237 10130260 -10130275 10130277 -10146269 10146236 404064 16486 -16484 16483 -15966 16484 51 -420599 -16486 10146271 -10146270 -2200619359399 -10130255 10130288 -10129777 10130296 -10144534 16480 -511 -2200619333112 2200619333096 -10143661 10143698 -13950 10141702 -10141697 13901 -288223781549173001 -1465146423931 1465146423933 -1465146441288 16194 1465993722945 -847297839 -1465146440937 1465146440956 849792084 -849792107 47 -1465146440978 -849792062 -849792084 -1465146440956 23 1465996233017 -1465146425151 23734299 -23750095 -324 375 15745 -12939 23747235 -23750190 1465994134566 -1465970387499 1465122690835 22 8 -1465146425159 -15819 23750120 -7 1465972482927 -1465972482919 -23750113 1465146440946 849792094 -849792101 -1465146440946 -849792094 15796 23734294 1465122690856 -1465146440843 1465146440844 -16173 23750467 -23734294 -23734278 23734273 1465122690838 -1465146440933 1465146440955 23734296 23747068 1465122690842 -23 1465146440979 -18 849792079 -1465996233333 1465146441262 -1465146441250 1465921176210 -1465921173404 1465921173404 -774735336 774735332 -1465921176295 16441 1465146424531 1465886825994 -1465886823183 1465146438089 -1465146440980 1465146424517 -1465146440951 -17 -1465146441036 1465146441044 774735318 -774735318 774735321 -774735320 740385101 -1465883762897 -3063029 1465143377782 194 -1465143377977 -3063057 3063059 288225246702692736 -13929 -2200615815996 2200615815998 -2200615815998 -2561 2558 11 10128315 -2200629503697 2200619375392 -1652 1687 53 -13977 13925 21 13924 -2200619373410 2200619359466 -2200619359914 2200619351313 10150622 -10128616 -10550336 13404 406627 -2200619361980 -2200619373332 2200619359928 -572 572 -13975 11531112 10143680 -2200629620068 116431 2200619359929 13411 10560258 -1992 10143709 -10143706 13918 -13918 13398 10130310 -2200619476364 2200619476365 10143704 -2200619375882 416555 10143667 -104 104 -13967 -10129783 -13916 -568 10129769 2200619375893 -550 -10146234 -15956 -2200619325945 2200619325950 10144261 -288223781544717875 -109 288225246702692738 -2200615843272 2200615859265 -288225246692564182 288225246692548189 -2200615859231 2200615859230 -10146272 15969 31 -48 420549 10146272 -10146273 10146270 -10146271 10146237 10130289 -13952 3063036 288225246702692737 -2200615845836 2200615845838 -2200615845838 2200615843278 2560 -15979 -2200615843277 2200615845836 -2200615845835 -2200619375369 2200629505655 -2200619359520 2200629503227 -2200619489776 -8599 -2200619351315 2200629501935 -2200629505692 -2200619359928 10130307 2200619373340 -10141716 -10129754 13863 56 10129783 420553 420029 -10130296 -288225246692548205 1465147830218 110 -108 845331098 -845331096 -1465147830223 1465993169873 -1465996232908 -10128591 -2200619492344 -2200615843276 -288223781544717982 -1465150846430 -75 1465994137308 2095807 -1465996230850 43912 1465150846429 -1465150846436 1465993758334 -1465993805369 1465150893390 845339651 -1465150893391 1465150890514 -735932671 735932671 -1465150876197 1465150876198 -1465996215908 1465150876262 845339644 -845339641 24 -21 -1465150893407 -845339643 346526 42 -42 -1465887172590 1465150893409 845339631 -845339632 736279227 -1465887173035 3280 23754354 1465863415356 -1465863415478 1465127136317 -845339629 -1465150893486 1465150893495 735932650 -735932650 -735932645 -11 -1465150893408 -845339633 -1465150893410 1465150893430 845339610 -845339630 -1465150893501 1465150893502 -1465150875615 16707 1465150876723 -845339607 -1465150796469 2463352 -2560312 -1465993672715 -2560400 1465994131981 -1465991573848 -2557276 2557277 1465148333095 -1465150893418 1465150893420 845339620 -1465150796463 1465148333111 -1465150796473 1465148333121 -1465150893781 1465150893771 842653052 -842653042 -1465150890553 94096 -96947 1465921176029 -1465921158206 1465150875571 770282635 -1465921176133 2560400 -2558135 1465994131982 -1465991573849 1465148333097 -1465150890373 1465150890375 770282636 -770282625 -1465150893404 1465921158208 -770282637 -1465921158240 1465150875601 -1465150796449 1465921079088 -770282636 -1465150893422 1465921176062 75056978 -75056980 -770282643 845339621 -845339618 19 -1465150893442 845339619 -1465996233440 1465921176460 -1465921173180 1465921223932 -1465897469520 -23757166 23757166 1465897469519 -770333382 -1465150893451 1465150893433 845339607 1465150893517 770282633 -770282630 -1465150893429 -845339598 -1465150893433 1465150893452 845339588 -845339610 -1465127136179 1465127136177 -1465127136162 1465127136158 -1465127136157 -23757692 23754412 -23757292 -1465972475749 -23757189 27 1465996161233 100 -131 -845267809 845267871 -848227203 848227347 -848227347 848227141 -848227201 32 694 -702 -32 2959250 -2959226 795 -796 1201 -406 -795 -824 848227345 -845268098 -2959248 826 -826 2959252 -1465150893443 -1465996232900 -94756 94761 -94761 94755 -94755 94741 -94741 1465150987992 -1465150875599 7455 -25095 1465150893240 -1465150986585 118440 16 1465150868129 -1465150893240 25111 -25111 -1465150986582 118469 -118466 118466 -25119 -93340 1465150986580 -1465150868121 25115 -118456 118456 -25115 -1465150868123 1465150868123 -93341 118459 -118459 -25118 -1465150986581 1465150868121 -1465150875567 1465150875568 -1465150893378 1465150893443 845339597 -845339662 -1465150893453 866 -3291 235 -1465996211124 8401 1465150863086 -1465150893441 -845339599 -1465127136151 1465150893450 845339590 -845339597 -1465127136152 1465127136159 -2958434 2958434 -1465127136160 -23757167 23757167 1465127136162 -1465127136181 -23739637 23739588 69 -66 41 109 -111 1465127136224 -1465150875810 23739585 -23757230 23757256 -23757182 -375 1465996233341 -1465996230160 1465993735869 -1465993738824 1465994134198 -398496 -842845298 -1465127136194 1465969981495 -1465969981495 1465969981493 1465993735703 -842845297 -1465150893452 -845339590 -1465150877225 -13344 -2880 -1465996184630 -48485 1465994134264 -1465994088902 1465150845042 -1465150877227 32186 45363 -32185 -16224 2880 45531 1465996184629 1465994134262 -1465994088899 1465150845038 -1465150877224 32187 -45532 45536 -48277 48294 1465150845063 -1465150845063 -48323 48324 288225246705707470 -2200619359410 -2200615789288 2200615789288 -2200615789290 2200615789290 255 -255 257 -2200615789545 2200615805320 -15775 2200615805294 -24 -2200619375434 2200619375444 -2200619375431 2200629503684 -10130242 10130257 2200619356959 10146267 2200619375425 10130245 -10130256 -2200619489814 2200619489828 -420083 -10130306 -16485 15965 -15990 -2200619372890 -448 6039 10144583 -10128567 -420080 420079 10130255 -10130251 -420086 420083 -420082 420084 -16017 -404067 -420081 420108 30 10130191 2200619359420 10146046 -2200619373384 2200618953301 -51 -16483 -430003 413986 413985 -10560221 -413986 -10146236 -10146233 16009 10130256 2200619373329 -16015 10146268 -15959 16011 10130258 -2200619473804 -10130197 -16032 16006 -16004 15945 -15944 -288225246695562939 -48301 1465150893314 -1465150877222 1465150877224 -1465150845037 -48486 45364 1465150845039 -1465150893449 -845339593 -845339589 -1465150875809 -301 23757182 1465972475784 2955 -1465993736559 1465994135055 -1465994134198 1465993735702 -1465127136191 -23757331 1465993738824 23755066 -23754210 1465993735705 -845339591 -1465150877226 -2955 1465996233115 -46220 1465994135121 -1465994134264 45362 1465994137384 -1465994135119 13177 45537 -48278 48297 1465150845061 -1465150893386 48327 288225246705707468 -2200615844524 2200615844526 -2200615844526 2200615845037 16056 -16058 15571 -2200615860608 2200615860583 -25 10128211 2200619375496 -2200619375483 2200629503990 -10130190 10130207 2200619375466 -2200619489877 2200619489880 -420134 -10130254 2200619356906 -6039 -10128515 -420135 420135 -10130199 -2200619489867 2200619489867 -2200619489865 2200619489865 -420136 -16069 16068 420136 -420133 420160 10130139 404067 -2200619359420 2200618955353 10550113 -10129978 -2200619373436 -416 415 -16535 -430054 10560219 10146240 16061 10130204 -10130203 10130203 112 -16067 10146266 -10146266 16062 10130206 -10146267 128 -2200619489889 2200619473805 10146264 -10146230 16060 -288225246695611240 48304 1465150845010 -16299 1465150893523 -46221 -1465150893447 1465150893451 -845339586 -17645 226 23757305 1465972475810 -690 -2116 -23754209 -167 398496 -1465127136177 -23757356 23757358 1465969981466 -1465969981493 -23755066 1465993736561 -1465993735705 16224 1465996230160 -1465996233040 48485 1465996184630 -6 45538 -48279 48299 1465150845058 48329 288225246705707466 -2200615820070 2200615820072 -2200615820072 767 15341 -2200615836180 2200615836206 -16137 770 -769 16134 10128149 2200619375548 -2200619375535 -10130138 10130155 2200619375518 -2200619489929 2200619489919 -420187 16120 420187 -420186 420186 420188 -16121 -420185 420212 10130117 -10129926 -2200619373488 -105 105 364 -430107 16113 10130152 -10130151 10130151 164 -156 156 -16119 -157 2200619473802 16135 10130128 -10146225 16107 -16109 15944 -15945 48306 1465150845008 -2494291 -1465993735869 -1465127136167 -28 50 -23757381 23757382 1465969981442 23754210 -1465996215395 -23757233 -1465972475733 -23757284 23757233 1465969981501 -1465993722938 7190 1465969981451 -1465969981449 1465127136142 -1465127136142 -1465993738675 -842845300 842845308 -842845308 842845300 -1465127136141 -23741490 1465993722938 -1465969988639 -23750118 23757307 1465972475733 -1465972475725 39 1465127136092 -1465150893446 -1465993739050 1465994137320 -1465150890569 1465993735877 -1465993736567 1465150891259 1465150893524 -23754261 23754260 2167 -23741487 23741489 -23754262 1465993735711 7138 -23757557 1465993738675 -226 1465994137171 -1465994135055 690 167 1465969981444 -1465969981445 1465969981443 23757331 1465127136145 -1465150875802 -23739588 -23741009 -48409 48411 1465150845041 -1465150893311 -10130273 -2200629620035 10130300 -2200619356970 -10146256 -404081 -16055 2200619356920 10146222 -1393 1428 -10146258 -10146224 -2200619357377 404076 16059 -16057 103 -16059 15959 16057 420134 
Potential of Offsets elements: 28.1746 977.175 28.1746 28.1746 28.1746 28.1746 28.1746 28.1746 28.1746 1109.12 28.1746 28.1746 28.1746 937.175 28.1746 28.1746 28.1746 28.1746 28.1746 28.1746 380.175 28.1746 28.1746 28.1746 156.175 28.1746 28.1746 28.1746 28.1746 28.1746 28.1746 35.1746 28.1746 28.1746 188.175 28.1746 28.1746 28.1746 28.1746 374.175 28.1746 28.1746 28.1746 28.1746 28.1746 28.1746 288.175 28.1746 28.1746 175.175 28.1746 28.1746 28.1746 28.1746 28.1746 157.175 28.1746 28.1746 28.1746 28.1746 28.1746 28.1746 28.1746 28.1746 28.1746 28.1746 29.1746 28.1746 28.1746 28.1746 28.1746 28.1746 28.1746 28.1746 28.1746 28.1746 28.1746 28.1746 28.1746 28.1746 28.1746 28.1746 28.1746 28.1746 28.1746 28.1746 28.1746 28.1746 28.1746 28.1746 28.1746 175.175 28.1746 28.1746 28.1746 28.1746 28.1746 28.1746 28.1746 28.1746 28.1746 28.1746 28.1746 28.1746 28.1746 28.1746 28.1746 28.1746 28.1746 28.1746 28.1746 28.1746 28.1746 28.1746 28.1746 28.1746 28.1746 28.1746 28.1746 28.1746 28.1746 28.1746 28.1746 28.1746 28.1746 28.1746 28.1746 28.1746 28.1746 28.1746 28.1746 28.1746 148.175 55.1746 28.1746 28.1746 28.1746 28.1746 1066.17 28.1746 28.1746 28.1746 153.175 30.1746 28.1746 28.1746 28.1746 28.1746 28.1746 28.1746 28.1746 28.1746 28.1746 298.175 58.1746 28.1746 28.1746 28.1746 28.1746 28.1746 28.1746 28.1746 28.1746 28.1746 28.1746 162.175 28.1746 28.1746 28.1746 28.1746 28.1746 28.1746 28.1746 28.1746 28.1746 128.175 28.1746 28.1746 28.1746 28.1746 28.1746 28.1746 28.1746 28.1746 147.175 28.1746 28.1746 28.1746 28.1746 28.1746 28.1746 28.1746 28.1746 28.1746 28.1746 28.1746 28.1746 28.1746 28.1746 28.1746 28.1746 28.1746 28.1746 28.1746 28.1746 28.1746 28.1746 28.1746 28.1746 28.1746 28.1746 28.1746 28.1746 28.1746 28.1746 28.1746 28.1746 28.1746 28.1746 176.175 28.1746 28.1746 28.1746 28.1746 48.1746 67.1746 97.1746 28.1746 28.1746 28.1746 28.1746 28.1746 28.1746 28.1746 158.175 28.1746 28.1746 95.1746 28.1746 28.1746 28.1746 28.1746 28.1746 28.1746 28.1746 28.1746 28.1746 28.1746 28.1746 28.1746 28.1746 28.1746 28.1746 28.1746 28.1746 28.1746 28.1746 28.1746 28.1746 28.1746 286.175 28.1746 28.1746 28.1746 52.1746 40.1746 354.175 373.175 202.175 28.1746 28.1746 40.1746 28.1746 28.1746 28.1746 28.1746 28.1746 28.1746 28.1746 37.1746 39.1746 28.1746 28.1746 103.175 31.1746 28.1746 28.1746 28.1746 28.1746 28.1746 44.1746 30.1746 28.1746 33.1746 118.175 28.1746 28.1746 28.1746 28.1746 28.1746 28.1746 28.1746 28.1746 28.1746 28.1746 28.1746 28.1746 28.1746 28.1746 28.1746 28.1746 28.1746 28.1746 28.1746 28.1746 28.1746 28.1746 28.1746 28.1746 28.1746 28.1746 28.1746 28.1746 28.1746 28.1746 28.1746 28.1746 28.1746 938.175 28.1746 28.1746 765.175 28.1746 28.1746 28.1746 28.1746 28.1746 28.1746 28.1746 28.1746 28.1746 28.1746 28.1746 117.175 28.1746 28.1746 28.1746 28.1746 28.1746 28.1746 28.1746 28.1746 28.1746 28.1746 28.1746 710.175 28.1746 28.1746 31.1746 75.1746 28.1746 28.1746 28.1746 28.1746 31.1746 28.1746 28.1746 28.1746 28.1746 28.1746 28.1746 28.1746 28.1746 925.175 28.1746 28.1746 28.1746 28.1746 28.1746 351.175 61.1746 28.1746 28.1746 28.1746 28.1746 28.1746 28.1746 28.1746 28.1746 28.1746 28.1746 28.1746 28.1746 28.1746 28.1746 52.1746 28.1746 28.1746 58.1746 28.1746 28.1746 64.1746 28.1746 28.1746 28.1746 28.1746 28.1746 28.1746 28.1746 28.1746 51.1746 28.1746 28.1746 28.1746 44.1746 41.1746 30.1746 28.1746 28.1746 28.1746 28.1746 28.1746 28.1746 48.1746 31.1746 28.1746 28.1746 28.1746 28.1746 28.1746 28.1746 28.1746 28.1746 28.1746 28.1746 70.1746 28.1746 28.1746 28.1746 28.1746 28.1746 28.1746 28.1746 28.1746 28.1746 28.1746 28.1746 28.1746 28.1746 28.1746 28.1746 28.1746 28.1746 28.1746 28.1746 28.1746 100.175 279.175 28.1746 28.1746 28.1746 28.1746 28.1746 28.1746 28.1746 28.1746 28.1746 28.1746 28.1746 28.1746 28.1746 28.1746 28.1746 28.1746 28.1746 28.1746 28.1746 28.1746 28.1746 28.1746 28.1746 28.1746 28.1746 28.1746 28.1746 28.1746 28.1746 28.1746 28.1746 28.1746 28.1746 28.1746 28.1746 28.1746 28.1746 28.1746 28.1746 28.1746 28.1746 28.1746 28.1746 28.1746 28.1746 192.175 28.1746 28.1746 29.1746 28.1746 28.1746 28.1746 28.1746 28.1746 28.1746 28.1746 28.1746 28.1746 28.1746 28.1746 28.1746 28.1746 28.1746 28.1746 28.1746 149.175 28.1746 28.1746 28.1746 28.1746 28.1746 28.1746 28.1746 28.1746 28.1746 28.1746 28.1746 28.1746 28.1746 28.1746 28.1746 28.1746 28.1746 28.1746 28.1746 28.1746 28.1746 28.1746 28.1746 28.1746 28.1746 28.1746 28.1746 28.1746 28.1746 28.1746 28.1746 28.1746 28.1746 28.1746 28.1746 28.1746 28.1746 28.1746 28.1746 28.1746 28.1746 28.1746 28.1746 28.1746 28.1746 28.1746 28.1746 28.1746 28.1746 28.1746 28.1746 28.1746 28.1746 28.1746 28.1746 28.1746 28.1746 28.1746 28.1746 28.1746 28.1746 28.1746 28.1746 28.1746 28.1746 28.1746 28.1746 28.1746 28.1746 28.1746 28.1746 28.1746 28.1746 28.1746 28.1746 28.1746 28.1746 28.1746 28.1746 28.1746 28.1746 28.1746 28.1746 28.1746 28.1746 163.175 28.1746 28.1746 28.1746 28.1746 28.1746 28.1746 28.1746 28.1746 28.1746 28.1746 28.1746 28.1746 28.1746 103.175 28.1746 28.1746 28.1746 28.1746 28.1746 28.1746 28.1746 28.1746 28.1746 28.1746 28.1746 28.1746 28.1746 28.1746 146.175 28.1746 28.1746 28.1746 28.1746 923.652 28.1746 28.1746 28.1746 28.1746 28.1746 28.1746 28.1746 28.1746 28.1746 28.1746 28.1746 28.1746 28.1746 28.1746 28.1746 28.1746 28.1746 28.1746 28.1746 28.1746 28.1746 28.1746 28.1746 28.1746 28.1746 28.1746 28.1746 28.1746 28.1746 28.1746 28.1746 28.1746 28.1746 28.1746 28.1746 28.1746 114.175 28.1746 28.1746 28.1746 28.1746 28.1746 28.1746 28.1746 28.1746 28.1746 28.1746 28.1746 28.1746 28.1746 28.1746 28.1746 28.1746 28.1746 28.1746 28.1746 28.1746 28.1746 28.1746 28.1746 28.1746 28.1746 42.1746 28.1746 28.1746 28.1746 28.1746 28.1746 50.1746 28.1746 28.1746 28.1746 28.1746 337.175 28.1746 28.1746 28.1746 28.1746 28.1746 46.1746 28.1746 28.1746 28.1746 28.1746 28.1746 28.1746 28.1746 28.1746 103.175 28.1746 28.1746 28.1746 28.1746 28.1746 28.1746 28.1746 28.1746 28.1746 28.1746 28.1746 28.1746 28.1746 28.1746 28.1746 28.1746 28.1746 28.1746 28.1746 28.1746 28.1746 28.1746 28.1746 28.1746 28.1746 28.1746 28.1746 28.1746 85.1746 28.1746 28.1746 28.1746 28.1746 28.1746 28.1746 28.1746 28.1746 28.1746 28.1746 28.1746 28.1746 28.1746 28.1746 28.1746 28.1746 28.1746 28.1746 28.1746 28.1746 138.175 28.1746 28.1746 28.1746 28.1746 28.1746 28.1746 28.1746 28.1746 28.1746 28.1746 28.1746 28.1746 28.1746 28.1746 28.1746 28.1746 28.1746 28.1746 28.1746 28.1746 28.1746 530.175 28.1746 28.1746 28.1746 28.1746 28.1746 28.1746 28.1746 28.1746 28.1746 28.1746 28.1746 28.1746 28.1746 28.1746 28.1746 28.1746 28.1746 28.1746 28.1746 28.1746 28.1746 28.1746 28.1746 28.1746 28.1746 28.1746 28.1746 28.1746 28.1746 28.1746 28.1746 28.1746 28.1746 28.1746 28.1746 28.1746 28.1746 28.1746 28.1746 28.1746 28.1746 28.1746 28.1746 28.1746 28.1746 78.1746 70.1746 28.1746 28.1746 28.1746 28.1746 28.1746 28.1746 28.1746 28.1746 28.1746 28.1746 28.1746 28.1746 28.1746 60.1746 28.1746 28.1746 28.1746 28.1746 28.1746 28.1746 28.1746 28.1746 28.1746 92.1746 30.1746 28.1746 28.1746 28.1746 28.1746 28.1746 28.1746 28.1746 28.1746 28.1746 28.1746 28.1746 28.1746 28.1746 28.1746 28.1746 28.1746 28.1746 28.1746 28.1746 28.1746 28.1746 28.1746 28.1746 28.1746 28.1746 28.1746 28.1746 28.1746 28.1746 28.1746 28.1746 28.1746 28.1746 28.1746 101.175 28.1746 28.1746 28.1746 28.1746 28.1746 28.1746 83.1746 64.1746 28.1746 28.1746 28.1746 28.1746 47.1746 28.1746 28.1746 28.1746 28.1746 28.1746 154.175 28.1746 28.1746 52.1746 28.1746 28.1746 28.1746 28.1746 28.1746 28.1746 28.1746 28.1746 28.1746 28.1746 28.1746 28.1746 28.1746 28.1746 28.1746 28.1746 28.1746 111.175 78.1746 28.1746 28.1746 28.1746 70.1746 144.175 28.1746 28.1746 28.1746 28.1746 28.1746 28.1746 28.1746 28.1746 28.1746 28.1746 28.1746 28.1746 28.1746 28.1746 28.1746 28.1746 28.1746 401.175 28.1746 28.1746 28.1746 28.1746 28.1746 28.1746 28.1746 28.1746 28.1746 28.1746 28.1746 28.1746 28.1746 28.1746 28.1746 28.1746 28.1746 28.1746 28.1746 28.1746 28.1746 28.1746 28.1746 28.1746 28.1746 28.1746 28.1746 28.1746 28.1746 28.1746 28.1746 28.1746 28.1746 28.1746 28.1746 28.1746 28.1746 28.1746 28.1746 28.1746 28.1746 28.1746 28.1746 28.1746 28.1746 28.1746 28.1746 28.1746 28.1746 28.1746 28.1746 28.1746 28.1746 28.1746 28.1746 28.1746 28.1746 28.1746 28.1746 28.1746 28.1746 28.1746 28.1746 28.1746 28.1746 63.1746 28.1746 28.1746 120.175 28.1746 28.1746 28.1746 28.1746 28.1746 28.1746 28.1746 28.1746 28.1746 28.1746 28.1746 28.1746 28.1746 28.1746 28.1746 28.1746 28.1746 28.1746 28.1746 112.175 37.1746 42.1746 28.1746 28.1746 28.1746 28.1746 28.1746 28.1746 28.1746 28.1746 51.1746 28.1746 28.1746 30.1746 28.1746 28.1746 28.1746 28.1746 28.1746 28.1746 28.1746 521.175 28.1746 28.1746 96.1746 28.1746 28.1746 28.1746 28.1746 28.1746 28.1746 28.1746 28.1746 28.1746 28.1746 28.1746 28.1746 28.1746 28.1746 28.1746 28.1746 28.1746 28.1746 28.1746 28.1746 28.1746 28.1746 28.1746 28.1746 28.1746 28.1746 28.1746 28.1746 28.1746 28.1746 96.1746 28.1746 28.1746 28.1746 28.1746 28.1746 28.1746 28.1746 28.1746 28.1746 28.1746 28.1746 28.1746 28.1746 28.1746 28.1746 28.1746 28.1746 28.1746 28.1746 28.1746 28.1746 28.1746 28.1746 28.1746 28.1746 28.1746 28.1746 28.1746 28.1746 28.1746 28.1746 28.1746 28.1746 28.1746 28.1746 28.1746 28.1746 28.1746 28.1746 28.1746 28.1746 28.1746 28.1746 28.1746 28.1746 28.1746 28.1746 28.1746 28.1746 28.1746 28.1746 28.1746 28.1746 28.1746 30.1746 74.1746 28.1746 28.1746 38.1746 28.1746 28.1746 28.1746 28.1746 28.1746 28.1746 30.1746 128.175 28.1746 28.1746 28.1746 28.1746 28.1746 28.1746 28.1746 28.1746 28.1746 28.1746 28.1746 28.1746 28.1746 28.1746 28.1746 28.1746 28.1746 28.1746 28.1746 28.1746 28.1746 28.1746 28.1746 28.1746 28.1746 28.1746 28.1746 124.175 28.1746 28.1746 28.1746 28.1746 28.1746 28.1746 28.1746 28.1746 28.1746 28.1746 28.1746 28.1746 28.1746 28.1746 28.1746 28.1746 28.1746 28.1746 28.1746 28.1746 28.1746 31.1746 29.1746 28.1746 28.1746 28.1746 28.1746 28.1746 38.1746 28.1746 28.1746 28.1746 28.1746 28.1746 28.1746 28.1746 28.1746 28.1746 28.1746 28.1746 28.1746 28.1746 28.1746 28.1746 28.1746 28.1746 28.1746 28.1746 28.1746 28.1746 28.1746 28.1746 28.1746 28.1746 28.1746 28.1746 28.1746 28.1746 28.1746 28.1746 28.1746 28.1746 28.1746 28.1746 180.175 28.1746 28.1746 28.1746 28.1746 28.1746 67.1746 28.1746 28.1746 28.1746 73.1746 155.175 28.1746 28.1746 28.1746 28.1746 28.1746 28.1746 28.1746 28.1746 28.1746 28.1746 28.1746 28.1746 28.1746 28.1746 28.1746 28.1746 28.1746 28.1746 28.1746 28.1746 28.1746 28.1746 28.1746 28.1746 28.1746 28.1746 28.1746 28.1746 28.1746 28.1746 28.1746 28.1746 28.1746 28.1746 79.1746 28.1746 28.1746 28.1746 28.1746 28.1746 28.1746 28.1746 28.1746 28.1746 28.1746 28.1746 28.1746 94.1746 121.175 28.1746 28.1746 28.1746 52.1746 28.1746 28.1746 28.1746 28.1746 28.1746 28.1746 28.1746 28.1746 28.1746 28.1746 28.1746 28.1746 28.1746 28.1746 28.1746 28.1746 28.1746 28.1746 28.1746 146.175 28.1746 28.1746 28.1746 30.1746 28.1746 28.1746 28.1746 28.1746 28.1746 28.1746 28.1746 28.1746 28.1746 28.1746 28.1746 28.1746 28.1746 28.1746 28.1746 28.1746 28.1746 28.1746 28.1746 28.1746 28.1746 28.1746 28.1746 28.1746 28.1746 28.1746 28.1746 28.1746 28.1746 28.1746 28.1746 47.1746 28.1746 28.1746 28.1746 28.1746 28.1746 28.1746 28.1746 28.1746 33.1746 28.1746 28.1746 28.1746 28.1746 28.1746 28.1746 28.1746 28.1746 28.1746 28.1746 28.1746 28.1746 28.1746 28.1746 28.1746 28.1746 28.1746 28.1746 28.1746 28.1746 28.1746 28.1746 941.175 28.1746 28.1746 58.1746 52.1746 28.1746 98.1746 28.1746 28.1746 28.1746 28.1746 28.1746 28.1746 28.1746 28.1746 28.1746 28.1746 244.175 128.175 28.1746 28.1746 28.1746 28.1746 28.1746 28.1746 28.1746 28.1746 28.1746 28.1746 28.1746 28.1746 28.1746 28.1746 28.1746 28.1746 28.1746 28.1746 28.1746 28.1746 28.1746 28.1746 28.1746 28.1746 28.1746 28.1746 28.1746 28.1746 28.1746 28.1746 28.1746 28.1746 28.1746 28.1746 28.1746 28.1746 28.1746 28.1746 28.1746 28.1746 28.1746 28.1746 28.1746 28.1746 28.1746 28.1746 28.1746 28.1746 28.1746 28.1746 28.1746 28.1746 28.1746 28.1746 28.1746 28.1746 28.1746 28.1746 28.1746 28.1746 28.1746 28.1746 28.1746 28.1746 28.1746 28.1746 621.175 28.1746 28.1746 28.1746 28.1746 28.1746 28.1746 28.1746 28.1746 28.1746 28.1746 28.1746 28.1746 28.1746 28.1746 28.1746 28.1746 28.1746 28.1746 28.1746 28.1746 28.1746 28.1746 28.1746 28.1746 28.1746 28.1746 28.1746 28.1746 28.1746 28.1746 28.1746 28.1746 28.1746 28.1746 28.1746 28.1746 28.1746 28.1746 28.1746 28.1746 28.1746 28.1746 28.1746 28.1746 28.1746 28.1746 28.1746 28.1746 28.1746 28.1746 30.1746 28.1746 28.1746 163.175 28.1746 28.1746 28.1746 28.1746 28.1746 28.1746 28.1746 33.1746 28.1746 28.1746 28.1746 28.1746 28.1746 391.175 36.1746 30.1746 28.1746 28.1746 86.1746 28.1746 30.1746 111.175 28.1746 28.1746 28.1746 28.1746 28.1746 28.1746 28.1746 28.1746 74.1746 79.1746 28.1746 28.1746 28.1746 
rewards of Offsets elements: 0 949 0 0 0 0 0 0 0 1109 0 0 0 909 0 0 0 0 0 0 352 0 0 0 128 0 0 0 0 0 0 7 0 0 160 0 0 0 0 346 0 0 0 0 0 0 260 0 0 147 0 0 0 0 0 129 0 0 0 0 0 0 0 0 0 0 1 0 0 0 0 0 0 0 0 0 0 0 0 0 0 0 0 0 0 0 0 0 0 0 0 147 0 0 0 0 0 0 0 0 0 0 0 0 0 0 0 0 0 0 0 0 0 0 0 0 0 0 0 0 0 0 0 0 0 0 0 0 0 0 0 0 120 27 0 0 0 0 1038 0 0 0 125 2 0 0 0 0 0 0 0 0 0 270 30 0 0 0 0 0 0 0 0 0 0 134 0 0 0 0 0 0 0 0 0 100 0 0 0 0 0 0 0 0 119 0 0 0 0 0 0 0 0 0 0 0 0 0 0 0 0 0 0 0 0 0 0 0 0 0 0 0 0 0 0 0 0 0 0 148 0 0 0 0 20 39 69 0 0 0 0 0 0 0 130 0 0 67 0 0 0 0 0 0 0 0 0 0 0 0 0 0 0 0 0 0 0 0 0 0 258 0 0 0 24 12 326 345 174 0 0 12 0 0 0 0 0 0 0 9 11 0 0 75 3 0 0 0 0 0 16 2 0 5 90 0 0 0 0 0 0 0 0 0 0 0 0 0 0 0 0 0 0 0 0 0 0 0 0 0 0 0 0 0 0 0 0 0 910 0 0 737 0 0 0 0 0 0 0 0 0 0 0 89 0 0 0 0 0 0 0 0 0 0 0 682 0 0 3 47 0 0 0 0 3 0 0 0 0 0 0 0 0 897 0 0 0 0 0 323 33 0 0 0 0 0 0 0 0 0 0 0 0 0 0 24 0 0 30 0 0 36 0 0 0 0 0 0 0 0 23 0 0 0 16 13 2 0 0 0 0 0 0 20 3 0 0 0 0 0 0 0 0 0 0 42 0 0 0 0 0 0 0 0 0 0 0 0 0 0 0 0 0 0 0 0 72 251 0 0 0 0 0 0 0 0 0 0 0 0 0 0 0 0 0 0 0 0 0 0 0 0 0 0 0 0 0 0 0 0 0 0 0 0 0 0 0 0 0 0 0 0 0 164 0 0 1 0 0 0 0 0 0 0 0 0 0 0 0 0 0 0 0 121 0 0 0 0 0 0 0 0 0 0 0 0 0 0 0 0 0 0 0 0 0 0 0 0 0 0 0 0 0 0 0 0 0 0 0 0 0 0 0 0 0 0 0 0 0 0 0 0 0 0 0 0 0 0 0 0 0 0 0 0 0 0 0 0 0 0 0 0 0 0 0 0 0 0 0 0 0 0 0 0 0 0 0 0 0 135 0 0 0 0 0 0 0 0 0 0 0 0 0 75 0 0 0 0 0 0 0 0 0 0 0 0 0 0 118 0 0 0 0 922 0 0 0 0 0 0 0 0 0 0 0 0 0 0 0 0 0 0 0 0 0 0 0 0 0 0 0 0 0 0 0 0 0 0 0 0 86 0 0 0 0 0 0 0 0 0 0 0 0 0 0 0 0 0 0 0 0 0 0 0 0 0 14 0 0 0 0 0 22 0 0 0 0 309 0 0 0 0 0 18 0 0 0 0 0 0 0 0 75 0 0 0 0 0 0 0 0 0 0 0 0 0 0 0 0 0 0 0 0 0 0 0 0 0 0 0 0 57 0 0 0 0 0 0 0 0 0 0 0 0 0 0 0 0 0 0 0 0 110 0 0 0 0 0 0 0 0 0 0 0 0 0 0 0 0 0 0 0 0 0 502 0 0 0 0 0 0 0 0 0 0 0 0 0 0 0 0 0 0 0 0 0 0 0 0 0 0 0 0 0 0 0 0 0 0 0 0 0 0 0 0 0 0 0 0 0 50 42 0 0 0 0 0 0 0 0 0 0 0 0 0 32 0 0 0 0 0 0 0 0 0 64 2 0 0 0 0 0 0 0 0 0 0 0 0 0 0 0 0 0 0 0 0 0 0 0 0 0 0 0 0 0 0 0 0 0 0 73 0 0 0 0 0 0 55 36 0 0 0 0 19 0 0 0 0 0 126 0 0 24 0 0 0 0 0 0 0 0 0 0 0 0 0 0 0 0 0 83 50 0 0 0 42 116 0 0 0 0 0 0 0 0 0 0 0 0 0 0 0 0 0 373 0 0 0 0 0 0 0 0 0 0 0 0 0 0 0 0 0 0 0 0 0 0 0 0 0 0 0 0 0 0 0 0 0 0 0 0 0 0 0 0 0 0 0 0 0 0 0 0 0 0 0 0 0 0 0 0 0 0 0 0 0 0 0 0 0 35 0 0 92 0 0 0 0 0 0 0 0 0 0 0 0 0 0 0 0 0 0 0 84 9 14 0 0 0 0 0 0 0 0 23 0 0 2 0 0 0 0 0 0 0 493 0 0 68 0 0 0 0 0 0 0 0 0 0 0 0 0 0 0 0 0 0 0 0 0 0 0 0 0 0 0 0 0 0 68 0 0 0 0 0 0 0 0 0 0 0 0 0 0 0 0 0 0 0 0 0 0 0 0 0 0 0 0 0 0 0 0 0 0 0 0 0 0 0 0 0 0 0 0 0 0 0 0 0 0 0 0 0 0 2 46 0 0 10 0 0 0 0 0 0 2 100 0 0 0 0 0 0 0 0 0 0 0 0 0 0 0 0 0 0 0 0 0 0 0 0 0 0 0 96 0 0 0 0 0 0 0 0 0 0 0 0 0 0 0 0 0 0 0 0 0 3 1 0 0 0 0 0 10 0 0 0 0 0 0 0 0 0 0 0 0 0 0 0 0 0 0 0 0 0 0 0 0 0 0 0 0 0 0 0 0 0 0 0 152 0 0 0 0 0 39 0 0 0 45 127 0 0 0 0 0 0 0 0 0 0 0 0 0 0 0 0 0 0 0 0 0 0 0 0 0 0 0 0 0 0 0 0 0 0 51 0 0 0 0 0 0 0 0 0 0 0 0 66 93 0 0 0 24 0 0 0 0 0 0 0 0 0 0 0 0 0 0 0 0 0 0 0 118 0 0 0 2 0 0 0 0 0 0 0 0 0 0 0 0 0 0 0 0 0 0 0 0 0 0 0 0 0 0 0 0 0 0 0 19 0 0 0 0 0 0 0 0 5 0 0 0 0 0 0 0 0 0 0 0 0 0 0 0 0 0 0 0 0 0 0 913 0 0 30 24 0 70 0 0 0 0 0 0 0 0 0 0 216 100 0 0 0 0 0 0 0 0 0 0 0 0 0 0 0 0 0 0 0 0 0 0 0 0 0 0 0 0 0 0 0 0 0 0 0 0 0 0 0 0 0 0 0 0 0 0 0 0 0 0 0 0 0 0 0 0 0 0 0 0 0 0 0 0 0 0 593 0 0 0 0 0 0 0 0 0 0 0 0 0 0 0 0 0 0 0 0 0 0 0 0 0 0 0 0 0 0 0 0 0 0 0 0 0 0 0 0 0 0 0 0 0 0 0 0 0 0 2 0 0 135 0 0 0 0 0 0 0 5 0 0 0 0 0 363 8 2 0 0 58 0 2 83 0 0 0 0 0 0 0 0 46 51 0 0 0 Printing Sanity3
offset_index value1607
offset list size1607
reward size1607
potential size1607
-----------------------------------------------------------------------------------------------------------------------------------------------------------------------------------------------------

DRAM Statistics
 CHANNEL 0
 RQ ROW_BUFFER_HIT:      82495  ROW_BUFFER_MISS:     265921
 DBUS_CONGESTED:        202
 WQ ROW_BUFFER_HIT:      31785  ROW_BUFFER_MISS:     180791  FULL:          0

 AVG_CONGESTED_CYCLE: 4
 All warmup complete: 2
Channel 0 Bank busy for read cycles: 0
Channel 0 Bank busy for write cycles: 0
Channel 0
Rank 0
0banks busy for read cycles: 340114864
0banks busy for write cycles: 87783
1banks busy for read cycles: 21088519
1banks busy for write cycles: 12142276
2banks busy for read cycles: 4583064
2banks busy for write cycles: 3310362
3banks busy for read cycles: 1393156
3banks busy for write cycles: 1393806
4banks busy for read cycles: 370835
4banks busy for write cycles: 685144
5banks busy for read cycles: 155048
5banks busy for write cycles: 367778
6banks busy for read cycles: 129921
6banks busy for write cycles: 218201
7banks busy for read cycles: 172688
7banks busy for write cycles: 204649
8banks busy for read cycles: 696805
8banks busy for write cycles: 1043638

CPU 0 Branch Prediction Accuracy: 99.6389% MPKI: 0.649475 Average ROB Occupancy at Mispredict: 28.9517
Branch types
NOT_BRANCH: 164024582 82.0123%
BRANCH_DIRECT_JUMP: 3483278 1.74164%
BRANCH_INDIRECT: 12132846 6.06642%
BRANCH_CONDITIONAL: 14114305 7.05715%
BRANCH_DIRECT_CALL: 2660044 1.33002%
BRANCH_INDIRECT_CALL: 462477 0.231238%
BRANCH_RETURN: 3122508 1.56125%
BRANCH_OTHER: 0 0%

DRAM PAGES: 1048576
Allocated PAGES: 4930
