
*** ChampSim Multicore Out-of-Order Simulator ***

Warmup Instructions: 50000000
Simulation Instructions: 200000000
Number of CPUs: 1
LLC sets: 2048
LLC ways: 16
Off-chip DRAM Size: 4096 MB Channels: 1 Width: 64-bit Data Rate: 6400 MT/s
CPU 0 runs traces/spec2k17/srv_13.champsimtrace.xz
.xz
BTB has LRU replacement policy
ITLB has LRU replacement policy
DTLB has LRU replacement policy
STLB has LRU replacement policy
L1I has LRU replacement policy
L1D has LRU replacement policy
Initialize SRRIP state for L2C
Initialize DRRIP state for LLC
Heartbeat CPU 0 instructions: 10000002 cycles: 2807126 heartbeat IPC: 3.56236 cumulative IPC: 3.56236 (Simulation time: 0 hr 0 min 37 sec) 
Heartbeat CPU 0 instructions: 20000000 cycles: 5611176 heartbeat IPC: 3.56627 cumulative IPC: 3.56432 (Simulation time: 0 hr 1 min 14 sec) 
Heartbeat CPU 0 instructions: 30000003 cycles: 8417597 heartbeat IPC: 3.56326 cumulative IPC: 3.56396 (Simulation time: 0 hr 1 min 50 sec) 
*** Reached end of trace for Core: 0 Repeating trace: traces/spec2k17/srv_13.champsimtrace.xz
Heartbeat CPU 0 instructions: 40000001 cycles: 11215920 heartbeat IPC: 3.57357 cumulative IPC: 3.56636 (Simulation time: 0 hr 2 min 26 sec) 
Heartbeat CPU 0 instructions: 50000003 cycles: 14020951 heartbeat IPC: 3.56502 cumulative IPC: 3.56609 (Simulation time: 0 hr 3 min 3 sec) 

Warmup complete CPU 0 instructions: 50000003 cycles: 14020951 (Simulation time: 0 hr 3 min 3 sec) 

Offsets elements: 
Potential of Offsets elements: 
rewards of Offsets elements: 
Printing Sanity1
offset list size1948
Offsets elements: 
Potential of Offsets elements: 
rewards of Offsets elements: 0 420 992 132 24 0 0 1625 0 793 1274 1004 29 0 2 0 0 0 1838 1634 411 118 1131 26 0 0 80 15 364 4 96 0 0 0 4 0 0 0 0 0 0 1 0 1 0 0 0 0 0 0 0 0 0 0 0 0 0 0 0 0 0 0 0 108 0 0 0 0 0 0 0 0 0 0 138 33 0 0 152 0 0 0 0 1 0 0 0 0 3 640 0 49 4 0 0 0 12 8 37 0 0 0 0 0 0 0 0 0 0 0 0 0 0 0 0 0 0 0 0 0 0 0 0 0 0 0 0 0 0 0 0 123 121 0 0 0 0 0 0 0 0 0 0 0 0 0 0 0 0 0 0 0 0 0 0 0 0 0 0 0 0 2286 153 0 0 0 0 92 0 0 0 0 0 0 0 0 0 0 0 0 0 0 0 20 0 0 0 0 0 0 0 0 0 0 0 0 2 0 0 0 0 0 0 0 0 0 0 0 0 0 0 515 627 0 0 0 0 0 0 0 0 0 0 0 0 0 0 0 0 0 0 0 0 0 229 0 0 0 0 0 0 0 0 0 0 4 1 0 164 0 0 0 0 98 447 302 157 0 0 0 0 19 0 0 0 0 0 0 0 0 0 0 0 0 0 0 0 0 0 0 0 0 1425 0 0 0 0 0 0 0 0 0 0 30 0 0 0 0 0 0 0 0 0 3 0 423 0 0 0 0 0 0 0 0 0 0 0 0 0 0 0 0 0 4 0 0 0 0 0 12 0 0 0 89 0 0 0 0 0 0 0 0 0 1 0 492 82 0 0 0 0 0 112 8 27 0 0 956 75 0 0 0 0 0 0 0 0 0 0 0 0 1040 0 4 0 0 0 0 0 6 35 0 10 0 0 0 0 13 0 0 0 0 120 0 0 0 0 0 0 0 0 0 1 0 0 0 0 41 34 4 0 0 0 0 0 0 16 0 0 0 0 0 2 0 35 142 0 0 0 0 78 0 0 0 0 0 0 0 52 0 0 0 52 0 0 0 0 0 0 0 0 0 0 0 80 192 240 78 0 0 0 0 0 0 104 0 0 0 0 0 0 0 0 0 0 0 0 1 781 0 0 0 0 0 0 0 0 0 0 0 0 0 0 0 0 0 0 0 0 0 34 32 525 42 0 0 0 0 12 86 116 0 0 0 0 0 0 0 0 0 0 0 462 0 0 0 0 0 0 0 0 0 0 0 146 1 0 0 0 0 0 0 0 0 0 0 0 0 0 244 0 0 0 235 0 0 0 0 0 0 0 0 0 0 0 0 0 38 0 0 12 0 0 0 0 0 0 0 0 0 0 0 0 0 0 478 9 0 0 0 0 0 0 0 0 0 0 4 0 0 0 0 0 0 0 0 0 0 0 0 0 0 0 0 0 0 0 0 0 0 0 0 0 0 0 0 0 0 0 0 0 0 0 0 0 0 0 0 0 0 0 0 0 0 8 0 30 0 0 0 0 0 0 0 4 22 0 0 0 35 0 0 18 0 0 0 0 212 0 0 0 0 0 0 0 0 0 0 0 0 0 0 0 0 0 0 0 0 0 0 0 0 0 0 0 0 0 9 0 0 0 0 0 0 0 0 0 0 0 0 0 0 0 0 0 0 0 0 0 0 0 0 0 0 0 0 0 0 0 0 0 0 0 0 0 0 0 0 0 0 0 0 0 0 0 0 0 0 0 27 0 0 0 0 0 0 0 0 0 0 0 0 0 0 0 0 0 40 144 0 376 0 318 52 0 0 312 45 0 0 0 0 0 0 582 0 0 0 0 0 0 0 0 0 0 0 0 28 0 20 27 0 0 0 0 0 0 0 8 1 0 0 0 45 12 0 0 0 0 0 6 0 0 106 0 58 0 10 43 0 0 0 0 0 0 0 0 0 0 0 0 0 2 0 0 0 0 0 55 0 0 3 0 52 0 0 0 0 0 0 72 52 0 0 0 0 0 0 0 0 0 0 0 0 0 0 0 0 0 0 0 0 0 0 0 0 0 0 0 0 0 0 0 0 0 0 0 0 0 0 0 0 0 0 0 144 105 224 29 3 0 0 0 0 0 0 0 0 0 14 0 0 99 332 0 0 0 6 16 0 2 0 0 0 0 0 0 0 0 0 0 0 6 0 0 0 0 0 0 0 0 0 0 0 0 0 0 0 0 0 0 0 0 0 0 0 132 0 0 44 4 0 0 0 0 30 2 76 0 0 0 0 1051 0 0 4 0 0 0 0 0 0 0 0 0 0 0 0 0 0 0 42 0 0 0 0 0 0 0 0 0 0 0 0 0 0 0 0 0 0 0 4 0 0 0 0 0 3 0 0 0 0 0 0 0 0 0 0 0 0 0 56 0 0 0 0 0 0 0 0 0 0 0 0 0 0 0 0 0 0 0 0 0 0 0 0 0 0 0 0 0 0 384 102 4 0 0 0 0 0 0 0 0 0 0 0 0 0 0 0 0 0 0 0 0 0 0 0 0 0 0 0 0 0 5 0 0 0 22 8 0 0 80 336 0 0 0 0 0 0 3 0 0 38 0 0 0 0 0 18 11 0 0 0 0 0 0 0 0 0 33 0 0 0 0 0 0 0 0 0 0 0 0 0 0 0 0 0 0 0 0 0 0 158 7 0 0 0 0 0 0 0 4 0 0 0 0 0 0 0 0 0 0 0 0 0 0 0 0 0 0 0 0 0 0 0 0 6 0 0 0 1 0 0 0 0 0 0 0 0 0 0 0 0 0 0 0 0 0 0 141 0 0 0 0 0 0 0 0 0 0 0 0 0 0 0 0 0 0 0 0 0 0 0 0 176 616 286 54 128 0 0 0 0 0 0 3 36 0 0 0 258 315 17 44 0 0 0 0 0 15 0 0 190 12 60 24 21 0 0 170 20 0 0 0 0 0 0 0 0 0 0 0 0 0 0 0 0 0 0 0 1 0 0 0 0 0 0 0 0 0 0 0 0 0 0 0 0 0 0 0 0 0 0 0 0 0 0 0 0 0 0 0 0 0 0 0 0 0 0 0 0 0 0 0 0 0 0 0 0 0 0 0 0 0 0 0 0 45 0 0 0 0 0 0 0 0 0 636 0 0 0 0 0 0 0 0 0 0 0 0 0 0 0 0 0 0 0 0 0 0 0 0 0 0 0 0 0 0 0 0 0 0 0 0 0 20 0 4 0 0 2 32 35 0 175 20 9 0 0 0 40 0 52 338 0 0 0 0 1 0 0 0 0 0 0 0 0 0 0 36 112 0 0 0 0 0 0 0 0 0 0 0 0 0 0 0 0 0 0 0 0 0 0 0 0 0 6 0 0 0 0 0 0 0 0 0 0 0 0 0 0 0 0 0 0 0 0 0 0 0 0 0 24 0 0 0 0 0 0 0 0 0 0 0 0 0 0 0 0 0 0 0 0 0 0 0 0 0 0 0 0 0 12 0 0 339 0 0 23 0 25 0 0 0 0 0 0 0 0 0 0 0 0 0 0 0 0 0 0 0 0 0 0 0 0 0 0 0 152 342 232 1 0 0 0 0 0 292 0 0 0 0 0 0 0 10 1 0 0 0 0 0 0 10 0 134 0 0 0 4 0 0 0 0 0 0 0 0 0 0 0 0 2 1 0 0 0 0 0 2 0 0 0 0 0 0 0 0 0 0 0 0 3 0 0 2 1 211 0 0 424 73 0 0 0 0 0 0 0 0 0 0 0 0 8 0 0 0 0 0 31 0 0 0 0 0 0 0 0 0 0 0 0 0 0 0 0 0 0 0 0 0 0 74 0 0 0 0 0 0 0 0 0 7 0 0 0 0 0 0 0 0 0 0 0 45 0 0 0 0 0 8 0 0 0 0 0 0 0 0 0 0 0 0 0 0 0 0 0 0 0 0 0 0 0 0 0 0 0 0 0 0 0 0 0 0 30 0 0 1 0 0 0 0 0 207 0 0 149 0 0 0 0 0 0 0 200 0 0 0 0 0 0 0 0 0 0 0 0 0 0 0 0 0 0 0 0 0 0 0 30 0 0 0 14 0 0 0 0 0 0 0 0 0 0 0 0 0 90 0 0 0 0 0 0 0 0 0 0 0 0 0 0 0 0 0 0 9 0 0 0 0 0 0 0 0 0 0 0 0 0 0 0 0 100 0 0 0 0 0 0 0 0 0 0 15 0 0 0 0 0 0 0 0 0 0 0 0 0 0 0 0 0 0 0 0 0 0 0 0 0 0 0 0 0 0 0 0 0 0 0 0 0 2 0 0 159 0 0 0 0 0 66 0 0 0 0 0 0 0 0 0 0 8 0 0 0 0 41 0 0 0 0 0 0 0 0 0 0 0 0 0 0 0 0 0 0 0 2 0 0 0 0 0 14 33 104 0 0 0 0 0 0 0 0 0 0 
Printing Sanity2
Heartbeat CPU 0 instructions: 60000000 cycles: 44302677 heartbeat IPC: 0.330232 cumulative IPC: 0.330232 (Simulation time: 0 hr 4 min 8 sec) 
*** Reached end of trace for Core: 0 Repeating trace: traces/spec2k17/srv_13.champsimtrace.xz
Heartbeat CPU 0 instructions: 70000001 cycles: 73478247 heartbeat IPC: 0.342753 cumulative IPC: 0.336376 (Simulation time: 0 hr 5 min 10 sec) 
Heartbeat CPU 0 instructions: 80000003 cycles: 103501661 heartbeat IPC: 0.333073 cumulative IPC: 0.335268 (Simulation time: 0 hr 6 min 15 sec) 
Heartbeat CPU 0 instructions: 90000001 cycles: 133976486 heartbeat IPC: 0.32814 cumulative IPC: 0.333457 (Simulation time: 0 hr 7 min 22 sec) 
*** Reached end of trace for Core: 0 Repeating trace: traces/spec2k17/srv_13.champsimtrace.xz
Heartbeat CPU 0 instructions: 100000000 cycles: 163393461 heartbeat IPC: 0.33994 cumulative IPC: 0.334734 (Simulation time: 0 hr 8 min 30 sec) 
Heartbeat CPU 0 instructions: 110000000 cycles: 193103151 heartbeat IPC: 0.336591 cumulative IPC: 0.335042 (Simulation time: 0 hr 9 min 37 sec) 
Heartbeat CPU 0 instructions: 120000002 cycles: 223619225 heartbeat IPC: 0.327696 cumulative IPC: 0.333972 (Simulation time: 0 hr 10 min 44 sec) 
*** Reached end of trace for Core: 0 Repeating trace: traces/spec2k17/srv_13.champsimtrace.xz
Heartbeat CPU 0 instructions: 130000001 cycles: 252911496 heartbeat IPC: 0.341387 cumulative IPC: 0.334881 (Simulation time: 0 hr 11 min 51 sec) 
Heartbeat CPU 0 instructions: 140000002 cycles: 282785633 heartbeat IPC: 0.334738 cumulative IPC: 0.334865 (Simulation time: 0 hr 12 min 54 sec) 
Heartbeat CPU 0 instructions: 150000002 cycles: 313121019 heartbeat IPC: 0.329648 cumulative IPC: 0.334336 (Simulation time: 0 hr 14 min 0 sec) 
*** Reached end of trace for Core: 0 Repeating trace: traces/spec2k17/srv_13.champsimtrace.xz
Heartbeat CPU 0 instructions: 160000002 cycles: 342401245 heartbeat IPC: 0.341527 cumulative IPC: 0.334977 (Simulation time: 0 hr 15 min 7 sec) 
Heartbeat CPU 0 instructions: 170000000 cycles: 372382786 heartbeat IPC: 0.333539 cumulative IPC: 0.334857 (Simulation time: 0 hr 16 min 12 sec) 
Heartbeat CPU 0 instructions: 180000003 cycles: 402664652 heartbeat IPC: 0.330231 cumulative IPC: 0.334497 (Simulation time: 0 hr 17 min 20 sec) 
*** Reached end of trace for Core: 0 Repeating trace: traces/spec2k17/srv_13.champsimtrace.xz
Heartbeat CPU 0 instructions: 190000000 cycles: 432084686 heartbeat IPC: 0.339904 cumulative IPC: 0.334877 (Simulation time: 0 hr 18 min 25 sec) 
Heartbeat CPU 0 instructions: 200000001 cycles: 461964827 heartbeat IPC: 0.33467 cumulative IPC: 0.334863 (Simulation time: 0 hr 19 min 35 sec) 
Heartbeat CPU 0 instructions: 210000001 cycles: 491977012 heartbeat IPC: 0.333198 cumulative IPC: 0.334759 (Simulation time: 0 hr 20 min 42 sec) 
*** Reached end of trace for Core: 0 Repeating trace: traces/spec2k17/srv_13.champsimtrace.xz
Heartbeat CPU 0 instructions: 220000000 cycles: 521646057 heartbeat IPC: 0.337052 cumulative IPC: 0.334893 (Simulation time: 0 hr 21 min 48 sec) 
Heartbeat CPU 0 instructions: 230000001 cycles: 551375974 heartbeat IPC: 0.336362 cumulative IPC: 0.334974 (Simulation time: 0 hr 22 min 52 sec) 
Heartbeat CPU 0 instructions: 240000000 cycles: 581410651 heartbeat IPC: 0.332948 cumulative IPC: 0.334867 (Simulation time: 0 hr 23 min 54 sec) 
*** Reached end of trace for Core: 0 Repeating trace: traces/spec2k17/srv_13.champsimtrace.xz
Heartbeat CPU 0 instructions: 250000000 cycles: 611438178 heartbeat IPC: 0.333028 cumulative IPC: 0.334774 (Simulation time: 0 hr 24 min 58 sec) 
Finished CPU 0 instructions: 200000003 cycles: 597417229 cumulative IPC: 0.334774 (Simulation time: 0 hr 24 min 58 sec) 

ChampSim completed all CPUs

Region of Interest Statistics

CPU 0 cumulative IPC: 0.334774 instructions: 200000003 cycles: 597417229
ITLB TOTAL     ACCESS:   34419136  HIT:   32581011  MISS:    1838125  HIT %:    94.6596  MISS %:    5.34042   MPKI: 9.19062
ITLB LOAD TRANSLATION ACCESS:   34419136  HIT:   32581011  MISS:    1838125  HIT %:    94.6596  MISS %:    5.34042   MPKI: 9.19062
ITLB PREFETCH  REQUESTED:          0  ISSUED:          0  USEFUL:          0  USELESS:          0
ITLB USEFUL LOAD PREFETCHES:          0 PREFETCH ISSUED TO LOWER LEVEL:          0  ACCURACY: -nan
ITLB TIMELY PREFETCHES:          0 LATE PREFETCHES: 0 DROPPED PREFETCHES: 0
ITLB PREFETCHES SAME FILL-ORIGIN LEVEL: 0 DIFFERENT FILL-ORIGIN LEVEL: 0
ITLB AVERAGE MISS LATENCY: 9.04299 cycles
ITLB RQ	ACCESS:   40221672	FORWARD:          0	MERGED:    5359526	TO_CACHE:   34862146

DTLB TOTAL     ACCESS:   45326131  HIT:   43532527  MISS:    1793604  HIT %:    96.0429  MISS %:    3.95711   MPKI: 8.96802
DTLB LOAD TRANSLATION ACCESS:   45326131  HIT:   43532527  MISS:    1793604  HIT %:    96.0429  MISS %:    3.95711   MPKI: 8.96802
DTLB PREFETCH  REQUESTED:          0  ISSUED:          0  USEFUL:          0  USELESS:          0
DTLB USEFUL LOAD PREFETCHES:          0 PREFETCH ISSUED TO LOWER LEVEL:          0  ACCURACY: -nan
DTLB TIMELY PREFETCHES:          0 LATE PREFETCHES: 0 DROPPED PREFETCHES: 0
DTLB PREFETCHES SAME FILL-ORIGIN LEVEL: 0 DIFFERENT FILL-ORIGIN LEVEL: 0
DTLB AVERAGE MISS LATENCY: 9.20039 cycles
DTLB RQ	ACCESS:   59712524	FORWARD:          0	MERGED:   14320906	TO_CACHE:   45391618

STLB TOTAL     ACCESS:   11330808  HIT:   11321337  MISS:       9471  HIT %:    99.9164  MISS %:  0.0835863   MPKI: 0.047355
STLB LOAD TRANSLATION ACCESS:    3631729  HIT:    3622374  MISS:       9355  HIT %:    99.7424  MISS %:   0.257591   MPKI: 0.046775
STLB TRANSLATION FROM L1D PREFETCHER ACCESS:    7699079  HIT:    7698963  MISS:        116  HIT %:    99.9985  MISS %: 0.00150667   MPKI: 0.00058
STLB PREFETCH  REQUESTED:          0  ISSUED:          0  USEFUL:         98  USELESS:         15
STLB USEFUL LOAD PREFETCHES:         98 PREFETCH ISSUED TO LOWER LEVEL:          0  ACCURACY: inf
STLB TIMELY PREFETCHES:         98 LATE PREFETCHES: 0 DROPPED PREFETCHES: 66493
STLB PREFETCHES SAME FILL-ORIGIN LEVEL: 0 DIFFERENT FILL-ORIGIN LEVEL: 0
STLB AVERAGE MISS LATENCY: 44.2632 cycles
STLB RQ	ACCESS:   12927814	FORWARD:          0	MERGED:    1530486	TO_CACHE:   11397328

STLB Hit, L1D data hit: 0
STLB Hit, L2C data hit: 0
STLB Hit, LLC data hit: 0
STLB Hit, LLC data miss: 0
STLB STLB hints to L2: 0
L1D TOTAL     ACCESS:   66915372  HIT:   62356659  MISS:    4558713  HIT %:    93.1873  MISS %:    6.81265   MPKI: 22.7936
L1D LOAD      ACCESS:   33441419  HIT:   30684999  MISS:    2756420  HIT %:    91.7575  MISS %:    8.24253   MPKI: 13.7821
L1D RFO       ACCESS:   24519660  HIT:   23481362  MISS:    1038298  HIT %:    95.7654  MISS %:    4.23455   MPKI: 5.19149
L1D PREFETCH  ACCESS:    8954293  HIT:    8190298  MISS:     763995  HIT %:    91.4678  MISS %:    8.53216   MPKI: 3.81997
AGUS PREFETCH L1 MISS: 0
L1D PREFETCH  REQUESTED:   18908615  ISSUED:   18908614  USEFUL:     193741  USELESS:     570162
L1D USEFUL LOAD PREFETCHES:     193741 PREFETCH ISSUED TO LOWER LEVEL:     767499  ACCURACY: 25.2432
L1D TIMELY PREFETCHES:     193741 LATE PREFETCHES: 3407 DROPPED PREFETCHES: 66519
L1D PREFETCHES SAME FILL-ORIGIN LEVEL: 767499 DIFFERENT FILL-ORIGIN LEVEL: 0
L1D AVERAGE MISS LATENCY: 193418 cycles
L1D RQ	ACCESS:   46943896	FORWARD:          0	MERGED:   13077628	TO_CACHE:   33573697
L1D WQ	ACCESS:   26311887	FORWARD:     304870	MERGED:     173060	TO_CACHE:   26138827
L1D PQ	ACCESS:    9612529	FORWARD:          0	MERGED:     304145	TO_CACHE:    9296085

L1D UNIQUE REGIONS ACCESSED: 0
L1D REGIONS CONFLICTS: 0
L1D Cross Page Prefetch Requests: 232258
L1D Same Page Prefetch Requests: 9380271
L1D ROI Sum of L1D PQ occupancy: 118769496
L1D PREFETCHES PUSHED FROM L2C: 0
L1I TOTAL     ACCESS:   38816681  HIT:   29175842  MISS:    9640839  HIT %:    75.1632  MISS %:    24.8368   MPKI: 48.2042
L1I LOAD      ACCESS:   38816681  HIT:   29175842  MISS:    9640839  HIT %:    75.1632  MISS %:    24.8368   MPKI: 48.2042
L1I PREFETCH  REQUESTED:          0  ISSUED:          0  USEFUL:          0  USELESS:          0
L1I USEFUL LOAD PREFETCHES:          0 PREFETCH ISSUED TO LOWER LEVEL:          0  ACCURACY: -nan
L1I TIMELY PREFETCHES:          0 LATE PREFETCHES: 0 DROPPED PREFETCHES: 0
L1I PREFETCHES SAME FILL-ORIGIN LEVEL: 0 DIFFERENT FILL-ORIGIN LEVEL: 0
L1I AVERAGE MISS LATENCY: 16.8577 cycles
L1I RQ	ACCESS:   57783976	FORWARD:          0	MERGED:   17562304	TO_CACHE:   40221672

BTB TOTAL     ACCESS:   30281760  HIT:   18910009  MISS:   11371751  HIT %:    62.4469  MISS %:    37.5531   MPKI: 56.8588
BTB BRANCH_DIRECT_JUMP	ACCESS:    2184471  HIT:    1385849  MISS:     798622
BTB BRANCH_INDIRECT	ACCESS:   11367631  HIT:    7108083  MISS:    4259548
BTB BRANCH_CONDITIONAL	ACCESS:    8713184  HIT:    7563917  MISS:    1149267
BTB BRANCH_DIRECT_CALL	ACCESS:    3386061  HIT:    1522950  MISS:    1863111
BTB BRANCH_INDIRECT_CALL	ACCESS:     622186  HIT:     244573  MISS:     377613
BTB BRANCH_RETURN	ACCESS:    4008227  HIT:    1084637  MISS:    2923590
BTB BRANCH_OTHER ACCESS:          0  HIT:          0  MISS:          0

L2C TOTAL     ACCESS:   16164059  HIT:   14439009  MISS:    1725050  HIT %:    89.3279  MISS %:    10.6721   MPKI: 8.62525
L2C LOAD      ACCESS:   12393765  HIT:   11075647  MISS:    1318118  HIT %:    89.3647  MISS %:    10.6353   MPKI: 6.59059
L2C DATA LOAD MPKI: 2.13992
L2C INSTRUCTION LOAD MPKI: 4.45066
L2C RFO       ACCESS:    1038197  HIT:     819205  MISS:     218992  HIT %:    78.9065  MISS %:    21.0935   MPKI: 1.09496
L2C PREFETCH  ACCESS:     767499  HIT:     636296  MISS:     131203  HIT %:    82.9051  MISS %:    17.0949   MPKI: 0.656015
AGUS PREFETCH L1 MISS: 0
L2C DATA PREFETCH MPKI: 0.656015
L2C INSTRUCTION PREFETCH MPKI: 0
L2C WRITEBACK ACCESS:    1879251  HIT:    1832343  MISS:      46908  HIT %:    97.5039  MISS %:     2.4961   MPKI: 0.23454
L2C LOAD TRANSLATION ACCESS:      10255  HIT:       3451  MISS:       6804  HIT %:    33.6519  MISS %:    66.3481   MPKI: 0.03402
L2C TRANSLATION FROM L1D PREFETCHER ACCESS:      75092  HIT:      72067  MISS:       3025  HIT %:    95.9716  MISS %:    4.02839   MPKI: 0.015125
L2C PREFETCH  REQUESTED:          0  ISSUED:          0  USEFUL:      10580  USELESS:     123197
L2C USEFUL LOAD PREFETCHES:      10580 PREFETCH ISSUED TO LOWER LEVEL:     131203  ACCURACY: 8.06384
L2C TIMELY PREFETCHES:      10580 LATE PREFETCHES: 0 DROPPED PREFETCHES: 0
L2C PREFETCHES SAME FILL-ORIGIN LEVEL: 0 DIFFERENT FILL-ORIGIN LEVEL: 0
L2C AVERAGE MISS LATENCY: 33.1241 cycles
L2C RQ	ACCESS:   13517402	FORWARD:          0	MERGED:          0	TO_CACHE:   13517311
L2C WQ	ACCESS:    1879251	FORWARD:         91	MERGED:          0	TO_CACHE:    1879251
L2C PQ	ACCESS:     767499	FORWARD:          0	MERGED:          0	TO_CACHE:     767499

L2C Instructions Evicting Data 376216
L2C Translations Evicting Data 6293
L2C Data Evicting Data 421281
L2C Instructions Evicting Instructions 510909
L2C Translations Evicting Instructions 3340
L2C Data Evicting Instructions 350501
L2C Instructions Evicting Translations 3008
L2C Translations Evicting Translations 196
L2C Data Evicting Translations 6398
L2C Dense regions hint from L2: 0
PSCL5 TOTAL     ACCESS:      75964  HIT:      75964  MISS:          0  HIT %:        100  MISS %:          0   MPKI: 0
PSCL5 LOAD TRANSLATION ACCESS:       9355  HIT:       9355  MISS:          0  HIT %:        100  MISS %:          0   MPKI: 0
PSCL5 TRANSLATION FROM L1D PREFETCHER ACCESS:      66609  HIT:      66609  MISS:          0  HIT %:        100  MISS %:          0   MPKI: 0
PSCL5 PREFETCH  REQUESTED:          0  ISSUED:          0  USEFUL:          0  USELESS:          0
PSCL5 USEFUL LOAD PREFETCHES:          0 PREFETCH ISSUED TO LOWER LEVEL:          0  ACCURACY: -nan
PSCL5 TIMELY PREFETCHES:          0 LATE PREFETCHES: 0 DROPPED PREFETCHES: 0
PSCL5 PREFETCHES SAME FILL-ORIGIN LEVEL: 0 DIFFERENT FILL-ORIGIN LEVEL: 0

PSCL4 TOTAL     ACCESS:      72708  HIT:      72677  MISS:         31  HIT %:    99.9574  MISS %:  0.0426363   MPKI: 0.000155
PSCL4 LOAD TRANSLATION ACCESS:       9068  HIT:       9037  MISS:         31  HIT %:    99.6581  MISS %:   0.341861   MPKI: 0.000155
PSCL4 TRANSLATION FROM L1D PREFETCHER ACCESS:      63640  HIT:      63640  MISS:          0  HIT %:        100  MISS %:          0   MPKI: 0
PSCL4 PREFETCH  REQUESTED:          0  ISSUED:          0  USEFUL:          0  USELESS:          0
PSCL4 USEFUL LOAD PREFETCHES:          0 PREFETCH ISSUED TO LOWER LEVEL:          0  ACCURACY: -nan
PSCL4 TIMELY PREFETCHES:          0 LATE PREFETCHES: 0 DROPPED PREFETCHES: 0
PSCL4 PREFETCHES SAME FILL-ORIGIN LEVEL: 0 DIFFERENT FILL-ORIGIN LEVEL: 0

PSCL3 TOTAL     ACCESS:      74993  HIT:      74962  MISS:         31  HIT %:    99.9587  MISS %:  0.0413372   MPKI: 0.000155
PSCL3 LOAD TRANSLATION ACCESS:       9305  HIT:       9274  MISS:         31  HIT %:    99.6668  MISS %:   0.333154   MPKI: 0.000155
PSCL3 TRANSLATION FROM L1D PREFETCHER ACCESS:      65688  HIT:      65688  MISS:          0  HIT %:        100  MISS %:          0   MPKI: 0
PSCL3 PREFETCH  REQUESTED:          0  ISSUED:          0  USEFUL:          0  USELESS:          0
PSCL3 USEFUL LOAD PREFETCHES:          0 PREFETCH ISSUED TO LOWER LEVEL:          0  ACCURACY: -nan
PSCL3 TIMELY PREFETCHES:          0 LATE PREFETCHES: 0 DROPPED PREFETCHES: 0
PSCL3 PREFETCHES SAME FILL-ORIGIN LEVEL: 0 DIFFERENT FILL-ORIGIN LEVEL: 0

PSCL2 TOTAL     ACCESS:      68159  HIT:      67319  MISS:        840  HIT %:    98.7676  MISS %:    1.23241   MPKI: 0.0042
PSCL2 LOAD TRANSLATION ACCESS:       9357  HIT:       8517  MISS:        840  HIT %:    91.0228  MISS %:    8.97724   MPKI: 0.0042
PSCL2 TRANSLATION FROM L1D PREFETCHER ACCESS:      58802  HIT:      58802  MISS:          0  HIT %:        100  MISS %:          0   MPKI: 0
PSCL2 PREFETCH  REQUESTED:          0  ISSUED:          0  USEFUL:          0  USELESS:          0
PSCL2 USEFUL LOAD PREFETCHES:          0 PREFETCH ISSUED TO LOWER LEVEL:          0  ACCURACY: -nan
PSCL2 TIMELY PREFETCHES:          0 LATE PREFETCHES: 0 DROPPED PREFETCHES: 0
PSCL2 PREFETCHES SAME FILL-ORIGIN LEVEL: 0 DIFFERENT FILL-ORIGIN LEVEL: 0

LLC TOTAL     ACCESS:    1987083  HIT:    1940910  MISS:      46173  HIT %:    97.6763  MISS %:    2.32366   MPKI: 0.230865
LLC LOAD      ACCESS:    1318118  HIT:    1296887  MISS:      21231  HIT %:    98.3893  MISS %:    1.61071   MPKI: 0.106155
LLC RFO       ACCESS:     218992  HIT:     199151  MISS:      19841  HIT %:    90.9399  MISS %:    9.06015   MPKI: 0.099205
LLC PREFETCH  ACCESS:     131202  HIT:     126381  MISS:       4821  HIT %:    96.3255  MISS %:    3.67449   MPKI: 0.024105
AGUS PREFETCH L1 MISS: 0
LLC WRITEBACK ACCESS:     308942  HIT:     308819  MISS:        123  HIT %:    99.9602  MISS %:  0.0398133   MPKI: 0.000615
LLC LOAD TRANSLATION ACCESS:       6804  HIT:       6675  MISS:        129  HIT %:    98.1041  MISS %:    1.89594   MPKI: 0.000645
LLC TRANSLATION FROM L1D PREFETCHER ACCESS:       3025  HIT:       2997  MISS:         28  HIT %:    99.0744  MISS %:    0.92562   MPKI: 0.00014
LLC PREFETCH  REQUESTED:          0  ISSUED:          0  USEFUL:        212  USELESS:       2561
LLC USEFUL LOAD PREFETCHES:        212 PREFETCH ISSUED TO LOWER LEVEL:       4821  ACCURACY: 4.39743
LLC TIMELY PREFETCHES:        212 LATE PREFETCHES: 0 DROPPED PREFETCHES: 0
LLC PREFETCHES SAME FILL-ORIGIN LEVEL: 0 DIFFERENT FILL-ORIGIN LEVEL: 0
LLC AVERAGE MISS LATENCY: 147.176 cycles
LLC RQ	ACCESS:    1546939	FORWARD:          0	MERGED:          0	TO_CACHE:    1546939
LLC WQ	ACCESS:     308942	FORWARD:          1	MERGED:          0	TO_CACHE:     308942
LLC PQ	ACCESS:     131203	FORWARD:          0	MERGED:          0	TO_CACHE:     131202

LLC Dense regions hint to LLC: 0

RAW hits: 1398469
Loads Generated: 48342365
Loads sent to L1D: 46943896
Stores Generated: 26311868
Stores sent to L1D: 26311887
Major fault: 0 Minor fault: 1910
Allocated PAGES: 1910
ucb ended
-----------------------------------------------------------------------------------------------------------------------------------------------------------------------------------------------------
Offsets elements: -1465993418837 1465995990172 -1465995990172 1465993419036 2571136 -1465995990061 21454 5 48937 -4 4 1 1265115 -1319798 -15825 1465993418833 2571339 -2571339 -1 3 -1465993418835 1465993418837 -3 2571337 1335624 1465994654548 -2571343 -1465993418829 70392 -48938 -21565 15825 1465993403003 -1465993348324 -48936 1465995968603 -1465994583300 -71249 -1133039 -45690 -156834 636 160264 -171492 171492 1465993257872 -1465993348322 -1465994718937 1465992147597 -1465993418832 -48937 48943 1312183 1465992085073 -1465993418827 1465993418828 -1465993403003 1465995974347 -2571344 -1465994718964 64417 1465992083411 -1465993419036 -21566 -1465993348318 1465995968601 -1465994656450 1465992085107 -1465992083207 1465992083207 -1465992083206 -1465992083208 -1465992147625 -1271208 20623 1465995969549 -2571136 -1465993418925 21470 48922 -70392 29999 40400 -48939 48938 -70509 1465993418829 2571343 1465993398413 1465995990061 -1465995919669 -21581 -1465993388841 1465995960184 -1465994654548 -1314055 48936 1465993348326 -1465993418591 1465995978545 -1465995820769 1177608 -1465995832156 1465995820770 -1465995820770 1465992083205 2559956 11387 -1465993418833 -2571342 -1465992083209 -1335626 -1335624 1465993403006 -1465993348326 -48935 -1465994654209 -1335716 157776 1465993260807 160 -1465993260967 1465993260808 -1465993260808 1138465 -1296488 1465993418830 -1465993418718 15714 54678 1465995919669 -1465995968607 48939 1314394 -1335963 158023 1465995832148 -1465995989925 157777 1465993260804 -1465993260805 -1138465 -158024 2571342 -1465993418581 157775 -33376 -1313442 1313442 -1146997 42800 -209294 209294 1465993220781 -1465992116584 1465992116584 1465993418835 -2571338 1465993418838 2571334 -2571337 2 8 -1465993418848 1465993418840 2571332 -2571333 22 -1465992083241 1465992083241 -1465993216279 1133038 -1318743 1465993401975 -1465992116473 -1302378 -1465994654549 -1302247 -11195 1465996001367 -2571326 -1465993418846 -70503 5740 1465993397275 -1465995919668 1465993397274 -1465993263592 1465993263595 -1465992116596 1465993430038 1465993263596 1465993403014 -1465993348338 -1465992082882 -1335720 155007 -155251 -1465993382839 1465995954172 -2571331 -1465993397271 48935 1465993348338 -1465993220792 1465993430086 1465993220791 -1465992116594 1465992116595 -1465993418842 21455 -7 7 -54685 1318083 -1333908 1465993418842 2571330 -2571330 -33717 33717 -1137914 1465993220796 -197812 -181036 1465993599645 -1465993418609 378848 1465993430091 -1465993418847 -2571312 -1465992084952 -1333670 1465993418622 -17 -1465993418843 -1465992084939 1465993418843 -1465993388732 1465995960062 -1465995968601 1465993348337 -1465993388728 1465995960058 -1465995968603 -70504 1465993418847 2571325 -2571328 2571324 -2571325 -1465993418608 1465993418621 12 -11 -13 -9 -1465992083225 -1465995972683 1318137 71248 54 -1346960 1347004 71154 1465992011967 -1465992011967 -1245915 1245915 -1465992083216 -33374 -1302249 -1465994654553 4067 1465993257881 -1465992116591 -1313441 11194 -1465994687923 209297 1104198 1465992116583 -2 -1147000 42803 1313493 -155250 198052 1465995792120 -1137569 4530 -213824 168134 10535 -1465995792119 922 -198974 -1465995830164 38044 1877 1465993218900 -1465993219855 -42428 -167292 10746 -111 1465993418827 -1465993397260 1465993397259 -1465993403001 -1465995919659 -48941 134974 1177746 -1177746 1179074 -1335620 202516 1465995787656 -1465995787656 -202516 -1465994716552 -1273617 1273617 -1273373 1273373 1465992145197 172 -1465992145369 1273372 22849 1465992122349 -1465993216304 1465993418820 2571352 -2571353 -1465993216303 1065973 -1042964 -225527 -1465995766151 427 -63231 -167198 231504 -225523 -1465995765728 -224444 1465993418815 2571357 -2571358 -1465993193291 -1111 1122 -1121 121 998 -8 -1086 -224437 -1465995996161 1465993424808 -1465993193285 1465993193286 -1465993424808 1465993424807 -1465993418818 1465993418818 2571354 -2571355 -1465993193283 -6 -1113 254575 -253450 253450 -253451 1079 -1120 -25753 25756 26873 1113 -1125 110 1465993194298 -1465993194408 254563 -254578 1465993194409 1465993193284 -1465993193284 -10 -1075 -224448 -2571354 -1465993400612 1465993400612 -1465993400664 179793 4567 -47322 -165680 11204 -718 -1465995989886 1465995931508 58386 -58033 53072 -2566392 -1465993418819 1465993418823 2571349 -2571351 1465993216308 -1465993418824 1268490 1465994721682 -1465995790263 1068581 3635 -1271874 1271873 -1272124 1465993418822 -1465993388831 1465995960182 1197986 -1268491 -2571349 -1465993418822 2571345 -1465992084537 -1345032 10740 -1465995790243 -199929 1465993418821 2571351 -1465993418820 1465993402995 -1465993348310 1465993397250 -1465994656264 1465992084916 -1465993218900 1465993218895 -1465993218895 -199691 199691 1465993218894 -1465993418823 -1465993218894 -1465993418586 1465993418824 2571348 -2571348 1465993218890 2571353 -2571347 1465993418825 2571347 -2571352 -1465993418821 -1465992084531 -156546 -2571345 1333908 1465994656264 -1465992084916 1333670 -1465992084913 1465992084914 2571350 1465992084917 -1465993418825 398 11 1465992084499 -1465993535605 117026 -117026 1465993535606 -1465995989923 1333659 409 -1465992084908 1334079 -1465993418580 1465993418580 -1465993418817 1465992084505 -1465993535608 117025 -117025 1465993535611 -1465992084919 -1465993388714 1263782 25 88 -1334405 -1465994655763 1465992084416 225527 1465995764649 -1465995765724 1075 224444 1465995765728 -2571359 -1465992084404 -1179203 1465993263622 -1465992084418 1465992084411 -1465993193287 -225533 -1465993418747 18075 1316257 -5 -1108878 -25000 24996 -1465992084411 225523 -1465995765760 -1115 109 -23982 24984 1108881 -1133878 840813 293060 -1108872 855430 -254577 1126 -24992 23874 -25756 25757 1135761 -1108882 -25004 25008 -12 -1501 1505 1108888 -1334415 1334414 -1133879 1465995789637 -1465995789645 1465993218294 -1465993218290 825994 -827682 1135566 -1135566 1465993219979 -1465993218291 1465993218291 1465995764645 -1465995789637 24988 105 -23978 -24997 -41719 882527 -1107893 267081 -200533 -41715 66717 -66717 -225535 1465993418799 2571373 -2571373 6 -1465993193270 -25001 1465993218270 -1465993259985 867708 -800998 800998 -825990 825990 -825997 24995 -1116 -25755 26881 -2571372 -1465993218269 -41712 1465993260002 -1465992392295 1465992392296 1465993218292 -1465993260003 867707 307883 1465992084413 307889 -1177790 869900 -871323 885636 1465992377983 -1465993193294 1040839 -840304 840312 -884213 1465993262191 -1465993262190 1177781 -99 -1177682 1177682 884212 1465992377978 -1465992377978 -1465993238344 1153935 -1153835 1153835 1465993238343 -1153947 1153848 1465992084508 -1465993238356 1153946 -1153878 1465993238287 -1465992084508 99 -1153905 28 1465993238286 -1177782 23878 1153805 1465993262190 23876 1153905 1465992084409 -1465993238284 1153776 -1153889 113 -112 1153987 -1465993238396 100 1153887 -1153788 1153881 -1153782 -20 1465993238310 -1465993238309 1153900 1153801 -1153971 1153872 -1153872 1465993238392 -1465993262191 1177782 -187375 187276 990406 33436 1465992238348 -1465992238347 1465992238347 -1465992084409 -72561 226499 -187290 1465992271798 -1465992310908 -39020 226310 -226310 -37672 -913701 913701 -1465992348490 264081 -1465993202947 1118439 -1118439 -1841 1465993204788 -1120379 2736 1117544 -1117544 -1563 1119107 -1119107 1465993203615 -2571356 -1465992084405 -1175592 1175592 -1119208 840016 -829685 829687 1465992363606 -1465992084414 -1334410 158818 1465995831354 -1465994963647 307885 -1055218 -1465992084413 -1465992084518 -1334306 -1465994655880 -1334409 1334405 1465992084410 -1465995764645 1465993194363 2571364 -1465994655767 -1179207 1179206 1465993418814 2571358 2571356 -1465992084521 1465992084528 -1119101 -214964 1334068 -25 -1345031 1345031 -1334292 1465994655767 1465993418810 2571362 -2571363 1465992084405 -1079 1465993194358 2571369 -1179202 1465992084399 -1465993418815 1055218 1465994934954 -1465994934954 1465993418813 2571359 -2571360 -1465993418814 -1465992084513 2571344 -2571346 -1345033 1345058 -14 -1465994721681 65915 -1108883 1465993194377 108 -23981 1108871 10 -815817 1108884 -1175595 66709 825992 25002 1073851 -1073851 1465993193289 -1465992084416 -1108876 1465993193293 -1465992150335 -1268490 1465993403000 -1465993348320 -1465994718048 199659 -1068567 -199924 -1465993418828 -1465993388716 1465995960061 -1465993397257 48941 129416 1465993418831 2571341 -1465993220776 4481 -202534 -1465993348325 -1465994654208 -1133430 1465993216296 -1465993216296 1465993403005 -1465993348323 1465995968602 -1465995787596 -42 -1465993220779 1465993220780 -1465993216298 1133429 1133430 -1133429 -202535 1465993403004 -1465995834921 47284 -1465993220778 -40036 -158017 -1465995790445 -210452 210453 -199728 -1465994698234 43682 -1135892 2789 -202517 1335620 1465994654552 1065974 3634 1465994718048 -1465994718047 -1072215 -199659 199658 -199909 -1465993382736 1465995954084 1465993348319 -1465992150332 -1465993418826 -1465993220780 1093886 -1093886 -208781 213263 -1133387 1089362 -1302667 10729 1291939 -1089363 1465995787596 -1465994699490 -1290682 1290686 1465994699486 1465992128139 1066242 -1135480 1465993263619 155202 1465993263616 -1465995834970 -221564 1465993485178 -1465993418816 1465993418816 -2571357 -1465992128134 1465992128136 1465995834970 -221542 1465993485156 -1465992128133 1465992128134 1465993418817 -2571350 -1465993400673 1272534 -1065159 -24986 24982 224448 1465995765724 1465995764638 1065155 -1066280 1115 -25784 25782 1065159 -1065149 -1012 1014 -1117 1123 -1119 816558 -816556 38 -41 254578 -279246 24668 -280331 1893 24986 -1065161 -24990 24994 1290691 -1066669 -24283 1465995790433 -1465995789631 1090144 -1090141 825977 165563 946 -1035643 1133298 -1465993485365 221775 2158 1034697 1465992226736 -1465992226737 -1192084 -1465995790433 24673 -25791 993286 -968512 -23970 -806 -199741 1040961 -1107509 1259577 1465994797143 -1465994797143 -967502 225534 -25795 -992482 24980 800996 -825976 825975 -826783 803 24993 1465992119417 -1465992392280 -825981 992487 -166506 -801000 -18 -1465993193266 1465993193267 -1465993194393 1465995765765 -1465995789628 1465993218276 -1465992225791 -994377 1465993220168 -1465992392299 1465992392298 97656 -1090142 825979 -1465992392298 1465992392297 -1465992128128 -1134069 -156623 885631 -815307 -25788 841095 -840293 840293 -860376 1465993238358 -1465992128131 -249851 -860375 -25230 885605 1465992377982 -1465992348483 220352 -885605 1465993263587 -1465993203059 854577 220351 -1074928 1465993203059 -1465993263587 1135456 -962 1465993204021 -1075890 1620 -61186 61186 1465993202401 -1465993204021 1075890 -1075772 -59684 59684 1465993203903 -1465993203903 1075772 -1075452 -60004 -1465993219322 1091191 -1135456 60004 -15738 1465993219321 -1091200 1465993219330 1465992128131 -1091199 -44255 44255 1091194 44263 1465993219323 -1465993219323 1091192 -1091191 -44265 44265 1465993219322 -1465993219321 855722 235468 899988 1465992363600 -1465992363602 235465 1465994699490 -1465994699485 -1065154 967498 -137812 235470 -1290687 1056670 234017 -97658 1055217 -1465992392301 1465992392300 -1465992128139 -1465993193298 -1465994699486 -1135484 1465993216251 -1465992083210 -1133104 -213232 213232 1465993216315 -1465992362160 -854094 1465993216253 -1465993216253 -1465993216295 1465992082866 -1465993418831 -4524 -198052 1465993418832 2571340 -2571340 1465993220782 -1465993257876 1465993257877 -1465993220782 -198051 1465993418834 2571338 -1465992116586 -1302212 202497 -1133388 1099675 1465992116586 -1465992083215 -1133086 -1346680 60 -202576 -1465995972205 184609 854094 1465992362366 21456 -21567 -1465993403006 -1465995919660 -48940 1025546 -844542 -1056432 1056432 1465992362143 -1465992371715 1465993216258 -1465992371716 -1047118 17967 1465995972205 -1465993216299 1465993216298 -1465993263582 47283 1465993216257 -1465993382831 1465993220784 -1465993430076 209295 1302668 -1291939 1290683 1465994699489 -1065164 23907 1465993194380 -1465993193305 1066238 -1065155 1065148 -1090949 24669 -24671 25790 -1065157 1065154 -1065160 -1007 816446 152063 -993290 808 825976 -800996 1065157 -1465993219093 1099647 -8700 -1065153 1465993193299 -1465993218285 1465993218286 -1465992116585 1465992116608 -1465992116608 -1099673 202576 1465993216281 2571315 -1465994943054 255133 -1144228 41710 1465993429584 -1465993418859 -1465994653274 -40416 40416 -1336900 1336900 1465994653272 -1465994653273 -2974 2973 1465992081925 -1465992081925 -170546 1465993589404 2571313 -1465994653338 1465992081986 -1465992081923 -1134322 844542 289780 -65 -1134258 -1465992371703 1465994943054 -1302251 -2571314 -1465993418860 1336970 1465994653202 -1465994693656 40454 -1336971 1336972 1465992081840 -1465994653201 -3126 3126 1465992081846 -1465993430216 11400 1465993589406 -1465993589405 1465996160717 -1465994653266 1465992081908 -1465992081844 -1465993418812 43 -37 -1465993263607 1465993263567 -1465992083249 -1346693 11123 1465993402989 -1465993397249 1465993397248 -1465995919667 178340 1135664 -1335573 1335570 1465994654602 46 64 -249364 1465992371692 -1465992371692 1465992371691 -1465992371691 -1465993418572 1046880 289716 -1507379 1507380 1465992122327 -1465992083243 1465992083243 1336834 1465992081972 2571367 -64 -40352 289717 1465992081911 -1465992122327 1465992122328 -1465993418810 -2571362 1465993418806 2571365 -1046880 1465993418571 -1465992081975 1465993589356 -1465992081976 1465992081912 -1465992122328 40353 1465992081975 -1465992081974 63 -1046878 1046878 288454 -288454 1326 -1336835 1465994693690 -1465993418806 1465993418807 -1465992371687 -1046882 1465995989934 1507381 -40353 -289778 249362 39090 -1335332 288452 -288452 -1465992081973 -1465994943052 -1047120 -1465992371686 -289712 -1217667 1507382 1465992081973 -1465992081911 -249360 288450 1046882 -288450 -1336836 -1465994943050 -1047122 -1465992371684 -1046884 -289711 -1217669 62 249359 -1296242 1046883 288449 -288449 288448 -1465992081972 -1465994943049 -1047123 -1465992371682 -1046886 -289709 -1217670 1507383 -40355 61 -289773 249357 1046885 288447 -288447 -1336837 -1465994943047 1465992371685 -1465993418568 -238 1465992371684 1465994653338 -1465996160717 1507444 -289771 289710 -288445 -1046887 1335332 288445 1465992083239 -1465993418813 -1135664 1135661 -1135661 1465993218950 -1465992082022 -1264 1465992122334 -288446 288441 1465992083248 -1465994943045 1465992371689 1335573 1465994654599 1465993418812 2571360 -1465994654599 -1335333 1046887 -288441 1465992083246 -1465994654602 -1335570 -2571361 -1465993418573 1335334 -1465993418809 1465993418809 2571363 -2571364 -1465993418569 1465993418572 1465993418811 2571361 16 1465993402986 -1465993348305 -1465995790182 1465993218824 1465993418583 -16 45 -36 36 -1465992083253 1465992083244 158019 1465995832153 1335323 -1335572 -1465993260792 1112720 -1270498 -64834 1465992148074 -1465993418560 1270487 -1112720 1465992148075 1465992083235 -1465995989933 -1465995832154 1465993260798 -1465993263571 1346696 1465995790263 -1465994654604 -1135659 -1465992082021 1465992081977 -1465992081916 1465992081916 -1465992122332 -249355 1465992371687 1335568 1465994654604 -2571313 -1465992081960 -289772 -1046889 1335335 -1336899 1465992083236 -1331 -1335330 1335331 1465992081907 2571366 -1465992081908 -2973 1465992081910 -1296482 -1465993418808 199909 1336837 1465994653335 -1465994653334 1465992371682 -1047127 -1465994943043 -1046891 1336596 1507384 -61 40356 1465992081971 -1465992371680 -1047129 -1465993218898 1136992 -1336834 -40 -1465993263567 1465993263566 -1465992083248 -1465992083250 -1465994654600 1465992083292 -1465992081889 -1336733 1398 -1399 1335330 1507451 1465994653266 -1465994653202 66 -1336972 1465994653200 1465992081841 -1465992122296 1465992122297 -1465992081843 1465994653201 1465993418860 -1336727 -170180 1506907 -1465992081839 -1465992081953 1465992081913 40 -1465992081954 1465992081904 9 -1465992081914 -1336906 -39 1465992081914 39 -49 -1465992081906 1465992081906 1465993402991 1465993397245 1465992084913 1336906 -1465994653265 -1181752 -154979 1465993418573 -1465993263604 -1336907 -40454 37329 1465992084968 -1465993418807 -2571365 -1465992084962 1465992084962 -1333845 1465993418805 2571368 -1465992084976 -1333607 1333608 -1465992081900 -1465993418811 1336907 1465992081909 -1465992116577 -1144224 1144226 -170330 1217208 1465992371703 37 -1465992082025 -1465992116575 -1465992081958 -34650 1465992116574 -1465992116576 33373 -32 31 -1465993418856 -1317688 184649 1465993216241 -1465993261934 -156885 155836 1465993262735 -92 -1465993418652 1465993418652 -1465993262812 1114656 -1114656 1114660 1465992148152 -1465992148152 -1465993418658 1465993418658 1465992148071 -1465993262732 -156083 1270743 155835 -1465995990169 244 1273428 1465992145315 -1465992145314 -1273673 1271401 2271 -1273427 -1465992147419 1465992147419 1273672 -1273428 1465992145146 169 -167 2272 1465992145144 -1465992145147 -248 -1465992116571 -34 -1465995971965 -1295 181037 1465993220865 14 -1465993218868 1135579 1465993418859 -63 -289717 1296242 1263 -62 -1263 -1336596 -39090 1264 -40354 -288448 -1336597 1265 -60 -1646 1646 1465992083240 2571355 42 50 37444 2912 1465992081968 -1465992084881 -1333686 -182736 1516422 -1516422 182736 1333686 -1333926 -1465994653335 -2571367 -1465993418805 -1336838 -1465993218818 -199739 1465993418577 -1465993218824 1465993218828 -1465995973260 -16912 -1465995989934 16676 1465993401893 1465993418804 20 -1465993218837 -1465992083240 -1465993418570 -1465993218817 1465992083242 13 -1465992116578 -1302248 1335619 -1317489 1317489 1465992083109 -213233 213233 1465993216307 1465993402993 -1465993348309 1465993397249 -1465994656291 1465992084941 1465992081924 -1465992081987 1465992371698 -1465993418584 1465992371697 1336898 1465992081987 -1465994693690 -1046881 1465992371695 -1465992371696 -1047119 -1465992371697 -1465994653337 -249362 -1465992371693 -1465993418576 1465993418584 1465994943049 -1465992371694 1465994943050 289713 -249359 -1465992371690 1046886 1465994943048 1465992371694 -1465994653336 1465992081985 -249357 -1047125 -1465992371689 -1465992084941 -1333881 8529 -29999 21460 1465993397465 48940 1231616 -1286303 1465993402981 -1465992084925 -1333643 1333644 -1313266 -48922 -21470 -8539 1465993348296 15 1046888 1465992371688 -1465992084887 -1465994656246 1465992084889 -1465992084891 1465992084888 -59 1465992081984 -249353 -1465993418575 -1465992371685 1465992371686 -1465994943042 -40357 1465993418819 1465992371690 -1465994653333 1465992371701 -1465992371701 1465992371704 1302128 -1302017 -1465995968591 8467 -8476 1465993397464 1286303 -1301890 70265 48947 -48942 1281378 -821 1465992116891 20512 49880 1465993348305 -1465993397227 -1465993388761 1465995960124 -1465993397245 1465995919660 -1046893 1046893 -1465992371702 1465992371700 -1465992371718 1465992371718 21 -1465992115907 -701 -1465993418857 1465993402992 -1465993348307 1465992084936 -1465993418836 1302950 1465994687222 -1465994687222 1465992115868 -1465992115868 -1302712 1465993418575 -1465992115863 1465992115864 -1465992115867 -1302710 -183092 1485802 1465992115867 -1465992115866 -1465992115870 1465992115871 -1465992115871 -1302009 1465993418592 2559953 1465995832156 1465993260816 2559963 -1465992084918 1465992084925 -1465992084946 1465992084952 24 1465992116610 158021 1465995832151 -1465992083201 1465992083199 -1465993216243 1465993216320 -1465993260802 1177603 -385368 183090 1465993418579 -1465993216246 1047118 -1465992371699 1465992371699 -1465993418579 -1465992371695 -1229970 1465993601669 -183090 1302712 1465992115862 1465992115863 1302710 -1485802 1465993601667 -1465992115872 -1302711 1046879 255832 1465992115866 -1465992371704 -255832 -44559 889101 -847391 -210454 210455 1465993219091 17 -1465992115869 -1144933 -210453 10726 1465995990170 -1465995972059 -18113 199728 1465995790444 -1465994654552 -1465994721682 -1271873 199674 1465993418808 -1465993382719 1465993216300 19 -1465992084408 1465992084383 -1465994655741 -1334431 1334427 1465992084382 -1465995764649 1465993193277 2571371 1109987 1465993263604 -1465993263605 -2571368 -1465993485166 1465993485174 -1465993418804 2571370 -1465992084377 1465992084379 -1465992084382 -1334427 -1465996056512 1465993485152 -1465993418802 1465992084376 -1465993193274 -1465993400660 1316279 -1108904 -23907 -1122 1110025 -1134694 1134689 -1134686 24780 1012 1108914 -293471 1110017 -1108892 253458 -253452 -1124 1117 254537 -24668 1897 -1893 1135783 1108910 -1334437 1334436 -1134697 
Potential of Offsets elements: 28.2608 448.261 1020.26 160.261 52.2608 28.2608 28.2608 1653.26 28.2608 821.261 1302.26 1032.26 57.2608 28.2608 30.2608 28.2608 28.2608 28.2608 1838.11 1662.26 439.261 146.261 1159.26 54.2608 28.2608 28.2608 108.261 43.2608 392.261 32.2608 124.261 28.2608 28.2608 28.2608 32.2608 28.2608 28.2608 28.2608 28.2608 28.2608 28.2608 29.2608 28.2608 29.2608 28.2608 28.2608 28.2608 28.2608 28.2608 28.2608 28.2608 28.2608 28.2608 28.2608 28.2608 28.2608 28.2608 28.2608 28.2608 28.2608 28.2608 28.2608 28.2608 136.261 28.2608 28.2608 28.2608 28.2608 28.2608 28.2608 28.2608 28.2608 28.2608 28.2608 166.261 61.2608 28.2608 28.2608 180.261 28.2608 28.2608 28.2608 28.2608 29.2608 28.2608 28.2608 28.2608 28.2608 31.2608 668.261 28.2608 77.2608 32.2608 28.2608 28.2608 28.2608 40.2608 36.2608 65.2608 28.2608 28.2608 28.2608 28.2608 28.2608 28.2608 28.2608 28.2608 28.2608 28.2608 28.2608 28.2608 28.2608 28.2608 28.2608 28.2608 28.2608 28.2608 28.2608 28.2608 28.2608 28.2608 28.2608 28.2608 28.2608 28.2608 28.2608 28.2608 28.2608 28.2608 28.2608 28.2608 151.261 149.261 28.2608 28.2608 28.2608 28.2608 28.2608 28.2608 28.2608 28.2608 28.2608 28.2608 28.2608 28.2608 28.2608 28.2608 28.2608 28.2608 28.2608 28.2608 28.2608 28.2608 28.2608 28.2608 28.2608 28.2608 28.2608 28.2608 28.2608 28.2608 1745.34 181.261 28.2608 28.2608 28.2608 28.2608 120.261 28.2608 28.2608 28.2608 28.2608 28.2608 28.2608 28.2608 28.2608 28.2608 28.2608 28.2608 28.2608 28.2608 28.2608 28.2608 48.2608 28.2608 28.2608 28.2608 28.2608 28.2608 28.2608 28.2608 28.2608 28.2608 28.2608 28.2608 28.2608 30.2608 28.2608 28.2608 28.2608 28.2608 28.2608 28.2608 28.2608 28.2608 28.2608 28.2608 28.2608 28.2608 28.2608 28.2608 543.261 655.261 28.2608 28.2608 28.2608 28.2608 28.2608 28.2608 28.2608 28.2608 28.2608 28.2608 28.2608 28.2608 28.2608 28.2608 28.2608 28.2608 28.2608 28.2608 28.2608 28.2608 28.2608 257.261 28.2608 28.2608 28.2608 28.2608 28.2608 28.2608 28.2608 28.2608 28.2608 28.2608 32.2608 29.2608 28.2608 192.261 28.2608 28.2608 28.2608 28.2608 126.261 475.261 330.261 185.261 28.2608 28.2608 28.2608 28.2608 47.2608 28.2608 28.2608 28.2608 28.2608 28.2608 28.2608 28.2608 28.2608 28.2608 28.2608 28.2608 28.2608 28.2608 28.2608 28.2608 28.2608 28.2608 28.2608 28.2608 28.2608 1453.26 28.2608 28.2608 28.2608 28.2608 28.2608 28.2608 28.2608 28.2608 28.2608 28.2608 58.2608 28.2608 28.2608 28.2608 28.2608 28.2608 28.2608 28.2608 28.2608 28.2608 31.2608 28.2608 451.261 28.2608 28.2608 28.2608 28.2608 28.2608 28.2608 28.2608 28.2608 28.2608 28.2608 28.2608 28.2608 28.2608 28.2608 28.2608 28.2608 28.2608 32.2608 28.2608 28.2608 28.2608 28.2608 28.2608 40.2608 28.2608 28.2608 28.2608 117.261 28.2608 28.2608 28.2608 28.2608 28.2608 28.2608 28.2608 28.2608 28.2608 29.2608 28.2608 520.261 110.261 28.2608 28.2608 28.2608 28.2608 28.2608 140.261 36.2608 55.2608 28.2608 28.2608 984.261 103.261 28.2608 28.2608 28.2608 28.2608 28.2608 28.2608 28.2608 28.2608 28.2608 28.2608 28.2608 28.2608 1068.26 28.2608 32.2608 28.2608 28.2608 28.2608 28.2608 28.2608 34.2608 63.2608 28.2608 38.2608 28.2608 28.2608 28.2608 28.2608 41.2608 28.2608 28.2608 28.2608 28.2608 148.261 28.2608 28.2608 28.2608 28.2608 28.2608 28.2608 28.2608 28.2608 28.2608 29.2608 28.2608 28.2608 28.2608 28.2608 69.2608 62.2608 32.2608 28.2608 28.2608 28.2608 28.2608 28.2608 28.2608 44.2608 28.2608 28.2608 28.2608 28.2608 28.2608 30.2608 28.2608 63.2608 170.261 28.2608 28.2608 28.2608 28.2608 106.261 28.2608 28.2608 28.2608 28.2608 28.2608 28.2608 28.2608 80.2608 28.2608 28.2608 28.2608 80.2608 28.2608 28.2608 28.2608 28.2608 28.2608 28.2608 28.2608 28.2608 28.2608 28.2608 28.2608 108.261 220.261 268.261 106.261 28.2608 28.2608 28.2608 28.2608 28.2608 28.2608 132.261 28.2608 28.2608 28.2608 28.2608 28.2608 28.2608 28.2608 28.2608 28.2608 28.2608 28.2608 28.2608 29.2608 809.261 28.2608 28.2608 28.2608 28.2608 28.2608 28.2608 28.2608 28.2608 28.2608 28.2608 28.2608 28.2608 28.2608 28.2608 28.2608 28.2608 28.2608 28.2608 28.2608 28.2608 28.2608 62.2608 60.2608 553.261 70.2608 28.2608 28.2608 28.2608 28.2608 40.2608 114.261 144.261 28.2608 28.2608 28.2608 28.2608 28.2608 28.2608 28.2608 28.2608 28.2608 28.2608 28.2608 490.261 28.2608 28.2608 28.2608 28.2608 28.2608 28.2608 28.2608 28.2608 28.2608 28.2608 28.2608 174.261 29.2608 28.2608 28.2608 28.2608 28.2608 28.2608 28.2608 28.2608 28.2608 28.2608 28.2608 28.2608 28.2608 28.2608 272.261 28.2608 28.2608 28.2608 263.261 28.2608 28.2608 28.2608 28.2608 28.2608 28.2608 28.2608 28.2608 28.2608 28.2608 28.2608 28.2608 28.2608 66.2608 28.2608 28.2608 40.2608 28.2608 28.2608 28.2608 28.2608 28.2608 28.2608 28.2608 28.2608 28.2608 28.2608 28.2608 28.2608 28.2608 28.2608 506.261 37.2608 28.2608 28.2608 28.2608 28.2608 28.2608 28.2608 28.2608 28.2608 28.2608 28.2608 32.2608 28.2608 28.2608 28.2608 28.2608 28.2608 28.2608 28.2608 28.2608 28.2608 28.2608 28.2608 28.2608 28.2608 28.2608 28.2608 28.2608 28.2608 28.2608 28.2608 28.2608 28.2608 28.2608 28.2608 28.2608 28.2608 28.2608 28.2608 28.2608 28.2608 28.2608 28.2608 28.2608 28.2608 28.2608 28.2608 28.2608 28.2608 28.2608 28.2608 28.2608 28.2608 28.2608 28.2608 28.2608 28.2608 28.2608 36.2608 28.2608 58.2608 28.2608 28.2608 28.2608 28.2608 28.2608 28.2608 28.2608 32.2608 50.2608 28.2608 28.2608 28.2608 63.2608 28.2608 28.2608 46.2608 28.2608 28.2608 28.2608 28.2608 240.261 28.2608 28.2608 28.2608 28.2608 28.2608 28.2608 28.2608 28.2608 28.2608 28.2608 28.2608 28.2608 28.2608 28.2608 28.2608 28.2608 28.2608 28.2608 28.2608 28.2608 28.2608 28.2608 28.2608 28.2608 28.2608 28.2608 28.2608 28.2608 28.2608 37.2608 28.2608 28.2608 28.2608 28.2608 28.2608 28.2608 28.2608 28.2608 28.2608 28.2608 28.2608 28.2608 28.2608 28.2608 28.2608 28.2608 28.2608 28.2608 28.2608 28.2608 28.2608 28.2608 28.2608 28.2608 28.2608 28.2608 28.2608 28.2608 28.2608 28.2608 28.2608 28.2608 28.2608 28.2608 28.2608 28.2608 28.2608 28.2608 28.2608 28.2608 28.2608 28.2608 28.2608 28.2608 28.2608 28.2608 28.2608 28.2608 28.2608 28.2608 28.2608 55.2608 28.2608 28.2608 28.2608 28.2608 28.2608 28.2608 28.2608 28.2608 28.2608 28.2608 28.2608 28.2608 28.2608 28.2608 28.2608 28.2608 28.2608 68.2608 172.261 28.2608 404.261 28.2608 346.261 80.2608 28.2608 28.2608 340.261 73.2608 28.2608 28.2608 28.2608 28.2608 28.2608 28.2608 610.261 28.2608 28.2608 28.2608 28.2608 28.2608 28.2608 28.2608 28.2608 28.2608 28.2608 28.2608 28.2608 56.2608 28.2608 48.2608 55.2608 28.2608 28.2608 28.2608 28.2608 28.2608 28.2608 28.2608 36.2608 29.2608 28.2608 28.2608 28.2608 73.2608 40.2608 28.2608 28.2608 28.2608 28.2608 28.2608 34.2608 28.2608 28.2608 134.261 28.2608 86.2608 28.2608 38.2608 71.2608 28.2608 28.2608 28.2608 28.2608 28.2608 28.2608 28.2608 28.2608 28.2608 28.2608 28.2608 28.2608 28.2608 30.2608 28.2608 28.2608 28.2608 28.2608 28.2608 83.2608 28.2608 28.2608 31.2608 28.2608 80.2608 28.2608 28.2608 28.2608 28.2608 28.2608 28.2608 100.261 80.2608 28.2608 28.2608 28.2608 28.2608 28.2608 28.2608 28.2608 28.2608 28.2608 28.2608 28.2608 28.2608 28.2608 28.2608 28.2608 28.2608 28.2608 28.2608 28.2608 28.2608 28.2608 28.2608 28.2608 28.2608 28.2608 28.2608 28.2608 28.2608 28.2608 28.2608 28.2608 28.2608 28.2608 28.2608 28.2608 28.2608 28.2608 28.2608 28.2608 28.2608 28.2608 28.2608 28.2608 172.261 133.261 252.261 57.2608 31.2608 28.2608 28.2608 28.2608 28.2608 28.2608 28.2608 28.2608 28.2608 28.2608 42.2608 28.2608 28.2608 127.261 360.261 28.2608 28.2608 28.2608 34.2608 44.2608 28.2608 30.2608 28.2608 28.2608 28.2608 28.2608 28.2608 28.2608 28.2608 28.2608 28.2608 28.2608 28.2608 34.2608 28.2608 28.2608 28.2608 28.2608 28.2608 28.2608 28.2608 28.2608 28.2608 28.2608 28.2608 28.2608 28.2608 28.2608 28.2608 28.2608 28.2608 28.2608 28.2608 28.2608 28.2608 28.2608 28.2608 160.261 28.2608 28.2608 72.2608 32.2608 28.2608 28.2608 28.2608 28.2608 58.2608 30.2608 104.261 28.2608 28.2608 28.2608 28.2608 1079.26 28.2608 28.2608 32.2608 28.2608 28.2608 28.2608 28.2608 28.2608 28.2608 28.2608 28.2608 28.2608 28.2608 28.2608 28.2608 28.2608 28.2608 28.2608 70.2608 28.2608 28.2608 28.2608 28.2608 28.2608 28.2608 28.2608 28.2608 28.2608 28.2608 28.2608 28.2608 28.2608 28.2608 28.2608 28.2608 28.2608 28.2608 28.2608 32.2608 28.2608 28.2608 28.2608 28.2608 28.2608 31.2608 28.2608 28.2608 28.2608 28.2608 28.2608 28.2608 28.2608 28.2608 28.2608 28.2608 28.2608 28.2608 28.2608 84.2608 28.2608 28.2608 28.2608 28.2608 28.2608 28.2608 28.2608 28.2608 28.2608 28.2608 28.2608 28.2608 28.2608 28.2608 28.2608 28.2608 28.2608 28.2608 28.2608 28.2608 28.2608 28.2608 28.2608 28.2608 28.2608 28.2608 28.2608 28.2608 28.2608 28.2608 412.261 130.261 32.2608 28.2608 28.2608 28.2608 28.2608 28.2608 28.2608 28.2608 28.2608 28.2608 28.2608 28.2608 28.2608 28.2608 28.2608 28.2608 28.2608 28.2608 28.2608 28.2608 28.2608 28.2608 28.2608 28.2608 28.2608 28.2608 28.2608 28.2608 28.2608 28.2608 33.2608 28.2608 28.2608 28.2608 50.2608 36.2608 28.2608 28.2608 108.261 364.261 28.2608 28.2608 28.2608 28.2608 28.2608 28.2608 31.2608 28.2608 28.2608 66.2608 28.2608 28.2608 28.2608 28.2608 28.2608 46.2608 39.2608 28.2608 28.2608 28.2608 28.2608 28.2608 28.2608 28.2608 28.2608 28.2608 61.2608 28.2608 28.2608 28.2608 28.2608 28.2608 28.2608 28.2608 28.2608 28.2608 28.2608 28.2608 28.2608 28.2608 28.2608 28.2608 28.2608 28.2608 28.2608 28.2608 28.2608 28.2608 28.2608 186.261 35.2608 28.2608 28.2608 28.2608 28.2608 28.2608 28.2608 28.2608 32.2608 28.2608 28.2608 28.2608 28.2608 28.2608 28.2608 28.2608 28.2608 28.2608 28.2608 28.2608 28.2608 28.2608 28.2608 28.2608 28.2608 28.2608 28.2608 28.2608 28.2608 28.2608 28.2608 28.2608 28.2608 34.2608 28.2608 28.2608 28.2608 29.2608 28.2608 28.2608 28.2608 28.2608 28.2608 28.2608 28.2608 28.2608 28.2608 28.2608 28.2608 28.2608 28.2608 28.2608 28.2608 28.2608 28.2608 28.2608 169.261 28.2608 28.2608 28.2608 28.2608 28.2608 28.2608 28.2608 28.2608 28.2608 28.2608 28.2608 28.2608 28.2608 28.2608 28.2608 28.2608 28.2608 28.2608 28.2608 28.2608 28.2608 28.2608 28.2608 28.2608 204.261 644.261 314.261 82.2608 156.261 28.2608 28.2608 28.2608 28.2608 28.2608 28.2608 31.2608 64.2608 28.2608 28.2608 28.2608 286.261 343.261 45.2608 72.2608 28.2608 28.2608 28.2608 28.2608 28.2608 43.2608 28.2608 28.2608 218.261 40.2608 88.2608 52.2608 49.2608 28.2608 28.2608 198.261 48.2608 28.2608 28.2608 28.2608 28.2608 28.2608 28.2608 28.2608 28.2608 28.2608 28.2608 28.2608 28.2608 28.2608 28.2608 28.2608 28.2608 28.2608 28.2608 28.2608 29.2608 28.2608 28.2608 28.2608 28.2608 28.2608 28.2608 28.2608 28.2608 28.2608 28.2608 28.2608 28.2608 28.2608 28.2608 28.2608 28.2608 28.2608 28.2608 28.2608 28.2608 28.2608 28.2608 28.2608 28.2608 28.2608 28.2608 28.2608 28.2608 28.2608 28.2608 28.2608 28.2608 28.2608 28.2608 28.2608 28.2608 28.2608 28.2608 28.2608 28.2608 28.2608 28.2608 28.2608 28.2608 28.2608 28.2608 28.2608 28.2608 28.2608 28.2608 28.2608 28.2608 28.2608 28.2608 28.2608 28.2608 73.2608 28.2608 28.2608 28.2608 28.2608 28.2608 28.2608 28.2608 28.2608 28.2608 664.261 28.2608 28.2608 28.2608 28.2608 28.2608 28.2608 28.2608 28.2608 28.2608 28.2608 28.2608 28.2608 28.2608 28.2608 28.2608 28.2608 28.2608 28.2608 28.2608 28.2608 28.2608 28.2608 28.2608 28.2608 28.2608 28.2608 28.2608 28.2608 28.2608 28.2608 28.2608 28.2608 28.2608 28.2608 28.2608 28.2608 28.2608 48.2608 28.2608 32.2608 28.2608 28.2608 30.2608 60.2608 63.2608 28.2608 203.261 48.2608 37.2608 28.2608 28.2608 28.2608 68.2608 28.2608 80.2608 366.261 28.2608 28.2608 28.2608 28.2608 29.2608 28.2608 28.2608 28.2608 28.2608 28.2608 28.2608 28.2608 28.2608 28.2608 28.2608 64.2608 140.261 28.2608 28.2608 28.2608 28.2608 28.2608 28.2608 28.2608 28.2608 28.2608 28.2608 28.2608 28.2608 28.2608 28.2608 28.2608 28.2608 28.2608 28.2608 28.2608 28.2608 28.2608 28.2608 28.2608 28.2608 28.2608 34.2608 28.2608 28.2608 28.2608 28.2608 28.2608 28.2608 28.2608 28.2608 28.2608 28.2608 28.2608 28.2608 28.2608 28.2608 28.2608 28.2608 28.2608 28.2608 28.2608 28.2608 28.2608 28.2608 28.2608 28.2608 28.2608 52.2608 28.2608 28.2608 28.2608 28.2608 28.2608 28.2608 28.2608 28.2608 28.2608 28.2608 28.2608 28.2608 28.2608 28.2608 28.2608 28.2608 28.2608 28.2608 28.2608 28.2608 28.2608 28.2608 28.2608 28.2608 28.2608 28.2608 28.2608 28.2608 28.2608 40.2608 28.2608 28.2608 367.261 28.2608 28.2608 51.2608 28.2608 53.2608 28.2608 28.2608 28.2608 28.2608 28.2608 28.2608 28.2608 28.2608 28.2608 28.2608 28.2608 28.2608 28.2608 28.2608 28.2608 28.2608 28.2608 28.2608 28.2608 28.2608 28.2608 28.2608 28.2608 28.2608 28.2608 28.2608 28.2608 180.261 370.261 260.261 29.2608 28.2608 28.2608 28.2608 28.2608 28.2608 320.261 28.2608 28.2608 28.2608 28.2608 28.2608 28.2608 28.2608 38.2608 29.2608 28.2608 28.2608 28.2608 28.2608 28.2608 28.2608 38.2608 28.2608 162.261 28.2608 28.2608 28.2608 32.2608 28.2608 28.2608 28.2608 28.2608 28.2608 28.2608 28.2608 28.2608 28.2608 28.2608 28.2608 28.2608 30.2608 29.2608 28.2608 28.2608 28.2608 28.2608 28.2608 30.2608 28.2608 28.2608 28.2608 28.2608 28.2608 28.2608 28.2608 28.2608 28.2608 28.2608 28.2608 28.2608 31.2608 28.2608 28.2608 30.2608 29.2608 239.261 28.2608 28.2608 452.261 101.261 28.2608 28.2608 28.2608 28.2608 28.2608 28.2608 28.2608 28.2608 28.2608 28.2608 28.2608 28.2608 36.2608 28.2608 28.2608 28.2608 28.2608 28.2608 59.2608 28.2608 28.2608 28.2608 28.2608 28.2608 28.2608 28.2608 28.2608 28.2608 28.2608 28.2608 28.2608 28.2608 28.2608 28.2608 28.2608 28.2608 28.2608 28.2608 28.2608 28.2608 28.2608 102.261 28.2608 28.2608 28.2608 28.2608 28.2608 28.2608 28.2608 28.2608 28.2608 35.2608 28.2608 28.2608 28.2608 28.2608 28.2608 28.2608 28.2608 28.2608 28.2608 28.2608 28.2608 73.2608 28.2608 28.2608 28.2608 28.2608 28.2608 36.2608 28.2608 28.2608 28.2608 28.2608 28.2608 28.2608 28.2608 28.2608 28.2608 28.2608 28.2608 28.2608 28.2608 28.2608 28.2608 28.2608 28.2608 28.2608 28.2608 28.2608 28.2608 28.2608 28.2608 28.2608 28.2608 28.2608 28.2608 28.2608 28.2608 28.2608 28.2608 28.2608 28.2608 28.2608 58.2608 28.2608 28.2608 29.2608 28.2608 28.2608 28.2608 28.2608 28.2608 235.261 28.2608 28.2608 177.261 28.2608 28.2608 28.2608 28.2608 28.2608 28.2608 28.2608 228.261 28.2608 28.2608 28.2608 28.2608 28.2608 28.2608 28.2608 28.2608 28.2608 28.2608 28.2608 28.2608 28.2608 28.2608 28.2608 28.2608 28.2608 28.2608 28.2608 28.2608 28.2608 28.2608 28.2608 58.2608 28.2608 28.2608 28.2608 42.2608 28.2608 28.2608 28.2608 28.2608 28.2608 28.2608 28.2608 28.2608 28.2608 28.2608 28.2608 28.2608 28.2608 118.261 28.2608 28.2608 28.2608 28.2608 28.2608 28.2608 28.2608 28.2608 28.2608 28.2608 28.2608 28.2608 28.2608 28.2608 28.2608 28.2608 28.2608 28.2608 37.2608 28.2608 28.2608 28.2608 28.2608 28.2608 28.2608 28.2608 28.2608 28.2608 28.2608 28.2608 28.2608 28.2608 28.2608 28.2608 28.2608 128.261 28.2608 28.2608 28.2608 28.2608 28.2608 28.2608 28.2608 28.2608 28.2608 28.2608 43.2608 28.2608 28.2608 28.2608 28.2608 28.2608 28.2608 28.2608 28.2608 28.2608 28.2608 28.2608 28.2608 28.2608 28.2608 28.2608 28.2608 28.2608 28.2608 28.2608 28.2608 28.2608 28.2608 28.2608 28.2608 28.2608 28.2608 28.2608 28.2608 28.2608 28.2608 28.2608 28.2608 28.2608 28.2608 28.2608 28.2608 28.2608 30.2608 28.2608 28.2608 187.261 28.2608 28.2608 28.2608 28.2608 28.2608 94.2608 28.2608 28.2608 28.2608 28.2608 28.2608 28.2608 28.2608 28.2608 28.2608 28.2608 36.2608 28.2608 28.2608 28.2608 28.2608 69.2608 28.2608 28.2608 28.2608 28.2608 28.2608 28.2608 28.2608 28.2608 28.2608 28.2608 28.2608 28.2608 28.2608 28.2608 28.2608 28.2608 28.2608 28.2608 28.2608 30.2608 28.2608 28.2608 28.2608 28.2608 28.2608 42.2608 61.2608 132.261 28.2608 28.2608 28.2608 28.2608 28.2608 28.2608 28.2608 28.2608 28.2608 28.2608 
rewards of Offsets elements: 0 420 992 132 24 0 0 1625 0 793 1274 1004 29 0 2 0 0 0 1838 1634 411 118 1131 26 0 0 80 15 364 4 96 0 0 0 4 0 0 0 0 0 0 1 0 1 0 0 0 0 0 0 0 0 0 0 0 0 0 0 0 0 0 0 0 108 0 0 0 0 0 0 0 0 0 0 138 33 0 0 152 0 0 0 0 1 0 0 0 0 3 640 0 49 4 0 0 0 12 8 37 0 0 0 0 0 0 0 0 0 0 0 0 0 0 0 0 0 0 0 0 0 0 0 0 0 0 0 0 0 0 0 0 123 121 0 0 0 0 0 0 0 0 0 0 0 0 0 0 0 0 0 0 0 0 0 0 0 0 0 0 0 0 1744 153 0 0 0 0 92 0 0 0 0 0 0 0 0 0 0 0 0 0 0 0 20 0 0 0 0 0 0 0 0 0 0 0 0 2 0 0 0 0 0 0 0 0 0 0 0 0 0 0 515 627 0 0 0 0 0 0 0 0 0 0 0 0 0 0 0 0 0 0 0 0 0 229 0 0 0 0 0 0 0 0 0 0 4 1 0 164 0 0 0 0 98 447 302 157 0 0 0 0 19 0 0 0 0 0 0 0 0 0 0 0 0 0 0 0 0 0 0 0 0 1425 0 0 0 0 0 0 0 0 0 0 30 0 0 0 0 0 0 0 0 0 3 0 423 0 0 0 0 0 0 0 0 0 0 0 0 0 0 0 0 0 4 0 0 0 0 0 12 0 0 0 89 0 0 0 0 0 0 0 0 0 1 0 492 82 0 0 0 0 0 112 8 27 0 0 956 75 0 0 0 0 0 0 0 0 0 0 0 0 1040 0 4 0 0 0 0 0 6 35 0 10 0 0 0 0 13 0 0 0 0 120 0 0 0 0 0 0 0 0 0 1 0 0 0 0 41 34 4 0 0 0 0 0 0 16 0 0 0 0 0 2 0 35 142 0 0 0 0 78 0 0 0 0 0 0 0 52 0 0 0 52 0 0 0 0 0 0 0 0 0 0 0 80 192 240 78 0 0 0 0 0 0 104 0 0 0 0 0 0 0 0 0 0 0 0 1 781 0 0 0 0 0 0 0 0 0 0 0 0 0 0 0 0 0 0 0 0 0 34 32 525 42 0 0 0 0 12 86 116 0 0 0 0 0 0 0 0 0 0 0 462 0 0 0 0 0 0 0 0 0 0 0 146 1 0 0 0 0 0 0 0 0 0 0 0 0 0 244 0 0 0 235 0 0 0 0 0 0 0 0 0 0 0 0 0 38 0 0 12 0 0 0 0 0 0 0 0 0 0 0 0 0 0 478 9 0 0 0 0 0 0 0 0 0 0 4 0 0 0 0 0 0 0 0 0 0 0 0 0 0 0 0 0 0 0 0 0 0 0 0 0 0 0 0 0 0 0 0 0 0 0 0 0 0 0 0 0 0 0 0 0 0 8 0 30 0 0 0 0 0 0 0 4 22 0 0 0 35 0 0 18 0 0 0 0 212 0 0 0 0 0 0 0 0 0 0 0 0 0 0 0 0 0 0 0 0 0 0 0 0 0 0 0 0 0 9 0 0 0 0 0 0 0 0 0 0 0 0 0 0 0 0 0 0 0 0 0 0 0 0 0 0 0 0 0 0 0 0 0 0 0 0 0 0 0 0 0 0 0 0 0 0 0 0 0 0 0 27 0 0 0 0 0 0 0 0 0 0 0 0 0 0 0 0 0 40 144 0 376 0 318 52 0 0 312 45 0 0 0 0 0 0 582 0 0 0 0 0 0 0 0 0 0 0 0 28 0 20 27 0 0 0 0 0 0 0 8 1 0 0 0 45 12 0 0 0 0 0 6 0 0 106 0 58 0 10 43 0 0 0 0 0 0 0 0 0 0 0 0 0 2 0 0 0 0 0 55 0 0 3 0 52 0 0 0 0 0 0 72 52 0 0 0 0 0 0 0 0 0 0 0 0 0 0 0 0 0 0 0 0 0 0 0 0 0 0 0 0 0 0 0 0 0 0 0 0 0 0 0 0 0 0 0 144 105 224 29 3 0 0 0 0 0 0 0 0 0 14 0 0 99 332 0 0 0 6 16 0 2 0 0 0 0 0 0 0 0 0 0 0 6 0 0 0 0 0 0 0 0 0 0 0 0 0 0 0 0 0 0 0 0 0 0 0 132 0 0 44 4 0 0 0 0 30 2 76 0 0 0 0 1051 0 0 4 0 0 0 0 0 0 0 0 0 0 0 0 0 0 0 42 0 0 0 0 0 0 0 0 0 0 0 0 0 0 0 0 0 0 0 4 0 0 0 0 0 3 0 0 0 0 0 0 0 0 0 0 0 0 0 56 0 0 0 0 0 0 0 0 0 0 0 0 0 0 0 0 0 0 0 0 0 0 0 0 0 0 0 0 0 0 384 102 4 0 0 0 0 0 0 0 0 0 0 0 0 0 0 0 0 0 0 0 0 0 0 0 0 0 0 0 0 0 5 0 0 0 22 8 0 0 80 336 0 0 0 0 0 0 3 0 0 38 0 0 0 0 0 18 11 0 0 0 0 0 0 0 0 0 33 0 0 0 0 0 0 0 0 0 0 0 0 0 0 0 0 0 0 0 0 0 0 158 7 0 0 0 0 0 0 0 4 0 0 0 0 0 0 0 0 0 0 0 0 0 0 0 0 0 0 0 0 0 0 0 0 6 0 0 0 1 0 0 0 0 0 0 0 0 0 0 0 0 0 0 0 0 0 0 141 0 0 0 0 0 0 0 0 0 0 0 0 0 0 0 0 0 0 0 0 0 0 0 0 176 616 286 54 128 0 0 0 0 0 0 3 36 0 0 0 258 315 17 44 0 0 0 0 0 15 0 0 190 12 60 24 21 0 0 170 20 0 0 0 0 0 0 0 0 0 0 0 0 0 0 0 0 0 0 0 1 0 0 0 0 0 0 0 0 0 0 0 0 0 0 0 0 0 0 0 0 0 0 0 0 0 0 0 0 0 0 0 0 0 0 0 0 0 0 0 0 0 0 0 0 0 0 0 0 0 0 0 0 0 0 0 0 45 0 0 0 0 0 0 0 0 0 636 0 0 0 0 0 0 0 0 0 0 0 0 0 0 0 0 0 0 0 0 0 0 0 0 0 0 0 0 0 0 0 0 0 0 0 0 0 20 0 4 0 0 2 32 35 0 175 20 9 0 0 0 40 0 52 338 0 0 0 0 1 0 0 0 0 0 0 0 0 0 0 36 112 0 0 0 0 0 0 0 0 0 0 0 0 0 0 0 0 0 0 0 0 0 0 0 0 0 6 0 0 0 0 0 0 0 0 0 0 0 0 0 0 0 0 0 0 0 0 0 0 0 0 0 24 0 0 0 0 0 0 0 0 0 0 0 0 0 0 0 0 0 0 0 0 0 0 0 0 0 0 0 0 0 12 0 0 339 0 0 23 0 25 0 0 0 0 0 0 0 0 0 0 0 0 0 0 0 0 0 0 0 0 0 0 0 0 0 0 0 152 342 232 1 0 0 0 0 0 292 0 0 0 0 0 0 0 10 1 0 0 0 0 0 0 10 0 134 0 0 0 4 0 0 0 0 0 0 0 0 0 0 0 0 2 1 0 0 0 0 0 2 0 0 0 0 0 0 0 0 0 0 0 0 3 0 0 2 1 211 0 0 424 73 0 0 0 0 0 0 0 0 0 0 0 0 8 0 0 0 0 0 31 0 0 0 0 0 0 0 0 0 0 0 0 0 0 0 0 0 0 0 0 0 0 74 0 0 0 0 0 0 0 0 0 7 0 0 0 0 0 0 0 0 0 0 0 45 0 0 0 0 0 8 0 0 0 0 0 0 0 0 0 0 0 0 0 0 0 0 0 0 0 0 0 0 0 0 0 0 0 0 0 0 0 0 0 0 30 0 0 1 0 0 0 0 0 207 0 0 149 0 0 0 0 0 0 0 200 0 0 0 0 0 0 0 0 0 0 0 0 0 0 0 0 0 0 0 0 0 0 0 30 0 0 0 14 0 0 0 0 0 0 0 0 0 0 0 0 0 90 0 0 0 0 0 0 0 0 0 0 0 0 0 0 0 0 0 0 9 0 0 0 0 0 0 0 0 0 0 0 0 0 0 0 0 100 0 0 0 0 0 0 0 0 0 0 15 0 0 0 0 0 0 0 0 0 0 0 0 0 0 0 0 0 0 0 0 0 0 0 0 0 0 0 0 0 0 0 0 0 0 0 0 0 2 0 0 159 0 0 0 0 0 66 0 0 0 0 0 0 0 0 0 0 8 0 0 0 0 41 0 0 0 0 0 0 0 0 0 0 0 0 0 0 0 0 0 0 0 2 0 0 0 0 0 14 33 104 0 0 0 0 0 0 0 0 0 0 Printing Sanity3
offset_index value1948
offset list size1948
reward size1948
potential size1948
-----------------------------------------------------------------------------------------------------------------------------------------------------------------------------------------------------

DRAM Statistics
 CHANNEL 0
 RQ ROW_BUFFER_HIT:      13623  ROW_BUFFER_MISS:      32402
 DBUS_CONGESTED:         85
 WQ ROW_BUFFER_HIT:       2612  ROW_BUFFER_MISS:      20190  FULL:          0

 AVG_CONGESTED_CYCLE: 5
 All warmup complete: 2
Channel 0 Bank busy for read cycles: 0
Channel 0 Bank busy for write cycles: 0
Channel 0
Rank 0
0banks busy for read cycles: 592795807
0banks busy for write cycles: 7699
1banks busy for read cycles: 1908892
1banks busy for write cycles: 951107
2banks busy for read cycles: 425398
2banks busy for write cycles: 207309
3banks busy for read cycles: 240083
3banks busy for write cycles: 118208
4banks busy for read cycles: 154325
4banks busy for write cycles: 83582
5banks busy for read cycles: 99302
5banks busy for write cycles: 59041
6banks busy for read cycles: 74469
6banks busy for write cycles: 55259
7banks busy for read cycles: 39656
7banks busy for write cycles: 56697
8banks busy for read cycles: 28294
8banks busy for write cycles: 112102

CPU 0 Branch Prediction Accuracy: 99.8429% MPKI: 0.27698 Average ROB Occupancy at Mispredict: 53.5265
Branch types
NOT_BRANCH: 164736751 82.3684%
BRANCH_DIRECT_JUMP: 2184471 1.09224%
BRANCH_INDIRECT: 11367631 5.68382%
BRANCH_CONDITIONAL: 13694607 6.8473%
BRANCH_DIRECT_CALL: 3386061 1.69303%
BRANCH_INDIRECT_CALL: 622186 0.311093%
BRANCH_RETURN: 4008227 2.00411%
BRANCH_OTHER: 0 0%

DRAM PAGES: 1048576
Allocated PAGES: 1910
