
*** ChampSim Multicore Out-of-Order Simulator ***

Warmup Instructions: 50000000
Simulation Instructions: 200000000
Number of CPUs: 1
LLC sets: 2048
LLC ways: 16
Off-chip DRAM Size: 4096 MB Channels: 1 Width: 64-bit Data Rate: 6400 MT/s
CPU 0 runs traces/spec2k17/srv_11.champsimtrace.xz
.xz
BTB has LRU replacement policy
ITLB has LRU replacement policy
DTLB has LRU replacement policy
STLB has LRU replacement policy
L1I has LRU replacement policy
L1D has LRU replacement policy
Initialize SRRIP state for L2C
Initialize DRRIP state for LLC
Heartbeat CPU 0 instructions: 10000000 cycles: 3235487 heartbeat IPC: 3.09072 cumulative IPC: 3.09072 (Simulation time: 0 hr 0 min 40 sec) 
Heartbeat CPU 0 instructions: 20000002 cycles: 7452693 heartbeat IPC: 2.37124 cumulative IPC: 2.68359 (Simulation time: 0 hr 1 min 34 sec) 
Heartbeat CPU 0 instructions: 30000001 cycles: 10225672 heartbeat IPC: 3.60623 cumulative IPC: 2.93379 (Simulation time: 0 hr 2 min 8 sec) 
*** Reached end of trace for Core: 0 Repeating trace: traces/spec2k17/srv_11.champsimtrace.xz
Heartbeat CPU 0 instructions: 40000001 cycles: 13313503 heartbeat IPC: 3.23852 cumulative IPC: 3.00447 (Simulation time: 0 hr 2 min 47 sec) 
Heartbeat CPU 0 instructions: 50000000 cycles: 17669485 heartbeat IPC: 2.29569 cumulative IPC: 2.82974 (Simulation time: 0 hr 3 min 39 sec) 

Warmup complete CPU 0 instructions: 50000004 cycles: 17669486 (Simulation time: 0 hr 3 min 39 sec) 

Offsets elements: 
Potential of Offsets elements: 
rewards of Offsets elements: 
Printing Sanity1
offset list size878
Offsets elements: 
Potential of Offsets elements: 
rewards of Offsets elements: 4003 0 0 0 0 0 0 0 0 0 0 4217 0 0 0 0 0 0 0 338 4 25 49 100 0 0 48 132 2266 0 0 0 0 0 0 16 36 16 16 0 0 0 3364 0 0 0 0 0 0 0 0 0 0 0 0 0 0 0 0 0 0 0 0 0 0 0 0 0 0 0 0 0 0 0 0 0 0 0 0 0 0 0 0 0 0 30 0 0 0 0 0 0 0 0 0 0 9 150 0 0 0 0 6 0 0 0 0 0 0 0 0 0 0 0 0 0 0 0 0 0 0 0 0 0 0 0 0 0 0 0 0 0 0 0 0 0 0 0 0 0 0 0 0 0 0 0 0 0 0 0 0 0 0 0 0 0 0 0 0 0 0 0 0 0 0 0 0 0 0 0 0 0 0 0 0 0 0 0 0 0 0 0 0 0 0 0 0 0 0 0 0 0 0 0 0 0 0 0 0 0 0 0 0 0 0 0 0 0 0 0 0 0 0 0 0 0 0 0 0 0 0 0 0 0 0 0 0 0 0 0 0 0 0 0 0 0 0 0 0 0 0 0 0 0 0 0 0 0 0 0 0 0 0 0 0 0 0 0 0 0 0 0 0 0 0 0 0 0 0 0 0 0 0 0 0 0 0 0 0 0 284 0 0 0 0 0 0 0 0 0 0 0 0 0 0 0 0 0 0 0 0 0 0 0 0 0 0 0 0 0 0 0 0 0 0 0 0 0 0 0 0 0 0 0 0 0 0 0 0 1243 0 0 0 0 0 0 0 0 0 0 0 0 0 0 0 0 0 0 0 0 0 0 0 0 0 0 0 0 0 0 0 0 0 0 0 0 0 0 0 0 0 0 0 0 0 0 0 0 0 0 0 0 0 0 0 0 0 0 0 0 0 0 0 0 0 0 0 0 0 0 0 0 0 0 0 0 0 0 0 0 0 0 0 0 0 0 0 0 0 0 0 0 0 0 0 0 33 0 0 0 0 0 0 0 0 0 0 0 0 0 0 0 0 2028 0 0 0 0 0 0 0 0 0 0 0 0 0 4 0 0 7 0 0 0 0 0 0 0 0 0 0 0 0 0 0 0 0 0 0 0 0 0 0 0 0 0 0 312 592 0 0 0 0 0 0 0 0 0 0 0 0 0 0 0 0 0 0 0 0 0 0 0 0 0 0 0 0 0 0 0 0 0 0 0 0 0 0 0 0 0 0 0 0 0 0 0 0 0 0 0 0 0 0 0 0 0 0 0 0 0 0 0 0 0 0 0 0 0 0 0 0 0 0 0 0 0 0 0 0 0 0 0 0 0 0 0 0 0 0 0 19 0 0 0 0 0 0 0 0 0 0 0 0 0 0 0 0 0 0 0 0 0 0 0 0 0 0 0 0 0 0 0 0 0 0 0 0 0 0 0 0 0 0 0 0 0 0 0 0 0 0 0 0 0 0 0 0 0 0 0 0 0 0 0 0 0 0 0 0 0 0 0 0 0 0 0 0 0 0 0 0 0 0 0 0 0 0 0 0 0 0 0 0 0 0 0 0 0 0 0 0 0 0 0 0 0 0 0 0 0 0 0 0 0 0 0 0 0 0 0 0 0 0 0 0 0 0 0 0 0 0 0 0 0 0 0 1601 624 0 0 0 0 0 0 0 0 0 0 0 0 13 0 0 0 0 0 0 0 0 0 0 0 0 0 0 0 0 0 0 0 0 0 0 0 0 0 0 0 0 0 0 0 0 0 0 0 0 0 0 0 0 0 0 0 0 2 0 0 0 0 0 0 0 0 0 0 0 0 0 0 0 0 0 0 0 0 0 0 0 0 0 0 0 0 0 0 0 0 0 0 0 0 0 0 0 0 0 0 0 0 0 0 4 0 0 0 0 0 0 0 0 0 0 0 0 0 0 0 0 0 0 0 0 0 0 0 0 0 0 0 0 0 0 0 0 0 0 0 0 0 0 0 0 0 0 0 0 0 0 0 0 0 0 0 0 0 0 0 
Printing Sanity2
Heartbeat CPU 0 instructions: 60000003 cycles: 41311937 heartbeat IPC: 0.422968 cumulative IPC: 0.422968 (Simulation time: 0 hr 4 min 41 sec) 
*** Reached end of trace for Core: 0 Repeating trace: traces/spec2k17/srv_11.champsimtrace.xz
Heartbeat CPU 0 instructions: 70000000 cycles: 65220576 heartbeat IPC: 0.418259 cumulative IPC: 0.4206 (Simulation time: 0 hr 5 min 44 sec) 
Heartbeat CPU 0 instructions: 80000001 cycles: 106070309 heartbeat IPC: 0.2448 cumulative IPC: 0.339363 (Simulation time: 0 hr 7 min 21 sec) 
Heartbeat CPU 0 instructions: 90000003 cycles: 130827883 heartbeat IPC: 0.403917 cumulative IPC: 0.353487 (Simulation time: 0 hr 8 min 24 sec) 
*** Reached end of trace for Core: 0 Repeating trace: traces/spec2k17/srv_11.champsimtrace.xz
Heartbeat CPU 0 instructions: 100000003 cycles: 154330256 heartbeat IPC: 0.425489 cumulative IPC: 0.365869 (Simulation time: 0 hr 9 min 23 sec) 
Heartbeat CPU 0 instructions: 110000000 cycles: 194140940 heartbeat IPC: 0.251189 cumulative IPC: 0.339998 (Simulation time: 0 hr 10 min 55 sec) 
Heartbeat CPU 0 instructions: 120000000 cycles: 220085442 heartbeat IPC: 0.385438 cumulative IPC: 0.345823 (Simulation time: 0 hr 11 min 59 sec) 
*** Reached end of trace for Core: 0 Repeating trace: traces/spec2k17/srv_11.champsimtrace.xz
Heartbeat CPU 0 instructions: 130000002 cycles: 243550722 heartbeat IPC: 0.426162 cumulative IPC: 0.354168 (Simulation time: 0 hr 13 min 2 sec) 
Heartbeat CPU 0 instructions: 140000002 cycles: 282091364 heartbeat IPC: 0.259466 cumulative IPC: 0.340365 (Simulation time: 0 hr 14 min 32 sec) 
Heartbeat CPU 0 instructions: 150000002 cycles: 309063178 heartbeat IPC: 0.370757 cumulative IPC: 0.343178 (Simulation time: 0 hr 15 min 43 sec) 
*** Reached end of trace for Core: 0 Repeating trace: traces/spec2k17/srv_11.champsimtrace.xz
Heartbeat CPU 0 instructions: 160000003 cycles: 332688139 heartbeat IPC: 0.423281 cumulative IPC: 0.349186 (Simulation time: 0 hr 16 min 45 sec) 
Heartbeat CPU 0 instructions: 170000000 cycles: 369999863 heartbeat IPC: 0.268012 cumulative IPC: 0.340589 (Simulation time: 0 hr 18 min 13 sec) 
Heartbeat CPU 0 instructions: 180000001 cycles: 398171219 heartbeat IPC: 0.354971 cumulative IPC: 0.341654 (Simulation time: 0 hr 19 min 25 sec) 
*** Reached end of trace for Core: 0 Repeating trace: traces/spec2k17/srv_11.champsimtrace.xz
Heartbeat CPU 0 instructions: 190000003 cycles: 421605784 heartbeat IPC: 0.42672 cumulative IPC: 0.346589 (Simulation time: 0 hr 20 min 29 sec) 
Heartbeat CPU 0 instructions: 200000000 cycles: 457861809 heartbeat IPC: 0.275816 cumulative IPC: 0.34076 (Simulation time: 0 hr 21 min 55 sec) 
Heartbeat CPU 0 instructions: 210000001 cycles: 487235802 heartbeat IPC: 0.340437 cumulative IPC: 0.34074 (Simulation time: 0 hr 23 min 9 sec) 
*** Reached end of trace for Core: 0 Repeating trace: traces/spec2k17/srv_11.champsimtrace.xz
Heartbeat CPU 0 instructions: 220000000 cycles: 510731542 heartbeat IPC: 0.425609 cumulative IPC: 0.344784 (Simulation time: 0 hr 24 min 10 sec) 
Heartbeat CPU 0 instructions: 230000000 cycles: 545700215 heartbeat IPC: 0.28597 cumulative IPC: 0.340889 (Simulation time: 0 hr 25 min 32 sec) 
Heartbeat CPU 0 instructions: 240000002 cycles: 576293262 heartbeat IPC: 0.326872 cumulative IPC: 0.340122 (Simulation time: 0 hr 26 min 48 sec) 
*** Reached end of trace for Core: 0 Repeating trace: traces/spec2k17/srv_11.champsimtrace.xz
Heartbeat CPU 0 instructions: 250000000 cycles: 599758161 heartbeat IPC: 0.426168 cumulative IPC: 0.34359 (Simulation time: 0 hr 27 min 51 sec) 
Finished CPU 0 instructions: 200000000 cycles: 582088676 cumulative IPC: 0.34359 (Simulation time: 0 hr 27 min 51 sec) 

ChampSim completed all CPUs

Region of Interest Statistics

CPU 0 cumulative IPC: 0.34359 instructions: 200000000 cycles: 582088676
ITLB TOTAL     ACCESS:   37989657  HIT:   37450180  MISS:     539477  HIT %:    98.5799  MISS %:    1.42006   MPKI: 2.69739
ITLB LOAD TRANSLATION ACCESS:   37989657  HIT:   37450180  MISS:     539477  HIT %:    98.5799  MISS %:    1.42006   MPKI: 2.69739
ITLB PREFETCH  REQUESTED:          0  ISSUED:          0  USEFUL:          0  USELESS:          0
ITLB USEFUL LOAD PREFETCHES:          0 PREFETCH ISSUED TO LOWER LEVEL:          0  ACCURACY: -nan
ITLB TIMELY PREFETCHES:          0 LATE PREFETCHES: 0 DROPPED PREFETCHES: 0
ITLB PREFETCHES SAME FILL-ORIGIN LEVEL: 0 DIFFERENT FILL-ORIGIN LEVEL: 0
ITLB AVERAGE MISS LATENCY: 16.0979 cycles
ITLB RQ	ACCESS:   43892080	FORWARD:          0	MERGED:    5773780	TO_CACHE:   38118300

DTLB TOTAL     ACCESS:   43927767  HIT:   34941661  MISS:    8986106  HIT %:    79.5434  MISS %:    20.4566   MPKI: 44.9305
DTLB LOAD TRANSLATION ACCESS:   43927767  HIT:   34941661  MISS:    8986106  HIT %:    79.5434  MISS %:    20.4566   MPKI: 44.9305
DTLB PREFETCH  REQUESTED:          0  ISSUED:          0  USEFUL:          0  USELESS:          0
DTLB USEFUL LOAD PREFETCHES:          0 PREFETCH ISSUED TO LOWER LEVEL:          0  ACCURACY: -nan
DTLB TIMELY PREFETCHES:          0 LATE PREFETCHES: 0 DROPPED PREFETCHES: 0
DTLB PREFETCHES SAME FILL-ORIGIN LEVEL: 0 DIFFERENT FILL-ORIGIN LEVEL: 0
DTLB AVERAGE MISS LATENCY: 10.0052 cycles
DTLB RQ	ACCESS:   58995770	FORWARD:          0	MERGED:   14857804	TO_CACHE:   44137966

STLB TOTAL     ACCESS:   21517460  HIT:   21203285  MISS:     314175  HIT %:    98.5399  MISS %:    1.46009   MPKI: 1.57088
STLB LOAD TRANSLATION ACCESS:    9525583  HIT:    9213184  MISS:     312399  HIT %:    96.7204  MISS %:    3.27958   MPKI: 1.562
STLB TRANSLATION FROM L1D PREFETCHER ACCESS:   11991877  HIT:   11990101  MISS:       1776  HIT %:    99.9852  MISS %:    0.01481   MPKI: 0.00888
STLB PREFETCH  REQUESTED:          0  ISSUED:          0  USEFUL:       1715  USELESS:         61
STLB USEFUL LOAD PREFETCHES:       1715 PREFETCH ISSUED TO LOWER LEVEL:          0  ACCURACY: inf
STLB TIMELY PREFETCHES:       1715 LATE PREFETCHES: 364 DROPPED PREFETCHES: 75787
STLB PREFETCHES SAME FILL-ORIGIN LEVEL: 0 DIFFERENT FILL-ORIGIN LEVEL: 0
STLB AVERAGE MISS LATENCY: 40.9108 cycles
STLB RQ	ACCESS:   23274558	FORWARD:          0	MERGED:    1680695	TO_CACHE:   21593863

STLB Hit, L1D data hit: 0
STLB Hit, L2C data hit: 0
STLB Hit, LLC data hit: 0
STLB Hit, LLC data miss: 0
STLB STLB hints to L2: 0
L1D TOTAL     ACCESS:   71938483  HIT:   56000663  MISS:   15937820  HIT %:    77.8452  MISS %:    22.1548   MPKI: 79.6891
L1D LOAD      ACCESS:   41078462  HIT:   28986611  MISS:   12091851  HIT %:     70.564  MISS %:     29.436   MPKI: 60.4593
L1D RFO       ACCESS:   17364285  HIT:   16949011  MISS:     415274  HIT %:    97.6085  MISS %:    2.39154   MPKI: 2.07637
L1D PREFETCH  ACCESS:   13495736  HIT:   10065041  MISS:    3430695  HIT %:    74.5794  MISS %:    25.4206   MPKI: 17.1535
AGUS PREFETCH L1 MISS: 0
L1D PREFETCH  REQUESTED:   27626244  ISSUED:   27626155  USEFUL:     173465  USELESS:    3257118
L1D USEFUL LOAD PREFETCHES:     173465 PREFETCH ISSUED TO LOWER LEVEL:    3465857  ACCURACY: 5.00497
L1D TIMELY PREFETCHES:     173465 LATE PREFETCHES: 33980 DROPPED PREFETCHES: 75787
L1D PREFETCHES SAME FILL-ORIGIN LEVEL: 3465857 DIFFERENT FILL-ORIGIN LEVEL: 0
L1D AVERAGE MISS LATENCY: 688066 cycles
L1D RQ	ACCESS:   54056638	FORWARD:          0	MERGED:   12727909	TO_CACHE:   41161505
L1D WQ	ACCESS:   18064452	FORWARD:     174283	MERGED:     230187	TO_CACHE:   17834265
L1D PQ	ACCESS:   13877180	FORWARD:          0	MERGED:     121146	TO_CACHE:   13748975

L1D UNIQUE REGIONS ACCESSED: 0
L1D REGIONS CONFLICTS: 0
L1D Cross Page Prefetch Requests: 216611
L1D Same Page Prefetch Requests: 13660569
L1D ROI Sum of L1D PQ occupancy: 181882520
L1D PREFETCHES PUSHED FROM L2C: 0
L1I TOTAL     ACCESS:   42776562  HIT:   39354420  MISS:    3422142  HIT %:         92  MISS %:    8.00004   MPKI: 17.1107
L1I LOAD      ACCESS:   42776562  HIT:   39354420  MISS:    3422142  HIT %:         92  MISS %:    8.00004   MPKI: 17.1107
L1I PREFETCH  REQUESTED:          0  ISSUED:          0  USEFUL:          0  USELESS:          0
L1I USEFUL LOAD PREFETCHES:          0 PREFETCH ISSUED TO LOWER LEVEL:          0  ACCURACY: -nan
L1I TIMELY PREFETCHES:          0 LATE PREFETCHES: 0 DROPPED PREFETCHES: 0
L1I PREFETCHES SAME FILL-ORIGIN LEVEL: 0 DIFFERENT FILL-ORIGIN LEVEL: 0
L1I AVERAGE MISS LATENCY: 28.8009 cycles
L1I RQ	ACCESS:   65987858	FORWARD:          0	MERGED:   22095778	TO_CACHE:   43892080

BTB TOTAL     ACCESS:   33562541  HIT:   29061291  MISS:    4501250  HIT %:    86.5885  MISS %:    13.4115   MPKI: 22.5063
BTB BRANCH_DIRECT_JUMP	ACCESS:    1685269  HIT:    1483558  MISS:     201711
BTB BRANCH_INDIRECT	ACCESS:   19828017  HIT:   17476348  MISS:    2351669
BTB BRANCH_CONDITIONAL	ACCESS:    4608066  HIT:    4287796  MISS:     320270
BTB BRANCH_DIRECT_CALL	ACCESS:    2993939  HIT:    2599188  MISS:     394751
BTB BRANCH_INDIRECT_CALL	ACCESS:     724221  HIT:     681906  MISS:      42315
BTB BRANCH_RETURN	ACCESS:    3723029  HIT:    2532495  MISS:    1190534
BTB BRANCH_OTHER ACCESS:          0  HIT:          0  MISS:          0

L2C TOTAL     ACCESS:   20761405  HIT:   17852216  MISS:    2909189  HIT %:    85.9875  MISS %:    14.0125   MPKI: 14.5459
L2C LOAD      ACCESS:   15479970  HIT:   13188469  MISS:    2291501  HIT %:     85.197  MISS %:     14.803   MPKI: 11.4575
L2C DATA LOAD MPKI: 3.45273
L2C INSTRUCTION LOAD MPKI: 8.00478
L2C RFO       ACCESS:     414089  HIT:     293448  MISS:     120641  HIT %:    70.8659  MISS %:    29.1341   MPKI: 0.603205
L2C PREFETCH  ACCESS:    3465856  HIT:    3162693  MISS:     303163  HIT %:    91.2529  MISS %:    8.74713   MPKI: 1.51581
AGUS PREFETCH L1 MISS: 0
L2C DATA PREFETCH MPKI: 1.51581
L2C INSTRUCTION PREFETCH MPKI: 0
L2C WRITEBACK ACCESS:     882574  HIT:     846105  MISS:      36469  HIT %:    95.8679  MISS %:    4.13212   MPKI: 0.182345
L2C LOAD TRANSLATION ACCESS:     396068  HIT:     239620  MISS:     156448  HIT %:    60.4997  MISS %:    39.5003   MPKI: 0.78224
L2C TRANSLATION FROM L1D PREFETCHER ACCESS:     122848  HIT:     121881  MISS:        967  HIT %:    99.2128  MISS %:   0.787152   MPKI: 0.004835
L2C PREFETCH  REQUESTED:          0  ISSUED:          0  USEFUL:      18420  USELESS:     285009
L2C USEFUL LOAD PREFETCHES:      18420 PREFETCH ISSUED TO LOWER LEVEL:     303163  ACCURACY: 6.07594
L2C TIMELY PREFETCHES:      18420 LATE PREFETCHES: 0 DROPPED PREFETCHES: 0
L2C PREFETCHES SAME FILL-ORIGIN LEVEL: 0 DIFFERENT FILL-ORIGIN LEVEL: 0
L2C AVERAGE MISS LATENCY: 41.774 cycles
L2C RQ	ACCESS:   16413021	FORWARD:          0	MERGED:          0	TO_CACHE:   16412975
L2C WQ	ACCESS:     882574	FORWARD:         47	MERGED:          0	TO_CACHE:     882574
L2C PQ	ACCESS:    3465857	FORWARD:          0	MERGED:          0	TO_CACHE:    3465856

L2C Instructions Evicting Data 631174
L2C Translations Evicting Data 61557
L2C Data Evicting Data 444794
L2C Instructions Evicting Instructions 882236
L2C Translations Evicting Instructions 88570
L2C Data Evicting Instructions 609088
L2C Instructions Evicting Translations 87545
L2C Translations Evicting Translations 7288
L2C Data Evicting Translations 60468
L2C Dense regions hint from L2: 0
PSCL5 TOTAL     ACCESS:     389962  HIT:     389962  MISS:          0  HIT %:        100  MISS %:          0   MPKI: 0
PSCL5 LOAD TRANSLATION ACCESS:     312035  HIT:     312035  MISS:          0  HIT %:        100  MISS %:          0   MPKI: 0
PSCL5 TRANSLATION FROM L1D PREFETCHER ACCESS:      77927  HIT:      77927  MISS:          0  HIT %:        100  MISS %:          0   MPKI: 0
PSCL5 PREFETCH  REQUESTED:          0  ISSUED:          0  USEFUL:          0  USELESS:          0
PSCL5 USEFUL LOAD PREFETCHES:          0 PREFETCH ISSUED TO LOWER LEVEL:          0  ACCURACY: -nan
PSCL5 TIMELY PREFETCHES:          0 LATE PREFETCHES: 0 DROPPED PREFETCHES: 0
PSCL5 PREFETCHES SAME FILL-ORIGIN LEVEL: 0 DIFFERENT FILL-ORIGIN LEVEL: 0

PSCL4 TOTAL     ACCESS:     364507  HIT:     363763  MISS:        744  HIT %:    99.7959  MISS %:   0.204111   MPKI: 0.00372
PSCL4 LOAD TRANSLATION ACCESS:     291750  HIT:     291006  MISS:        744  HIT %:     99.745  MISS %:   0.255013   MPKI: 0.00372
PSCL4 TRANSLATION FROM L1D PREFETCHER ACCESS:      72757  HIT:      72757  MISS:          0  HIT %:        100  MISS %:          0   MPKI: 0
PSCL4 PREFETCH  REQUESTED:          0  ISSUED:          0  USEFUL:          0  USELESS:          0
PSCL4 USEFUL LOAD PREFETCHES:          0 PREFETCH ISSUED TO LOWER LEVEL:          0  ACCURACY: -nan
PSCL4 TIMELY PREFETCHES:          0 LATE PREFETCHES: 0 DROPPED PREFETCHES: 0
PSCL4 PREFETCHES SAME FILL-ORIGIN LEVEL: 0 DIFFERENT FILL-ORIGIN LEVEL: 0

PSCL3 TOTAL     ACCESS:     387542  HIT:     385109  MISS:       2433  HIT %:    99.3722  MISS %:   0.627803   MPKI: 0.012165
PSCL3 LOAD TRANSLATION ACCESS:     309621  HIT:     307188  MISS:       2433  HIT %:    99.2142  MISS %:   0.785799   MPKI: 0.012165
PSCL3 TRANSLATION FROM L1D PREFETCHER ACCESS:      77921  HIT:      77921  MISS:          0  HIT %:        100  MISS %:          0   MPKI: 0
PSCL3 PREFETCH  REQUESTED:          0  ISSUED:          0  USEFUL:          0  USELESS:          0
PSCL3 USEFUL LOAD PREFETCHES:          0 PREFETCH ISSUED TO LOWER LEVEL:          0  ACCURACY: -nan
PSCL3 TIMELY PREFETCHES:          0 LATE PREFETCHES: 0 DROPPED PREFETCHES: 0
PSCL3 PREFETCHES SAME FILL-ORIGIN LEVEL: 0 DIFFERENT FILL-ORIGIN LEVEL: 0

PSCL2 TOTAL     ACCESS:     345368  HIT:     264185  MISS:      81183  HIT %:    76.4938  MISS %:    23.5062   MPKI: 0.405915
PSCL2 LOAD TRANSLATION ACCESS:     312362  HIT:     231179  MISS:      81183  HIT %:      74.01  MISS %:      25.99   MPKI: 0.405915
PSCL2 TRANSLATION FROM L1D PREFETCHER ACCESS:      33006  HIT:      33006  MISS:          0  HIT %:        100  MISS %:          0   MPKI: 0
PSCL2 PREFETCH  REQUESTED:          0  ISSUED:          0  USEFUL:          0  USELESS:          0
PSCL2 USEFUL LOAD PREFETCHES:          0 PREFETCH ISSUED TO LOWER LEVEL:          0  ACCURACY: -nan
PSCL2 TIMELY PREFETCHES:          0 LATE PREFETCHES: 0 DROPPED PREFETCHES: 0
PSCL2 PREFETCHES SAME FILL-ORIGIN LEVEL: 0 DIFFERENT FILL-ORIGIN LEVEL: 0

LLC TOTAL     ACCESS:    3218331  HIT:    3001371  MISS:     216960  HIT %:    93.2586  MISS %:    6.74138   MPKI: 1.0848
LLC LOAD      ACCESS:    2291500  HIT:    2163387  MISS:     128113  HIT %:    94.4092  MISS %:    5.59079   MPKI: 0.640565
LLC RFO       ACCESS:     120640  HIT:      88364  MISS:      32276  HIT %:     73.246  MISS %:     26.754   MPKI: 0.16138
LLC PREFETCH  ACCESS:     303163  HIT:     253747  MISS:      49416  HIT %:    83.6999  MISS %:    16.3001   MPKI: 0.24708
AGUS PREFETCH L1 MISS: 0
LLC WRITEBACK ACCESS:     345613  HIT:     342389  MISS:       3224  HIT %:    99.0672  MISS %:   0.932835   MPKI: 0.01612
LLC LOAD TRANSLATION ACCESS:     156448  HIT:     152570  MISS:       3878  HIT %:    97.5212  MISS %:    2.47878   MPKI: 0.01939
LLC TRANSLATION FROM L1D PREFETCHER ACCESS:        967  HIT:        914  MISS:         53  HIT %:    94.5191  MISS %:    5.48087   MPKI: 0.000265
LLC PREFETCH  REQUESTED:          0  ISSUED:          0  USEFUL:       2518  USELESS:      42613
LLC USEFUL LOAD PREFETCHES:       2518 PREFETCH ISSUED TO LOWER LEVEL:      49416  ACCURACY: 5.09552
LLC TIMELY PREFETCHES:       2518 LATE PREFETCHES: 0 DROPPED PREFETCHES: 0
LLC PREFETCHES SAME FILL-ORIGIN LEVEL: 0 DIFFERENT FILL-ORIGIN LEVEL: 0
LLC AVERAGE MISS LATENCY: 162.913 cycles
LLC RQ	ACCESS:    2569557	FORWARD:          0	MERGED:          0	TO_CACHE:    2569555
LLC WQ	ACCESS:     345613	FORWARD:          2	MERGED:          0	TO_CACHE:     345613
LLC PQ	ACCESS:     303163	FORWARD:          0	MERGED:          0	TO_CACHE:     303163

LLC Dense regions hint to LLC: 0

RAW hits: 2236180
Loads Generated: 56292824
Loads sent to L1D: 54056638
Stores Generated: 18064423
Stores sent to L1D: 18064452
Major fault: 0 Minor fault: 4241
Allocated PAGES: 4241
ucb ended
-----------------------------------------------------------------------------------------------------------------------------------------------------------------------------------------------------
Offsets elements: 1 4398022799886 -4398022799886 -4398022799887 35 4398027195940 -4396090 -4398022799850 4398022799850 4125902 -4125898 -1 4449561 -8349 -50565 -1133932 1192846 -1133931 1135239 30 1204 -4393135 4551295 -372358 -922275 1192883 -54103 7816 2 -1161558 -4398026046802 4398027196142 -4398027196139 4398022805042 3256717 158160 -4551295 4178937 270608 -4449600 4391820 -4398027196865 -2 4398022805040 -4398022805039 4398022805037 -4398022805037 4398022805038 4398027196752 -4391714 3256719 1135090 3690 -1162201 -4398026041602 4398027190537 -4390050 4125898 265907 -4398027204913 4398027212729 -1162196 -4398026041893 4398027190843 1529 5419 -271116 -4398026935316 4398027205503 -4396088 4125901 -4125900 4395497 4398022805039 -4398022805042 4398027196140 -4398027200511 4398027201236 4398022805041 -4398022805038 -4398022809415 4377 4398027201126 -4398022809413 4398022809413 4 4125899 323662 -1192845 1184496 -49257 -1135268 1133930 2542 -922274 1192882 7818 3 4398027196139 -4391097 3256718 1135238 -55 4178992 212828 57780 -4398027254645 1135089 -3241115 3241115 -4390048 -4398027201225 4398027204915 -277416 265697 -4398027201015 4398027206434 -929 -1154967 -264168 -4391100 4398027196865 -4398027201238 4398027200513 -4398027196140 -4398022809417 4379 -4398027205505 4398027205505 4398022809415 -1192844 1184495 3256663 922274 -57780 3256720 1135088 -1146597 -15601 -4398026041898 4398022800780 4125900 264150 -4398022809419 4398027201224 -4398027201014 4398027206433 -1155896 6019 -270187 -4398022809414 4398022809414 -1135267 1133929 3256664 922273 1135237 884785 -4398026926387 4398022800489 -1757 5447 884780 -1150479 -8642 -6019 -4390069 -4398027201237 4398027200512 -4398022809416 4378 4398027205504 -1192843 1184494 -1135266 1133928 -922272 1192880 1135236 3256721 1135087 -1162199 -3241117 3241117 884783 -4398026926298 4398022800400 -4398022809418 4398027201223 -8641 4398027206432 -4398027201236 4398027200511 -1192842 1184493 -1135265 1133927 -922271 1192879 -1160926 95573 -4398026137853 4398027190988 1135235 -1111638 -4398026137854 4398022799889 4398022799885 -4398022799885 4398027191600 3256722 1135086 -4398022799851 4398027191656 4398026926675 -1529 -4398027189917 3337965 1053858 -4398027191669 4398027190944 -1053133 4398026137854 -3337964 -4398022799848 -38 4398027195974 -4398022799846 4398027195936 4398022799846 -1192841 1184492 -1184492 -4390646 1192841 8349 -58914 58914 -1184491 1192840 -1133925 1192839 -1192839 1184490 -1192838 1184489 -1133924 1135232 3256669 922268 216505 7819 46284 -46287 -1162010 -4398026041111 4398027190900 3256724 -4398027249406 4398022799801 -4398022799799 4398022799799 4398027191514 3256726 1135082 -1146591 -15610 4398022800487 -4398022799787 4398027191592 -4398027191382 4398027196801 -1162011 -4398022799803 4398027191626 -4398027191605 4398027190880 -4398027190901 4398022799802 -4398022799784 -16 4398027195888 -4398022799782 4398027195872 4398022799782 -1135261 1133923 -922267 1192875 -1161526 57766 1091539 3256725 1135231 -1150045 -3299559 3299557 -3299558 3299562 -3299563 3299563 1092152 -1134988 -3256726 4391808 -4391808 1138772 4391805 -4398027195578 4398027193821 -4398027195368 4398027200787 3299558 -4398026103327 4398027195592 -725 -1091540 -4398022803771 4398026103333 1096526 -4398022803769 4398027199859 4398022803769 -1192837 1184488 -1135260 1133922 -922266 1192874 -3 1091542 1135230 -3299560 3256727 1135081 -1162184 -3241132 -884768 -4398026041276 4398022800146 -4398022803772 4398027195577 4490 -4398027199857 4398027200786 1092265 -4398027195590 4398027194865 4398026103331 -4398022803767 4398027199857 4398022803767 -1192836 1184487 -1135259 1133921 -922265 1192873 -1161602 -4398026041426 4398027190807 1135229 -4398027249313 4398022799708 -4398022799706 4398022799704 -4398022799704 4398022799705 4391715 -4398027191419 3256728 -3256728 1135080 -4398027195165 4398027202983 -4398027191265 4398027196684 -4398022799710 4398027191533 -4398027191488 4398027190763 -4398027190808 4398022799709 -4398022799667 4398027195793 -4398022799665 4398027195755 4398022799665 -1192835 1184486 -57606 49227 -1184486 1136463 -2542 160702 -1161859 -4398026042342 4398027191979 -4398027250485 4398022800880 -4398022800878 4398022800878 4398027192593 3256729 1135079 -1135079 1138769 -1162198 -3241118 3241118 884782 -4398026926680 4398022800782 -4398022800862 4398027192667 -85 4398027197876 -6948 -1161858 -4398022800882 4398027192705 -4398027192681 4398027191956 -4398027191980 -4398022800860 -19 4398027196967 -4398022800858 4398027196948 4398022800857 -1135258 1133920 -922264 1192872 1135228 -4398022800861 4398027192666 -84 4398027197875 -4398027192679 4398027191954 4398022800881 -21 -4398022800856 4398027196946 4398022800856 -1192834 1184485 -1135257 1133919 -922263 1192871 1135227 3256730 1135078 4398027192665 -83 4398027197874 4398022800879 21 -4398022800855 4398027196945 4398022800855 -1192833 1184484 -4449560 4396084 53475 -53 4427100 -4427101 4449560 -22460 -35384 4996 30388 -4427100 -5829142 5824729 1428 -1428 -4393099 4391980 165314 -4557219 4557219 -8 8 4557337 -126 125 -117 -6022528 6022528 4555747 1464 -6022645 6022520 128 -4557414 4396085 42421 27264 -5898830 5824730 -4391671 4393099 -1119 126 -4557337 4557211 117 6021056 -4557211 4557336 -125 -118781 -5903739 1465234 4557414 -4557415 4438508 27265 -69687 -5829143 6022648 -118907 -4465771 -4413 -5321815 5321815 -165615 -4391596 4393024 164313 -5334519 5332930 -5215613 777108 -5160614 5156201 1472 -5160615 5156202 -5829138 5824725 4391671 -4391672 4391981 -164195 -4393024 -5829139 5824726 -5912313 5913741 -6088184 6086595 -5969278 1530773 -5916727 5912314 -5916728 5912315 -5916730 5912317 -5916732 5912319 -5913504 6078818 -5824658 1432987 -5829072 5824659 -5829082 5824669 -27266 118789 -4557295 4438505 24 118755 -118755 -4438530 -5829101 5824688 165743 -164315 -165623 164187 118 -5829127 5824714 -6022520 -118908 -27264 -4438507 -4438506 4391672 309 -161210 -5829128 5826143 164195 5824715 -5829129 5824716 -5829130 5824717 -46836 5826145 -5829131 5824718 -5829132 5824719 -5829135 5824722 5826150 -5829136 5824723 -5829137 5824724 -5990493 5990493 5913747 -5912663 6077977 -5916770 5912357 -5913195 5914623 -5829285 5824872 4465771 4104 -5829295 5990505 -5829305 5824892 -5829308 5824895 -5825441 5990755 -118909 -4438505 4438506 -4465772 4413 -5829548 5826563 -5829554 5825141 -5829555 5825142 -5829557 5825144 -5988246 5988246 -5989881 5988292 -5989756 5870975 74100 -5827038 5824053 -5870975 1432470 5822625 -5827040 5822627 -5827041 5822628 -46835 -2985 -5988503 5988503 -5827294 5822881 -5827295 5822882 -5906922 1349711 -5924343 5922754 -5805437 1366932 -5745720 5741307 4557286 -161330 73791 91523 -5606801 5441186 -5629430 5627841 -5510524 1072019 -5445599 -5155479 5156907 -5334394 5334522 -4557218 4438430 -4438508 4438509 118779 -118680 118806 -5334523 5334405 -91475 85787 -85787 -4465823 54 -52 27314 91465 -118779 118905 -118806 -5215717 188 5334206 -5334520 5334432 -5334242 5334203 38 -5334240 5334240 -5334206 5334244 -91504 91466 -2359296 478 7601749 -8257092 8257093 -4465826 4465826 -4465825 4465824 -118805 5334397 5334520 -5334332 5334433 -4557328 118904 -188 -5334241 -4557329 4465825 4438512 4438607 777103 4557328 -4557330 -27314 27313 -4465821 -776916 5215522 -4557290 4557413 -118904 -118807 -5215713 191 5242929 91590 -87 91505 -39 5334329 5334394 5215427 118818 -4557326 4557325 -91503 -118681 -5334203 5334328 4557329 776915 -4557325 -5334522 777107 -5215427 5334331 27216 91503 91591 -86 -5334436 -5334329 776912 4557412 118681 -5334397 776914 5334204 4438606 -4557291 -777103 5215615 4465821 -118721 118807 -5334330 -118808 27217 4557290 -5242739 5242738 -4465822 -27216 -193 -4557287 97 -5215712 190 5334330 -118682 -5334204 5334523 776916 -777104 -27313 4557326 118808 4438604 4557287 -118683 -776917 5215521 -4557417 -118722 5215425 118683 -5924346 5924221 -5924218 5924344 -5924344 256 5924001 -5923997 5923959 -5923996 5923996 -5923962 5924000 -91592 -5242931 -589824 -2424337 3791267 5924218 5924088 5924257 -118809 -5924221 5924346 -5924088 -256 1366671 118817 -1366672 118810 1366931 -5805183 5924087 
Potential of Offsets elements: 4003.1 28.5193 28.5193 28.5193 28.5193 28.5193 28.5193 28.5193 28.5193 28.5193 28.5193 1996.2 28.5193 28.5193 28.5193 28.5193 28.5193 28.5193 28.5193 366.519 32.5193 53.5193 77.5193 128.519 28.5193 28.5193 76.5193 160.519 2294.52 28.5193 28.5193 28.5193 28.5193 28.5193 28.5193 44.5193 64.5193 44.5193 44.5193 28.5193 28.5193 28.5193 3392.52 28.5193 28.5193 28.5193 28.5193 28.5193 28.5193 28.5193 28.5193 28.5193 28.5193 28.5193 28.5193 28.5193 28.5193 28.5193 28.5193 28.5193 28.5193 28.5193 28.5193 28.5193 28.5193 28.5193 28.5193 28.5193 28.5193 28.5193 28.5193 28.5193 28.5193 28.5193 28.5193 28.5193 28.5193 28.5193 28.5193 28.5193 28.5193 28.5193 28.5193 28.5193 28.5193 58.5193 28.5193 28.5193 28.5193 28.5193 28.5193 28.5193 28.5193 28.5193 28.5193 28.5193 37.5193 178.519 28.5193 28.5193 28.5193 28.5193 34.5193 28.5193 28.5193 28.5193 28.5193 28.5193 28.5193 28.5193 28.5193 28.5193 28.5193 28.5193 28.5193 28.5193 28.5193 28.5193 28.5193 28.5193 28.5193 28.5193 28.5193 28.5193 28.5193 28.5193 28.5193 28.5193 28.5193 28.5193 28.5193 28.5193 28.5193 28.5193 28.5193 28.5193 28.5193 28.5193 28.5193 28.5193 28.5193 28.5193 28.5193 28.5193 28.5193 28.5193 28.5193 28.5193 28.5193 28.5193 28.5193 28.5193 28.5193 28.5193 28.5193 28.5193 28.5193 28.5193 28.5193 28.5193 28.5193 28.5193 28.5193 28.5193 28.5193 28.5193 28.5193 28.5193 28.5193 28.5193 28.5193 28.5193 28.5193 28.5193 28.5193 28.5193 28.5193 28.5193 28.5193 28.5193 28.5193 28.5193 28.5193 28.5193 28.5193 28.5193 28.5193 28.5193 28.5193 28.5193 28.5193 28.5193 28.5193 28.5193 28.5193 28.5193 28.5193 28.5193 28.5193 28.5193 28.5193 28.5193 28.5193 28.5193 28.5193 28.5193 28.5193 28.5193 28.5193 28.5193 28.5193 28.5193 28.5193 28.5193 28.5193 28.5193 28.5193 28.5193 28.5193 28.5193 28.5193 28.5193 28.5193 28.5193 28.5193 28.5193 28.5193 28.5193 28.5193 28.5193 28.5193 28.5193 28.5193 28.5193 28.5193 28.5193 28.5193 28.5193 28.5193 28.5193 28.5193 28.5193 28.5193 28.5193 28.5193 28.5193 28.5193 28.5193 28.5193 28.5193 28.5193 28.5193 28.5193 28.5193 28.5193 28.5193 28.5193 28.5193 28.5193 28.5193 28.5193 28.5193 28.5193 28.5193 28.5193 28.5193 28.5193 28.5193 28.5193 28.5193 28.5193 28.5193 28.5193 28.5193 28.5193 28.5193 28.5193 28.5193 28.5193 28.5193 312.519 28.5193 28.5193 28.5193 28.5193 28.5193 28.5193 28.5193 28.5193 28.5193 28.5193 28.5193 28.5193 28.5193 28.5193 28.5193 28.5193 28.5193 28.5193 28.5193 28.5193 28.5193 28.5193 28.5193 28.5193 28.5193 28.5193 28.5193 28.5193 28.5193 28.5193 28.5193 28.5193 28.5193 28.5193 28.5193 28.5193 28.5193 28.5193 28.5193 28.5193 28.5193 28.5193 28.5193 28.5193 28.5193 28.5193 28.5193 28.5193 1271.52 28.5193 28.5193 28.5193 28.5193 28.5193 28.5193 28.5193 28.5193 28.5193 28.5193 28.5193 28.5193 28.5193 28.5193 28.5193 28.5193 28.5193 28.5193 28.5193 28.5193 28.5193 28.5193 28.5193 28.5193 28.5193 28.5193 28.5193 28.5193 28.5193 28.5193 28.5193 28.5193 28.5193 28.5193 28.5193 28.5193 28.5193 28.5193 28.5193 28.5193 28.5193 28.5193 28.5193 28.5193 28.5193 28.5193 28.5193 28.5193 28.5193 28.5193 28.5193 28.5193 28.5193 28.5193 28.5193 28.5193 28.5193 28.5193 28.5193 28.5193 28.5193 28.5193 28.5193 28.5193 28.5193 28.5193 28.5193 28.5193 28.5193 28.5193 28.5193 28.5193 28.5193 28.5193 28.5193 28.5193 28.5193 28.5193 28.5193 28.5193 28.5193 28.5193 28.5193 28.5193 28.5193 28.5193 28.5193 28.5193 28.5193 28.5193 28.5193 28.5193 28.5193 28.5193 28.5193 28.5193 61.5193 28.5193 28.5193 28.5193 28.5193 28.5193 28.5193 28.5193 28.5193 28.5193 28.5193 28.5193 28.5193 28.5193 28.5193 28.5193 28.5193 2056.52 28.5193 28.5193 28.5193 28.5193 28.5193 28.5193 28.5193 28.5193 28.5193 28.5193 28.5193 28.5193 28.5193 32.5193 28.5193 28.5193 35.5193 28.5193 28.5193 28.5193 28.5193 28.5193 28.5193 28.5193 28.5193 28.5193 28.5193 28.5193 28.5193 28.5193 28.5193 28.5193 28.5193 28.5193 28.5193 28.5193 28.5193 28.5193 28.5193 28.5193 28.5193 28.5193 28.5193 340.519 620.519 28.5193 28.5193 28.5193 28.5193 28.5193 28.5193 28.5193 28.5193 28.5193 28.5193 28.5193 28.5193 28.5193 28.5193 28.5193 28.5193 28.5193 28.5193 28.5193 28.5193 28.5193 28.5193 28.5193 28.5193 28.5193 28.5193 28.5193 28.5193 28.5193 28.5193 28.5193 28.5193 28.5193 28.5193 28.5193 28.5193 28.5193 28.5193 28.5193 28.5193 28.5193 28.5193 28.5193 28.5193 28.5193 28.5193 28.5193 28.5193 28.5193 28.5193 28.5193 28.5193 28.5193 28.5193 28.5193 28.5193 28.5193 28.5193 28.5193 28.5193 28.5193 28.5193 28.5193 28.5193 28.5193 28.5193 28.5193 28.5193 28.5193 28.5193 28.5193 28.5193 28.5193 28.5193 28.5193 28.5193 28.5193 28.5193 28.5193 28.5193 28.5193 28.5193 28.5193 28.5193 28.5193 28.5193 28.5193 28.5193 28.5193 28.5193 28.5193 47.5193 28.5193 28.5193 28.5193 28.5193 28.5193 28.5193 28.5193 28.5193 28.5193 28.5193 28.5193 28.5193 28.5193 28.5193 28.5193 28.5193 28.5193 28.5193 28.5193 28.5193 28.5193 28.5193 28.5193 28.5193 28.5193 28.5193 28.5193 28.5193 28.5193 28.5193 28.5193 28.5193 28.5193 28.5193 28.5193 28.5193 28.5193 28.5193 28.5193 28.5193 28.5193 28.5193 28.5193 28.5193 28.5193 28.5193 28.5193 28.5193 28.5193 28.5193 28.5193 28.5193 28.5193 28.5193 28.5193 28.5193 28.5193 28.5193 28.5193 28.5193 28.5193 28.5193 28.5193 28.5193 28.5193 28.5193 28.5193 28.5193 28.5193 28.5193 28.5193 28.5193 28.5193 28.5193 28.5193 28.5193 28.5193 28.5193 28.5193 28.5193 28.5193 28.5193 28.5193 28.5193 28.5193 28.5193 28.5193 28.5193 28.5193 28.5193 28.5193 28.5193 28.5193 28.5193 28.5193 28.5193 28.5193 28.5193 28.5193 28.5193 28.5193 28.5193 28.5193 28.5193 28.5193 28.5193 28.5193 28.5193 28.5193 28.5193 28.5193 28.5193 28.5193 28.5193 28.5193 28.5193 28.5193 28.5193 28.5193 28.5193 28.5193 28.5193 28.5193 28.5193 28.5193 28.5193 28.5193 28.5193 28.5193 28.5193 28.5193 28.5193 28.5193 28.5193 28.5193 1629.52 652.519 28.5193 28.5193 28.5193 28.5193 28.5193 28.5193 28.5193 28.5193 28.5193 28.5193 28.5193 28.5193 41.5193 28.5193 28.5193 28.5193 28.5193 28.5193 28.5193 28.5193 28.5193 28.5193 28.5193 28.5193 28.5193 28.5193 28.5193 28.5193 28.5193 28.5193 28.5193 28.5193 28.5193 28.5193 28.5193 28.5193 28.5193 28.5193 28.5193 28.5193 28.5193 28.5193 28.5193 28.5193 28.5193 28.5193 28.5193 28.5193 28.5193 28.5193 28.5193 28.5193 28.5193 28.5193 28.5193 28.5193 28.5193 30.5193 28.5193 28.5193 28.5193 28.5193 28.5193 28.5193 28.5193 28.5193 28.5193 28.5193 28.5193 28.5193 28.5193 28.5193 28.5193 28.5193 28.5193 28.5193 28.5193 28.5193 28.5193 28.5193 28.5193 28.5193 28.5193 28.5193 28.5193 28.5193 28.5193 28.5193 28.5193 28.5193 28.5193 28.5193 28.5193 28.5193 28.5193 28.5193 28.5193 28.5193 28.5193 28.5193 28.5193 28.5193 28.5193 28.5193 32.5193 28.5193 28.5193 28.5193 28.5193 28.5193 28.5193 28.5193 28.5193 28.5193 28.5193 28.5193 28.5193 28.5193 28.5193 28.5193 28.5193 28.5193 28.5193 28.5193 28.5193 28.5193 28.5193 28.5193 28.5193 28.5193 28.5193 28.5193 28.5193 28.5193 28.5193 28.5193 28.5193 28.5193 28.5193 28.5193 28.5193 28.5193 28.5193 28.5193 28.5193 28.5193 28.5193 28.5193 28.5193 28.5193 28.5193 28.5193 28.5193 28.5193 28.5193 28.5193 28.5193 28.5193 28.5193 28.5193 
rewards of Offsets elements: 4003 0 0 0 0 0 0 0 0 0 0 1992 0 0 0 0 0 0 0 338 4 25 49 100 0 0 48 132 2266 0 0 0 0 0 0 16 36 16 16 0 0 0 3364 0 0 0 0 0 0 0 0 0 0 0 0 0 0 0 0 0 0 0 0 0 0 0 0 0 0 0 0 0 0 0 0 0 0 0 0 0 0 0 0 0 0 30 0 0 0 0 0 0 0 0 0 0 9 150 0 0 0 0 6 0 0 0 0 0 0 0 0 0 0 0 0 0 0 0 0 0 0 0 0 0 0 0 0 0 0 0 0 0 0 0 0 0 0 0 0 0 0 0 0 0 0 0 0 0 0 0 0 0 0 0 0 0 0 0 0 0 0 0 0 0 0 0 0 0 0 0 0 0 0 0 0 0 0 0 0 0 0 0 0 0 0 0 0 0 0 0 0 0 0 0 0 0 0 0 0 0 0 0 0 0 0 0 0 0 0 0 0 0 0 0 0 0 0 0 0 0 0 0 0 0 0 0 0 0 0 0 0 0 0 0 0 0 0 0 0 0 0 0 0 0 0 0 0 0 0 0 0 0 0 0 0 0 0 0 0 0 0 0 0 0 0 0 0 0 0 0 0 0 0 0 0 0 0 0 0 0 284 0 0 0 0 0 0 0 0 0 0 0 0 0 0 0 0 0 0 0 0 0 0 0 0 0 0 0 0 0 0 0 0 0 0 0 0 0 0 0 0 0 0 0 0 0 0 0 0 1243 0 0 0 0 0 0 0 0 0 0 0 0 0 0 0 0 0 0 0 0 0 0 0 0 0 0 0 0 0 0 0 0 0 0 0 0 0 0 0 0 0 0 0 0 0 0 0 0 0 0 0 0 0 0 0 0 0 0 0 0 0 0 0 0 0 0 0 0 0 0 0 0 0 0 0 0 0 0 0 0 0 0 0 0 0 0 0 0 0 0 0 0 0 0 0 0 33 0 0 0 0 0 0 0 0 0 0 0 0 0 0 0 0 2028 0 0 0 0 0 0 0 0 0 0 0 0 0 4 0 0 7 0 0 0 0 0 0 0 0 0 0 0 0 0 0 0 0 0 0 0 0 0 0 0 0 0 0 312 592 0 0 0 0 0 0 0 0 0 0 0 0 0 0 0 0 0 0 0 0 0 0 0 0 0 0 0 0 0 0 0 0 0 0 0 0 0 0 0 0 0 0 0 0 0 0 0 0 0 0 0 0 0 0 0 0 0 0 0 0 0 0 0 0 0 0 0 0 0 0 0 0 0 0 0 0 0 0 0 0 0 0 0 0 0 0 0 0 0 0 0 19 0 0 0 0 0 0 0 0 0 0 0 0 0 0 0 0 0 0 0 0 0 0 0 0 0 0 0 0 0 0 0 0 0 0 0 0 0 0 0 0 0 0 0 0 0 0 0 0 0 0 0 0 0 0 0 0 0 0 0 0 0 0 0 0 0 0 0 0 0 0 0 0 0 0 0 0 0 0 0 0 0 0 0 0 0 0 0 0 0 0 0 0 0 0 0 0 0 0 0 0 0 0 0 0 0 0 0 0 0 0 0 0 0 0 0 0 0 0 0 0 0 0 0 0 0 0 0 0 0 0 0 0 0 0 0 1601 624 0 0 0 0 0 0 0 0 0 0 0 0 13 0 0 0 0 0 0 0 0 0 0 0 0 0 0 0 0 0 0 0 0 0 0 0 0 0 0 0 0 0 0 0 0 0 0 0 0 0 0 0 0 0 0 0 0 2 0 0 0 0 0 0 0 0 0 0 0 0 0 0 0 0 0 0 0 0 0 0 0 0 0 0 0 0 0 0 0 0 0 0 0 0 0 0 0 0 0 0 0 0 0 0 4 0 0 0 0 0 0 0 0 0 0 0 0 0 0 0 0 0 0 0 0 0 0 0 0 0 0 0 0 0 0 0 0 0 0 0 0 0 0 0 0 0 0 0 0 0 0 0 0 0 0 0 0 0 0 0 Printing Sanity3
offset_index value878
offset list size878
reward size878
potential size878
-----------------------------------------------------------------------------------------------------------------------------------------------------------------------------------------------------

DRAM Statistics
 CHANNEL 0
 RQ ROW_BUFFER_HIT:      47617  ROW_BUFFER_MISS:     166119
 DBUS_CONGESTED:         77
 WQ ROW_BUFFER_HIT:      18222  ROW_BUFFER_MISS:     122775  FULL:          0

 AVG_CONGESTED_CYCLE: 3
 All warmup complete: 2
Channel 0 Bank busy for read cycles: 0
Channel 0 Bank busy for write cycles: 0
Channel 0
Rank 0
0banks busy for read cycles: 546685091
0banks busy for write cycles: 75418
1banks busy for read cycles: 16594138
1banks busy for write cycles: 10155415
2banks busy for read cycles: 2910167
2banks busy for write cycles: 2509128
3banks busy for read cycles: 577770
3banks busy for write cycles: 779869
4banks busy for read cycles: 203283
4banks busy for write cycles: 336227
5banks busy for read cycles: 93960
5banks busy for write cycles: 208965
6banks busy for read cycles: 63075
6banks busy for write cycles: 211176
7banks busy for read cycles: 54710
7banks busy for write cycles: 147354
8banks busy for read cycles: 147218
8banks busy for write cycles: 335713

CPU 0 Branch Prediction Accuracy: 99.8224% MPKI: 0.38789 Average ROB Occupancy at Mispredict: 28.4718
Branch types
NOT_BRANCH: 156307769 78.1539%
BRANCH_DIRECT_JUMP: 1685269 0.842634%
BRANCH_INDIRECT: 19828017 9.91401%
BRANCH_CONDITIONAL: 14737479 7.36874%
BRANCH_DIRECT_CALL: 2993939 1.49697%
BRANCH_INDIRECT_CALL: 724221 0.362111%
BRANCH_RETURN: 3723029 1.86151%
BRANCH_OTHER: 0 0%

DRAM PAGES: 1048576
Allocated PAGES: 4241
