
*** ChampSim Multicore Out-of-Order Simulator ***

Warmup Instructions: 50000000
Simulation Instructions: 200000000
Number of CPUs: 1
LLC sets: 2048
LLC ways: 16
Off-chip DRAM Size: 4096 MB Channels: 1 Width: 64-bit Data Rate: 6400 MT/s
CPU 0 runs traces/spec2k17/srv_20.champsimtrace.xz
.xz
BTB has LRU replacement policy
ITLB has LRU replacement policy
DTLB has LRU replacement policy
STLB has LRU replacement policy
L1I has LRU replacement policy
L1D has LRU replacement policy
Initialize SRRIP state for L2C
Initialize DRRIP state for LLC
Heartbeat CPU 0 instructions: 10000001 cycles: 2823963 heartbeat IPC: 3.54112 cumulative IPC: 3.54112 (Simulation time: 0 hr 0 min 37 sec) 
Heartbeat CPU 0 instructions: 20000003 cycles: 5639186 heartbeat IPC: 3.55212 cumulative IPC: 3.54661 (Simulation time: 0 hr 1 min 15 sec) 
Heartbeat CPU 0 instructions: 30000003 cycles: 8456711 heartbeat IPC: 3.54921 cumulative IPC: 3.54748 (Simulation time: 0 hr 1 min 52 sec) 
*** Reached end of trace for Core: 0 Repeating trace: traces/spec2k17/srv_20.champsimtrace.xz
Heartbeat CPU 0 instructions: 40000000 cycles: 11273993 heartbeat IPC: 3.54952 cumulative IPC: 3.54799 (Simulation time: 0 hr 2 min 29 sec) 
Heartbeat CPU 0 instructions: 50000003 cycles: 14089487 heartbeat IPC: 3.55178 cumulative IPC: 3.54875 (Simulation time: 0 hr 3 min 6 sec) 

Warmup complete CPU 0 instructions: 50000003 cycles: 14089487 (Simulation time: 0 hr 3 min 6 sec) 

Offsets elements: 
Potential of Offsets elements: 
rewards of Offsets elements: 
Printing Sanity1
offset list size2020
Offsets elements: 
Potential of Offsets elements: 
rewards of Offsets elements: 2597 0 15 1 0 0 0 125 477 327 0 186 76 36 84 0 0 0 194 8 0 325 8 0 0 10 0 0 0 36 2450 0 0 0 4254 0 92 0 0 28 1111 0 1126 0 0 0 0 0 0 1480 5 0 0 0 0 0 0 0 0 0 0 160 0 0 980 0 0 0 0 0 0 0 0 0 0 0 0 0 0 1 0 0 0 0 0 0 0 4 0 0 200 89 126 413 58 2 0 0 0 0 0 0 0 0 0 0 0 0 0 0 0 24 0 48 0 14 0 0 0 0 2 543 921 0 0 0 820 0 0 0 0 49 0 0 0 0 0 0 0 0 0 0 0 0 224 0 0 0 0 0 0 0 0 0 0 0 0 0 0 0 0 0 28 0 0 40 52 0 0 0 0 400 25 0 0 1413 0 0 2 0 0 0 0 0 0 288 0 0 37 2 0 0 0 0 0 0 0 0 162 0 195 0 0 0 0 0 83 0 0 0 0 0 0 0 0 0 0 0 0 0 0 32 0 0 0 0 0 0 0 0 0 0 0 0 0 0 0 0 0 0 0 0 0 0 0 0 0 917 0 0 0 0 0 0 0 0 0 727 0 0 0 0 0 0 0 0 0 1567 0 0 0 0 0 0 874 10 26 171 0 95 0 0 0 0 0 0 153 275 0 0 0 85 499 547 0 0 50 11 21 100 0 0 118 0 0 0 420 189 94 0 0 1 16 0 0 212 0 0 0 0 0 0 0 0 0 0 0 0 0 0 0 0 0 0 0 0 0 0 0 0 0 0 0 0 0 9 0 0 16 8 0 0 0 0 82 233 12 0 44 51 0 0 0 0 0 0 0 3 0 17 4 0 0 0 0 0 0 0 0 101 0 0 0 0 0 0 37 0 1 2 0 0 0 0 75 0 0 0 0 0 2 0 0 0 0 435 0 0 0 0 0 0 0 0 0 0 0 245 0 0 0 0 0 0 0 2 0 0 0 0 0 0 0 0 0 0 0 0 0 0 0 0 0 0 0 0 0 41 0 0 62 0 0 12 0 0 0 0 268 119 0 0 0 0 0 0 0 0 0 0 0 0 0 0 0 0 0 0 0 0 0 0 0 0 0 0 81 0 107 0 0 0 25 0 0 0 0 0 0 0 0 0 0 0 0 13 0 0 0 0 0 0 0 0 0 0 0 0 0 0 0 0 0 0 67 0 0 0 2 0 0 0 0 0 0 0 0 0 0 0 0 0 0 0 0 0 0 0 0 0 0 81 0 0 0 0 4 0 0 0 0 0 0 0 0 0 0 0 0 0 0 0 0 0 0 0 0 0 0 0 1 0 0 0 0 0 0 0 0 0 102 116 258 0 36 0 0 0 0 0 0 0 0 0 0 0 0 40 0 0 0 0 496 3 0 0 0 0 0 0 0 0 0 0 0 0 679 298 235 9 0 0 0 0 0 0 0 0 0 0 0 0 0 0 0 369 0 0 0 0 0 0 0 0 0 0 0 0 0 0 0 0 3 30 0 1 0 0 0 10 2 0 3 0 0 0 0 0 0 0 0 0 0 0 0 0 0 0 0 0 0 0 0 0 0 0 0 0 0 0 0 0 0 0 0 0 0 0 0 0 157 0 0 0 0 0 0 0 0 0 0 0 0 0 0 0 0 0 0 0 0 0 0 0 34 8 40 0 0 60 40 0 0 0 0 0 0 0 0 0 0 0 0 0 0 0 156 100 0 2 0 0 0 0 0 140 0 0 4 0 0 0 0 0 0 0 0 46 44 1518 0 0 0 0 0 0 0 0 0 0 0 0 0 0 0 0 0 0 396 0 0 0 0 0 0 0 0 0 0 0 0 0 0 0 0 0 0 0 0 0 0 0 481 0 0 0 0 0 0 0 0 0 0 0 0 0 0 0 0 0 0 0 0 0 0 63 39 60 143 170 114 0 0 0 0 0 0 0 0 0 0 0 0 0 0 0 0 0 0 0 0 0 0 0 0 0 0 0 0 0 0 0 0 0 4487 1406 0 0 0 0 0 0 0 0 0 0 0 0 0 0 0 0 0 0 0 0 0 0 0 0 0 0 0 0 1 0 0 0 0 118 13 0 0 0 0 0 0 0 0 0 100 165 39 0 0 0 0 0 0 0 0 0 0 0 0 0 0 0 0 0 0 0 1 0 0 0 0 0 210 0 0 0 0 0 0 0 0 0 0 0 0 51 70 0 0 0 0 0 0 0 0 0 0 0 16 0 0 0 0 0 0 0 0 0 0 0 0 0 0 0 0 0 0 12 55 28 3 0 0 0 0 0 0 0 0 0 0 0 0 0 0 0 0 1 0 419 0 0 0 0 318 0 0 0 0 25 0 0 0 0 0 0 0 327 0 0 0 0 0 12 0 0 0 0 0 92 364 87 0 0 0 0 0 0 0 0 0 0 0 0 0 0 10 0 0 0 0 0 0 0 0 0 0 0 0 0 0 0 0 0 0 0 0 0 0 64 0 0 0 0 0 0 0 0 0 9 115 0 0 0 0 0 0 0 164 0 0 0 0 0 0 0 0 0 0 42 0 54 0 80 75 0 0 0 0 0 0 0 0 0 0 0 0 0 0 0 60 56 0 0 0 0 0 293 0 0 0 0 0 0 0 0 0 0 0 0 65 138 0 0 0 0 0 0 0 0 0 0 0 0 0 0 0 0 0 0 0 0 0 0 0 0 0 0 0 1 0 2 0 0 0 0 246 0 0 22 0 0 0 0 0 0 0 0 0 0 12 0 198 0 0 0 0 0 0 0 0 0 0 0 0 0 0 0 0 0 0 0 0 0 0 0 0 0 0 7 0 0 0 0 0 0 170 0 0 0 0 0 0 0 0 0 0 0 0 0 0 0 0 0 0 0 0 0 14 9 0 0 0 0 0 0 0 0 0 0 0 0 0 93 1 0 0 0 0 0 0 0 0 0 0 0 0 0 0 168 0 54 0 0 0 0 0 0 0 0 0 0 0 0 0 0 0 0 0 0 0 0 0 7 0 0 0 0 0 0 0 0 0 0 0 2 0 53 0 52 245 0 29 46 0 0 57 543 0 0 0 0 0 0 1 0 0 0 0 0 120 4 12 1 0 0 0 0 0 0 0 0 0 0 0 0 0 0 0 0 45 0 0 0 0 0 0 0 0 0 0 0 0 0 0 0 0 0 0 0 0 0 0 0 0 0 0 0 0 0 0 0 4 0 0 0 0 0 1 0 0 0 20 0 0 0 2 0 0 0 0 0 0 0 0 0 0 0 0 0 0 0 0 6 185 0 0 0 0 0 0 0 0 0 0 0 0 0 0 0 0 0 0 58 96 40 0 0 0 12 76 0 0 0 1 0 0 0 19 0 0 0 0 0 0 0 0 0 0 0 0 0 0 0 0 0 6 0 0 0 0 0 0 0 0 0 0 3 0 0 0 0 0 0 0 52 30 0 0 0 0 0 0 0 0 0 0 0 0 0 0 0 0 0 0 0 20 0 0 0 0 0 0 0 0 0 0 0 0 0 0 0 0 0 0 0 0 0 0 2 0 0 0 0 0 0 0 0 0 0 0 0 0 0 0 0 0 0 0 0 0 0 0 0 0 0 67 0 0 0 0 0 0 0 0 0 0 3 0 0 0 0 0 0 0 0 0 0 0 0 0 0 182 61 21 0 3 0 0 0 6 0 0 0 0 0 0 0 0 0 0 0 0 0 0 0 0 0 0 0 0 0 0 0 0 0 0 0 0 0 0 0 0 0 0 0 0 0 0 0 0 0 0 0 0 0 0 0 0 0 0 0 0 0 0 0 0 0 0 0 0 0 0 0 0 0 0 0 0 0 0 0 0 0 0 0 0 0 0 0 0 0 0 0 0 0 0 0 0 0 0 0 0 0 0 0 0 0 0 0 0 11 0 0 117 56 22 0 58 0 0 0 0 0 0 0 0 0 0 0 0 0 0 0 0 2 0 74 44 39 0 8 90 0 0 0 0 0 0 0 0 0 0 0 0 0 0 0 0 1 5 756 15 0 0 0 0 0 0 0 0 0 0 6 0 0 0 0 0 0 0 0 0 0 0 0 0 0 0 0 13 1 0 0 0 0 0 0 0 26 0 0 0 0 0 0 0 0 0 0 0 0 0 0 0 0 0 12 0 0 0 0 0 0 0 0 0 0 0 0 0 0 0 0 0 0 0 0 0 0 0 0 0 0 0 0 0 0 0 0 0 0 0 0 0 0 0 0 0 0 0 0 0 27 0 0 0 0 4 0 0 0 0 0 0 0 0 0 0 0 0 0 0 0 0 0 0 0 0 0 0 0 0 0 0 0 0 0 0 0 0 0 0 0 0 0 0 0 0 0 0 0 0 0 0 0 0 0 0 0 0 0 0 0 0 39 441 291 0 0 0 0 10 144 0 0 0 0 0 0 0 0 0 0 0 0 0 0 0 0 0 0 0 0 0 0 0 0 0 0 0 0 0 93 0 0 0 0 0 0 0 0 0 69 0 0 0 0 0 0 0 0 0 0 0 0 0 0 0 0 0 0 0 0 0 125 0 0 0 0 0 0 0 0 
Printing Sanity2
Heartbeat CPU 0 instructions: 60000003 cycles: 46315338 heartbeat IPC: 0.31031 cumulative IPC: 0.31031 (Simulation time: 0 hr 4 min 9 sec) 
*** Reached end of trace for Core: 0 Repeating trace: traces/spec2k17/srv_20.champsimtrace.xz
Heartbeat CPU 0 instructions: 70000003 cycles: 78606702 heartbeat IPC: 0.30968 cumulative IPC: 0.309995 (Simulation time: 0 hr 5 min 20 sec) 
Heartbeat CPU 0 instructions: 80000000 cycles: 110773872 heartbeat IPC: 0.310876 cumulative IPC: 0.310288 (Simulation time: 0 hr 6 min 25 sec) 
Heartbeat CPU 0 instructions: 90000001 cycles: 143010504 heartbeat IPC: 0.310206 cumulative IPC: 0.310267 (Simulation time: 0 hr 7 min 33 sec) 
*** Reached end of trace for Core: 0 Repeating trace: traces/spec2k17/srv_20.champsimtrace.xz
Heartbeat CPU 0 instructions: 100000001 cycles: 175275514 heartbeat IPC: 0.309933 cumulative IPC: 0.310201 (Simulation time: 0 hr 8 min 42 sec) 
Heartbeat CPU 0 instructions: 110000000 cycles: 207510173 heartbeat IPC: 0.310225 cumulative IPC: 0.310205 (Simulation time: 0 hr 9 min 51 sec) 
Heartbeat CPU 0 instructions: 120000000 cycles: 239694155 heartbeat IPC: 0.310714 cumulative IPC: 0.310277 (Simulation time: 0 hr 11 min 0 sec) 
*** Reached end of trace for Core: 0 Repeating trace: traces/spec2k17/srv_20.champsimtrace.xz
Heartbeat CPU 0 instructions: 130000000 cycles: 271948686 heartbeat IPC: 0.310034 cumulative IPC: 0.310247 (Simulation time: 0 hr 12 min 7 sec) 
Heartbeat CPU 0 instructions: 140000000 cycles: 304213520 heartbeat IPC: 0.309935 cumulative IPC: 0.310212 (Simulation time: 0 hr 13 min 16 sec) 
Heartbeat CPU 0 instructions: 150000000 cycles: 336389700 heartbeat IPC: 0.310789 cumulative IPC: 0.31027 (Simulation time: 0 hr 14 min 22 sec) 
*** Reached end of trace for Core: 0 Repeating trace: traces/spec2k17/srv_20.champsimtrace.xz
Heartbeat CPU 0 instructions: 160000003 cycles: 368596968 heartbeat IPC: 0.310489 cumulative IPC: 0.31029 (Simulation time: 0 hr 15 min 29 sec) 
Heartbeat CPU 0 instructions: 170000001 cycles: 400936943 heartbeat IPC: 0.309215 cumulative IPC: 0.3102 (Simulation time: 0 hr 16 min 36 sec) 
Heartbeat CPU 0 instructions: 180000001 cycles: 432980290 heartbeat IPC: 0.312077 cumulative IPC: 0.310343 (Simulation time: 0 hr 17 min 41 sec) 
*** Reached end of trace for Core: 0 Repeating trace: traces/spec2k17/srv_20.champsimtrace.xz
Heartbeat CPU 0 instructions: 190000002 cycles: 465182810 heartbeat IPC: 0.310535 cumulative IPC: 0.310357 (Simulation time: 0 hr 18 min 47 sec) 
Heartbeat CPU 0 instructions: 200000000 cycles: 497504771 heartbeat IPC: 0.309387 cumulative IPC: 0.310292 (Simulation time: 0 hr 19 min 54 sec) 
Heartbeat CPU 0 instructions: 210000002 cycles: 529541392 heartbeat IPC: 0.312143 cumulative IPC: 0.310407 (Simulation time: 0 hr 21 min 1 sec) 
*** Reached end of trace for Core: 0 Repeating trace: traces/spec2k17/srv_20.champsimtrace.xz
Heartbeat CPU 0 instructions: 220000000 cycles: 561764444 heartbeat IPC: 0.310337 cumulative IPC: 0.310403 (Simulation time: 0 hr 22 min 6 sec) 
Heartbeat CPU 0 instructions: 230000000 cycles: 594064026 heartbeat IPC: 0.309602 cumulative IPC: 0.310358 (Simulation time: 0 hr 23 min 12 sec) 
Heartbeat CPU 0 instructions: 240000000 cycles: 626203376 heartbeat IPC: 0.311145 cumulative IPC: 0.3104 (Simulation time: 0 hr 24 min 19 sec) 
*** Reached end of trace for Core: 0 Repeating trace: traces/spec2k17/srv_20.champsimtrace.xz
Heartbeat CPU 0 instructions: 250000002 cycles: 658469062 heartbeat IPC: 0.309927 cumulative IPC: 0.310376 (Simulation time: 0 hr 25 min 26 sec) 
Finished CPU 0 instructions: 200000003 cycles: 644379576 cumulative IPC: 0.310376 (Simulation time: 0 hr 25 min 26 sec) 

ChampSim completed all CPUs

Region of Interest Statistics

CPU 0 cumulative IPC: 0.310376 instructions: 200000003 cycles: 644379576
ITLB TOTAL     ACCESS:   34713712  HIT:   32680028  MISS:    2033684  HIT %:    94.1416  MISS %:    5.85845   MPKI: 10.1684
ITLB LOAD TRANSLATION ACCESS:   34713712  HIT:   32680028  MISS:    2033684  HIT %:    94.1416  MISS %:    5.85845   MPKI: 10.1684
ITLB PREFETCH  REQUESTED:          0  ISSUED:          0  USEFUL:          0  USELESS:          0
ITLB USEFUL LOAD PREFETCHES:          0 PREFETCH ISSUED TO LOWER LEVEL:          0  ACCURACY: -nan
ITLB TIMELY PREFETCHES:          0 LATE PREFETCHES: 0 DROPPED PREFETCHES: 0
ITLB PREFETCHES SAME FILL-ORIGIN LEVEL: 0 DIFFERENT FILL-ORIGIN LEVEL: 0
ITLB AVERAGE MISS LATENCY: 9.03932 cycles
ITLB RQ	ACCESS:   40939763	FORWARD:          0	MERGED:    5742040	TO_CACHE:   35197723

DTLB TOTAL     ACCESS:   46493942  HIT:   44652203  MISS:    1841739  HIT %:    96.0388  MISS %:    3.96125   MPKI: 9.20869
DTLB LOAD TRANSLATION ACCESS:   46493942  HIT:   44652203  MISS:    1841739  HIT %:    96.0388  MISS %:    3.96125   MPKI: 9.20869
DTLB PREFETCH  REQUESTED:          0  ISSUED:          0  USEFUL:          0  USELESS:          0
DTLB USEFUL LOAD PREFETCHES:          0 PREFETCH ISSUED TO LOWER LEVEL:          0  ACCURACY: -nan
DTLB TIMELY PREFETCHES:          0 LATE PREFETCHES: 0 DROPPED PREFETCHES: 0
DTLB PREFETCHES SAME FILL-ORIGIN LEVEL: 0 DIFFERENT FILL-ORIGIN LEVEL: 0
DTLB AVERAGE MISS LATENCY: 9.17421 cycles
DTLB RQ	ACCESS:   61135920	FORWARD:          0	MERGED:   14577961	TO_CACHE:   46557959

STLB TOTAL     ACCESS:   11762232  HIT:   11753953  MISS:       8279  HIT %:    99.9296  MISS %:  0.0703863   MPKI: 0.041395
STLB LOAD TRANSLATION ACCESS:    3875423  HIT:    3867175  MISS:       8248  HIT %:    99.7872  MISS %:   0.212828   MPKI: 0.04124
STLB TRANSLATION FROM L1D PREFETCHER ACCESS:    7886809  HIT:    7886778  MISS:         31  HIT %:    99.9996  MISS %: 0.000393061   MPKI: 0.000155
STLB PREFETCH  REQUESTED:          0  ISSUED:          0  USEFUL:         31  USELESS:          0
STLB USEFUL LOAD PREFETCHES:         31 PREFETCH ISSUED TO LOWER LEVEL:          0  ACCURACY: inf
STLB TIMELY PREFETCHES:         31 LATE PREFETCHES: 243 DROPPED PREFETCHES: 7291
STLB PREFETCHES SAME FILL-ORIGIN LEVEL: 0 DIFFERENT FILL-ORIGIN LEVEL: 0
STLB AVERAGE MISS LATENCY: 45.8715 cycles
STLB RQ	ACCESS:   13305205	FORWARD:          0	MERGED:    1535424	TO_CACHE:   11769781

STLB Hit, L1D data hit: 0
STLB Hit, L2C data hit: 0
STLB Hit, LLC data hit: 0
STLB Hit, LLC data miss: 0
STLB STLB hints to L2: 0
L1D TOTAL     ACCESS:   68308874  HIT:   63570181  MISS:    4738693  HIT %:    93.0628  MISS %:    6.93716   MPKI: 23.6935
L1D LOAD      ACCESS:   34209845  HIT:   31469749  MISS:    2740096  HIT %:    91.9903  MISS %:    8.00967   MPKI: 13.7005
L1D RFO       ACCESS:   25019320  HIT:   23891983  MISS:    1127337  HIT %:    95.4941  MISS %:    4.50587   MPKI: 5.63668
L1D PREFETCH  ACCESS:    9079709  HIT:    8208449  MISS:     871260  HIT %:    90.4043  MISS %:    9.59568   MPKI: 4.3563
AGUS PREFETCH L1 MISS: 0
L1D PREFETCH  REQUESTED:   19172573  ISSUED:   19172570  USEFUL:     258594  USELESS:     612570
L1D USEFUL LOAD PREFETCHES:     258594 PREFETCH ISSUED TO LOWER LEVEL:    1020740  ACCURACY: 25.334
L1D TIMELY PREFETCHES:     258594 LATE PREFETCHES: 148364 DROPPED PREFETCHES: 7314
L1D PREFETCHES SAME FILL-ORIGIN LEVEL: 1020740 DIFFERENT FILL-ORIGIN LEVEL: 0
L1D AVERAGE MISS LATENCY: 1.09763e+07 cycles
L1D RQ	ACCESS:   47510484	FORWARD:          0	MERGED:   12866201	TO_CACHE:   34344912
L1D WQ	ACCESS:   26961101	FORWARD:     319041	MERGED:     170093	TO_CACHE:   26791008
L1D PQ	ACCESS:    9742788	FORWARD:          0	MERGED:     293336	TO_CACHE:    9429782

L1D UNIQUE REGIONS ACCESSED: 0
L1D REGIONS CONFLICTS: 0
L1D Cross Page Prefetch Requests: 133577
L1D Same Page Prefetch Requests: 9609211
L1D ROI Sum of L1D PQ occupancy: 119074194
L1D PREFETCHES PUSHED FROM L2C: 0
L1I TOTAL     ACCESS:   39409283  HIT:   28792777  MISS:   10616506  HIT %:    73.0609  MISS %:    26.9391   MPKI: 53.0825
L1I LOAD      ACCESS:   39409283  HIT:   28792777  MISS:   10616506  HIT %:    73.0609  MISS %:    26.9391   MPKI: 53.0825
L1I PREFETCH  REQUESTED:          0  ISSUED:          0  USEFUL:          0  USELESS:          0
L1I USEFUL LOAD PREFETCHES:          0 PREFETCH ISSUED TO LOWER LEVEL:          0  ACCURACY: -nan
L1I TIMELY PREFETCHES:          0 LATE PREFETCHES: 0 DROPPED PREFETCHES: 0
L1I PREFETCHES SAME FILL-ORIGIN LEVEL: 0 DIFFERENT FILL-ORIGIN LEVEL: 0
L1I AVERAGE MISS LATENCY: 16.9977 cycles
L1I RQ	ACCESS:   57963431	FORWARD:          0	MERGED:   17023668	TO_CACHE:   40939763

BTB TOTAL     ACCESS:   29994000  HIT:   17272559  MISS:   12721441  HIT %:    57.5867  MISS %:    42.4133   MPKI: 63.6072
BTB BRANCH_DIRECT_JUMP	ACCESS:    2025964  HIT:    1135056  MISS:     890908
BTB BRANCH_INDIRECT	ACCESS:   11876543  HIT:    7045667  MISS:    4830876
BTB BRANCH_CONDITIONAL	ACCESS:    7549910  HIT:    6212601  MISS:    1337309
BTB BRANCH_DIRECT_CALL	ACCESS:    3602862  HIT:    1507613  MISS:    2095249
BTB BRANCH_INDIRECT_CALL	ACCESS:     667964  HIT:     262432  MISS:     405532
BTB BRANCH_RETURN	ACCESS:    4270757  HIT:    1109190  MISS:    3161567
BTB BRANCH_OTHER ACCESS:          0  HIT:          0  MISS:          0

L2C TOTAL     ACCESS:   17428623  HIT:   15590993  MISS:    1837630  HIT %:    89.4563  MISS %:    10.5437   MPKI: 9.18815
L2C LOAD      ACCESS:   13208238  HIT:   11877738  MISS:    1330500  HIT %:    89.9267  MISS %:    10.0733   MPKI: 6.6525
L2C DATA LOAD MPKI: 1.49313
L2C INSTRUCTION LOAD MPKI: 5.15937
L2C RFO       ACCESS:    1126221  HIT:     900166  MISS:     226055  HIT %:     79.928  MISS %:     20.072   MPKI: 1.13027
L2C PREFETCH  ACCESS:    1020740  HIT:     812787  MISS:     207953  HIT %:    79.6272  MISS %:    20.3728   MPKI: 1.03976
AGUS PREFETCH L1 MISS: 0
L2C DATA PREFETCH MPKI: 1.03976
L2C INSTRUCTION PREFETCH MPKI: 0
L2C WRITEBACK ACCESS:    2052496  HIT:    1987041  MISS:      65455  HIT %:     96.811  MISS %:    3.18904   MPKI: 0.327275
L2C LOAD TRANSLATION ACCESS:       8894  HIT:       2742  MISS:       6152  HIT %:    30.8298  MISS %:    69.1702   MPKI: 0.03076
L2C TRANSLATION FROM L1D PREFETCHER ACCESS:      12034  HIT:      10519  MISS:       1515  HIT %:    87.4107  MISS %:    12.5893   MPKI: 0.007575
L2C PREFETCH  REQUESTED:          0  ISSUED:          0  USEFUL:       9657  USELESS:     199079
L2C USEFUL LOAD PREFETCHES:       9657 PREFETCH ISSUED TO LOWER LEVEL:     207953  ACCURACY: 4.64384
L2C TIMELY PREFETCHES:       9657 LATE PREFETCHES: 0 DROPPED PREFETCHES: 0
L2C PREFETCHES SAME FILL-ORIGIN LEVEL: 0 DIFFERENT FILL-ORIGIN LEVEL: 0
L2C AVERAGE MISS LATENCY: 30.5113 cycles
L2C RQ	ACCESS:   14355387	FORWARD:          0	MERGED:          0	TO_CACHE:   14355387
L2C WQ	ACCESS:    2052496	FORWARD:          0	MERGED:          0	TO_CACHE:    2052496
L2C PQ	ACCESS:    1020740	FORWARD:          0	MERGED:          0	TO_CACHE:    1020740

L2C Instructions Evicting Data 408466
L2C Translations Evicting Data 4796
L2C Data Evicting Data 357116
L2C Instructions Evicting Instructions 619926
L2C Translations Evicting Instructions 2838
L2C Data Evicting Instructions 371427
L2C Instructions Evicting Translations 3482
L2C Translations Evicting Translations 33
L2C Data Evicting Translations 4091
L2C Dense regions hint from L2: 0
PSCL5 TOTAL     ACCESS:      15570  HIT:      15570  MISS:          0  HIT %:        100  MISS %:          0   MPKI: 0
PSCL5 LOAD TRANSLATION ACCESS:       8005  HIT:       8005  MISS:          0  HIT %:        100  MISS %:          0   MPKI: 0
PSCL5 TRANSLATION FROM L1D PREFETCHER ACCESS:       7565  HIT:       7565  MISS:          0  HIT %:        100  MISS %:          0   MPKI: 0
PSCL5 PREFETCH  REQUESTED:          0  ISSUED:          0  USEFUL:          0  USELESS:          0
PSCL5 USEFUL LOAD PREFETCHES:          0 PREFETCH ISSUED TO LOWER LEVEL:          0  ACCURACY: -nan
PSCL5 TIMELY PREFETCHES:          0 LATE PREFETCHES: 0 DROPPED PREFETCHES: 0
PSCL5 PREFETCHES SAME FILL-ORIGIN LEVEL: 0 DIFFERENT FILL-ORIGIN LEVEL: 0

PSCL4 TOTAL     ACCESS:      11179  HIT:      11081  MISS:         98  HIT %:    99.1234  MISS %:   0.876644   MPKI: 0.00049
PSCL4 LOAD TRANSLATION ACCESS:       7458  HIT:       7360  MISS:         98  HIT %:     98.686  MISS %:    1.31403   MPKI: 0.00049
PSCL4 TRANSLATION FROM L1D PREFETCHER ACCESS:       3721  HIT:       3721  MISS:          0  HIT %:        100  MISS %:          0   MPKI: 0
PSCL4 PREFETCH  REQUESTED:          0  ISSUED:          0  USEFUL:          0  USELESS:          0
PSCL4 USEFUL LOAD PREFETCHES:          0 PREFETCH ISSUED TO LOWER LEVEL:          0  ACCURACY: -nan
PSCL4 TIMELY PREFETCHES:          0 LATE PREFETCHES: 0 DROPPED PREFETCHES: 0
PSCL4 PREFETCHES SAME FILL-ORIGIN LEVEL: 0 DIFFERENT FILL-ORIGIN LEVEL: 0

PSCL3 TOTAL     ACCESS:      15138  HIT:      15040  MISS:         98  HIT %:    99.3526  MISS %:   0.647377   MPKI: 0.00049
PSCL3 LOAD TRANSLATION ACCESS:       7654  HIT:       7556  MISS:         98  HIT %:    98.7196  MISS %:    1.28038   MPKI: 0.00049
PSCL3 TRANSLATION FROM L1D PREFETCHER ACCESS:       7484  HIT:       7484  MISS:          0  HIT %:        100  MISS %:          0   MPKI: 0
PSCL3 PREFETCH  REQUESTED:          0  ISSUED:          0  USEFUL:          0  USELESS:          0
PSCL3 USEFUL LOAD PREFETCHES:          0 PREFETCH ISSUED TO LOWER LEVEL:          0  ACCURACY: -nan
PSCL3 TIMELY PREFETCHES:          0 LATE PREFETCHES: 0 DROPPED PREFETCHES: 0
PSCL3 PREFETCHES SAME FILL-ORIGIN LEVEL: 0 DIFFERENT FILL-ORIGIN LEVEL: 0

PSCL2 TOTAL     ACCESS:      11183  HIT:      10490  MISS:        693  HIT %:    93.8031  MISS %:    6.19691   MPKI: 0.003465
PSCL2 LOAD TRANSLATION ACCESS:       8005  HIT:       7312  MISS:        693  HIT %:    91.3429  MISS %:    8.65709   MPKI: 0.003465
PSCL2 TRANSLATION FROM L1D PREFETCHER ACCESS:       3178  HIT:       3178  MISS:          0  HIT %:        100  MISS %:          0   MPKI: 0
PSCL2 PREFETCH  REQUESTED:          0  ISSUED:          0  USEFUL:          0  USELESS:          0
PSCL2 USEFUL LOAD PREFETCHES:          0 PREFETCH ISSUED TO LOWER LEVEL:          0  ACCURACY: -nan
PSCL2 TIMELY PREFETCHES:          0 LATE PREFETCHES: 0 DROPPED PREFETCHES: 0
PSCL2 PREFETCHES SAME FILL-ORIGIN LEVEL: 0 DIFFERENT FILL-ORIGIN LEVEL: 0

LLC TOTAL     ACCESS:    2091136  HIT:    2071300  MISS:      19836  HIT %:    99.0514  MISS %:   0.948575   MPKI: 0.09918
LLC LOAD      ACCESS:    1330500  HIT:    1325245  MISS:       5255  HIT %:     99.605  MISS %:   0.394964   MPKI: 0.026275
LLC RFO       ACCESS:     226055  HIT:     217681  MISS:       8374  HIT %:    96.2956  MISS %:    3.70441   MPKI: 0.04187
LLC PREFETCH  ACCESS:     207953  HIT:     202024  MISS:       5929  HIT %:    97.1489  MISS %:    2.85113   MPKI: 0.029645
AGUS PREFETCH L1 MISS: 0
LLC WRITEBACK ACCESS:     318961  HIT:     318834  MISS:        127  HIT %:    99.9602  MISS %:  0.0398168   MPKI: 0.000635
LLC LOAD TRANSLATION ACCESS:       6152  HIT:       6010  MISS:        142  HIT %:    97.6918  MISS %:    2.30819   MPKI: 0.00071
LLC TRANSLATION FROM L1D PREFETCHER ACCESS:       1515  HIT:       1506  MISS:          9  HIT %:    99.4059  MISS %:   0.594059   MPKI: 4.5e-05
LLC PREFETCH  REQUESTED:          0  ISSUED:          0  USEFUL:        257  USELESS:       3572
LLC USEFUL LOAD PREFETCHES:        257 PREFETCH ISSUED TO LOWER LEVEL:       5929  ACCURACY: 4.33463
LLC TIMELY PREFETCHES:        257 LATE PREFETCHES: 0 DROPPED PREFETCHES: 0
LLC PREFETCHES SAME FILL-ORIGIN LEVEL: 0 DIFFERENT FILL-ORIGIN LEVEL: 0
LLC AVERAGE MISS LATENCY: 146.34 cycles
LLC RQ	ACCESS:    1564222	FORWARD:          0	MERGED:          0	TO_CACHE:    1564222
LLC WQ	ACCESS:     318961	FORWARD:          0	MERGED:          0	TO_CACHE:     318961
LLC PQ	ACCESS:     207953	FORWARD:          0	MERGED:          0	TO_CACHE:     207953

LLC Dense regions hint to LLC: 0

RAW hits: 1427451
Loads Generated: 48937935
Loads sent to L1D: 47510484
Stores Generated: 26961103
Stores sent to L1D: 26961101
Major fault: 0 Minor fault: 1949
Allocated PAGES: 1949
ucb ended
-----------------------------------------------------------------------------------------------------------------------------------------------------------------------------------------------------
Offsets elements: -1465995990172 1465993402463 51 -50 50 2587658 -2587706 49 -19 -33 -1465993402463 1465993402464 188 -1465993402541 1465993402385 -1465993386671 1051 1465993385619 20 -49 2587706 -1465995919652 -48955 1053863 -1004906 -48953 1054969 91507 -91507 -1076538 1465995990172 -1465994914744 -1075428 -2587711 1 -1465993402462 1465993402652 2587520 -1465995990061 21454 5 48955 -5 -54700 182197 -198022 1465993402462 2587710 -2587710 -1 27 -1465993402234 -182419 1465993584627 2529341 -1465996113968 1465993584645 -1465992325942 -1110 71081 1465992255971 -18 -1465992325924 1465992325925 2 -1465992327038 1465992255957 -1465993402437 1465993402439 -1465993402438 1075398 71080 -1128887 350 1151240 -1151238 1465993384491 -1465992327036 -1058552 1058552 1110 69971 1465992256005 -1465993402514 2587709 -1465995989934 1465993402276 -51 1465993402461 2587711 -1465995989933 1465993402224 18 -17 2587708 -1465992362224 1465992362243 -1465992362243 -1465993402481 -1465995989886 1465995931508 345 58033 -4961 -2582748 -2587709 -1465992362225 1465992362234 -1465992362234 -1040239 -1465993402464 70409 -21567 -1465993386636 54708 -48960 1465995968599 -1465994891234 -1098938 21455 48956 -7 7 -54702 1175921 -1191746 1465993402459 2587713 -2587713 -1465992303456 -1099002 -21565 15825 1465993386633 -1465993331937 48952 1465995919651 -1465995788652 897482 1465992303459 -1465992303458 -1099003 -1465993331938 -48952 1465995968603 -1465995834953 943783 -1099004 1099004 1465994891168 -2587714 -1465992303454 1465992303456 -1465992210713 -92743 1465992303460 -1465992303459 -1465993413860 11400 1465993402475 -1465993573021 1465996160717 64 -1465994891162 -1099010 -48954 -21566 -1465993386634 -1465993331931 -48956 1465993380888 -1465994891097 92680 -92681 -1099074 4 -70521 -1465993386633 54697 130914 1465995788736 -1465994891098 1465992303387 -1465992303386 -1099075 1465995990061 -1465995834949 943851 -1099076 1465993402458 2587715 1465992303384 -1465992303384 1465992303385 1465994891098 -1465993413861 -170546 1465993402460 11 -1465993402474 1465993402472 2587699 -4398027375234 4398024787536 -1465994914741 1465992327043 42 -40 -1465992327043 -2587699 -1465992327072 1465992327058 -1465993402459 -1465992327058 -1465993402221 1075163 -1075401 1465993402455 2587717 -2587718 -1075163 -238 17211 1465995972961 -1465995809965 -179893 -11714 -1465996058155 1143384 1465992327053 2587718 -1465993222246 1465993222247 -1465993222247 22241 -3428 -18814 1465993222248 -1465993203438 -198704 -11715 11641 1075161 -876383 876383 1465993203435 -1465993203433 -3 -199018 -1465993203436 1465995791153 -2587717 1465992327057 1465992327054 -1465992327054 -1465994914771 1465992327052 6 1465993402454 -1245318 169917 1465993386630 -1465993331929 48954 1465995919648 -1465994914730 1465992327013 3 -1465992327016 -1086565 1465993413582 -1075442 -2587719 -1465993402215 -2 -1465993402451 1465993402451 2587721 -2587721 -1465993402211 1075204 1465992327010 -1465992327010 1465993402453 2587719 -2587720 1075442 1465994914730 -1465993402455 1465992327011 1465992327074 -20 17 16 1465993386628 -1465993331933 -1465995834946 1465993247233 15 -1465993402458 -2587715 -1465993402456 12 -1465993402475 -2587698 -1465993402472 1075400 1465994914772 -1465994914772 1465992327061 -1465993402461 -1465992327061 -1075162 1465993402219 -1465992327057 1465993402457 -1075161 -1258252 13539 1465993571774 -1465993402467 -1465994843664 -989617 918539 1465992327027 -1465993385252 1058224 -1465993385245 1465993385258 2587700 1465992327064 -2587708 -1465992327064 1075162 -1075400 -1465992327063 -1254382 179221 -1254381 178981 -1465993402478 -2587658 -1465992327086 1465995990166 1465993470497 -56 2587714 -1465993402424 16673 1465993385771 -1465992256101 1465992256102 -1157664 1157664 -21 22 -22 -1129670 25 -25 1129697 -1146405 1146379 1465994843793 -1465994843793 1129670 -1157665 1157665 -1146131 159301 1465993242906 153 -1465993243058 1465993242907 -1465993242907 880773 -838888 1465993201022 -1465993201033 1465993201020 -1465993201031 944957 -988935 -157196 159300 -159547 21 1157710 -1129553 -16591 1465993402328 -1465993384464 1465993384313 -1465993385749 -24 -1146381 1146380 -1129672 1465995973464 -1465994843794 -11534 170834 1465993243058 880771 -838872 -12 -41887 41885 1465993201021 -1465993201023 944947 -944945 -201185 -1465993245007 1465993245008 -1465993402210 1465993402265 -35 1465993413765 -1465993402444 1146343 -1129507 -28157 19 30 -30 1129702 -1146410 1146382 -1129673 -1465992256073 1465992256076 -1465992362138 -880771 -159300 159299 1465993242909 -1465993201009 -201447 -1465993201022 1465995788737 -1465995832721 -1465993402460 -1465995989923 -1465992327029 70950 -1157663 11285 -1465992256136 -1157662 1157662 -27993 1157663 1465992256077 -1465992256076 -1465992256079 1465992256078 -1465992256078 -6 -58 2587716 1465992256080 -1465993413743 1465992256075 -1465992256074 -1465993572607 170150 -1465993386198 -16013 16013 1465993386346 -1465993386346 1465993386254 -1465993386254 1024563 -1040583 1465993402274 -1465992361691 1465992361637 -1465992361636 -1024564 -16012 16011 -16259 2587712 -2587712 53 -1075422 -55 -1465993384547 1465993384494 -1465992256082 33 1129705 -1146413 1146383 -1129674 41899 1465993201010 -1465993201010 944936 -986836 -159299 -2110 -157438 34 161276 1465995828896 -1465993241238 -161036 161036 1465993241238 -1465993241236 1465993241236 -53 -1465993241183 879499 -1040537 -1465992361736 1465992361736 -1040778 -1465993402479 -1465993241202 1465993241203 -1465992327053 1146508 1465994843664 -1465995833284 -139214 138393 5425 -172456 172464 -161500 1465993402514 -1465993241022 1465995828680 -1465996001137 172474 1465993240951 -1465992327033 -1057497 1128577 1465992255954 -1465993245574 -156888 1465995990169 -1465995834089 -155836 155836 1465993246523 -92 -1465993402268 1465993402268 -1465993246428 59401 -59401 59394 1465993187034 -1465993187034 -1465993402274 1465993186978 -1465993246372 -156083 215477 -59397 -155835 -248 1075428 1465994914744 -1465994843663 -71081 -1057754 1128834 -989620 877613 -878434 -172457 913919 -1057507 1058626 69961 -1128579 -17929 1169212 1465994820960 1465993402447 2587725 -2587727 -2587723 13 -1465993402480 41 -1465993402269 1465993402269 -1465993402263 1465993402263 2529296 -1465996113778 1465996172140 -1465993584482 1465993584482 1465993584422 2529364 -1465996113786 -1465993584422 -61 2529358 -2529356 -4398024787535 2932031543063 1465993244472 10 -1465992327052 -1057464 1465993384487 -1465993245566 -1465995828663 -172474 10965 -2587705 -1465993413588 1465993413588 1465993413589 -1465993244471 1465993244477 -4 -1465993402453 2587723 1465993402214 -1465993581435 1254382 1465993581432 1465993386627 -1465993331930 1465995968602 -1465994843670 1465992255952 -1465993402476 158000 1465995832172 -1465995832172 -2793 1465993247246 -1465993242461 -159990 1465993402452 2587720 -1465993402454 -1465993244451 -1465993242462 42374 -202364 -1465993244473 1465993244453 1465993402450 1465993585306 -1465993571767 1465993571766 -1465993402452 -2587700 -4398024787534 2932031403269 1465993384247 -1465993384969 180463 -380800 183090 1465993402216 1465992327049 -1465992327050 1465992327050 -1075160 -183092 1258252 -54695 -15825 -1465993331927 1465993380882 -1465994822200 1465992234481 -1465993402457 1465993386629 -1465993331928 -1465995792158 1465993204442 -1465993402138 1465993402139 -1465992234485 -969956 -197776 1465995978545 -1465995776422 -4346 1465995792155 -1465995787809 1465995776423 -1465995776423 1465993204436 2576333 11387 -1465993200088 1465993200089 -1465993242463 1465993242464 1465992234484 -1465994852937 1465992265221 -1465993402135 1465993402137 -16 -1465992265222 -1137235 -1465995834948 982011 1465992265219 1465993386624 -1465993331923 -1075431 1075432 -1075432 1465993402445 2587727 1018668 1465992362208 -2587728 -1465992327013 -989618 -156834 636 160264 -171492 171492 1465993241488 -1465993402445 1465993386619 -1465993331921 -1465994949929 1465992362205 -1465993402448 -1465993331917 1465995968601 -1465994820930 1465992233203 -1465994949985 1465992362256 -1075433 -1465994820922 1465992233195 -1465992327014 1465992327015 -1465992327015 1465992327014 1465992327016 -1465992362262 -1040187 20623 1465995969549 -2587520 21470 48939 -70409 29678 40738 -70526 -21581 -1465993372907 1465995960635 -1465995968603 48953 1004911 -1465993402207 -1465995820789 917436 1465994914740 -11386 -1465995820790 2576340 -1465993402449 -2587726 -1465992327017 -1075434 -1465994914739 1465993386622 -1465993331925 -1465995832716 -157209 157756 1465993244603 -1465993244603 1465993244444 -1465993244444 43443 -201446 1465993386621 -1465993331924 -1465995832732 -157440 158003 1465995832168 -1465995989925 157757 1465993244440 -1465993244441 -43443 -158004 1465993402446 2587726 -1465993402197 157755 61803 -1148430 1148430 -982011 42790 -209258 209258 1465993204433 -1465992265212 1465992265212 1465993402449 -2587722 8 1465993402456 -1465992327048 1465992327048 -1465992255967 1465993385591 -1465992325929 -1465994914740 1137235 1465994852937 -1465996001367 1465993413657 1465993386631 -1465993331935 -1465995834956 1465993247243 -1465992265224 1465993413654 1465993247238 -1465993245049 -157169 154972 -155216 -1465995969549 -20623 -1465993402345 1465993402541 -197 -1465995968591 1465993331937 -1465993366457 1465993366456 -1465993204444 32813 1465993204443 1465992265223 1465993380887 -1465994798408 1465992210699 979822 -979822 40601 1465993204448 -181036 1465993583261 -1465993583261 181036 197776 1465993413707 -2587696 -1465992210712 -1191526 1465993402238 -1465992210699 -1191764 -1465993372625 1465995960339 -1465993380892 1465993331935 -1465993366453 1465995954167 -1465993402224 -13 -9 -1465995972683 1057945 -35196 35194 1157708 -106185 1465992362218 -1465992362218 -879280 879280 -1465992327023 61805 -1137237 4067 1465993241497 -1465992265219 -1148429 11194 -1465994852935 209261 939222 1465992265211 -982014 42793 1148481 -155224 198016 1465995792156 -877414 948494 -1157752 168134 10535 -1465995792155 1529 -199545 -1465995830182 38026 969956 1465992234473 -1465993202900 -42973 -167318 1465993413398 -1465993402652 -70520 21567 -5742 1465993386617 2587730 -1465995919642 -48958 135000 919838 -919838 -156572 -1465994843672 -1146500 1146500 1465994843672 -1465994955740 -1034429 1034429 -1034185 1034185 1465992368002 172 -1465992368173 1034184 -832987 1465993200989 -1465992255936 1465993402436 2587736 -2587737 -1465992255935 -107097 -813854 -225552 -1465995766151 427 -63231 -167198 231529 -225548 -1465995765728 -224444 1465993402431 2587741 -2587742 -1465993176882 -1136 1147 -1145 121 1015 -1118 -224437 -1465995996161 1465993408424 -1465993176877 1465993176878 -1465993408424 1465993408423 -1465993402434 1465993402434 2587738 -2587739 -1465993176875 -1138 254577 -253427 253427 -253428 -1111 1104 -25753 25756 26898 1138 -1150 110 1465993177914 -1465993178024 254563 -254577 1465993178025 1465993176876 -1465993176876 -1100 -224448 -2587738 -1465993384228 179793 948551 -991306 -165680 11204 -718 -8 58386 -58033 53072 -2582776 -1465993402435 2587733 -2587735 1465992255940 -1465993402440 1039404 1465994950768 -1465994822198 -10624 -117946 -1039153 1157099 -1157350 1465993402438 -1465993372671 1465995960406 968882 -1039404 -2587733 1465993402443 2587729 -1465992326035 -1087150 10740 -1167972 1465993402437 2587735 -1465993402436 1465993386611 -1465993331909 1465993380866 1465992210676 -1465992234473 1465992234468 -1465992234468 -1167734 1465993402201 -1465993402439 -1465992234467 1465992234467 2587737 -1465993402202 1167734 1465993402440 2587732 -2587732 1465992234463 -1465992234463 1465992234464 -2587731 1465993402441 2587731 -1465992326029 -2587729 -1465993402443 1191764 1465994798408 -1465992210676 1191526 -1465992210673 1465992210674 2587734 1465992210677 -1465993402441 -115340 1465992325997 -1465993519221 117026 -117026 1465993519222 1191515 -115329 -1465992210668 1076197 -1465993402196 1465993402196 -1465993402433 1465992326003 -1465993519224 117025 -117025 1465993519227 -1465992210679 -1465993372607 -1465995968601 1005883 69426 -1145861 -1465994844307 1465992256576 225552 1465995764624 -1465995765724 1100 224444 1465995765728 -2587743 -1465992256564 -990653 1465993247232 -1465992256578 1465992256571 -1465993176879 -225557 -1465993402363 18075 1127713 -920309 -25800 25796 -1465992256571 225548 -1465995765760 -1140 109 -24757 25784 920312 -946109 874484 71620 -920304 666884 -10 -920303 -254579 1151 -25792 24649 25757 947217 -920314 -25804 25808 -1526 1530 920319 -1145871 1145870 -946110 1465995790412 -1465995790420 1465993202685 -1465993202681 839637 39559 66913 1465992256572 -1465992323485 -2272 -37287 106471 -69437 5170 -5170 -2646 -39558 39558 -2274 69187 -64268 -5169 2524 -66912 -2525 252 2272 -4919 4918 -2645 1465992323486 1465992323485 1465995764620 -1465995790412 25788 105 -24753 -25797 876916 -2437 -1140789 266306 25794 199760 -1465995790414 876920 -851118 851118 -225560 1465993402415 2587757 -2587757 -1465993176861 -25801 1465993202661 -1465992325741 -2812 -848318 -1141 1150 -26905 -198652 -2587756 -1465993202660 876923 1465992325758 -1465992328570 1465992328571 -1465993202682 1465993202683 -1465992325759 71998 2772 69193 -69193 -244 -2561 71981 -69192 -245 245 -2806 9 71989 22409 -22396 71985 -49563 -19874 71983 -71998 22434 -19873 -2545 71982 -49565 -19872 -19871 19872 1465992306138 -1465992328571 1465992328572 -1465992256565 -69188 69188 -946114 874114 72000 -71999 1465992328573 -1465992256574 -1145866 1076678 1465994913494 -1465994916306 -71986 22415 -22431 7901 -46 47 -856217 848314 -874106 1465993202678 -1465993202685 -199753 -1465992256573 -1465992326016 -1076424 -1465994913762 69451 -1145865 1145861 1465992256570 -1465995764620 1465993177979 2587748 -1465994844311 -990657 990656 1465993402430 2587742 2587740 -1465992326019 1465992326026 19877 -1096060 1096061 -19875 -1087149 1087149 -1076410 1465994844311 1465993402426 2587746 -2587747 1465992256565 -1465993176878 -1104 -2587754 2587754 -2587753 -1465992256554 990661 1465992256559 -1465993402431 1081769 1465994908403 -1465994908403 -1081769 1465993402429 2587743 -2587744 -1465993402430 -2587736 -1465992326011 1465993402444 2587728 -2587730 -1087151 1087176 -14 -11 -1465994950768 106458 1465993177993 -920313 108 -24756 920302 -848688 920315 -69191 -851126 874108 -848314 25802 852674 -852674 1465993176880 -1465992256569 1465992256569 -1465992256576 -920308 1465993176885 -1465992363037 1465993386616 -1465993331919 -1465994832822 -1157100 1167724 -128570 120807 -1160211 -1465993372835 1465995960564 -1465995968600 48958 1465993331915 -1465993204428 948485 -1146502 -1465995832759 989089 1465992255944 -1465992255944 -1465993331922 -1465994843692 -1465993204431 1465993204432 -1465992255946 -989090 -989089 989090 -1146503 1465993386620 991287 -1465993204430 -40020 -157997 -1465995790445 -210452 210453 -199728 -1465994912975 -1769 -875700 946773 -1146501 -107096 -1157099 1167723 -1167974 1465993382029 -1465993372653 1465995960386 -1465993380872 1465993331918 -1465993402442 -1465993204432 879181 -879181 -208745 1157231 989068 -69283 -1087926 10729 1077198 69282 1465994843692 -1465994844300 -1145872 1145876 1465994844296 921432 -990668 155204 1465993247230 -1465995834968 -221566 1465993468794 -1465993402432 1465993402432 -2587741 -1465992256560 1465992256562 1465995834968 -221544 1465993468772 -1465992256559 1465992256560 1465993402433 -2587734 -1465993384289 1127724 -920324 -23872 1465995789596 -1465994844296 225559 920320 -921470 1140 -25046 25039 920324 -921351 1027 1148 -1151 1144 -1142 38 843974 -589435 -254580 -23900 278480 1928 945300 -920325 -24980 24972 1145881 -945374 1465995789665 -1465995789596 945299 -945296 838731 -840502 -39978 880481 106564 -1465993468981 221759 884096 -840501 1465993203628 -1465993203629 -198808 -25048 1465995789661 -1465995789665 23905 -66728 65686 -23935 -200582 200509 -267057 225379 1465995831341 -1465995831341 909586 -842857 -25052 41751 1465993201837 -1465993176871 813846 -1039394 -1465993176858 1465993176859 -1465993178009 1465995765765 -1465995789593 1465993201857 -1465993243605 39821 840742 106481 -106481 34648 71833 -1465993247222 918846 8120 -45 -1148680 1140588 2699 -37356 926907 -8078 -34648 -1105940 1212421 -71829 1465992328389 918829 -71831 2680 5402 -1148659 1465993468981 926897 -1148656 -1465992328392 -918830 921491 5404 -1148654 -1465992328391 -918831 921495 -2666 926896 -1148655 1143253 -2665 926895 1143252 -2664 1465992363041 -71832 1143251 5403 1465992328395 -1465992328393 -848491 876193 -852187 -73 66548 1068417 8287 -851152 -1465994913468 -851144 -25053 75 1465993201831 -1465993176853 1465993402414 -1465993176855 851145 1465992325715 2587753 -1465995789590 890553 -865584 865583 -865587 865587 -890628 -200507 -23830 1465995789595 26900 -25045 838812 1465992363043 -1465993176884 25053 -877652 1465993201851 -1465992325729 1465992325732 -1465992311301 -890557 876126 69171 -54740 54739 -1465993468983 946185 -10263 -1465992311299 -935925 -221759 1168054 -10373 1167999 -10318 -54737 1465992311299 -1465993247224 946222 -1167981 1157682 1465992311300 54740 1145872 -54735 -990664 1465995834959 -876128 900841 -1167963 -888614 943356 -66874 100935 -954381 954382 1465992222501 -1465992256562 -1145877 1145880 -69173 1465994913468 -1465994844292 -54745 88803 1465992222498 -990672 1465993247236 1465992255963 -1465992327018 71072 -1157216 1157216 1465992255947 -1465992222508 -33458 1465992255965 -1465992255965 -1465992255943 1465993245033 -1465993402447 -948464 -198016 1465993402448 2587724 -2587724 1465993204434 -1465993241492 1465993241493 -1465993204434 -198015 2587722 -1465992265214 -1137200 1146465 989067 -9241 1465992265214 71074 -168129 -1146480 -1465995972205 1128513 33458 -1179938 21456 -1465993386622 -48957 1465993380875 -1465994845754 2062 -1179700 1179700 1465992222491 -1465992258031 1465992255970 -1465992258032 -1144418 17967 1465995972205 -1465992255947 1465992255946 -1465993247233 991286 1465992255969 -1465993366447 1465995954172 -1465993413692 209259 1087927 -1077198 1145873 1465994844299 -920329 -24976 23872 1465993178000 -25039 945363 -945361 945371 1145 920323 -77458 -842864 -920321 -1032 852184 -876197 25045 -890553 -75 24978 1465992324213 1465993176891 -1465992265213 1465992265236 -1465992265236 9243 1146480 1465992255993 -7179 -979236 41730 1465993413200 -1465994891170 -897482 -1465994891169 92742 1465992303437 1465993573021 -1465993573020 1465992303498 -1465992303435 47478 -2062 -45416 -65 47542 -1465992258019 1465994845754 -1137239 1099074 -1465995788736 897638 1099076 1465992303352 -92680 1465992303358 -1465993413832 1465993573022 2587744 -2587740 43 -37 -1465993247249 1465993247209 -1465992326993 11123 1465993386605 -1465993331907 -92529 -1075445 46 942898 1465992258008 -1465992258008 1465992258007 -1465992258007 -1465993402188 1144180 -45480 -1269483 1269484 1465993200905 -1465992326987 1465992326987 -2587697 1098938 1465992303484 2587751 -64 -897418 -45479 1465992303423 -1465993200905 1465993200906 -1465993402426 -2587746 1465993402422 2587749 -1144180 1465993402187 -1465992303487 1465993572972 -1465992303488 1465992303424 -1465993200906 897419 1465992303487 63 -1144178 1144178 -68975 68975 23559 -1465992303486 -1098939 1465995788652 -1465992258003 1465994845752 1269485 -897419 -1465992303423 -63 -23496 -1075203 -68977 -873923 873923 68977 -45418 -1465992303485 -1465994845752 -1144420 -1465992258002 -1144182 1465995989934 45484 -1314967 1269486 -897420 62 45420 -942902 1144182 -68979 68979 -45420 -1098940 -1465994845750 -1144422 -1465992258000 -1144184 45485 -1314969 -942903 1144183 -68980 68981 -68981 1465992326984 -1465993402429 -1465993402428 -1465992326988 92532 1465992234501 -1465992303535 -23495 92529 1465993200912 -69022 1465992327031 -1465994845749 1465992258009 1465992258004 1075444 1465994914728 1465993402428 -1465994914728 1465992326988 -1075204 1144184 -69023 69023 1465992327029 -2587745 -1465993402189 1075205 -1465993402425 1465993402424 1465993402188 1465993402427 1465993386602 -1465993331904 -1465995791940 1465993204198 -1465993402185 1465993402199 45 -36 36 -1465992326997 1465992326989 157999 1465995832173 1075194 -1075443 -1465993244428 57493 -215251 1075203 -859952 1465993186937 -1465993402176 215240 -57493 1465993186938 -1465994914729 -1075205 1465993402423 1465993402193 2587745 -1465995832174 1465993244434 -1465993247213 1086568 1465994822198 92573 -1465992303534 1465992303490 -1465992303428 1465992303428 -1465993200910 942903 -1465992326986 -1075444 1075401 1465994914771 -1465992303472 45421 -1144185 1144186 1465992326981 -23602 1075164 -1075403 61 1465992303419 2587750 1465992303420 -1465992303420 92743 1465992303422 -201520 1167974 1098940 1465994891232 -1465994891231 1465993402425 2587747 -2587748 1465992258002 -1465992258001 -1144424 -1465994845747 -1144187 1098700 1269487 -62 1465992303485 897421 -1144425 -1465992234449 -68969 -1465993247209 1465993247208 -1465992326992 
Potential of Offsets elements: 2625.29 28.2897 43.2897 29.2897 28.2897 28.2897 28.2897 153.29 505.29 355.29 28.2897 214.29 104.29 64.2897 112.29 28.2897 28.2897 28.2897 222.29 36.2897 28.2897 353.29 36.2897 28.2897 28.2897 38.2897 28.2897 28.2897 28.2897 64.2897 2478.29 28.2897 28.2897 28.2897 4254.11 28.2897 120.29 28.2897 28.2897 56.2897 1139.29 28.2897 1154.29 28.2897 28.2897 28.2897 28.2897 28.2897 28.2897 1508.29 33.2897 28.2897 28.2897 28.2897 28.2897 28.2897 28.2897 28.2897 28.2897 28.2897 28.2897 188.29 28.2897 28.2897 1008.29 28.2897 28.2897 28.2897 28.2897 28.2897 28.2897 28.2897 28.2897 28.2897 28.2897 28.2897 28.2897 28.2897 28.2897 29.2897 28.2897 28.2897 28.2897 28.2897 28.2897 28.2897 28.2897 32.2897 28.2897 28.2897 228.29 117.29 154.29 441.29 86.2897 30.2897 28.2897 28.2897 28.2897 28.2897 28.2897 28.2897 28.2897 28.2897 28.2897 28.2897 28.2897 28.2897 28.2897 28.2897 28.2897 52.2897 28.2897 76.2897 28.2897 42.2897 28.2897 28.2897 28.2897 28.2897 30.2897 571.29 949.29 28.2897 28.2897 28.2897 848.29 28.2897 28.2897 28.2897 28.2897 77.2897 28.2897 28.2897 28.2897 28.2897 28.2897 28.2897 28.2897 28.2897 28.2897 28.2897 28.2897 28.2897 252.29 28.2897 28.2897 28.2897 28.2897 28.2897 28.2897 28.2897 28.2897 28.2897 28.2897 28.2897 28.2897 28.2897 28.2897 28.2897 28.2897 28.2897 56.2897 28.2897 28.2897 68.2897 80.2897 28.2897 28.2897 28.2897 28.2897 428.29 53.2897 28.2897 28.2897 1441.29 28.2897 28.2897 30.2897 28.2897 28.2897 28.2897 28.2897 28.2897 28.2897 316.29 28.2897 28.2897 65.2897 30.2897 28.2897 28.2897 28.2897 28.2897 28.2897 28.2897 28.2897 28.2897 190.29 28.2897 223.29 28.2897 28.2897 28.2897 28.2897 28.2897 111.29 28.2897 28.2897 28.2897 28.2897 28.2897 28.2897 28.2897 28.2897 28.2897 28.2897 28.2897 28.2897 28.2897 28.2897 60.2897 28.2897 28.2897 28.2897 28.2897 28.2897 28.2897 28.2897 28.2897 28.2897 28.2897 28.2897 28.2897 28.2897 28.2897 28.2897 28.2897 28.2897 28.2897 28.2897 28.2897 28.2897 28.2897 28.2897 28.2897 28.2897 945.29 28.2897 28.2897 28.2897 28.2897 28.2897 28.2897 28.2897 28.2897 28.2897 755.29 28.2897 28.2897 28.2897 28.2897 28.2897 28.2897 28.2897 28.2897 28.2897 1595.29 28.2897 28.2897 28.2897 28.2897 28.2897 28.2897 902.29 38.2897 54.2897 199.29 28.2897 123.29 28.2897 28.2897 28.2897 28.2897 28.2897 28.2897 181.29 303.29 28.2897 28.2897 28.2897 113.29 527.29 575.29 28.2897 28.2897 78.2897 39.2897 49.2897 128.29 28.2897 28.2897 146.29 28.2897 28.2897 28.2897 448.29 217.29 122.29 28.2897 28.2897 29.2897 44.2897 28.2897 28.2897 240.29 28.2897 28.2897 28.2897 28.2897 28.2897 28.2897 28.2897 28.2897 28.2897 28.2897 28.2897 28.2897 28.2897 28.2897 28.2897 28.2897 28.2897 28.2897 28.2897 28.2897 28.2897 28.2897 28.2897 28.2897 28.2897 28.2897 28.2897 28.2897 28.2897 37.2897 28.2897 28.2897 44.2897 36.2897 28.2897 28.2897 28.2897 28.2897 110.29 261.29 40.2897 28.2897 72.2897 79.2897 28.2897 28.2897 28.2897 28.2897 28.2897 28.2897 28.2897 31.2897 28.2897 45.2897 32.2897 28.2897 28.2897 28.2897 28.2897 28.2897 28.2897 28.2897 28.2897 129.29 28.2897 28.2897 28.2897 28.2897 28.2897 28.2897 65.2897 28.2897 29.2897 30.2897 28.2897 28.2897 28.2897 28.2897 103.29 28.2897 28.2897 28.2897 28.2897 28.2897 30.2897 28.2897 28.2897 28.2897 28.2897 463.29 28.2897 28.2897 28.2897 28.2897 28.2897 28.2897 28.2897 28.2897 28.2897 28.2897 28.2897 273.29 28.2897 28.2897 28.2897 28.2897 28.2897 28.2897 28.2897 30.2897 28.2897 28.2897 28.2897 28.2897 28.2897 28.2897 28.2897 28.2897 28.2897 28.2897 28.2897 28.2897 28.2897 28.2897 28.2897 28.2897 28.2897 28.2897 28.2897 28.2897 28.2897 69.2897 28.2897 28.2897 90.2897 28.2897 28.2897 40.2897 28.2897 28.2897 28.2897 28.2897 296.29 147.29 28.2897 28.2897 28.2897 28.2897 28.2897 28.2897 28.2897 28.2897 28.2897 28.2897 28.2897 28.2897 28.2897 28.2897 28.2897 28.2897 28.2897 28.2897 28.2897 28.2897 28.2897 28.2897 28.2897 28.2897 28.2897 28.2897 109.29 28.2897 135.29 28.2897 28.2897 28.2897 53.2897 28.2897 28.2897 28.2897 28.2897 28.2897 28.2897 28.2897 28.2897 28.2897 28.2897 28.2897 28.2897 41.2897 28.2897 28.2897 28.2897 28.2897 28.2897 28.2897 28.2897 28.2897 28.2897 28.2897 28.2897 28.2897 28.2897 28.2897 28.2897 28.2897 28.2897 28.2897 95.2897 28.2897 28.2897 28.2897 30.2897 28.2897 28.2897 28.2897 28.2897 28.2897 28.2897 28.2897 28.2897 28.2897 28.2897 28.2897 28.2897 28.2897 28.2897 28.2897 28.2897 28.2897 28.2897 28.2897 28.2897 28.2897 28.2897 109.29 28.2897 28.2897 28.2897 28.2897 32.2897 28.2897 28.2897 28.2897 28.2897 28.2897 28.2897 28.2897 28.2897 28.2897 28.2897 28.2897 28.2897 28.2897 28.2897 28.2897 28.2897 28.2897 28.2897 28.2897 28.2897 28.2897 28.2897 28.2897 29.2897 28.2897 28.2897 28.2897 28.2897 28.2897 28.2897 28.2897 28.2897 28.2897 130.29 144.29 286.29 28.2897 64.2897 28.2897 28.2897 28.2897 28.2897 28.2897 28.2897 28.2897 28.2897 28.2897 28.2897 28.2897 28.2897 68.2897 28.2897 28.2897 28.2897 28.2897 524.29 31.2897 28.2897 28.2897 28.2897 28.2897 28.2897 28.2897 28.2897 28.2897 28.2897 28.2897 28.2897 28.2897 707.29 326.29 263.29 37.2897 28.2897 28.2897 28.2897 28.2897 28.2897 28.2897 28.2897 28.2897 28.2897 28.2897 28.2897 28.2897 28.2897 28.2897 28.2897 397.29 28.2897 28.2897 28.2897 28.2897 28.2897 28.2897 28.2897 28.2897 28.2897 28.2897 28.2897 28.2897 28.2897 28.2897 28.2897 28.2897 31.2897 58.2897 28.2897 29.2897 28.2897 28.2897 28.2897 38.2897 30.2897 28.2897 31.2897 28.2897 28.2897 28.2897 28.2897 28.2897 28.2897 28.2897 28.2897 28.2897 28.2897 28.2897 28.2897 28.2897 28.2897 28.2897 28.2897 28.2897 28.2897 28.2897 28.2897 28.2897 28.2897 28.2897 28.2897 28.2897 28.2897 28.2897 28.2897 28.2897 28.2897 28.2897 28.2897 28.2897 28.2897 28.2897 28.2897 28.2897 185.29 28.2897 28.2897 28.2897 28.2897 28.2897 28.2897 28.2897 28.2897 28.2897 28.2897 28.2897 28.2897 28.2897 28.2897 28.2897 28.2897 28.2897 28.2897 28.2897 28.2897 28.2897 28.2897 28.2897 62.2897 36.2897 68.2897 28.2897 28.2897 88.2897 68.2897 28.2897 28.2897 28.2897 28.2897 28.2897 28.2897 28.2897 28.2897 28.2897 28.2897 28.2897 28.2897 28.2897 28.2897 28.2897 184.29 128.29 28.2897 30.2897 28.2897 28.2897 28.2897 28.2897 28.2897 168.29 28.2897 28.2897 32.2897 28.2897 28.2897 28.2897 28.2897 28.2897 28.2897 28.2897 28.2897 74.2897 72.2897 1546.29 28.2897 28.2897 28.2897 28.2897 28.2897 28.2897 28.2897 28.2897 28.2897 28.2897 28.2897 28.2897 28.2897 28.2897 28.2897 28.2897 28.2897 28.2897 424.29 28.2897 28.2897 28.2897 28.2897 28.2897 28.2897 28.2897 28.2897 28.2897 28.2897 28.2897 28.2897 28.2897 28.2897 28.2897 28.2897 28.2897 28.2897 28.2897 28.2897 28.2897 28.2897 28.2897 509.29 28.2897 28.2897 28.2897 28.2897 28.2897 28.2897 28.2897 28.2897 28.2897 28.2897 28.2897 28.2897 28.2897 28.2897 28.2897 28.2897 28.2897 28.2897 28.2897 28.2897 28.2897 28.2897 91.2897 67.2897 88.2897 171.29 198.29 142.29 28.2897 28.2897 28.2897 28.2897 28.2897 28.2897 28.2897 28.2897 28.2897 28.2897 28.2897 28.2897 28.2897 28.2897 28.2897 28.2897 28.2897 28.2897 28.2897 28.2897 28.2897 28.2897 28.2897 28.2897 28.2897 28.2897 28.2897 28.2897 28.2897 28.2897 28.2897 28.2897 28.2897 1495.65 1434.29 28.2897 28.2897 28.2897 28.2897 28.2897 28.2897 28.2897 28.2897 28.2897 28.2897 28.2897 28.2897 28.2897 28.2897 28.2897 28.2897 28.2897 28.2897 28.2897 28.2897 28.2897 28.2897 28.2897 28.2897 28.2897 28.2897 28.2897 28.2897 29.2897 28.2897 28.2897 28.2897 28.2897 146.29 41.2897 28.2897 28.2897 28.2897 28.2897 28.2897 28.2897 28.2897 28.2897 28.2897 128.29 193.29 67.2897 28.2897 28.2897 28.2897 28.2897 28.2897 28.2897 28.2897 28.2897 28.2897 28.2897 28.2897 28.2897 28.2897 28.2897 28.2897 28.2897 28.2897 28.2897 28.2897 29.2897 28.2897 28.2897 28.2897 28.2897 28.2897 238.29 28.2897 28.2897 28.2897 28.2897 28.2897 28.2897 28.2897 28.2897 28.2897 28.2897 28.2897 28.2897 79.2897 98.2897 28.2897 28.2897 28.2897 28.2897 28.2897 28.2897 28.2897 28.2897 28.2897 28.2897 28.2897 44.2897 28.2897 28.2897 28.2897 28.2897 28.2897 28.2897 28.2897 28.2897 28.2897 28.2897 28.2897 28.2897 28.2897 28.2897 28.2897 28.2897 28.2897 28.2897 40.2897 83.2897 56.2897 31.2897 28.2897 28.2897 28.2897 28.2897 28.2897 28.2897 28.2897 28.2897 28.2897 28.2897 28.2897 28.2897 28.2897 28.2897 28.2897 28.2897 29.2897 28.2897 447.29 28.2897 28.2897 28.2897 28.2897 346.29 28.2897 28.2897 28.2897 28.2897 53.2897 28.2897 28.2897 28.2897 28.2897 28.2897 28.2897 28.2897 355.29 28.2897 28.2897 28.2897 28.2897 28.2897 40.2897 28.2897 28.2897 28.2897 28.2897 28.2897 120.29 392.29 115.29 28.2897 28.2897 28.2897 28.2897 28.2897 28.2897 28.2897 28.2897 28.2897 28.2897 28.2897 28.2897 28.2897 28.2897 38.2897 28.2897 28.2897 28.2897 28.2897 28.2897 28.2897 28.2897 28.2897 28.2897 28.2897 28.2897 28.2897 28.2897 28.2897 28.2897 28.2897 28.2897 28.2897 28.2897 28.2897 28.2897 28.2897 92.2897 28.2897 28.2897 28.2897 28.2897 28.2897 28.2897 28.2897 28.2897 28.2897 37.2897 143.29 28.2897 28.2897 28.2897 28.2897 28.2897 28.2897 28.2897 192.29 28.2897 28.2897 28.2897 28.2897 28.2897 28.2897 28.2897 28.2897 28.2897 28.2897 70.2897 28.2897 82.2897 28.2897 108.29 103.29 28.2897 28.2897 28.2897 28.2897 28.2897 28.2897 28.2897 28.2897 28.2897 28.2897 28.2897 28.2897 28.2897 28.2897 28.2897 88.2897 84.2897 28.2897 28.2897 28.2897 28.2897 28.2897 321.29 28.2897 28.2897 28.2897 28.2897 28.2897 28.2897 28.2897 28.2897 28.2897 28.2897 28.2897 28.2897 93.2897 166.29 28.2897 28.2897 28.2897 28.2897 28.2897 28.2897 28.2897 28.2897 28.2897 28.2897 28.2897 28.2897 28.2897 28.2897 28.2897 28.2897 28.2897 28.2897 28.2897 28.2897 28.2897 28.2897 28.2897 28.2897 28.2897 28.2897 28.2897 29.2897 28.2897 30.2897 28.2897 28.2897 28.2897 28.2897 274.29 28.2897 28.2897 50.2897 28.2897 28.2897 28.2897 28.2897 28.2897 28.2897 28.2897 28.2897 28.2897 28.2897 40.2897 28.2897 226.29 28.2897 28.2897 28.2897 28.2897 28.2897 28.2897 28.2897 28.2897 28.2897 28.2897 28.2897 28.2897 28.2897 28.2897 28.2897 28.2897 28.2897 28.2897 28.2897 28.2897 28.2897 28.2897 28.2897 28.2897 28.2897 28.2897 35.2897 28.2897 28.2897 28.2897 28.2897 28.2897 28.2897 198.29 28.2897 28.2897 28.2897 28.2897 28.2897 28.2897 28.2897 28.2897 28.2897 28.2897 28.2897 28.2897 28.2897 28.2897 28.2897 28.2897 28.2897 28.2897 28.2897 28.2897 28.2897 42.2897 37.2897 28.2897 28.2897 28.2897 28.2897 28.2897 28.2897 28.2897 28.2897 28.2897 28.2897 28.2897 28.2897 28.2897 121.29 29.2897 28.2897 28.2897 28.2897 28.2897 28.2897 28.2897 28.2897 28.2897 28.2897 28.2897 28.2897 28.2897 28.2897 28.2897 196.29 28.2897 82.2897 28.2897 28.2897 28.2897 28.2897 28.2897 28.2897 28.2897 28.2897 28.2897 28.2897 28.2897 28.2897 28.2897 28.2897 28.2897 28.2897 28.2897 28.2897 28.2897 28.2897 28.2897 35.2897 28.2897 28.2897 28.2897 28.2897 28.2897 28.2897 28.2897 28.2897 28.2897 28.2897 28.2897 30.2897 28.2897 81.2897 28.2897 80.2897 273.29 28.2897 57.2897 74.2897 28.2897 28.2897 85.2897 571.29 28.2897 28.2897 28.2897 28.2897 28.2897 28.2897 29.2897 28.2897 28.2897 28.2897 28.2897 28.2897 148.29 32.2897 40.2897 29.2897 28.2897 28.2897 28.2897 28.2897 28.2897 28.2897 28.2897 28.2897 28.2897 28.2897 28.2897 28.2897 28.2897 28.2897 28.2897 28.2897 73.2897 28.2897 28.2897 28.2897 28.2897 28.2897 28.2897 28.2897 28.2897 28.2897 28.2897 28.2897 28.2897 28.2897 28.2897 28.2897 28.2897 28.2897 28.2897 28.2897 28.2897 28.2897 28.2897 28.2897 28.2897 28.2897 28.2897 28.2897 28.2897 28.2897 28.2897 28.2897 32.2897 28.2897 28.2897 28.2897 28.2897 28.2897 29.2897 28.2897 28.2897 28.2897 48.2897 28.2897 28.2897 28.2897 30.2897 28.2897 28.2897 28.2897 28.2897 28.2897 28.2897 28.2897 28.2897 28.2897 28.2897 28.2897 28.2897 28.2897 28.2897 28.2897 28.2897 34.2897 213.29 28.2897 28.2897 28.2897 28.2897 28.2897 28.2897 28.2897 28.2897 28.2897 28.2897 28.2897 28.2897 28.2897 28.2897 28.2897 28.2897 28.2897 28.2897 86.2897 124.29 68.2897 28.2897 28.2897 28.2897 40.2897 104.29 28.2897 28.2897 28.2897 29.2897 28.2897 28.2897 28.2897 47.2897 28.2897 28.2897 28.2897 28.2897 28.2897 28.2897 28.2897 28.2897 28.2897 28.2897 28.2897 28.2897 28.2897 28.2897 28.2897 28.2897 28.2897 34.2897 28.2897 28.2897 28.2897 28.2897 28.2897 28.2897 28.2897 28.2897 28.2897 28.2897 31.2897 28.2897 28.2897 28.2897 28.2897 28.2897 28.2897 28.2897 80.2897 58.2897 28.2897 28.2897 28.2897 28.2897 28.2897 28.2897 28.2897 28.2897 28.2897 28.2897 28.2897 28.2897 28.2897 28.2897 28.2897 28.2897 28.2897 28.2897 28.2897 48.2897 28.2897 28.2897 28.2897 28.2897 28.2897 28.2897 28.2897 28.2897 28.2897 28.2897 28.2897 28.2897 28.2897 28.2897 28.2897 28.2897 28.2897 28.2897 28.2897 28.2897 28.2897 28.2897 30.2897 28.2897 28.2897 28.2897 28.2897 28.2897 28.2897 28.2897 28.2897 28.2897 28.2897 28.2897 28.2897 28.2897 28.2897 28.2897 28.2897 28.2897 28.2897 28.2897 28.2897 28.2897 28.2897 28.2897 28.2897 28.2897 28.2897 95.2897 28.2897 28.2897 28.2897 28.2897 28.2897 28.2897 28.2897 28.2897 28.2897 28.2897 31.2897 28.2897 28.2897 28.2897 28.2897 28.2897 28.2897 28.2897 28.2897 28.2897 28.2897 28.2897 28.2897 28.2897 28.2897 210.29 89.2897 49.2897 28.2897 31.2897 28.2897 28.2897 28.2897 34.2897 28.2897 28.2897 28.2897 28.2897 28.2897 28.2897 28.2897 28.2897 28.2897 28.2897 28.2897 28.2897 28.2897 28.2897 28.2897 28.2897 28.2897 28.2897 28.2897 28.2897 28.2897 28.2897 28.2897 28.2897 28.2897 28.2897 28.2897 28.2897 28.2897 28.2897 28.2897 28.2897 28.2897 28.2897 28.2897 28.2897 28.2897 28.2897 28.2897 28.2897 28.2897 28.2897 28.2897 28.2897 28.2897 28.2897 28.2897 28.2897 28.2897 28.2897 28.2897 28.2897 28.2897 28.2897 28.2897 28.2897 28.2897 28.2897 28.2897 28.2897 28.2897 28.2897 28.2897 28.2897 28.2897 28.2897 28.2897 28.2897 28.2897 28.2897 28.2897 28.2897 28.2897 28.2897 28.2897 28.2897 28.2897 28.2897 28.2897 28.2897 28.2897 28.2897 28.2897 28.2897 28.2897 28.2897 28.2897 28.2897 28.2897 28.2897 28.2897 28.2897 28.2897 28.2897 28.2897 28.2897 28.2897 28.2897 28.2897 28.2897 39.2897 28.2897 28.2897 145.29 84.2897 50.2897 28.2897 86.2897 28.2897 28.2897 28.2897 28.2897 28.2897 28.2897 28.2897 28.2897 28.2897 28.2897 28.2897 28.2897 28.2897 28.2897 28.2897 28.2897 30.2897 28.2897 102.29 72.2897 67.2897 28.2897 36.2897 118.29 28.2897 28.2897 28.2897 28.2897 28.2897 28.2897 28.2897 28.2897 28.2897 28.2897 28.2897 28.2897 28.2897 28.2897 28.2897 28.2897 29.2897 33.2897 784.29 43.2897 28.2897 28.2897 28.2897 28.2897 28.2897 28.2897 28.2897 28.2897 28.2897 28.2897 34.2897 28.2897 28.2897 28.2897 28.2897 28.2897 28.2897 28.2897 28.2897 28.2897 28.2897 28.2897 28.2897 28.2897 28.2897 28.2897 28.2897 41.2897 29.2897 28.2897 28.2897 28.2897 28.2897 28.2897 28.2897 28.2897 54.2897 28.2897 28.2897 28.2897 28.2897 28.2897 28.2897 28.2897 28.2897 28.2897 28.2897 28.2897 28.2897 28.2897 28.2897 28.2897 28.2897 28.2897 40.2897 28.2897 28.2897 28.2897 28.2897 28.2897 28.2897 28.2897 28.2897 28.2897 28.2897 28.2897 28.2897 28.2897 28.2897 28.2897 28.2897 28.2897 28.2897 28.2897 28.2897 28.2897 28.2897 28.2897 28.2897 28.2897 28.2897 28.2897 28.2897 28.2897 28.2897 28.2897 28.2897 28.2897 28.2897 28.2897 28.2897 28.2897 28.2897 28.2897 28.2897 28.2897 28.2897 28.2897 28.2897 28.2897 55.2897 28.2897 28.2897 28.2897 28.2897 32.2897 28.2897 28.2897 28.2897 28.2897 28.2897 28.2897 28.2897 28.2897 28.2897 28.2897 28.2897 28.2897 28.2897 28.2897 28.2897 28.2897 28.2897 28.2897 28.2897 28.2897 28.2897 28.2897 28.2897 28.2897 28.2897 28.2897 28.2897 28.2897 28.2897 28.2897 28.2897 28.2897 28.2897 28.2897 28.2897 28.2897 28.2897 28.2897 28.2897 28.2897 28.2897 28.2897 28.2897 28.2897 28.2897 28.2897 28.2897 28.2897 28.2897 28.2897 28.2897 28.2897 28.2897 28.2897 28.2897 28.2897 67.2897 469.29 319.29 28.2897 28.2897 28.2897 28.2897 38.2897 172.29 28.2897 28.2897 28.2897 28.2897 28.2897 28.2897 28.2897 28.2897 28.2897 28.2897 28.2897 28.2897 28.2897 28.2897 28.2897 28.2897 28.2897 28.2897 28.2897 28.2897 28.2897 28.2897 28.2897 28.2897 28.2897 28.2897 28.2897 28.2897 28.2897 121.29 28.2897 28.2897 28.2897 28.2897 28.2897 28.2897 28.2897 28.2897 28.2897 97.2897 28.2897 28.2897 28.2897 28.2897 28.2897 28.2897 28.2897 28.2897 28.2897 28.2897 28.2897 28.2897 28.2897 28.2897 28.2897 28.2897 28.2897 28.2897 28.2897 28.2897 28.2897 153.29 28.2897 28.2897 28.2897 28.2897 28.2897 28.2897 28.2897 28.2897 
rewards of Offsets elements: 2597 0 15 1 0 0 0 125 477 327 0 186 76 36 84 0 0 0 194 8 0 325 8 0 0 10 0 0 0 36 2450 0 0 0 4254 0 92 0 0 28 1111 0 1126 0 0 0 0 0 0 1480 5 0 0 0 0 0 0 0 0 0 0 160 0 0 980 0 0 0 0 0 0 0 0 0 0 0 0 0 0 1 0 0 0 0 0 0 0 4 0 0 200 89 126 413 58 2 0 0 0 0 0 0 0 0 0 0 0 0 0 0 0 24 0 48 0 14 0 0 0 0 2 543 921 0 0 0 820 0 0 0 0 49 0 0 0 0 0 0 0 0 0 0 0 0 224 0 0 0 0 0 0 0 0 0 0 0 0 0 0 0 0 0 28 0 0 40 52 0 0 0 0 400 25 0 0 1413 0 0 2 0 0 0 0 0 0 288 0 0 37 2 0 0 0 0 0 0 0 0 162 0 195 0 0 0 0 0 83 0 0 0 0 0 0 0 0 0 0 0 0 0 0 32 0 0 0 0 0 0 0 0 0 0 0 0 0 0 0 0 0 0 0 0 0 0 0 0 0 917 0 0 0 0 0 0 0 0 0 727 0 0 0 0 0 0 0 0 0 1567 0 0 0 0 0 0 874 10 26 171 0 95 0 0 0 0 0 0 153 275 0 0 0 85 499 547 0 0 50 11 21 100 0 0 118 0 0 0 420 189 94 0 0 1 16 0 0 212 0 0 0 0 0 0 0 0 0 0 0 0 0 0 0 0 0 0 0 0 0 0 0 0 0 0 0 0 0 9 0 0 16 8 0 0 0 0 82 233 12 0 44 51 0 0 0 0 0 0 0 3 0 17 4 0 0 0 0 0 0 0 0 101 0 0 0 0 0 0 37 0 1 2 0 0 0 0 75 0 0 0 0 0 2 0 0 0 0 435 0 0 0 0 0 0 0 0 0 0 0 245 0 0 0 0 0 0 0 2 0 0 0 0 0 0 0 0 0 0 0 0 0 0 0 0 0 0 0 0 0 41 0 0 62 0 0 12 0 0 0 0 268 119 0 0 0 0 0 0 0 0 0 0 0 0 0 0 0 0 0 0 0 0 0 0 0 0 0 0 81 0 107 0 0 0 25 0 0 0 0 0 0 0 0 0 0 0 0 13 0 0 0 0 0 0 0 0 0 0 0 0 0 0 0 0 0 0 67 0 0 0 2 0 0 0 0 0 0 0 0 0 0 0 0 0 0 0 0 0 0 0 0 0 0 81 0 0 0 0 4 0 0 0 0 0 0 0 0 0 0 0 0 0 0 0 0 0 0 0 0 0 0 0 1 0 0 0 0 0 0 0 0 0 102 116 258 0 36 0 0 0 0 0 0 0 0 0 0 0 0 40 0 0 0 0 496 3 0 0 0 0 0 0 0 0 0 0 0 0 679 298 235 9 0 0 0 0 0 0 0 0 0 0 0 0 0 0 0 369 0 0 0 0 0 0 0 0 0 0 0 0 0 0 0 0 3 30 0 1 0 0 0 10 2 0 3 0 0 0 0 0 0 0 0 0 0 0 0 0 0 0 0 0 0 0 0 0 0 0 0 0 0 0 0 0 0 0 0 0 0 0 0 0 157 0 0 0 0 0 0 0 0 0 0 0 0 0 0 0 0 0 0 0 0 0 0 0 34 8 40 0 0 60 40 0 0 0 0 0 0 0 0 0 0 0 0 0 0 0 156 100 0 2 0 0 0 0 0 140 0 0 4 0 0 0 0 0 0 0 0 46 44 1518 0 0 0 0 0 0 0 0 0 0 0 0 0 0 0 0 0 0 396 0 0 0 0 0 0 0 0 0 0 0 0 0 0 0 0 0 0 0 0 0 0 0 481 0 0 0 0 0 0 0 0 0 0 0 0 0 0 0 0 0 0 0 0 0 0 63 39 60 143 170 114 0 0 0 0 0 0 0 0 0 0 0 0 0 0 0 0 0 0 0 0 0 0 0 0 0 0 0 0 0 0 0 0 0 1483 1406 0 0 0 0 0 0 0 0 0 0 0 0 0 0 0 0 0 0 0 0 0 0 0 0 0 0 0 0 1 0 0 0 0 118 13 0 0 0 0 0 0 0 0 0 100 165 39 0 0 0 0 0 0 0 0 0 0 0 0 0 0 0 0 0 0 0 1 0 0 0 0 0 210 0 0 0 0 0 0 0 0 0 0 0 0 51 70 0 0 0 0 0 0 0 0 0 0 0 16 0 0 0 0 0 0 0 0 0 0 0 0 0 0 0 0 0 0 12 55 28 3 0 0 0 0 0 0 0 0 0 0 0 0 0 0 0 0 1 0 419 0 0 0 0 318 0 0 0 0 25 0 0 0 0 0 0 0 327 0 0 0 0 0 12 0 0 0 0 0 92 364 87 0 0 0 0 0 0 0 0 0 0 0 0 0 0 10 0 0 0 0 0 0 0 0 0 0 0 0 0 0 0 0 0 0 0 0 0 0 64 0 0 0 0 0 0 0 0 0 9 115 0 0 0 0 0 0 0 164 0 0 0 0 0 0 0 0 0 0 42 0 54 0 80 75 0 0 0 0 0 0 0 0 0 0 0 0 0 0 0 60 56 0 0 0 0 0 293 0 0 0 0 0 0 0 0 0 0 0 0 65 138 0 0 0 0 0 0 0 0 0 0 0 0 0 0 0 0 0 0 0 0 0 0 0 0 0 0 0 1 0 2 0 0 0 0 246 0 0 22 0 0 0 0 0 0 0 0 0 0 12 0 198 0 0 0 0 0 0 0 0 0 0 0 0 0 0 0 0 0 0 0 0 0 0 0 0 0 0 7 0 0 0 0 0 0 170 0 0 0 0 0 0 0 0 0 0 0 0 0 0 0 0 0 0 0 0 0 14 9 0 0 0 0 0 0 0 0 0 0 0 0 0 93 1 0 0 0 0 0 0 0 0 0 0 0 0 0 0 168 0 54 0 0 0 0 0 0 0 0 0 0 0 0 0 0 0 0 0 0 0 0 0 7 0 0 0 0 0 0 0 0 0 0 0 2 0 53 0 52 245 0 29 46 0 0 57 543 0 0 0 0 0 0 1 0 0 0 0 0 120 4 12 1 0 0 0 0 0 0 0 0 0 0 0 0 0 0 0 0 45 0 0 0 0 0 0 0 0 0 0 0 0 0 0 0 0 0 0 0 0 0 0 0 0 0 0 0 0 0 0 0 4 0 0 0 0 0 1 0 0 0 20 0 0 0 2 0 0 0 0 0 0 0 0 0 0 0 0 0 0 0 0 6 185 0 0 0 0 0 0 0 0 0 0 0 0 0 0 0 0 0 0 58 96 40 0 0 0 12 76 0 0 0 1 0 0 0 19 0 0 0 0 0 0 0 0 0 0 0 0 0 0 0 0 0 6 0 0 0 0 0 0 0 0 0 0 3 0 0 0 0 0 0 0 52 30 0 0 0 0 0 0 0 0 0 0 0 0 0 0 0 0 0 0 0 20 0 0 0 0 0 0 0 0 0 0 0 0 0 0 0 0 0 0 0 0 0 0 2 0 0 0 0 0 0 0 0 0 0 0 0 0 0 0 0 0 0 0 0 0 0 0 0 0 0 67 0 0 0 0 0 0 0 0 0 0 3 0 0 0 0 0 0 0 0 0 0 0 0 0 0 182 61 21 0 3 0 0 0 6 0 0 0 0 0 0 0 0 0 0 0 0 0 0 0 0 0 0 0 0 0 0 0 0 0 0 0 0 0 0 0 0 0 0 0 0 0 0 0 0 0 0 0 0 0 0 0 0 0 0 0 0 0 0 0 0 0 0 0 0 0 0 0 0 0 0 0 0 0 0 0 0 0 0 0 0 0 0 0 0 0 0 0 0 0 0 0 0 0 0 0 0 0 0 0 0 0 0 0 0 11 0 0 117 56 22 0 58 0 0 0 0 0 0 0 0 0 0 0 0 0 0 0 0 2 0 74 44 39 0 8 90 0 0 0 0 0 0 0 0 0 0 0 0 0 0 0 0 1 5 756 15 0 0 0 0 0 0 0 0 0 0 6 0 0 0 0 0 0 0 0 0 0 0 0 0 0 0 0 13 1 0 0 0 0 0 0 0 26 0 0 0 0 0 0 0 0 0 0 0 0 0 0 0 0 0 12 0 0 0 0 0 0 0 0 0 0 0 0 0 0 0 0 0 0 0 0 0 0 0 0 0 0 0 0 0 0 0 0 0 0 0 0 0 0 0 0 0 0 0 0 0 27 0 0 0 0 4 0 0 0 0 0 0 0 0 0 0 0 0 0 0 0 0 0 0 0 0 0 0 0 0 0 0 0 0 0 0 0 0 0 0 0 0 0 0 0 0 0 0 0 0 0 0 0 0 0 0 0 0 0 0 0 0 39 441 291 0 0 0 0 10 144 0 0 0 0 0 0 0 0 0 0 0 0 0 0 0 0 0 0 0 0 0 0 0 0 0 0 0 0 0 93 0 0 0 0 0 0 0 0 0 69 0 0 0 0 0 0 0 0 0 0 0 0 0 0 0 0 0 0 0 0 0 125 0 0 0 0 0 0 0 0 Printing Sanity3
offset_index value2020
offset list size2020
reward size2020
potential size2020
-----------------------------------------------------------------------------------------------------------------------------------------------------------------------------------------------------

DRAM Statistics
 CHANNEL 0
 RQ ROW_BUFFER_HIT:       4969  ROW_BUFFER_MISS:      14740
 DBUS_CONGESTED:         25
 WQ ROW_BUFFER_HIT:       1008  ROW_BUFFER_MISS:       8499  FULL:          0

 AVG_CONGESTED_CYCLE: 4
 All warmup complete: 2
Channel 0 Bank busy for read cycles: 0
Channel 0 Bank busy for write cycles: 0
Channel 0
Rank 0
0banks busy for read cycles: 641972930
0banks busy for write cycles: 4079
1banks busy for read cycles: 1137960
1banks busy for write cycles: 519451
2banks busy for read cycles: 228851
2banks busy for write cycles: 117509
3banks busy for read cycles: 100194
3banks busy for write cycles: 62851
4banks busy for read cycles: 52007
4banks busy for write cycles: 39736
5banks busy for read cycles: 28284
5banks busy for write cycles: 22321
6banks busy for read cycles: 17575
6banks busy for write cycles: 23559
7banks busy for read cycles: 9106
7banks busy for write cycles: 22673
8banks busy for read cycles: 5593
8banks busy for write cycles: 14898

CPU 0 Branch Prediction Accuracy: 99.8849% MPKI: 0.202245 Average ROB Occupancy at Mispredict: 31.7733
Branch types
NOT_BRANCH: 164866949 82.4335%
BRANCH_DIRECT_JUMP: 2025964 1.01298%
BRANCH_INDIRECT: 11876543 5.93827%
BRANCH_CONDITIONAL: 12688705 6.34435%
BRANCH_DIRECT_CALL: 3602862 1.80143%
BRANCH_INDIRECT_CALL: 667964 0.333982%
BRANCH_RETURN: 4270757 2.13538%
BRANCH_OTHER: 0 0%

DRAM PAGES: 1048576
Allocated PAGES: 1949
