
*** ChampSim Multicore Out-of-Order Simulator ***

Warmup Instructions: 50000000
Simulation Instructions: 200000000
Number of CPUs: 1
LLC sets: 2048
LLC ways: 16
Off-chip DRAM Size: 4096 MB Channels: 1 Width: 64-bit Data Rate: 6400 MT/s
CPU 0 runs traces/spec2k17/srv_39.champsimtrace.xz
.xz
BTB has LRU replacement policy
ITLB has LRU replacement policy
DTLB has LRU replacement policy
STLB has LRU replacement policy
L1I has LRU replacement policy
L1D has LRU replacement policy
Initialize SRRIP state for L2C
Initialize DRRIP state for LLC
Heartbeat CPU 0 instructions: 10000001 cycles: 2942130 heartbeat IPC: 3.3989 cumulative IPC: 3.3989 (Simulation time: 0 hr 0 min 43 sec) 
Heartbeat CPU 0 instructions: 20000002 cycles: 5875457 heartbeat IPC: 3.4091 cumulative IPC: 3.40399 (Simulation time: 0 hr 1 min 26 sec) 
Heartbeat CPU 0 instructions: 30000003 cycles: 8815953 heartbeat IPC: 3.40079 cumulative IPC: 3.40292 (Simulation time: 0 hr 2 min 9 sec) 
*** Reached end of trace for Core: 0 Repeating trace: traces/spec2k17/srv_39.champsimtrace.xz
Heartbeat CPU 0 instructions: 40000000 cycles: 11754969 heartbeat IPC: 3.4025 cumulative IPC: 3.40282 (Simulation time: 0 hr 2 min 53 sec) 
Heartbeat CPU 0 instructions: 50000000 cycles: 14688137 heartbeat IPC: 3.40928 cumulative IPC: 3.40411 (Simulation time: 0 hr 3 min 37 sec) 

Warmup complete CPU 0 instructions: 50000004 cycles: 14688138 (Simulation time: 0 hr 3 min 37 sec) 

Offsets elements: 
Potential of Offsets elements: 
rewards of Offsets elements: 
Printing Sanity1
offset list size2072
Offsets elements: 
Potential of Offsets elements: 
rewards of Offsets elements: 0 0 0 0 0 0 0 0 0 0 0 0 457 0 0 848 0 163 697 0 0 0 20 0 1174 0 134 0 0 0 0 0 0 0 0 466 359 0 0 0 0 0 0 0 0 0 655 0 0 0 0 0 0 0 0 0 0 0 76 490 746 0 0 0 0 0 0 0 0 0 0 487 0 0 495 0 0 0 0 581 0 0 126 228 0 0 0 0 0 0 534 292 242 0 0 0 0 0 0 0 309 735 0 0 0 0 553 0 0 0 0 0 0 0 0 0 0 0 0 0 0 0 0 0 0 0 0 0 0 0 0 0 0 0 0 0 0 0 0 3 0 12 0 0 0 0 0 9 0 0 12 0 0 24 0 266 0 0 0 0 30 9 0 0 329 9 27 18 0 416 0 0 0 38 0 0 0 0 184 0 0 0 0 0 0 0 87 0 0 0 0 0 0 0 0 0 235 395 0 0 0 28 0 0 0 0 0 0 0 0 0 0 0 0 0 0 0 0 0 0 0 0 0 0 0 0 0 0 0 0 0 0 0 0 0 0 0 0 0 0 10 0 0 0 1 0 17 0 0 1 0 5 0 0 0 0 0 0 0 0 0 0 0 0 0 213 0 0 0 0 130 0 0 0 0 0 0 0 0 0 0 0 10 40 0 0 0 0 0 0 0 0 0 14 4 0 0 9 0 0 26 0 0 0 0 0 0 0 0 2 0 0 0 0 0 0 0 0 0 0 0 18 0 15 0 0 4 0 0 12 0 0 10 0 0 6 0 0 6 0 0 4 0 0 6 0 0 0 0 0 2 0 0 13 0 0 6 0 0 0 0 0 0 0 0 0 0 0 0 0 0 0 0 0 0 0 0 0 0 0 0 0 0 0 0 0 0 2 0 302 0 0 426 3 8 0 0 0 0 0 0 0 0 0 0 0 0 0 0 24 0 0 0 0 0 0 0 0 0 0 0 0 0 0 0 0 0 0 0 0 0 0 0 0 0 0 0 0 0 0 0 0 0 0 0 0 0 0 0 0 0 0 0 0 0 0 419 0 0 0 0 0 0 5 0 0 0 0 0 0 0 227 0 0 0 12 0 0 0 0 10 0 0 0 0 0 88 0 0 0 462 0 0 0 0 10 12 16 0 0 0 0 0 0 0 0 0 0 0 0 0 0 0 0 0 0 3 0 198 0 0 0 0 149 383 0 0 0 5 6 438 0 0 0 0 0 0 0 0 48 0 0 0 2 0 0 0 0 0 455 0 0 0 2 0 0 0 0 0 0 0 0 0 0 0 0 0 0 0 0 0 0 0 0 0 0 0 0 4 0 0 0 0 0 0 0 0 0 0 0 0 0 0 0 0 0 0 0 0 0 0 0 0 0 0 0 0 0 0 0 0 0 0 0 0 0 0 0 0 0 0 0 0 0 0 0 0 0 0 0 0 0 0 0 0 0 0 0 0 0 0 0 0 0 0 0 0 0 0 0 0 38 0 0 0 16 2 0 0 0 4 0 0 92 0 0 89 0 0 0 0 7 0 36 4 34 2 0 0 0 0 0 12 5 0 0 0 0 0 0 0 0 0 0 0 0 0 0 0 0 0 0 0 0 18 0 40 8 0 4 0 0 8 0 0 0 0 0 0 0 1 13 0 0 0 0 0 0 0 0 0 0 6 0 0 0 0 0 0 0 0 0 0 0 0 0 0 0 0 0 0 0 0 0 0 0 0 0 4 0 4 0 0 0 0 0 0 0 0 0 0 0 0 0 0 0 0 0 0 0 0 0 0 0 0 0 0 0 0 0 0 0 0 0 0 0 0 0 0 0 0 0 0 0 0 0 0 0 0 0 0 0 0 0 0 0 0 0 0 0 0 0 0 0 0 0 0 0 0 0 0 1 0 0 0 0 0 0 0 0 14 0 0 0 0 0 0 0 0 0 0 0 0 0 0 3 0 0 0 0 0 0 0 0 0 0 0 0 0 0 0 6 7 0 0 0 0 0 0 497 0 0 0 0 0 0 0 2 0 0 1 0 0 0 0 48 0 0 0 0 0 0 0 0 228 0 0 0 0 0 0 0 0 44 1 0 0 0 0 0 0 0 0 0 0 0 0 0 0 0 0 0 0 0 0 0 0 0 0 0 0 0 0 0 254 0 0 0 0 0 0 0 0 0 0 0 0 0 0 0 0 0 0 0 0 0 0 0 0 0 326 0 0 0 0 0 0 0 0 0 0 0 0 0 0 0 0 0 0 0 0 0 0 0 0 0 0 0 0 0 0 0 0 0 0 0 0 0 0 0 0 0 0 0 0 0 0 0 0 20 0 0 0 0 0 0 0 0 0 33 0 0 0 0 0 0 0 0 0 0 0 0 0 3 0 0 1 0 0 0 0 0 8 12 0 6 0 0 15 0 0 30 0 0 2 0 0 2 0 0 0 0 0 8 0 0 0 0 0 0 0 0 0 0 0 0 0 0 24 0 0 0 0 0 6 0 0 0 0 4 30 0 31 0 0 0 0 0 0 0 0 0 0 0 0 0 0 0 0 0 9 0 0 0 0 0 0 364 0 0 0 0 0 0 0 0 0 0 0 0 0 0 0 0 0 0 0 0 0 0 0 9 0 0 0 0 0 0 0 0 0 0 0 0 0 0 0 0 0 0 0 0 0 0 0 0 0 0 0 0 0 0 0 0 0 0 0 0 0 0 0 0 0 0 0 0 0 0 0 0 0 0 0 0 0 0 0 0 42 0 0 0 0 5 0 0 0 0 0 0 0 0 0 0 0 0 0 0 0 16 0 7 0 0 0 0 0 0 0 0 0 0 0 0 0 0 0 0 0 0 0 0 38 0 0 43 0 0 0 0 0 0 0 0 774 0 0 0 0 0 217 18 0 0 0 0 0 0 25 0 0 0 0 0 0 0 0 0 0 0 0 0 0 0 0 21 0 0 0 0 0 0 0 0 0 0 0 0 0 0 0 0 0 0 0 0 0 0 0 0 0 0 0 0 0 0 0 0 0 0 0 0 0 0 0 0 0 0 0 0 0 0 0 0 0 0 0 0 0 0 0 0 0 0 0 0 0 0 0 0 0 0 0 0 0 0 0 0 0 0 0 0 0 0 0 0 10 0 0 0 3 0 9 0 0 24 0 0 3 0 17 0 0 0 0 0 0 0 0 0 3 0 0 0 0 0 0 0 0 45 0 0 6 0 0 0 0 0 0 0 1 0 0 0 0 0 0 0 0 0 0 0 0 0 3 0 0 0 0 5 0 0 0 0 0 0 0 130 0 0 0 42 0 0 0 0 0 0 0 0 0 0 0 0 0 0 0 0 0 0 0 21 0 0 0 0 0 0 40 0 0 0 0 0 0 0 0 0 0 0 0 0 0 0 0 1 0 0 0 0 0 0 0 0 0 0 0 0 0 0 0 0 0 0 0 0 0 0 0 0 0 0 0 0 0 0 0 0 0 3 0 0 0 0 0 0 0 0 0 0 0 0 0 0 0 0 0 0 0 0 0 0 0 0 0 0 0 0 0 0 0 0 0 0 0 0 0 0 0 0 0 0 0 0 0 0 0 0 0 0 0 0 0 100 0 24 0 0 0 0 0 0 0 0 0 0 0 0 0 0 0 0 0 0 0 13 0 0 0 0 6 0 0 0 0 0 0 17 0 0 0 0 0 8 0 0 4 0 0 1 0 0 0 0 0 8 0 0 1 0 7 0 0 0 0 0 30 0 0 0 1 0 0 0 0 0 0 0 0 0 0 0 0 0 0 0 0 0 0 0 0 0 0 0 0 0 0 0 299 0 0 0 0 0 0 0 0 0 0 0 0 0 0 78 0 0 0 0 0 0 58 0 0 0 0 0 0 0 0 0 0 0 0 0 0 0 0 0 0 0 0 0 0 0 0 0 0 0 0 0 0 0 0 0 0 0 0 0 0 0 0 0 0 0 0 0 0 0 0 0 0 24 0 0 0 0 0 0 0 0 0 0 0 0 0 0 0 0 0 0 0 0 0 0 0 0 0 0 0 0 0 0 0 0 0 0 0 0 0 0 0 0 0 0 0 0 0 0 0 0 0 0 0 0 0 0 0 0 0 0 0 0 0 0 0 0 0 0 0 0 0 0 0 0 32 160 0 0 0 0 0 0 0 0 0 0 0 0 0 0 0 0 0 0 0 0 0 0 0 0 0 0 0 0 0 0 0 0 0 0 0 0 0 0 0 0 0 0 0 0 0 0 0 0 0 0 0 4 0 0 0 0 0 0 0 0 0 0 0 0 0 0 0 0 0 0 0 0 0 0 0 0 0 0 0 0 0 0 0 0 0 0 0 0 0 0 0 0 0 0 0 0 0 0 0 0 0 0 0 1 0 0 0 0 0 30 0 0 0 0 0 0 0 0 0 0 0 0 0 0 0 0 0 0 0 0 0 0 0 0 0 0 0 0 0 0 0 0 0 0 0 0 0 0 0 0 4 3 0 0 6 1 0 0 0 0 0 0 0 0 0 0 72 0 0 0 0 0 0 0 0 0 0 0 0 0 32 47 16 0 203 236 0 0 0 0 0 0 0 0 0 0 0 0 0 0 0 0 0 0 0 0 0 0 0 0 0 0 0 0 0 0 0 0 300 0 0 0 0 0 0 0 0 0 0 0 0 0 0 0 0 0 0 0 0 0 0 0 0 0 0 0 
Printing Sanity2
Heartbeat CPU 0 instructions: 60000003 cycles: 34526957 heartbeat IPC: 0.504062 cumulative IPC: 0.504062 (Simulation time: 0 hr 4 min 55 sec) 
*** Reached end of trace for Core: 0 Repeating trace: traces/spec2k17/srv_39.champsimtrace.xz
Heartbeat CPU 0 instructions: 70000000 cycles: 54214028 heartbeat IPC: 0.507947 cumulative IPC: 0.505997 (Simulation time: 0 hr 6 min 13 sec) 
Heartbeat CPU 0 instructions: 80000001 cycles: 73895882 heartbeat IPC: 0.508082 cumulative IPC: 0.50669 (Simulation time: 0 hr 7 min 34 sec) 
Heartbeat CPU 0 instructions: 90000000 cycles: 93227845 heartbeat IPC: 0.517278 cumulative IPC: 0.509296 (Simulation time: 0 hr 8 min 53 sec) 
*** Reached end of trace for Core: 0 Repeating trace: traces/spec2k17/srv_39.champsimtrace.xz
Heartbeat CPU 0 instructions: 100000000 cycles: 112631130 heartbeat IPC: 0.515377 cumulative IPC: 0.510501 (Simulation time: 0 hr 10 min 9 sec) 
Heartbeat CPU 0 instructions: 110000000 cycles: 132097045 heartbeat IPC: 0.513718 cumulative IPC: 0.511034 (Simulation time: 0 hr 11 min 31 sec) 
Heartbeat CPU 0 instructions: 120000000 cycles: 151511187 heartbeat IPC: 0.515088 cumulative IPC: 0.51161 (Simulation time: 0 hr 12 min 49 sec) 
*** Reached end of trace for Core: 0 Repeating trace: traces/spec2k17/srv_39.champsimtrace.xz
Heartbeat CPU 0 instructions: 130000000 cycles: 170845759 heartbeat IPC: 0.517208 cumulative IPC: 0.512303 (Simulation time: 0 hr 14 min 10 sec) 
Heartbeat CPU 0 instructions: 140000000 cycles: 190397487 heartbeat IPC: 0.511464 cumulative IPC: 0.512209 (Simulation time: 0 hr 15 min 32 sec) 
Heartbeat CPU 0 instructions: 150000003 cycles: 209812556 heartbeat IPC: 0.515064 cumulative IPC: 0.512493 (Simulation time: 0 hr 16 min 48 sec) 
Heartbeat CPU 0 instructions: 160000000 cycles: 229136320 heartbeat IPC: 0.517497 cumulative IPC: 0.512944 (Simulation time: 0 hr 18 min 6 sec) 
*** Reached end of trace for Core: 0 Repeating trace: traces/spec2k17/srv_39.champsimtrace.xz
Heartbeat CPU 0 instructions: 170000001 cycles: 248665810 heartbeat IPC: 0.512046 cumulative IPC: 0.512869 (Simulation time: 0 hr 19 min 25 sec) 
Heartbeat CPU 0 instructions: 180000000 cycles: 268103785 heartbeat IPC: 0.514457 cumulative IPC: 0.512991 (Simulation time: 0 hr 20 min 44 sec) 
Heartbeat CPU 0 instructions: 190000000 cycles: 287521443 heartbeat IPC: 0.514995 cumulative IPC: 0.513134 (Simulation time: 0 hr 22 min 1 sec) 
*** Reached end of trace for Core: 0 Repeating trace: traces/spec2k17/srv_39.champsimtrace.xz
Heartbeat CPU 0 instructions: 200000001 cycles: 306894964 heartbeat IPC: 0.516168 cumulative IPC: 0.513335 (Simulation time: 0 hr 23 min 19 sec) 
Heartbeat CPU 0 instructions: 210000000 cycles: 326434107 heartbeat IPC: 0.511793 cumulative IPC: 0.513238 (Simulation time: 0 hr 24 min 34 sec) 
Heartbeat CPU 0 instructions: 220000000 cycles: 345822299 heartbeat IPC: 0.515778 cumulative IPC: 0.513387 (Simulation time: 0 hr 25 min 52 sec) 
*** Reached end of trace for Core: 0 Repeating trace: traces/spec2k17/srv_39.champsimtrace.xz
Heartbeat CPU 0 instructions: 230000000 cycles: 365228047 heartbeat IPC: 0.515311 cumulative IPC: 0.513494 (Simulation time: 0 hr 27 min 9 sec) 
Heartbeat CPU 0 instructions: 240000001 cycles: 384680179 heartbeat IPC: 0.514082 cumulative IPC: 0.513525 (Simulation time: 0 hr 28 min 27 sec) 
Heartbeat CPU 0 instructions: 250000000 cycles: 404051325 heartbeat IPC: 0.516232 cumulative IPC: 0.513659 (Simulation time: 0 hr 29 min 46 sec) 
Finished CPU 0 instructions: 200000000 cycles: 389363196 cumulative IPC: 0.513659 (Simulation time: 0 hr 29 min 46 sec) 

ChampSim completed all CPUs

Region of Interest Statistics

CPU 0 cumulative IPC: 0.513659 instructions: 200000000 cycles: 389363196
ITLB TOTAL     ACCESS:   33801378  HIT:   32261072  MISS:    1540306  HIT %:    95.4431  MISS %:    4.55693   MPKI: 7.70153
ITLB LOAD TRANSLATION ACCESS:   33801378  HIT:   32261072  MISS:    1540306  HIT %:    95.4431  MISS %:    4.55693   MPKI: 7.70153
ITLB PREFETCH  REQUESTED:          0  ISSUED:          0  USEFUL:          0  USELESS:          0
ITLB USEFUL LOAD PREFETCHES:          0 PREFETCH ISSUED TO LOWER LEVEL:          0  ACCURACY: -nan
ITLB TIMELY PREFETCHES:          0 LATE PREFETCHES: 0 DROPPED PREFETCHES: 0
ITLB PREFETCHES SAME FILL-ORIGIN LEVEL: 0 DIFFERENT FILL-ORIGIN LEVEL: 0
ITLB AVERAGE MISS LATENCY: 9.21981 cycles
ITLB RQ	ACCESS:   40686432	FORWARD:          0	MERGED:    6390393	TO_CACHE:   34296039

DTLB TOTAL     ACCESS:   40171570  HIT:   38654300  MISS:    1517270  HIT %:     96.223  MISS %:    3.77697   MPKI: 7.58635
DTLB LOAD TRANSLATION ACCESS:   40171570  HIT:   38654300  MISS:    1517270  HIT %:     96.223  MISS %:    3.77697   MPKI: 7.58635
DTLB PREFETCH  REQUESTED:          0  ISSUED:          0  USEFUL:          0  USELESS:          0
DTLB USEFUL LOAD PREFETCHES:          0 PREFETCH ISSUED TO LOWER LEVEL:          0  ACCURACY: -nan
DTLB TIMELY PREFETCHES:          0 LATE PREFETCHES: 0 DROPPED PREFETCHES: 0
DTLB PREFETCHES SAME FILL-ORIGIN LEVEL: 0 DIFFERENT FILL-ORIGIN LEVEL: 0
DTLB AVERAGE MISS LATENCY: 14.2116 cycles
DTLB RQ	ACCESS:   61235278	FORWARD:          0	MERGED:   20671429	TO_CACHE:   40563849

STLB TOTAL     ACCESS:   10822584  HIT:   10744026  MISS:      78558  HIT %:    99.2741  MISS %:   0.725871   MPKI: 0.39279
STLB LOAD TRANSLATION ACCESS:    3057576  HIT:    2980711  MISS:      76865  HIT %:    97.4861  MISS %:    2.51392   MPKI: 0.384325
STLB TRANSLATION FROM L1D PREFETCHER ACCESS:    7765008  HIT:    7763315  MISS:       1693  HIT %:    99.9782  MISS %:  0.0218029   MPKI: 0.008465
STLB PREFETCH  REQUESTED:          0  ISSUED:          0  USEFUL:       1477  USELESS:        214
STLB USEFUL LOAD PREFETCHES:       1477 PREFETCH ISSUED TO LOWER LEVEL:          0  ACCURACY: inf
STLB TIMELY PREFETCHES:       1477 LATE PREFETCHES: 557 DROPPED PREFETCHES: 25994
STLB PREFETCHES SAME FILL-ORIGIN LEVEL: 0 DIFFERENT FILL-ORIGIN LEVEL: 0
STLB AVERAGE MISS LATENCY: 106.275 cycles
STLB RQ	ACCESS:   13781845	FORWARD:          0	MERGED:    2932704	TO_CACHE:   10849141

STLB Hit, L1D data hit: 0
STLB Hit, L2C data hit: 0
STLB Hit, LLC data hit: 0
STLB Hit, LLC data miss: 0
STLB STLB hints to L2: 0
L1D TOTAL     ACCESS:   58664965  HIT:   51243432  MISS:    7421533  HIT %:    87.3493  MISS %:    12.6507   MPKI: 37.1077
L1D LOAD      ACCESS:   26833046  HIT:   23965239  MISS:    2867807  HIT %:    89.3124  MISS %:    10.6876   MPKI: 14.339
L1D RFO       ACCESS:   22550657  HIT:   18878488  MISS:    3672169  HIT %:    83.7159  MISS %:    16.2841   MPKI: 18.3608
L1D PREFETCH  ACCESS:    9281262  HIT:    8399705  MISS:     881557  HIT %:    90.5018  MISS %:    9.49824   MPKI: 4.40778
AGUS PREFETCH L1 MISS: 0
L1D PREFETCH  REQUESTED:   21857761  ISSUED:   21857700  USEFUL:     298547  USELESS:     582895
L1D USEFUL LOAD PREFETCHES:     298547 PREFETCH ISSUED TO LOWER LEVEL:    1277061  ACCURACY: 23.3777
L1D TIMELY PREFETCHES:     298547 LATE PREFETCHES: 389427 DROPPED PREFETCHES: 25994
L1D PREFETCHES SAME FILL-ORIGIN LEVEL: 1277061 DIFFERENT FILL-ORIGIN LEVEL: 0
L1D AVERAGE MISS LATENCY: 1.2363e+07 cycles
L1D RQ	ACCESS:   45384771	FORWARD:          0	MERGED:   17885053	TO_CACHE:   27248442
L1D WQ	ACCESS:   34178909	FORWARD:     260068	MERGED:     192073	TO_CACHE:   33986836
L1D PQ	ACCESS:   11133431	FORWARD:          0	MERGED:     400370	TO_CACHE:   10724269

L1D UNIQUE REGIONS ACCESSED: 0
L1D REGIONS CONFLICTS: 0
L1D Cross Page Prefetch Requests: 171247
L1D Same Page Prefetch Requests: 10962184
L1D ROI Sum of L1D PQ occupancy: 139151647
L1D PREFETCHES PUSHED FROM L2C: 0
L1I TOTAL     ACCESS:   38024673  HIT:   28919665  MISS:    9105008  HIT %:     76.055  MISS %:     23.945   MPKI: 45.525
L1I LOAD      ACCESS:   38024673  HIT:   28919665  MISS:    9105008  HIT %:     76.055  MISS %:     23.945   MPKI: 45.525
L1I PREFETCH  REQUESTED:          0  ISSUED:          0  USEFUL:          0  USELESS:          0
L1I USEFUL LOAD PREFETCHES:          0 PREFETCH ISSUED TO LOWER LEVEL:          0  ACCURACY: -nan
L1I TIMELY PREFETCHES:          0 LATE PREFETCHES: 0 DROPPED PREFETCHES: 0
L1I PREFETCHES SAME FILL-ORIGIN LEVEL: 0 DIFFERENT FILL-ORIGIN LEVEL: 0
L1I AVERAGE MISS LATENCY: 16.5832 cycles
L1I RQ	ACCESS:   59044744	FORWARD:          0	MERGED:   18358312	TO_CACHE:   40686432

BTB TOTAL     ACCESS:   25656441  HIT:   24104579  MISS:    1551862  HIT %:    93.9514  MISS %:    6.04863   MPKI: 7.75931
BTB BRANCH_DIRECT_JUMP	ACCESS:    1660636  HIT:    1651091  MISS:       9545
BTB BRANCH_INDIRECT	ACCESS:   10006677  HIT:    9485915  MISS:     520762
BTB BRANCH_CONDITIONAL	ACCESS:    7142248  HIT:    7128880  MISS:      13368
BTB BRANCH_DIRECT_CALL	ACCESS:    2826795  HIT:    2793470  MISS:      33325
BTB BRANCH_INDIRECT_CALL	ACCESS:     596648  HIT:     485314  MISS:     111334
BTB BRANCH_RETURN	ACCESS:    3423437  HIT:    2559909  MISS:     863528
BTB BRANCH_OTHER ACCESS:          0  HIT:          0  MISS:          0

L2C TOTAL     ACCESS:   21010296  HIT:   14047503  MISS:    6962793  HIT %:    66.8601  MISS %:    33.1399   MPKI: 34.814
L2C LOAD      ACCESS:   11583055  HIT:    9234849  MISS:    2348206  HIT %:    79.7272  MISS %:    20.2728   MPKI: 11.741
L2C DATA LOAD MPKI: 8.81749
L2C INSTRUCTION LOAD MPKI: 2.92354
L2C RFO       ACCESS:    3666084  HIT:     152919  MISS:    3513165  HIT %:    4.17118  MISS %:    95.8288   MPKI: 17.5658
L2C PREFETCH  ACCESS:    1277060  HIT:     342949  MISS:     934111  HIT %:    26.8546  MISS %:    73.1454   MPKI: 4.67056
AGUS PREFETCH L1 MISS: 0
L2C DATA PREFETCH MPKI: 4.67056
L2C INSTRUCTION PREFETCH MPKI: 0
L2C WRITEBACK ACCESS:    4361487  HIT:    4236329  MISS:     125158  HIT %:    97.1304  MISS %:    2.86962   MPKI: 0.62579
L2C LOAD TRANSLATION ACCESS:      85514  HIT:      46153  MISS:      39361  HIT %:    53.9713  MISS %:    46.0287   MPKI: 0.196805
L2C TRANSLATION FROM L1D PREFETCHER ACCESS:      37096  HIT:      34304  MISS:       2792  HIT %:    92.4736  MISS %:    7.52642   MPKI: 0.01396
L2C PREFETCH  REQUESTED:          0  ISSUED:          0  USEFUL:      43384  USELESS:     892851
L2C USEFUL LOAD PREFETCHES:      43384 PREFETCH ISSUED TO LOWER LEVEL:     934111  ACCURACY: 4.64442
L2C TIMELY PREFETCHES:      43384 LATE PREFETCHES: 0 DROPPED PREFETCHES: 0
L2C PREFETCHES SAME FILL-ORIGIN LEVEL: 0 DIFFERENT FILL-ORIGIN LEVEL: 0
L2C AVERAGE MISS LATENCY: 149.884 cycles
L2C RQ	ACCESS:   15372090	FORWARD:          0	MERGED:          0	TO_CACHE:   15371749
L2C WQ	ACCESS:    4361487	FORWARD:        342	MERGED:          0	TO_CACHE:    4361487
L2C PQ	ACCESS:    1277061	FORWARD:          0	MERGED:          0	TO_CACHE:    1277060

L2C Instructions Evicting Data 534683
L2C Translations Evicting Data 39115
L2C Data Evicting Data 5649850
L2C Instructions Evicting Instructions 47198
L2C Translations Evicting Instructions 2861
L2C Data Evicting Instructions 522350
L2C Instructions Evicting Translations 2827
L2C Translations Evicting Translations 177
L2C Data Evicting Translations 38574
L2C Dense regions hint from L2: 0
PSCL5 TOTAL     ACCESS:     104552  HIT:     104552  MISS:          0  HIT %:        100  MISS %:          0   MPKI: 0
PSCL5 LOAD TRANSLATION ACCESS:      76308  HIT:      76308  MISS:          0  HIT %:        100  MISS %:          0   MPKI: 0
PSCL5 TRANSLATION FROM L1D PREFETCHER ACCESS:      28244  HIT:      28244  MISS:          0  HIT %:        100  MISS %:          0   MPKI: 0
PSCL5 PREFETCH  REQUESTED:          0  ISSUED:          0  USEFUL:          0  USELESS:          0
PSCL5 USEFUL LOAD PREFETCHES:          0 PREFETCH ISSUED TO LOWER LEVEL:          0  ACCURACY: -nan
PSCL5 TIMELY PREFETCHES:          0 LATE PREFETCHES: 0 DROPPED PREFETCHES: 0
PSCL5 PREFETCHES SAME FILL-ORIGIN LEVEL: 0 DIFFERENT FILL-ORIGIN LEVEL: 0

PSCL4 TOTAL     ACCESS:     100360  HIT:     100146  MISS:        214  HIT %:    99.7868  MISS %:   0.213232   MPKI: 0.00107
PSCL4 LOAD TRANSLATION ACCESS:      73122  HIT:      72908  MISS:        214  HIT %:    99.7073  MISS %:   0.292662   MPKI: 0.00107
PSCL4 TRANSLATION FROM L1D PREFETCHER ACCESS:      27238  HIT:      27238  MISS:          0  HIT %:        100  MISS %:          0   MPKI: 0
PSCL4 PREFETCH  REQUESTED:          0  ISSUED:          0  USEFUL:          0  USELESS:          0
PSCL4 USEFUL LOAD PREFETCHES:          0 PREFETCH ISSUED TO LOWER LEVEL:          0  ACCURACY: -nan
PSCL4 TIMELY PREFETCHES:          0 LATE PREFETCHES: 0 DROPPED PREFETCHES: 0
PSCL4 PREFETCHES SAME FILL-ORIGIN LEVEL: 0 DIFFERENT FILL-ORIGIN LEVEL: 0

PSCL3 TOTAL     ACCESS:     104390  HIT:     104176  MISS:        214  HIT %:     99.795  MISS %:      0.205   MPKI: 0.00107
PSCL3 LOAD TRANSLATION ACCESS:      76230  HIT:      76016  MISS:        214  HIT %:    99.7193  MISS %:   0.280729   MPKI: 0.00107
PSCL3 TRANSLATION FROM L1D PREFETCHER ACCESS:      28160  HIT:      28160  MISS:          0  HIT %:        100  MISS %:          0   MPKI: 0
PSCL3 PREFETCH  REQUESTED:          0  ISSUED:          0  USEFUL:          0  USELESS:          0
PSCL3 USEFUL LOAD PREFETCHES:          0 PREFETCH ISSUED TO LOWER LEVEL:          0  ACCURACY: -nan
PSCL3 TIMELY PREFETCHES:          0 LATE PREFETCHES: 0 DROPPED PREFETCHES: 0
PSCL3 PREFETCHES SAME FILL-ORIGIN LEVEL: 0 DIFFERENT FILL-ORIGIN LEVEL: 0

PSCL2 TOTAL     ACCESS:      95823  HIT:      86954  MISS:       8869  HIT %:    90.7444  MISS %:    9.25561   MPKI: 0.044345
PSCL2 LOAD TRANSLATION ACCESS:      76399  HIT:      67530  MISS:       8869  HIT %:    88.3912  MISS %:    11.6088   MPKI: 0.044345
PSCL2 TRANSLATION FROM L1D PREFETCHER ACCESS:      19424  HIT:      19424  MISS:          0  HIT %:        100  MISS %:          0   MPKI: 0
PSCL2 PREFETCH  REQUESTED:          0  ISSUED:          0  USEFUL:          0  USELESS:          0
PSCL2 USEFUL LOAD PREFETCHES:          0 PREFETCH ISSUED TO LOWER LEVEL:          0  ACCURACY: -nan
PSCL2 TIMELY PREFETCHES:          0 LATE PREFETCHES: 0 DROPPED PREFETCHES: 0
PSCL2 PREFETCHES SAME FILL-ORIGIN LEVEL: 0 DIFFERENT FILL-ORIGIN LEVEL: 0

LLC TOTAL     ACCESS:   10880801  HIT:    4545592  MISS:    6335209  HIT %:    41.7763  MISS %:    58.2237   MPKI: 31.676
LLC LOAD      ACCESS:    2348206  HIT:    1463313  MISS:     884893  HIT %:    62.3162  MISS %:    37.6838   MPKI: 4.42446
LLC RFO       ACCESS:    3513152  HIT:     988795  MISS:    2524357  HIT %:    28.1455  MISS %:    71.8545   MPKI: 12.6218
LLC PREFETCH  ACCESS:     934110  HIT:     500199  MISS:     433911  HIT %:    53.5482  MISS %:    46.4518   MPKI: 2.16955
AGUS PREFETCH L1 MISS: 0
LLC WRITEBACK ACCESS:    4043180  HIT:    1577504  MISS:    2465676  HIT %:    39.0164  MISS %:    60.9836   MPKI: 12.3284
LLC LOAD TRANSLATION ACCESS:      39361  HIT:      15052  MISS:      24309  HIT %:    38.2409  MISS %:    61.7591   MPKI: 0.121545
LLC TRANSLATION FROM L1D PREFETCHER ACCESS:       2792  HIT:        729  MISS:       2063  HIT %:    26.1103  MISS %:    73.8897   MPKI: 0.010315
LLC PREFETCH  REQUESTED:          0  ISSUED:          0  USEFUL:       1199  USELESS:     433648
LLC USEFUL LOAD PREFETCHES:       1199 PREFETCH ISSUED TO LOWER LEVEL:     433911  ACCURACY: 0.276324
LLC TIMELY PREFETCHES:       1199 LATE PREFETCHES: 0 DROPPED PREFETCHES: 0
LLC PREFETCHES SAME FILL-ORIGIN LEVEL: 0 DIFFERENT FILL-ORIGIN LEVEL: 0
LLC AVERAGE MISS LATENCY: 132.351 cycles
LLC RQ	ACCESS:    5903524	FORWARD:          0	MERGED:          0	TO_CACHE:    5903511
LLC WQ	ACCESS:    4043180	FORWARD:         14	MERGED:          0	TO_CACHE:    4043180
LLC PQ	ACCESS:     934111	FORWARD:          0	MERGED:          0	TO_CACHE:     934110

LLC Dense regions hint to LLC: 0

RAW hits: 2398450
Loads Generated: 47783216
Loads sent to L1D: 45384771
Stores Generated: 34178908
Stores sent to L1D: 34178909
Major fault: 0 Minor fault: 8494
Allocated PAGES: 8494
ucb ended
-----------------------------------------------------------------------------------------------------------------------------------------------------------------------------------------------------
Offsets elements: 20195 4686 -4682 -32179 32186 -32187 11984 -11983 23955 -183048 159094 32178 -4 -74422 37560 1 32194 -17 2 10374984 -2200629503081 2200619128114 -21 -32174 -1 36861 24 -36884 -12131 -2200619092278 2200619092278 -8076 -171073 121478 37615 20 -5 4667 -4667 -32195 32195 4668 -4663 4663 -20216 20220 -3 -32196 -32177 32198 -2200619095242 2200619095247 -32200 32193 -69806 -72465807171 72465876980 -32178 -16 -2 3 32177 -2200619072181 2200619084159 20199 -20200 20214 -32191 36884 -36885 32192 9 -2200619128934 2200619128923 6 -32198 11978 20216 32196 5 -32201 32199 -18 14 -69991 -2200619056274 2200619106045 20219 -2200619128923 2200619128935 -6 -7 -12 -2200619128911 2200619058934 69987 -20217 20224 -20221 20223 -10 4 -2200619128081 2200619128061 -2128153251929 2200619128929 -20 -69977 69992 -69992 69977 49773 -49774 70000 -69999 69996 -69996 69994 -69994 49775 -49775 49770 20222 -20220 49774 49771 69973 -69969 -2200619034386 2200619104358 -69974 49769 -49767 139160 -3744320957 3744320957 -139159 -3744181755 3739760241 14868639 -3754628880 4471278 -3744231519 3744231518 -49769 -2200619058367 2200614636860 -3739760389 3754629015 -3754629015 3739760389 4471267 -3744231655 3744231659 20227 17 -2200619128928 2200619128928 -20223 -20218 -2200619107899 -810 -20225 20225 15 -12139 -2200619199154 2200619191073 -20224 7 -20222 20226 -2200619128076 2200619107861 -2200619128077 2200619128083 -2200619128083 2200619107858 12 -20214 -20219 -20227 20217 2200619128077 -20215 20198 23 -69819 -2200619058265 2200619128085 -2200619108705 2200619128930 -2200619128119 2200619128103 -20208 20204 8 -8 -12791569 12771372 20213 -15 -12124 -2200619199153 2200619211290 2200619107864 20215 2200619128922 20205 -58042 37840 -37840 56876 12504 -15553 15551 -15551 15552 15553 -31540 37839 -37839 37841 -20197 20196 -20195 -49612 49614 10398050 -10398050 10397194 -10397199 10397198 -10397198 -2200619108722 2200619108725 10397190 -10397190 10397073 -10397076 -24170 10421350 -10397178 10395169 -2200629472974 2200619077806 -24172 24174 -24174 24173 -24175 24175 -12010 32233 -32233 32239 -2200619128953 2200619128951 -32210 -37626 -72465807161 72465856798 32215 -2200619128148 2200619128142 10 -2200619128951 20221 -2200619128149 2200619128141 -19 -2200619128941 2200619128945 -12770323 12750117 -24187 44384 -2200619104386 2200619104391 20197 -44384 10419340 2200619077821 24187 -9025 -12703061 -38039 38039 12712089 -12750119 12741091 -1207942 1216969 -24167 15141 9029 -12750129 12750130 -9030 -24198 24202 -288223780699134316 18880336 -19493980 -1465995991239 1465995991239 503003 -503008 -1465995991626 408 1465995991217 503009 19493986 18990980 -34057948 -1465981427289 1465996286161 -14858872 15066873 -1465996494204 -332 1466015485608 -1466015483814 1465981405127 -1465981406616 -1730 1730 1466015485303 -1466015485605 1465996605295 -1465996605295 1794 1465996603501 -1465996604963 1465981406589 -1465981408346 1425 -1465981406589 1465996481222 19004388 -1466015483812 1466015483811 -18972640 18972640 -18991073 -208003 -1465996286536 1465996286543 -1465996286516 1465996587447 17806 288223780709529729 -10419615 -2200619201324 2200619201347 -72119 72119 86946 9344 -9344 -14853 14852 9346 -12697200 -2200606404051 2200619091906 9343 -12687860 12687860 -2200619181836 2200619181837 -12687857 8228476 -8228477 12697206 2200619191180 -9341 -12687861 12697201 -2200619190921 2200606493720 12660226 -2200619047222 2200619047224 12780 -12780 10395153 2200619077822 -36965 19 36945 -36970 22 36950 -36963 36967 -36975 45010 2200619092280 2200619199154 -179156 171110 -36953 -36962 36963 36968 -36968 -2200619047225 2200619047240 -25 -12661 49633 -36951 36951 -36967 -2200619070970 2200619070963 -2200619047220 -23978 14868626 -14868626 -10409198 -4459428 4471305 -11781 11782 -11878 11875 -2200619065711 2200614594396 -14868639 -10372727 -4495912 4495880 -24564 -3744231622 3744231622 -4471318 4471319 24619 -36493 11876 -11876 -25090 36966 -36969 2200619072313 11877 25085 -25068 25067 -25087 -2200619071794 2200619071794 36947 -36942 -27 25093 -25088 -2200619047226 -2200619070983 2200619070984 -2200619108742 2200619108745 36953 -11882 11878 -11877 -25085 -288223780699453040 288223780699453038 -9 -25065 25065 11885 -2200619096055 2200619070968 -2200619070942 2200619070933 -2200619070969 2200619107927 -36958 36959 -36961 11873 -36944 25068 25066 -25071 25070 -25067 25088 -2200619096054 -11875 -2200619094202 2200619106076 -2200619106075 -2660 2200619096863 -25066 36939 -11872 36495 -36496 11871 -11871 -11870 -25070 25069 -25073 25090 11867 -11869 -25089 -25084 25091 -25096 25094 -25075 36942 -11868 25087 -25069 13 -14 -2200619070965 2200619070983 -36940 -2200619154010 2200619154005 -11 25096 -25077 25078 -2200619071795 2200619071788 -2200619070943 2200619070945 -2200619071792 2200619108736 -36947 25074 -37767 10447665 -10409898 -25074 25076 -25078 2200619153994 11 25083 45011 -179149 49618 -11867 11866 -11866 45003 2200619179235 -45001 -134141 121471 37759 36468 -25095 25089 -24604 -49594 37728 19920 -155254 135333 -25093 -24605 -147200 135331 -24603 -2200619096203 162 2200619096040 -36469 11859 -2200619108070 2200619108067 -188385 -2200618919662 2200619108049 -11862 -74181 -2200619141430 2200619191001 -11858 11862 -11861 -2200619096041 11857 24611 -24609 -2200619108048 2200619096188 24612 -2200619108073 2200619108072 -2200619108069 2200618970297 -2200618970954 2200619120559 -11830 11830 11829 -11829 -11833 11833 -2200619119879 -2200619108050 2200619096189 23692 -23693 23691 -36004 36007 12775 -2200619215609 2200619215609 -12775 23693 36469 -12777 -49882 38044 11836 -24610 11835 -11835 -11836 -49567 61404 -61405 49570 -49569 61401 -10395172 -2200619077802 2200619089640 -2200619120560 2200619120560 -26189 38043 11831 -11831 -147196 147196 19921 -19921 -37766 57686 10389979 10409899 -10409900 -37728 -97600 135329 38053 -147194 135327 49574 -147192 147192 -11865 -45015 -179148 57677 -19920 -2200619072358 -106876 -179158 -2200619019998 2200619179236 36492 -36494 -19918 -12314 32234 -2200619092200 2200618913042 195706 -637566 562790 38305 -38309 38307 -2200619096865 2200619071777 -13217 38308 11861 -11863 -36492 -12313 48806 -195730 159236 19922 -159232 10566258 -10566258 171091 -70696 -38464 -61936 100402 10465862 1913 -10408941 -159243 195735 -159239 -2200619027247 2200619186486 11858 -171102 100407 10467775 -10408942 -2200619096288 2200618937047 159243 -159238 2200619186485 -25091 -11859 -195703 24179 171524 -24612 -171086 159229 10407027 -2200629503697 2200629505724 -11856 10568298 -2200629505339 2200629505339 -2022 2200629475001 10398033 -10398034 -70693 70694 -171104 10568182 -10421253 2200619053634 2200629473275 -11565845 1146204 -2200629503894 2200619084554 -2200619053634 2200629472974 -10395166 -2200619108828 2200629504297 -10419643 -2200619084554 614 2200629505302 -2200629505302 -10409051 -159242 10568290 -10397195 -11853 -2200619096291 2200619096289 159244 159234 241 2200619107902 -171097 159242 -2200619096048 2200619096049 -159229 159230 -37768 -10409897 -36468 -74236 74236 36493 10409901 -10373433 -37727 -97608 135335 11848 24620 -24619 -147187 147184 -11852 10447616 -10398058 -147183 147182 -11851 -37759 37757 16549 -36470 -19922 -159230 195698 -74198 -97596 135325 11845 -159018 109136 -109134 135323 -11846 -49559 49560 -147171 147171 -2200619083584 2200619058962 -2200619107936 -82959 2200619179049 74237 10373428 36470 -36471 -16550 -179150 -2200619132527 2200619107901 -2200619058970 3578998 2200615443004 36970 -36972 61590 -61583 25113 -159228 121532 37697 -23691 -25121 36964 -11845 10432152 -10432150 -11844 -25107 25106 -61599 61592 -2200619132523 2200619070950 36948 25122 -25124 25123 -25114 45033 -2200619092279 2200618913130 37751 -25122 61575 -61575 25105 36471 16 -2200619038083 2200619063183 -12642 72465819816 -25105 -25120 25126 11842 -2200619084158 2200619047208 25109 -25108 61601 -25098 -2200619071765 2200619108709 -11842 11843 -25104 25099 -25119 -2200619069101 2200619055970 13135 -24 -2200619071747 2200619071758 -13128 13127 36943 -36943 -2200619070917 2200619070897 -2200619059100 2200619071767 -72465819818 72465819818 -13132 13117 36961 -50078 13140 -13139 -13137 13134 -50079 50074 -50076 50078 50075 36965 -13117 13112 -13109 -13115 -2200619034079 2200619034080 50073 -50071 139496 -139495 -3744181494 3744181493 -3744181493 42 -3739760241 3754628880 -50073 -2200619058063 3744231655 -36937 -2200619071764 2200619071764 36941 36946 2200619071765 -36939 -36941 45040 36940 -36934 36937 -36938 36949 -2200619107861 2200619107862 -2200619070913 2200619070920 -36945 -36946 -23 -2200619070896 2200619058265 12656 2200619071763 -2200619070955 2200619070954 36956 -36960 45027 -12779768 -2200606419385 2200619154126 -36949 -2200619071759 -36959 -1070 57032 12678 -15690 15691 -31678 -38032 38031 -38031 38033 -36966 36969 49615 10398051 2200619108726 10397191 -11874 -25061 -2200619071789 2200619071787 -25092 -37762 12677 -72465819838 72465819838 36944 -2200619070984 2200619070986 -2200619071787 -2200619070977 2200619070985 -2200619071777 2200619071781 36958 -12697192 12697195 2200619047227 -9342 -12702527 12702526 11480225 1207626 -14825 24170 -12697205 -9346 9345 -24199 24203 -19199074 -1465996286157 1465996286151 208024 -1465996494562 1465996286537 208025 -1465996494154 1466015485204 19199073 -1465996286166 1466015485237 -18991052 -15066876 -1465981427328 1465996287163 -1465996287495 305 1489 -1489 1465981406616 1429 1465981406921 -1465981405127 -1462 1462 -1794 -1425 1465996482646 -15074300 -1465981405124 -19004387 13314 18432 -225475 -1465996287496 1465996287497 -1465996287482 96292 -96289 96289 -9260 -14937 14936 -12687908 -2200606404081 2200619091990 9259 -12687914 12697176 -9261 -14936 -2200619166984 -12697168 12687914 -12687917 -2200606493750 -4431929 4444531 -2200619060004 2200619047404 36787 -36787 12600 -36779 36785 -36771 18 36765 -36790 36770 -36783 36795 -36792 44815 106876 2200619047468 -36768 -36781 36784 -36785 36790 -2200619047405 2200619047420 -12848 12848 -2200619071143 23743 -10409102 -4459524 -11790 -2200619053932 -32 -24531 3739760304 -3739760304 3744256210 -36365 11781 36789 -2200619084190 2200619047407 25002 -24983 25004 -24987 36773 -11787 -25001 25001 -2200619096149 2200619107931 25006 -2200619096961 2200619071979 36771 -2200619084194 2200619084197 -288223780699452080 288223780699452078 -36765 24981 11789 36788 -36788 -25003 -2200619071148 2200619071143 -2200619071159 2200619071147 -2200619071122 2200619096114 11779 -36764 24982 24986 -25004 -2200619071146 -11779 -2200619094298 -2200619108735 2200619096959 24983 -24982 36759 -11776 36367 -36363 11775 -11775 24593 -24592 -11774 -24989 -25002 -25006 25007 25010 -24991 36762 24987 -25005 2200619071163 -36760 -2200619154185 2200619179186 11771 24994 -2200619096963 2200619071968 -2200619071123 2200619071125 36764 -2200619108736 2200619071969 24993 -24990 -37863 12873 24992 10409802 -10434796 -2200619154190 2200619154185 24999 -25010 44830 -11771 11770 -11770 44823 -19823 -25000 -134321 -2200619020006 2200619179332 -37854 74219 -61376 25005 36340 -24572 37824 19824 135429 -25009 11767 24573 135427 11769 24571 -36341 -2200619096299 2200619096136 36341 -24578 -2200619108068 2200619108070 -188387 176621 -2200619096283 2200619096284 -74149 -11762 11766 -11765 -2200619096137 11761 24577 -36340 -2200619096285 -24577 -657 2200618975496 133233 11841 -11841 -2200619119891 2200619108050 23608 -23609 23607 -11848 -24168 48750 -12731 -2200619202846 2200619215577 12731 23609 -12733 -11850 -38026 38029 11849 11847 -11847 24578 -11849 -61416 49569 61414 -36016 2200619089652 2200619070696 38025 -11843 19825 -19825 10389980 -10409804 10409803 -10447627 49594 135425 -38035 38036 135423 -49575 49576 -11769 44835 -44824 -19824 -2200619092280 2200619034601 2200619019998 159334 36365 -36366 -19822 -12410 195674 -601193 601191 -601189 -2200618495772 2200619071957 -13395 38404 -38403 38403 11765 -11767 48774 -195698 159332 19826 -159328 -100402 10566264 -10506241 97396 -159339 159338 -36364 -159335 159335 -2200619186582 2200619186582 11762 -11763 -24602 -10408846 -2200619096384 2200619096386 -159334 159339 -2200619186581 2200619186581 -25007 36767 -159331 195671 -24580 135151 10406931 -11760 10408959 2200618937041 10397199 -2200629475000 10398034 -10468726 301 -2200629473275 2200617907430 -2200629503994 -10408960 -159338 -2200619108144 2200619096387 -159330 -2200618937057 -2200618936806 2200619096146 36366 -195690 159325 -37864 37864 -10373461 -10409801 10373441 -10373465 -37823 135431 11752 24588 -24587 -11756 -37808 49557 10386199 -10398055 -11755 -37855 37853 36342 -159326 195666 -74166 135421 -159030 109154 -109152 135419 -11750 -24590 -2200619058961 -48975 2200619179145 -159325 -37865 37863 10409801 -10373460 -36343 -16516 -2200618936829 3603916 2200615455056 36792 61382 -61378 25030 -159324 61400 -23607 -25037 61378 -36342 11749 10431972 -10431970 25040 -25023 25022 -61387 61380 -61361 -2200619071130 2200619071109 25038 -25040 25039 -25030 44853 37847 -25018 61363 -61363 25021 36343 -61359 -25038 21 -2200619038258 2200619063279 -12822 72465819996 -25022 -25036 25042 11746 2200619047388 25025 -25024 61389 -2200619071945 -11746 11747 -11748 -25020 25015 -25015 25017 -25035 -2200619069281 2200619056026 13253 -2200619071939 2200619071945 -2200619071951 2200619071938 -13253 13251 36766 36763 -36761 -2200619071097 2200619071077 12845 -72465820016 2200619071947 -13256 13241 36781 -50022 13264 -13263 13259 -13261 13258 -50023 50018 -50020 50022 50019 -36778 -13241 13237 -13233 13236 -13239 -2200619034135 2200619034136 50017 -50015 139472 -139471 -3744181550 3744181549 -3744181549 -10397362 -50017 -2200619058119 -2200619071944 2200619071944 36761 -36759 44860 36760 -36754 36757 -36763 36769 -36758 2200619071094 36768 -36762 -2200619071099 -36767 -2200619071076 12836 2200619071946 -2200619071135 2200619071134 36776 -36780 44847 -12779738 -2200606419415 2200619154306 -2200619071093 -36769 -1232 57017 13058 -16074 16075 -32062 -38014 38013 -38013 38015 -36786 10397196 10395168 -11778 -24977 -2200619071969 2200619071967 -25008 -37858 12857 -72465820018 72465820018 -2200619071164 2200619071166 -2200619071967 -2200619071157 2200619071165 -2200619071957 2200619071961 36778 -12697162 12697165 -12600 -36789 -9257 -12702631 14717 -14717 12711891 -24169 14909 9261 -12697166 11480204 1216972 -9262 9262 -19198114 -1465996287117 1465996287111 207071 -1465996494569 19198114 -18991042 -1465996494161 1465996287089 207066 18991045 -1466015485237 1465981427283 15066879 -209281 -1465996284923 -1466015485304 -1465996603501 15074300 -1465996479424 -1466015487033 1465996482647 19004387 -227715 -1465996285256 1465996285257 -1465996285242 96290 -9304 9305 -14893 14892 -12687934 12687935 -2200619091946 2200619101249 -12687943 -2200606493936 2200619191182 -9306 -14892 -12673042 -2200606493942 2200606493936 12697243 -9303 8228517 -8228517 -2200606493680 2200619153706 13022 -13020 -2200619046984 2200619046984 13020 -37199 37205 -37191 37185 -37188 -22 37212 -37211 37207 -37195 45252 2200619047048 37190 -37201 37204 -37205 37210 -37210 -2200619046985 2200619047000 25 -12428 12428 -2200619070723 4459516 10409110 -11910 120 -2200619053924 4471316 24530 -3744256152 3754628943 -3754628943 3744255736 -4495432 3744219837 24556 -61761 37209 2200619046987 -2200619071539 2200619096953 -2200619096141 2200619070726 25395 -25399 37193 -11792 -25413 25405 -25418 -2200619047001 -24551 2200619108748 -288223780699454318 288223780699454319 -37185 25393 11797 -37207 37208 37191 -37208 -25415 -2200619070728 2200619070723 -2200619070739 2200619070727 -2200619070702 2200619096106 11787 -37184 -25395 25394 25398 25414 -2200619096142 -2200619094290 2200619096951 -25394 37179 -11784 -36339 11783 -11783 24561 -24560 -11782 -25401 25418 -25414 25416 25419 -25424 25422 -25403 37182 25399 -25417 -2200619070725 2200619070743 -37180 -2200619153754 2200619179178 25406 -2200619096955 2200619071548 -2200619070703 2200619070705 37184 2200619071549 -25402 12453 25404 10409810 -10435216 -2200619153770 2200619153754 25411 45250 11778 45243 -19831 -25412 -133901 2200619179324 -37846 74187 -61753 25417 36316 -24540 37816 19832 -25421 25424 24541 11777 24539 -36317 2200619096128 36317 -24546 176613 -2200619096275 2200619096276 -74117 11774 -11773 -2200619096129 24547 -24545 -2200619096277 2200618971745 136984 11813 -11813 -11814 11815 -11817 11817 -2200619119863 23588 -23589 23587 -11820 48718 -12727 -2200619202818 2200619215545 12727 23589 -12729 -11822 -38068 38071 11821 11819 -11819 24546 -11821 11820 -61388 61386 -35988 2200619089624 2200619070654 38067 19833 -19833 -10409812 10409811 135417 -38077 38078 135415 -11815 -11777 -25422 45255 -45244 -19832 159326 -19830 -12402 195642 -637502 601185 -2200619096953 2200618495772 575765 -38394 38394 48742 -195666 159324 19834 -159320 -100400 -10504328 10506241 -10408853 159330 -159327 159327 -2200619186574 2200619186574 -24570 -10408854 -2200619096376 2200619096378 2200619186573 -25419 37187 -159323 195639 -24548 135143 10406939 -10408967 10408967 -10408968 2200619096379 -159322 2200619096138 -195658 159317 -37856 37856 -10373493 -36316 -10409809 10373473 -10373497 -37815 11760 -24555 -11764 -37800 10386227 -37847 37845 36318 -159318 195634 -74134 135413 -159002 109112 -109110 135411 -11758 -24558 2200619179137 -159317 -37857 37855 10409809 -10373492 -36318 -16484 3568613 2200615490359 -37209 24558 -61759 25449 -182904 37785 -25449 -11757 11758 -25453 10432392 -10432390 25452 -25435 25434 -61775 61768 -61749 -2200619070710 2200619070691 25454 -25442 45275 -2200618913130 2200619034608 -25450 61751 -61751 25433 36319 -2200619037838 2200619063271 72465819576 25450 -25433 -25448 11754 2200619046968 25437 -25436 61777 -2200619071525 -11754 11755 -25432 25427 -2200619068861 2200619055938 12921 -2200619071519 2200619071525 -2200619071531 2200619071518 -12909 12919 37186 37183 -37181 -2200619070677 2200619070657 -72465819578 72465819578 -12924 12909 37201 -50110 12932 -12931 12927 -12929 12926 -50111 50106 -50108 50110 50107 -37198 -12901 12904 -12907 -2200619034047 2200619034048 50105 -50103 139592 -139591 -3744181461 -42 -50105 -2200619058031 4471268 -3744231657 -37177 -2200619071524 2200619071524 37181 -37179 45265 37180 -37174 37177 -37183 37189 -37178 2200619070674 37188 -37182 -2200619070679 -37186 -37206 12416 2200619071526 -2200619070715 2200619070714 37196 
Potential of Offsets elements: 27.9935 27.9935 27.9935 27.9935 27.9935 27.9935 27.9935 27.9935 27.9935 27.9935 27.9935 27.9935 484.994 27.9935 27.9935 848.129 27.9935 190.994 724.994 27.9935 27.9935 27.9935 47.9935 27.9935 782.426 27.9935 161.994 27.9935 27.9935 27.9935 27.9935 27.9935 27.9935 27.9935 27.9935 493.994 386.994 27.9935 27.9935 27.9935 27.9935 27.9935 27.9935 27.9935 27.9935 27.9935 682.994 27.9935 27.9935 27.9935 27.9935 27.9935 27.9935 27.9935 27.9935 27.9935 27.9935 27.9935 103.994 517.994 773.994 27.9935 27.9935 27.9935 27.9935 27.9935 27.9935 27.9935 27.9935 27.9935 27.9935 514.994 27.9935 27.9935 522.994 27.9935 27.9935 27.9935 27.9935 608.994 27.9935 27.9935 153.994 255.994 27.9935 27.9935 27.9935 27.9935 27.9935 27.9935 561.994 319.994 269.994 27.9935 27.9935 27.9935 27.9935 27.9935 27.9935 27.9935 336.994 762.994 27.9935 27.9935 27.9935 27.9935 580.994 27.9935 27.9935 27.9935 27.9935 27.9935 27.9935 27.9935 27.9935 27.9935 27.9935 27.9935 27.9935 27.9935 27.9935 27.9935 27.9935 27.9935 27.9935 27.9935 27.9935 27.9935 27.9935 27.9935 27.9935 27.9935 27.9935 27.9935 27.9935 27.9935 27.9935 27.9935 27.9935 30.9935 27.9935 39.9935 27.9935 27.9935 27.9935 27.9935 27.9935 36.9935 27.9935 27.9935 39.9935 27.9935 27.9935 51.9935 27.9935 293.994 27.9935 27.9935 27.9935 27.9935 57.9935 36.9935 27.9935 27.9935 356.994 36.9935 54.9935 45.9935 27.9935 443.994 27.9935 27.9935 27.9935 65.9935 27.9935 27.9935 27.9935 27.9935 211.994 27.9935 27.9935 27.9935 27.9935 27.9935 27.9935 27.9935 114.994 27.9935 27.9935 27.9935 27.9935 27.9935 27.9935 27.9935 27.9935 27.9935 262.994 422.994 27.9935 27.9935 27.9935 55.9935 27.9935 27.9935 27.9935 27.9935 27.9935 27.9935 27.9935 27.9935 27.9935 27.9935 27.9935 27.9935 27.9935 27.9935 27.9935 27.9935 27.9935 27.9935 27.9935 27.9935 27.9935 27.9935 27.9935 27.9935 27.9935 27.9935 27.9935 27.9935 27.9935 27.9935 27.9935 27.9935 27.9935 27.9935 27.9935 27.9935 27.9935 27.9935 37.9935 27.9935 27.9935 27.9935 28.9935 27.9935 44.9935 27.9935 27.9935 28.9935 27.9935 32.9935 27.9935 27.9935 27.9935 27.9935 27.9935 27.9935 27.9935 27.9935 27.9935 27.9935 27.9935 27.9935 27.9935 240.994 27.9935 27.9935 27.9935 27.9935 157.994 27.9935 27.9935 27.9935 27.9935 27.9935 27.9935 27.9935 27.9935 27.9935 27.9935 27.9935 37.9935 67.9935 27.9935 27.9935 27.9935 27.9935 27.9935 27.9935 27.9935 27.9935 27.9935 41.9935 31.9935 27.9935 27.9935 36.9935 27.9935 27.9935 53.9935 27.9935 27.9935 27.9935 27.9935 27.9935 27.9935 27.9935 27.9935 29.9935 27.9935 27.9935 27.9935 27.9935 27.9935 27.9935 27.9935 27.9935 27.9935 27.9935 27.9935 45.9935 27.9935 42.9935 27.9935 27.9935 31.9935 27.9935 27.9935 39.9935 27.9935 27.9935 37.9935 27.9935 27.9935 33.9935 27.9935 27.9935 33.9935 27.9935 27.9935 31.9935 27.9935 27.9935 33.9935 27.9935 27.9935 27.9935 27.9935 27.9935 29.9935 27.9935 27.9935 40.9935 27.9935 27.9935 33.9935 27.9935 27.9935 27.9935 27.9935 27.9935 27.9935 27.9935 27.9935 27.9935 27.9935 27.9935 27.9935 27.9935 27.9935 27.9935 27.9935 27.9935 27.9935 27.9935 27.9935 27.9935 27.9935 27.9935 27.9935 27.9935 27.9935 27.9935 27.9935 27.9935 27.9935 29.9935 27.9935 329.994 27.9935 27.9935 453.994 30.9935 35.9935 27.9935 27.9935 27.9935 27.9935 27.9935 27.9935 27.9935 27.9935 27.9935 27.9935 27.9935 27.9935 27.9935 27.9935 51.9935 27.9935 27.9935 27.9935 27.9935 27.9935 27.9935 27.9935 27.9935 27.9935 27.9935 27.9935 27.9935 27.9935 27.9935 27.9935 27.9935 27.9935 27.9935 27.9935 27.9935 27.9935 27.9935 27.9935 27.9935 27.9935 27.9935 27.9935 27.9935 27.9935 27.9935 27.9935 27.9935 27.9935 27.9935 27.9935 27.9935 27.9935 27.9935 27.9935 27.9935 27.9935 27.9935 27.9935 27.9935 27.9935 27.9935 446.994 27.9935 27.9935 27.9935 27.9935 27.9935 27.9935 32.9935 27.9935 27.9935 27.9935 27.9935 27.9935 27.9935 27.9935 254.994 27.9935 27.9935 27.9935 39.9935 27.9935 27.9935 27.9935 27.9935 37.9935 27.9935 27.9935 27.9935 27.9935 27.9935 115.994 27.9935 27.9935 27.9935 489.994 27.9935 27.9935 27.9935 27.9935 37.9935 39.9935 43.9935 27.9935 27.9935 27.9935 27.9935 27.9935 27.9935 27.9935 27.9935 27.9935 27.9935 27.9935 27.9935 27.9935 27.9935 27.9935 27.9935 27.9935 27.9935 30.9935 27.9935 225.994 27.9935 27.9935 27.9935 27.9935 176.994 410.994 27.9935 27.9935 27.9935 32.9935 33.9935 465.994 27.9935 27.9935 27.9935 27.9935 27.9935 27.9935 27.9935 27.9935 75.9935 27.9935 27.9935 27.9935 29.9935 27.9935 27.9935 27.9935 27.9935 27.9935 482.994 27.9935 27.9935 27.9935 29.9935 27.9935 27.9935 27.9935 27.9935 27.9935 27.9935 27.9935 27.9935 27.9935 27.9935 27.9935 27.9935 27.9935 27.9935 27.9935 27.9935 27.9935 27.9935 27.9935 27.9935 27.9935 27.9935 27.9935 27.9935 31.9935 27.9935 27.9935 27.9935 27.9935 27.9935 27.9935 27.9935 27.9935 27.9935 27.9935 27.9935 27.9935 27.9935 27.9935 27.9935 27.9935 27.9935 27.9935 27.9935 27.9935 27.9935 27.9935 27.9935 27.9935 27.9935 27.9935 27.9935 27.9935 27.9935 27.9935 27.9935 27.9935 27.9935 27.9935 27.9935 27.9935 27.9935 27.9935 27.9935 27.9935 27.9935 27.9935 27.9935 27.9935 27.9935 27.9935 27.9935 27.9935 27.9935 27.9935 27.9935 27.9935 27.9935 27.9935 27.9935 27.9935 27.9935 27.9935 27.9935 27.9935 27.9935 27.9935 27.9935 27.9935 27.9935 27.9935 27.9935 27.9935 27.9935 27.9935 27.9935 27.9935 65.9935 27.9935 27.9935 27.9935 43.9935 29.9935 27.9935 27.9935 27.9935 31.9935 27.9935 27.9935 119.994 27.9935 27.9935 116.994 27.9935 27.9935 27.9935 27.9935 34.9935 27.9935 63.9935 31.9935 61.9935 29.9935 27.9935 27.9935 27.9935 27.9935 27.9935 39.9935 32.9935 27.9935 27.9935 27.9935 27.9935 27.9935 27.9935 27.9935 27.9935 27.9935 27.9935 27.9935 27.9935 27.9935 27.9935 27.9935 27.9935 27.9935 27.9935 27.9935 27.9935 45.9935 27.9935 67.9935 35.9935 27.9935 31.9935 27.9935 27.9935 35.9935 27.9935 27.9935 27.9935 27.9935 27.9935 27.9935 27.9935 28.9935 40.9935 27.9935 27.9935 27.9935 27.9935 27.9935 27.9935 27.9935 27.9935 27.9935 27.9935 33.9935 27.9935 27.9935 27.9935 27.9935 27.9935 27.9935 27.9935 27.9935 27.9935 27.9935 27.9935 27.9935 27.9935 27.9935 27.9935 27.9935 27.9935 27.9935 27.9935 27.9935 27.9935 27.9935 27.9935 27.9935 27.9935 31.9935 27.9935 31.9935 27.9935 27.9935 27.9935 27.9935 27.9935 27.9935 27.9935 27.9935 27.9935 27.9935 27.9935 27.9935 27.9935 27.9935 27.9935 27.9935 27.9935 27.9935 27.9935 27.9935 27.9935 27.9935 27.9935 27.9935 27.9935 27.9935 27.9935 27.9935 27.9935 27.9935 27.9935 27.9935 27.9935 27.9935 27.9935 27.9935 27.9935 27.9935 27.9935 27.9935 27.9935 27.9935 27.9935 27.9935 27.9935 27.9935 27.9935 27.9935 27.9935 27.9935 27.9935 27.9935 27.9935 27.9935 27.9935 27.9935 27.9935 27.9935 27.9935 27.9935 27.9935 27.9935 27.9935 27.9935 27.9935 27.9935 27.9935 27.9935 27.9935 27.9935 28.9935 27.9935 27.9935 27.9935 27.9935 27.9935 27.9935 27.9935 27.9935 41.9935 27.9935 27.9935 27.9935 27.9935 27.9935 27.9935 27.9935 27.9935 27.9935 27.9935 27.9935 27.9935 27.9935 27.9935 30.9935 27.9935 27.9935 27.9935 27.9935 27.9935 27.9935 27.9935 27.9935 27.9935 27.9935 27.9935 27.9935 27.9935 27.9935 27.9935 33.9935 34.9935 27.9935 27.9935 27.9935 27.9935 27.9935 27.9935 524.994 27.9935 27.9935 27.9935 27.9935 27.9935 27.9935 27.9935 29.9935 27.9935 27.9935 28.9935 27.9935 27.9935 27.9935 27.9935 75.9935 27.9935 27.9935 27.9935 27.9935 27.9935 27.9935 27.9935 27.9935 255.994 27.9935 27.9935 27.9935 27.9935 27.9935 27.9935 27.9935 27.9935 71.9935 28.9935 27.9935 27.9935 27.9935 27.9935 27.9935 27.9935 27.9935 27.9935 27.9935 27.9935 27.9935 27.9935 27.9935 27.9935 27.9935 27.9935 27.9935 27.9935 27.9935 27.9935 27.9935 27.9935 27.9935 27.9935 27.9935 27.9935 27.9935 27.9935 27.9935 281.994 27.9935 27.9935 27.9935 27.9935 27.9935 27.9935 27.9935 27.9935 27.9935 27.9935 27.9935 27.9935 27.9935 27.9935 27.9935 27.9935 27.9935 27.9935 27.9935 27.9935 27.9935 27.9935 27.9935 27.9935 27.9935 353.994 27.9935 27.9935 27.9935 27.9935 27.9935 27.9935 27.9935 27.9935 27.9935 27.9935 27.9935 27.9935 27.9935 27.9935 27.9935 27.9935 27.9935 27.9935 27.9935 27.9935 27.9935 27.9935 27.9935 27.9935 27.9935 27.9935 27.9935 27.9935 27.9935 27.9935 27.9935 27.9935 27.9935 27.9935 27.9935 27.9935 27.9935 27.9935 27.9935 27.9935 27.9935 27.9935 27.9935 27.9935 27.9935 27.9935 27.9935 27.9935 47.9935 27.9935 27.9935 27.9935 27.9935 27.9935 27.9935 27.9935 27.9935 27.9935 60.9935 27.9935 27.9935 27.9935 27.9935 27.9935 27.9935 27.9935 27.9935 27.9935 27.9935 27.9935 27.9935 27.9935 30.9935 27.9935 27.9935 28.9935 27.9935 27.9935 27.9935 27.9935 27.9935 35.9935 39.9935 27.9935 33.9935 27.9935 27.9935 42.9935 27.9935 27.9935 57.9935 27.9935 27.9935 29.9935 27.9935 27.9935 29.9935 27.9935 27.9935 27.9935 27.9935 27.9935 35.9935 27.9935 27.9935 27.9935 27.9935 27.9935 27.9935 27.9935 27.9935 27.9935 27.9935 27.9935 27.9935 27.9935 27.9935 51.9935 27.9935 27.9935 27.9935 27.9935 27.9935 33.9935 27.9935 27.9935 27.9935 27.9935 31.9935 57.9935 27.9935 58.9935 27.9935 27.9935 27.9935 27.9935 27.9935 27.9935 27.9935 27.9935 27.9935 27.9935 27.9935 27.9935 27.9935 27.9935 27.9935 27.9935 27.9935 36.9935 27.9935 27.9935 27.9935 27.9935 27.9935 27.9935 391.994 27.9935 27.9935 27.9935 27.9935 27.9935 27.9935 27.9935 27.9935 27.9935 27.9935 27.9935 27.9935 27.9935 27.9935 27.9935 27.9935 27.9935 27.9935 27.9935 27.9935 27.9935 27.9935 27.9935 36.9935 27.9935 27.9935 27.9935 27.9935 27.9935 27.9935 27.9935 27.9935 27.9935 27.9935 27.9935 27.9935 27.9935 27.9935 27.9935 27.9935 27.9935 27.9935 27.9935 27.9935 27.9935 27.9935 27.9935 27.9935 27.9935 27.9935 27.9935 27.9935 27.9935 27.9935 27.9935 27.9935 27.9935 27.9935 27.9935 27.9935 27.9935 27.9935 27.9935 27.9935 27.9935 27.9935 27.9935 27.9935 27.9935 27.9935 27.9935 27.9935 27.9935 27.9935 27.9935 27.9935 27.9935 27.9935 27.9935 27.9935 69.9935 27.9935 27.9935 27.9935 27.9935 32.9935 27.9935 27.9935 27.9935 27.9935 27.9935 27.9935 27.9935 27.9935 27.9935 27.9935 27.9935 27.9935 27.9935 27.9935 27.9935 43.9935 27.9935 34.9935 27.9935 27.9935 27.9935 27.9935 27.9935 27.9935 27.9935 27.9935 27.9935 27.9935 27.9935 27.9935 27.9935 27.9935 27.9935 27.9935 27.9935 27.9935 27.9935 27.9935 65.9935 27.9935 27.9935 70.9935 27.9935 27.9935 27.9935 27.9935 27.9935 27.9935 27.9935 27.9935 801.994 27.9935 27.9935 27.9935 27.9935 27.9935 244.994 45.9935 27.9935 27.9935 27.9935 27.9935 27.9935 27.9935 52.9935 27.9935 27.9935 27.9935 27.9935 27.9935 27.9935 27.9935 27.9935 27.9935 27.9935 27.9935 27.9935 27.9935 27.9935 27.9935 27.9935 48.9935 27.9935 27.9935 27.9935 27.9935 27.9935 27.9935 27.9935 27.9935 27.9935 27.9935 27.9935 27.9935 27.9935 27.9935 27.9935 27.9935 27.9935 27.9935 27.9935 27.9935 27.9935 27.9935 27.9935 27.9935 27.9935 27.9935 27.9935 27.9935 27.9935 27.9935 27.9935 27.9935 27.9935 27.9935 27.9935 27.9935 27.9935 27.9935 27.9935 27.9935 27.9935 27.9935 27.9935 27.9935 27.9935 27.9935 27.9935 27.9935 27.9935 27.9935 27.9935 27.9935 27.9935 27.9935 27.9935 27.9935 27.9935 27.9935 27.9935 27.9935 27.9935 27.9935 27.9935 27.9935 27.9935 27.9935 27.9935 27.9935 27.9935 27.9935 27.9935 27.9935 27.9935 27.9935 27.9935 27.9935 27.9935 27.9935 27.9935 27.9935 37.9935 27.9935 27.9935 27.9935 30.9935 27.9935 36.9935 27.9935 27.9935 51.9935 27.9935 27.9935 30.9935 27.9935 44.9935 27.9935 27.9935 27.9935 27.9935 27.9935 27.9935 27.9935 27.9935 27.9935 30.9935 27.9935 27.9935 27.9935 27.9935 27.9935 27.9935 27.9935 27.9935 72.9935 27.9935 27.9935 33.9935 27.9935 27.9935 27.9935 27.9935 27.9935 27.9935 27.9935 28.9935 27.9935 27.9935 27.9935 27.9935 27.9935 27.9935 27.9935 27.9935 27.9935 27.9935 27.9935 27.9935 27.9935 30.9935 27.9935 27.9935 27.9935 27.9935 32.9935 27.9935 27.9935 27.9935 27.9935 27.9935 27.9935 27.9935 157.994 27.9935 27.9935 27.9935 69.9935 27.9935 27.9935 27.9935 27.9935 27.9935 27.9935 27.9935 27.9935 27.9935 27.9935 27.9935 27.9935 27.9935 27.9935 27.9935 27.9935 27.9935 27.9935 27.9935 48.9935 27.9935 27.9935 27.9935 27.9935 27.9935 27.9935 67.9935 27.9935 27.9935 27.9935 27.9935 27.9935 27.9935 27.9935 27.9935 27.9935 27.9935 27.9935 27.9935 27.9935 27.9935 27.9935 27.9935 28.9935 27.9935 27.9935 27.9935 27.9935 27.9935 27.9935 27.9935 27.9935 27.9935 27.9935 27.9935 27.9935 27.9935 27.9935 27.9935 27.9935 27.9935 27.9935 27.9935 27.9935 27.9935 27.9935 27.9935 27.9935 27.9935 27.9935 27.9935 27.9935 27.9935 27.9935 27.9935 27.9935 27.9935 30.9935 27.9935 27.9935 27.9935 27.9935 27.9935 27.9935 27.9935 27.9935 27.9935 27.9935 27.9935 27.9935 27.9935 27.9935 27.9935 27.9935 27.9935 27.9935 27.9935 27.9935 27.9935 27.9935 27.9935 27.9935 27.9935 27.9935 27.9935 27.9935 27.9935 27.9935 27.9935 27.9935 27.9935 27.9935 27.9935 27.9935 27.9935 27.9935 27.9935 27.9935 27.9935 27.9935 27.9935 27.9935 27.9935 27.9935 27.9935 27.9935 27.9935 27.9935 27.9935 27.9935 27.9935 127.994 27.9935 51.9935 27.9935 27.9935 27.9935 27.9935 27.9935 27.9935 27.9935 27.9935 27.9935 27.9935 27.9935 27.9935 27.9935 27.9935 27.9935 27.9935 27.9935 27.9935 27.9935 40.9935 27.9935 27.9935 27.9935 27.9935 33.9935 27.9935 27.9935 27.9935 27.9935 27.9935 27.9935 44.9935 27.9935 27.9935 27.9935 27.9935 27.9935 35.9935 27.9935 27.9935 31.9935 27.9935 27.9935 28.9935 27.9935 27.9935 27.9935 27.9935 27.9935 35.9935 27.9935 27.9935 28.9935 27.9935 34.9935 27.9935 27.9935 27.9935 27.9935 27.9935 57.9935 27.9935 27.9935 27.9935 28.9935 27.9935 27.9935 27.9935 27.9935 27.9935 27.9935 27.9935 27.9935 27.9935 27.9935 27.9935 27.9935 27.9935 27.9935 27.9935 27.9935 27.9935 27.9935 27.9935 27.9935 27.9935 27.9935 27.9935 27.9935 27.9935 27.9935 27.9935 326.994 27.9935 27.9935 27.9935 27.9935 27.9935 27.9935 27.9935 27.9935 27.9935 27.9935 27.9935 27.9935 27.9935 27.9935 105.994 27.9935 27.9935 27.9935 27.9935 27.9935 27.9935 85.9935 27.9935 27.9935 27.9935 27.9935 27.9935 27.9935 27.9935 27.9935 27.9935 27.9935 27.9935 27.9935 27.9935 27.9935 27.9935 27.9935 27.9935 27.9935 27.9935 27.9935 27.9935 27.9935 27.9935 27.9935 27.9935 27.9935 27.9935 27.9935 27.9935 27.9935 27.9935 27.9935 27.9935 27.9935 27.9935 27.9935 27.9935 27.9935 27.9935 27.9935 27.9935 27.9935 27.9935 27.9935 27.9935 27.9935 27.9935 27.9935 27.9935 27.9935 51.9935 27.9935 27.9935 27.9935 27.9935 27.9935 27.9935 27.9935 27.9935 27.9935 27.9935 27.9935 27.9935 27.9935 27.9935 27.9935 27.9935 27.9935 27.9935 27.9935 27.9935 27.9935 27.9935 27.9935 27.9935 27.9935 27.9935 27.9935 27.9935 27.9935 27.9935 27.9935 27.9935 27.9935 27.9935 27.9935 27.9935 27.9935 27.9935 27.9935 27.9935 27.9935 27.9935 27.9935 27.9935 27.9935 27.9935 27.9935 27.9935 27.9935 27.9935 27.9935 27.9935 27.9935 27.9935 27.9935 27.9935 27.9935 27.9935 27.9935 27.9935 27.9935 27.9935 27.9935 27.9935 27.9935 27.9935 27.9935 27.9935 27.9935 27.9935 27.9935 27.9935 59.9935 187.994 27.9935 27.9935 27.9935 27.9935 27.9935 27.9935 27.9935 27.9935 27.9935 27.9935 27.9935 27.9935 27.9935 27.9935 27.9935 27.9935 27.9935 27.9935 27.9935 27.9935 27.9935 27.9935 27.9935 27.9935 27.9935 27.9935 27.9935 27.9935 27.9935 27.9935 27.9935 27.9935 27.9935 27.9935 27.9935 27.9935 27.9935 27.9935 27.9935 27.9935 27.9935 27.9935 27.9935 27.9935 27.9935 27.9935 27.9935 27.9935 27.9935 27.9935 27.9935 31.9935 27.9935 27.9935 27.9935 27.9935 27.9935 27.9935 27.9935 27.9935 27.9935 27.9935 27.9935 27.9935 27.9935 27.9935 27.9935 27.9935 27.9935 27.9935 27.9935 27.9935 27.9935 27.9935 27.9935 27.9935 27.9935 27.9935 27.9935 27.9935 27.9935 27.9935 27.9935 27.9935 27.9935 27.9935 27.9935 27.9935 27.9935 27.9935 27.9935 27.9935 27.9935 27.9935 27.9935 27.9935 27.9935 27.9935 27.9935 27.9935 27.9935 27.9935 27.9935 28.9935 27.9935 27.9935 27.9935 27.9935 27.9935 57.9935 27.9935 27.9935 27.9935 27.9935 27.9935 27.9935 27.9935 27.9935 27.9935 27.9935 27.9935 27.9935 27.9935 27.9935 27.9935 27.9935 27.9935 27.9935 27.9935 27.9935 27.9935 27.9935 27.9935 27.9935 27.9935 27.9935 27.9935 27.9935 27.9935 27.9935 27.9935 27.9935 27.9935 27.9935 27.9935 27.9935 27.9935 27.9935 27.9935 27.9935 31.9935 30.9935 27.9935 27.9935 33.9935 28.9935 27.9935 27.9935 27.9935 27.9935 27.9935 27.9935 27.9935 27.9935 27.9935 27.9935 99.9935 27.9935 27.9935 27.9935 27.9935 27.9935 27.9935 27.9935 27.9935 27.9935 27.9935 27.9935 27.9935 27.9935 59.9935 74.9935 43.9935 27.9935 230.994 263.994 27.9935 27.9935 27.9935 27.9935 27.9935 27.9935 27.9935 27.9935 27.9935 27.9935 27.9935 27.9935 27.9935 27.9935 27.9935 27.9935 27.9935 27.9935 27.9935 27.9935 27.9935 27.9935 27.9935 27.9935 27.9935 27.9935 27.9935 27.9935 27.9935 27.9935 27.9935 27.9935 327.994 27.9935 27.9935 27.9935 27.9935 27.9935 27.9935 27.9935 27.9935 27.9935 27.9935 27.9935 27.9935 27.9935 27.9935 27.9935 27.9935 27.9935 27.9935 27.9935 27.9935 27.9935 27.9935 27.9935 27.9935 27.9935 27.9935 27.9935 
rewards of Offsets elements: 0 0 0 0 0 0 0 0 0 0 0 0 457 0 0 848 0 163 697 0 0 0 20 0 782 0 134 0 0 0 0 0 0 0 0 466 359 0 0 0 0 0 0 0 0 0 655 0 0 0 0 0 0 0 0 0 0 0 76 490 746 0 0 0 0 0 0 0 0 0 0 487 0 0 495 0 0 0 0 581 0 0 126 228 0 0 0 0 0 0 534 292 242 0 0 0 0 0 0 0 309 735 0 0 0 0 553 0 0 0 0 0 0 0 0 0 0 0 0 0 0 0 0 0 0 0 0 0 0 0 0 0 0 0 0 0 0 0 0 3 0 12 0 0 0 0 0 9 0 0 12 0 0 24 0 266 0 0 0 0 30 9 0 0 329 9 27 18 0 416 0 0 0 38 0 0 0 0 184 0 0 0 0 0 0 0 87 0 0 0 0 0 0 0 0 0 235 395 0 0 0 28 0 0 0 0 0 0 0 0 0 0 0 0 0 0 0 0 0 0 0 0 0 0 0 0 0 0 0 0 0 0 0 0 0 0 0 0 0 0 10 0 0 0 1 0 17 0 0 1 0 5 0 0 0 0 0 0 0 0 0 0 0 0 0 213 0 0 0 0 130 0 0 0 0 0 0 0 0 0 0 0 10 40 0 0 0 0 0 0 0 0 0 14 4 0 0 9 0 0 26 0 0 0 0 0 0 0 0 2 0 0 0 0 0 0 0 0 0 0 0 18 0 15 0 0 4 0 0 12 0 0 10 0 0 6 0 0 6 0 0 4 0 0 6 0 0 0 0 0 2 0 0 13 0 0 6 0 0 0 0 0 0 0 0 0 0 0 0 0 0 0 0 0 0 0 0 0 0 0 0 0 0 0 0 0 0 2 0 302 0 0 426 3 8 0 0 0 0 0 0 0 0 0 0 0 0 0 0 24 0 0 0 0 0 0 0 0 0 0 0 0 0 0 0 0 0 0 0 0 0 0 0 0 0 0 0 0 0 0 0 0 0 0 0 0 0 0 0 0 0 0 0 0 0 0 419 0 0 0 0 0 0 5 0 0 0 0 0 0 0 227 0 0 0 12 0 0 0 0 10 0 0 0 0 0 88 0 0 0 462 0 0 0 0 10 12 16 0 0 0 0 0 0 0 0 0 0 0 0 0 0 0 0 0 0 3 0 198 0 0 0 0 149 383 0 0 0 5 6 438 0 0 0 0 0 0 0 0 48 0 0 0 2 0 0 0 0 0 455 0 0 0 2 0 0 0 0 0 0 0 0 0 0 0 0 0 0 0 0 0 0 0 0 0 0 0 0 4 0 0 0 0 0 0 0 0 0 0 0 0 0 0 0 0 0 0 0 0 0 0 0 0 0 0 0 0 0 0 0 0 0 0 0 0 0 0 0 0 0 0 0 0 0 0 0 0 0 0 0 0 0 0 0 0 0 0 0 0 0 0 0 0 0 0 0 0 0 0 0 0 38 0 0 0 16 2 0 0 0 4 0 0 92 0 0 89 0 0 0 0 7 0 36 4 34 2 0 0 0 0 0 12 5 0 0 0 0 0 0 0 0 0 0 0 0 0 0 0 0 0 0 0 0 18 0 40 8 0 4 0 0 8 0 0 0 0 0 0 0 1 13 0 0 0 0 0 0 0 0 0 0 6 0 0 0 0 0 0 0 0 0 0 0 0 0 0 0 0 0 0 0 0 0 0 0 0 0 4 0 4 0 0 0 0 0 0 0 0 0 0 0 0 0 0 0 0 0 0 0 0 0 0 0 0 0 0 0 0 0 0 0 0 0 0 0 0 0 0 0 0 0 0 0 0 0 0 0 0 0 0 0 0 0 0 0 0 0 0 0 0 0 0 0 0 0 0 0 0 0 0 1 0 0 0 0 0 0 0 0 14 0 0 0 0 0 0 0 0 0 0 0 0 0 0 3 0 0 0 0 0 0 0 0 0 0 0 0 0 0 0 6 7 0 0 0 0 0 0 497 0 0 0 0 0 0 0 2 0 0 1 0 0 0 0 48 0 0 0 0 0 0 0 0 228 0 0 0 0 0 0 0 0 44 1 0 0 0 0 0 0 0 0 0 0 0 0 0 0 0 0 0 0 0 0 0 0 0 0 0 0 0 0 0 254 0 0 0 0 0 0 0 0 0 0 0 0 0 0 0 0 0 0 0 0 0 0 0 0 0 326 0 0 0 0 0 0 0 0 0 0 0 0 0 0 0 0 0 0 0 0 0 0 0 0 0 0 0 0 0 0 0 0 0 0 0 0 0 0 0 0 0 0 0 0 0 0 0 0 20 0 0 0 0 0 0 0 0 0 33 0 0 0 0 0 0 0 0 0 0 0 0 0 3 0 0 1 0 0 0 0 0 8 12 0 6 0 0 15 0 0 30 0 0 2 0 0 2 0 0 0 0 0 8 0 0 0 0 0 0 0 0 0 0 0 0 0 0 24 0 0 0 0 0 6 0 0 0 0 4 30 0 31 0 0 0 0 0 0 0 0 0 0 0 0 0 0 0 0 0 9 0 0 0 0 0 0 364 0 0 0 0 0 0 0 0 0 0 0 0 0 0 0 0 0 0 0 0 0 0 0 9 0 0 0 0 0 0 0 0 0 0 0 0 0 0 0 0 0 0 0 0 0 0 0 0 0 0 0 0 0 0 0 0 0 0 0 0 0 0 0 0 0 0 0 0 0 0 0 0 0 0 0 0 0 0 0 0 42 0 0 0 0 5 0 0 0 0 0 0 0 0 0 0 0 0 0 0 0 16 0 7 0 0 0 0 0 0 0 0 0 0 0 0 0 0 0 0 0 0 0 0 38 0 0 43 0 0 0 0 0 0 0 0 774 0 0 0 0 0 217 18 0 0 0 0 0 0 25 0 0 0 0 0 0 0 0 0 0 0 0 0 0 0 0 21 0 0 0 0 0 0 0 0 0 0 0 0 0 0 0 0 0 0 0 0 0 0 0 0 0 0 0 0 0 0 0 0 0 0 0 0 0 0 0 0 0 0 0 0 0 0 0 0 0 0 0 0 0 0 0 0 0 0 0 0 0 0 0 0 0 0 0 0 0 0 0 0 0 0 0 0 0 0 0 0 10 0 0 0 3 0 9 0 0 24 0 0 3 0 17 0 0 0 0 0 0 0 0 0 3 0 0 0 0 0 0 0 0 45 0 0 6 0 0 0 0 0 0 0 1 0 0 0 0 0 0 0 0 0 0 0 0 0 3 0 0 0 0 5 0 0 0 0 0 0 0 130 0 0 0 42 0 0 0 0 0 0 0 0 0 0 0 0 0 0 0 0 0 0 0 21 0 0 0 0 0 0 40 0 0 0 0 0 0 0 0 0 0 0 0 0 0 0 0 1 0 0 0 0 0 0 0 0 0 0 0 0 0 0 0 0 0 0 0 0 0 0 0 0 0 0 0 0 0 0 0 0 0 3 0 0 0 0 0 0 0 0 0 0 0 0 0 0 0 0 0 0 0 0 0 0 0 0 0 0 0 0 0 0 0 0 0 0 0 0 0 0 0 0 0 0 0 0 0 0 0 0 0 0 0 0 0 100 0 24 0 0 0 0 0 0 0 0 0 0 0 0 0 0 0 0 0 0 0 13 0 0 0 0 6 0 0 0 0 0 0 17 0 0 0 0 0 8 0 0 4 0 0 1 0 0 0 0 0 8 0 0 1 0 7 0 0 0 0 0 30 0 0 0 1 0 0 0 0 0 0 0 0 0 0 0 0 0 0 0 0 0 0 0 0 0 0 0 0 0 0 0 299 0 0 0 0 0 0 0 0 0 0 0 0 0 0 78 0 0 0 0 0 0 58 0 0 0 0 0 0 0 0 0 0 0 0 0 0 0 0 0 0 0 0 0 0 0 0 0 0 0 0 0 0 0 0 0 0 0 0 0 0 0 0 0 0 0 0 0 0 0 0 0 0 24 0 0 0 0 0 0 0 0 0 0 0 0 0 0 0 0 0 0 0 0 0 0 0 0 0 0 0 0 0 0 0 0 0 0 0 0 0 0 0 0 0 0 0 0 0 0 0 0 0 0 0 0 0 0 0 0 0 0 0 0 0 0 0 0 0 0 0 0 0 0 0 0 32 160 0 0 0 0 0 0 0 0 0 0 0 0 0 0 0 0 0 0 0 0 0 0 0 0 0 0 0 0 0 0 0 0 0 0 0 0 0 0 0 0 0 0 0 0 0 0 0 0 0 0 0 4 0 0 0 0 0 0 0 0 0 0 0 0 0 0 0 0 0 0 0 0 0 0 0 0 0 0 0 0 0 0 0 0 0 0 0 0 0 0 0 0 0 0 0 0 0 0 0 0 0 0 0 1 0 0 0 0 0 30 0 0 0 0 0 0 0 0 0 0 0 0 0 0 0 0 0 0 0 0 0 0 0 0 0 0 0 0 0 0 0 0 0 0 0 0 0 0 0 0 4 3 0 0 6 1 0 0 0 0 0 0 0 0 0 0 72 0 0 0 0 0 0 0 0 0 0 0 0 0 32 47 16 0 203 236 0 0 0 0 0 0 0 0 0 0 0 0 0 0 0 0 0 0 0 0 0 0 0 0 0 0 0 0 0 0 0 0 300 0 0 0 0 0 0 0 0 0 0 0 0 0 0 0 0 0 0 0 0 0 0 0 0 0 0 0 Printing Sanity3
offset_index value2072
offset list size2072
reward size2072
potential size2072
-----------------------------------------------------------------------------------------------------------------------------------------------------------------------------------------------------

DRAM Statistics
 CHANNEL 0
 RQ ROW_BUFFER_HIT:    1856663  ROW_BUFFER_MISS:    2012494
 DBUS_CONGESTED:       2286
 WQ ROW_BUFFER_HIT:     547320  ROW_BUFFER_MISS:    2057996  FULL:      60830

 AVG_CONGESTED_CYCLE: 3
 All warmup complete: 2
Channel 0 Bank busy for read cycles: 0
Channel 0 Bank busy for write cycles: 0
Channel 0
Rank 0
0banks busy for read cycles: 169276746
0banks busy for write cycles: 267127
1banks busy for read cycles: 35160416
1banks busy for write cycles: 36146224
2banks busy for read cycles: 15777701
2banks busy for write cycles: 14357245
3banks busy for read cycles: 16925862
3banks busy for write cycles: 6886775
4banks busy for read cycles: 6100548
4banks busy for write cycles: 4250869
5banks busy for read cycles: 4974183
5banks busy for write cycles: 3444519
6banks busy for read cycles: 6579988
6banks busy for write cycles: 3422357
7banks busy for read cycles: 10415648
7banks busy for write cycles: 5819921
8banks busy for read cycles: 15237239
8banks busy for write cycles: 34319829

CPU 0 Branch Prediction Accuracy: 99.9484% MPKI: 0.078705 Average ROB Occupancy at Mispredict: 124.728
Branch types
NOT_BRANCH: 169466862 84.7334%
BRANCH_DIRECT_JUMP: 1660636 0.830318%
BRANCH_INDIRECT: 10006677 5.00334%
BRANCH_CONDITIONAL: 12018715 6.00936%
BRANCH_DIRECT_CALL: 2826795 1.4134%
BRANCH_INDIRECT_CALL: 596648 0.298324%
BRANCH_RETURN: 3423437 1.71172%
BRANCH_OTHER: 0 0%

DRAM PAGES: 1048576
Allocated PAGES: 8494
