
*** ChampSim Multicore Out-of-Order Simulator ***

Warmup Instructions: 50000000
Simulation Instructions: 200000000
Number of CPUs: 1
LLC sets: 2048
LLC ways: 16
Off-chip DRAM Size: 4096 MB Channels: 1 Width: 64-bit Data Rate: 6400 MT/s
CPU 0 runs traces/spec2k17/srv_67.champsimtrace.xz
.xz
BTB has LRU replacement policy
ITLB has LRU replacement policy
DTLB has LRU replacement policy
STLB has LRU replacement policy
L1I has LRU replacement policy
L1D has LRU replacement policy
Initialize SRRIP state for L2C
Initialize DRRIP state for LLC
Heartbeat CPU 0 instructions: 10000001 cycles: 2764401 heartbeat IPC: 3.61742 cumulative IPC: 3.61742 (Simulation time: 0 hr 0 min 35 sec) 
Heartbeat CPU 0 instructions: 20000002 cycles: 5524176 heartbeat IPC: 3.62348 cumulative IPC: 3.62045 (Simulation time: 0 hr 1 min 14 sec) 
Heartbeat CPU 0 instructions: 30000003 cycles: 8285444 heartbeat IPC: 3.62153 cumulative IPC: 3.62081 (Simulation time: 0 hr 1 min 49 sec) 
*** Reached end of trace for Core: 0 Repeating trace: traces/spec2k17/srv_67.champsimtrace.xz
Heartbeat CPU 0 instructions: 40000003 cycles: 11044924 heartbeat IPC: 3.62387 cumulative IPC: 3.62157 (Simulation time: 0 hr 2 min 26 sec) 
Heartbeat CPU 0 instructions: 50000003 cycles: 13806452 heartbeat IPC: 3.62118 cumulative IPC: 3.6215 (Simulation time: 0 hr 3 min 3 sec) 

Warmup complete CPU 0 instructions: 50000003 cycles: 13806452 (Simulation time: 0 hr 3 min 3 sec) 

Offsets elements: 
Potential of Offsets elements: 
rewards of Offsets elements: 
Printing Sanity1
offset list size526
Offsets elements: 
Potential of Offsets elements: 
rewards of Offsets elements: 192 0 0 0 0 0 0 0 0 0 0 0 0 0 8228 0 0 0 0 0 0 0 0 0 0 0 0 0 0 0 0 0 0 0 0 1700 0 0 0 0 0 0 0 0 0 0 1 0 0 0 0 0 0 6 0 994 0 0 857 0 0 0 1385 36 32 400 0 0 0 0 48 0 0 0 0 0 0 0 0 0 0 0 0 0 0 0 1250 0 0 0 0 0 0 0 0 0 0 36 0 0 0 0 1 48 11 56 108 144 144 144 52 0 0 0 18 360 54 36 0 0 105 339 0 0 230 60 9 60 170 88 126 318 135 126 8 0 0 0 0 0 0 0 0 0 0 0 0 0 18 0 0 0 0 0 0 0 0 0 14 509 27 33 36 36 141 4 8 0 0 145 54 78 60 360 174 28 0 0 0 0 1 0 0 0 0 0 0 0 0 0 0 0 0 0 0 0 0 0 0 0 0 0 0 0 0 0 0 0 0 0 4 0 0 0 0 0 1 0 0 0 0 0 0 0 0 0 0 0 0 0 0 0 0 211 0 0 0 0 0 0 0 0 0 0 0 0 0 0 0 14 0 0 0 0 0 0 0 0 0 0 0 0 0 8 0 0 0 0 66 0 0 0 3 0 14 18 0 0 9 42 0 0 0 0 0 0 0 0 0 0 0 0 0 0 0 0 0 0 0 0 9 0 0 0 0 0 7 18 42 33 18 45 18 8 0 0 0 0 4 9 18 18 325 529 65 168 252 108 276 372 55 72 121 0 168 98 0 0 0 0 0 0 0 0 0 0 0 0 352 0 0 0 0 0 0 0 45 0 0 0 0 0 0 0 0 0 0 0 0 0 0 0 0 0 0 0 0 0 0 0 0 0 0 0 0 0 0 0 0 0 0 0 0 0 0 0 0 0 0 0 0 0 0 0 0 0 0 0 0 0 0 0 0 0 0 0 0 0 0 0 0 0 0 0 0 0 0 0 0 0 0 0 0 0 0 72 72 18 22 0 0 0 0 0 0 0 0 273 0 0 0 0 0 0 0 0 0 0 0 0 0 1 0 0 1750 0 0 0 0 0 0 0 0 0 0 0 0 0 0 0 0 3 0 0 0 0 0 0 0 0 0 0 0 0 0 0 0 0 0 0 0 0 0 0 0 0 0 0 18 130 0 0 0 0 0 29 18 18 36 66 60 24 14 0 0 0 
Printing Sanity2
Heartbeat CPU 0 instructions: 60000001 cycles: 35650703 heartbeat IPC: 0.457786 cumulative IPC: 0.457786 (Simulation time: 0 hr 4 min 2 sec) 
*** Reached end of trace for Core: 0 Repeating trace: traces/spec2k17/srv_67.champsimtrace.xz
Heartbeat CPU 0 instructions: 70000003 cycles: 57117328 heartbeat IPC: 0.46584 cumulative IPC: 0.461778 (Simulation time: 0 hr 5 min 4 sec) 
Heartbeat CPU 0 instructions: 80000001 cycles: 79001808 heartbeat IPC: 0.456945 cumulative IPC: 0.460155 (Simulation time: 0 hr 6 min 4 sec) 
Heartbeat CPU 0 instructions: 90000001 cycles: 100780616 heartbeat IPC: 0.459162 cumulative IPC: 0.459907 (Simulation time: 0 hr 7 min 5 sec) 
*** Reached end of trace for Core: 0 Repeating trace: traces/spec2k17/srv_67.champsimtrace.xz
Heartbeat CPU 0 instructions: 100000003 cycles: 122306236 heartbeat IPC: 0.464563 cumulative IPC: 0.46083 (Simulation time: 0 hr 8 min 7 sec) 
Heartbeat CPU 0 instructions: 110000000 cycles: 144193053 heartbeat IPC: 0.456896 cumulative IPC: 0.46017 (Simulation time: 0 hr 9 min 5 sec) 
Heartbeat CPU 0 instructions: 120000000 cycles: 165926852 heartbeat IPC: 0.460113 cumulative IPC: 0.460162 (Simulation time: 0 hr 10 min 8 sec) 
*** Reached end of trace for Core: 0 Repeating trace: traces/spec2k17/srv_67.champsimtrace.xz
Heartbeat CPU 0 instructions: 130000001 cycles: 187518323 heartbeat IPC: 0.463146 cumulative IPC: 0.460533 (Simulation time: 0 hr 11 min 9 sec) 
Heartbeat CPU 0 instructions: 140000000 cycles: 209538092 heartbeat IPC: 0.454137 cumulative IPC: 0.459813 (Simulation time: 0 hr 12 min 10 sec) 
Heartbeat CPU 0 instructions: 150000002 cycles: 230902482 heartbeat IPC: 0.468069 cumulative IPC: 0.460626 (Simulation time: 0 hr 13 min 13 sec) 
*** Reached end of trace for Core: 0 Repeating trace: traces/spec2k17/srv_67.champsimtrace.xz
Heartbeat CPU 0 instructions: 160000000 cycles: 252647350 heartbeat IPC: 0.459879 cumulative IPC: 0.460558 (Simulation time: 0 hr 14 min 16 sec) 
Heartbeat CPU 0 instructions: 170000001 cycles: 274679048 heartbeat IPC: 0.453892 cumulative IPC: 0.459995 (Simulation time: 0 hr 15 min 15 sec) 
Heartbeat CPU 0 instructions: 180000001 cycles: 296094016 heartbeat IPC: 0.466963 cumulative IPC: 0.460523 (Simulation time: 0 hr 16 min 15 sec) 
*** Reached end of trace for Core: 0 Repeating trace: traces/spec2k17/srv_67.champsimtrace.xz
Heartbeat CPU 0 instructions: 190000000 cycles: 317712893 heartbeat IPC: 0.462559 cumulative IPC: 0.460668 (Simulation time: 0 hr 17 min 15 sec) 
Heartbeat CPU 0 instructions: 200000001 cycles: 339584507 heartbeat IPC: 0.457214 cumulative IPC: 0.460436 (Simulation time: 0 hr 18 min 18 sec) 
Heartbeat CPU 0 instructions: 210000003 cycles: 361206511 heartbeat IPC: 0.462492 cumulative IPC: 0.460564 (Simulation time: 0 hr 19 min 18 sec) 
*** Reached end of trace for Core: 0 Repeating trace: traces/spec2k17/srv_67.champsimtrace.xz
Heartbeat CPU 0 instructions: 220000000 cycles: 382705344 heartbeat IPC: 0.465141 cumulative IPC: 0.460831 (Simulation time: 0 hr 20 min 21 sec) 
Heartbeat CPU 0 instructions: 230000000 cycles: 404535458 heartbeat IPC: 0.458083 cumulative IPC: 0.460677 (Simulation time: 0 hr 21 min 20 sec) 
Heartbeat CPU 0 instructions: 240000001 cycles: 426305401 heartbeat IPC: 0.459349 cumulative IPC: 0.460607 (Simulation time: 0 hr 22 min 20 sec) 
*** Reached end of trace for Core: 0 Repeating trace: traces/spec2k17/srv_67.champsimtrace.xz
Heartbeat CPU 0 instructions: 250000003 cycles: 447788630 heartbeat IPC: 0.465479 cumulative IPC: 0.460848 (Simulation time: 0 hr 23 min 20 sec) 
Finished CPU 0 instructions: 200000000 cycles: 433982178 cumulative IPC: 0.460848 (Simulation time: 0 hr 23 min 20 sec) 

ChampSim completed all CPUs

Region of Interest Statistics

CPU 0 cumulative IPC: 0.460848 instructions: 200000000 cycles: 433982178
ITLB TOTAL     ACCESS:   31351078  HIT:   30557941  MISS:     793137  HIT %:    97.4701  MISS %:    2.52986   MPKI: 3.96569
ITLB LOAD TRANSLATION ACCESS:   31351078  HIT:   30557941  MISS:     793137  HIT %:    97.4701  MISS %:    2.52986   MPKI: 3.96569
ITLB PREFETCH  REQUESTED:          0  ISSUED:          0  USEFUL:          0  USELESS:          0
ITLB USEFUL LOAD PREFETCHES:          0 PREFETCH ISSUED TO LOWER LEVEL:          0  ACCURACY: -nan
ITLB TIMELY PREFETCHES:          0 LATE PREFETCHES: 0 DROPPED PREFETCHES: 0
ITLB PREFETCHES SAME FILL-ORIGIN LEVEL: 0 DIFFERENT FILL-ORIGIN LEVEL: 0
ITLB AVERAGE MISS LATENCY: 14.0642 cycles
ITLB RQ	ACCESS:   38249739	FORWARD:          0	MERGED:    6705049	TO_CACHE:   31544690

DTLB TOTAL     ACCESS:   37190197  HIT:   34611182  MISS:    2579015  HIT %:    93.0653  MISS %:    6.93466   MPKI: 12.8951
DTLB LOAD TRANSLATION ACCESS:   37190197  HIT:   34611182  MISS:    2579015  HIT %:    93.0653  MISS %:    6.93466   MPKI: 12.8951
DTLB PREFETCH  REQUESTED:          0  ISSUED:          0  USEFUL:          0  USELESS:          0
DTLB USEFUL LOAD PREFETCHES:          0 PREFETCH ISSUED TO LOWER LEVEL:          0  ACCURACY: -nan
DTLB TIMELY PREFETCHES:          0 LATE PREFETCHES: 0 DROPPED PREFETCHES: 0
DTLB PREFETCHES SAME FILL-ORIGIN LEVEL: 0 DIFFERENT FILL-ORIGIN LEVEL: 0
DTLB AVERAGE MISS LATENCY: 13.4695 cycles
DTLB RQ	ACCESS:   47624262	FORWARD:          0	MERGED:   10286005	TO_CACHE:   37338257

STLB TOTAL     ACCESS:    9778577  HIT:    9447147  MISS:     331430  HIT %:    96.6107  MISS %:    3.38935   MPKI: 1.65715
STLB LOAD TRANSLATION ACCESS:    3372152  HIT:    3048745  MISS:     323407  HIT %:    90.4095  MISS %:    9.59052   MPKI: 1.61704
STLB TRANSLATION FROM L1D PREFETCHER ACCESS:    6406425  HIT:    6398402  MISS:       8023  HIT %:    99.8748  MISS %:   0.125234   MPKI: 0.040115
STLB PREFETCH  REQUESTED:          0  ISSUED:          0  USEFUL:       7288  USELESS:        735
STLB USEFUL LOAD PREFETCHES:       7288 PREFETCH ISSUED TO LOWER LEVEL:          0  ACCURACY: inf
STLB TIMELY PREFETCHES:       7288 LATE PREFETCHES: 304 DROPPED PREFETCHES: 216475
STLB PREFETCHES SAME FILL-ORIGIN LEVEL: 0 DIFFERENT FILL-ORIGIN LEVEL: 0
STLB AVERAGE MISS LATENCY: 47.5528 cycles
STLB RQ	ACCESS:   11434977	FORWARD:          0	MERGED:    1377921	TO_CACHE:   10057056

STLB Hit, L1D data hit: 0
STLB Hit, L2C data hit: 0
STLB Hit, LLC data hit: 0
STLB Hit, LLC data miss: 0
STLB STLB hints to L2: 0
L1D TOTAL     ACCESS:   54730051  HIT:   51282879  MISS:    3447172  HIT %:    93.7015  MISS %:     6.2985   MPKI: 17.2359
L1D LOAD      ACCESS:   27501176  HIT:   25428404  MISS:    2072772  HIT %:     92.463  MISS %:    7.53703   MPKI: 10.3639
L1D RFO       ACCESS:   19655976  HIT:   19336639  MISS:     319337  HIT %:    98.3754  MISS %:    1.62463   MPKI: 1.59668
L1D PREFETCH  ACCESS:    7572899  HIT:    6517836  MISS:    1055063  HIT %:    86.0679  MISS %:    13.9321   MPKI: 5.27531
AGUS PREFETCH L1 MISS: 0
L1D PREFETCH  REQUESTED:   16308382  ISSUED:   16308300  USEFUL:     205940  USELESS:     848887
L1D USEFUL LOAD PREFETCHES:     205940 PREFETCH ISSUED TO LOWER LEVEL:    1057859  ACCURACY: 19.4676
L1D TIMELY PREFETCHES:     205940 LATE PREFETCHES: 2670 DROPPED PREFETCHES: 392235
L1D PREFETCHES SAME FILL-ORIGIN LEVEL: 1057859 DIFFERENT FILL-ORIGIN LEVEL: 0
L1D AVERAGE MISS LATENCY: 179331 cycles
L1D RQ	ACCESS:   42154305	FORWARD:          0	MERGED:   14290547	TO_CACHE:   27607699
L1D WQ	ACCESS:   20323448	FORWARD:     258208	MERGED:     306885	TO_CACHE:   20016563
L1D PQ	ACCESS:    8245475	FORWARD:          0	MERGED:     180501	TO_CACHE:    8062825

L1D UNIQUE REGIONS ACCESSED: 0
L1D REGIONS CONFLICTS: 0
L1D Cross Page Prefetch Requests: 1489401
L1D Same Page Prefetch Requests: 6756074
L1D ROI Sum of L1D PQ occupancy: 111885826
L1D PREFETCHES PUSHED FROM L2C: 0
L1I TOTAL     ACCESS:   36476219  HIT:   31454458  MISS:    5021761  HIT %:    86.2328  MISS %:    13.7672   MPKI: 25.1088
L1I LOAD      ACCESS:   36476219  HIT:   31454458  MISS:    5021761  HIT %:    86.2328  MISS %:    13.7672   MPKI: 25.1088
L1I PREFETCH  REQUESTED:          0  ISSUED:          0  USEFUL:          0  USELESS:          0
L1I USEFUL LOAD PREFETCHES:          0 PREFETCH ISSUED TO LOWER LEVEL:          0  ACCURACY: -nan
L1I TIMELY PREFETCHES:          0 LATE PREFETCHES: 0 DROPPED PREFETCHES: 0
L1I PREFETCHES SAME FILL-ORIGIN LEVEL: 0 DIFFERENT FILL-ORIGIN LEVEL: 0
L1I AVERAGE MISS LATENCY: 26.2764 cycles
L1I RQ	ACCESS:   57198453	FORWARD:          0	MERGED:   18948714	TO_CACHE:   38249739

BTB TOTAL     ACCESS:   22385295  HIT:   18261967  MISS:    4123328  HIT %:    81.5802  MISS %:    18.4198   MPKI: 20.6166
BTB BRANCH_DIRECT_JUMP	ACCESS:    1763864  HIT:    1523664  MISS:     240200
BTB BRANCH_INDIRECT	ACCESS:    9441713  HIT:    7464419  MISS:    1977294
BTB BRANCH_CONDITIONAL	ACCESS:    4809987  HIT:    4436732  MISS:     373255
BTB BRANCH_DIRECT_CALL	ACCESS:    2503051  HIT:    2063439  MISS:     439612
BTB BRANCH_INDIRECT_CALL	ACCESS:     681117  HIT:     639848  MISS:      41269
BTB BRANCH_RETURN	ACCESS:    3185563  HIT:    2133865  MISS:    1051698
BTB BRANCH_OTHER ACCESS:          0  HIT:          0  MISS:          0

L2C TOTAL     ACCESS:   10278068  HIT:    6625477  MISS:    3652591  HIT %:    64.4623  MISS %:    35.5377   MPKI: 18.263
L2C LOAD      ACCESS:    7091765  HIT:    4335585  MISS:    2756180  HIT %:    61.1355  MISS %:    38.8645   MPKI: 13.7809
L2C DATA LOAD MPKI: 4.12413
L2C INSTRUCTION LOAD MPKI: 9.65677
L2C RFO       ACCESS:     319205  HIT:     187185  MISS:     132020  HIT %:     58.641  MISS %:     41.359   MPKI: 0.6601
L2C PREFETCH  ACCESS:    1057859  HIT:     530378  MISS:     527481  HIT %:    50.1369  MISS %:    49.8631   MPKI: 2.63741
AGUS PREFETCH L1 MISS: 0
L2C DATA PREFETCH MPKI: 2.63741
L2C INSTRUCTION PREFETCH MPKI: 0
L2C WRITEBACK ACCESS:    1047150  HIT:    1000392  MISS:      46758  HIT %:    95.5347  MISS %:    4.46526   MPKI: 0.23379
L2C LOAD TRANSLATION ACCESS:     430458  HIT:     247931  MISS:     182527  HIT %:     57.597  MISS %:     42.403   MPKI: 0.912635
L2C TRANSLATION FROM L1D PREFETCHER ACCESS:     331631  HIT:     324006  MISS:       7625  HIT %:    97.7008  MISS %:    2.29924   MPKI: 0.038125
L2C PREFETCH  REQUESTED:          0  ISSUED:          0  USEFUL:      43823  USELESS:     490201
L2C USEFUL LOAD PREFETCHES:      43823 PREFETCH ISSUED TO LOWER LEVEL:     527481  ACCURACY: 8.30798
L2C TIMELY PREFETCHES:      43823 LATE PREFETCHES: 0 DROPPED PREFETCHES: 0
L2C PREFETCHES SAME FILL-ORIGIN LEVEL: 0 DIFFERENT FILL-ORIGIN LEVEL: 0
L2C AVERAGE MISS LATENCY: 43.9592 cycles
L2C RQ	ACCESS:    8173163	FORWARD:          0	MERGED:          0	TO_CACHE:    8173059
L2C WQ	ACCESS:    1047150	FORWARD:        104	MERGED:          0	TO_CACHE:    1047150
L2C PQ	ACCESS:    1057859	FORWARD:          0	MERGED:          0	TO_CACHE:    1057859

L2C Instructions Evicting Data 793831
L2C Translations Evicting Data 78844
L2C Data Evicting Data 637547
L2C Instructions Evicting Instructions 1039358
L2C Translations Evicting Instructions 100049
L2C Data Evicting Instructions 768052
L2C Instructions Evicting Translations 98165
L2C Translations Evicting Translations 11259
L2C Data Evicting Translations 78728
L2C Dense regions hint from L2: 0
PSCL5 TOTAL     ACCESS:     547905  HIT:     547905  MISS:          0  HIT %:        100  MISS %:          0   MPKI: 0
PSCL5 LOAD TRANSLATION ACCESS:     323103  HIT:     323103  MISS:          0  HIT %:        100  MISS %:          0   MPKI: 0
PSCL5 TRANSLATION FROM L1D PREFETCHER ACCESS:     224802  HIT:     224802  MISS:          0  HIT %:        100  MISS %:          0   MPKI: 0
PSCL5 PREFETCH  REQUESTED:          0  ISSUED:          0  USEFUL:          0  USELESS:          0
PSCL5 USEFUL LOAD PREFETCHES:          0 PREFETCH ISSUED TO LOWER LEVEL:          0  ACCURACY: -nan
PSCL5 TIMELY PREFETCHES:          0 LATE PREFETCHES: 0 DROPPED PREFETCHES: 0
PSCL5 PREFETCHES SAME FILL-ORIGIN LEVEL: 0 DIFFERENT FILL-ORIGIN LEVEL: 0

PSCL4 TOTAL     ACCESS:     503616  HIT:     502927  MISS:        689  HIT %:    99.8632  MISS %:   0.136811   MPKI: 0.003445
PSCL4 LOAD TRANSLATION ACCESS:     305541  HIT:     304852  MISS:        689  HIT %:    99.7745  MISS %:   0.225502   MPKI: 0.003445
PSCL4 TRANSLATION FROM L1D PREFETCHER ACCESS:     198075  HIT:     198075  MISS:          0  HIT %:        100  MISS %:          0   MPKI: 0
PSCL4 PREFETCH  REQUESTED:          0  ISSUED:          0  USEFUL:          0  USELESS:          0
PSCL4 USEFUL LOAD PREFETCHES:          0 PREFETCH ISSUED TO LOWER LEVEL:          0  ACCURACY: -nan
PSCL4 TIMELY PREFETCHES:          0 LATE PREFETCHES: 0 DROPPED PREFETCHES: 0
PSCL4 PREFETCHES SAME FILL-ORIGIN LEVEL: 0 DIFFERENT FILL-ORIGIN LEVEL: 0

PSCL3 TOTAL     ACCESS:     545582  HIT:     544206  MISS:       1376  HIT %:    99.7478  MISS %:   0.252208   MPKI: 0.00688
PSCL3 LOAD TRANSLATION ACCESS:     322031  HIT:     320655  MISS:       1376  HIT %:    99.5727  MISS %:   0.427288   MPKI: 0.00688
PSCL3 TRANSLATION FROM L1D PREFETCHER ACCESS:     223551  HIT:     223551  MISS:          0  HIT %:        100  MISS %:          0   MPKI: 0
PSCL3 PREFETCH  REQUESTED:          0  ISSUED:          0  USEFUL:          0  USELESS:          0
PSCL3 USEFUL LOAD PREFETCHES:          0 PREFETCH ISSUED TO LOWER LEVEL:          0  ACCURACY: -nan
PSCL3 TIMELY PREFETCHES:          0 LATE PREFETCHES: 0 DROPPED PREFETCHES: 0
PSCL3 PREFETCHES SAME FILL-ORIGIN LEVEL: 0 DIFFERENT FILL-ORIGIN LEVEL: 0

PSCL2 TOTAL     ACCESS:     443911  HIT:     336331  MISS:     107580  HIT %:    75.7654  MISS %:    24.2346   MPKI: 0.5379
PSCL2 LOAD TRANSLATION ACCESS:     325295  HIT:     217715  MISS:     107580  HIT %:    66.9285  MISS %:    33.0715   MPKI: 0.5379
PSCL2 TRANSLATION FROM L1D PREFETCHER ACCESS:     118616  HIT:     118616  MISS:          0  HIT %:        100  MISS %:          0   MPKI: 0
PSCL2 PREFETCH  REQUESTED:          0  ISSUED:          0  USEFUL:          0  USELESS:          0
PSCL2 USEFUL LOAD PREFETCHES:          0 PREFETCH ISSUED TO LOWER LEVEL:          0  ACCURACY: -nan
PSCL2 TIMELY PREFETCHES:          0 LATE PREFETCHES: 0 DROPPED PREFETCHES: 0
PSCL2 PREFETCHES SAME FILL-ORIGIN LEVEL: 0 DIFFERENT FILL-ORIGIN LEVEL: 0

LLC TOTAL     ACCESS:    4043848  HIT:    3690359  MISS:     353489  HIT %:    91.2586  MISS %:     8.7414   MPKI: 1.76744
LLC LOAD      ACCESS:    2756174  HIT:    2615120  MISS:     141054  HIT %:    94.8823  MISS %:    5.11775   MPKI: 0.70527
LLC RFO       ACCESS:     132020  HIT:      96654  MISS:      35366  HIT %:    73.2116  MISS %:    26.7884   MPKI: 0.17683
LLC PREFETCH  ACCESS:     527481  HIT:     365137  MISS:     162344  HIT %:    69.2228  MISS %:    30.7772   MPKI: 0.81172
AGUS PREFETCH L1 MISS: 0
LLC WRITEBACK ACCESS:     438021  HIT:     436079  MISS:       1942  HIT %:    99.5566  MISS %:   0.443358   MPKI: 0.00971
LLC LOAD TRANSLATION ACCESS:     182527  HIT:     170127  MISS:      12400  HIT %:    93.2065  MISS %:    6.79352   MPKI: 0.062
LLC TRANSLATION FROM L1D PREFETCHER ACCESS:       7625  HIT:       7242  MISS:        383  HIT %:     94.977  MISS %:    5.02295   MPKI: 0.001915
LLC PREFETCH  REQUESTED:          0  ISSUED:          0  USEFUL:      13312  USELESS:     139582
LLC USEFUL LOAD PREFETCHES:      13312 PREFETCH ISSUED TO LOWER LEVEL:     162344  ACCURACY: 8.19987
LLC TIMELY PREFETCHES:      13312 LATE PREFETCHES: 0 DROPPED PREFETCHES: 0
LLC PREFETCHES SAME FILL-ORIGIN LEVEL: 0 DIFFERENT FILL-ORIGIN LEVEL: 0
LLC AVERAGE MISS LATENCY: 148.204 cycles
LLC RQ	ACCESS:    3078352	FORWARD:          0	MERGED:          0	TO_CACHE:    3078346
LLC WQ	ACCESS:     438021	FORWARD:          6	MERGED:          0	TO_CACHE:     438021
LLC PQ	ACCESS:     527481	FORWARD:          0	MERGED:          0	TO_CACHE:     527481

LLC Dense regions hint to LLC: 0

RAW hits: 2709957
Loads Generated: 44864262
Loads sent to L1D: 42154305
Stores Generated: 20323447
Stores sent to L1D: 20323448
Major fault: 0 Minor fault: 6122
Allocated PAGES: 6122
ucb ended
-----------------------------------------------------------------------------------------------------------------------------------------------------------------------------------------------------
Offsets elements: 4397630085937 -4397630081875 4397638416066 17672 -163184 145511 17674 4976 -22337 -8334508 -4397630085933 4397630085933 -4397630085934 14016 -1 627311 -637263 485413 93851 -579263 -2997770 2997770 519334 4397628840092 -4397629349473 4397637162128 -4397636645895 -333656 -85360 -61355 4397636780593 -4397636780593 4397630036059 -4397630036059 4397629313611 -3 -4397629349470 4397637984048 -4397637984047 35862 -35862 4397630036058 -4397630071920 4397633074298 5332144 -8334455 -74 288223780706293376 -2200618112446 2200618112446 1142572 -574608 3684 -21392 563728 1 -1113738 1113738 3 205 -208 -1113736 2 -250 254 -4 -288223780706293556 -722450 -4398018296155 4398018296165 -10 8911356 -8188904 -722445 722446 7090209 -7090209 -4397629555686 4397630036057 -4397630071919 -9953 -519334 4397630081874 -4397630071921 9954 4397630071919 -2 -4397629596460 4397629596462 9953 4397630071922 8343673 -8343671 -4397630085937 4062 4397630081875 -4397630085939 4397638274617 312 22337 -4976 -8351865 -4397630085938 489474 43077 4397629553385 -9480 -145512 22650 17360 8351866 -8351866 8334192 17673 -8334505 -4397629363488 641326 -58000 -3577033 4397633079645 532288 6 16914 -16918 4397629553648 -388932598 388946793 4397630071743 8343671 -4397638429610 4397630085940 -722451 -4397629363487 532294 -528208 4397630081858 8334191 -8351869 4397633079642 -9954 -475459 475459 -485412 -4397630081874 4397629359426 7812655 -4397637162128 516233 4397636633878 61355 4397629252256 288223780706293302 -1142326 567718 -550008 1113737 -1113735 1113736 -1113737 4 1113941 -1114193 252 -722522 722449 -4398019018606 722453 8188903 -8911349 722445 7090210 4397629889342 -4397629974702 4397630071920 -4397629562540 -509380 475458 -485413 8343670 -4397638420128 4977 -4397638433739 4397638416378 43013 4397629553449 8334193 -17673 9481 -154992 163185 -17361 4397629444612 -4397629502614 -583325 -2993708 4397633079646 -4398019018536 4398019018536 -4397629553650 -532290 4397630085939 -4397630071744 4397638415414 -4397638429608 4397630085938 -4397628814280 -549208 4397629553650 -4397630081858 -4079 -145511 4397629444609 -4397629502609 3007722 1113937 251 -73 -722441 4398018296155 -8188903 -722446 4397630081873 509380 -33922 -4397638438715 17361 8188679 -4397638274616 4397638420127 -4397638433738 4397638433739 -8356845 -1113945 5 -288223780706293627 71 -288223780706293375 -722440 -4398018296165 -4397637897122 4397637887641 145512 -8356842 -4397637880401 532295 4397629553649 -4397628831200 4397638274616 -4397638270554 17 4397638416048 -146715 4397629252253 4397636816455 -6744534 4397637948186 4397633038436 -1113944 1113945 -1113946 -1113938 1113734 -1113729 -71 288223780706293373 -8351863 3525996 -4398018296086 4398027362207 14194 -4397629553644 -528225 -4064 4081 4397638270537 -345673 -4397636300222 4397629166896 -4397629313611 4397629313608 97217 4397637886831 -1113739 1113741 1113939 -288223780706293302 4063 8334190 8356842 -8334503 4397629502614 -4397633079646 -4398019018535 388932598 -4397628831198 -532294 16920 4397629536730 509381 6852 574608 -567716 571394 -571648 255 550001 -550005 1113732 -1113733 1113735 1113940 4398018296162 1098694 -4397637744589 4397630071925 4397638442777 -4397628840092 4397636652747 -567718 571402 -1113941 1113942 -4397630071918 -4397630071922 -4397630081878 4397630081877 -4397629596464 4397637940135 -4397638274617 4397638420128 -4397638416065 4397638438715 -17360 3007723 4397630081872 -4397630081872 519335 4397629596464 -4397629502612 3635033 4397629502611 -8343670 4397629553647 6744570 -6744569 -4397629363489 641325 4397637788284 -6 -389481806 385938890 -4397499102836 -130983102 4397638420129 -4397633079645 133976814 9 4397498030183 -4397632007013 -385938828 4398018296024 -2993707 3483579 -389422407 389422407 -3483579 4397639817296 -4397639817296 3825932 -8413 -3789381 3797794 -8414 7990 -7989 4397628539669 -4397632357187 3817518 7989 -3825509 3825933 8413 7991 424 4397629262121 -4397629253709 4397628531257 -4397629363483 -2993703 4397641413833 -4397632357185 4397639817291 384222 -4397636717942 -489869 4397629363488 -4397628722163 4397636247249 -6744639 8343674 -4398027362145 385938829 3483578 4397629596064 -4397633079643 -4398025756124 -389422406 389422406 -6737653 4397633079643 -722447 -4397632357196 3523955 -530253 130930640 -130322487 4397629477783 -4397633079644 4397633079644 4397638429609 -4398019018537 4398019018537 -14195 -532295 532289 -4397638416066 4397638270554 -3577031 3007720 -1113734 4397629562538 -4397630071923 -2993706 3525994 3007721 33922 8188680 -389464888 -4397638415414 535013 -549207 532290 4397633079640 -4397630036057 -4397629596462 -9955 4397629562542 -7 -7090210 -4397629555685 -516233 182577 -45815 107170 -97217 -4397629562539 -722449 722451 722440 4397637742130 313 -4977 -288223780706293629 -72 10 4397637887578 -8334193 4397638433738 1113730 -4398019018605 14195 -549209 9066121 528231 -528210 528208 4397637887841 -4397629313608 4397630071921 6744534 1167593 206 1113944 -254 8334505 4397629553644 -4397638429609 549208 -532289 4079 -4397637172081 526186 4397636300222 -4397636633878 1114192 -288223780707407494 8188904 -1098694 4397638437801 -4397638416378 4397629444614 -4397629444614 583325 4397629502613 385938892 4397629349473 -6852 -326804 -567964 246 1142326 -1142324 567716 -567717 -571393 -1113939 722441 -4397638078245 333656 4397629555686 485412 -1113940 -475460 -4397630036058 163184 -17672 
Potential of Offsets elements: 220.01 28.0104 28.0104 28.0104 28.0104 28.0104 28.0104 28.0104 28.0104 28.0104 28.0104 28.0104 28.0104 28.0104 1.59329 28.0104 28.0104 28.0104 28.0104 28.0104 28.0104 28.0104 28.0104 28.0104 28.0104 28.0104 28.0104 28.0104 28.0104 28.0104 28.0104 28.0104 28.0104 28.0104 28.0104 1728.01 28.0104 28.0104 28.0104 28.0104 28.0104 28.0104 28.0104 28.0104 28.0104 28.0104 29.0104 28.0104 28.0104 28.0104 28.0104 28.0104 28.0104 34.0104 28.0104 1022.01 28.0104 28.0104 885.01 28.0104 28.0104 28.0104 1413.01 64.0104 60.0104 428.01 28.0104 28.0104 28.0104 28.0104 76.0104 28.0104 28.0104 28.0104 28.0104 28.0104 28.0104 28.0104 28.0104 28.0104 28.0104 28.0104 28.0104 28.0104 28.0104 28.0104 1278.01 28.0104 28.0104 28.0104 28.0104 28.0104 28.0104 28.0104 28.0104 28.0104 28.0104 64.0104 28.0104 28.0104 28.0104 28.0104 29.0104 76.0104 39.0104 84.0104 136.01 172.01 172.01 172.01 80.0104 28.0104 28.0104 28.0104 46.0104 388.01 82.0104 64.0104 28.0104 28.0104 133.01 367.01 28.0104 28.0104 258.01 88.0104 37.0104 88.0104 198.01 116.01 154.01 346.01 163.01 154.01 36.0104 28.0104 28.0104 28.0104 28.0104 28.0104 28.0104 28.0104 28.0104 28.0104 28.0104 28.0104 28.0104 28.0104 46.0104 28.0104 28.0104 28.0104 28.0104 28.0104 28.0104 28.0104 28.0104 28.0104 42.0104 537.01 55.0104 61.0104 64.0104 64.0104 169.01 32.0104 36.0104 28.0104 28.0104 173.01 82.0104 106.01 88.0104 388.01 202.01 56.0104 28.0104 28.0104 28.0104 28.0104 29.0104 28.0104 28.0104 28.0104 28.0104 28.0104 28.0104 28.0104 28.0104 28.0104 28.0104 28.0104 28.0104 28.0104 28.0104 28.0104 28.0104 28.0104 28.0104 28.0104 28.0104 28.0104 28.0104 28.0104 28.0104 28.0104 28.0104 28.0104 28.0104 28.0104 32.0104 28.0104 28.0104 28.0104 28.0104 28.0104 29.0104 28.0104 28.0104 28.0104 28.0104 28.0104 28.0104 28.0104 28.0104 28.0104 28.0104 28.0104 28.0104 28.0104 28.0104 28.0104 28.0104 239.01 28.0104 28.0104 28.0104 28.0104 28.0104 28.0104 28.0104 28.0104 28.0104 28.0104 28.0104 28.0104 28.0104 28.0104 28.0104 42.0104 28.0104 28.0104 28.0104 28.0104 28.0104 28.0104 28.0104 28.0104 28.0104 28.0104 28.0104 28.0104 28.0104 36.0104 28.0104 28.0104 28.0104 28.0104 94.0104 28.0104 28.0104 28.0104 31.0104 28.0104 42.0104 46.0104 28.0104 28.0104 37.0104 70.0104 28.0104 28.0104 28.0104 28.0104 28.0104 28.0104 28.0104 28.0104 28.0104 28.0104 28.0104 28.0104 28.0104 28.0104 28.0104 28.0104 28.0104 28.0104 28.0104 28.0104 37.0104 28.0104 28.0104 28.0104 28.0104 28.0104 35.0104 46.0104 70.0104 61.0104 46.0104 73.0104 46.0104 36.0104 28.0104 28.0104 28.0104 28.0104 32.0104 37.0104 46.0104 46.0104 353.01 557.01 93.0104 196.01 280.01 136.01 304.01 400.01 83.0104 100.01 149.01 28.0104 196.01 126.01 28.0104 28.0104 28.0104 28.0104 28.0104 28.0104 28.0104 28.0104 28.0104 28.0104 28.0104 28.0104 380.01 28.0104 28.0104 28.0104 28.0104 28.0104 28.0104 28.0104 73.0104 28.0104 28.0104 28.0104 28.0104 28.0104 28.0104 28.0104 28.0104 28.0104 28.0104 28.0104 28.0104 28.0104 28.0104 28.0104 28.0104 28.0104 28.0104 28.0104 28.0104 28.0104 28.0104 28.0104 28.0104 28.0104 28.0104 28.0104 28.0104 28.0104 28.0104 28.0104 28.0104 28.0104 28.0104 28.0104 28.0104 28.0104 28.0104 28.0104 28.0104 28.0104 28.0104 28.0104 28.0104 28.0104 28.0104 28.0104 28.0104 28.0104 28.0104 28.0104 28.0104 28.0104 28.0104 28.0104 28.0104 28.0104 28.0104 28.0104 28.0104 28.0104 28.0104 28.0104 28.0104 28.0104 28.0104 28.0104 28.0104 28.0104 28.0104 28.0104 28.0104 28.0104 28.0104 28.0104 28.0104 28.0104 28.0104 100.01 100.01 46.0104 50.0104 28.0104 28.0104 28.0104 28.0104 28.0104 28.0104 28.0104 28.0104 301.01 28.0104 28.0104 28.0104 28.0104 28.0104 28.0104 28.0104 28.0104 28.0104 28.0104 28.0104 28.0104 28.0104 29.0104 28.0104 28.0104 1750.12 28.0104 28.0104 28.0104 28.0104 28.0104 28.0104 28.0104 28.0104 28.0104 28.0104 28.0104 28.0104 28.0104 28.0104 28.0104 28.0104 31.0104 28.0104 28.0104 28.0104 28.0104 28.0104 28.0104 28.0104 28.0104 28.0104 28.0104 28.0104 28.0104 28.0104 28.0104 28.0104 28.0104 28.0104 28.0104 28.0104 28.0104 28.0104 28.0104 28.0104 28.0104 28.0104 28.0104 46.0104 158.01 28.0104 28.0104 28.0104 28.0104 28.0104 57.0104 46.0104 46.0104 64.0104 94.0104 88.0104 52.0104 42.0104 28.0104 28.0104 28.0104 
rewards of Offsets elements: 192 0 0 0 0 0 0 0 0 0 0 0 0 0 1 0 0 0 0 0 0 0 0 0 0 0 0 0 0 0 0 0 0 0 0 1700 0 0 0 0 0 0 0 0 0 0 1 0 0 0 0 0 0 6 0 994 0 0 857 0 0 0 1385 36 32 400 0 0 0 0 48 0 0 0 0 0 0 0 0 0 0 0 0 0 0 0 1250 0 0 0 0 0 0 0 0 0 0 36 0 0 0 0 1 48 11 56 108 144 144 144 52 0 0 0 18 360 54 36 0 0 105 339 0 0 230 60 9 60 170 88 126 318 135 126 8 0 0 0 0 0 0 0 0 0 0 0 0 0 18 0 0 0 0 0 0 0 0 0 14 509 27 33 36 36 141 4 8 0 0 145 54 78 60 360 174 28 0 0 0 0 1 0 0 0 0 0 0 0 0 0 0 0 0 0 0 0 0 0 0 0 0 0 0 0 0 0 0 0 0 0 4 0 0 0 0 0 1 0 0 0 0 0 0 0 0 0 0 0 0 0 0 0 0 211 0 0 0 0 0 0 0 0 0 0 0 0 0 0 0 14 0 0 0 0 0 0 0 0 0 0 0 0 0 8 0 0 0 0 66 0 0 0 3 0 14 18 0 0 9 42 0 0 0 0 0 0 0 0 0 0 0 0 0 0 0 0 0 0 0 0 9 0 0 0 0 0 7 18 42 33 18 45 18 8 0 0 0 0 4 9 18 18 325 529 65 168 252 108 276 372 55 72 121 0 168 98 0 0 0 0 0 0 0 0 0 0 0 0 352 0 0 0 0 0 0 0 45 0 0 0 0 0 0 0 0 0 0 0 0 0 0 0 0 0 0 0 0 0 0 0 0 0 0 0 0 0 0 0 0 0 0 0 0 0 0 0 0 0 0 0 0 0 0 0 0 0 0 0 0 0 0 0 0 0 0 0 0 0 0 0 0 0 0 0 0 0 0 0 0 0 0 0 0 0 0 72 72 18 22 0 0 0 0 0 0 0 0 273 0 0 0 0 0 0 0 0 0 0 0 0 0 1 0 0 1750 0 0 0 0 0 0 0 0 0 0 0 0 0 0 0 0 3 0 0 0 0 0 0 0 0 0 0 0 0 0 0 0 0 0 0 0 0 0 0 0 0 0 0 18 130 0 0 0 0 0 29 18 18 36 66 60 24 14 0 0 0 Printing Sanity3
offset_index value526
offset list size526
reward size526
potential size526
-----------------------------------------------------------------------------------------------------------------------------------------------------------------------------------------------------

DRAM Statistics
 CHANNEL 0
 RQ ROW_BUFFER_HIT:      82732  ROW_BUFFER_MISS:     268815
 DBUS_CONGESTED:        218
 WQ ROW_BUFFER_HIT:      36896  ROW_BUFFER_MISS:     180652  FULL:          0

 AVG_CONGESTED_CYCLE: 4
 All warmup complete: 2
Channel 0 Bank busy for read cycles: 0
Channel 0 Bank busy for write cycles: 0
Channel 0
Rank 0
0banks busy for read cycles: 375341136
0banks busy for write cycles: 109906
1banks busy for read cycles: 27566269
1banks busy for write cycles: 15236748
2banks busy for read cycles: 5260236
2banks busy for write cycles: 4381466
3banks busy for read cycles: 1163716
3banks busy for write cycles: 1867325
4banks busy for read cycles: 362228
4banks busy for write cycles: 980091
5banks busy for read cycles: 99654
5banks busy for write cycles: 581542
6banks busy for read cycles: 55429
6banks busy for write cycles: 381392
7banks busy for read cycles: 44001
7banks busy for write cycles: 289199
8banks busy for read cycles: 36799
8banks busy for write cycles: 225042

CPU 0 Branch Prediction Accuracy: 99.8315% MPKI: 0.301655 Average ROB Occupancy at Mispredict: 44.2379
Branch types
NOT_BRANCH: 164189943 82.095%
BRANCH_DIRECT_JUMP: 1763864 0.881932%
BRANCH_INDIRECT: 9441713 4.72086%
BRANCH_CONDITIONAL: 18234424 9.11721%
BRANCH_DIRECT_CALL: 2503051 1.25153%
BRANCH_INDIRECT_CALL: 681117 0.340558%
BRANCH_RETURN: 3185563 1.59278%
BRANCH_OTHER: 0 0%

DRAM PAGES: 1048576
Allocated PAGES: 6122
