
*** ChampSim Multicore Out-of-Order Simulator ***

Warmup Instructions: 50000000
Simulation Instructions: 200000000
Number of CPUs: 1
LLC sets: 2048
LLC ways: 16
Off-chip DRAM Size: 4096 MB Channels: 1 Width: 64-bit Data Rate: 6400 MT/s
CPU 0 runs traces/spec2k17/srv_40.champsimtrace.xz
.xz
BTB has LRU replacement policy
ITLB has LRU replacement policy
DTLB has LRU replacement policy
STLB has LRU replacement policy
L1I has LRU replacement policy
L1D has LRU replacement policy
Initialize SRRIP state for L2C
Initialize DRRIP state for LLC
Heartbeat CPU 0 instructions: 10000001 cycles: 2802484 heartbeat IPC: 3.56826 cumulative IPC: 3.56826 (Simulation time: 0 hr 0 min 36 sec) 
Heartbeat CPU 0 instructions: 20000003 cycles: 5824290 heartbeat IPC: 3.30928 cumulative IPC: 3.4339 (Simulation time: 0 hr 1 min 20 sec) 
Heartbeat CPU 0 instructions: 30000002 cycles: 8855559 heartbeat IPC: 3.29895 cumulative IPC: 3.3877 (Simulation time: 0 hr 2 min 5 sec) 
*** Reached end of trace for Core: 0 Repeating trace: traces/spec2k17/srv_40.champsimtrace.xz
Heartbeat CPU 0 instructions: 40000000 cycles: 11666942 heartbeat IPC: 3.55697 cumulative IPC: 3.42849 (Simulation time: 0 hr 2 min 42 sec) 
Heartbeat CPU 0 instructions: 50000003 cycles: 14682012 heartbeat IPC: 3.31667 cumulative IPC: 3.40553 (Simulation time: 0 hr 3 min 24 sec) 

Warmup complete CPU 0 instructions: 50000003 cycles: 14682012 (Simulation time: 0 hr 3 min 24 sec) 

Offsets elements: 
Potential of Offsets elements: 
rewards of Offsets elements: 
Printing Sanity1
offset list size493
Offsets elements: 
Potential of Offsets elements: 
rewards of Offsets elements: 958 64 178 146 880 595 7824 219 1224 772 938 0 0 5577 197 841 915 989 1278 1458 516 262 496 771 1444 992 931 1298 951 1056 245 1040 1019 1062 953 542 360 0 0 0 0 0 0 1834 708 797 1612 429 778 253 817 0 0 1167 1176 217 722 1625 586 188 1043 1068 0 692 398 179 1175 1077 569 717 210 770 873 859 167 45 44 922 1013 0 0 931 983 242 1025 832 777 761 967 24 912 835 1066 681 1342 335 0 0 735 567 161 814 1853 0 1038 305 165 678 911 780 383 36 1 217 912 899 0 0 986 904 107 912 800 596 749 1500 173 523 0 0 713 84 1015 1023 1209 3363 740 1247 256 853 750 3426 1392 0 0 571 907 0 0 197 302 937 995 0 0 963 170 861 1163 957 0 0 893 0 0 597 313 868 811 340 1038 966 326 0 0 725 170 0 1112 971 5836 0 360 1081 206 54 127 75 764 0 0 357 479 739 488 0 0 788 633 1059 849 861 724 702 0 0 0 350 1117 379 365 0 0 326 681 740 1093 0 246 713 309 657 206 0 0 636 1164 367 0 0 0 0 1048 935 895 133 502 530 917 0 0 875 204 0 1145 711 580 0 0 292 609 787 0 804 253 0 1146 0 0 0 446 1060 1325 1100 0 1104 328 870 0 884 861 664 1091 722 0 0 914 0 899 0 0 0 1043 0 212 837 0 698 699 0 0 0 183 0 0 0 627 0 140 0 0 1045 0 399 1091 0 0 0 0 0 220 0 0 782 0 427 0 0 0 0 0 861 0 941 0 0 923 345 0 602 0 20 0 0 1448 240 0 0 0 465 0 0 0 0 0 0 881 0 514 0 0 0 23 0 0 613 0 0 0 0 0 0 0 0 0 0 0 0 0 0 16 0 0 687 0 0 0 0 0 0 0 0 0 0 467 0 0 0 0 0 0 0 0 0 0 0 1171 0 0 0 0 0 0 0 0 439 0 0 535 267 0 0 0 0 0 0 0 0 0 0 0 815 0 0 0 0 0 0 0 0 0 0 0 0 0 0 0 0 0 0 30 0 0 0 0 0 0 0 0 0 0 0 0 0 0 0 0 0 0 0 0 0 0 0 0 0 0 0 0 0 1888 0 0 0 0 537 0 0 0 0 0 0 0 0 0 0 0 0 0 0 0 36 0 
Printing Sanity2
Heartbeat CPU 0 instructions: 60000000 cycles: 28136978 heartbeat IPC: 0.74322 cumulative IPC: 0.74322 (Simulation time: 0 hr 4 min 19 sec) 
*** Reached end of trace for Core: 0 Repeating trace: traces/spec2k17/srv_40.champsimtrace.xz
Heartbeat CPU 0 instructions: 70000003 cycles: 44270102 heartbeat IPC: 0.619843 cumulative IPC: 0.675948 (Simulation time: 0 hr 5 min 16 sec) 
Heartbeat CPU 0 instructions: 80000001 cycles: 59229580 heartbeat IPC: 0.668472 cumulative IPC: 0.673437 (Simulation time: 0 hr 6 min 17 sec) 
Heartbeat CPU 0 instructions: 90000001 cycles: 72618785 heartbeat IPC: 0.74687 cumulative IPC: 0.690408 (Simulation time: 0 hr 7 min 14 sec) 
*** Reached end of trace for Core: 0 Repeating trace: traces/spec2k17/srv_40.champsimtrace.xz
Heartbeat CPU 0 instructions: 100000002 cycles: 88830079 heartbeat IPC: 0.616854 cumulative IPC: 0.674326 (Simulation time: 0 hr 8 min 11 sec) 
Heartbeat CPU 0 instructions: 110000000 cycles: 103601410 heartbeat IPC: 0.676987 cumulative IPC: 0.674768 (Simulation time: 0 hr 9 min 8 sec) 
Heartbeat CPU 0 instructions: 120000001 cycles: 117006965 heartbeat IPC: 0.74596 cumulative IPC: 0.684095 (Simulation time: 0 hr 10 min 7 sec) 
*** Reached end of trace for Core: 0 Repeating trace: traces/spec2k17/srv_40.champsimtrace.xz
Heartbeat CPU 0 instructions: 130000003 cycles: 133323485 heartbeat IPC: 0.612876 cumulative IPC: 0.6743 (Simulation time: 0 hr 11 min 8 sec) 
Heartbeat CPU 0 instructions: 140000003 cycles: 147998789 heartbeat IPC: 0.681417 cumulative IPC: 0.675084 (Simulation time: 0 hr 12 min 4 sec) 
Heartbeat CPU 0 instructions: 150000000 cycles: 161372000 heartbeat IPC: 0.747763 cumulative IPC: 0.68171 (Simulation time: 0 hr 13 min 4 sec) 
*** Reached end of trace for Core: 0 Repeating trace: traces/spec2k17/srv_40.champsimtrace.xz
Heartbeat CPU 0 instructions: 160000001 cycles: 177788389 heartbeat IPC: 0.609147 cumulative IPC: 0.674406 (Simulation time: 0 hr 14 min 2 sec) 
Heartbeat CPU 0 instructions: 170000000 cycles: 192355081 heartbeat IPC: 0.686498 cumulative IPC: 0.675398 (Simulation time: 0 hr 15 min 0 sec) 
Heartbeat CPU 0 instructions: 180000003 cycles: 205717414 heartbeat IPC: 0.748373 cumulative IPC: 0.680502 (Simulation time: 0 hr 16 min 2 sec) 
*** Reached end of trace for Core: 0 Repeating trace: traces/spec2k17/srv_40.champsimtrace.xz
Heartbeat CPU 0 instructions: 190000001 cycles: 222266752 heartbeat IPC: 0.604254 cumulative IPC: 0.674423 (Simulation time: 0 hr 17 min 3 sec) 
Heartbeat CPU 0 instructions: 200000002 cycles: 236711226 heartbeat IPC: 0.692306 cumulative IPC: 0.675587 (Simulation time: 0 hr 18 min 0 sec) 
Heartbeat CPU 0 instructions: 210000000 cycles: 250092803 heartbeat IPC: 0.747296 cumulative IPC: 0.679663 (Simulation time: 0 hr 19 min 1 sec) 
*** Reached end of trace for Core: 0 Repeating trace: traces/spec2k17/srv_40.champsimtrace.xz
Heartbeat CPU 0 instructions: 220000000 cycles: 266789561 heartbeat IPC: 0.598919 cumulative IPC: 0.674315 (Simulation time: 0 hr 20 min 3 sec) 
Heartbeat CPU 0 instructions: 230000000 cycles: 281051315 heartbeat IPC: 0.701176 cumulative IPC: 0.675754 (Simulation time: 0 hr 20 min 59 sec) 
Heartbeat CPU 0 instructions: 240000000 cycles: 294437923 heartbeat IPC: 0.747015 cumulative IPC: 0.679163 (Simulation time: 0 hr 21 min 58 sec) 
*** Reached end of trace for Core: 0 Repeating trace: traces/spec2k17/srv_40.champsimtrace.xz
Heartbeat CPU 0 instructions: 250000002 cycles: 310884302 heartbeat IPC: 0.608037 cumulative IPC: 0.675214 (Simulation time: 0 hr 22 min 56 sec) 
Finished CPU 0 instructions: 200000003 cycles: 296202291 cumulative IPC: 0.675214 (Simulation time: 0 hr 22 min 56 sec) 

ChampSim completed all CPUs

Region of Interest Statistics

CPU 0 cumulative IPC: 0.675214 instructions: 200000003 cycles: 296202291
ITLB TOTAL     ACCESS:   29081433  HIT:   28815942  MISS:     265491  HIT %:    99.0871  MISS %:   0.912923   MPKI: 1.32745
ITLB LOAD TRANSLATION ACCESS:   29081433  HIT:   28815942  MISS:     265491  HIT %:    99.0871  MISS %:   0.912923   MPKI: 1.32745
ITLB PREFETCH  REQUESTED:          0  ISSUED:          0  USEFUL:          0  USELESS:          0
ITLB USEFUL LOAD PREFETCHES:          0 PREFETCH ISSUED TO LOWER LEVEL:          0  ACCURACY: -nan
ITLB TIMELY PREFETCHES:          0 LATE PREFETCHES: 0 DROPPED PREFETCHES: 0
ITLB PREFETCHES SAME FILL-ORIGIN LEVEL: 0 DIFFERENT FILL-ORIGIN LEVEL: 0
ITLB AVERAGE MISS LATENCY: 11.5317 cycles
ITLB RQ	ACCESS:   37864353	FORWARD:          0	MERGED:    8688987	TO_CACHE:   29175366

DTLB TOTAL     ACCESS:   37232527  HIT:   36918008  MISS:     314519  HIT %:    99.1553  MISS %:   0.844743   MPKI: 1.57259
DTLB LOAD TRANSLATION ACCESS:   37232527  HIT:   36918008  MISS:     314519  HIT %:    99.1553  MISS %:   0.844743   MPKI: 1.57259
DTLB PREFETCH  REQUESTED:          0  ISSUED:          0  USEFUL:          0  USELESS:          0
DTLB USEFUL LOAD PREFETCHES:          0 PREFETCH ISSUED TO LOWER LEVEL:          0  ACCURACY: -nan
DTLB TIMELY PREFETCHES:          0 LATE PREFETCHES: 0 DROPPED PREFETCHES: 0
DTLB PREFETCHES SAME FILL-ORIGIN LEVEL: 0 DIFFERENT FILL-ORIGIN LEVEL: 0
DTLB AVERAGE MISS LATENCY: 20.5839 cycles
DTLB RQ	ACCESS:   55072275	FORWARD:          0	MERGED:   17730894	TO_CACHE:   37341381

STLB TOTAL     ACCESS:   16806985  HIT:   16758378  MISS:      48607  HIT %:    99.7108  MISS %:   0.289207   MPKI: 0.243035
STLB LOAD TRANSLATION ACCESS:     580010  HIT:     542060  MISS:      37950  HIT %:     93.457  MISS %:    6.54299   MPKI: 0.18975
STLB TRANSLATION FROM L1D PREFETCHER ACCESS:   16226975  HIT:   16216318  MISS:      10657  HIT %:    99.9343  MISS %:  0.0656746   MPKI: 0.053285
STLB PREFETCH  REQUESTED:          0  ISSUED:          0  USEFUL:      10595  USELESS:         62
STLB USEFUL LOAD PREFETCHES:      10595 PREFETCH ISSUED TO LOWER LEVEL:          0  ACCURACY: inf
STLB TIMELY PREFETCHES:      10595 LATE PREFETCHES: 52 DROPPED PREFETCHES: 270649
STLB PREFETCHES SAME FILL-ORIGIN LEVEL: 0 DIFFERENT FILL-ORIGIN LEVEL: 0
STLB AVERAGE MISS LATENCY: 3482.45 cycles
STLB RQ	ACCESS:   31461307	FORWARD:          0	MERGED:   14340011	TO_CACHE:   17121296

STLB Hit, L1D data hit: 0
STLB Hit, L2C data hit: 0
STLB Hit, LLC data hit: 0
STLB Hit, LLC data miss: 0
STLB STLB hints to L2: 0
L1D TOTAL     ACCESS:   82065865  HIT:   79177303  MISS:    2888562  HIT %:    96.4802  MISS %:    3.51981   MPKI: 14.4428
L1D LOAD      ACCESS:   43098299  HIT:   42198863  MISS:     899436  HIT %:    97.9131  MISS %:    2.08694   MPKI: 4.49718
L1D RFO       ACCESS:    8506710  HIT:    7398097  MISS:    1108613  HIT %:    86.9678  MISS %:    13.0322   MPKI: 5.54306
L1D PREFETCH  ACCESS:   30460856  HIT:   29580343  MISS:     880513  HIT %:    97.1094  MISS %:    2.89064   MPKI: 4.40256
AGUS PREFETCH L1 MISS: 0
L1D PREFETCH  REQUESTED:   62271071  ISSUED:   62249415  USEFUL:     505442  USELESS:     374903
L1D USEFUL LOAD PREFETCHES:     505442 PREFETCH ISSUED TO LOWER LEVEL:     884028  ACCURACY: 57.1749
L1D TIMELY PREFETCHES:     505442 LATE PREFETCHES: 3500 DROPPED PREFETCHES: 343033
L1D PREFETCHES SAME FILL-ORIGIN LEVEL: 884028 DIFFERENT FILL-ORIGIN LEVEL: 0
L1D AVERAGE MISS LATENCY: 98805.1 cycles
L1D RQ	ACCESS:   49890865	FORWARD:          0	MERGED:    6621726	TO_CACHE:   43150006
L1D WQ	ACCESS:   12021205	FORWARD:     119532	MERGED:      98936	TO_CACHE:   11922269
L1D PQ	ACCESS:   31368118	FORWARD:          0	MERGED:     486422	TO_CACHE:   30881297

L1D UNIQUE REGIONS ACCESSED: 0
L1D REGIONS CONFLICTS: 0
L1D Cross Page Prefetch Requests: 15031542
L1D Same Page Prefetch Requests: 16336576
L1D ROI Sum of L1D PQ occupancy: 509659787
L1D PREFETCHES PUSHED FROM L2C: 0
L1I TOTAL     ACCESS:   37522929  HIT:   36254507  MISS:    1268422  HIT %:    96.6196  MISS %:    3.38039   MPKI: 6.34211
L1I LOAD      ACCESS:   37522929  HIT:   36254507  MISS:    1268422  HIT %:    96.6196  MISS %:    3.38039   MPKI: 6.34211
L1I PREFETCH  REQUESTED:          0  ISSUED:          0  USEFUL:          0  USELESS:          0
L1I USEFUL LOAD PREFETCHES:          0 PREFETCH ISSUED TO LOWER LEVEL:          0  ACCURACY: -nan
L1I TIMELY PREFETCHES:          0 LATE PREFETCHES: 0 DROPPED PREFETCHES: 0
L1I PREFETCHES SAME FILL-ORIGIN LEVEL: 0 DIFFERENT FILL-ORIGIN LEVEL: 0
L1I AVERAGE MISS LATENCY: 27.7646 cycles
L1I RQ	ACCESS:   53248641	FORWARD:          0	MERGED:   15384288	TO_CACHE:   37864353

BTB TOTAL     ACCESS:   13141803  HIT:   12087753  MISS:    1054050  HIT %:    91.9794  MISS %:    8.02059   MPKI: 5.27025
BTB BRANCH_DIRECT_JUMP	ACCESS:    1417012  HIT:    1361700  MISS:      55312
BTB BRANCH_INDIRECT	ACCESS:    4725378  HIT:    4385115  MISS:     340263
BTB BRANCH_CONDITIONAL	ACCESS:    4838904  HIT:    4776129  MISS:      62775
BTB BRANCH_DIRECT_CALL	ACCESS:     958453  HIT:     856614  MISS:     101839
BTB BRANCH_INDIRECT_CALL	ACCESS:     121813  HIT:      97196  MISS:      24617
BTB BRANCH_RETURN	ACCESS:    1080243  HIT:     610999  MISS:     469244
BTB BRANCH_OTHER ACCESS:          0  HIT:          0  MISS:          0

L2C TOTAL     ACCESS:    5909339  HIT:    3930326  MISS:    1979013  HIT %:    66.5104  MISS %:    33.4896   MPKI: 9.89506
L2C LOAD      ACCESS:    2164325  HIT:    1733931  MISS:     430394  HIT %:    80.1142  MISS %:    19.8858   MPKI: 2.15197
L2C DATA LOAD MPKI: 0.84466
L2C INSTRUCTION LOAD MPKI: 1.30731
L2C RFO       ACCESS:    1108577  HIT:     143129  MISS:     965448  HIT %:    12.9111  MISS %:    87.0889   MPKI: 4.82724
L2C PREFETCH  ACCESS:     884020  HIT:     339968  MISS:     544052  HIT %:     38.457  MISS %:     61.543   MPKI: 2.72026
AGUS PREFETCH L1 MISS: 0
L2C DATA PREFETCH MPKI: 2.72026
L2C INSTRUCTION PREFETCH MPKI: 0
L2C WRITEBACK ACCESS:    1322790  HIT:    1308567  MISS:      14223  HIT %:    98.9248  MISS %:    1.07523   MPKI: 0.071115
L2C LOAD TRANSLATION ACCESS:      50120  HIT:      30101  MISS:      20019  HIT %:    60.0579  MISS %:    39.9421   MPKI: 0.100095
L2C TRANSLATION FROM L1D PREFETCHER ACCESS:     379507  HIT:     374630  MISS:       4877  HIT %:    98.7149  MISS %:    1.28509   MPKI: 0.024385
L2C PREFETCH  REQUESTED:          0  ISSUED:          0  USEFUL:      46332  USELESS:     501306
L2C USEFUL LOAD PREFETCHES:      46332 PREFETCH ISSUED TO LOWER LEVEL:     544052  ACCURACY: 8.5161
L2C TIMELY PREFETCHES:      46332 LATE PREFETCHES: 0 DROPPED PREFETCHES: 0
L2C PREFETCHES SAME FILL-ORIGIN LEVEL: 0 DIFFERENT FILL-ORIGIN LEVEL: 0
L2C AVERAGE MISS LATENCY: 289.026 cycles
L2C RQ	ACCESS:    3702583	FORWARD:          0	MERGED:          0	TO_CACHE:    3702529
L2C WQ	ACCESS:    1322790	FORWARD:         62	MERGED:          0	TO_CACHE:    1322790
L2C PQ	ACCESS:     884028	FORWARD:          0	MERGED:          0	TO_CACHE:     884020

L2C Instructions Evicting Data 148033
L2C Translations Evicting Data 17263
L2C Data Evicting Data 1519228
L2C Instructions Evicting Instructions 105891
L2C Translations Evicting Instructions 6991
L2C Data Evicting Instructions 143112
L2C Instructions Evicting Translations 7538
L2C Translations Evicting Translations 642
L2C Data Evicting Translations 16092
L2C Dense regions hint from L2: 0
PSCL5 TOTAL     ACCESS:     319256  HIT:     319256  MISS:          0  HIT %:        100  MISS %:          0   MPKI: 0
PSCL5 LOAD TRANSLATION ACCESS:      37898  HIT:      37898  MISS:          0  HIT %:        100  MISS %:          0   MPKI: 0
PSCL5 TRANSLATION FROM L1D PREFETCHER ACCESS:     281358  HIT:     281358  MISS:          0  HIT %:        100  MISS %:          0   MPKI: 0
PSCL5 PREFETCH  REQUESTED:          0  ISSUED:          0  USEFUL:          0  USELESS:          0
PSCL5 USEFUL LOAD PREFETCHES:          0 PREFETCH ISSUED TO LOWER LEVEL:          0  ACCURACY: -nan
PSCL5 TIMELY PREFETCHES:          0 LATE PREFETCHES: 0 DROPPED PREFETCHES: 0
PSCL5 PREFETCHES SAME FILL-ORIGIN LEVEL: 0 DIFFERENT FILL-ORIGIN LEVEL: 0

PSCL4 TOTAL     ACCESS:     316619  HIT:     316494  MISS:        125  HIT %:    99.9605  MISS %:  0.0394796   MPKI: 0.000625
PSCL4 LOAD TRANSLATION ACCESS:      37691  HIT:      37566  MISS:        125  HIT %:    99.6684  MISS %:   0.331644   MPKI: 0.000625
PSCL4 TRANSLATION FROM L1D PREFETCHER ACCESS:     278928  HIT:     278928  MISS:          0  HIT %:        100  MISS %:          0   MPKI: 0
PSCL4 PREFETCH  REQUESTED:          0  ISSUED:          0  USEFUL:          0  USELESS:          0
PSCL4 USEFUL LOAD PREFETCHES:          0 PREFETCH ISSUED TO LOWER LEVEL:          0  ACCURACY: -nan
PSCL4 TIMELY PREFETCHES:          0 LATE PREFETCHES: 0 DROPPED PREFETCHES: 0
PSCL4 PREFETCHES SAME FILL-ORIGIN LEVEL: 0 DIFFERENT FILL-ORIGIN LEVEL: 0

PSCL3 TOTAL     ACCESS:     277276  HIT:     273927  MISS:       3349  HIT %:    98.7922  MISS %:    1.20782   MPKI: 0.016745
PSCL3 LOAD TRANSLATION ACCESS:      33972  HIT:      30623  MISS:       3349  HIT %:    90.1419  MISS %:    9.85812   MPKI: 0.016745
PSCL3 TRANSLATION FROM L1D PREFETCHER ACCESS:     243304  HIT:     243304  MISS:          0  HIT %:        100  MISS %:          0   MPKI: 0
PSCL3 PREFETCH  REQUESTED:          0  ISSUED:          0  USEFUL:          0  USELESS:          0
PSCL3 USEFUL LOAD PREFETCHES:          0 PREFETCH ISSUED TO LOWER LEVEL:          0  ACCURACY: -nan
PSCL3 TIMELY PREFETCHES:          0 LATE PREFETCHES: 0 DROPPED PREFETCHES: 0
PSCL3 PREFETCHES SAME FILL-ORIGIN LEVEL: 0 DIFFERENT FILL-ORIGIN LEVEL: 0

PSCL2 TOTAL     ACCESS:     243206  HIT:     233991  MISS:       9215  HIT %:     96.211  MISS %:    3.78897   MPKI: 0.046075
PSCL2 LOAD TRANSLATION ACCESS:      38196  HIT:      28981  MISS:       9215  HIT %:    75.8744  MISS %:    24.1256   MPKI: 0.046075
PSCL2 TRANSLATION FROM L1D PREFETCHER ACCESS:     205010  HIT:     205010  MISS:          0  HIT %:        100  MISS %:          0   MPKI: 0
PSCL2 PREFETCH  REQUESTED:          0  ISSUED:          0  USEFUL:          0  USELESS:          0
PSCL2 USEFUL LOAD PREFETCHES:          0 PREFETCH ISSUED TO LOWER LEVEL:          0  ACCURACY: -nan
PSCL2 TIMELY PREFETCHES:          0 LATE PREFETCHES: 0 DROPPED PREFETCHES: 0
PSCL2 PREFETCHES SAME FILL-ORIGIN LEVEL: 0 DIFFERENT FILL-ORIGIN LEVEL: 0

LLC TOTAL     ACCESS:    3005717  HIT:    1373488  MISS:    1632229  HIT %:    45.6959  MISS %:    54.3041   MPKI: 8.16114
LLC LOAD      ACCESS:     430394  HIT:     276222  MISS:     154172  HIT %:    64.1789  MISS %:    35.8211   MPKI: 0.77086
LLC RFO       ACCESS:     965448  HIT:      20050  MISS:     945398  HIT %:    2.07676  MISS %:    97.9232   MPKI: 4.72699
LLC PREFETCH  ACCESS:     544051  HIT:      47458  MISS:     496593  HIT %:    8.72308  MISS %:    91.2769   MPKI: 2.48296
AGUS PREFETCH L1 MISS: 0
LLC WRITEBACK ACCESS:    1040928  HIT:    1019671  MISS:      21257  HIT %:    97.9579  MISS %:    2.04212   MPKI: 0.106285
LLC LOAD TRANSLATION ACCESS:      20019  HIT:       7861  MISS:      12158  HIT %:    39.2677  MISS %:    60.7323   MPKI: 0.06079
LLC TRANSLATION FROM L1D PREFETCHER ACCESS:       4877  HIT:       2226  MISS:       2651  HIT %:    45.6428  MISS %:    54.3572   MPKI: 0.013255
LLC PREFETCH  REQUESTED:          0  ISSUED:          0  USEFUL:       5828  USELESS:     487023
LLC USEFUL LOAD PREFETCHES:       5828 PREFETCH ISSUED TO LOWER LEVEL:     496593  ACCURACY: 1.1736
LLC TIMELY PREFETCHES:       5828 LATE PREFETCHES: 0 DROPPED PREFETCHES: 0
LLC PREFETCHES SAME FILL-ORIGIN LEVEL: 0 DIFFERENT FILL-ORIGIN LEVEL: 0
LLC AVERAGE MISS LATENCY: 314.32 cycles
LLC RQ	ACCESS:    1420738	FORWARD:          0	MERGED:          0	TO_CACHE:    1420738
LLC WQ	ACCESS:    1040928	FORWARD:          1	MERGED:          0	TO_CACHE:    1040928
LLC PQ	ACCESS:     544052	FORWARD:          0	MERGED:          0	TO_CACHE:     544051

LLC Dense regions hint to LLC: 0

RAW hits: 907609
Loads Generated: 50798474
Loads sent to L1D: 49890865
Stores Generated: 12021212
Stores sent to L1D: 12021205
Major fault: 0 Minor fault: 6461
Allocated PAGES: 6461
ucb ended
-----------------------------------------------------------------------------------------------------------------------------------------------------------------------------------------------------
Offsets elements: 17 -33 -16 69 10 -79 16 110 -35 -26 47 1465921638753 -1465921638806 -32 122 -40 -34 46 -29 -49 92 -124 88 57 -37 -52 -38 31 -10 -53 123 -24 -51 29 58 -90 124 1465921638699 -1465921638754 1465921638790 -1465921638715 1465921638751 -1465921638791 -17 -41 39 13 -84 85 -117 72 1465921638775 -1465921638730 -31 -46 120 38 15 -85 114 -47 -18 -1465921638738 23 -92 113 -65 21 -83 81 -113 71 -23 44 5 -81 116 -67 19 1465921638757 -1465921638727 -20 -61 119 -71 20 27 -39 4 126 -45 53 -27 -58 33 -94 1465921638779 -1465921638743 12 -77 112 -57 -1 -1465921638731 -50 90 -122 84 -36 -64 -19 -73 111 -63 24 -6 1465921638777 -1465921638736 18 -75 118 -44 55 93 89 -13 115 -99 1465921638809 -1465921638721 -56 121 -43 -30 50 -48 -91 80 -112 73 -25 48 43 1465921638825 -1465921638793 -87 -21 1465921638778 -1465921638741 -68 -54 42 -78 1465921638763 -1465921638749 9 117 -69 -14 -74 1465921638810 -1465921638722 36 -1465921638811 -1465921638826 77 -121 87 65 107 -55 52 -108 1465921638814 -1465921638734 -42 -111 1465921638811 76 -86 32 1465921638795 -96 -66 60 -28 -105 125 40 1465921638812 -1465921638728 -100 94 -62 86 1465921638780 -1465921638732 -82 -107 34 51 -80 28 -22 1465921638781 -1465921638813 -1465921638828 -114 45 -104 -101 1465921638813 -1465921638723 -106 62 -76 14 1465921638797 -109 -15 103 75 79 1465921638817 -1465921638725 67 -2 -95 -1465921638726 1465921638783 -1465921638815 -1465921638830 -8 35 11 -110 -93 -60 -9 1465921638815 -1465921638733 8 -115 -1465921638724 26 -88 91 1465921638799 -1465921638753 -97 -98 78 1465921638816 -12 -118 1465921638784 37 -1465921638735 -1465921638768 -1465921638755 -103 56 49 54 -1465921638752 25 -102 68 1465921638820 -72 30 41 -11 -70 1465921638818 -1465921638739 6 1465921638786 -59 1465921638787 -1465921638819 -1465921638834 61 1465921638819 -119 63 1465921638803 74 82 1465921638788 -1465921638740 -1465921638757 127 1465921638792 -1465921638810 -1465921638839 1 1465921638821 -116 1465921638805 -1465921638759 70 1465921638822 99 7 1465921638791 -1465921638823 -1465921638838 1465921638823 -1465921638760 -123 -1465921638737 1465921638808 59 1465921638827 101 1465921638824 -1465921638756 1465921638793 -1465921638825 -1465921638841 66 -1465921638744 22 -1465921638748 1465921638826 83 105 1465921638794 -89 -1465921638742 64 1465921638830 -1465921638746 -3 109 -1465921638745 1465921638828 -1465921638844 98 1465921638796 -1465921638829 1465921638829 -1465921638766 1465921638798 -1465921638751 -4 1465921638833 106 -1465921638846 1465921638831 -1465921638770 -125 -1465921638762 1465921638832 95 1465921638800 1465921638801 -1465921638833 -1465921638848 1465921638834 1465921638802 -1465921638750 -1465921638835 -1465921638850 1465921638835 1465921638836 1465921638804 -1465921638775 1465921638837 -126 -1465921638767 1465921638838 102 1465921638806 1465921638807 -1465921638855 1465921638839 -1465921638765 1465921638843 1465921638840 -1465921638856 1465921638841 1465921638842 104 -1465921638780 -1465921638843 -1465921638858 1465921638846 -1465921638772 -1465921638758 1465921638844 -1465921638845 -1465921638860 1465921638845 -1465921638761 -5 1465921638849 1465921638850 -1465921638776 1465921638847 -1465921638774 -1465921638764 -1465921638777 1465921638848 2 -1465921638849 -1465921638864 97 -120 -1465921638769 -1465921638779 -1465921638851 -1465921638866 1465921638851 -1465921638788 -1465921638790 1465921638852 -1465921638763 -1465921638853 -1465921638869 -7 -1465921638786 1465921638853 1465921638854 -1465921638870 1465921638855 -1465921638792 1465921638859 1465921638856 -1465921638771 -1465921638857 1465921638857 1465921638858 -1465921638859 -1465921638874 -1465921638797 1465921638862 1465921638860 -1465921638782 108 -1465921638781 -1465921638861 -1465921638876 1465921638861 -1465921638787 -1465921638783 -1465921638794 -1465921638784 -1465921638789 1465921638865 -1465921638875 1465921638863 -1465921638773 1465921638864 -1465921638865 -1465921638880 -1465921638796 -1465921638799 1465921638866 -1465921638778 -1465921638867 -1465921638882 1465921638867 1465921638868 -1465921638795 -1465921638884 1465921638872 1465921638873 -1465921638889 3 1465921638874 1465921638875 -1465921638891 1465921638876 100 1465921638877 -1465921638785 -1465921638878 -1465921638893 1465921638878 -1465921638814 -1465921638809 1465921638879 -1465921638798 1465921638880 -1465921638807 -1465921638800 -1465921638805 1465921638881 -1465921638897 -127 1465921638882 
Potential of Offsets elements: 986.579 92.5788 206.579 174.579 908.579 623.579 0.396583 247.579 1252.58 800.579 966.579 28.5788 28.5788 5605.58 225.579 869.579 943.579 1017.58 1306.58 1486.58 544.579 290.579 524.579 799.579 1472.58 1020.58 959.579 1326.58 979.579 1084.58 273.579 1068.58 1047.58 1090.58 981.579 570.579 388.579 28.5788 28.5788 28.5788 28.5788 28.5788 28.5788 1862.58 736.579 825.579 1640.58 457.579 806.579 281.579 845.579 28.5788 28.5788 1195.58 1204.58 245.579 750.579 1653.58 614.579 216.579 1071.58 1096.58 28.5788 720.579 426.579 207.579 1203.58 1105.58 597.579 745.579 238.579 798.579 901.579 887.579 195.579 73.5788 72.5788 950.579 1041.58 28.5788 28.5788 959.579 1011.58 270.579 1053.58 860.579 805.579 789.579 995.579 52.5788 940.579 863.579 1094.58 709.579 1370.58 363.579 28.5788 28.5788 763.579 595.579 189.579 842.579 1881.58 28.5788 1066.58 333.579 193.579 706.579 939.579 808.579 411.579 64.5788 29.5788 245.579 940.579 927.579 28.5788 28.5788 1014.58 932.579 135.579 940.579 828.579 624.579 777.579 1528.58 201.579 551.579 28.5788 28.5788 741.579 112.579 1043.58 1051.58 1237.58 3391.58 768.579 1275.58 284.579 881.579 778.579 3454.58 1420.58 28.5788 28.5788 599.579 935.579 28.5788 28.5788 225.579 330.579 965.579 1023.58 28.5788 28.5788 991.579 198.579 889.579 1191.58 985.579 28.5788 28.5788 921.579 28.5788 28.5788 625.579 341.579 896.579 839.579 368.579 1066.58 994.579 354.579 28.5788 28.5788 753.579 198.579 28.5788 1140.58 999.579 5836.1 28.5788 388.579 1109.58 234.579 82.5788 155.579 103.579 792.579 28.5788 28.5788 385.579 507.579 767.579 516.579 28.5788 28.5788 816.579 661.579 1087.58 877.579 889.579 752.579 730.579 28.5788 28.5788 28.5788 378.579 1145.58 407.579 393.579 28.5788 28.5788 354.579 709.579 768.579 1121.58 28.5788 274.579 741.579 337.579 685.579 234.579 28.5788 28.5788 664.579 1192.58 395.579 28.5788 28.5788 28.5788 28.5788 1076.58 963.579 923.579 161.579 530.579 558.579 945.579 28.5788 28.5788 903.579 232.579 28.5788 1173.58 739.579 608.579 28.5788 28.5788 320.579 637.579 815.579 28.5788 832.579 281.579 28.5788 1174.58 28.5788 28.5788 28.5788 474.579 1088.58 1353.58 1128.58 28.5788 1132.58 356.579 898.579 28.5788 912.579 889.579 692.579 1119.58 750.579 28.5788 28.5788 942.579 28.5788 927.579 28.5788 28.5788 28.5788 1071.58 28.5788 240.579 865.579 28.5788 726.579 727.579 28.5788 28.5788 28.5788 211.579 28.5788 28.5788 28.5788 655.579 28.5788 168.579 28.5788 28.5788 1073.58 28.5788 427.579 1119.58 28.5788 28.5788 28.5788 28.5788 28.5788 248.579 28.5788 28.5788 810.579 28.5788 455.579 28.5788 28.5788 28.5788 28.5788 28.5788 889.579 28.5788 969.579 28.5788 28.5788 951.579 373.579 28.5788 630.579 28.5788 48.5788 28.5788 28.5788 1476.58 268.579 28.5788 28.5788 28.5788 493.579 28.5788 28.5788 28.5788 28.5788 28.5788 28.5788 909.579 28.5788 542.579 28.5788 28.5788 28.5788 51.5788 28.5788 28.5788 641.579 28.5788 28.5788 28.5788 28.5788 28.5788 28.5788 28.5788 28.5788 28.5788 28.5788 28.5788 28.5788 28.5788 28.5788 44.5788 28.5788 28.5788 715.579 28.5788 28.5788 28.5788 28.5788 28.5788 28.5788 28.5788 28.5788 28.5788 28.5788 495.579 28.5788 28.5788 28.5788 28.5788 28.5788 28.5788 28.5788 28.5788 28.5788 28.5788 28.5788 1199.58 28.5788 28.5788 28.5788 28.5788 28.5788 28.5788 28.5788 28.5788 467.579 28.5788 28.5788 563.579 295.579 28.5788 28.5788 28.5788 28.5788 28.5788 28.5788 28.5788 28.5788 28.5788 28.5788 28.5788 843.579 28.5788 28.5788 28.5788 28.5788 28.5788 28.5788 28.5788 28.5788 28.5788 28.5788 28.5788 28.5788 28.5788 28.5788 28.5788 28.5788 28.5788 28.5788 58.5788 28.5788 28.5788 28.5788 28.5788 28.5788 28.5788 28.5788 28.5788 28.5788 28.5788 28.5788 28.5788 28.5788 28.5788 28.5788 28.5788 28.5788 28.5788 28.5788 28.5788 28.5788 28.5788 28.5788 28.5788 28.5788 28.5788 28.5788 28.5788 28.5788 1916.58 28.5788 28.5788 28.5788 28.5788 565.579 28.5788 28.5788 28.5788 28.5788 28.5788 28.5788 28.5788 28.5788 28.5788 28.5788 28.5788 28.5788 28.5788 28.5788 28.5788 64.5788 28.5788 
rewards of Offsets elements: 958 64 178 146 880 595 0 219 1224 772 938 0 0 5577 197 841 915 989 1278 1458 516 262 496 771 1444 992 931 1298 951 1056 245 1040 1019 1062 953 542 360 0 0 0 0 0 0 1834 708 797 1612 429 778 253 817 0 0 1167 1176 217 722 1625 586 188 1043 1068 0 692 398 179 1175 1077 569 717 210 770 873 859 167 45 44 922 1013 0 0 931 983 242 1025 832 777 761 967 24 912 835 1066 681 1342 335 0 0 735 567 161 814 1853 0 1038 305 165 678 911 780 383 36 1 217 912 899 0 0 986 904 107 912 800 596 749 1500 173 523 0 0 713 84 1015 1023 1209 3363 740 1247 256 853 750 3426 1392 0 0 571 907 0 0 197 302 937 995 0 0 963 170 861 1163 957 0 0 893 0 0 597 313 868 811 340 1038 966 326 0 0 725 170 0 1112 971 5836 0 360 1081 206 54 127 75 764 0 0 357 479 739 488 0 0 788 633 1059 849 861 724 702 0 0 0 350 1117 379 365 0 0 326 681 740 1093 0 246 713 309 657 206 0 0 636 1164 367 0 0 0 0 1048 935 895 133 502 530 917 0 0 875 204 0 1145 711 580 0 0 292 609 787 0 804 253 0 1146 0 0 0 446 1060 1325 1100 0 1104 328 870 0 884 861 664 1091 722 0 0 914 0 899 0 0 0 1043 0 212 837 0 698 699 0 0 0 183 0 0 0 627 0 140 0 0 1045 0 399 1091 0 0 0 0 0 220 0 0 782 0 427 0 0 0 0 0 861 0 941 0 0 923 345 0 602 0 20 0 0 1448 240 0 0 0 465 0 0 0 0 0 0 881 0 514 0 0 0 23 0 0 613 0 0 0 0 0 0 0 0 0 0 0 0 0 0 16 0 0 687 0 0 0 0 0 0 0 0 0 0 467 0 0 0 0 0 0 0 0 0 0 0 1171 0 0 0 0 0 0 0 0 439 0 0 535 267 0 0 0 0 0 0 0 0 0 0 0 815 0 0 0 0 0 0 0 0 0 0 0 0 0 0 0 0 0 0 30 0 0 0 0 0 0 0 0 0 0 0 0 0 0 0 0 0 0 0 0 0 0 0 0 0 0 0 0 0 1888 0 0 0 0 537 0 0 0 0 0 0 0 0 0 0 0 0 0 0 0 36 0 Printing Sanity3
offset_index value493
offset list size493
reward size493
potential size493
-----------------------------------------------------------------------------------------------------------------------------------------------------------------------------------------------------

DRAM Statistics
 CHANNEL 0
 RQ ROW_BUFFER_HIT:     785624  ROW_BUFFER_MISS:     825347
 DBUS_CONGESTED:        522
 WQ ROW_BUFFER_HIT:     255471  ROW_BUFFER_MISS:     753526  FULL:          0

 AVG_CONGESTED_CYCLE: 3
 All warmup complete: 2
Channel 0 Bank busy for read cycles: 0
Channel 0 Bank busy for write cycles: 0
Channel 0
Rank 0
0banks busy for read cycles: 218563015
0banks busy for write cycles: 51716
1banks busy for read cycles: 19648476
1banks busy for write cycles: 7729497
2banks busy for read cycles: 4868763
2banks busy for write cycles: 3314747
3banks busy for read cycles: 1392502
3banks busy for write cycles: 1927937
4banks busy for read cycles: 757183
4banks busy for write cycles: 1317657
5banks busy for read cycles: 895867
5banks busy for write cycles: 971200
6banks busy for read cycles: 1562006
6banks busy for write cycles: 840237
7banks busy for read cycles: 2646232
7banks busy for write cycles: 1664043
8banks busy for read cycles: 12405074
8banks busy for write cycles: 15646140

CPU 0 Branch Prediction Accuracy: 99.6381% MPKI: 0.27243 Average ROB Occupancy at Mispredict: 47.1581
Branch types
NOT_BRANCH: 184943706 92.4719%
BRANCH_DIRECT_JUMP: 1417012 0.708506%
BRANCH_INDIRECT: 4725378 2.36269%
BRANCH_CONDITIONAL: 6753214 3.37661%
BRANCH_DIRECT_CALL: 958453 0.479226%
BRANCH_INDIRECT_CALL: 121813 0.0609065%
BRANCH_RETURN: 1080243 0.540121%
BRANCH_OTHER: 0 0%

DRAM PAGES: 1048576
Allocated PAGES: 6461
