
*** ChampSim Multicore Out-of-Order Simulator ***

Warmup Instructions: 50000000
Simulation Instructions: 200000000
Number of CPUs: 1
LLC sets: 2048
LLC ways: 16
Off-chip DRAM Size: 4096 MB Channels: 1 Width: 64-bit Data Rate: 6400 MT/s
CPU 0 runs traces/spec2k17/client_003.champsimtrace.xz
.xz
BTB has LRU replacement policy
ITLB has LRU replacement policy
DTLB has LRU replacement policy
STLB has LRU replacement policy
L1I has LRU replacement policy
CPU 0 l1d next line prefetcher
L1D has LRU replacement policy
Initialize SRRIP state for L2C
Initialize DRRIP state for LLC
Offsets elements: 
Potential of Offsets elements: 
rewards of Offsets elements: 
Printing Sanity1
offset list size1376
Heartbeat CPU 0 instructions: 10000002 cycles: 2756828 heartbeat IPC: 3.62736 cumulative IPC: 3.62736 (Simulation time: 0 hr 0 min 42 sec) 
Heartbeat CPU 0 instructions: 20000001 cycles: 5530030 heartbeat IPC: 3.60594 cumulative IPC: 3.61662 (Simulation time: 0 hr 1 min 20 sec) 
Heartbeat CPU 0 instructions: 30000003 cycles: 8283954 heartbeat IPC: 3.63118 cumulative IPC: 3.62146 (Simulation time: 0 hr 2 min 0 sec) 
Heartbeat CPU 0 instructions: 40000003 cycles: 11040231 heartbeat IPC: 3.62808 cumulative IPC: 3.62311 (Simulation time: 0 hr 2 min 43 sec) 
Heartbeat CPU 0 instructions: 50000000 cycles: 13809577 heartbeat IPC: 3.61096 cumulative IPC: 3.62068 (Simulation time: 0 hr 3 min 21 sec) 

Warmup complete CPU 0 instructions: 50000004 cycles: 13809578 (Simulation time: 0 hr 3 min 21 sec) 

Heartbeat CPU 0 instructions: 60000001 cycles: 29532606 heartbeat IPC: 0.63601 cumulative IPC: 0.63601 (Simulation time: 0 hr 4 min 9 sec) 
Heartbeat CPU 0 instructions: 70000002 cycles: 44944627 heartbeat IPC: 0.648844 cumulative IPC: 0.642363 (Simulation time: 0 hr 4 min 57 sec) 
Heartbeat CPU 0 instructions: 80000002 cycles: 60911612 heartbeat IPC: 0.626292 cumulative IPC: 0.636915 (Simulation time: 0 hr 5 min 46 sec) 
Heartbeat CPU 0 instructions: 90000002 cycles: 79185559 heartbeat IPC: 0.547227 cumulative IPC: 0.611845 (Simulation time: 0 hr 6 min 38 sec) 
Heartbeat CPU 0 instructions: 100000000 cycles: 90020653 heartbeat IPC: 0.922927 cumulative IPC: 0.656073 (Simulation time: 0 hr 7 min 16 sec) 
*** Reached end of trace for Core: 0 Repeating trace: traces/spec2k17/client_003.champsimtrace.xz
Heartbeat CPU 0 instructions: 110000000 cycles: 105933817 heartbeat IPC: 0.628411 cumulative IPC: 0.651294 (Simulation time: 0 hr 8 min 2 sec) 
Heartbeat CPU 0 instructions: 120000002 cycles: 128297993 heartbeat IPC: 0.447144 cumulative IPC: 0.611416 (Simulation time: 0 hr 8 min 54 sec) 
Heartbeat CPU 0 instructions: 130000001 cycles: 144078693 heartbeat IPC: 0.633685 cumulative IPC: 0.614113 (Simulation time: 0 hr 9 min 42 sec) 
Heartbeat CPU 0 instructions: 140000001 cycles: 159969000 heartbeat IPC: 0.629314 cumulative IPC: 0.615766 (Simulation time: 0 hr 10 min 30 sec) 
Heartbeat CPU 0 instructions: 150000000 cycles: 175060032 heartbeat IPC: 0.662645 cumulative IPC: 0.620153 (Simulation time: 0 hr 11 min 18 sec) 
Heartbeat CPU 0 instructions: 160000001 cycles: 190474307 heartbeat IPC: 0.648749 cumulative IPC: 0.622648 (Simulation time: 0 hr 12 min 4 sec) 
Heartbeat CPU 0 instructions: 170000002 cycles: 205324979 heartbeat IPC: 0.67337 cumulative IPC: 0.626581 (Simulation time: 0 hr 12 min 51 sec) 
Heartbeat CPU 0 instructions: 180000003 cycles: 220814352 heartbeat IPC: 0.645604 cumulative IPC: 0.628005 (Simulation time: 0 hr 13 min 40 sec) 
Heartbeat CPU 0 instructions: 190000002 cycles: 240099453 heartbeat IPC: 0.518535 cumulative IPC: 0.618675 (Simulation time: 0 hr 14 min 26 sec) 
Heartbeat CPU 0 instructions: 200000002 cycles: 250630269 heartbeat IPC: 0.949594 cumulative IPC: 0.633391 (Simulation time: 0 hr 15 min 5 sec) 
Offsets elements: 
Potential of Offsets elements: 
rewards of Offsets elements: 0 0 0 0 0 0 0 0 217 178 184 0 0 0 0 34 30 0 0 0 0 0 0 0 0 0 0 91 2 0 0 0 0 0 0 37 0 0 0 40 0 14 7 0 4 9 6 0 0 3 41 0 0 0 0 0 0 0 91 49 0 0 0 0 0 0 0 0 99 38 34 35 185 0 0 0 0 0 0 0 0 0 0 0 0 0 1 0 5 6 0 0 2 0 0 0 0 0 0 0 0 0 0 0 0 3 0 0 0 0 0 0 8 4 0 0 0 0 8 0 0 0 38 81 95 0 0 3 0 0 7 0 0 46 43 0 0 72 0 45 36 0 0 0 4 5 0 0 0 5 2 0 0 0 0 0 0 0 0 0 0 54 0 0 0 0 0 0 0 0 110 136 0 0 0 0 60 0 0 0 0 0 0 0 0 0 0 81 0 0 0 0 0 0 0 0 0 0 0 2 0 0 64 0 0 0 0 0 68 38 0 5 35 0 0 139 0 6 2 0 0 125 0 0 0 0 0 65 0 0 0 76 34 0 0 0 130 0 0 0 0 0 0 0 0 81 0 74 0 0 0 0 0 0 0 0 0 0 0 0 0 0 0 315 0 0 0 0 0 94 0 0 0 0 0 0 0 0 0 0 0 0 0 0 0 82 0 0 38 0 0 0 5 0 113 0 0 0 3 2 0 0 0 2 0 0 0 15 0 0 0 0 0 0 57 0 0 0 0 17 31 0 51 26 25 0 18 0 0 5 0 0 4 12 0 0 4 4 0 0 44 0 42 0 0 127 0 27 0 0 0 0 0 0 0 1 0 0 0 0 42 0 0 0 0 0 0 0 95 0 0 0 82 0 0 0 0 0 0 0 0 0 0 0 0 0 0 0 0 0 0 0 0 0 0 0 0 107 0 0 0 0 0 0 5 0 0 0 0 0 0 0 0 17 5 0 0 0 0 0 0 0 0 0 4 0 0 0 0 0 0 6 0 0 0 3 0 0 6 0 0 0 0 0 1 0 0 0 0 0 0 0 0 0 0 0 0 0 0 0 0 0 0 0 0 1 0 0 0 583 0 0 0 0 0 0 0 0 0 0 0 0 0 0 126 0 0 167 0 0 0 223 0 0 0 0 0 671 0 0 0 0 0 0 0 0 0 0 0 329 0 0 0 0 0 0 0 0 0 0 0 0 0 0 0 0 0 0 0 0 0 0 0 0 0 0 0 0 0 0 1629 0 0 0 0 0 0 0 0 0 0 0 0 0 0 0 0 0 0 0 0 0 0 0 0 0 0 697 0 0 0 309 0 0 0 77 0 0 0 0 0 0 0 0 0 147 458 403 348 0 0 0 0 0 0 0 0 0 0 0 0 0 0 0 0 0 0 0 0 0 0 0 0 0 0 0 0 0 0 0 0 0 0 0 0 0 0 0 0 786 0 0 0 0 0 0 681 0 0 1870 0 0 0 0 3634 0 0 0 0 0 0 0 0 0 0 0 0 0 0 0 0 0 0 1929 0 0 0 0 0 0 0 0 0 0 0 0 0 0 0 0 0 0 0 0 14 0 0 0 0 0 23 0 0 4 0 0 7 0 0 0 0 0 0 0 0 0 0 133 0 0 0 0 0 0 0 0 0 0 0 0 0 34 37 0 0 0 0 0 0 0 0 0 0 1 0 0 0 0 0 0 4 0 0 0 0 0 0 0 0 0 0 0 0 2 0 0 0 0 0 1 0 0 28 28 0 1 0 0 0 2 0 0 0 0 0 0 0 0 0 0 44 0 0 0 2 0 28 101 0 52 0 0 2 0 8 7 0 0 0 11 20 4 2 0 0 0 0 0 23 0 0 0 0 0 0 0 0 0 0 0 0 0 0 89 0 0 0 0 42 17 14 0 0 0 0 0 3 1 1 1 12 0 0 47 8 5 0 0 0 0 0 0 0 0 19 18 0 12 0 0 0 0 0 0 3 6 3 0 0 0 0 0 0 38 0 16 0 0 11 0 0 0 25 0 2 20 15 1 0 0 2 0 11 0 0 0 0 0 33 32 0 6 0 79 0 0 0 0 0 0 0 0 0 1 3 0 0 3 0 0 0 0 0 0 0 0 0 0 0 0 0 21 2 0 0 0 0 0 21 0 0 0 0 0 15 2 0 0 0 0 0 0 5 0 0 0 0 0 0 0 0 3 0 0 51 0 0 0 18 0 0 0 0 0 0 0 0 0 0 0 0 0 0 0 0 0 0 0 0 3 0 0 0 0 0 22 0 0 0 0 0 0 0 0 0 0 0 0 0 0 0 0 0 0 14 0 0 0 0 0 4 0 0 0 0 0 9 0 0 0 56 0 0 0 0 0 0 0 0 0 0 1 6 7 0 0 11 0 0 21 35 0 2 0 4 0 0 0 55 0 0 0 0 0 0 0 34 0 0 0 2 0 0 13 0 11 0 0 0 0 96 0 0 0 44 53 0 0 0 0 0 0 0 0 0 0 0 1 0 0 4 0 0 0 0 0 0 0 0 13 4 1 12 0 0 0 0 0 0 0 0 0 0 0 0 0 0 19 0 10 0 0 0 0 0 0 0 15 6 0 5 0 0 2 6 0 0 0 21 0 0 0 0 69 0 0 0 488 0 507 0 0 0 0 0 552 0 0 0 0 0 0 0 0 0 0 0 0 548 249 0 0 361 0 0 0 337 530 0 0 0 0 0 477 0 0 0 0 3 0 260 0 0 0 0 0 0 0 0 0 0 0 0 0 0 0 0 0 0 0 0 61 0 0 0 0 0 0 0 0 0 0 0 0 0 0 0 0 0 0 0 0 0 0 0 180 0 0 0 0 0 0 0 0 0 0 0 0 0 0 0 0 0 0 0 0 0 0 0 333 0 0 0 0 0 0 0 0 0 0 0 0 0 542 0 0 0 0 0 0 161 0 0 0 0 0 0 0 0 0 0 249 0 0 0 0 0 0 0 0 0 0 0 0 0 0 0 0 0 0 0 0 0 0 0 1564 0 0 0 0 0 0 0 0 0 0 2673 0 0 0 0 0 573 0 0 0 0 0 0 0 0 0 0 0 0 0 0 0 0 0 0 0 0 0 0 0 0 0 0 0 0 0 0 0 0 0 
Printing Sanity2
*** Reached end of trace for Core: 0 Repeating trace: traces/spec2k17/client_003.champsimtrace.xz
Heartbeat CPU 0 instructions: 210000000 cycles: 266041156 heartbeat IPC: 0.648892 cumulative IPC: 0.634338 (Simulation time: 0 hr 15 min 56 sec) 
Heartbeat CPU 0 instructions: 220000000 cycles: 285738506 heartbeat IPC: 0.507683 cumulative IPC: 0.625163 (Simulation time: 0 hr 16 min 44 sec) 
Heartbeat CPU 0 instructions: 230000000 cycles: 305170184 heartbeat IPC: 0.514624 cumulative IPC: 0.617791 (Simulation time: 0 hr 17 min 34 sec) 
Heartbeat CPU 0 instructions: 240000003 cycles: 320848508 heartbeat IPC: 0.637823 cumulative IPC: 0.618814 (Simulation time: 0 hr 18 min 23 sec) 
Heartbeat CPU 0 instructions: 250000003 cycles: 336105457 heartbeat IPC: 0.655439 cumulative IPC: 0.620548 (Simulation time: 0 hr 19 min 15 sec) 
Finished CPU 0 instructions: 200000003 cycles: 322295880 cumulative IPC: 0.620548 (Simulation time: 0 hr 19 min 15 sec) 

ChampSim completed all CPUs

Region of Interest Statistics

CPU 0 cumulative IPC: 0.620548 instructions: 200000003 cycles: 322295880
ITLB TOTAL     ACCESS:   33371537  HIT:   33041386  MISS:     330151  HIT %:    99.0107  MISS %:   0.989319   MPKI: 1.65075
ITLB LOAD TRANSLATION ACCESS:   33371537  HIT:   33041386  MISS:     330151  HIT %:    99.0107  MISS %:   0.989319   MPKI: 1.65075
ITLB PREFETCH  REQUESTED:          0  ISSUED:          0  USEFUL:          0  USELESS:          0
ITLB USEFUL LOAD PREFETCHES:          0 PREFETCH ISSUED TO LOWER LEVEL:          0  ACCURACY: -nan
ITLB TIMELY PREFETCHES:          0 LATE PREFETCHES: 0 DROPPED PREFETCHES: 0
ITLB PREFETCHES SAME FILL-ORIGIN LEVEL: 0 DIFFERENT FILL-ORIGIN LEVEL: 0
ITLB AVERAGE MISS LATENCY: 9.95456 cycles
ITLB RQ	ACCESS:   38119235	FORWARD:          0	MERGED:    4652036	TO_CACHE:   33467199

DTLB TOTAL     ACCESS:   38266907  HIT:   37827886  MISS:     439021  HIT %:    98.8527  MISS %:    1.14726   MPKI: 2.1951
DTLB LOAD TRANSLATION ACCESS:   38266907  HIT:   37827886  MISS:     439021  HIT %:    98.8527  MISS %:    1.14726   MPKI: 2.1951
DTLB PREFETCH  REQUESTED:          0  ISSUED:          0  USEFUL:          0  USELESS:          0
DTLB USEFUL LOAD PREFETCHES:          0 PREFETCH ISSUED TO LOWER LEVEL:          0  ACCURACY: -nan
DTLB TIMELY PREFETCHES:          0 LATE PREFETCHES: 0 DROPPED PREFETCHES: 0
DTLB PREFETCHES SAME FILL-ORIGIN LEVEL: 0 DIFFERENT FILL-ORIGIN LEVEL: 0
DTLB AVERAGE MISS LATENCY: 11.1524 cycles
DTLB RQ	ACCESS:   53349570	FORWARD:          0	MERGED:   15024963	TO_CACHE:   38324607

STLB TOTAL     ACCESS:    1407028  HIT:    1392430  MISS:      14598  HIT %:    98.9625  MISS %:    1.03751   MPKI: 0.07299
STLB LOAD TRANSLATION ACCESS:     769172  HIT:     755774  MISS:      13398  HIT %:    98.2581  MISS %:    1.74187   MPKI: 0.06699
STLB TRANSLATION FROM L1D PREFETCHER ACCESS:     637856  HIT:     636656  MISS:       1200  HIT %:    99.8119  MISS %:    0.18813   MPKI: 0.006
STLB PREFETCH  REQUESTED:          0  ISSUED:          0  USEFUL:       1165  USELESS:         32
STLB USEFUL LOAD PREFETCHES:       1165 PREFETCH ISSUED TO LOWER LEVEL:          0  ACCURACY: inf
STLB TIMELY PREFETCHES:       1165 LATE PREFETCHES: 15 DROPPED PREFETCHES: 1464
STLB PREFETCHES SAME FILL-ORIGIN LEVEL: 0 DIFFERENT FILL-ORIGIN LEVEL: 0
STLB AVERAGE MISS LATENCY: 90.751 cycles
STLB RQ	ACCESS:    1445796	FORWARD:          0	MERGED:      37053	TO_CACHE:    1408743

STLB Hit, L1D data hit: 0
STLB Hit, L2C data hit: 0
STLB Hit, LLC data hit: 0
STLB Hit, LLC data miss: 0
STLB STLB hints to L2: 0
L1D TOTAL     ACCESS:   51359488  HIT:   49656632  MISS:    1702856  HIT %:    96.6844  MISS %:    3.31556   MPKI: 8.51428
L1D LOAD      ACCESS:   25941858  HIT:   25432698  MISS:     509160  HIT %:    98.0373  MISS %:     1.9627   MPKI: 2.5458
L1D RFO       ACCESS:   24921855  HIT:   24152915  MISS:     768940  HIT %:    96.9146  MISS %:     3.0854   MPKI: 3.8447
L1D PREFETCH  ACCESS:     495775  HIT:      71019  MISS:     424756  HIT %:    14.3248  MISS %:    85.6752   MPKI: 2.12378
AGUS PREFETCH L1 MISS: 0
L1D PREFETCH  REQUESTED:    1379627  ISSUED:    1379627  USEFUL:     144664  USELESS:     280124
L1D USEFUL LOAD PREFETCHES:     144664 PREFETCH ISSUED TO LOWER LEVEL:     441987  ACCURACY: 32.7304
L1D TIMELY PREFETCHES:     144664 LATE PREFETCHES: 16330 DROPPED PREFETCHES: 1630
L1D PREFETCHES SAME FILL-ORIGIN LEVEL: 441987 DIFFERENT FILL-ORIGIN LEVEL: 0
L1D AVERAGE MISS LATENCY: 1.64215e+06 cycles
L1D RQ	ACCESS:   42852991	FORWARD:          0	MERGED:   16129195	TO_CACHE:   26136317
L1D WQ	ACCESS:   28298364	FORWARD:     587547	MERGED:    1085111	TO_CACHE:   27213253
L1D PQ	ACCESS:     703003	FORWARD:          0	MERGED:      26311	TO_CACHE:     676624

L1D UNIQUE REGIONS ACCESSED: 0
L1D REGIONS CONFLICTS: 0
L1D Cross Page Prefetch Requests: 91063
L1D Same Page Prefetch Requests: 739752
L1D ROI Sum of L1D PQ occupancy: 8937207
L1D PREFETCHES PUSHED FROM L2C: 0
L1I TOTAL     ACCESS:   37648902  HIT:   35723178  MISS:    1925724  HIT %:     94.885  MISS %:    5.11495   MPKI: 9.62862
L1I LOAD      ACCESS:   37648902  HIT:   35723178  MISS:    1925724  HIT %:     94.885  MISS %:    5.11495   MPKI: 9.62862
L1I PREFETCH  REQUESTED:          0  ISSUED:          0  USEFUL:          0  USELESS:          0
L1I USEFUL LOAD PREFETCHES:          0 PREFETCH ISSUED TO LOWER LEVEL:          0  ACCURACY: -nan
L1I TIMELY PREFETCHES:          0 LATE PREFETCHES: 0 DROPPED PREFETCHES: 0
L1I PREFETCHES SAME FILL-ORIGIN LEVEL: 0 DIFFERENT FILL-ORIGIN LEVEL: 0
L1I AVERAGE MISS LATENCY: 23.4876 cycles
L1I RQ	ACCESS:   61231913	FORWARD:          0	MERGED:   23112678	TO_CACHE:   38119235

BTB TOTAL     ACCESS:   31972614  HIT:   29330635  MISS:    2641979  HIT %:    91.7367  MISS %:    8.26326   MPKI: 13.2099
BTB BRANCH_DIRECT_JUMP	ACCESS:    1668735  HIT:    1599656  MISS:      69079
BTB BRANCH_INDIRECT	ACCESS:   12964868  HIT:   12148649  MISS:     816219
BTB BRANCH_CONDITIONAL	ACCESS:    9737535  HIT:    9606089  MISS:     131446
BTB BRANCH_DIRECT_CALL	ACCESS:    3293738  HIT:    3140897  MISS:     152841
BTB BRANCH_INDIRECT_CALL	ACCESS:     505068  HIT:     384959  MISS:     120109
BTB BRANCH_RETURN	ACCESS:    3802670  HIT:    2450385  MISS:    1352285
BTB BRANCH_OTHER ACCESS:          0  HIT:          0  MISS:          0

L2C TOTAL     ACCESS:    4545939  HIT:    3204581  MISS:    1341358  HIT %:    70.4933  MISS %:    29.5067   MPKI: 6.70679
L2C LOAD      ACCESS:    2418541  HIT:    1963301  MISS:     455240  HIT %:    81.1771  MISS %:    18.8229   MPKI: 2.2762
L2C DATA LOAD MPKI: 1.02713
L2C INSTRUCTION LOAD MPKI: 1.24906
L2C RFO       ACCESS:     768026  HIT:     138611  MISS:     629415  HIT %:    18.0477  MISS %:    81.9523   MPKI: 3.14707
L2C PREFETCH  ACCESS:     441987  HIT:     215527  MISS:     226460  HIT %:    48.7632  MISS %:    51.2368   MPKI: 1.1323
AGUS PREFETCH L1 MISS: 0
L2C DATA PREFETCH MPKI: 1.1323
L2C INSTRUCTION PREFETCH MPKI: 0
L2C WRITEBACK ACCESS:     900744  HIT:     876514  MISS:      24230  HIT %:      97.31  MISS %:       2.69   MPKI: 0.12115
L2C LOAD TRANSLATION ACCESS:      13816  HIT:       8484  MISS:       5332  HIT %:    61.4071  MISS %:    38.5929   MPKI: 0.02666
L2C TRANSLATION FROM L1D PREFETCHER ACCESS:       2825  HIT:       2144  MISS:        681  HIT %:    75.8938  MISS %:    24.1062   MPKI: 0.003405
L2C PREFETCH  REQUESTED:          0  ISSUED:          0  USEFUL:      19561  USELESS:     207584
L2C USEFUL LOAD PREFETCHES:      19561 PREFETCH ISSUED TO LOWER LEVEL:     226460  ACCURACY: 8.63773
L2C TIMELY PREFETCHES:      19561 LATE PREFETCHES: 0 DROPPED PREFETCHES: 0
L2C PREFETCHES SAME FILL-ORIGIN LEVEL: 0 DIFFERENT FILL-ORIGIN LEVEL: 0
L2C AVERAGE MISS LATENCY: 118.799 cycles
L2C RQ	ACCESS:    3203233	FORWARD:          0	MERGED:          0	TO_CACHE:    3203207
L2C WQ	ACCESS:     900745	FORWARD:         26	MERGED:          0	TO_CACHE:     900745
L2C PQ	ACCESS:     441987	FORWARD:          0	MERGED:          0	TO_CACHE:     441987

L2C Instructions Evicting Data 162013
L2C Translations Evicting Data 4408
L2C Data Evicting Data 902001
L2C Instructions Evicting Instructions 86143
L2C Translations Evicting Instructions 1520
L2C Data Evicting Instructions 155135
L2C Instructions Evicting Translations 1657
L2C Translations Evicting Translations 85
L2C Data Evicting Translations 4166
L2C Dense regions hint from L2: 0
PSCL5 TOTAL     ACCESS:      16063  HIT:      16063  MISS:          0  HIT %:        100  MISS %:          0   MPKI: 0
PSCL5 LOAD TRANSLATION ACCESS:      13384  HIT:      13384  MISS:          0  HIT %:        100  MISS %:          0   MPKI: 0
PSCL5 TRANSLATION FROM L1D PREFETCHER ACCESS:       2679  HIT:       2679  MISS:          0  HIT %:        100  MISS %:          0   MPKI: 0
PSCL5 PREFETCH  REQUESTED:          0  ISSUED:          0  USEFUL:          0  USELESS:          0
PSCL5 USEFUL LOAD PREFETCHES:          0 PREFETCH ISSUED TO LOWER LEVEL:          0  ACCURACY: -nan
PSCL5 TIMELY PREFETCHES:          0 LATE PREFETCHES: 0 DROPPED PREFETCHES: 0
PSCL5 PREFETCHES SAME FILL-ORIGIN LEVEL: 0 DIFFERENT FILL-ORIGIN LEVEL: 0

PSCL4 TOTAL     ACCESS:      16056  HIT:      16056  MISS:          0  HIT %:        100  MISS %:          0   MPKI: 0
PSCL4 LOAD TRANSLATION ACCESS:      13384  HIT:      13384  MISS:          0  HIT %:        100  MISS %:          0   MPKI: 0
PSCL4 TRANSLATION FROM L1D PREFETCHER ACCESS:       2672  HIT:       2672  MISS:          0  HIT %:        100  MISS %:          0   MPKI: 0
PSCL4 PREFETCH  REQUESTED:          0  ISSUED:          0  USEFUL:          0  USELESS:          0
PSCL4 USEFUL LOAD PREFETCHES:          0 PREFETCH ISSUED TO LOWER LEVEL:          0  ACCURACY: -nan
PSCL4 TIMELY PREFETCHES:          0 LATE PREFETCHES: 0 DROPPED PREFETCHES: 0
PSCL4 PREFETCHES SAME FILL-ORIGIN LEVEL: 0 DIFFERENT FILL-ORIGIN LEVEL: 0

PSCL3 TOTAL     ACCESS:      15872  HIT:      15852  MISS:         20  HIT %:     99.874  MISS %:   0.126008   MPKI: 0.0001
PSCL3 LOAD TRANSLATION ACCESS:      13254  HIT:      13234  MISS:         20  HIT %:    99.8491  MISS %:   0.150898   MPKI: 0.0001
PSCL3 TRANSLATION FROM L1D PREFETCHER ACCESS:       2618  HIT:       2618  MISS:          0  HIT %:        100  MISS %:          0   MPKI: 0
PSCL3 PREFETCH  REQUESTED:          0  ISSUED:          0  USEFUL:          0  USELESS:          0
PSCL3 USEFUL LOAD PREFETCHES:          0 PREFETCH ISSUED TO LOWER LEVEL:          0  ACCURACY: -nan
PSCL3 TIMELY PREFETCHES:          0 LATE PREFETCHES: 0 DROPPED PREFETCHES: 0
PSCL3 PREFETCHES SAME FILL-ORIGIN LEVEL: 0 DIFFERENT FILL-ORIGIN LEVEL: 0

PSCL2 TOTAL     ACCESS:      15897  HIT:      15451  MISS:        446  HIT %:    97.1944  MISS %:    2.80556   MPKI: 0.00223
PSCL2 LOAD TRANSLATION ACCESS:      13405  HIT:      12959  MISS:        446  HIT %:    96.6729  MISS %:    3.32712   MPKI: 0.00223
PSCL2 TRANSLATION FROM L1D PREFETCHER ACCESS:       2492  HIT:       2492  MISS:          0  HIT %:        100  MISS %:          0   MPKI: 0
PSCL2 PREFETCH  REQUESTED:          0  ISSUED:          0  USEFUL:          0  USELESS:          0
PSCL2 USEFUL LOAD PREFETCHES:          0 PREFETCH ISSUED TO LOWER LEVEL:          0  ACCURACY: -nan
PSCL2 TIMELY PREFETCHES:          0 LATE PREFETCHES: 0 DROPPED PREFETCHES: 0
PSCL2 PREFETCHES SAME FILL-ORIGIN LEVEL: 0 DIFFERENT FILL-ORIGIN LEVEL: 0

LLC TOTAL     ACCESS:    2019260  HIT:    1241485  MISS:     777775  HIT %:    61.4822  MISS %:    38.5178   MPKI: 3.88887
LLC LOAD      ACCESS:     455240  HIT:     298042  MISS:     157198  HIT %:    65.4692  MISS %:    34.5308   MPKI: 0.78599
LLC RFO       ACCESS:     629415  HIT:     143648  MISS:     485767  HIT %:    22.8225  MISS %:    77.1775   MPKI: 2.42883
LLC PREFETCH  ACCESS:     226458  HIT:     107958  MISS:     118500  HIT %:    47.6724  MISS %:    52.3276   MPKI: 0.5925
AGUS PREFETCH L1 MISS: 0
LLC WRITEBACK ACCESS:     702134  HIT:     689213  MISS:      12921  HIT %:    98.1598  MISS %:    1.84025   MPKI: 0.064605
LLC LOAD TRANSLATION ACCESS:       5332  HIT:       2244  MISS:       3088  HIT %:    42.0855  MISS %:    57.9145   MPKI: 0.01544
LLC TRANSLATION FROM L1D PREFETCHER ACCESS:        681  HIT:        380  MISS:        301  HIT %:    55.8003  MISS %:    44.1997   MPKI: 0.001505
LLC PREFETCH  REQUESTED:          0  ISSUED:          0  USEFUL:      15019  USELESS:     103497
LLC USEFUL LOAD PREFETCHES:      15019 PREFETCH ISSUED TO LOWER LEVEL:     118500  ACCURACY: 12.6743
LLC TIMELY PREFETCHES:      15019 LATE PREFETCHES: 0 DROPPED PREFETCHES: 0
LLC PREFETCHES SAME FILL-ORIGIN LEVEL: 0 DIFFERENT FILL-ORIGIN LEVEL: 0
LLC AVERAGE MISS LATENCY: 154.008 cycles
LLC RQ	ACCESS:    1090667	FORWARD:          0	MERGED:          0	TO_CACHE:    1090667
LLC WQ	ACCESS:     702135	FORWARD:          2	MERGED:          0	TO_CACHE:     702135
LLC PQ	ACCESS:     226460	FORWARD:          0	MERGED:          0	TO_CACHE:     226458

LLC Dense regions hint to LLC: 0

RAW hits: 4047692
Loads Generated: 46900687
Loads sent to L1D: 42852991
Stores Generated: 28298348
Stores sent to L1D: 28298364
Major fault: 0 Minor fault: 5106
Allocated PAGES: 5106
CPU 0 L1D 
Prefetch count 540484 BOP and RL 

DRAM Statistics
 CHANNEL 0
 RQ ROW_BUFFER_HIT:     323492  ROW_BUFFER_MISS:     441357
 DBUS_CONGESTED:        733
 WQ ROW_BUFFER_HIT:     114786  ROW_BUFFER_MISS:     406880  FULL:          0

 AVG_CONGESTED_CYCLE: 4
 All warmup complete: 2
Channel 0 Bank busy for read cycles: 0
Channel 0 Bank busy for write cycles: 0
Channel 0
Rank 0
0banks busy for read cycles: 247777343
0banks busy for write cycles: 110926
1banks busy for read cycles: 27798037
1banks busy for write cycles: 14421242
2banks busy for read cycles: 7968218
2banks busy for write cycles: 5831446
3banks busy for read cycles: 2265141
3banks busy for write cycles: 2827663
4banks busy for read cycles: 1289508
4banks busy for write cycles: 1423745
5banks busy for read cycles: 832791
5banks busy for write cycles: 825640
6banks busy for read cycles: 805722
6banks busy for write cycles: 693191
7banks busy for read cycles: 665497
7banks busy for write cycles: 986129
8banks busy for read cycles: 1699080
8banks busy for write cycles: 4074562

CPU 0 Branch Prediction Accuracy: 98.7615% MPKI: 2.30067 Average ROB Occupancy at Mispredict: 17.6195
Branch types
NOT_BRANCH: 162848067 81.424%
BRANCH_DIRECT_JUMP: 1668735 0.834367%
BRANCH_INDIRECT: 12964868 6.48243%
BRANCH_CONDITIONAL: 14916697 7.45835%
BRANCH_DIRECT_CALL: 3293738 1.64687%
BRANCH_INDIRECT_CALL: 505068 0.252534%
BRANCH_RETURN: 3802670 1.90133%
BRANCH_OTHER: 0 0%

DRAM PAGES: 1048576
Allocated PAGES: 5106
