
*** ChampSim Multicore Out-of-Order Simulator ***

Warmup Instructions: 50000000
Simulation Instructions: 200000000
Number of CPUs: 1
LLC sets: 2048
LLC ways: 16
Off-chip DRAM Size: 4096 MB Channels: 1 Width: 64-bit Data Rate: 6400 MT/s
CPU 0 runs traces/spec2k17/client_008.champsimtrace.xz
.xz
BTB has LRU replacement policy
ITLB has LRU replacement policy
DTLB has LRU replacement policy
STLB has LRU replacement policy
L1I has LRU replacement policy
CPU 0 l1d next line prefetcher
L1D has LRU replacement policy
Initialize SRRIP state for L2C
Initialize DRRIP state for LLC
Offsets elements: 
Potential of Offsets elements: 
rewards of Offsets elements: 
Printing Sanity1
offset list size1686
Heartbeat CPU 0 instructions: 10000000 cycles: 2915447 heartbeat IPC: 3.43001 cumulative IPC: 3.43001 (Simulation time: 0 hr 0 min 46 sec) 
Heartbeat CPU 0 instructions: 20000001 cycles: 5851227 heartbeat IPC: 3.40625 cumulative IPC: 3.41809 (Simulation time: 0 hr 1 min 29 sec) 
Heartbeat CPU 0 instructions: 30000001 cycles: 8761997 heartbeat IPC: 3.43552 cumulative IPC: 3.42388 (Simulation time: 0 hr 2 min 12 sec) 
Heartbeat CPU 0 instructions: 40000003 cycles: 11699911 heartbeat IPC: 3.40378 cumulative IPC: 3.41883 (Simulation time: 0 hr 2 min 58 sec) 
Offsets elements: 
Potential of Offsets elements: 
rewards of Offsets elements: 0 0 0 0 0 0 0 0 0 0 0 0 0 0 0 0 0 0 90 0 0 0 0 0 0 136 0 0 0 0 0 50 0 0 0 0 0 0 8 0 0 0 0 0 0 0 0 0 0 0 0 0 0 0 1 0 0 0 0 137 0 0 0 0 0 0 0 0 0 0 0 70 0 0 0 73 0 21 0 0 81 0 0 0 0 0 0 0 0 0 0 0 0 0 0 0 0 0 0 0 0 0 0 0 0 0 0 0 0 0 0 22 0 0 0 52 0 0 0 0 0 0 0 0 0 0 0 0 0 0 0 0 0 0 0 5 0 0 47 14 5 0 0 0 0 0 0 0 0 0 4 0 0 8 0 0 0 0 0 0 0 0 0 0 0 0 16 0 0 0 0 0 0 11 0 0 5 14 0 77 76 9 5 6 0 0 0 27 0 0 21 0 0 65 10 11 21 0 0 0 0 0 0 0 13 0 0 0 0 0 16 0 0 0 0 0 0 77 0 0 51 3 53 51 0 0 0 0 0 0 0 0 0 4 4 0 0 0 0 0 0 0 1 36 62 16 0 0 0 0 0 0 0 0 14 0 0 0 0 0 0 0 0 0 0 10 0 0 0 0 0 40 0 0 0 0 0 0 0 0 6 40 3 14 21 0 0 9 3 13 0 0 0 0 0 13 0 0 0 0 0 0 0 0 0 0 22 0 0 38 0 0 0 0 0 0 0 0 0 0 27 22 8 0 18 0 0 0 0 0 0 0 6 23 0 0 0 0 0 15 0 0 0 0 0 0 0 0 0 0 0 0 0 0 0 0 0 0 0 0 0 0 0 0 0 0 0 0 0 0 0 0 7 4 0 0 0 0 0 0 0 0 0 0 0 0 0 0 0 5 0 4 1 0 0 7 0 0 0 0 0 7 8 31 0 0 0 0 0 0 0 0 0 6 11 25 0 0 6 0 0 0 0 0 0 0 0 0 0 0 0 0 0 0 0 0 0 0 0 0 0 0 22 3 0 0 0 0 8 0 0 0 0 0 0 0 0 0 0 0 0 0 9 29 0 0 0 0 0 0 0 0 0 0 65 0 0 18 0 0 12 0 0 0 0 0 0 0 0 0 0 0 0 0 0 3 0 0 0 22 0 0 0 0 0 0 10 0 0 0 9 0 5 0 0 0 0 0 0 0 0 0 0 0 0 0 16 0 0 0 0 0 0 0 15 0 0 0 0 0 0 0 0 0 0 0 0 0 0 0 0 0 0 7 15 0 0 0 0 0 0 0 0 0 0 0 9 0 27 0 0 0 0 0 9 0 0 0 0 9 0 15 0 0 0 0 0 0 0 0 14 0 0 0 0 31 0 0 0 0 2 0 0 0 0 0 0 8 0 0 0 0 0 0 0 0 0 0 0 0 0 0 0 0 0 0 0 0 0 0 12 2 0 0 18 0 0 0 0 0 11 27 0 0 0 0 0 0 0 0 0 11 0 0 5 0 5 1 6 11 5 6 9 0 0 0 0 0 20 0 12 0 0 0 0 0 0 0 0 0 0 0 0 0 0 0 0 0 27 0 0 12 0 0 0 0 0 0 25 0 0 0 0 0 0 0 0 0 0 0 0 0 0 15 19 6 13 5 0 0 3 0 0 0 18 23 0 0 20 0 11 0 0 0 0 0 0 3 0 0 0 0 17 5 0 0 7 0 0 0 0 1 0 15 11 0 0 18 31 0 0 3 23 0 0 0 0 0 0 0 0 0 0 0 0 8 0 0 0 20 0 0 0 0 0 0 0 0 0 0 0 0 0 0 17 0 0 7 0 0 6 12 0 4 14 6 0 0 0 0 0 0 0 0 0 0 0 0 14 0 2 48 0 13 17 0 1 1 0 57 0 0 9 18 0 0 12 8 9 0 0 0 0 0 0 0 0 0 0 11 0 0 0 0 0 47 4 14 15 6 10 12 0 0 0 0 0 8 5 8 13 0 0 14 0 0 0 19 0 0 0 7 0 0 0 0 0 3 0 0 0 0 11 0 0 0 8 10 8 0 0 0 7 2 4 5 6 1 0 0 1 0 0 2 2 0 3 7 5 0 0 0 0 0 0 13 12 0 13 10 12 9 0 0 0 8 0 0 0 0 10 0 0 0 0 0 0 0 0 0 0 0 0 0 0 0 0 0 0 8 0 3 0 0 0 6 16 0 0 0 0 9 0 0 21 0 0 0 0 0 0 0 0 14 0 0 0 0 0 0 0 0 0 0 0 0 0 0 0 17 11 3 0 0 0 0 0 0 0 0 0 0 0 2 0 0 0 0 26 0 20 0 0 0 0 0 0 0 0 0 14 3 0 9 0 0 0 0 0 0 0 0 0 3 0 14 0 0 0 3 0 0 0 0 1 0 5 8 0 0 0 0 0 22 0 0 0 0 0 16 0 0 0 0 0 0 0 0 9 0 3 0 0 0 0 0 0 0 11 0 11 0 5 10 0 0 0 0 8 8 0 0 0 0 0 0 0 0 5 0 0 0 0 0 0 8 0 0 0 0 0 0 0 8 0 0 0 0 12 3 3 0 0 6 6 8 9 0 35 2 8 0 0 0 0 17 0 0 0 0 8 0 0 11 0 0 0 0 0 0 0 0 0 0 10 0 0 0 0 0 18 0 27 14 0 0 0 0 0 11 0 0 0 0 17 0 0 0 0 0 0 0 0 0 19 0 0 0 0 0 0 0 0 0 6 10 11 0 0 0 0 0 0 0 0 0 6 15 0 0 0 0 0 0 16 0 0 0 0 0 0 0 0 0 0 0 19 0 0 0 0 16 0 0 0 0 0 0 0 0 0 0 12 0 0 0 10 0 9 0 0 0 77 0 0 0 10 0 0 0 0 0 0 0 0 0 18 0 0 0 0 0 0 0 0 0 0 0 0 3 5 9 0 0 0 0 0 0 0 0 0 0 7 0 0 0 0 0 0 0 0 0 0 0 0 0 15 0 0 12 0 0 0 22 0 0 0 0 0 2 1 0 0 0 0 0 0 0 0 0 0 0 7 0 15 0 9 10 0 0 0 0 0 0 0 0 5 0 0 0 0 0 19 0 0 0 0 0 0 0 0 0 0 0 0 0 1 0 0 0 0 0 0 0 0 0 0 12 0 0 0 0 0 0 0 0 0 0 0 0 0 0 0 0 0 0 0 0 23 0 0 2 0 0 0 0 0 0 0 0 0 0 0 15 13 0 0 0 0 0 0 0 0 0 0 0 0 0 0 6 0 0 0 1 0 4 0 0 12 0 0 5 11 0 0 0 0 0 0 0 0 0 0 0 0 0 0 0 0 0 0 0 2 0 10 0 0 0 17 0 0 0 0 0 0 8 0 0 0 0 8 5 0 0 0 0 0 0 0 0 0 0 26 0 0 0 0 0 0 0 16 0 0 0 0 0 0 0 0 0 0 0 0 0 12 0 8 0 0 5 12 1 0 0 0 0 0 11 0 0 0 0 0 0 0 15 3 0 0 0 0 0 0 0 0 0 0 0 0 0 0 0 0 0 0 0 0 0 0 3 0 0 0 0 0 0 0 0 0 0 0 0 0 0 5 0 0 0 0 0 0 0 0 0 0 0 0 0 0 44 10 0 0 0 0 0 15 0 0 0 0 6 12 0 0 4 8 18 0 0 0 8 10 0 0 0 0 0 0 0 3 5 1 93 0 0 0 1 2 8 0 0 0 0 0 0 0 0 0 0 0 4 10 0 0 0 0 0 0 0 0 0 13 0 0 0 0 0 0 14 0 9 8 0 3 10 1 0 0 0 0 0 0 0 5 0 
Printing Sanity2
Heartbeat CPU 0 instructions: 50000002 cycles: 14630957 heartbeat IPC: 3.41175 cumulative IPC: 3.41741 (Simulation time: 0 hr 3 min 40 sec) 

Warmup complete CPU 0 instructions: 50000002 cycles: 14630957 (Simulation time: 0 hr 3 min 40 sec) 

Heartbeat CPU 0 instructions: 60000001 cycles: 35801501 heartbeat IPC: 0.472354 cumulative IPC: 0.472354 (Simulation time: 0 hr 4 min 29 sec) 
Heartbeat CPU 0 instructions: 70000000 cycles: 56621271 heartbeat IPC: 0.480313 cumulative IPC: 0.4763 (Simulation time: 0 hr 5 min 24 sec) 
Heartbeat CPU 0 instructions: 80000000 cycles: 77775023 heartbeat IPC: 0.472729 cumulative IPC: 0.475104 (Simulation time: 0 hr 6 min 15 sec) 
Heartbeat CPU 0 instructions: 90000003 cycles: 106981120 heartbeat IPC: 0.342394 cumulative IPC: 0.433134 (Simulation time: 0 hr 7 min 14 sec) 
Heartbeat CPU 0 instructions: 100000001 cycles: 123308793 heartbeat IPC: 0.612457 cumulative IPC: 0.460075 (Simulation time: 0 hr 8 min 7 sec) 
*** Reached end of trace for Core: 0 Repeating trace: traces/spec2k17/client_008.champsimtrace.xz
Heartbeat CPU 0 instructions: 110000000 cycles: 144558041 heartbeat IPC: 0.470605 cumulative IPC: 0.461797 (Simulation time: 0 hr 8 min 56 sec) 
Heartbeat CPU 0 instructions: 120000001 cycles: 166794358 heartbeat IPC: 0.449715 cumulative IPC: 0.460032 (Simulation time: 0 hr 9 min 47 sec) 
Heartbeat CPU 0 instructions: 130000000 cycles: 190213549 heartbeat IPC: 0.427 cumulative IPC: 0.455626 (Simulation time: 0 hr 10 min 39 sec) 
Heartbeat CPU 0 instructions: 140000002 cycles: 212498022 heartbeat IPC: 0.448743 cumulative IPC: 0.454851 (Simulation time: 0 hr 11 min 28 sec) 
Heartbeat CPU 0 instructions: 150000001 cycles: 235758780 heartbeat IPC: 0.429909 cumulative IPC: 0.452227 (Simulation time: 0 hr 12 min 20 sec) 
Heartbeat CPU 0 instructions: 160000000 cycles: 257609885 heartbeat IPC: 0.457643 cumulative IPC: 0.452714 (Simulation time: 0 hr 13 min 13 sec) 
Heartbeat CPU 0 instructions: 170000000 cycles: 278278280 heartbeat IPC: 0.483831 cumulative IPC: 0.455153 (Simulation time: 0 hr 14 min 5 sec) 
Heartbeat CPU 0 instructions: 180000000 cycles: 297572144 heartbeat IPC: 0.5183 cumulative IPC: 0.459459 (Simulation time: 0 hr 14 min 54 sec) 
Heartbeat CPU 0 instructions: 190000001 cycles: 327413420 heartbeat IPC: 0.335106 cumulative IPC: 0.447595 (Simulation time: 0 hr 15 min 48 sec) 
Heartbeat CPU 0 instructions: 200000000 cycles: 346843690 heartbeat IPC: 0.514661 cumulative IPC: 0.451518 (Simulation time: 0 hr 16 min 43 sec) 
*** Reached end of trace for Core: 0 Repeating trace: traces/spec2k17/client_008.champsimtrace.xz
Heartbeat CPU 0 instructions: 210000001 cycles: 365014842 heartbeat IPC: 0.550323 cumulative IPC: 0.456642 (Simulation time: 0 hr 17 min 34 sec) 
Heartbeat CPU 0 instructions: 220000000 cycles: 387732908 heartbeat IPC: 0.440178 cumulative IPC: 0.45564 (Simulation time: 0 hr 18 min 27 sec) 
Heartbeat CPU 0 instructions: 230000003 cycles: 410499989 heartbeat IPC: 0.439231 cumulative IPC: 0.454696 (Simulation time: 0 hr 19 min 16 sec) 
Heartbeat CPU 0 instructions: 240000002 cycles: 433179808 heartbeat IPC: 0.440921 cumulative IPC: 0.453949 (Simulation time: 0 hr 20 min 8 sec) 
Heartbeat CPU 0 instructions: 250000002 cycles: 456152871 heartbeat IPC: 0.435292 cumulative IPC: 0.452979 (Simulation time: 0 hr 21 min 3 sec) 
Finished CPU 0 instructions: 200000000 cycles: 441521914 cumulative IPC: 0.452979 (Simulation time: 0 hr 21 min 3 sec) 

ChampSim completed all CPUs

Region of Interest Statistics

CPU 0 cumulative IPC: 0.452979 instructions: 200000000 cycles: 441521914
ITLB TOTAL     ACCESS:   33957068  HIT:   32957786  MISS:     999282  HIT %:    97.0572  MISS %:    2.94278   MPKI: 4.99641
ITLB LOAD TRANSLATION ACCESS:   33957068  HIT:   32957786  MISS:     999282  HIT %:    97.0572  MISS %:    2.94278   MPKI: 4.99641
ITLB PREFETCH  REQUESTED:          0  ISSUED:          0  USEFUL:          0  USELESS:          0
ITLB USEFUL LOAD PREFETCHES:          0 PREFETCH ISSUED TO LOWER LEVEL:          0  ACCURACY: -nan
ITLB TIMELY PREFETCHES:          0 LATE PREFETCHES: 0 DROPPED PREFETCHES: 0
ITLB PREFETCHES SAME FILL-ORIGIN LEVEL: 0 DIFFERENT FILL-ORIGIN LEVEL: 0
ITLB AVERAGE MISS LATENCY: 9.52263 cycles
ITLB RQ	ACCESS:   38142036	FORWARD:          0	MERGED:    3936134	TO_CACHE:   34205902

DTLB TOTAL     ACCESS:   44528962  HIT:   41482902  MISS:    3046060  HIT %:    93.1594  MISS %:    6.84063   MPKI: 15.2303
DTLB LOAD TRANSLATION ACCESS:   44528962  HIT:   41482902  MISS:    3046060  HIT %:    93.1594  MISS %:    6.84063   MPKI: 15.2303
DTLB PREFETCH  REQUESTED:          0  ISSUED:          0  USEFUL:          0  USELESS:          0
DTLB USEFUL LOAD PREFETCHES:          0 PREFETCH ISSUED TO LOWER LEVEL:          0  ACCURACY: -nan
DTLB TIMELY PREFETCHES:          0 LATE PREFETCHES: 0 DROPPED PREFETCHES: 0
DTLB PREFETCHES SAME FILL-ORIGIN LEVEL: 0 DIFFERENT FILL-ORIGIN LEVEL: 0
DTLB AVERAGE MISS LATENCY: 9.48321 cycles
DTLB RQ	ACCESS:   54707378	FORWARD:          0	MERGED:   10087297	TO_CACHE:   44620081

STLB TOTAL     ACCESS:    6958878  HIT:    6927242  MISS:      31636  HIT %:    99.5454  MISS %:   0.454614   MPKI: 0.15818
STLB LOAD TRANSLATION ACCESS:    4045342  HIT:    4014754  MISS:      30588  HIT %:    99.2439  MISS %:   0.756129   MPKI: 0.15294
STLB TRANSLATION FROM L1D PREFETCHER ACCESS:    2913536  HIT:    2912488  MISS:       1048  HIT %:     99.964  MISS %:    0.03597   MPKI: 0.00524
STLB PREFETCH  REQUESTED:          0  ISSUED:          0  USEFUL:        899  USELESS:        146
STLB USEFUL LOAD PREFETCHES:        899 PREFETCH ISSUED TO LOWER LEVEL:          0  ACCURACY: inf
STLB TIMELY PREFETCHES:        899 LATE PREFETCHES: 61 DROPPED PREFETCHES: 1898
STLB PREFETCHES SAME FILL-ORIGIN LEVEL: 0 DIFFERENT FILL-ORIGIN LEVEL: 0
STLB AVERAGE MISS LATENCY: 13967.8 cycles
STLB RQ	ACCESS:    7288944	FORWARD:          0	MERGED:     328064	TO_CACHE:    6960880

STLB Hit, L1D data hit: 0
STLB Hit, L2C data hit: 0
STLB Hit, LLC data hit: 0
STLB Hit, LLC data miss: 0
STLB STLB hints to L2: 0
L1D TOTAL     ACCESS:   56404008  HIT:   49902307  MISS:    6501701  HIT %:     88.473  MISS %:     11.527   MPKI: 32.5085
L1D LOAD      ACCESS:   37847237  HIT:   34266329  MISS:    3580908  HIT %:    90.5385  MISS %:    9.46148   MPKI: 17.9045
L1D RFO       ACCESS:   15586612  HIT:   15236920  MISS:     349692  HIT %:    97.7565  MISS %:    2.24354   MPKI: 1.74846
L1D PREFETCH  ACCESS:    2970159  HIT:     399058  MISS:    2571101  HIT %:    13.4356  MISS %:    86.5644   MPKI: 12.8555
AGUS PREFETCH L1 MISS: 0
L1D PREFETCH  REQUESTED:    6582536  ISSUED:    6582360  USEFUL:     597200  USELESS:    1973704
L1D USEFUL LOAD PREFETCHES:     597200 PREFETCH ISSUED TO LOWER LEVEL:    2621612  ACCURACY: 22.7799
L1D TIMELY PREFETCHES:     597200 LATE PREFETCHES: 48720 DROPPED PREFETCHES: 1973
L1D PREFETCHES SAME FILL-ORIGIN LEVEL: 2621612 DIFFERENT FILL-ORIGIN LEVEL: 0
L1D AVERAGE MISS LATENCY: 2.01082e+06 cycles
L1D RQ	ACCESS:   56704229	FORWARD:          0	MERGED:   18391261	TO_CACHE:   38059354
L1D WQ	ACCESS:   17136260	FORWARD:     254155	MERGED:     488236	TO_CACHE:   16648024
L1D PQ	ACCESS:    3338758	FORWARD:          0	MERGED:      94615	TO_CACHE:    3243602

L1D UNIQUE REGIONS ACCESSED: 0
L1D REGIONS CONFLICTS: 0
L1D Cross Page Prefetch Requests: 167419
L1D Same Page Prefetch Requests: 4050582
L1D ROI Sum of L1D PQ occupancy: 41987128
L1D PREFETCHES PUSHED FROM L2C: 0
L1I TOTAL     ACCESS:   37106850  HIT:   32808978  MISS:    4297872  HIT %:    88.4176  MISS %:    11.5824   MPKI: 21.4894
L1I LOAD      ACCESS:   37106850  HIT:   32808978  MISS:    4297872  HIT %:    88.4176  MISS %:    11.5824   MPKI: 21.4894
L1I PREFETCH  REQUESTED:          0  ISSUED:          0  USEFUL:          0  USELESS:          0
L1I USEFUL LOAD PREFETCHES:          0 PREFETCH ISSUED TO LOWER LEVEL:          0  ACCURACY: -nan
L1I TIMELY PREFETCHES:          0 LATE PREFETCHES: 0 DROPPED PREFETCHES: 0
L1I PREFETCHES SAME FILL-ORIGIN LEVEL: 0 DIFFERENT FILL-ORIGIN LEVEL: 0
L1I AVERAGE MISS LATENCY: 18.4762 cycles
L1I RQ	ACCESS:   62298212	FORWARD:          0	MERGED:   24156176	TO_CACHE:   38142036

BTB TOTAL     ACCESS:   36528426  HIT:   31583046  MISS:    4945380  HIT %:    86.4616  MISS %:    13.5384   MPKI: 24.7269
BTB BRANCH_DIRECT_JUMP	ACCESS:    2061309  HIT:    1966278  MISS:      95031
BTB BRANCH_INDIRECT	ACCESS:   13234605  HIT:   11716493  MISS:    1518112
BTB BRANCH_CONDITIONAL	ACCESS:   12402839  HIT:   12111406  MISS:     291433
BTB BRANCH_DIRECT_CALL	ACCESS:    1759418  HIT:    1715408  MISS:      44010
BTB BRANCH_INDIRECT_CALL	ACCESS:    2655183  HIT:    2016702  MISS:     638481
BTB BRANCH_RETURN	ACCESS:    4415072  HIT:    2056759  MISS:    2358313
BTB BRANCH_OTHER ACCESS:          0  HIT:          0  MISS:          0

L2C TOTAL     ACCESS:   11381002  HIT:    9679812  MISS:    1701190  HIT %:    85.0524  MISS %:    14.9476   MPKI: 8.50595
L2C LOAD      ACCESS:    7829992  HIT:    6970346  MISS:     859646  HIT %:    89.0211  MISS %:    10.9789   MPKI: 4.29823
L2C DATA LOAD MPKI: 2.55683
L2C INSTRUCTION LOAD MPKI: 1.7414
L2C RFO       ACCESS:     347803  HIT:      99547  MISS:     248256  HIT %:    28.6217  MISS %:    71.3783   MPKI: 1.24128
L2C PREFETCH  ACCESS:    2621610  HIT:    2050581  MISS:     571029  HIT %:    78.2184  MISS %:    21.7816   MPKI: 2.85514
AGUS PREFETCH L1 MISS: 0
L2C DATA PREFETCH MPKI: 2.85514
L2C INSTRUCTION PREFETCH MPKI: 0
L2C WRITEBACK ACCESS:     546380  HIT:     538132  MISS:       8248  HIT %:    98.4904  MISS %:    1.50957   MPKI: 0.04124
L2C LOAD TRANSLATION ACCESS:      32096  HIT:      18699  MISS:      13397  HIT %:    58.2596  MISS %:    41.7404   MPKI: 0.066985
L2C TRANSLATION FROM L1D PREFETCHER ACCESS:       3121  HIT:       2507  MISS:        614  HIT %:    80.3268  MISS %:    19.6732   MPKI: 0.00307
L2C PREFETCH  REQUESTED:          0  ISSUED:          0  USEFUL:      52287  USELESS:     517369
L2C USEFUL LOAD PREFETCHES:      52287 PREFETCH ISSUED TO LOWER LEVEL:     571029  ACCURACY: 9.15663
L2C TIMELY PREFETCHES:      52287 LATE PREFETCHES: 0 DROPPED PREFETCHES: 0
L2C PREFETCHES SAME FILL-ORIGIN LEVEL: 0 DIFFERENT FILL-ORIGIN LEVEL: 0
L2C AVERAGE MISS LATENCY: 77.4655 cycles
L2C RQ	ACCESS:    8213180	FORWARD:          0	MERGED:          0	TO_CACHE:    8213012
L2C WQ	ACCESS:     546380	FORWARD:        170	MERGED:          0	TO_CACHE:     546380
L2C PQ	ACCESS:    2621612	FORWARD:          0	MERGED:          0	TO_CACHE:    2621610

L2C Instructions Evicting Data 234568
L2C Translations Evicting Data 9757
L2C Data Evicting Data 1087491
L2C Instructions Evicting Instructions 109754
L2C Translations Evicting Instructions 4049
L2C Data Evicting Instructions 233358
L2C Instructions Evicting Translations 3958
L2C Translations Evicting Translations 205
L2C Data Evicting Translations 9802
L2C Dense regions hint from L2: 0
PSCL5 TOTAL     ACCESS:      33547  HIT:      33547  MISS:          0  HIT %:        100  MISS %:          0   MPKI: 0
PSCL5 LOAD TRANSLATION ACCESS:      30540  HIT:      30540  MISS:          0  HIT %:        100  MISS %:          0   MPKI: 0
PSCL5 TRANSLATION FROM L1D PREFETCHER ACCESS:       3007  HIT:       3007  MISS:          0  HIT %:        100  MISS %:          0   MPKI: 0
PSCL5 PREFETCH  REQUESTED:          0  ISSUED:          0  USEFUL:          0  USELESS:          0
PSCL5 USEFUL LOAD PREFETCHES:          0 PREFETCH ISSUED TO LOWER LEVEL:          0  ACCURACY: -nan
PSCL5 TIMELY PREFETCHES:          0 LATE PREFETCHES: 0 DROPPED PREFETCHES: 0
PSCL5 PREFETCHES SAME FILL-ORIGIN LEVEL: 0 DIFFERENT FILL-ORIGIN LEVEL: 0

PSCL4 TOTAL     ACCESS:      33547  HIT:      33547  MISS:          0  HIT %:        100  MISS %:          0   MPKI: 0
PSCL4 LOAD TRANSLATION ACCESS:      30540  HIT:      30540  MISS:          0  HIT %:        100  MISS %:          0   MPKI: 0
PSCL4 TRANSLATION FROM L1D PREFETCHER ACCESS:       3007  HIT:       3007  MISS:          0  HIT %:        100  MISS %:          0   MPKI: 0
PSCL4 PREFETCH  REQUESTED:          0  ISSUED:          0  USEFUL:          0  USELESS:          0
PSCL4 USEFUL LOAD PREFETCHES:          0 PREFETCH ISSUED TO LOWER LEVEL:          0  ACCURACY: -nan
PSCL4 TIMELY PREFETCHES:          0 LATE PREFETCHES: 0 DROPPED PREFETCHES: 0
PSCL4 PREFETCHES SAME FILL-ORIGIN LEVEL: 0 DIFFERENT FILL-ORIGIN LEVEL: 0

PSCL3 TOTAL     ACCESS:      33377  HIT:      33337  MISS:         40  HIT %:    99.8802  MISS %:   0.119843   MPKI: 0.0002
PSCL3 LOAD TRANSLATION ACCESS:      30430  HIT:      30390  MISS:         40  HIT %:    99.8686  MISS %:   0.131449   MPKI: 0.0002
PSCL3 TRANSLATION FROM L1D PREFETCHER ACCESS:       2947  HIT:       2947  MISS:          0  HIT %:        100  MISS %:          0   MPKI: 0
PSCL3 PREFETCH  REQUESTED:          0  ISSUED:          0  USEFUL:          0  USELESS:          0
PSCL3 USEFUL LOAD PREFETCHES:          0 PREFETCH ISSUED TO LOWER LEVEL:          0  ACCURACY: -nan
PSCL3 TIMELY PREFETCHES:          0 LATE PREFETCHES: 0 DROPPED PREFETCHES: 0
PSCL3 PREFETCHES SAME FILL-ORIGIN LEVEL: 0 DIFFERENT FILL-ORIGIN LEVEL: 0

PSCL2 TOTAL     ACCESS:      33131  HIT:      31564  MISS:       1567  HIT %:    95.2703  MISS %:    4.72971   MPKI: 0.007835
PSCL2 LOAD TRANSLATION ACCESS:      30583  HIT:      29016  MISS:       1567  HIT %:    94.8762  MISS %:    5.12376   MPKI: 0.007835
PSCL2 TRANSLATION FROM L1D PREFETCHER ACCESS:       2548  HIT:       2548  MISS:          0  HIT %:        100  MISS %:          0   MPKI: 0
PSCL2 PREFETCH  REQUESTED:          0  ISSUED:          0  USEFUL:          0  USELESS:          0
PSCL2 USEFUL LOAD PREFETCHES:          0 PREFETCH ISSUED TO LOWER LEVEL:          0  ACCURACY: -nan
PSCL2 TIMELY PREFETCHES:          0 LATE PREFETCHES: 0 DROPPED PREFETCHES: 0
PSCL2 PREFETCHES SAME FILL-ORIGIN LEVEL: 0 DIFFERENT FILL-ORIGIN LEVEL: 0

LLC TOTAL     ACCESS:    2027197  HIT:    1466787  MISS:     560410  HIT %:    72.3554  MISS %:    27.6446   MPKI: 2.80205
LLC LOAD      ACCESS:     859645  HIT:     685228  MISS:     174417  HIT %:    79.7106  MISS %:    20.2894   MPKI: 0.872085
LLC RFO       ACCESS:     248256  HIT:      16898  MISS:     231358  HIT %:    6.80668  MISS %:    93.1933   MPKI: 1.15679
LLC PREFETCH  ACCESS:     571029  HIT:     432964  MISS:     138065  HIT %:    75.8217  MISS %:    24.1783   MPKI: 0.690325
AGUS PREFETCH L1 MISS: 0
LLC WRITEBACK ACCESS:     334256  HIT:     321757  MISS:      12499  HIT %:    96.2607  MISS %:    3.73935   MPKI: 0.062495
LLC LOAD TRANSLATION ACCESS:      13397  HIT:       9574  MISS:       3823  HIT %:    71.4638  MISS %:    28.5362   MPKI: 0.019115
LLC TRANSLATION FROM L1D PREFETCHER ACCESS:        614  HIT:        366  MISS:        248  HIT %:    59.6091  MISS %:    40.3909   MPKI: 0.00124
LLC PREFETCH  REQUESTED:          0  ISSUED:          0  USEFUL:      20112  USELESS:     114319
LLC USEFUL LOAD PREFETCHES:      20112 PREFETCH ISSUED TO LOWER LEVEL:     138065  ACCURACY: 14.5671
LLC TIMELY PREFETCHES:      20112 LATE PREFETCHES: 0 DROPPED PREFETCHES: 0
LLC PREFETCHES SAME FILL-ORIGIN LEVEL: 0 DIFFERENT FILL-ORIGIN LEVEL: 0
LLC AVERAGE MISS LATENCY: 144.457 cycles
LLC RQ	ACCESS:    1121913	FORWARD:          0	MERGED:          0	TO_CACHE:    1121912
LLC WQ	ACCESS:     334256	FORWARD:          1	MERGED:          0	TO_CACHE:     334256
LLC PQ	ACCESS:     571029	FORWARD:          0	MERGED:          0	TO_CACHE:     571029

LLC Dense regions hint to LLC: 0

RAW hits: 3389317
Loads Generated: 60093548
Loads sent to L1D: 56704229
Stores Generated: 17136254
Stores sent to L1D: 17136260
Major fault: 0 Minor fault: 5379
Allocated PAGES: 5379
CPU 0 L1D 
Prefetch count 3337823 BOP and RL 

DRAM Statistics
 CHANNEL 0
 RQ ROW_BUFFER_HIT:     153474  ROW_BUFFER_MISS:     394429
 DBUS_CONGESTED:        336
 WQ ROW_BUFFER_HIT:      46630  ROW_BUFFER_MISS:     227123  FULL:          0

 AVG_CONGESTED_CYCLE: 4
 All warmup complete: 2
Channel 0 Bank busy for read cycles: 0
Channel 0 Bank busy for write cycles: 0
Channel 0
Rank 0
0banks busy for read cycles: 366406463
0banks busy for write cycles: 127450
1banks busy for read cycles: 33573810
1banks busy for write cycles: 17093296
2banks busy for read cycles: 11022573
2banks busy for write cycles: 5511788
3banks busy for read cycles: 1768303
3banks busy for write cycles: 1929296
4banks busy for read cycles: 545079
4banks busy for write cycles: 914733
5banks busy for read cycles: 202219
5banks busy for write cycles: 503405
6banks busy for read cycles: 106646
6banks busy for write cycles: 357874
7banks busy for read cycles: 94764
7banks busy for write cycles: 368915
8banks busy for read cycles: 182751
8banks busy for write cycles: 812550

CPU 0 Branch Prediction Accuracy: 99.1917% MPKI: 1.85351 Average ROB Occupancy at Mispredict: 21.1889
Branch types
NOT_BRANCH: 154137295 77.0686%
BRANCH_DIRECT_JUMP: 2061309 1.03065%
BRANCH_INDIRECT: 13234605 6.6173%
BRANCH_CONDITIONAL: 21736757 10.8684%
BRANCH_DIRECT_CALL: 1759418 0.879709%
BRANCH_INDIRECT_CALL: 2655183 1.32759%
BRANCH_RETURN: 4415072 2.20754%
BRANCH_OTHER: 0 0%

DRAM PAGES: 1048576
Allocated PAGES: 5379
