
*** ChampSim Multicore Out-of-Order Simulator ***

Warmup Instructions: 50000000
Simulation Instructions: 200000000
Number of CPUs: 1
LLC sets: 2048
LLC ways: 16
Off-chip DRAM Size: 4096 MB Channels: 1 Width: 64-bit Data Rate: 6400 MT/s
CPU 0 runs traces/spec2k17/server_016.champsimtrace.xz
.xz
BTB has LRU replacement policy
ITLB has LRU replacement policy
DTLB has LRU replacement policy
STLB has LRU replacement policy
L1I has LRU replacement policy
CPU 0 l1d next line prefetcher
L1D has LRU replacement policy
Initialize SRRIP state for L2C
Initialize DRRIP state for LLC
Offsets elements: 
Potential of Offsets elements: 
rewards of Offsets elements: 
Printing Sanity1
offset list size1594
Heartbeat CPU 0 instructions: 10000001 cycles: 2821823 heartbeat IPC: 3.54381 cumulative IPC: 3.54381 (Simulation time: 0 hr 0 min 36 sec) 
Heartbeat CPU 0 instructions: 20000001 cycles: 5638931 heartbeat IPC: 3.54974 cumulative IPC: 3.54677 (Simulation time: 0 hr 1 min 12 sec) 
Heartbeat CPU 0 instructions: 30000000 cycles: 8452846 heartbeat IPC: 3.55377 cumulative IPC: 3.5491 (Simulation time: 0 hr 1 min 49 sec) 
Heartbeat CPU 0 instructions: 40000000 cycles: 11560829 heartbeat IPC: 3.21752 cumulative IPC: 3.45996 (Simulation time: 0 hr 2 min 12 sec) 
Heartbeat CPU 0 instructions: 50000001 cycles: 14827303 heartbeat IPC: 3.06141 cumulative IPC: 3.37216 (Simulation time: 0 hr 2 min 27 sec) 

Warmup complete CPU 0 instructions: 50000001 cycles: 14827303 (Simulation time: 0 hr 2 min 27 sec) 

Heartbeat CPU 0 instructions: 60000001 cycles: 29265334 heartbeat IPC: 0.692615 cumulative IPC: 0.692615 (Simulation time: 0 hr 3 min 4 sec) 
Heartbeat CPU 0 instructions: 70000001 cycles: 59349577 heartbeat IPC: 0.3324 cumulative IPC: 0.449213 (Simulation time: 0 hr 3 min 59 sec) 
Heartbeat CPU 0 instructions: 80000000 cycles: 90419411 heartbeat IPC: 0.321856 cumulative IPC: 0.396867 (Simulation time: 0 hr 4 min 56 sec) 
Offsets elements: 
Potential of Offsets elements: 
rewards of Offsets elements: 0 1 0 0 0 2 0 0 1 0 2 327 0 0 1 0 0 0 0 0 1 2 0 0 0 0 0 0 1 0 0 0 4 0 0 0 2 0 1 0 34 13 1 1 1 0 0 0 0 3 4 0 0 0 0 4 7 2 1 81 0 129 0 1 0 0 0 0 0 0 0 0 1 2 40 0 0 0 0 0 0 9 0 0 0 28 15 0 0 0 0 0 0 0 0 12 12 1 1 2 0 3 0 1 0 20 35 1 0 1 0 0 143 0 3 0 0 0 102 0 0 0 0 0 0 0 0 0 0 0 0 0 0 1 2 1 0 0 0 84 0 0 0 1 0 0 0 2 0 0 0 21 1 1 41 0 0 0 0 4 0 0 0 0 0 0 1 0 1 0 0 0 0 0 0 3 0 0 2 19 0 0 0 0 0 0 105 1 38 0 0 0 91 0 0 4 1 1 0 1 0 0 0 0 2 2 0 0 0 0 0 0 0 0 0 0 0 1 1 2 0 0 0 0 0 0 0 0 0 0 0 0 0 0 0 5 64 0 0 3 0 0 0 2 0 0 0 28 0 0 0 0 1 0 93 1 36 0 0 1 1 0 0 3 4 0 2 0 1 2 0 1 2 0 23 2 2 5 0 0 0 0 0 0 0 0 0 2 2 5 1 1 0 1 0 0 0 0 0 1 0 0 0 0 2 3 3 58 0 0 0 0 0 0 0 0 0 4 0 0 0 1 0 83 5 3 0 0 0 1 0 0 74 0 1 1 0 1 0 0 1 0 0 0 0 2 0 0 1 0 2 0 0 0 54 6 0 25 161 2 2 0 1 0 0 1 0 0 0 0 2 2 0 0 0 0 0 0 0 0 0 0 0 0 0 1 5 2 1 0 0 1 0 0 1 12 0 0 0 1 1 0 0 76 0 132 94 88 8 0 0 3 0 0 0 0 0 0 2 5 0 2 0 0 0 1 0 0 0 1 0 0 0 72 5 2 1 2 1 0 5 0 2 0 1 0 0 0 4 0 1 0 0 0 0 125 2 2 0 5 1 0 0 0 0 0 0 0 0 0 0 0 0 0 0 2 0 1 0 0 0 0 0 2 0 0 0 0 1 1 5 2 0 1 0 0 0 0 0 1 7 0 0 1 24 0 0 1 1 1 0 0 0 0 0 0 87 1 0 4 2 99 0 1 2 19 0 3 0 1 1 0 0 0 0 1 1 0 0 1 0 0 0 0 0 0 0 1 0 0 0 1 0 0 0 0 0 2 3 0 0 1 0 5 6 0 0 0 0 0 0 3 0 0 2 0 0 1 0 0 0 0 0 0 34 0 0 0 1 0 0 0 0 0 0 1 0 0 0 0 0 0 1 2 0 0 3 0 0 3 0 0 0 0 6 2 0 0 0 0 1 0 0 0 0 0 0 0 0 0 2 0 0 0 1 0 0 0 0 2 0 1 0 0 0 0 1 0 0 0 3 0 0 0 1 0 0 0 0 0 0 0 22 0 0 0 3 0 0 0 2 0 0 1 1 3 0 1 0 1 0 0 101 0 0 0 0 1 0 0 0 1 4 3 0 134 0 0 4 2 2 0 42 0 0 0 3 1 0 0 0 0 0 0 0 0 0 0 1 0 0 1 0 0 2 1 0 1 2 0 0 0 0 0 1 0 0 0 0 2 1 1 0 3 0 0 0 0 0 1 0 0 0 0 1 0 0 0 0 0 0 0 0 0 0 0 0 0 4 0 7 0 1 2 0 0 1 0 0 1 1 0 0 0 0 0 0 0 1 10 0 0 0 0 1 0 0 0 28 0 0 0 1 0 10 48 0 2 2 2 1 0 2 0 0 0 0 0 0 0 0 8 1 0 0 0 3 4 2 0 0 0 2 0 0 5 6 0 2 3 7 37 4 1 0 0 2 0 0 1 3 0 1 0 4 0 0 3 0 0 0 0 1 0 0 0 0 103 80 41 0 0 0 215 0 0 2 0 0 0 4 0 0 0 2 1 0 0 2 1 0 0 2 0 0 1 0 0 0 2 0 0 0 0 58 1 2 0 0 0 0 8 0 0 1 0 5 0 0 0 0 0 0 2 0 0 0 0 0 0 0 0 1 1 0 0 0 1 0 0 0 1 0 0 0 0 0 0 0 0 0 0 29 0 0 0 0 14 0 0 0 0 0 4 2 1 0 0 0 0 0 0 0 0 0 0 2 0 0 2 0 0 0 0 0 0 0 0 0 0 3 0 0 0 0 0 0 0 0 0 0 0 0 0 0 0 1 0 0 18 0 0 0 53 0 0 0 0 0 0 1 6 0 0 3 0 0 0 0 2 2 0 0 2 0 48 1 0 0 18 11 0 0 0 0 2 1 37 0 0 0 0 0 0 0 0 0 1 1 1 1 0 0 0 0 0 0 0 0 0 0 0 0 0 0 31 1 1 1 1 1 6 0 2 0 0 0 0 0 0 0 0 0 0 0 2 1 0 0 0 0 0 1 0 1 0 1 0 0 0 0 0 0 1 0 1 3 0 0 0 0 2 0 0 0 0 7 10 5 0 0 0 0 0 0 0 0 0 0 0 0 3 1 0 2 1 0 0 0 0 0 0 4 0 0 0 1 0 0 0 1 1 55 0 0 0 0 0 0 0 1 0 1 0 0 0 1 0 0 0 0 166 0 0 0 0 0 1 1 1 0 0 1 0 0 1 0 0 3 0 0 0 1 0 0 0 0 0 0 0 0 0 0 0 0 0 2 0 0 2 1 0 1 0 0 0 0 0 0 0 0 0 0 0 0 0 0 0 2 0 1 1 6 4 0 0 0 0 0 0 0 0 0 1 0 0 0 0 0 0 0 2 0 0 0 0 0 10 3 0 3 0 3 0 0 0 1 1 0 0 1 0 4 5 0 0 5 3 0 0 1 0 2 0 0 0 1 1 0 0 0 2 2 1 0 1 0 7 1 0 0 0 0 1 3 0 0 0 0 14 109 0 0 1 2 0 0 3 7 1 0 0 0 0 0 1 0 1 2 60 0 1 6 1 2 0 1 0 0 1 3 2 0 0 0 115 0 0 0 0 0 0 0 0 0 1 0 0 1 0 0 0 0 0 0 0 1 1 0 2 0 0 0 0 0 84 0 0 0 0 0 4 0 0 0 0 2 1 0 0 0 0 2 0 2 2 0 0 0 0 0 0 0 1 0 4 0 0 1 0 0 0 0 2 1 0 0 0 1 0 0 0 0 0 0 0 0 0 0 0 0 0 0 5 0 0 0 1 0 1 0 0 0 0 0 0 0 0 0 0 0 0 0 0 0 1 0 0 0 0 0 0 0 0 0 0 0 0 0 14 0 1 0 3 1 0 3 1 1 0 1 1 4 0 0 3 0 0 0 0 2 1 0 0 4 2 0 0 0 2 0 0 4 1 0 3 0 2 1 1 6 0 4 1 4 0 0 3 4 1 0 0 0 0 6 0 0 1 0 0 0 0 6 0 0 1 3 0 0 2 0 0 0 0 0 0 0 0 0 2 0 0 0 0 0 56 0 3 2 0 0 2 0 0 0 0 0 0 1 0 1 4 0 0 0 0 0 1 0 1 0 0 0 0 
Printing Sanity2
Heartbeat CPU 0 instructions: 90000000 cycles: 120432846 heartbeat IPC: 0.333184 cumulative IPC: 0.378768 (Simulation time: 0 hr 5 min 50 sec) 
Heartbeat CPU 0 instructions: 100000000 cycles: 150893055 heartbeat IPC: 0.328297 cumulative IPC: 0.367469 (Simulation time: 0 hr 6 min 43 sec) 
*** Reached end of trace for Core: 0 Repeating trace: traces/spec2k17/server_016.champsimtrace.xz
Heartbeat CPU 0 instructions: 110000000 cycles: 180729472 heartbeat IPC: 0.335161 cumulative IPC: 0.361659 (Simulation time: 0 hr 7 min 41 sec) 
Heartbeat CPU 0 instructions: 120000003 cycles: 211285056 heartbeat IPC: 0.327273 cumulative IPC: 0.356311 (Simulation time: 0 hr 8 min 36 sec) 
Heartbeat CPU 0 instructions: 130000000 cycles: 241495534 heartbeat IPC: 0.331011 cumulative IPC: 0.352939 (Simulation time: 0 hr 9 min 33 sec) 
Heartbeat CPU 0 instructions: 140000000 cycles: 266117161 heartbeat IPC: 0.406147 cumulative IPC: 0.358152 (Simulation time: 0 hr 10 min 21 sec) 
Heartbeat CPU 0 instructions: 150000003 cycles: 280554317 heartbeat IPC: 0.692657 cumulative IPC: 0.376326 (Simulation time: 0 hr 11 min 0 sec) 
Heartbeat CPU 0 instructions: 160000001 cycles: 294991563 heartbeat IPC: 0.692653 cumulative IPC: 0.392627 (Simulation time: 0 hr 11 min 39 sec) 
Heartbeat CPU 0 instructions: 170000000 cycles: 320322212 heartbeat IPC: 0.394779 cumulative IPC: 0.392805 (Simulation time: 0 hr 12 min 30 sec) 
Heartbeat CPU 0 instructions: 180000003 cycles: 351143065 heartbeat IPC: 0.324456 cumulative IPC: 0.386542 (Simulation time: 0 hr 13 min 31 sec) 
Heartbeat CPU 0 instructions: 190000000 cycles: 381796399 heartbeat IPC: 0.326229 cumulative IPC: 0.381504 (Simulation time: 0 hr 14 min 29 sec) 
Heartbeat CPU 0 instructions: 200000000 cycles: 411585076 heartbeat IPC: 0.335698 cumulative IPC: 0.378064 (Simulation time: 0 hr 15 min 25 sec) 
*** Reached end of trace for Core: 0 Repeating trace: traces/spec2k17/server_016.champsimtrace.xz
Heartbeat CPU 0 instructions: 210000000 cycles: 441824702 heartbeat IPC: 0.330692 cumulative IPC: 0.37471 (Simulation time: 0 hr 16 min 22 sec) 
Heartbeat CPU 0 instructions: 220000000 cycles: 472090335 heartbeat IPC: 0.330408 cumulative IPC: 0.371777 (Simulation time: 0 hr 17 min 22 sec) 
Heartbeat CPU 0 instructions: 230000000 cycles: 502216820 heartbeat IPC: 0.331934 cumulative IPC: 0.369314 (Simulation time: 0 hr 18 min 13 sec) 
Heartbeat CPU 0 instructions: 240000000 cycles: 531477376 heartbeat IPC: 0.341757 cumulative IPC: 0.367754 (Simulation time: 0 hr 19 min 9 sec) 
Heartbeat CPU 0 instructions: 250000003 cycles: 545951002 heartbeat IPC: 0.690912 cumulative IPC: 0.37656 (Simulation time: 0 hr 19 min 44 sec) 
Finished CPU 0 instructions: 200000002 cycles: 531123699 cumulative IPC: 0.37656 (Simulation time: 0 hr 19 min 44 sec) 

ChampSim completed all CPUs

Region of Interest Statistics

CPU 0 cumulative IPC: 0.37656 instructions: 200000002 cycles: 531123699
ITLB TOTAL     ACCESS:   37665320  HIT:   36255112  MISS:    1410208  HIT %:     96.256  MISS %:    3.74405   MPKI: 7.05104
ITLB LOAD TRANSLATION ACCESS:   37665320  HIT:   36255112  MISS:    1410208  HIT %:     96.256  MISS %:    3.74405   MPKI: 7.05104
ITLB PREFETCH  REQUESTED:          0  ISSUED:          0  USEFUL:          0  USELESS:          0
ITLB USEFUL LOAD PREFETCHES:          0 PREFETCH ISSUED TO LOWER LEVEL:          0  ACCURACY: -nan
ITLB TIMELY PREFETCHES:          0 LATE PREFETCHES: 0 DROPPED PREFETCHES: 0
ITLB PREFETCHES SAME FILL-ORIGIN LEVEL: 0 DIFFERENT FILL-ORIGIN LEVEL: 0
ITLB AVERAGE MISS LATENCY: 9.06251 cycles
ITLB RQ	ACCESS:   42305683	FORWARD:          0	MERGED:    4300532	TO_CACHE:   38005151

DTLB TOTAL     ACCESS:   39343654  HIT:   37972804  MISS:    1370850  HIT %:    96.5157  MISS %:     3.4843   MPKI: 6.85425
DTLB LOAD TRANSLATION ACCESS:   39343654  HIT:   37972804  MISS:    1370850  HIT %:    96.5157  MISS %:     3.4843   MPKI: 6.85425
DTLB PREFETCH  REQUESTED:          0  ISSUED:          0  USEFUL:          0  USELESS:          0
DTLB USEFUL LOAD PREFETCHES:          0 PREFETCH ISSUED TO LOWER LEVEL:          0  ACCURACY: -nan
DTLB TIMELY PREFETCHES:          0 LATE PREFETCHES: 0 DROPPED PREFETCHES: 0
DTLB PREFETCHES SAME FILL-ORIGIN LEVEL: 0 DIFFERENT FILL-ORIGIN LEVEL: 0
DTLB AVERAGE MISS LATENCY: 9.29865 cycles
DTLB RQ	ACCESS:   50771594	FORWARD:          0	MERGED:   11375895	TO_CACHE:   39395699

STLB TOTAL     ACCESS:    4680085  HIT:    4672176  MISS:       7909  HIT %:     99.831  MISS %:   0.168993   MPKI: 0.039545
STLB LOAD TRANSLATION ACCESS:    2781058  HIT:    2773398  MISS:       7660  HIT %:    99.7246  MISS %:   0.275435   MPKI: 0.0383
STLB TRANSLATION FROM L1D PREFETCHER ACCESS:    1899027  HIT:    1898778  MISS:        249  HIT %:    99.9869  MISS %:   0.013112   MPKI: 0.001245
STLB PREFETCH  REQUESTED:          0  ISSUED:          0  USEFUL:        208  USELESS:         39
STLB USEFUL LOAD PREFETCHES:        208 PREFETCH ISSUED TO LOWER LEVEL:          0  ACCURACY: inf
STLB TIMELY PREFETCHES:        208 LATE PREFETCHES: 131 DROPPED PREFETCHES: 7497
STLB PREFETCHES SAME FILL-ORIGIN LEVEL: 0 DIFFERENT FILL-ORIGIN LEVEL: 0
STLB AVERAGE MISS LATENCY: 53299.1 cycles
STLB RQ	ACCESS:    4862564	FORWARD:          0	MERGED:     174255	TO_CACHE:    4688309

STLB Hit, L1D data hit: 0
STLB Hit, L2C data hit: 0
STLB Hit, LLC data hit: 0
STLB Hit, LLC data miss: 0
STLB STLB hints to L2: 0
L1D TOTAL     ACCESS:   51154134  HIT:   46788273  MISS:    4365861  HIT %:    91.4653  MISS %:    8.53472   MPKI: 21.8293
L1D LOAD      ACCESS:   29959464  HIT:   27921464  MISS:    2038000  HIT %:    93.1975  MISS %:    6.80252   MPKI: 10.19
L1D RFO       ACCESS:   19422218  HIT:   18585401  MISS:     836817  HIT %:    95.6914  MISS %:    4.30856   MPKI: 4.18408
L1D PREFETCH  ACCESS:    1772452  HIT:     281408  MISS:    1491044  HIT %:    15.8768  MISS %:    84.1232   MPKI: 7.45522
AGUS PREFETCH L1 MISS: 0
L1D PREFETCH  REQUESTED:    4199789  ISSUED:    4199789  USEFUL:     327637  USELESS:    1163346
L1D USEFUL LOAD PREFETCHES:     327637 PREFETCH ISSUED TO LOWER LEVEL:    1648777  ACCURACY: 19.8715
L1D TIMELY PREFETCHES:     327637 LATE PREFETCHES: 156832 DROPPED PREFETCHES: 8300
L1D PREFETCHES SAME FILL-ORIGIN LEVEL: 1648777 DIFFERENT FILL-ORIGIN LEVEL: 0
L1D AVERAGE MISS LATENCY: 1.00753e+07 cycles
L1D RQ	ACCESS:   40505121	FORWARD:          0	MERGED:   10215553	TO_CACHE:   30043661
L1D WQ	ACCESS:   20857481	FORWARD:     245988	MERGED:     129548	TO_CACHE:   20727933
L1D PQ	ACCESS:    2118283	FORWARD:          0	MERGED:      36696	TO_CACHE:    2081506

L1D UNIQUE REGIONS ACCESSED: 0
L1D REGIONS CONFLICTS: 0
L1D Cross Page Prefetch Requests: 59254
L1D Same Page Prefetch Requests: 2503412
L1D ROI Sum of L1D PQ occupancy: 27288435
L1D PREFETCHES PUSHED FROM L2C: 0
L1I TOTAL     ACCESS:   41219148  HIT:   33843936  MISS:    7375212  HIT %:    82.1073  MISS %:    17.8927   MPKI: 36.8761
L1I LOAD      ACCESS:   41219148  HIT:   33843936  MISS:    7375212  HIT %:    82.1073  MISS %:    17.8927   MPKI: 36.8761
L1I PREFETCH  REQUESTED:          0  ISSUED:          0  USEFUL:          0  USELESS:          0
L1I USEFUL LOAD PREFETCHES:          0 PREFETCH ISSUED TO LOWER LEVEL:          0  ACCURACY: -nan
L1I TIMELY PREFETCHES:          0 LATE PREFETCHES: 0 DROPPED PREFETCHES: 0
L1I PREFETCHES SAME FILL-ORIGIN LEVEL: 0 DIFFERENT FILL-ORIGIN LEVEL: 0
L1I AVERAGE MISS LATENCY: 17.5909 cycles
L1I RQ	ACCESS:   60006320	FORWARD:          0	MERGED:   17700637	TO_CACHE:   42305683

BTB TOTAL     ACCESS:   31149502  HIT:   22487623  MISS:    8661879  HIT %:    72.1926  MISS %:    27.8074   MPKI: 43.3094
BTB BRANCH_DIRECT_JUMP	ACCESS:    1790889  HIT:    1185918  MISS:     604971
BTB BRANCH_INDIRECT	ACCESS:    9233189  HIT:    5986023  MISS:    3247166
BTB BRANCH_CONDITIONAL	ACCESS:   13716226  HIT:   12843151  MISS:     873075
BTB BRANCH_DIRECT_CALL	ACCESS:    2729399  HIT:    1310065  MISS:    1419334
BTB BRANCH_INDIRECT_CALL	ACCESS:     475210  HIT:     188709  MISS:     286501
BTB BRANCH_RETURN	ACCESS:    3204589  HIT:     973757  MISS:    2230832
BTB BRANCH_OTHER ACCESS:          0  HIT:          0  MISS:          0

L2C TOTAL     ACCESS:   13274796  HIT:   11515698  MISS:    1759098  HIT %:    86.7486  MISS %:    13.2514   MPKI: 8.79549
L2C LOAD      ACCESS:    9256300  HIT:    8133390  MISS:    1122910  HIT %:    87.8687  MISS %:    12.1313   MPKI: 5.61455
L2C DATA LOAD MPKI: 1.39907
L2C INSTRUCTION LOAD MPKI: 4.21548
L2C RFO       ACCESS:     835901  HIT:     659050  MISS:     176851  HIT %:    78.8431  MISS %:    21.1569   MPKI: 0.884255
L2C PREFETCH  ACCESS:    1648549  HIT:    1232392  MISS:     416157  HIT %:    74.7562  MISS %:    25.2438   MPKI: 2.08078
AGUS PREFETCH L1 MISS: 0
L2C DATA PREFETCH MPKI: 2.08078
L2C INSTRUCTION PREFETCH MPKI: 0
L2C WRITEBACK ACCESS:    1513334  HIT:    1480001  MISS:      33333  HIT %:    97.7974  MISS %:    2.20262   MPKI: 0.166665
L2C LOAD TRANSLATION ACCESS:       8417  HIT:       1996  MISS:       6421  HIT %:    23.7139  MISS %:    76.2861   MPKI: 0.032105
L2C TRANSLATION FROM L1D PREFETCHER ACCESS:      12295  HIT:       8869  MISS:       3426  HIT %:     72.135  MISS %:     27.865   MPKI: 0.01713
L2C PREFETCH  REQUESTED:          0  ISSUED:          0  USEFUL:      23987  USELESS:     395762
L2C USEFUL LOAD PREFETCHES:      23987 PREFETCH ISSUED TO LOWER LEVEL:     416157  ACCURACY: 5.76393
L2C TIMELY PREFETCHES:      23987 LATE PREFETCHES: 0 DROPPED PREFETCHES: 0
L2C PREFETCHES SAME FILL-ORIGIN LEVEL: 0 DIFFERENT FILL-ORIGIN LEVEL: 0
L2C AVERAGE MISS LATENCY: 40.5093 cycles
L2C RQ	ACCESS:   10113008	FORWARD:          0	MERGED:          0	TO_CACHE:   10112913
L2C WQ	ACCESS:    1513334	FORWARD:        323	MERGED:          0	TO_CACHE:    1513334
L2C PQ	ACCESS:    1648777	FORWARD:          0	MERGED:          0	TO_CACHE:    1648549

L2C Instructions Evicting Data 401937
L2C Translations Evicting Data 6164
L2C Data Evicting Data 482164
L2C Instructions Evicting Instructions 437779
L2C Translations Evicting Instructions 3568
L2C Data Evicting Instructions 384398
L2C Instructions Evicting Translations 3380
L2C Translations Evicting Translations 115
L2C Data Evicting Translations 6260
L2C Dense regions hint from L2: 0
PSCL5 TOTAL     ACCESS:      15418  HIT:      15418  MISS:          0  HIT %:        100  MISS %:          0   MPKI: 0
PSCL5 LOAD TRANSLATION ACCESS:       7541  HIT:       7541  MISS:          0  HIT %:        100  MISS %:          0   MPKI: 0
PSCL5 TRANSLATION FROM L1D PREFETCHER ACCESS:       7877  HIT:       7877  MISS:          0  HIT %:        100  MISS %:          0   MPKI: 0
PSCL5 PREFETCH  REQUESTED:          0  ISSUED:          0  USEFUL:          0  USELESS:          0
PSCL5 USEFUL LOAD PREFETCHES:          0 PREFETCH ISSUED TO LOWER LEVEL:          0  ACCURACY: -nan
PSCL5 TIMELY PREFETCHES:          0 LATE PREFETCHES: 0 DROPPED PREFETCHES: 0
PSCL5 PREFETCHES SAME FILL-ORIGIN LEVEL: 0 DIFFERENT FILL-ORIGIN LEVEL: 0

PSCL4 TOTAL     ACCESS:      12737  HIT:      12698  MISS:         39  HIT %:    99.6938  MISS %:   0.306195   MPKI: 0.000195
PSCL4 LOAD TRANSLATION ACCESS:       7004  HIT:       6965  MISS:         39  HIT %:    99.4432  MISS %:   0.556825   MPKI: 0.000195
PSCL4 TRANSLATION FROM L1D PREFETCHER ACCESS:       5733  HIT:       5733  MISS:          0  HIT %:        100  MISS %:          0   MPKI: 0
PSCL4 PREFETCH  REQUESTED:          0  ISSUED:          0  USEFUL:          0  USELESS:          0
PSCL4 USEFUL LOAD PREFETCHES:          0 PREFETCH ISSUED TO LOWER LEVEL:          0  ACCURACY: -nan
PSCL4 TIMELY PREFETCHES:          0 LATE PREFETCHES: 0 DROPPED PREFETCHES: 0
PSCL4 PREFETCHES SAME FILL-ORIGIN LEVEL: 0 DIFFERENT FILL-ORIGIN LEVEL: 0

PSCL3 TOTAL     ACCESS:      15026  HIT:      14987  MISS:         39  HIT %:    99.7404  MISS %:    0.25955   MPKI: 0.000195
PSCL3 LOAD TRANSLATION ACCESS:       7369  HIT:       7330  MISS:         39  HIT %:    99.4708  MISS %:   0.529244   MPKI: 0.000195
PSCL3 TRANSLATION FROM L1D PREFETCHER ACCESS:       7657  HIT:       7657  MISS:          0  HIT %:        100  MISS %:          0   MPKI: 0
PSCL3 PREFETCH  REQUESTED:          0  ISSUED:          0  USEFUL:          0  USELESS:          0
PSCL3 USEFUL LOAD PREFETCHES:          0 PREFETCH ISSUED TO LOWER LEVEL:          0  ACCURACY: -nan
PSCL3 TIMELY PREFETCHES:          0 LATE PREFETCHES: 0 DROPPED PREFETCHES: 0
PSCL3 PREFETCHES SAME FILL-ORIGIN LEVEL: 0 DIFFERENT FILL-ORIGIN LEVEL: 0

PSCL2 TOTAL     ACCESS:      11324  HIT:      10506  MISS:        818  HIT %:    92.7764  MISS %:     7.2236   MPKI: 0.00409
PSCL2 LOAD TRANSLATION ACCESS:       7557  HIT:       6739  MISS:        818  HIT %:    89.1756  MISS %:    10.8244   MPKI: 0.00409
PSCL2 TRANSLATION FROM L1D PREFETCHER ACCESS:       3767  HIT:       3767  MISS:          0  HIT %:        100  MISS %:          0   MPKI: 0
PSCL2 PREFETCH  REQUESTED:          0  ISSUED:          0  USEFUL:          0  USELESS:          0
PSCL2 USEFUL LOAD PREFETCHES:          0 PREFETCH ISSUED TO LOWER LEVEL:          0  ACCURACY: -nan
PSCL2 TIMELY PREFETCHES:          0 LATE PREFETCHES: 0 DROPPED PREFETCHES: 0
PSCL2 PREFETCHES SAME FILL-ORIGIN LEVEL: 0 DIFFERENT FILL-ORIGIN LEVEL: 0

LLC TOTAL     ACCESS:    1978764  HIT:    1860258  MISS:     118506  HIT %:    94.0111  MISS %:    5.98889   MPKI: 0.59253
LLC LOAD      ACCESS:    1122910  HIT:    1096506  MISS:      26404  HIT %:    97.6486  MISS %:    2.35139   MPKI: 0.13202
LLC RFO       ACCESS:     176850  HIT:     121022  MISS:      55828  HIT %:     68.432  MISS %:     31.568   MPKI: 0.27914
LLC PREFETCH  ACCESS:     416147  HIT:     381306  MISS:      34841  HIT %:    91.6277  MISS %:    8.37228   MPKI: 0.174205
AGUS PREFETCH L1 MISS: 0
LLC WRITEBACK ACCESS:     253010  HIT:     252162  MISS:        848  HIT %:    99.6648  MISS %:   0.335165   MPKI: 0.00424
LLC LOAD TRANSLATION ACCESS:       6421  HIT:       5909  MISS:        512  HIT %:    92.0262  MISS %:    7.97384   MPKI: 0.00256
LLC TRANSLATION FROM L1D PREFETCHER ACCESS:       3426  HIT:       3353  MISS:         73  HIT %:    97.8692  MISS %:    2.13076   MPKI: 0.000365
LLC PREFETCH  REQUESTED:          0  ISSUED:          0  USEFUL:       3322  USELESS:      32819
LLC USEFUL LOAD PREFETCHES:       3322 PREFETCH ISSUED TO LOWER LEVEL:      34841  ACCURACY: 9.53474
LLC TIMELY PREFETCHES:       3322 LATE PREFETCHES: 0 DROPPED PREFETCHES: 0
LLC PREFETCHES SAME FILL-ORIGIN LEVEL: 0 DIFFERENT FILL-ORIGIN LEVEL: 0
LLC AVERAGE MISS LATENCY: 164.191 cycles
LLC RQ	ACCESS:    1309608	FORWARD:          0	MERGED:          0	TO_CACHE:    1309607
LLC WQ	ACCESS:     253010	FORWARD:         11	MERGED:          0	TO_CACHE:     253010
LLC PQ	ACCESS:     416157	FORWARD:          0	MERGED:          0	TO_CACHE:     416147

LLC Dense regions hint to LLC: 0

RAW hits: 1227918
Loads Generated: 41733040
Loads sent to L1D: 40505121
Stores Generated: 20857481
Stores sent to L1D: 20857481
Major fault: 0 Minor fault: 2472
Allocated PAGES: 2472
CPU 0 L1D 
Prefetch count 1996199 BOP and RL 

DRAM Statistics
 CHANNEL 0
 RQ ROW_BUFFER_HIT:      43170  ROW_BUFFER_MISS:      74464
 DBUS_CONGESTED:         50
 WQ ROW_BUFFER_HIT:       5656  ROW_BUFFER_MISS:      56123  FULL:          0

 AVG_CONGESTED_CYCLE: 5
 All warmup complete: 2
Channel 0 Bank busy for read cycles: 0
Channel 0 Bank busy for write cycles: 0
Channel 0
Rank 0
0banks busy for read cycles: 522166081
0banks busy for write cycles: 14296
1banks busy for read cycles: 2732976
1banks busy for write cycles: 1680045
2banks busy for read cycles: 1185149
2banks busy for write cycles: 572308
3banks busy for read cycles: 310196
3banks busy for write cycles: 250800
4banks busy for read cycles: 220874
4banks busy for write cycles: 172811
5banks busy for read cycles: 168698
5banks busy for write cycles: 154182
6banks busy for read cycles: 170755
6banks busy for write cycles: 149056
7banks busy for read cycles: 190547
7banks busy for write cycles: 168985
8banks busy for read cycles: 407189
8banks busy for write cycles: 408752

CPU 0 Branch Prediction Accuracy: 99.773% MPKI: 0.39801 Average ROB Occupancy at Mispredict: 35.9206
Branch types
NOT_BRANCH: 164926668 82.4633%
BRANCH_DIRECT_JUMP: 1790889 0.895444%
BRANCH_INDIRECT: 9233189 4.61659%
BRANCH_CONDITIONAL: 17640059 8.82003%
BRANCH_DIRECT_CALL: 2729399 1.3647%
BRANCH_INDIRECT_CALL: 475210 0.237605%
BRANCH_RETURN: 3204589 1.60229%
BRANCH_OTHER: 0 0%

DRAM PAGES: 1048576
Allocated PAGES: 2472
