
*** ChampSim Multicore Out-of-Order Simulator ***

Warmup Instructions: 50000000
Simulation Instructions: 200000000
Number of CPUs: 1
LLC sets: 2048
LLC ways: 16
Off-chip DRAM Size: 4096 MB Channels: 1 Width: 64-bit Data Rate: 6400 MT/s
CPU 0 runs traces/spec2k17/server_035.champsimtrace.xz
.xz
BTB has LRU replacement policy
ITLB has LRU replacement policy
DTLB has LRU replacement policy
STLB has LRU replacement policy
L1I has LRU replacement policy
CPU 0 l1d next line prefetcher
L1D has LRU replacement policy
Initialize SRRIP state for L2C
Initialize DRRIP state for LLC
Offsets elements: 
Potential of Offsets elements: 
rewards of Offsets elements: 
Printing Sanity1
offset list size916
Heartbeat CPU 0 instructions: 10000003 cycles: 2823809 heartbeat IPC: 3.54132 cumulative IPC: 3.54132 (Simulation time: 0 hr 0 min 31 sec) 
Heartbeat CPU 0 instructions: 20000000 cycles: 5647150 heartbeat IPC: 3.5419 cumulative IPC: 3.54161 (Simulation time: 0 hr 1 min 1 sec) 
Heartbeat CPU 0 instructions: 30000002 cycles: 8466981 heartbeat IPC: 3.54631 cumulative IPC: 3.54318 (Simulation time: 0 hr 1 min 30 sec) 
Offsets elements: 
Potential of Offsets elements: 
rewards of Offsets elements: 0 1 1 0 0 0 0 0 0 1 2 1 0 17 0 0 0 4 8 0 0 0 0 43 3 0 0 1 1 0 0 0 0 0 0 0 2 0 0 5 0 0 0 0 0 3 0 0 0 0 0 28 0 0 0 35 0 0 0 0 0 0 0 0 0 0 0 133 0 0 0 2 11 0 1 2 0 0 0 0 0 0 0 0 4 1 9 1 2 4 69 6 10 1 3 9 47 57 6 169 2 1 40 10 7 5 10 14 12 10 13 10 13 5 14 13 10 1 21 20 16 29 37 12 62 0 0 20 4 0 0 3 0 0 0 0 0 0 0 0 0 0 0 0 0 2 0 0 0 0 0 0 6 0 0 0 6 0 3 0 0 0 0 0 4 92 0 0 0 0 0 0 0 0 45 0 0 44 0 0 0 2 0 0 0 0 0 0 0 0 0 0 0 0 3 0 0 9 2 3 4 25 64 2 0 0 1 0 0 0 0 0 21 0 0 2 0 76 93 1 0 133 0 0 4 8 0 5 0 0 0 0 0 0 0 132 0 0 0 0 3 0 0 0 0 0 2 0 0 0 0 5 0 0 0 0 0 5 0 0 0 0 0 0 14 0 0 49 0 0 0 0 0 3 0 3 0 0 0 1 0 1 1 2 2 0 0 0 0 0 5 3 4 1 1 1 0 12 33 0 0 0 0 4 4 0 0 0 0 0 0 0 0 6 5 2 0 2 3 0 0 0 0 0 0 10 18 13 10 12 74 49 51 56 0 0 0 0 0 0 11 40 1 0 0 0 3 25 0 0 0 0 0 3 5 0 0 0 12 13 7 0 0 0 28 3 5 0 17 1 0 0 3 2 6 4 66 40 8 4 8 7 2 0 0 0 0 3 0 0 0 0 0 0 0 0 0 4 0 0 0 0 1 0 0 2 0 0 0 0 2 0 0 0 0 0 1 0 0 0 0 0 0 0 0 0 0 0 0 0 20 53 37 35 14 37 27 0 0 0 0 0 0 0 0 0 0 0 0 0 0 0 0 0 0 0 7 5 0 13 0 0 0 4 0 0 0 0 3 0 0 0 0 0 0 0 0 0 0 0 0 0 0 1 1 0 7 23 0 0 0 0 0 0 0 0 66 0 0 0 0 0 0 0 0 1 2 0 0 2 0 0 0 4 3 0 0 0 1 0 0 0 9 10 0 0 0 0 0 1 0 4 4 0 0 0 0 0 0 8 0 0 1 0 1 0 0 0 0 0 0 5 2 0 0 2 0 0 0 0 0 0 0 0 0 0 0 0 2 0 0 1 0 0 4 0 0 0 1 14 0 0 0 14 8 3 1 0 0 0 0 0 0 2 3 0 0 0 0 0 4 9 4 0 0 0 1 0 3 2 2 0 0 0 0 0 0 1 0 0 0 0 0 0 0 10 0 0 0 0 0 0 0 0 0 0 0 3 48 0 0 0 0 0 0 0 0 0 0 0 0 0 0 0 0 0 1 0 0 0 0 0 1 0 0 0 0 0 0 7 0 0 2 1 0 0 1 2 0 3 15 6 0 0 0 9 8 0 0 0 0 0 0 0 0 0 0 0 0 0 0 12 0 0 0 0 1 0 0 0 0 3 5 0 0 0 0 0 0 0 0 0 0 0 0 0 0 2 1 0 0 0 0 0 0 0 0 0 0 0 0 2 1 0 0 0 0 0 0 0 0 0 0 0 0 0 0 11 0 0 0 0 0 0 0 0 0 0 0 0 0 0 0 0 0 0 0 0 0 0 0 0 0 0 0 0 0 1 0 0 0 0 2 0 0 0 0 25 0 0 0 0 0 0 3 3 0 0 0 0 0 0 3 1 3 6 0 9 0 1 0 0 0 0 0 0 0 0 0 0 2 2 0 0 0 0 0 0 1 0 0 3 0 0 0 0 0 0 0 0 0 0 1 0 0 0 0 0 0 0 0 2 4 1 2 1 0 0 0 0 1 1 0 0 0 0 0 0 0 44 3 13 2 1 0 0 0 0 0 0 0 0 0 0 0 0 0 0 0 0 0 0 0 0 2 3 0 0 0 3 5 0 0 0 0 17 
Printing Sanity2
Heartbeat CPU 0 instructions: 40000003 cycles: 11292157 heartbeat IPC: 3.5396 cumulative IPC: 3.54228 (Simulation time: 0 hr 1 min 59 sec) 
Heartbeat CPU 0 instructions: 50000000 cycles: 14110969 heartbeat IPC: 3.54759 cumulative IPC: 3.54334 (Simulation time: 0 hr 2 min 30 sec) 

Warmup complete CPU 0 instructions: 50000004 cycles: 14110970 (Simulation time: 0 hr 2 min 30 sec) 

Heartbeat CPU 0 instructions: 60000000 cycles: 42408300 heartbeat IPC: 0.35339 cumulative IPC: 0.35339 (Simulation time: 0 hr 3 min 28 sec) 
Heartbeat CPU 0 instructions: 70000001 cycles: 70857209 heartbeat IPC: 0.351507 cumulative IPC: 0.352446 (Simulation time: 0 hr 4 min 25 sec) 
Heartbeat CPU 0 instructions: 80000000 cycles: 98990297 heartbeat IPC: 0.355453 cumulative IPC: 0.353443 (Simulation time: 0 hr 5 min 23 sec) 
Heartbeat CPU 0 instructions: 90000000 cycles: 127649900 heartbeat IPC: 0.348923 cumulative IPC: 0.352302 (Simulation time: 0 hr 6 min 20 sec) 
Heartbeat CPU 0 instructions: 100000000 cycles: 155716352 heartbeat IPC: 0.356297 cumulative IPC: 0.353094 (Simulation time: 0 hr 7 min 14 sec) 
*** Reached end of trace for Core: 0 Repeating trace: traces/spec2k17/server_035.champsimtrace.xz
Heartbeat CPU 0 instructions: 110000000 cycles: 183926851 heartbeat IPC: 0.354478 cumulative IPC: 0.353324 (Simulation time: 0 hr 8 min 10 sec) 
Heartbeat CPU 0 instructions: 120000002 cycles: 211954746 heartbeat IPC: 0.356787 cumulative IPC: 0.353815 (Simulation time: 0 hr 9 min 8 sec) 
Heartbeat CPU 0 instructions: 130000001 cycles: 240449417 heartbeat IPC: 0.350943 cumulative IPC: 0.353453 (Simulation time: 0 hr 10 min 4 sec) 
Heartbeat CPU 0 instructions: 140000000 cycles: 269168741 heartbeat IPC: 0.348198 cumulative IPC: 0.352861 (Simulation time: 0 hr 10 min 58 sec) 
Heartbeat CPU 0 instructions: 150000001 cycles: 297164133 heartbeat IPC: 0.357202 cumulative IPC: 0.35329 (Simulation time: 0 hr 11 min 56 sec) 
Heartbeat CPU 0 instructions: 160000000 cycles: 325649946 heartbeat IPC: 0.351052 cumulative IPC: 0.353086 (Simulation time: 0 hr 12 min 52 sec) 
Heartbeat CPU 0 instructions: 170000000 cycles: 353821025 heartbeat IPC: 0.354974 cumulative IPC: 0.353242 (Simulation time: 0 hr 13 min 49 sec) 
Heartbeat CPU 0 instructions: 180000000 cycles: 381831183 heartbeat IPC: 0.357013 cumulative IPC: 0.35353 (Simulation time: 0 hr 14 min 42 sec) 
Heartbeat CPU 0 instructions: 190000000 cycles: 410400212 heartbeat IPC: 0.350029 cumulative IPC: 0.353277 (Simulation time: 0 hr 15 min 37 sec) 
Heartbeat CPU 0 instructions: 200000000 cycles: 438619427 heartbeat IPC: 0.354368 cumulative IPC: 0.35335 (Simulation time: 0 hr 16 min 31 sec) 
*** Reached end of trace for Core: 0 Repeating trace: traces/spec2k17/server_035.champsimtrace.xz
Heartbeat CPU 0 instructions: 210000000 cycles: 467088252 heartbeat IPC: 0.351261 cumulative IPC: 0.353219 (Simulation time: 0 hr 17 min 26 sec) 
Heartbeat CPU 0 instructions: 220000000 cycles: 494731648 heartbeat IPC: 0.36175 cumulative IPC: 0.353709 (Simulation time: 0 hr 18 min 18 sec) 
Heartbeat CPU 0 instructions: 230000000 cycles: 523279849 heartbeat IPC: 0.350285 cumulative IPC: 0.353517 (Simulation time: 0 hr 19 min 15 sec) 
Heartbeat CPU 0 instructions: 240000002 cycles: 551321761 heartbeat IPC: 0.356609 cumulative IPC: 0.353679 (Simulation time: 0 hr 20 min 13 sec) 
Heartbeat CPU 0 instructions: 250000000 cycles: 579890448 heartbeat IPC: 0.350034 cumulative IPC: 0.353495 (Simulation time: 0 hr 21 min 14 sec) 
Finished CPU 0 instructions: 200000002 cycles: 565779528 cumulative IPC: 0.353495 (Simulation time: 0 hr 21 min 14 sec) 

ChampSim completed all CPUs

Region of Interest Statistics

CPU 0 cumulative IPC: 0.353495 instructions: 200000002 cycles: 565779528
ITLB TOTAL     ACCESS:   35623661  HIT:   33579399  MISS:    2044262  HIT %:    94.2615  MISS %:    5.73849   MPKI: 10.2213
ITLB LOAD TRANSLATION ACCESS:   35623661  HIT:   33579399  MISS:    2044262  HIT %:    94.2615  MISS %:    5.73849   MPKI: 10.2213
ITLB PREFETCH  REQUESTED:          0  ISSUED:          0  USEFUL:          0  USELESS:          0
ITLB USEFUL LOAD PREFETCHES:          0 PREFETCH ISSUED TO LOWER LEVEL:          0  ACCURACY: -nan
ITLB TIMELY PREFETCHES:          0 LATE PREFETCHES: 0 DROPPED PREFETCHES: 0
ITLB PREFETCHES SAME FILL-ORIGIN LEVEL: 0 DIFFERENT FILL-ORIGIN LEVEL: 0
ITLB AVERAGE MISS LATENCY: 9.10681 cycles
ITLB RQ	ACCESS:   41314451	FORWARD:          0	MERGED:    5233935	TO_CACHE:   36080516

DTLB TOTAL     ACCESS:   39272882  HIT:   37550015  MISS:    1722867  HIT %:    95.6131  MISS %:    4.38691   MPKI: 8.61433
DTLB LOAD TRANSLATION ACCESS:   39272882  HIT:   37550015  MISS:    1722867  HIT %:    95.6131  MISS %:    4.38691   MPKI: 8.61433
DTLB PREFETCH  REQUESTED:          0  ISSUED:          0  USEFUL:          0  USELESS:          0
DTLB USEFUL LOAD PREFETCHES:          0 PREFETCH ISSUED TO LOWER LEVEL:          0  ACCURACY: -nan
DTLB TIMELY PREFETCHES:          0 LATE PREFETCHES: 0 DROPPED PREFETCHES: 0
DTLB PREFETCHES SAME FILL-ORIGIN LEVEL: 0 DIFFERENT FILL-ORIGIN LEVEL: 0
DTLB AVERAGE MISS LATENCY: 10.0107 cycles
DTLB RQ	ACCESS:   54896362	FORWARD:          0	MERGED:   15553840	TO_CACHE:   39342522

STLB TOTAL     ACCESS:    5544862  HIT:    5509321  MISS:      35541  HIT %:     99.359  MISS %:   0.640972   MPKI: 0.177705
STLB LOAD TRANSLATION ACCESS:    3767129  HIT:    3735064  MISS:      32065  HIT %:    99.1488  MISS %:   0.851179   MPKI: 0.160325
STLB TRANSLATION FROM L1D PREFETCHER ACCESS:    1777733  HIT:    1774257  MISS:       3476  HIT %:    99.8045  MISS %:    0.19553   MPKI: 0.01738
STLB PREFETCH  REQUESTED:          0  ISSUED:          0  USEFUL:       2953  USELESS:        503
STLB USEFUL LOAD PREFETCHES:       2953 PREFETCH ISSUED TO LOWER LEVEL:          0  ACCURACY: inf
STLB TIMELY PREFETCHES:       2953 LATE PREFETCHES: 11 DROPPED PREFETCHES: 56114
STLB PREFETCHES SAME FILL-ORIGIN LEVEL: 0 DIFFERENT FILL-ORIGIN LEVEL: 0
STLB AVERAGE MISS LATENCY: 58.4682 cycles
STLB RQ	ACCESS:    5756106	FORWARD:          0	MERGED:     154269	TO_CACHE:    5601837

STLB Hit, L1D data hit: 0
STLB Hit, L2C data hit: 0
STLB Hit, LLC data hit: 0
STLB Hit, LLC data miss: 0
STLB STLB hints to L2: 0
L1D TOTAL     ACCESS:   56098253  HIT:   51598152  MISS:    4500101  HIT %:    91.9782  MISS %:    8.02182   MPKI: 22.5005
L1D LOAD      ACCESS:   30114419  HIT:   27632976  MISS:    2481443  HIT %:      91.76  MISS %:    8.24005   MPKI: 12.4072
L1D RFO       ACCESS:   24161926  HIT:   23623077  MISS:     538849  HIT %:    97.7698  MISS %:    2.23016   MPKI: 2.69424
L1D PREFETCH  ACCESS:    1821908  HIT:     342099  MISS:    1479809  HIT %:     18.777  MISS %:     81.223   MPKI: 7.39904
AGUS PREFETCH L1 MISS: 0
L1D PREFETCH  REQUESTED:    4000518  ISSUED:    4000517  USEFUL:     257056  USELESS:    1222606
L1D USEFUL LOAD PREFETCHES:     257056 PREFETCH ISSUED TO LOWER LEVEL:    1492426  ACCURACY: 17.224
L1D TIMELY PREFETCHES:     257056 LATE PREFETCHES: 10903 DROPPED PREFETCHES: 57531
L1D PREFETCHES SAME FILL-ORIGIN LEVEL: 1492426 DIFFERENT FILL-ORIGIN LEVEL: 0
L1D AVERAGE MISS LATENCY: 869116 cycles
L1D RQ	ACCESS:   43299090	FORWARD:          0	MERGED:   12761615	TO_CACHE:   30195426
L1D WQ	ACCESS:   24970645	FORWARD:     343261	MERGED:     269709	TO_CACHE:   24700936
L1D PQ	ACCESS:    2011540	FORWARD:          0	MERGED:      21351	TO_CACHE:    1988977

L1D UNIQUE REGIONS ACCESSED: 0
L1D REGIONS CONFLICTS: 0
L1D Cross Page Prefetch Requests: 218838
L1D Same Page Prefetch Requests: 2411925
L1D ROI Sum of L1D PQ occupancy: 29384859
L1D PREFETCHES PUSHED FROM L2C: 0
L1I TOTAL     ACCESS:   38659374  HIT:   25872955  MISS:   12786419  HIT %:    66.9254  MISS %:    33.0746   MPKI: 63.9321
L1I LOAD      ACCESS:   38659374  HIT:   25872955  MISS:   12786419  HIT %:    66.9254  MISS %:    33.0746   MPKI: 63.9321
L1I PREFETCH  REQUESTED:          0  ISSUED:          0  USEFUL:          0  USELESS:          0
L1I USEFUL LOAD PREFETCHES:          0 PREFETCH ISSUED TO LOWER LEVEL:          0  ACCURACY: -nan
L1I TIMELY PREFETCHES:          0 LATE PREFETCHES: 0 DROPPED PREFETCHES: 0
L1I PREFETCHES SAME FILL-ORIGIN LEVEL: 0 DIFFERENT FILL-ORIGIN LEVEL: 0
L1I AVERAGE MISS LATENCY: 14.51 cycles
L1I RQ	ACCESS:   61008713	FORWARD:          0	MERGED:   19694262	TO_CACHE:   41314451

BTB TOTAL     ACCESS:   31158248  HIT:   22772678  MISS:    8385570  HIT %:    73.0872  MISS %:    26.9128   MPKI: 41.9278
BTB BRANCH_DIRECT_JUMP	ACCESS:    2947353  HIT:    2315064  MISS:     632289
BTB BRANCH_INDIRECT	ACCESS:   13078896  HIT:    9492312  MISS:    3586584
BTB BRANCH_CONDITIONAL	ACCESS:    5413262  HIT:    4750583  MISS:     662679
BTB BRANCH_DIRECT_CALL	ACCESS:    4056170  HIT:    3104100  MISS:     952070
BTB BRANCH_INDIRECT_CALL	ACCESS:     803174  HIT:     456636  MISS:     346538
BTB BRANCH_RETURN	ACCESS:    4859393  HIT:    2653983  MISS:    2205410
BTB BRANCH_OTHER ACCESS:          0  HIT:          0  MISS:          0

L2C TOTAL     ACCESS:   18605149  HIT:   17591555  MISS:    1013594  HIT %:    94.5521  MISS %:    5.44792   MPKI: 5.06797
L2C LOAD      ACCESS:   15256765  HIT:   14697054  MISS:     559711  HIT %:    96.3314  MISS %:    3.66861   MPKI: 2.79855
L2C DATA LOAD MPKI: 2.45124
L2C INSTRUCTION LOAD MPKI: 0.347315
L2C RFO       ACCESS:     537114  HIT:     449138  MISS:      87976  HIT %:    83.6206  MISS %:    16.3794   MPKI: 0.43988
L2C PREFETCH  ACCESS:    1492426  HIT:    1155777  MISS:     336649  HIT %:    77.4428  MISS %:    22.5572   MPKI: 1.68324
AGUS PREFETCH L1 MISS: 0
L2C DATA PREFETCH MPKI: 1.68324
L2C INSTRUCTION PREFETCH MPKI: 0
L2C WRITEBACK ACCESS:    1200182  HIT:    1188253  MISS:      11929  HIT %:    99.0061  MISS %:   0.993933   MPKI: 0.059645
L2C LOAD TRANSLATION ACCESS:      34412  HIT:      19499  MISS:      14913  HIT %:    56.6634  MISS %:    43.3366   MPKI: 0.074565
L2C TRANSLATION FROM L1D PREFETCHER ACCESS:      84250  HIT:      81834  MISS:       2416  HIT %:    97.1323  MISS %:    2.86766   MPKI: 0.01208
L2C PREFETCH  REQUESTED:          0  ISSUED:          0  USEFUL:      44661  USELESS:     294122
L2C USEFUL LOAD PREFETCHES:      44661 PREFETCH ISSUED TO LOWER LEVEL:     336649  ACCURACY: 13.2663
L2C TIMELY PREFETCHES:      44661 LATE PREFETCHES: 0 DROPPED PREFETCHES: 0
L2C PREFETCHES SAME FILL-ORIGIN LEVEL: 0 DIFFERENT FILL-ORIGIN LEVEL: 0
L2C AVERAGE MISS LATENCY: 154.318 cycles
L2C RQ	ACCESS:   15912758	FORWARD:          0	MERGED:          0	TO_CACHE:   15912543
L2C WQ	ACCESS:    1200182	FORWARD:        215	MERGED:          0	TO_CACHE:    1200182
L2C PQ	ACCESS:    1492426	FORWARD:          0	MERGED:          0	TO_CACHE:    1492426

L2C Instructions Evicting Data 48827
L2C Translations Evicting Data 16219
L2C Data Evicting Data 851685
L2C Instructions Evicting Instructions 20135
L2C Translations Evicting Instructions 749
L2C Data Evicting Instructions 46902
L2C Instructions Evicting Translations 501
L2C Translations Evicting Translations 361
L2C Data Evicting Translations 16286
L2C Dense regions hint from L2: 0
PSCL5 TOTAL     ACCESS:      90417  HIT:      90417  MISS:          0  HIT %:        100  MISS %:          0   MPKI: 0
PSCL5 LOAD TRANSLATION ACCESS:      32054  HIT:      32054  MISS:          0  HIT %:        100  MISS %:          0   MPKI: 0
PSCL5 TRANSLATION FROM L1D PREFETCHER ACCESS:      58363  HIT:      58363  MISS:          0  HIT %:        100  MISS %:          0   MPKI: 0
PSCL5 PREFETCH  REQUESTED:          0  ISSUED:          0  USEFUL:          0  USELESS:          0
PSCL5 USEFUL LOAD PREFETCHES:          0 PREFETCH ISSUED TO LOWER LEVEL:          0  ACCURACY: -nan
PSCL5 TIMELY PREFETCHES:          0 LATE PREFETCHES: 0 DROPPED PREFETCHES: 0
PSCL5 PREFETCHES SAME FILL-ORIGIN LEVEL: 0 DIFFERENT FILL-ORIGIN LEVEL: 0

PSCL4 TOTAL     ACCESS:      80771  HIT:      80701  MISS:         70  HIT %:    99.9133  MISS %:  0.0866648   MPKI: 0.00035
PSCL4 LOAD TRANSLATION ACCESS:      30843  HIT:      30773  MISS:         70  HIT %:     99.773  MISS %:   0.226956   MPKI: 0.00035
PSCL4 TRANSLATION FROM L1D PREFETCHER ACCESS:      49928  HIT:      49928  MISS:          0  HIT %:        100  MISS %:          0   MPKI: 0
PSCL4 PREFETCH  REQUESTED:          0  ISSUED:          0  USEFUL:          0  USELESS:          0
PSCL4 USEFUL LOAD PREFETCHES:          0 PREFETCH ISSUED TO LOWER LEVEL:          0  ACCURACY: -nan
PSCL4 TIMELY PREFETCHES:          0 LATE PREFETCHES: 0 DROPPED PREFETCHES: 0
PSCL4 PREFETCHES SAME FILL-ORIGIN LEVEL: 0 DIFFERENT FILL-ORIGIN LEVEL: 0

PSCL3 TOTAL     ACCESS:      87284  HIT:      87144  MISS:        140  HIT %:    99.8396  MISS %:   0.160396   MPKI: 0.0007
PSCL3 LOAD TRANSLATION ACCESS:      31541  HIT:      31401  MISS:        140  HIT %:    99.5561  MISS %:   0.443867   MPKI: 0.0007
PSCL3 TRANSLATION FROM L1D PREFETCHER ACCESS:      55743  HIT:      55743  MISS:          0  HIT %:        100  MISS %:          0   MPKI: 0
PSCL3 PREFETCH  REQUESTED:          0  ISSUED:          0  USEFUL:          0  USELESS:          0
PSCL3 USEFUL LOAD PREFETCHES:          0 PREFETCH ISSUED TO LOWER LEVEL:          0  ACCURACY: -nan
PSCL3 TIMELY PREFETCHES:          0 LATE PREFETCHES: 0 DROPPED PREFETCHES: 0
PSCL3 PREFETCHES SAME FILL-ORIGIN LEVEL: 0 DIFFERENT FILL-ORIGIN LEVEL: 0

PSCL2 TOTAL     ACCESS:      67114  HIT:      64712  MISS:       2402  HIT %:     96.421  MISS %:    3.57899   MPKI: 0.01201
PSCL2 LOAD TRANSLATION ACCESS:      32268  HIT:      29866  MISS:       2402  HIT %:    92.5561  MISS %:    7.44391   MPKI: 0.01201
PSCL2 TRANSLATION FROM L1D PREFETCHER ACCESS:      34846  HIT:      34846  MISS:          0  HIT %:        100  MISS %:          0   MPKI: 0
PSCL2 PREFETCH  REQUESTED:          0  ISSUED:          0  USEFUL:          0  USELESS:          0
PSCL2 USEFUL LOAD PREFETCHES:          0 PREFETCH ISSUED TO LOWER LEVEL:          0  ACCURACY: -nan
PSCL2 TIMELY PREFETCHES:          0 LATE PREFETCHES: 0 DROPPED PREFETCHES: 0
PSCL2 PREFETCHES SAME FILL-ORIGIN LEVEL: 0 DIFFERENT FILL-ORIGIN LEVEL: 0

LLC TOTAL     ACCESS:    1366765  HIT:     611669  MISS:     755096  HIT %:     44.753  MISS %:     55.247   MPKI: 3.77548
LLC LOAD      ACCESS:     559711  HIT:     125498  MISS:     434213  HIT %:    22.4219  MISS %:    77.5781   MPKI: 2.17106
LLC RFO       ACCESS:      87976  HIT:      29038  MISS:      58938  HIT %:    33.0067  MISS %:    66.9933   MPKI: 0.29469
LLC PREFETCH  ACCESS:     336649  HIT:      85616  MISS:     251033  HIT %:    25.4318  MISS %:    74.5682   MPKI: 1.25516
AGUS PREFETCH L1 MISS: 0
LLC WRITEBACK ACCESS:     365100  HIT:     359264  MISS:       5836  HIT %:    98.4015  MISS %:    1.59847   MPKI: 0.02918
LLC LOAD TRANSLATION ACCESS:      14913  HIT:      10856  MISS:       4057  HIT %:    72.7955  MISS %:    27.2045   MPKI: 0.020285
LLC TRANSLATION FROM L1D PREFETCHER ACCESS:       2416  HIT:       1397  MISS:       1019  HIT %:    57.8228  MISS %:    42.1772   MPKI: 0.005095
LLC PREFETCH  REQUESTED:          0  ISSUED:          0  USEFUL:      12737  USELESS:     238695
LLC USEFUL LOAD PREFETCHES:      12737 PREFETCH ISSUED TO LOWER LEVEL:     251033  ACCURACY: 5.07383
LLC TIMELY PREFETCHES:      12737 LATE PREFETCHES: 0 DROPPED PREFETCHES: 0
LLC PREFETCHES SAME FILL-ORIGIN LEVEL: 0 DIFFERENT FILL-ORIGIN LEVEL: 0
LLC AVERAGE MISS LATENCY: 167.342 cycles
LLC RQ	ACCESS:     665016	FORWARD:          0	MERGED:          0	TO_CACHE:     665016
LLC WQ	ACCESS:     365100	FORWARD:          0	MERGED:          0	TO_CACHE:     365100
LLC PQ	ACCESS:     336649	FORWARD:          0	MERGED:          0	TO_CACHE:     336649

LLC Dense regions hint to LLC: 0

RAW hits: 2867997
Loads Generated: 46167087
Loads sent to L1D: 43299090
Stores Generated: 24970639
Stores sent to L1D: 24970645
Major fault: 0 Minor fault: 5644
Allocated PAGES: 5644
CPU 0 L1D 
Prefetch count 1953726 BOP and RL 

DRAM Statistics
 CHANNEL 0
 RQ ROW_BUFFER_HIT:     163281  ROW_BUFFER_MISS:     585967
 DBUS_CONGESTED:        220
 WQ ROW_BUFFER_HIT:      56183  ROW_BUFFER_MISS:     248759  FULL:          0

 AVG_CONGESTED_CYCLE: 4
 All warmup complete: 2
Channel 0 Bank busy for read cycles: 0
Channel 0 Bank busy for write cycles: 0
Channel 0
Rank 0
0banks busy for read cycles: 478603705
0banks busy for write cycles: 133701
1banks busy for read cycles: 31226277
1banks busy for write cycles: 17969986
2banks busy for read cycles: 17650665
2banks busy for write cycles: 6848537
3banks busy for read cycles: 3792572
3banks busy for write cycles: 2579612
4banks busy for read cycles: 1534479
4banks busy for write cycles: 1007308
5banks busy for read cycles: 788626
5banks busy for write cycles: 501757
6banks busy for read cycles: 426055
6banks busy for write cycles: 465734
7banks busy for read cycles: 424641
7banks busy for write cycles: 675357
8banks busy for read cycles: 351093
8banks busy for write cycles: 799424

CPU 0 Branch Prediction Accuracy: 99.9574% MPKI: 0.07907 Average ROB Occupancy at Mispredict: 21.442
Branch types
NOT_BRANCH: 162853558 81.4268%
BRANCH_DIRECT_JUMP: 2947353 1.47368%
BRANCH_INDIRECT: 13078896 6.53945%
BRANCH_CONDITIONAL: 11401392 5.7007%
BRANCH_DIRECT_CALL: 4056170 2.02808%
BRANCH_INDIRECT_CALL: 803174 0.401587%
BRANCH_RETURN: 4859393 2.4297%
BRANCH_OTHER: 0 0%

DRAM PAGES: 1048576
Allocated PAGES: 5644
