
*** ChampSim Multicore Out-of-Order Simulator ***

Warmup Instructions: 50000000
Simulation Instructions: 200000000
Number of CPUs: 1
LLC sets: 2048
LLC ways: 16
Off-chip DRAM Size: 4096 MB Channels: 1 Width: 64-bit Data Rate: 6400 MT/s
CPU 0 runs traces/spec2k17/server_037.champsimtrace.xz
.xz
BTB has LRU replacement policy
ITLB has LRU replacement policy
DTLB has LRU replacement policy
STLB has LRU replacement policy
L1I has LRU replacement policy
CPU 0 l1d next line prefetcher
L1D has LRU replacement policy
Initialize SRRIP state for L2C
Initialize DRRIP state for LLC
Offsets elements: 
Potential of Offsets elements: 
rewards of Offsets elements: 
Printing Sanity1
offset list size1527
Heartbeat CPU 0 instructions: 10000002 cycles: 2789342 heartbeat IPC: 3.58508 cumulative IPC: 3.58508 (Simulation time: 0 hr 0 min 33 sec) 
Heartbeat CPU 0 instructions: 20000001 cycles: 5575994 heartbeat IPC: 3.58854 cumulative IPC: 3.5868 (Simulation time: 0 hr 1 min 6 sec) 
Heartbeat CPU 0 instructions: 30000001 cycles: 8366568 heartbeat IPC: 3.58349 cumulative IPC: 3.5857 (Simulation time: 0 hr 1 min 38 sec) 
Heartbeat CPU 0 instructions: 40000001 cycles: 11153290 heartbeat IPC: 3.58845 cumulative IPC: 3.58639 (Simulation time: 0 hr 2 min 8 sec) 
Heartbeat CPU 0 instructions: 50000001 cycles: 13940947 heartbeat IPC: 3.58724 cumulative IPC: 3.58656 (Simulation time: 0 hr 2 min 37 sec) 

Warmup complete CPU 0 instructions: 50000001 cycles: 13940947 (Simulation time: 0 hr 2 min 37 sec) 

Heartbeat CPU 0 instructions: 60000000 cycles: 33999155 heartbeat IPC: 0.498549 cumulative IPC: 0.498549 (Simulation time: 0 hr 3 min 30 sec) 
Heartbeat CPU 0 instructions: 70000001 cycles: 54230410 heartbeat IPC: 0.494285 cumulative IPC: 0.496408 (Simulation time: 0 hr 4 min 24 sec) 
Heartbeat CPU 0 instructions: 80000003 cycles: 74227591 heartbeat IPC: 0.500071 cumulative IPC: 0.497623 (Simulation time: 0 hr 5 min 14 sec) 
Heartbeat CPU 0 instructions: 90000001 cycles: 94257271 heartbeat IPC: 0.499259 cumulative IPC: 0.498031 (Simulation time: 0 hr 6 min 3 sec) 
*** Reached end of trace for Core: 0 Repeating trace: traces/spec2k17/server_037.champsimtrace.xz
Heartbeat CPU 0 instructions: 100000000 cycles: 114339340 heartbeat IPC: 0.497957 cumulative IPC: 0.498016 (Simulation time: 0 hr 6 min 55 sec) 
Offsets elements: 
Potential of Offsets elements: 
rewards of Offsets elements: 0 0 0 0 0 0 0 0 0 0 3 0 4 0 0 0 0 0 0 0 0 0 0 165 145 112 0 0 0 121 60 66 0 0 0 0 0 0 62 0 10 0 0 0 0 163 69 0 0 0 0 3 29 0 0 0 0 0 0 33 11 0 0 177 0 0 0 0 28 0 0 0 0 0 0 0 0 0 4 64 0 0 0 0 0 0 20 0 0 0 0 0 0 0 0 0 0 0 0 0 0 0 0 0 0 2 0 0 0 0 12 0 0 0 0 127 0 0 0 0 0 0 0 0 0 0 8 0 0 0 0 0 0 129 0 6 0 0 80 0 0 0 0 0 0 0 1 0 0 140 0 0 0 0 0 0 0 0 0 3 0 0 0 0 0 0 0 1 0 0 3 0 0 0 15 0 0 0 0 0 87 63 0 0 0 56 0 0 0 0 0 2 0 3 0 0 0 0 0 1 0 0 0 0 0 6 0 2 0 0 19 0 0 0 0 0 5 1 0 0 190 0 0 0 0 5 1 3 0 0 0 0 0 34 0 9 2 0 0 0 0 0 0 1 0 0 0 0 6 19 0 0 4 2 0 0 0 43 0 0 0 0 14 0 1 0 39 1 0 5 0 0 0 0 0 0 0 0 0 0 23 0 0 0 0 0 0 1 2 0 0 3 1 0 0 0 0 6 2 0 1 0 16 0 0 3 0 0 18 0 1 0 1 0 71 0 0 0 0 0 0 0 0 0 4 1 15 0 2 0 0 0 0 0 0 0 0 3 0 0 0 0 4 0 0 5 0 0 0 0 0 0 0 0 0 7 0 0 0 0 0 0 2 0 0 2 0 1 7 0 13 0 1 0 0 5 0 0 0 3 0 0 18 12 4 0 3 0 0 0 1 8 0 0 4 0 0 0 0 24 0 0 0 0 1 0 0 0 4 1 0 4 11 68 0 0 0 0 0 0 0 0 0 1 1 0 0 12 0 0 0 0 27 1 2 5 0 0 0 0 0 0 2 0 0 0 0 0 0 0 0 0 3 0 0 0 3 0 0 0 0 0 2 0 6 0 0 0 0 0 0 0 0 0 14 0 0 0 0 0 0 0 6 91 0 0 0 0 0 1 3 0 0 0 0 0 0 4 0 0 0 0 0 0 1 6 0 2 2 0 0 0 0 0 0 1 3 0 0 0 0 2 0 0 0 1 0 8 0 0 0 0 0 0 0 0 0 17 3 0 0 6 0 0 0 0 0 0 0 0 0 3 0 3 0 0 11 0 0 0 0 0 0 0 0 0 0 0 0 0 0 10 0 0 3 0 0 0 0 0 1 0 2 4 0 3 3 0 0 0 0 0 2 0 0 0 0 3 0 0 0 0 0 2 0 15 0 0 0 0 0 0 1 0 6 0 1 3 0 0 0 0 0 10 0 5 0 75 60 0 0 48 0 0 0 0 0 0 0 0 1 0 0 0 0 0 0 0 0 0 0 0 0 0 0 0 2 0 0 0 0 0 0 0 0 0 0 63 0 0 0 0 0 0 0 22 0 0 0 0 0 0 0 0 0 0 0 25 0 11 0 0 0 18 0 0 0 2 30 0 0 0 1 0 0 0 0 0 4 0 2 0 0 15 0 0 0 0 0 0 0 0 0 0 0 0 0 0 0 1 0 0 0 0 0 0 0 0 3 3 0 0 0 88 151 0 0 5 0 5 0 5 0 0 0 0 0 0 0 16 0 0 0 0 0 19 0 0 32 0 0 0 0 0 0 0 0 0 0 0 0 0 0 0 0 0 1 0 0 0 0 0 0 2 0 0 0 0 4 4 0 0 0 0 0 0 0 0 0 0 0 0 0 0 2 0 1 0 0 0 0 0 0 0 0 24 0 0 0 0 0 0 0 19 0 2 0 0 0 0 0 0 1 0 0 0 0 0 0 0 0 0 51 0 0 30 0 0 1 0 0 3 0 0 0 0 16 0 0 0 0 0 0 0 0 1 0 0 0 0 0 0 0 0 0 48 0 4 0 0 0 0 0 0 1 0 0 0 0 0 0 0 0 0 0 0 0 0 0 0 0 71 0 0 0 0 0 0 0 0 1 0 0 0 0 0 86 0 0 0 1 0 0 3 0 0 55 0 0 0 5 0 5 0 0 0 53 0 0 0 0 0 0 0 2 5 2 0 0 0 0 0 0 24 0 0 1 0 0 0 0 0 0 0 0 3 0 2 0 1 0 0 0 0 0 0 0 10 13 0 0 0 0 0 4 0 0 2 0 0 0 0 0 0 0 0 0 0 1 0 2 0 0 0 0 0 0 0 0 0 0 0 0 6 0 0 0 0 0 1 0 0 0 0 0 0 0 0 2 0 0 0 0 0 0 0 1 0 14 1 0 22 0 0 0 0 0 0 0 0 23 3 2 0 0 0 0 0 0 0 0 0 1 1 0 0 0 0 0 0 0 0 0 0 0 0 0 0 13 123 17 1 4 0 0 0 7 2 1 0 0 0 0 0 0 0 0 0 0 1 0 0 0 5 0 1 0 0 0 0 0 0 0 0 0 2 0 0 0 0 0 0 29 0 0 0 0 0 0 0 8 0 0 0 0 0 6 0 0 0 0 0 0 0 0 0 0 1 0 0 0 0 0 0 0 0 2 0 0 0 0 0 0 0 0 0 0 0 0 0 0 0 0 0 0 0 0 1 0 3 0 6 0 0 0 0 0 0 0 0 0 0 0 0 0 0 0 0 0 0 0 0 0 1 0 3 0 0 0 0 0 0 0 0 0 0 0 0 0 0 12 0 0 0 0 0 0 0 0 0 0 2 1 2 0 0 0 0 0 0 3 10 0 0 0 0 3 0 0 1 0 0 0 0 0 0 0 0 3 0 0 0 0 15 5 0 0 0 0 0 0 39 0 0 0 0 0 6 0 0 0 0 0 0 0 0 0 4 61 0 0 0 0 0 0 0 0 0 10 31 0 0 6 0 1 0 0 0 1 0 0 6 0 0 0 0 0 0 0 0 1 0 2 6 5 0 4 0 0 0 0 0 0 0 23 0 4 0 0 0 0 0 3 0 0 0 0 0 0 0 7 0 2 0 0 0 0 0 0 0 0 0 0 2 0 0 0 0 1 0 0 1 20 0 0 0 0 0 0 0 0 0 0 22 0 0 36 0 0 0 0 0 1 0 0 0 0 0 0 0 0 0 0 0 0 0 0 0 0 0 0 0 0 1 0 0 0 0 0 0 0 0 0 0 1 2 0 0 0 0 0 0 0 0 0 3 0 0 0 0 0 30 9 0 0 0 0 0 3 0 0 0 0 0 0 0 1 2 2 0 0 33 0 5 6 0 0 0 0 0 0 21 0 0 0 0 0 0 0 0 0 43 0 0 0 0 0 0 0 0 0 0 0 0 0 0 18 0 0 3 0 0 0 0 0 0 0 0 0 0 0 0 0 0 0 1 0 
Printing Sanity2
Heartbeat CPU 0 instructions: 110000000 cycles: 134307535 heartbeat IPC: 0.500796 cumulative IPC: 0.498477 (Simulation time: 0 hr 7 min 49 sec) 
Heartbeat CPU 0 instructions: 120000002 cycles: 154258183 heartbeat IPC: 0.501237 cumulative IPC: 0.49887 (Simulation time: 0 hr 8 min 41 sec) 
Heartbeat CPU 0 instructions: 130000003 cycles: 173791538 heartbeat IPC: 0.511945 cumulative IPC: 0.500467 (Simulation time: 0 hr 9 min 32 sec) 
Heartbeat CPU 0 instructions: 140000000 cycles: 193827421 heartbeat IPC: 0.499104 cumulative IPC: 0.500316 (Simulation time: 0 hr 10 min 25 sec) 
Heartbeat CPU 0 instructions: 150000000 cycles: 213852571 heartbeat IPC: 0.499372 cumulative IPC: 0.500221 (Simulation time: 0 hr 11 min 15 sec) 
Heartbeat CPU 0 instructions: 160000001 cycles: 233794513 heartbeat IPC: 0.501456 cumulative IPC: 0.500333 (Simulation time: 0 hr 12 min 4 sec) 
Heartbeat CPU 0 instructions: 170000000 cycles: 253937539 heartbeat IPC: 0.49645 cumulative IPC: 0.500007 (Simulation time: 0 hr 12 min 55 sec) 
Heartbeat CPU 0 instructions: 180000001 cycles: 273894038 heartbeat IPC: 0.50109 cumulative IPC: 0.50009 (Simulation time: 0 hr 13 min 48 sec) 
Heartbeat CPU 0 instructions: 190000002 cycles: 293900248 heartbeat IPC: 0.499845 cumulative IPC: 0.500073 (Simulation time: 0 hr 14 min 40 sec) 
*** Reached end of trace for Core: 0 Repeating trace: traces/spec2k17/server_037.champsimtrace.xz
Heartbeat CPU 0 instructions: 200000000 cycles: 313940422 heartbeat IPC: 0.498998 cumulative IPC: 0.500001 (Simulation time: 0 hr 15 min 29 sec) 
Heartbeat CPU 0 instructions: 210000000 cycles: 333896631 heartbeat IPC: 0.501097 cumulative IPC: 0.500069 (Simulation time: 0 hr 16 min 20 sec) 
Heartbeat CPU 0 instructions: 220000000 cycles: 353841335 heartbeat IPC: 0.501386 cumulative IPC: 0.500147 (Simulation time: 0 hr 17 min 11 sec) 
Heartbeat CPU 0 instructions: 230000001 cycles: 373365123 heartbeat IPC: 0.512196 cumulative IPC: 0.500801 (Simulation time: 0 hr 18 min 3 sec) 
Heartbeat CPU 0 instructions: 240000000 cycles: 393387684 heartbeat IPC: 0.499437 cumulative IPC: 0.500729 (Simulation time: 0 hr 18 min 55 sec) 
Heartbeat CPU 0 instructions: 250000001 cycles: 413412852 heartbeat IPC: 0.499372 cumulative IPC: 0.500661 (Simulation time: 0 hr 19 min 46 sec) 
Finished CPU 0 instructions: 200000000 cycles: 399471905 cumulative IPC: 0.500661 (Simulation time: 0 hr 19 min 46 sec) 

ChampSim completed all CPUs

Region of Interest Statistics

CPU 0 cumulative IPC: 0.500661 instructions: 200000000 cycles: 399471905
ITLB TOTAL     ACCESS:   35154756  HIT:   32678496  MISS:    2476260  HIT %:    92.9561  MISS %:    7.04388   MPKI: 12.3813
ITLB LOAD TRANSLATION ACCESS:   35154756  HIT:   32678496  MISS:    2476260  HIT %:    92.9561  MISS %:    7.04388   MPKI: 12.3813
ITLB PREFETCH  REQUESTED:          0  ISSUED:          0  USEFUL:          0  USELESS:          0
ITLB USEFUL LOAD PREFETCHES:          0 PREFETCH ISSUED TO LOWER LEVEL:          0  ACCURACY: -nan
ITLB TIMELY PREFETCHES:          0 LATE PREFETCHES: 0 DROPPED PREFETCHES: 0
ITLB PREFETCHES SAME FILL-ORIGIN LEVEL: 0 DIFFERENT FILL-ORIGIN LEVEL: 0
ITLB AVERAGE MISS LATENCY: 9.02388 cycles
ITLB RQ	ACCESS:   41397096	FORWARD:          0	MERGED:    5433474	TO_CACHE:   35963622

DTLB TOTAL     ACCESS:   39992737  HIT:   37986975  MISS:    2005762  HIT %:    94.9847  MISS %:    5.01532   MPKI: 10.0288
DTLB LOAD TRANSLATION ACCESS:   39992737  HIT:   37986975  MISS:    2005762  HIT %:    94.9847  MISS %:    5.01532   MPKI: 10.0288
DTLB PREFETCH  REQUESTED:          0  ISSUED:          0  USEFUL:          0  USELESS:          0
DTLB USEFUL LOAD PREFETCHES:          0 PREFETCH ISSUED TO LOWER LEVEL:          0  ACCURACY: -nan
DTLB TIMELY PREFETCHES:          0 LATE PREFETCHES: 0 DROPPED PREFETCHES: 0
DTLB PREFETCHES SAME FILL-ORIGIN LEVEL: 0 DIFFERENT FILL-ORIGIN LEVEL: 0
DTLB AVERAGE MISS LATENCY: 9.71898 cycles
DTLB RQ	ACCESS:   55771286	FORWARD:          0	MERGED:   15623309	TO_CACHE:   40147977

STLB TOTAL     ACCESS:    5441012  HIT:    5417615  MISS:      23397  HIT %:      99.57  MISS %:   0.430012   MPKI: 0.116985
STLB LOAD TRANSLATION ACCESS:    4482021  HIT:    4459361  MISS:      22660  HIT %:    99.4944  MISS %:   0.505575   MPKI: 0.1133
STLB TRANSLATION FROM L1D PREFETCHER ACCESS:     958991  HIT:     958254  MISS:        737  HIT %:    99.9231  MISS %:  0.0768516   MPKI: 0.003685
STLB PREFETCH  REQUESTED:          0  ISSUED:          0  USEFUL:        470  USELESS:        284
STLB USEFUL LOAD PREFETCHES:        470 PREFETCH ISSUED TO LOWER LEVEL:          0  ACCURACY: inf
STLB TIMELY PREFETCHES:        470 LATE PREFETCHES: 5 DROPPED PREFETCHES: 39939
STLB PREFETCHES SAME FILL-ORIGIN LEVEL: 0 DIFFERENT FILL-ORIGIN LEVEL: 0
STLB AVERAGE MISS LATENCY: 6893.8 cycles
STLB RQ	ACCESS:    5629820	FORWARD:          0	MERGED:     148578	TO_CACHE:    5481242

STLB Hit, L1D data hit: 0
STLB Hit, L2C data hit: 0
STLB Hit, LLC data hit: 0
STLB Hit, LLC data miss: 0
STLB STLB hints to L2: 0
L1D TOTAL     ACCESS:   56402893  HIT:   54031570  MISS:    2371323  HIT %:    95.7957  MISS %:    4.20426   MPKI: 11.8566
L1D LOAD      ACCESS:   31252490  HIT:   29880996  MISS:    1371494  HIT %:    95.6116  MISS %:    4.38843   MPKI: 6.85747
L1D RFO       ACCESS:   24138210  HIT:   23903283  MISS:     234927  HIT %:    99.0267  MISS %:   0.973258   MPKI: 1.17464
L1D PREFETCH  ACCESS:    1012193  HIT:     247291  MISS:     764902  HIT %:    24.4312  MISS %:    75.5688   MPKI: 3.82451
AGUS PREFETCH L1 MISS: 0
L1D PREFETCH  REQUESTED:    2306946  ISSUED:    2306943  USEFUL:     240303  USELESS:     524638
L1D USEFUL LOAD PREFETCHES:     240303 PREFETCH ISSUED TO LOWER LEVEL:     773213  ACCURACY: 31.0785
L1D TIMELY PREFETCHES:     240303 LATE PREFETCHES: 5839 DROPPED PREFETCHES: 42027
L1D PREFETCHES SAME FILL-ORIGIN LEVEL: 773213 DIFFERENT FILL-ORIGIN LEVEL: 0
L1D AVERAGE MISS LATENCY: 645763 cycles
L1D RQ	ACCESS:   45834153	FORWARD:          0	MERGED:   14231091	TO_CACHE:   31346952
L1D WQ	ACCESS:   24616487	FORWARD:     256325	MERGED:     192153	TO_CACHE:   24424334
L1D PQ	ACCESS:    1159144	FORWARD:          0	MERGED:      11130	TO_CACHE:    1147799

L1D UNIQUE REGIONS ACCESSED: 0
L1D REGIONS CONFLICTS: 0
L1D Cross Page Prefetch Requests: 122904
L1D Same Page Prefetch Requests: 1395106
L1D ROI Sum of L1D PQ occupancy: 16706438
L1D PREFETCHES PUSHED FROM L2C: 0
L1I TOTAL     ACCESS:   37478035  HIT:   22150533  MISS:   15327502  HIT %:    59.1027  MISS %:    40.8973   MPKI: 76.6375
L1I LOAD      ACCESS:   37478035  HIT:   22150533  MISS:   15327502  HIT %:    59.1027  MISS %:    40.8973   MPKI: 76.6375
L1I PREFETCH  REQUESTED:          0  ISSUED:          0  USEFUL:          0  USELESS:          0
L1I USEFUL LOAD PREFETCHES:          0 PREFETCH ISSUED TO LOWER LEVEL:          0  ACCURACY: -nan
L1I TIMELY PREFETCHES:          0 LATE PREFETCHES: 0 DROPPED PREFETCHES: 0
L1I PREFETCHES SAME FILL-ORIGIN LEVEL: 0 DIFFERENT FILL-ORIGIN LEVEL: 0
L1I AVERAGE MISS LATENCY: 14.1667 cycles
L1I RQ	ACCESS:   62435435	FORWARD:          0	MERGED:   21038339	TO_CACHE:   41397096

BTB TOTAL     ACCESS:   28200156  HIT:   24637368  MISS:    3562788  HIT %:    87.3661  MISS %:    12.6339   MPKI: 17.8139
BTB BRANCH_DIRECT_JUMP	ACCESS:    2065529  HIT:    1955055  MISS:     110474
BTB BRANCH_INDIRECT	ACCESS:   12547706  HIT:   11310984  MISS:    1236722
BTB BRANCH_CONDITIONAL	ACCESS:    4129025  HIT:    4013332  MISS:     115693
BTB BRANCH_DIRECT_CALL	ACCESS:    3836283  HIT:    3585253  MISS:     251030
BTB BRANCH_INDIRECT_CALL	ACCESS:     892681  HIT:     717749  MISS:     174932
BTB BRANCH_RETURN	ACCESS:    4728932  HIT:    3054995  MISS:    1673937
BTB BRANCH_OTHER ACCESS:          0  HIT:          0  MISS:          0

L2C TOTAL     ACCESS:   18729116  HIT:   17816700  MISS:     912416  HIT %:    95.1284  MISS %:    4.87164   MPKI: 4.56208
L2C LOAD      ACCESS:   16693026  HIT:   16241784  MISS:     451242  HIT %:    97.2968  MISS %:    2.70318   MPKI: 2.25621
L2C DATA LOAD MPKI: 2.10108
L2C INSTRUCTION LOAD MPKI: 0.155125
L2C RFO       ACCESS:     232446  HIT:     129608  MISS:     102838  HIT %:    55.7583  MISS %:    44.2417   MPKI: 0.51419
L2C PREFETCH  ACCESS:     773212  HIT:     460121  MISS:     313091  HIT %:    59.5077  MISS %:    40.4923   MPKI: 1.56546
AGUS PREFETCH L1 MISS: 0
L2C DATA PREFETCH MPKI: 1.56546
L2C INSTRUCTION PREFETCH MPKI: 0
L2C WRITEBACK ACCESS:     927196  HIT:     911698  MISS:      15498  HIT %:    98.3285  MISS %:    1.67149   MPKI: 0.07749
L2C LOAD TRANSLATION ACCESS:      31410  HIT:      10223  MISS:      21187  HIT %:     32.547  MISS %:     67.453   MPKI: 0.105935
L2C TRANSLATION FROM L1D PREFETCHER ACCESS:      71826  HIT:      63266  MISS:       8560  HIT %:    88.0823  MISS %:    11.9177   MPKI: 0.0428
L2C PREFETCH  REQUESTED:          0  ISSUED:          0  USEFUL:      24360  USELESS:     297295
L2C USEFUL LOAD PREFETCHES:      24360 PREFETCH ISSUED TO LOWER LEVEL:     313091  ACCURACY: 7.78049
L2C TIMELY PREFETCHES:      24360 LATE PREFETCHES: 0 DROPPED PREFETCHES: 0
L2C PREFETCHES SAME FILL-ORIGIN LEVEL: 0 DIFFERENT FILL-ORIGIN LEVEL: 0
L2C AVERAGE MISS LATENCY: 51.446 cycles
L2C RQ	ACCESS:   17028849	FORWARD:          0	MERGED:          0	TO_CACHE:   17028709
L2C WQ	ACCESS:     927196	FORWARD:        141	MERGED:          0	TO_CACHE:     927196
L2C PQ	ACCESS:     773213	FORWARD:          0	MERGED:          0	TO_CACHE:     773212

L2C Instructions Evicting Data 28536
L2C Translations Evicting Data 27520
L2C Data Evicting Data 781110
L2C Instructions Evicting Instructions 1355
L2C Translations Evicting Instructions 1111
L2C Data Evicting Instructions 27821
L2C Instructions Evicting Translations 1134
L2C Translations Evicting Translations 1116
L2C Data Evicting Translations 27215
L2C Dense regions hint from L2: 0
PSCL5 TOTAL     ACCESS:      63338  HIT:      63338  MISS:          0  HIT %:        100  MISS %:          0   MPKI: 0
PSCL5 LOAD TRANSLATION ACCESS:      22657  HIT:      22657  MISS:          0  HIT %:        100  MISS %:          0   MPKI: 0
PSCL5 TRANSLATION FROM L1D PREFETCHER ACCESS:      40681  HIT:      40681  MISS:          0  HIT %:        100  MISS %:          0   MPKI: 0
PSCL5 PREFETCH  REQUESTED:          0  ISSUED:          0  USEFUL:          0  USELESS:          0
PSCL5 USEFUL LOAD PREFETCHES:          0 PREFETCH ISSUED TO LOWER LEVEL:          0  ACCURACY: -nan
PSCL5 TIMELY PREFETCHES:          0 LATE PREFETCHES: 0 DROPPED PREFETCHES: 0
PSCL5 PREFETCHES SAME FILL-ORIGIN LEVEL: 0 DIFFERENT FILL-ORIGIN LEVEL: 0

PSCL4 TOTAL     ACCESS:      62885  HIT:      62865  MISS:         20  HIT %:    99.9682  MISS %:  0.0318041   MPKI: 0.0001
PSCL4 LOAD TRANSLATION ACCESS:      22538  HIT:      22518  MISS:         20  HIT %:    99.9113  MISS %:   0.088739   MPKI: 0.0001
PSCL4 TRANSLATION FROM L1D PREFETCHER ACCESS:      40347  HIT:      40347  MISS:          0  HIT %:        100  MISS %:          0   MPKI: 0
PSCL4 PREFETCH  REQUESTED:          0  ISSUED:          0  USEFUL:          0  USELESS:          0
PSCL4 USEFUL LOAD PREFETCHES:          0 PREFETCH ISSUED TO LOWER LEVEL:          0  ACCURACY: -nan
PSCL4 TIMELY PREFETCHES:          0 LATE PREFETCHES: 0 DROPPED PREFETCHES: 0
PSCL4 PREFETCHES SAME FILL-ORIGIN LEVEL: 0 DIFFERENT FILL-ORIGIN LEVEL: 0

PSCL3 TOTAL     ACCESS:      62821  HIT:      62696  MISS:        125  HIT %:     99.801  MISS %:   0.198978   MPKI: 0.000625
PSCL3 LOAD TRANSLATION ACCESS:      22570  HIT:      22445  MISS:        125  HIT %:    99.4462  MISS %:   0.553833   MPKI: 0.000625
PSCL3 TRANSLATION FROM L1D PREFETCHER ACCESS:      40251  HIT:      40251  MISS:          0  HIT %:        100  MISS %:          0   MPKI: 0
PSCL3 PREFETCH  REQUESTED:          0  ISSUED:          0  USEFUL:          0  USELESS:          0
PSCL3 USEFUL LOAD PREFETCHES:          0 PREFETCH ISSUED TO LOWER LEVEL:          0  ACCURACY: -nan
PSCL3 TIMELY PREFETCHES:          0 LATE PREFETCHES: 0 DROPPED PREFETCHES: 0
PSCL3 PREFETCHES SAME FILL-ORIGIN LEVEL: 0 DIFFERENT FILL-ORIGIN LEVEL: 0

PSCL2 TOTAL     ACCESS:      32615  HIT:      23894  MISS:       8721  HIT %:    73.2608  MISS %:    26.7392   MPKI: 0.043605
PSCL2 LOAD TRANSLATION ACCESS:      22741  HIT:      14020  MISS:       8721  HIT %:    61.6508  MISS %:    38.3492   MPKI: 0.043605
PSCL2 TRANSLATION FROM L1D PREFETCHER ACCESS:       9874  HIT:       9874  MISS:          0  HIT %:        100  MISS %:          0   MPKI: 0
PSCL2 PREFETCH  REQUESTED:          0  ISSUED:          0  USEFUL:          0  USELESS:          0
PSCL2 USEFUL LOAD PREFETCHES:          0 PREFETCH ISSUED TO LOWER LEVEL:          0  ACCURACY: -nan
PSCL2 TIMELY PREFETCHES:          0 LATE PREFETCHES: 0 DROPPED PREFETCHES: 0
PSCL2 PREFETCHES SAME FILL-ORIGIN LEVEL: 0 DIFFERENT FILL-ORIGIN LEVEL: 0

LLC TOTAL     ACCESS:    1243562  HIT:    1117735  MISS:     125827  HIT %:    89.8817  MISS %:    10.1183   MPKI: 0.629135
LLC LOAD      ACCESS:     451233  HIT:     395669  MISS:      55564  HIT %:    87.6862  MISS %:    12.3138   MPKI: 0.27782
LLC RFO       ACCESS:     102838  HIT:      81871  MISS:      20967  HIT %:    79.6116  MISS %:    20.3884   MPKI: 0.104835
LLC PREFETCH  ACCESS:     313090  HIT:     265816  MISS:      47274  HIT %:    84.9008  MISS %:    15.0992   MPKI: 0.23637
AGUS PREFETCH L1 MISS: 0
LLC WRITEBACK ACCESS:     346654  HIT:     345687  MISS:        967  HIT %:     99.721  MISS %:   0.278953   MPKI: 0.004835
LLC LOAD TRANSLATION ACCESS:      21187  HIT:      20309  MISS:        878  HIT %:    95.8559  MISS %:    4.14405   MPKI: 0.00439
LLC TRANSLATION FROM L1D PREFETCHER ACCESS:       8560  HIT:       8383  MISS:        177  HIT %:    97.9322  MISS %:    2.06776   MPKI: 0.000885
LLC PREFETCH  REQUESTED:          0  ISSUED:          0  USEFUL:       2414  USELESS:      45257
LLC USEFUL LOAD PREFETCHES:       2414 PREFETCH ISSUED TO LOWER LEVEL:      47274  ACCURACY: 5.1064
LLC TIMELY PREFETCHES:       2414 LATE PREFETCHES: 0 DROPPED PREFETCHES: 0
LLC PREFETCHES SAME FILL-ORIGIN LEVEL: 0 DIFFERENT FILL-ORIGIN LEVEL: 0
LLC AVERAGE MISS LATENCY: 159.1 cycles
LLC RQ	ACCESS:     583827	FORWARD:          0	MERGED:          0	TO_CACHE:     583818
LLC WQ	ACCESS:     346654	FORWARD:         10	MERGED:          0	TO_CACHE:     346654
LLC PQ	ACCESS:     313091	FORWARD:          0	MERGED:          0	TO_CACHE:     313090

LLC Dense regions hint to LLC: 0

RAW hits: 2128164
Loads Generated: 47962317
Loads sent to L1D: 45834153
Stores Generated: 24616492
Stores sent to L1D: 24616487
Major fault: 0 Minor fault: 5878
Allocated PAGES: 5878
CPU 0 L1D 
Prefetch count 1009485 BOP and RL 

DRAM Statistics
 CHANNEL 0
 RQ ROW_BUFFER_HIT:      26110  ROW_BUFFER_MISS:      98750
 DBUS_CONGESTED:         46
 WQ ROW_BUFFER_HIT:       4263  ROW_BUFFER_MISS:      34672  FULL:          0

 AVG_CONGESTED_CYCLE: 3
 All warmup complete: 2
Channel 0 Bank busy for read cycles: 0
Channel 0 Bank busy for write cycles: 0
Channel 0
Rank 0
0banks busy for read cycles: 383649794
0banks busy for write cycles: 27877
1banks busy for read cycles: 6645873
1banks busy for write cycles: 4040679
2banks busy for read cycles: 3374128
2banks busy for write cycles: 816963
3banks busy for read cycles: 408306
3banks busy for write cycles: 126301
4banks busy for read cycles: 162746
4banks busy for write cycles: 45386
5banks busy for read cycles: 24826
5banks busy for write cycles: 19625
6banks busy for read cycles: 24477
6banks busy for write cycles: 9375
7banks busy for read cycles: 31207
7banks busy for write cycles: 11456
8banks busy for read cycles: 45369
8banks busy for write cycles: 7518

CPU 0 Branch Prediction Accuracy: 99.974% MPKI: 0.044765 Average ROB Occupancy at Mispredict: 23.1427
Branch types
NOT_BRANCH: 165600942 82.8005%
BRANCH_DIRECT_JUMP: 2065529 1.03276%
BRANCH_INDIRECT: 12547706 6.27385%
BRANCH_CONDITIONAL: 10327907 5.16395%
BRANCH_DIRECT_CALL: 3836283 1.91814%
BRANCH_INDIRECT_CALL: 892681 0.44634%
BRANCH_RETURN: 4728932 2.36447%
BRANCH_OTHER: 0 0%

DRAM PAGES: 1048576
Allocated PAGES: 5878
