
*** ChampSim Multicore Out-of-Order Simulator ***

Warmup Instructions: 50000000
Simulation Instructions: 200000000
Number of CPUs: 1
LLC sets: 2048
LLC ways: 16
Off-chip DRAM Size: 4096 MB Channels: 1 Width: 64-bit Data Rate: 6400 MT/s
CPU 0 runs traces/spec2k17/srv_51.champsimtrace.xz
.xz
BTB has LRU replacement policy
ITLB has LRU replacement policy
DTLB has LRU replacement policy
STLB has LRU replacement policy
L1I has LRU replacement policy
CPU 0 l1d next line prefetcher
L1D has LRU replacement policy
Initialize SRRIP state for L2C
Initialize DRRIP state for LLC
Offsets elements: 
Potential of Offsets elements: 
rewards of Offsets elements: 
Printing Sanity1
offset list size2014
Heartbeat CPU 0 instructions: 10000001 cycles: 2887534 heartbeat IPC: 3.46316 cumulative IPC: 3.46316 (Simulation time: 0 hr 0 min 34 sec) 
Heartbeat CPU 0 instructions: 20000003 cycles: 5694279 heartbeat IPC: 3.56285 cumulative IPC: 3.5123 (Simulation time: 0 hr 1 min 9 sec) 
Heartbeat CPU 0 instructions: 30000003 cycles: 8576405 heartbeat IPC: 3.46966 cumulative IPC: 3.49797 (Simulation time: 0 hr 1 min 46 sec) 
*** Reached end of trace for Core: 0 Repeating trace: traces/spec2k17/srv_51.champsimtrace.xz
Heartbeat CPU 0 instructions: 40000002 cycles: 11454492 heartbeat IPC: 3.47453 cumulative IPC: 3.49208 (Simulation time: 0 hr 2 min 21 sec) 
Heartbeat CPU 0 instructions: 50000001 cycles: 14261190 heartbeat IPC: 3.56291 cumulative IPC: 3.50602 (Simulation time: 0 hr 2 min 57 sec) 

Warmup complete CPU 0 instructions: 50000001 cycles: 14261190 (Simulation time: 0 hr 2 min 57 sec) 

Heartbeat CPU 0 instructions: 60000000 cycles: 40574037 heartbeat IPC: 0.380042 cumulative IPC: 0.380042 (Simulation time: 0 hr 3 min 52 sec) 
*** Reached end of trace for Core: 0 Repeating trace: traces/spec2k17/srv_51.champsimtrace.xz
Heartbeat CPU 0 instructions: 70000002 cycles: 68525264 heartbeat IPC: 0.357766 cumulative IPC: 0.368568 (Simulation time: 0 hr 4 min 46 sec) 
Heartbeat CPU 0 instructions: 80000001 cycles: 85541886 heartbeat IPC: 0.587661 cumulative IPC: 0.420871 (Simulation time: 0 hr 5 min 34 sec) 
Heartbeat CPU 0 instructions: 90000001 cycles: 113411028 heartbeat IPC: 0.35882 cumulative IPC: 0.40343 (Simulation time: 0 hr 6 min 33 sec) 
*** Reached end of trace for Core: 0 Repeating trace: traces/spec2k17/srv_51.champsimtrace.xz
Heartbeat CPU 0 instructions: 100000001 cycles: 140362693 heartbeat IPC: 0.371035 cumulative IPC: 0.396506 (Simulation time: 0 hr 7 min 30 sec) 
Heartbeat CPU 0 instructions: 110000000 cycles: 158039403 heartbeat IPC: 0.565716 cumulative IPC: 0.417309 (Simulation time: 0 hr 8 min 20 sec) 
Heartbeat CPU 0 instructions: 120000000 cycles: 184963519 heartbeat IPC: 0.371414 cumulative IPC: 0.410071 (Simulation time: 0 hr 9 min 14 sec) 
*** Reached end of trace for Core: 0 Repeating trace: traces/spec2k17/srv_51.champsimtrace.xz
Offsets elements: 
Potential of Offsets elements: 
rewards of Offsets elements: 0 4 14 10 0 3 0 0 84 0 0 0 1 1 1 0 0 0 0 0 1 0 0 0 96 0 0 0 33 41 44 24 6 0 0 46 24 107 144 0 20 40 0 0 0 1 0 56 63 2 0 37 0 0 0 0 0 0 0 0 0 0 0 0 0 0 0 0 0 0 0 4 4 0 0 3 0 1 8 0 0 0 0 0 0 0 0 0 42 0 0 1 0 1 1 0 0 9 0 0 0 0 0 85 3 0 0 1 0 0 0 2 13 8 2 18 18 32 0 0 0 0 0 5 0 0 7 0 0 31 30 11 82 22 23 0 0 0 67 0 0 0 0 0 0 0 0 0 2 1 0 0 0 85 0 0 0 0 0 0 0 0 1 0 0 0 0 1 1 0 0 0 0 0 0 0 0 0 0 0 0 0 0 0 6 13 12 0 0 14 0 0 75 2 0 0 8 22 8 13 0 1 0 0 0 91 68 0 0 0 0 0 0 82 0 55 0 0 0 0 0 0 0 0 0 0 0 223 0 7 0 22 0 9 92 3 42 0 0 0 0 0 0 0 0 7 1 0 0 0 0 0 0 0 37 0 0 176 90 0 0 86 0 26 3 0 0 0 4 1 0 0 0 0 0 0 12 35 4 8 4 0 0 0 0 11 0 0 0 0 0 3 30 9 0 0 5 4 0 0 0 0 0 2 0 0 0 7 0 0 0 0 106 0 0 0 0 0 3 0 40 0 0 0 0 5 6 0 0 0 11 0 0 89 0 0 0 0 2 7 9 4 6 0 0 0 0 0 47 10 30 10 0 0 0 0 0 0 0 0 39 0 0 0 0 0 13 16 63 0 0 18 0 8 9 3 46 15 9 11 0 0 93 7 12 8 0 0 14 0 0 0 0 0 24 1 2 14 10 0 0 0 0 2 0 0 0 1 0 4 0 0 35 5 2 24 7 11 33 37 9 4 0 0 0 0 0 3 12 3 0 0 0 0 0 16 0 0 0 4 7 5 7 18 0 3 0 43 0 0 0 0 0 0 0 0 7 7 52 0 72 0 1 24 13 0 0 5 31 0 0 2 0 0 0 0 137 0 0 0 0 1 0 0 0 0 0 0 0 0 0 5 0 0 0 13 3 0 0 0 0 0 0 2 0 0 0 0 22 3 2 2 0 0 31 0 0 0 0 0 0 0 9 0 0 2 0 0 0 0 0 0 0 0 0 0 0 15 0 0 0 0 0 0 0 0 0 0 0 0 0 0 0 0 0 0 8 0 0 0 44 0 0 0 0 0 0 0 2 0 0 0 7 0 0 0 0 0 0 93 14 0 0 0 16 0 9 0 0 8 10 3 8 0 1 2 6 21 2 0 3 0 0 8 0 0 1 9 0 3 0 0 0 0 0 0 0 0 0 6 0 0 0 0 2 0 0 0 3 0 0 0 0 0 0 0 3 0 0 0 0 0 0 0 0 0 0 0 0 0 0 3 0 0 0 0 0 0 0 0 4 0 0 22 0 0 0 0 1 0 0 0 0 0 0 0 0 0 0 0 0 0 0 0 0 0 4 0 0 0 0 0 0 0 0 0 0 0 0 0 0 0 0 0 1 0 0 0 0 0 0 0 0 29 0 0 0 0 0 0 0 0 0 0 0 0 0 0 27 0 0 0 0 0 0 0 0 0 0 0 0 0 0 0 0 0 0 0 0 0 0 0 0 0 0 0 0 0 0 0 0 0 0 0 0 0 0 0 0 0 0 0 0 0 0 0 0 0 3 0 0 0 0 0 1 0 0 0 0 0 0 0 2 0 0 0 0 9 22 0 30 91 5 6 0 1 0 0 0 0 0 8 8 0 0 0 0 0 0 2 0 0 0 0 0 0 0 0 0 0 0 0 6 0 0 0 0 0 0 0 9 8 0 3 16 0 0 0 0 0 0 0 0 0 0 0 0 1 0 0 0 0 0 0 0 0 0 0 0 0 0 0 0 0 0 0 35 0 0 3 0 0 0 0 34 0 0 0 0 0 0 0 0 0 0 0 0 0 0 0 0 0 0 0 0 0 0 0 0 0 0 0 0 13 0 0 3 1 0 0 0 0 0 0 0 25 0 0 0 0 0 0 0 0 0 4 0 0 0 20 14 0 0 0 28 30 0 0 0 0 0 0 0 0 0 6 12 0 0 0 0 0 49 2 0 5 0 4 1 2 3 1 0 0 0 0 0 0 0 0 2 0 0 0 0 0 0 0 4 0 0 10 0 11 0 0 0 0 0 0 0 0 0 80 0 0 0 0 6 2 3 11 6 1 0 0 0 98 0 0 0 0 0 1 0 0 0 0 0 0 0 0 0 0 0 0 0 0 0 0 0 0 0 0 0 0 0 0 0 0 0 0 0 0 0 0 0 0 0 0 0 0 0 0 0 0 0 0 0 0 0 33 5 0 0 0 0 4 0 0 0 0 0 0 4 2 0 0 1 0 0 0 0 0 0 0 0 2 3 0 0 0 0 0 0 0 0 0 0 8 0 0 0 0 8 0 0 0 0 0 0 0 0 0 0 0 0 0 0 0 0 0 0 0 0 0 0 0 0 0 0 0 0 28 0 0 0 0 46 0 0 0 0 0 3 12 40 2 0 0 79 0 0 0 0 61 0 0 18 10 0 12 0 0 0 0 0 0 0 0 0 0 0 0 0 33 0 0 0 0 0 0 0 3 0 0 33 0 0 0 0 0 0 0 0 0 0 0 0 0 0 0 0 0 0 0 0 0 23 0 0 0 0 0 0 0 0 0 0 0 0 0 0 0 0 0 0 0 0 0 0 0 0 0 0 0 2 0 0 95 64 0 0 0 0 0 0 0 0 0 0 105 0 1 0 0 0 0 0 0 0 0 0 2 0 0 0 0 0 0 0 0 5 9 24 0 0 0 0 0 0 0 0 0 0 38 16 0 3 13 3 0 0 0 0 0 0 0 0 0 0 0 0 0 0 0 0 0 1 3 0 0 0 0 0 0 0 0 0 3 0 0 0 0 0 9 0 0 0 0 9 0 0 0 129 0 0 0 0 0 0 0 1 0 0 0 0 0 0 0 0 0 0 0 0 0 25 0 0 0 0 0 0 0 0 0 0 0 3 0 0 0 0 10 0 0 0 0 4 0 0 20 0 8 0 0 0 0 0 0 0 0 38 0 0 11 0 0 5 0 0 0 0 0 0 0 0 16 0 0 0 0 0 0 0 0 0 0 0 0 0 0 0 0 0 0 25 0 0 3 0 0 0 0 0 0 0 0 0 0 0 0 0 0 0 0 0 0 0 0 0 0 0 0 0 0 0 0 0 0 0 18 0 0 0 0 0 0 0 0 0 0 8 2 0 0 0 0 0 0 0 0 49 0 5 9 0 0 71 10 0 0 0 0 0 0 2 0 0 0 0 0 0 0 0 0 0 0 0 0 0 0 0 0 0 0 0 0 0 0 0 0 0 0 0 1 0 0 0 8 0 0 0 0 0 0 0 0 0 0 0 0 0 0 0 0 0 0 0 0 0 0 48 0 1 0 0 0 0 0 0 0 0 0 0 0 0 0 0 0 41 36 0 0 45 0 8 0 0 0 0 0 0 0 0 0 0 0 0 0 0 0 0 0 0 0 2 2 16 1 1 2 31 0 0 0 2 0 1 0 0 0 0 0 0 0 0 0 0 0 1 0 11 0 0 0 0 0 0 0 0 0 0 0 0 0 0 0 0 0 0 0 0 0 0 9 27 0 0 41 51 14 0 0 0 0 4 0 0 1 0 20 3 0 0 0 3 0 0 0 0 3 0 0 0 0 0 2 0 0 0 0 2 2 0 0 0 0 0 0 0 0 0 0 0 0 0 0 0 4 0 0 5 0 0 0 0 0 6 0 0 0 0 0 0 0 0 0 0 1 0 1 0 0 0 0 0 0 0 0 0 0 0 0 0 0 0 1 257 0 0 0 0 0 0 0 0 0 0 0 0 0 0 0 0 0 0 0 0 0 3 0 0 0 0 0 0 0 0 0 2 0 0 0 0 0 0 0 0 0 0 0 8 0 0 0 0 0 0 0 0 0 0 0 0 0 15 0 0 0 0 0 3 200 3 0 0 0 0 0 0 0 7 0 0 0 0 0 0 0 0 0 8 0 0 0 0 0 0 0 0 0 0 0 3 2 0 9 0 0 0 0 8 6 2 0 2 0 0 0 0 1 0 0 0 0 0 11 0 0 0 0 0 0 1 0 17 0 0 0 0 0 0 0 0 0 0 0 0 0 0 0 0 0 7 0 0 0 110 0 7 0 0 0 36 0 0 0 0 0 0 0 0 0 0 0 5 0 0 0 0 0 0 0 7 0 0 0 0 0 0 0 0 0 0 0 0 17 15 0 0 0 9 0 0 0 0 0 0 0 4 5 0 0 0 2 0 0 50 0 0 0 0 0 0 24 0 0 0 17 0 0 0 0 0 0 0 0 0 0 0 0 0 0 0 0 0 0 0 0 0 0 0 0 6 0 0 0 0 0 0 0 0 29 0 0 0 0 0 0 0 0 6 0 
Printing Sanity2
Heartbeat CPU 0 instructions: 130000000 cycles: 212071328 heartbeat IPC: 0.368897 cumulative IPC: 0.404428 (Simulation time: 0 hr 10 min 8 sec) 
Heartbeat CPU 0 instructions: 140000000 cycles: 231464169 heartbeat IPC: 0.515654 cumulative IPC: 0.414359 (Simulation time: 0 hr 10 min 59 sec) 
Heartbeat CPU 0 instructions: 150000000 cycles: 255855762 heartbeat IPC: 0.409977 cumulative IPC: 0.413917 (Simulation time: 0 hr 11 min 53 sec) 
*** Reached end of trace for Core: 0 Repeating trace: traces/spec2k17/srv_51.champsimtrace.xz
Heartbeat CPU 0 instructions: 160000003 cycles: 284331015 heartbeat IPC: 0.351182 cumulative IPC: 0.407302 (Simulation time: 0 hr 12 min 48 sec) 
Heartbeat CPU 0 instructions: 170000001 cycles: 304528316 heartbeat IPC: 0.495116 cumulative IPC: 0.413412 (Simulation time: 0 hr 13 min 37 sec) 
Heartbeat CPU 0 instructions: 180000002 cycles: 329029883 heartbeat IPC: 0.408137 cumulative IPC: 0.413002 (Simulation time: 0 hr 14 min 34 sec) 
*** Reached end of trace for Core: 0 Repeating trace: traces/spec2k17/srv_51.champsimtrace.xz
Heartbeat CPU 0 instructions: 190000001 cycles: 355567263 heartbeat IPC: 0.376827 cumulative IPC: 0.410189 (Simulation time: 0 hr 15 min 27 sec) 
Heartbeat CPU 0 instructions: 200000001 cycles: 377975541 heartbeat IPC: 0.446264 cumulative IPC: 0.412412 (Simulation time: 0 hr 16 min 21 sec) 
Heartbeat CPU 0 instructions: 210000002 cycles: 402047361 heartbeat IPC: 0.415424 cumulative IPC: 0.412599 (Simulation time: 0 hr 17 min 14 sec) 
*** Reached end of trace for Core: 0 Repeating trace: traces/spec2k17/srv_51.champsimtrace.xz
Heartbeat CPU 0 instructions: 220000000 cycles: 426554422 heartbeat IPC: 0.408046 cumulative IPC: 0.412328 (Simulation time: 0 hr 18 min 7 sec) 
Heartbeat CPU 0 instructions: 230000002 cycles: 451326978 heartbeat IPC: 0.403673 cumulative IPC: 0.411837 (Simulation time: 0 hr 18 min 59 sec) 
Heartbeat CPU 0 instructions: 240000001 cycles: 475086712 heartbeat IPC: 0.42088 cumulative IPC: 0.412304 (Simulation time: 0 hr 19 min 55 sec) 
*** Reached end of trace for Core: 0 Repeating trace: traces/spec2k17/srv_51.champsimtrace.xz
Heartbeat CPU 0 instructions: 250000003 cycles: 499064293 heartbeat IPC: 0.417056 cumulative IPC: 0.412539 (Simulation time: 0 hr 20 min 40 sec) 
Finished CPU 0 instructions: 200000002 cycles: 484803103 cumulative IPC: 0.412539 (Simulation time: 0 hr 20 min 40 sec) 

ChampSim completed all CPUs

Region of Interest Statistics

CPU 0 cumulative IPC: 0.412539 instructions: 200000002 cycles: 484803103
ITLB TOTAL     ACCESS:   34145734  HIT:   33254747  MISS:     890987  HIT %:    97.3906  MISS %:    2.60937   MPKI: 4.45493
ITLB LOAD TRANSLATION ACCESS:   34145734  HIT:   33254747  MISS:     890987  HIT %:    97.3906  MISS %:    2.60937   MPKI: 4.45493
ITLB PREFETCH  REQUESTED:          0  ISSUED:          0  USEFUL:          0  USELESS:          0
ITLB USEFUL LOAD PREFETCHES:          0 PREFETCH ISSUED TO LOWER LEVEL:          0  ACCURACY: -nan
ITLB TIMELY PREFETCHES:          0 LATE PREFETCHES: 0 DROPPED PREFETCHES: 0
ITLB PREFETCHES SAME FILL-ORIGIN LEVEL: 0 DIFFERENT FILL-ORIGIN LEVEL: 0
ITLB AVERAGE MISS LATENCY: 10.1663 cycles
ITLB RQ	ACCESS:   39344325	FORWARD:          0	MERGED:    4957232	TO_CACHE:   34387093

DTLB TOTAL     ACCESS:   42117096  HIT:   41069540  MISS:    1047556  HIT %:    97.5128  MISS %:    2.48725   MPKI: 5.23778
DTLB LOAD TRANSLATION ACCESS:   42117096  HIT:   41069540  MISS:    1047556  HIT %:    97.5128  MISS %:    2.48725   MPKI: 5.23778
DTLB PREFETCH  REQUESTED:          0  ISSUED:          0  USEFUL:          0  USELESS:          0
DTLB USEFUL LOAD PREFETCHES:          0 PREFETCH ISSUED TO LOWER LEVEL:          0  ACCURACY: -nan
DTLB TIMELY PREFETCHES:          0 LATE PREFETCHES: 0 DROPPED PREFETCHES: 0
DTLB PREFETCHES SAME FILL-ORIGIN LEVEL: 0 DIFFERENT FILL-ORIGIN LEVEL: 0
DTLB AVERAGE MISS LATENCY: 15.375 cycles
DTLB RQ	ACCESS:   55147787	FORWARD:          0	MERGED:   12963991	TO_CACHE:   42183796

STLB TOTAL     ACCESS:    3464366  HIT:    3379190  MISS:      85176  HIT %:    97.5414  MISS %:    2.45863   MPKI: 0.42588
STLB LOAD TRANSLATION ACCESS:    1938543  HIT:    1856553  MISS:      81990  HIT %:    95.7705  MISS %:    4.22947   MPKI: 0.40995
STLB TRANSLATION FROM L1D PREFETCHER ACCESS:    1525823  HIT:    1522637  MISS:       3186  HIT %:    99.7912  MISS %:   0.208805   MPKI: 0.01593
STLB PREFETCH  REQUESTED:          0  ISSUED:          0  USEFUL:       2826  USELESS:        358
STLB USEFUL LOAD PREFETCHES:       2826 PREFETCH ISSUED TO LOWER LEVEL:          0  ACCURACY: inf
STLB TIMELY PREFETCHES:       2826 LATE PREFETCHES: 63 DROPPED PREFETCHES: 11592
STLB PREFETCHES SAME FILL-ORIGIN LEVEL: 0 DIFFERENT FILL-ORIGIN LEVEL: 0
STLB AVERAGE MISS LATENCY: 19655.9 cycles
STLB RQ	ACCESS:    3614291	FORWARD:          0	MERGED:     137670	TO_CACHE:    3476621

STLB Hit, L1D data hit: 0
STLB Hit, L2C data hit: 0
STLB Hit, LLC data hit: 0
STLB Hit, LLC data miss: 0
STLB STLB hints to L2: 0
L1D TOTAL     ACCESS:   55618661  HIT:   52023111  MISS:    3595550  HIT %:    93.5354  MISS %:    6.46465   MPKI: 17.9777
L1D LOAD      ACCESS:   34117664  HIT:   32519820  MISS:    1597844  HIT %:    95.3167  MISS %:    4.68333   MPKI: 7.98922
L1D RFO       ACCESS:   19969905  HIT:   19234308  MISS:     735597  HIT %:    96.3165  MISS %:    3.68353   MPKI: 3.67798
L1D PREFETCH  ACCESS:    1531092  HIT:     268983  MISS:    1262109  HIT %:     17.568  MISS %:     82.432   MPKI: 6.31054
AGUS PREFETCH L1 MISS: 0
L1D PREFETCH  REQUESTED:    3375518  ISSUED:    3375518  USEFUL:     262382  USELESS:     999718
L1D USEFUL LOAD PREFETCHES:     262382 PREFETCH ISSUED TO LOWER LEVEL:    1288528  ACCURACY: 20.3629
L1D TIMELY PREFETCHES:     262382 LATE PREFETCHES: 24175 DROPPED PREFETCHES: 12364
L1D PREFETCHES SAME FILL-ORIGIN LEVEL: 1288528 DIFFERENT FILL-ORIGIN LEVEL: 0
L1D AVERAGE MISS LATENCY: 1.8771e+06 cycles
L1D RQ	ACCESS:   46090280	FORWARD:          0	MERGED:   11572855	TO_CACHE:   34222285
L1D WQ	ACCESS:   21239484	FORWARD:     295612	MERGED:     313982	TO_CACHE:   20925502
L1D PQ	ACCESS:    1699770	FORWARD:          0	MERGED:      23550	TO_CACHE:    1675748

L1D UNIQUE REGIONS ACCESSED: 0
L1D REGIONS CONFLICTS: 0
L1D Cross Page Prefetch Requests: 94115
L1D Same Page Prefetch Requests: 2009896
L1D ROI Sum of L1D PQ occupancy: 23030673
L1D PREFETCHES PUSHED FROM L2C: 0
L1I TOTAL     ACCESS:   38618360  HIT:   33874255  MISS:    4744105  HIT %:    87.7154  MISS %:    12.2846   MPKI: 23.7205
L1I LOAD      ACCESS:   38618360  HIT:   33874255  MISS:    4744105  HIT %:    87.7154  MISS %:    12.2846   MPKI: 23.7205
L1I PREFETCH  REQUESTED:          0  ISSUED:          0  USEFUL:          0  USELESS:          0
L1I USEFUL LOAD PREFETCHES:          0 PREFETCH ISSUED TO LOWER LEVEL:          0  ACCURACY: -nan
L1I TIMELY PREFETCHES:          0 LATE PREFETCHES: 0 DROPPED PREFETCHES: 0
L1I PREFETCHES SAME FILL-ORIGIN LEVEL: 0 DIFFERENT FILL-ORIGIN LEVEL: 0
L1I AVERAGE MISS LATENCY: 25.6422 cycles
L1I RQ	ACCESS:   59218486	FORWARD:          0	MERGED:   19874161	TO_CACHE:   39344325

BTB TOTAL     ACCESS:   30738842  HIT:   24217545  MISS:    6521297  HIT %:    78.7848  MISS %:    21.2152   MPKI: 32.6065
BTB BRANCH_DIRECT_JUMP	ACCESS:    3651900  HIT:    3183732  MISS:     468168
BTB BRANCH_INDIRECT	ACCESS:   11989101  HIT:    9519360  MISS:    2469741
BTB BRANCH_CONDITIONAL	ACCESS:    8587084  HIT:    8036020  MISS:     551064
BTB BRANCH_DIRECT_CALL	ACCESS:    2662247  HIT:    1824351  MISS:     837896
BTB BRANCH_INDIRECT_CALL	ACCESS:     593188  HIT:     320085  MISS:     273103
BTB BRANCH_RETURN	ACCESS:    3255322  HIT:    1333997  MISS:    1921325
BTB BRANCH_OTHER ACCESS:          0  HIT:          0  MISS:          0

L2C TOTAL     ACCESS:    9795421  HIT:    6224085  MISS:    3571336  HIT %:    63.5408  MISS %:    36.4592   MPKI: 17.8567
L2C LOAD      ACCESS:    6317755  HIT:    3955291  MISS:    2362464  HIT %:     62.606  MISS %:     37.394   MPKI: 11.8123
L2C DATA LOAD MPKI: 3.25715
L2C INSTRUCTION LOAD MPKI: 8.55516
L2C RFO       ACCESS:     733321  HIT:     344307  MISS:     389014  HIT %:    46.9517  MISS %:    53.0483   MPKI: 1.94507
L2C PREFETCH  ACCESS:    1288521  HIT:     604102  MISS:     684419  HIT %:    46.8834  MISS %:    53.1166   MPKI: 3.42209
AGUS PREFETCH L1 MISS: 0
L2C DATA PREFETCH MPKI: 3.42209
L2C INSTRUCTION PREFETCH MPKI: 0
L2C WRITEBACK ACCESS:    1304570  HIT:    1248058  MISS:      56512  HIT %:    95.6682  MISS %:    4.33185   MPKI: 0.28256
L2C LOAD TRANSLATION ACCESS:     129655  HIT:      56821  MISS:      72834  HIT %:    43.8248  MISS %:    56.1752   MPKI: 0.36417
L2C TRANSLATION FROM L1D PREFETCHER ACCESS:      21599  HIT:      15506  MISS:       6093  HIT %:    71.7904  MISS %:    28.2096   MPKI: 0.030465
L2C PREFETCH  REQUESTED:          0  ISSUED:          0  USEFUL:      45280  USELESS:     645212
L2C USEFUL LOAD PREFETCHES:      45280 PREFETCH ISSUED TO LOWER LEVEL:     684419  ACCURACY: 6.61583
L2C TIMELY PREFETCHES:      45280 LATE PREFETCHES: 0 DROPPED PREFETCHES: 0
L2C PREFETCHES SAME FILL-ORIGIN LEVEL: 0 DIFFERENT FILL-ORIGIN LEVEL: 0
L2C AVERAGE MISS LATENCY: 57.5304 cycles
L2C RQ	ACCESS:    7202381	FORWARD:          0	MERGED:          0	TO_CACHE:    7202330
L2C WQ	ACCESS:    1304571	FORWARD:         58	MERGED:          0	TO_CACHE:    1304571
L2C PQ	ACCESS:    1288528	FORWARD:          0	MERGED:          0	TO_CACHE:    1288521

L2C Instructions Evicting Data 770389
L2C Translations Evicting Data 46666
L2C Data Evicting Data 932687
L2C Instructions Evicting Instructions 910525
L2C Translations Evicting Instructions 29905
L2C Data Evicting Instructions 746880
L2C Instructions Evicting Translations 30119
L2C Translations Evicting Translations 2356
L2C Data Evicting Translations 45297
L2C Dense regions hint from L2: 0
PSCL5 TOTAL     ACCESS:      96768  HIT:      96768  MISS:          0  HIT %:        100  MISS %:          0   MPKI: 0
PSCL5 LOAD TRANSLATION ACCESS:      81927  HIT:      81927  MISS:          0  HIT %:        100  MISS %:          0   MPKI: 0
PSCL5 TRANSLATION FROM L1D PREFETCHER ACCESS:      14841  HIT:      14841  MISS:          0  HIT %:        100  MISS %:          0   MPKI: 0
PSCL5 PREFETCH  REQUESTED:          0  ISSUED:          0  USEFUL:          0  USELESS:          0
PSCL5 USEFUL LOAD PREFETCHES:          0 PREFETCH ISSUED TO LOWER LEVEL:          0  ACCURACY: -nan
PSCL5 TIMELY PREFETCHES:          0 LATE PREFETCHES: 0 DROPPED PREFETCHES: 0
PSCL5 PREFETCHES SAME FILL-ORIGIN LEVEL: 0 DIFFERENT FILL-ORIGIN LEVEL: 0

PSCL4 TOTAL     ACCESS:      95418  HIT:      94985  MISS:        433  HIT %:    99.5462  MISS %:   0.453793   MPKI: 0.002165
PSCL4 LOAD TRANSLATION ACCESS:      81273  HIT:      80840  MISS:        433  HIT %:    99.4672  MISS %:   0.532772   MPKI: 0.002165
PSCL4 TRANSLATION FROM L1D PREFETCHER ACCESS:      14145  HIT:      14145  MISS:          0  HIT %:        100  MISS %:          0   MPKI: 0
PSCL4 PREFETCH  REQUESTED:          0  ISSUED:          0  USEFUL:          0  USELESS:          0
PSCL4 USEFUL LOAD PREFETCHES:          0 PREFETCH ISSUED TO LOWER LEVEL:          0  ACCURACY: -nan
PSCL4 TIMELY PREFETCHES:          0 LATE PREFETCHES: 0 DROPPED PREFETCHES: 0
PSCL4 PREFETCHES SAME FILL-ORIGIN LEVEL: 0 DIFFERENT FILL-ORIGIN LEVEL: 0

PSCL3 TOTAL     ACCESS:      87977  HIT:      74767  MISS:      13210  HIT %:    84.9847  MISS %:    15.0153   MPKI: 0.06605
PSCL3 LOAD TRANSLATION ACCESS:      76558  HIT:      63348  MISS:      13210  HIT %:    82.7451  MISS %:    17.2549   MPKI: 0.06605
PSCL3 TRANSLATION FROM L1D PREFETCHER ACCESS:      11419  HIT:      11419  MISS:          0  HIT %:        100  MISS %:          0   MPKI: 0
PSCL3 PREFETCH  REQUESTED:          0  ISSUED:          0  USEFUL:          0  USELESS:          0
PSCL3 USEFUL LOAD PREFETCHES:          0 PREFETCH ISSUED TO LOWER LEVEL:          0  ACCURACY: -nan
PSCL3 TIMELY PREFETCHES:          0 LATE PREFETCHES: 0 DROPPED PREFETCHES: 0
PSCL3 PREFETCHES SAME FILL-ORIGIN LEVEL: 0 DIFFERENT FILL-ORIGIN LEVEL: 0

PSCL2 TOTAL     ACCESS:      92976  HIT:      58059  MISS:      34917  HIT %:    62.4451  MISS %:    37.5549   MPKI: 0.174585
PSCL2 LOAD TRANSLATION ACCESS:      82549  HIT:      47632  MISS:      34917  HIT %:    57.7015  MISS %:    42.2985   MPKI: 0.174585
PSCL2 TRANSLATION FROM L1D PREFETCHER ACCESS:      10427  HIT:      10427  MISS:          0  HIT %:        100  MISS %:          0   MPKI: 0
PSCL2 PREFETCH  REQUESTED:          0  ISSUED:          0  USEFUL:          0  USELESS:          0
PSCL2 USEFUL LOAD PREFETCHES:          0 PREFETCH ISSUED TO LOWER LEVEL:          0  ACCURACY: -nan
PSCL2 TIMELY PREFETCHES:          0 LATE PREFETCHES: 0 DROPPED PREFETCHES: 0
PSCL2 PREFETCHES SAME FILL-ORIGIN LEVEL: 0 DIFFERENT FILL-ORIGIN LEVEL: 0

LLC TOTAL     ACCESS:    4151483  HIT:    3564303  MISS:     587180  HIT %:    85.8561  MISS %:    14.1439   MPKI: 2.9359
LLC LOAD      ACCESS:    2362462  HIT:    2159404  MISS:     203058  HIT %:    91.4048  MISS %:    8.59519   MPKI: 1.01529
LLC RFO       ACCESS:     389014  HIT:     228767  MISS:     160247  HIT %:    58.8069  MISS %:    41.1931   MPKI: 0.801235
LLC PREFETCH  ACCESS:     684419  HIT:     485818  MISS:     198601  HIT %:    70.9825  MISS %:    29.0175   MPKI: 0.993005
AGUS PREFETCH L1 MISS: 0
LLC WRITEBACK ACCESS:     636661  HIT:     631593  MISS:       5068  HIT %:     99.204  MISS %:   0.796028   MPKI: 0.02534
LLC LOAD TRANSLATION ACCESS:      72834  HIT:      53762  MISS:      19072  HIT %:    73.8144  MISS %:    26.1856   MPKI: 0.09536
LLC TRANSLATION FROM L1D PREFETCHER ACCESS:       6093  HIT:       4959  MISS:       1134  HIT %:    81.3885  MISS %:    18.6115   MPKI: 0.00567
LLC PREFETCH  REQUESTED:          0  ISSUED:          0  USEFUL:      15276  USELESS:     182802
LLC USEFUL LOAD PREFETCHES:      15276 PREFETCH ISSUED TO LOWER LEVEL:     198601  ACCURACY: 7.6918
LLC TIMELY PREFETCHES:      15276 LATE PREFETCHES: 0 DROPPED PREFETCHES: 0
LLC PREFETCHES SAME FILL-ORIGIN LEVEL: 0 DIFFERENT FILL-ORIGIN LEVEL: 0
LLC AVERAGE MISS LATENCY: 170.327 cycles
LLC RQ	ACCESS:    2830405	FORWARD:          0	MERGED:          0	TO_CACHE:    2830403
LLC WQ	ACCESS:     636662	FORWARD:          2	MERGED:          0	TO_CACHE:     636662
LLC PQ	ACCESS:     684419	FORWARD:          0	MERGED:          0	TO_CACHE:     684419

LLC Dense regions hint to LLC: 0

RAW hits: 2288800
Loads Generated: 48379080
Loads sent to L1D: 46090280
Stores Generated: 21239482
Stores sent to L1D: 21239484
Major fault: 0 Minor fault: 6400
Allocated PAGES: 6400
CPU 0 L1D 
Prefetch count 1602623 BOP and RL 

DRAM Statistics
 CHANNEL 0
 RQ ROW_BUFFER_HIT:     147944  ROW_BUFFER_MISS:     434161
 DBUS_CONGESTED:        277
 WQ ROW_BUFFER_HIT:      40584  ROW_BUFFER_MISS:     242902  FULL:          0

 AVG_CONGESTED_CYCLE: 4
 All warmup complete: 2
Channel 0 Bank busy for read cycles: 0
Channel 0 Bank busy for write cycles: 0
Channel 0
Rank 0
0banks busy for read cycles: 416285748
0banks busy for write cycles: 112782
1banks busy for read cycles: 25072521
1banks busy for write cycles: 14391083
2banks busy for read cycles: 12440399
2banks busy for write cycles: 5791159
3banks busy for read cycles: 2337695
3banks busy for write cycles: 2298568
4banks busy for read cycles: 1030091
4banks busy for write cycles: 1096105
5banks busy for read cycles: 243087
5banks busy for write cycles: 553289
6banks busy for read cycles: 211035
6banks busy for write cycles: 294309
7banks busy for read cycles: 260999
7banks busy for write cycles: 283764
8banks busy for read cycles: 910875
8banks busy for write cycles: 1189595

CPU 0 Branch Prediction Accuracy: 99.6854% MPKI: 0.56232 Average ROB Occupancy at Mispredict: 37.5133
Branch types
NOT_BRANCH: 164252984 82.1265%
BRANCH_DIRECT_JUMP: 3651900 1.82595%
BRANCH_INDIRECT: 11989101 5.99455%
BRANCH_CONDITIONAL: 13594936 6.79747%
BRANCH_DIRECT_CALL: 2662247 1.33112%
BRANCH_INDIRECT_CALL: 593188 0.296594%
BRANCH_RETURN: 3255322 1.62766%
BRANCH_OTHER: 0 0%

DRAM PAGES: 1048576
Allocated PAGES: 6400
