
*** ChampSim Multicore Out-of-Order Simulator ***

Warmup Instructions: 50000000
Simulation Instructions: 200000000
Number of CPUs: 1
LLC sets: 2048
LLC ways: 16
Off-chip DRAM Size: 4096 MB Channels: 1 Width: 64-bit Data Rate: 6400 MT/s
CPU 0 runs traces/spec2k17/srv_62.champsimtrace.xz
.xz
BTB has LRU replacement policy
ITLB has LRU replacement policy
DTLB has LRU replacement policy
STLB has LRU replacement policy
L1I has LRU replacement policy
CPU 0 l1d next line prefetcher
L1D has LRU replacement policy
Initialize SRRIP state for L2C
Initialize DRRIP state for LLC
Offsets elements: 
Potential of Offsets elements: 
rewards of Offsets elements: 
Printing Sanity1
offset list size2560
Heartbeat CPU 0 instructions: 10000003 cycles: 2781803 heartbeat IPC: 3.59479 cumulative IPC: 3.59479 (Simulation time: 0 hr 0 min 34 sec) 
Heartbeat CPU 0 instructions: 20000001 cycles: 5558733 heartbeat IPC: 3.6011 cumulative IPC: 3.59794 (Simulation time: 0 hr 1 min 10 sec) 
Heartbeat CPU 0 instructions: 30000000 cycles: 8334762 heartbeat IPC: 3.60227 cumulative IPC: 3.59938 (Simulation time: 0 hr 1 min 43 sec) 
*** Reached end of trace for Core: 0 Repeating trace: traces/spec2k17/srv_62.champsimtrace.xz
Heartbeat CPU 0 instructions: 40000000 cycles: 11110729 heartbeat IPC: 3.60235 cumulative IPC: 3.60012 (Simulation time: 0 hr 2 min 15 sec) 
Heartbeat CPU 0 instructions: 50000003 cycles: 13887957 heartbeat IPC: 3.60071 cumulative IPC: 3.60024 (Simulation time: 0 hr 2 min 48 sec) 

Warmup complete CPU 0 instructions: 50000003 cycles: 13887957 (Simulation time: 0 hr 2 min 48 sec) 

Heartbeat CPU 0 instructions: 60000002 cycles: 36198984 heartbeat IPC: 0.448209 cumulative IPC: 0.448209 (Simulation time: 0 hr 3 min 43 sec) 
*** Reached end of trace for Core: 0 Repeating trace: traces/spec2k17/srv_62.champsimtrace.xz
Heartbeat CPU 0 instructions: 70000002 cycles: 58751367 heartbeat IPC: 0.443412 cumulative IPC: 0.445798 (Simulation time: 0 hr 4 min 34 sec) 
Heartbeat CPU 0 instructions: 80000000 cycles: 81510303 heartbeat IPC: 0.439388 cumulative IPC: 0.44364 (Simulation time: 0 hr 5 min 29 sec) 
Heartbeat CPU 0 instructions: 90000000 cycles: 103747253 heartbeat IPC: 0.449702 cumulative IPC: 0.44514 (Simulation time: 0 hr 6 min 25 sec) 
*** Reached end of trace for Core: 0 Repeating trace: traces/spec2k17/srv_62.champsimtrace.xz
Heartbeat CPU 0 instructions: 100000002 cycles: 125950986 heartbeat IPC: 0.450375 cumulative IPC: 0.446177 (Simulation time: 0 hr 7 min 19 sec) 
Heartbeat CPU 0 instructions: 110000000 cycles: 148901189 heartbeat IPC: 0.435726 cumulative IPC: 0.444401 (Simulation time: 0 hr 8 min 14 sec) 
Heartbeat CPU 0 instructions: 120000000 cycles: 171347831 heartbeat IPC: 0.445501 cumulative IPC: 0.444558 (Simulation time: 0 hr 9 min 8 sec) 
*** Reached end of trace for Core: 0 Repeating trace: traces/spec2k17/srv_62.champsimtrace.xz
Offsets elements: 
Potential of Offsets elements: 
rewards of Offsets elements: 0 117 117 0 246 0 0 0 0 0 0 0 0 0 0 0 0 1 0 0 0 0 0 0 0 0 34 0 0 26 0 4 0 0 0 1 0 0 0 0 0 2 0 0 0 0 0 0 0 0 0 1 1 0 0 0 0 0 0 0 0 1 0 0 0 1 2 0 1 0 0 0 0 0 0 0 0 0 0 0 0 0 0 0 0 0 0 1 0 0 0 0 0 2 0 0 0 0 0 0 0 2 0 0 0 0 0 0 0 0 0 0 0 0 0 0 0 0 13 1 4 0 0 0 0 0 0 0 145 0 0 1 0 0 2 0 0 0 0 0 0 0 0 1 0 0 0 0 0 0 0 0 0 0 0 0 0 0 0 0 0 0 0 0 0 5 0 0 0 2 0 0 0 0 4 0 0 0 0 0 0 2 0 0 0 40 3 0 0 0 3 0 0 0 0 0 0 0 0 0 6 2 0 0 0 1 6 0 1 0 0 0 0 0 0 0 0 0 0 1 0 0 0 0 75 0 0 0 0 0 0 0 0 0 0 0 0 0 0 0 0 36 0 1 0 0 0 0 0 100 0 10 74 22 7 0 0 0 0 0 0 0 0 0 0 0 0 0 0 0 2 0 0 0 0 0 0 0 0 0 0 2 0 0 0 0 0 0 0 0 0 33 0 0 0 0 0 0 0 0 6 0 0 3 0 0 0 0 0 0 0 10 0 0 0 1 0 0 204 0 0 0 0 0 0 0 55 0 0 0 0 0 0 0 0 12 0 0 0 0 0 1 0 0 0 69 0 18 0 0 0 0 1 0 55 0 0 0 1 0 0 0 0 0 0 0 0 0 0 0 0 0 13 3 1 0 1 0 0 0 0 0 30 0 0 0 0 0 0 0 0 0 0 0 2 0 0 0 2 0 0 0 0 12 1 0 0 0 0 4 0 5 0 0 1 0 0 50 0 0 0 0 0 0 0 0 0 0 0 0 0 0 0 0 0 0 0 0 0 0 2 0 0 0 0 0 0 0 0 0 1 5 0 0 0 0 0 1 0 0 1 1 0 0 0 0 0 0 0 0 0 0 0 0 0 12 8 4 0 0 0 0 2 0 0 0 0 0 0 0 35 0 0 0 0 0 0 12 1 0 1 0 0 0 0 0 0 0 6 0 0 0 0 38 0 0 0 0 0 0 0 0 0 0 0 0 17 108 0 0 0 0 0 0 78 3 1 0 26 56 147 34 0 0 0 0 0 10 0 0 0 0 0 0 0 0 0 1 0 0 3 0 0 0 0 0 5 3 2 49 0 0 0 5 15 112 1 0 30 0 0 0 0 0 0 0 0 0 0 0 0 0 0 0 0 0 0 0 7 1 0 0 21 0 0 3 0 0 0 0 0 0 0 0 0 0 0 0 0 0 0 0 0 0 0 0 0 1 0 0 6 0 0 0 0 0 1 1 0 0 0 0 0 0 1 0 0 0 0 0 0 0 0 0 0 0 0 0 0 0 0 0 0 0 0 0 0 0 0 0 0 0 0 0 2 1 1 0 0 0 5 0 0 0 0 0 0 0 0 1 0 0 0 0 0 0 0 3 1 0 0 0 47 0 0 23 4 0 2 0 0 0 0 0 0 0 0 0 0 0 0 0 0 0 0 8 0 0 0 0 0 0 0 0 2 0 0 0 0 0 0 0 0 0 0 0 0 0 0 1 1 0 1 0 0 0 0 0 0 0 0 0 0 0 0 0 0 0 0 0 0 0 0 0 2 3 1 0 1 0 0 0 0 0 0 0 0 0 0 0 0 0 0 0 0 0 0 0 0 0 0 0 0 0 0 0 0 0 0 0 0 0 0 0 0 0 0 0 0 0 0 0 0 0 0 0 0 0 0 1 2 0 0 0 0 0 6 0 0 0 0 0 0 1 0 0 0 0 0 0 0 0 0 0 0 0 8 0 0 0 0 0 0 0 8 0 0 0 0 0 0 0 0 0 0 0 0 0 0 0 0 0 57 13 9 3 0 0 0 0 0 0 0 0 0 0 0 0 0 0 0 0 0 0 0 0 0 0 0 19 0 0 0 0 0 0 0 0 0 0 0 0 0 0 0 0 0 0 0 0 0 0 0 0 0 1 1 0 0 0 0 0 0 0 0 0 0 0 0 0 0 0 0 0 0 0 0 0 0 0 0 0 0 0 0 0 0 12 0 0 0 0 0 0 0 0 0 0 1 6 6 19 0 0 0 0 0 0 0 2 0 0 0 0 0 0 0 0 0 0 0 0 1 0 0 1 0 0 0 0 0 0 0 0 0 0 0 0 0 0 6 0 0 0 0 0 0 0 0 0 0 0 0 0 0 0 0 0 0 0 0 0 0 0 0 0 0 0 0 0 0 0 0 0 0 0 0 0 0 3 0 0 0 1 0 0 0 0 0 0 0 0 0 0 1 0 0 0 1 17 1 1 0 0 0 1 0 0 0 0 0 0 0 0 3 0 0 0 49 0 0 0 0 0 0 0 0 0 0 0 0 0 0 0 0 0 15 0 8 0 0 0 0 0 0 0 0 0 0 7 0 0 0 0 0 0 0 0 1 0 0 0 0 0 0 0 0 0 0 0 0 0 0 0 0 0 0 0 48 0 0 0 0 0 0 0 1 0 0 0 1 0 0 0 0 0 0 0 7 0 0 0 0 0 0 0 0 5 0 0 0 0 0 0 1 0 0 0 1 0 0 0 0 0 0 0 0 0 3 0 0 0 0 0 0 0 0 0 0 0 0 0 0 0 0 0 0 0 0 2 0 0 0 0 0 0 0 0 0 0 0 0 0 0 0 0 0 0 0 0 0 0 0 3 0 0 0 0 0 0 0 1 0 0 0 0 0 0 0 0 0 0 0 0 1 0 0 0 1 0 0 0 0 0 0 0 0 0 0 0 0 0 0 0 0 0 0 2 0 1 0 0 0 0 4 4 0 0 0 1 0 0 0 0 0 0 0 0 5 0 0 0 0 0 1 1 0 0 0 0 0 0 1 0 0 0 0 0 0 0 0 0 0 0 0 3 0 0 5 0 0 0 0 0 0 0 0 0 0 0 0 1 0 0 0 0 0 0 0 0 0 0 0 0 0 0 0 0 0 0 0 0 0 1 0 0 0 0 0 0 0 0 0 0 0 0 0 0 0 0 0 0 0 0 0 0 0 0 0 0 0 0 0 0 0 0 0 0 0 2 0 0 0 0 0 0 0 0 0 1 0 0 1 0 0 0 0 80 10 0 0 0 0 13 0 0 11 0 0 0 0 0 0 0 0 0 0 0 0 0 0 0 0 0 0 0 0 1 1 0 0 0 0 0 0 0 0 0 0 0 0 3 1 0 0 0 0 0 0 0 0 0 0 0 0 0 0 0 1 0 0 0 0 0 0 0 0 0 0 0 0 2 5 0 0 0 5 0 0 0 0 0 0 0 0 0 4 0 0 0 0 0 0 0 0 0 0 0 0 0 0 0 0 0 0 0 0 0 0 0 0 0 0 0 0 0 0 0 0 5 0 0 0 0 0 0 0 0 0 0 0 0 0 0 0 0 0 0 0 0 0 0 0 0 0 0 0 0 0 0 0 0 0 2 0 0 3 0 0 0 0 0 10 0 0 0 0 0 1 0 0 0 1 1 2 3 0 0 0 0 0 0 0 0 0 0 0 0 0 0 0 0 0 1 0 3 0 0 0 0 0 0 0 2 2 2 2 5 8 0 0 0 0 0 0 0 0 0 0 6 0 0 0 0 0 3 0 4 0 49 0 0 0 0 0 0 0 2 4 0 0 0 0 0 0 0 0 0 0 0 0 0 0 0 0 0 0 0 0 0 0 0 0 0 0 0 0 0 0 0 0 0 0 0 0 0 0 0 1 0 2 0 0 0 0 1 0 0 1 0 0 0 0 0 0 0 0 0 3 0 0 0 0 0 0 0 0 0 0 0 0 0 0 0 2 0 0 0 0 0 0 0 0 0 0 0 0 0 0 0 1 0 0 0 0 0 0 24 0 0 0 0 0 0 1 1 0 0 0 0 0 0 0 0 0 0 0 0 0 0 0 0 0 0 0 0 0 2 0 0 0 0 0 0 0 0 0 0 0 0 0 0 0 0 0 0 0 0 0 0 0 1 0 0 0 0 0 0 0 0 0 0 0 28 0 0 0 0 0 0 0 0 0 0 0 0 0 39 0 0 0 0 0 0 0 0 0 0 0 0 0 0 0 0 0 0 0 0 0 0 5 2 0 8 0 1 0 0 0 0 0 0 0 0 0 0 0 0 0 1 0 0 0 0 22 0 0 0 0 0 0 0 0 0 0 2 0 0 0 0 0 0 0 1 0 0 0 0 0 0 1 0 0 0 0 0 0 0 0 0 0 0 0 0 0 0 0 0 1 0 0 0 0 0 0 0 0 0 2 2 0 0 0 0 0 0 31 0 0 0 0 0 0 0 0 0 0 0 0 0 0 0 0 0 0 2 0 0 0 0 0 0 0 0 0 0 0 0 0 0 0 0 2 2 1 6 0 1 0 0 0 0 0 1 0 0 0 0 0 12 0 0 3 0 0 0 0 0 0 0 0 0 0 0 0 0 0 0 0 0 0 0 0 0 0 0 0 0 0 0 0 0 0 0 0 0 0 0 0 0 0 0 0 0 0 0 0 0 0 0 0 0 0 0 0 0 0 0 0 0 0 0 0 0 0 0 0 0 0 0 0 2 0 0 1 7 0 0 0 0 0 0 0 0 0 0 1 0 2 0 0 0 0 27 1 0 7 0 0 1 0 0 0 0 0 2 0 2 0 0 0 0 0 0 0 0 0 0 0 1 0 0 47 0 0 0 0 0 0 0 0 4 0 0 0 0 0 0 0 0 0 0 0 0 0 0 0 0 0 0 0 0 0 0 0 0 0 0 0 0 0 0 0 0 0 0 0 0 0 0 0 0 2 0 0 4 0 0 0 0 0 0 1 0 0 0 0 0 0 0 0 0 0 0 0 0 0 0 0 0 0 0 0 0 0 0 8 0 0 0 0 0 0 0 0 0 0 0 0 0 0 0 0 0 0 0 0 0 0 0 0 10 1 0 0 0 0 0 0 2 0 0 0 0 0 0 0 0 0 0 0 0 0 0 0 0 0 0 3 2 1 1 0 0 0 0 0 0 0 0 0 0 0 1 2 0 5 0 0 16 0 0 0 0 0 0 0 0 0 0 0 0 0 0 0 2 0 3 0 0 0 0 2 0 0 0 0 0 0 1 0 0 0 0 0 0 0 0 0 0 0 0 0 7 0 0 0 0 0 0 0 0 0 0 0 0 1 2 1 0 12 0 0 0 0 0 0 1 0 0 0 0 0 0 0 0 0 0 2 0 1 0 0 0 0 0 0 0 0 0 0 0 0 0 0 0 1 0 1 37 0 0 0 0 0 0 0 0 0 0 0 0 0 0 0 0 0 0 0 0 0 0 0 0 1 0 0 0 0 0 0 0 0 1 0 0 0 0 2 0 0 0 0 0 1 0 0 0 0 0 0 0 0 0 0 0 0 0 0 0 0 0 18 0 0 0 0 0 0 3 0 0 0 0 0 0 0 0 6 0 0 0 0 0 0 0 0 0 0 39 0 0 0 0 0 0 0 0 0 0 0 0 0 0 0 0 0 0 0 0 0 0 0 0 0 5 0 0 0 0 0 0 0 0 0 0 0 0 0 0 0 0 0 0 0 0 0 0 0 2 0 0 0 0 0 0 11 0 0 0 0 0 0 0 0 1 0 0 17 4 
Printing Sanity2
Heartbeat CPU 0 instructions: 130000002 cycles: 193383484 heartbeat IPC: 0.45381 cumulative IPC: 0.445694 (Simulation time: 0 hr 10 min 3 sec) 
Heartbeat CPU 0 instructions: 140000001 cycles: 216318726 heartbeat IPC: 0.43601 cumulative IPC: 0.444596 (Simulation time: 0 hr 10 min 54 sec) 
Heartbeat CPU 0 instructions: 150000000 cycles: 238939255 heartbeat IPC: 0.442076 cumulative IPC: 0.444343 (Simulation time: 0 hr 11 min 47 sec) 
*** Reached end of trace for Core: 0 Repeating trace: traces/spec2k17/srv_62.champsimtrace.xz
Heartbeat CPU 0 instructions: 160000000 cycles: 260708556 heartbeat IPC: 0.459362 cumulative IPC: 0.445668 (Simulation time: 0 hr 12 min 41 sec) 
Heartbeat CPU 0 instructions: 170000001 cycles: 283616569 heartbeat IPC: 0.436529 cumulative IPC: 0.444892 (Simulation time: 0 hr 13 min 35 sec) 
Heartbeat CPU 0 instructions: 180000001 cycles: 306581202 heartbeat IPC: 0.435452 cumulative IPC: 0.444151 (Simulation time: 0 hr 14 min 28 sec) 
*** Reached end of trace for Core: 0 Repeating trace: traces/spec2k17/srv_62.champsimtrace.xz
Heartbeat CPU 0 instructions: 190000000 cycles: 328285295 heartbeat IPC: 0.460743 cumulative IPC: 0.445296 (Simulation time: 0 hr 15 min 19 sec) 
Heartbeat CPU 0 instructions: 200000002 cycles: 351222449 heartbeat IPC: 0.435974 cumulative IPC: 0.444663 (Simulation time: 0 hr 16 min 10 sec) 
Heartbeat CPU 0 instructions: 210000000 cycles: 373873730 heartbeat IPC: 0.441476 cumulative IPC: 0.444462 (Simulation time: 0 hr 17 min 5 sec) 
*** Reached end of trace for Core: 0 Repeating trace: traces/spec2k17/srv_62.champsimtrace.xz
Heartbeat CPU 0 instructions: 220000000 cycles: 395710917 heartbeat IPC: 0.457934 cumulative IPC: 0.445233 (Simulation time: 0 hr 18 min 0 sec) 
Heartbeat CPU 0 instructions: 230000002 cycles: 418623541 heartbeat IPC: 0.436441 cumulative IPC: 0.444735 (Simulation time: 0 hr 18 min 52 sec) 
Heartbeat CPU 0 instructions: 240000003 cycles: 441029829 heartbeat IPC: 0.446303 cumulative IPC: 0.444817 (Simulation time: 0 hr 19 min 26 sec) 
*** Reached end of trace for Core: 0 Repeating trace: traces/spec2k17/srv_62.champsimtrace.xz
Heartbeat CPU 0 instructions: 250000000 cycles: 463140162 heartbeat IPC: 0.452277 cumulative IPC: 0.445184 (Simulation time: 0 hr 19 min 59 sec) 
Finished CPU 0 instructions: 200000000 cycles: 449252223 cumulative IPC: 0.445184 (Simulation time: 0 hr 19 min 59 sec) 

ChampSim completed all CPUs

Region of Interest Statistics

CPU 0 cumulative IPC: 0.445184 instructions: 200000000 cycles: 449252223
ITLB TOTAL     ACCESS:   31573353  HIT:   30798599  MISS:     774754  HIT %:    97.5462  MISS %:    2.45382   MPKI: 3.87377
ITLB LOAD TRANSLATION ACCESS:   31573353  HIT:   30798599  MISS:     774754  HIT %:    97.5462  MISS %:    2.45382   MPKI: 3.87377
ITLB PREFETCH  REQUESTED:          0  ISSUED:          0  USEFUL:          0  USELESS:          0
ITLB USEFUL LOAD PREFETCHES:          0 PREFETCH ISSUED TO LOWER LEVEL:          0  ACCURACY: -nan
ITLB TIMELY PREFETCHES:          0 LATE PREFETCHES: 0 DROPPED PREFETCHES: 0
ITLB PREFETCHES SAME FILL-ORIGIN LEVEL: 0 DIFFERENT FILL-ORIGIN LEVEL: 0
ITLB AVERAGE MISS LATENCY: 14.1691 cycles
ITLB RQ	ACCESS:   38436077	FORWARD:          0	MERGED:    6668582	TO_CACHE:   31767495

DTLB TOTAL     ACCESS:   37254873  HIT:   34687531  MISS:    2567342  HIT %:    93.1087  MISS %:    6.89129   MPKI: 12.8367
DTLB LOAD TRANSLATION ACCESS:   37254873  HIT:   34687531  MISS:    2567342  HIT %:    93.1087  MISS %:    6.89129   MPKI: 12.8367
DTLB PREFETCH  REQUESTED:          0  ISSUED:          0  USEFUL:          0  USELESS:          0
DTLB USEFUL LOAD PREFETCHES:          0 PREFETCH ISSUED TO LOWER LEVEL:          0  ACCURACY: -nan
DTLB TIMELY PREFETCHES:          0 LATE PREFETCHES: 0 DROPPED PREFETCHES: 0
DTLB PREFETCHES SAME FILL-ORIGIN LEVEL: 0 DIFFERENT FILL-ORIGIN LEVEL: 0
DTLB AVERAGE MISS LATENCY: 13.9897 cycles
DTLB RQ	ACCESS:   47745426	FORWARD:          0	MERGED:   10343791	TO_CACHE:   37401635

STLB TOTAL     ACCESS:    5196444  HIT:    4853120  MISS:     343324  HIT %:    93.3931  MISS %:     6.6069   MPKI: 1.71662
STLB LOAD TRANSLATION ACCESS:    3342096  HIT:    3005963  MISS:     336133  HIT %:    89.9424  MISS %:    10.0576   MPKI: 1.68067
STLB TRANSLATION FROM L1D PREFETCHER ACCESS:    1854348  HIT:    1847157  MISS:       7191  HIT %:    99.6122  MISS %:   0.387791   MPKI: 0.035955
STLB PREFETCH  REQUESTED:          0  ISSUED:          0  USEFUL:       6103  USELESS:       1090
STLB USEFUL LOAD PREFETCHES:       6103 PREFETCH ISSUED TO LOWER LEVEL:          0  ACCURACY: inf
STLB TIMELY PREFETCHES:       6103 LATE PREFETCHES: 63 DROPPED PREFETCHES: 20349
STLB PREFETCHES SAME FILL-ORIGIN LEVEL: 0 DIFFERENT FILL-ORIGIN LEVEL: 0
STLB AVERAGE MISS LATENCY: 49.5316 cycles
STLB RQ	ACCESS:    5401852	FORWARD:          0	MERGED:     183897	TO_CACHE:    5217955

STLB Hit, L1D data hit: 0
STLB Hit, L2C data hit: 0
STLB Hit, LLC data hit: 0
STLB Hit, LLC data miss: 0
STLB STLB hints to L2: 0
L1D TOTAL     ACCESS:   49131635  HIT:   45151074  MISS:    3980561  HIT %:    91.8982  MISS %:    8.10183   MPKI: 19.9028
L1D LOAD      ACCESS:   27653245  HIT:   25661868  MISS:    1991377  HIT %:    92.7988  MISS %:    7.20124   MPKI: 9.95688
L1D RFO       ACCESS:   19605185  HIT:   19272384  MISS:     332801  HIT %:    98.3025  MISS %:    1.69752   MPKI: 1.664
L1D PREFETCH  ACCESS:    1873205  HIT:     216822  MISS:    1656383  HIT %:    11.5749  MISS %:    88.4251   MPKI: 8.28191
AGUS PREFETCH L1 MISS: 0
L1D PREFETCH  REQUESTED:    4147917  ISSUED:    4147917  USEFUL:     358981  USELESS:    1297396
L1D USEFUL LOAD PREFETCHES:     358981 PREFETCH ISSUED TO LOWER LEVEL:    1678197  ACCURACY: 21.3909
L1D TIMELY PREFETCHES:     358981 LATE PREFETCHES: 20938 DROPPED PREFETCHES: 23228
L1D PREFETCHES SAME FILL-ORIGIN LEVEL: 1678197 DIFFERENT FILL-ORIGIN LEVEL: 0
L1D AVERAGE MISS LATENCY: 1.29724e+06 cycles
L1D RQ	ACCESS:   42258924	FORWARD:          0	MERGED:   14259995	TO_CACHE:   27756587
L1D WQ	ACCESS:   20274529	FORWARD:     242789	MERGED:     285690	TO_CACHE:   19988839
L1D PQ	ACCESS:    2088161	FORWARD:          0	MERGED:      27958	TO_CACHE:    2059756

L1D UNIQUE REGIONS ACCESSED: 0
L1D REGIONS CONFLICTS: 0
L1D Cross Page Prefetch Requests: 96679
L1D Same Page Prefetch Requests: 2510034
L1D ROI Sum of L1D PQ occupancy: 27796087
L1D PREFETCHES PUSHED FROM L2C: 0
L1I TOTAL     ACCESS:   36636702  HIT:   31507423  MISS:    5129279  HIT %:    85.9996  MISS %:    14.0004   MPKI: 25.6464
L1I LOAD      ACCESS:   36636702  HIT:   31507423  MISS:    5129279  HIT %:    85.9996  MISS %:    14.0004   MPKI: 25.6464
L1I PREFETCH  REQUESTED:          0  ISSUED:          0  USEFUL:          0  USELESS:          0
L1I USEFUL LOAD PREFETCHES:          0 PREFETCH ISSUED TO LOWER LEVEL:          0  ACCURACY: -nan
L1I TIMELY PREFETCHES:          0 LATE PREFETCHES: 0 DROPPED PREFETCHES: 0
L1I PREFETCHES SAME FILL-ORIGIN LEVEL: 0 DIFFERENT FILL-ORIGIN LEVEL: 0
L1I AVERAGE MISS LATENCY: 27.7244 cycles
L1I RQ	ACCESS:   57306352	FORWARD:          0	MERGED:   18870275	TO_CACHE:   38436077

BTB TOTAL     ACCESS:   22279877  HIT:   17885755  MISS:    4394122  HIT %:    80.2776  MISS %:    19.7224   MPKI: 21.9706
BTB BRANCH_DIRECT_JUMP	ACCESS:    1742964  HIT:    1496507  MISS:     246457
BTB BRANCH_INDIRECT	ACCESS:    9461245  HIT:    7317391  MISS:    2143854
BTB BRANCH_CONDITIONAL	ACCESS:    4743514  HIT:    4337322  MISS:     406192
BTB BRANCH_DIRECT_CALL	ACCESS:    2483118  HIT:    2001034  MISS:     482084
BTB BRANCH_INDIRECT_CALL	ACCESS:     682660  HIT:     643233  MISS:      39427
BTB BRANCH_RETURN	ACCESS:    3166376  HIT:    2090268  MISS:    1076108
BTB BRANCH_OTHER ACCESS:          0  HIT:          0  MISS:          0

L2C TOTAL     ACCESS:   10678002  HIT:    6418439  MISS:    4259563  HIT %:     60.109  MISS %:     39.891   MPKI: 21.2978
L2C LOAD      ACCESS:    7099489  HIT:    4121633  MISS:    2977856  HIT %:    58.0553  MISS %:    41.9447   MPKI: 14.8893
L2C DATA LOAD MPKI: 4.08036
L2C INSTRUCTION LOAD MPKI: 10.8089
L2C RFO       ACCESS:     331913  HIT:     193785  MISS:     138128  HIT %:    58.3843  MISS %:    41.6157   MPKI: 0.69064
L2C PREFETCH  ACCESS:    1678184  HIT:     777212  MISS:     900972  HIT %:    46.3127  MISS %:    53.6873   MPKI: 4.50486
AGUS PREFETCH L1 MISS: 0
L2C DATA PREFETCH MPKI: 4.50486
L2C INSTRUCTION PREFETCH MPKI: 0
L2C WRITEBACK ACCESS:    1086077  HIT:    1045559  MISS:      40518  HIT %:    96.2693  MISS %:    3.73067   MPKI: 0.20259
L2C LOAD TRANSLATION ACCESS:     443778  HIT:     247783  MISS:     195995  HIT %:    55.8349  MISS %:    44.1651   MPKI: 0.979975
L2C TRANSLATION FROM L1D PREFETCHER ACCESS:      38561  HIT:      32467  MISS:       6094  HIT %:    84.1965  MISS %:    15.8035   MPKI: 0.03047
L2C PREFETCH  REQUESTED:          0  ISSUED:          0  USEFUL:      47280  USELESS:     859943
L2C USEFUL LOAD PREFETCHES:      47280 PREFETCH ISSUED TO LOWER LEVEL:     900973  ACCURACY: 5.24766
L2C TIMELY PREFETCHES:      47280 LATE PREFETCHES: 0 DROPPED PREFETCHES: 0
L2C PREFETCHES SAME FILL-ORIGIN LEVEL: 0 DIFFERENT FILL-ORIGIN LEVEL: 0
L2C AVERAGE MISS LATENCY: 44.4256 cycles
L2C RQ	ACCESS:    7913984	FORWARD:          0	MERGED:          0	TO_CACHE:    7913741
L2C WQ	ACCESS:    1086078	FORWARD:        254	MERGED:          0	TO_CACHE:    1086078
L2C PQ	ACCESS:    1678197	FORWARD:          0	MERGED:          0	TO_CACHE:    1678186

L2C Instructions Evicting Data 951808
L2C Translations Evicting Data 88848
L2C Data Evicting Data 836734
L2C Instructions Evicting Instructions 1108041
L2C Translations Evicting Instructions 103875
L2C Data Evicting Instructions 929035
L2C Instructions Evicting Translations 101935
L2C Translations Evicting Translations 9366
L2C Data Evicting Translations 89403
L2C Dense regions hint from L2: 0
PSCL5 TOTAL     ACCESS:     363673  HIT:     363673  MISS:          0  HIT %:        100  MISS %:          0   MPKI: 0
PSCL5 LOAD TRANSLATION ACCESS:     336070  HIT:     336070  MISS:          0  HIT %:        100  MISS %:          0   MPKI: 0
PSCL5 TRANSLATION FROM L1D PREFETCHER ACCESS:      27603  HIT:      27603  MISS:          0  HIT %:        100  MISS %:          0   MPKI: 0
PSCL5 PREFETCH  REQUESTED:          0  ISSUED:          0  USEFUL:          0  USELESS:          0
PSCL5 USEFUL LOAD PREFETCHES:          0 PREFETCH ISSUED TO LOWER LEVEL:          0  ACCURACY: -nan
PSCL5 TIMELY PREFETCHES:          0 LATE PREFETCHES: 0 DROPPED PREFETCHES: 0
PSCL5 PREFETCHES SAME FILL-ORIGIN LEVEL: 0 DIFFERENT FILL-ORIGIN LEVEL: 0

PSCL4 TOTAL     ACCESS:     305214  HIT:     304904  MISS:        310  HIT %:    99.8984  MISS %:   0.101568   MPKI: 0.00155
PSCL4 LOAD TRANSLATION ACCESS:     283738  HIT:     283428  MISS:        310  HIT %:    99.8907  MISS %:   0.109256   MPKI: 0.00155
PSCL4 TRANSLATION FROM L1D PREFETCHER ACCESS:      21476  HIT:      21476  MISS:          0  HIT %:        100  MISS %:          0   MPKI: 0
PSCL4 PREFETCH  REQUESTED:          0  ISSUED:          0  USEFUL:          0  USELESS:          0
PSCL4 USEFUL LOAD PREFETCHES:          0 PREFETCH ISSUED TO LOWER LEVEL:          0  ACCURACY: -nan
PSCL4 TIMELY PREFETCHES:          0 LATE PREFETCHES: 0 DROPPED PREFETCHES: 0
PSCL4 PREFETCHES SAME FILL-ORIGIN LEVEL: 0 DIFFERENT FILL-ORIGIN LEVEL: 0

PSCL3 TOTAL     ACCESS:     362490  HIT:     361560  MISS:        930  HIT %:    99.7434  MISS %:   0.256559   MPKI: 0.00465
PSCL3 LOAD TRANSLATION ACCESS:     335018  HIT:     334088  MISS:        930  HIT %:    99.7224  MISS %:   0.277597   MPKI: 0.00465
PSCL3 TRANSLATION FROM L1D PREFETCHER ACCESS:      27472  HIT:      27472  MISS:          0  HIT %:        100  MISS %:          0   MPKI: 0
PSCL3 PREFETCH  REQUESTED:          0  ISSUED:          0  USEFUL:          0  USELESS:          0
PSCL3 USEFUL LOAD PREFETCHES:          0 PREFETCH ISSUED TO LOWER LEVEL:          0  ACCURACY: -nan
PSCL3 TIMELY PREFETCHES:          0 LATE PREFETCHES: 0 DROPPED PREFETCHES: 0
PSCL3 PREFETCHES SAME FILL-ORIGIN LEVEL: 0 DIFFERENT FILL-ORIGIN LEVEL: 0

PSCL2 TOTAL     ACCESS:     354413  HIT:     246243  MISS:     108170  HIT %:    69.4791  MISS %:    30.5209   MPKI: 0.54085
PSCL2 LOAD TRANSLATION ACCESS:     337733  HIT:     229563  MISS:     108170  HIT %:    67.9717  MISS %:    32.0283   MPKI: 0.54085
PSCL2 TRANSLATION FROM L1D PREFETCHER ACCESS:      16680  HIT:      16680  MISS:          0  HIT %:        100  MISS %:          0   MPKI: 0
PSCL2 PREFETCH  REQUESTED:          0  ISSUED:          0  USEFUL:          0  USELESS:          0
PSCL2 USEFUL LOAD PREFETCHES:          0 PREFETCH ISSUED TO LOWER LEVEL:          0  ACCURACY: -nan
PSCL2 TIMELY PREFETCHES:          0 LATE PREFETCHES: 0 DROPPED PREFETCHES: 0
PSCL2 PREFETCHES SAME FILL-ORIGIN LEVEL: 0 DIFFERENT FILL-ORIGIN LEVEL: 0

LLC TOTAL     ACCESS:    4671786  HIT:    4246306  MISS:     425480  HIT %:    90.8926  MISS %:    9.10744   MPKI: 2.1274
LLC LOAD      ACCESS:    2977841  HIT:    2799121  MISS:     178720  HIT %:    93.9983  MISS %:    6.00166   MPKI: 0.8936
LLC RFO       ACCESS:     138128  HIT:      95508  MISS:      42620  HIT %:    69.1446  MISS %:    30.8554   MPKI: 0.2131
LLC PREFETCH  ACCESS:     900969  HIT:     715804  MISS:     185165  HIT %:    79.4482  MISS %:    20.5518   MPKI: 0.925825
AGUS PREFETCH L1 MISS: 0
LLC WRITEBACK ACCESS:     452759  HIT:     449804  MISS:       2955  HIT %:    99.3473  MISS %:   0.652665   MPKI: 0.014775
LLC LOAD TRANSLATION ACCESS:     195995  HIT:     180405  MISS:      15590  HIT %:    92.0457  MISS %:    7.95428   MPKI: 0.07795
LLC TRANSLATION FROM L1D PREFETCHER ACCESS:       6094  HIT:       5664  MISS:        430  HIT %:    92.9439  MISS %:    7.05612   MPKI: 0.00215
LLC PREFETCH  REQUESTED:          0  ISSUED:          0  USEFUL:       8146  USELESS:     175679
LLC USEFUL LOAD PREFETCHES:       8146 PREFETCH ISSUED TO LOWER LEVEL:     185165  ACCURACY: 4.39932
LLC TIMELY PREFETCHES:       8146 LATE PREFETCHES: 0 DROPPED PREFETCHES: 0
LLC PREFETCHES SAME FILL-ORIGIN LEVEL: 0 DIFFERENT FILL-ORIGIN LEVEL: 0
LLC AVERAGE MISS LATENCY: 147.27 cycles
LLC RQ	ACCESS:    3318073	FORWARD:          0	MERGED:          0	TO_CACHE:    3318058
LLC WQ	ACCESS:     452759	FORWARD:         18	MERGED:          0	TO_CACHE:     452759
LLC PQ	ACCESS:     900973	FORWARD:          0	MERGED:          0	TO_CACHE:     900970

LLC Dense regions hint to LLC: 0

RAW hits: 2695550
Loads Generated: 44954475
Loads sent to L1D: 42258924
Stores Generated: 20274528
Stores sent to L1D: 20274529
Major fault: 0 Minor fault: 5946
Allocated PAGES: 5946
CPU 0 L1D 
Prefetch count 2090609 BOP and RL 

DRAM Statistics
 CHANNEL 0
 RQ ROW_BUFFER_HIT:     103670  ROW_BUFFER_MISS:     318854
 DBUS_CONGESTED:        283
 WQ ROW_BUFFER_HIT:      34881  ROW_BUFFER_MISS:     187639  FULL:          0

 AVG_CONGESTED_CYCLE: 4
 All warmup complete: 2
Channel 0 Bank busy for read cycles: 0
Channel 0 Bank busy for write cycles: 0
Channel 0
Rank 0
0banks busy for read cycles: 392745714
0banks busy for write cycles: 98878
1banks busy for read cycles: 19838604
1banks busy for write cycles: 11555145
2banks busy for read cycles: 11997487
2banks busy for write cycles: 5601704
3banks busy for read cycles: 1657044
3banks busy for write cycles: 1888083
4banks busy for read cycles: 617321
4banks busy for write cycles: 1102808
5banks busy for read cycles: 156988
5banks busy for write cycles: 715466
6banks busy for read cycles: 70743
6banks busy for write cycles: 503327
7banks busy for read cycles: 31865
7banks busy for write cycles: 351949
8banks busy for read cycles: 38328
8banks busy for write cycles: 280770

CPU 0 Branch Prediction Accuracy: 99.8413% MPKI: 0.28434 Average ROB Occupancy at Mispredict: 42.6557
Branch types
NOT_BRANCH: 164167920 82.084%
BRANCH_DIRECT_JUMP: 1742964 0.871482%
BRANCH_INDIRECT: 9461245 4.73062%
BRANCH_CONDITIONAL: 18295370 9.14768%
BRANCH_DIRECT_CALL: 2483118 1.24156%
BRANCH_INDIRECT_CALL: 682660 0.34133%
BRANCH_RETURN: 3166376 1.58319%
BRANCH_OTHER: 0 0%

DRAM PAGES: 1048576
Allocated PAGES: 5946
