
*** ChampSim Multicore Out-of-Order Simulator ***

Warmup Instructions: 50000000
Simulation Instructions: 200000000
Number of CPUs: 1
LLC sets: 2048
LLC ways: 16
Off-chip DRAM Size: 4096 MB Channels: 1 Width: 64-bit Data Rate: 6400 MT/s
CPU 0 runs traces/spec2k17/srv_19.champsimtrace.xz
.xz
BTB has LRU replacement policy
ITLB has LRU replacement policy
DTLB has LRU replacement policy
STLB has LRU replacement policy
L1I has LRU replacement policy
CPU 0 l1d next line prefetcher
L1D has LRU replacement policy
Initialize SRRIP state for L2C
Initialize DRRIP state for LLC
Offsets elements: 
Potential of Offsets elements: 
rewards of Offsets elements: 
Printing Sanity1
offset list size1364
Heartbeat CPU 0 instructions: 10000001 cycles: 2851867 heartbeat IPC: 3.50648 cumulative IPC: 3.50648 (Simulation time: 0 hr 0 min 33 sec) 
Heartbeat CPU 0 instructions: 20000000 cycles: 5696144 heartbeat IPC: 3.51583 cumulative IPC: 3.51115 (Simulation time: 0 hr 1 min 6 sec) 
Heartbeat CPU 0 instructions: 30000001 cycles: 8539196 heartbeat IPC: 3.51735 cumulative IPC: 3.51321 (Simulation time: 0 hr 1 min 40 sec) 
*** Reached end of trace for Core: 0 Repeating trace: traces/spec2k17/srv_19.champsimtrace.xz
Offsets elements: 
Potential of Offsets elements: 
rewards of Offsets elements: 0 0 0 0 0 0 0 0 0 1 0 0 0 216 0 1 93 0 0 1 0 0 0 0 0 0 0 5 2 8 5 3 4 0 0 0 0 2 0 0 0 2 1 0 0 0 0 1 0 0 0 0 1 0 0 0 1 0 0 0 5 0 1 0 0 0 2 5 0 0 1 2 0 0 116 0 0 0 1 0 0 0 0 0 0 0 0 1 1 51 0 0 0 0 0 0 0 0 0 2 0 0 0 0 0 0 3 0 1 0 0 1 0 2 0 9 0 0 0 0 0 0 0 0 0 0 2 4 0 74 0 0 0 0 0 4 0 0 1 0 0 197 0 0 1 0 2 3 0 0 1 0 0 27 2 0 1 17 64 0 0 0 0 0 0 0 0 0 0 23 0 77 175 2 0 0 0 0 0 1 0 0 0 0 0 0 0 0 0 0 0 3 0 0 15 0 2 0 1 0 0 0 0 0 0 0 0 0 0 0 0 26 0 0 49 0 0 0 0 1 1 1 0 0 0 1 0 0 1 1 0 1 0 0 0 0 0 0 3 0 0 3 9 0 0 0 0 0 0 0 1 70 0 0 2 0 0 0 62 0 0 6 1 0 25 0 0 17 0 0 0 0 1 0 0 0 0 0 0 0 0 0 0 0 0 0 0 0 0 3 0 0 20 3 0 0 0 0 0 0 0 0 0 0 0 0 1 0 2 0 0 0 0 0 0 0 0 1 0 0 0 77 0 0 0 41 0 0 0 0 0 0 51 0 0 0 0 0 0 0 0 0 0 0 1 0 0 0 47 10 0 0 0 0 2 2 2 2 0 0 0 0 0 0 0 0 0 0 3 0 0 0 1 0 1 0 24 174 0 0 0 0 0 0 0 0 0 0 0 0 8 1 12 1 0 38 0 2 1 2 1 0 0 0 0 0 0 0 0 1 0 0 0 0 1 0 0 0 0 0 0 0 1 0 0 0 0 0 1 0 0 0 0 0 0 2 0 0 1 0 0 18 150 0 0 3 0 1 0 0 52 0 3 0 147 0 0 0 1 0 0 0 0 0 0 0 14 61 0 0 1 0 0 3 3 0 0 0 0 0 0 0 0 0 0 0 0 0 0 0 0 0 0 0 0 0 0 0 0 0 4 0 0 0 0 0 0 0 0 0 0 0 0 0 0 0 0 3 0 0 0 0 0 0 0 0 0 0 0 0 0 1 0 0 0 0 0 0 0 0 0 24 0 0 0 0 0 0 101 0 0 0 0 0 0 0 0 0 0 0 0 6 77 2 1 1 0 2 0 0 1 3 0 0 0 0 0 0 0 0 2 0 0 0 3 1 1 0 1 0 0 3 1 0 0 0 2 0 0 6 0 0 0 0 0 0 0 0 0 0 0 0 0 0 0 0 1 0 0 33 0 0 0 58 0 19 0 0 0 2 1 0 0 0 0 0 0 0 1 0 1 0 0 1 0 0 0 0 0 0 0 0 0 1 4 1 1 0 1 0 2 0 2 3 0 0 0 0 0 0 0 0 1 0 0 0 0 40 0 41 5 1 0 0 0 1 0 2 1 1 0 0 1 0 0 0 0 2 2 1 0 0 1 1 0 0 0 0 0 2 0 3 0 0 1 2 1 1 2 0 0 0 0 0 1 0 0 0 2 4 29 4 14 3 2 0 0 2 0 42 0 5 0 0 0 0 2 0 4 0 0 0 21 0 3 2 0 0 0 0 0 1 0 0 0 0 1 35 0 0 121 0 0 0 0 0 0 0 0 0 0 0 0 0 0 0 0 0 1 0 0 0 0 2 0 0 1 1 1 6 111 1 4 15 6 0 0 0 0 0 0 1 0 0 0 0 0 0 0 0 2 0 0 3 9 1 3 0 0 1 0 5 0 1 0 0 0 0 0 1 3 0 0 0 0 0 3 0 0 0 1 0 0 0 0 0 1 2 0 1 0 0 0 0 0 0 0 0 1 0 0 0 1 0 0 0 0 0 0 0 0 0 0 0 0 0 0 0 0 0 0 0 0 6 0 0 0 1 1 0 0 0 0 3 0 0 0 0 0 0 0 0 62 96 28 0 0 2 1 0 0 0 1 0 0 2 0 0 0 1 0 0 2 0 0 3 1 0 0 0 0 0 0 0 0 0 0 0 0 0 0 1 0 3 5 0 0 0 0 2 0 0 0 12 2 0 0 0 0 0 0 0 0 1 3 0 0 0 0 2 0 0 1 0 4 0 0 0 2 0 0 0 1 0 0 0 0 0 0 0 0 0 0 0 0 6 0 0 0 0 0 0 0 0 1 0 0 0 1 1 7 0 0 0 1 1 0 0 1 60 0 0 0 0 1 0 0 1 0 0 0 0 0 0 0 0 0 16 0 5 0 2 0 0 0 0 0 28 0 0 0 0 0 0 0 1 0 0 0 0 0 0 0 0 0 0 0 0 0 0 0 1 0 0 0 0 2 2 0 0 1 0 0 0 0 0 0 0 0 0 0 1 2 0 0 0 0 0 1 46 3 1 18 0 0 0 0 1 0 0 3 0 0 47 0 1 0 1 0 0 0 0 0 0 0 0 0 0 0 0 1 1 0 0 1 0 1 0 0 1 43 1 35 1 3 4 4 67 0 0 0 0 0 2 0 0 0 0 0 0 0 0 105 0 0 0 0 0 0 0 1 0 0 52 3 4 2 0 1 0 2 0 0 0 0 0 0 0 0 0 0 0 0 0 0 0 0 0 0 0 0 0 0 0 0 0 12 0 3 0 0 0 0 21 0 0 1 3 0 0 0 0 0 0 0 0 0 0 0 71 0 2 0 0 0 1 1 2 0 1 9 0 0 0 0 5 0 0 2 0 0 0 0 3 12 0 0 0 1 0 103 0 1 1 0 0 2 1 0 47 1 1 55 11 0 0 2 0 2 1 0 0 0 2 0 0 0 0 0 0 1 0 0 0 0 0 0 0 0 0 47 0 0 0 1 0 1 0 0 1 0 0 0 0 0 0 0 2 0 0 0 0 0 0 0 0 0 0 2 2 0 0 0 0 0 0 0 0 0 0 0 0 1 1 9 1 1 0 0 0 0 1 0 5 
Printing Sanity2
Heartbeat CPU 0 instructions: 40000002 cycles: 11383405 heartbeat IPC: 3.51592 cumulative IPC: 3.51389 (Simulation time: 0 hr 2 min 14 sec) 
Heartbeat CPU 0 instructions: 50000000 cycles: 14220882 heartbeat IPC: 3.52426 cumulative IPC: 3.51596 (Simulation time: 0 hr 2 min 47 sec) 

Warmup complete CPU 0 instructions: 50000004 cycles: 14220883 (Simulation time: 0 hr 2 min 47 sec) 

Heartbeat CPU 0 instructions: 60000001 cycles: 47296133 heartbeat IPC: 0.302341 cumulative IPC: 0.302341 (Simulation time: 0 hr 3 min 43 sec) 
*** Reached end of trace for Core: 0 Repeating trace: traces/spec2k17/srv_19.champsimtrace.xz
Heartbeat CPU 0 instructions: 70000003 cycles: 80474064 heartbeat IPC: 0.301405 cumulative IPC: 0.301872 (Simulation time: 0 hr 4 min 42 sec) 
Heartbeat CPU 0 instructions: 80000000 cycles: 113433159 heartbeat IPC: 0.303406 cumulative IPC: 0.302382 (Simulation time: 0 hr 5 min 38 sec) 
Heartbeat CPU 0 instructions: 90000001 cycles: 146444674 heartbeat IPC: 0.302925 cumulative IPC: 0.302517 (Simulation time: 0 hr 6 min 38 sec) 
*** Reached end of trace for Core: 0 Repeating trace: traces/spec2k17/srv_19.champsimtrace.xz
Heartbeat CPU 0 instructions: 100000000 cycles: 179488931 heartbeat IPC: 0.302624 cumulative IPC: 0.302539 (Simulation time: 0 hr 7 min 37 sec) 
Heartbeat CPU 0 instructions: 110000000 cycles: 212499130 heartbeat IPC: 0.302937 cumulative IPC: 0.302605 (Simulation time: 0 hr 8 min 37 sec) 
Heartbeat CPU 0 instructions: 120000000 cycles: 245557189 heartbeat IPC: 0.302498 cumulative IPC: 0.30259 (Simulation time: 0 hr 9 min 36 sec) 
*** Reached end of trace for Core: 0 Repeating trace: traces/spec2k17/srv_19.champsimtrace.xz
Heartbeat CPU 0 instructions: 130000001 cycles: 278512398 heartbeat IPC: 0.303442 cumulative IPC: 0.302696 (Simulation time: 0 hr 10 min 32 sec) 
Heartbeat CPU 0 instructions: 140000000 cycles: 311455048 heartbeat IPC: 0.303558 cumulative IPC: 0.302792 (Simulation time: 0 hr 11 min 32 sec) 
Heartbeat CPU 0 instructions: 150000000 cycles: 344612121 heartbeat IPC: 0.301595 cumulative IPC: 0.302671 (Simulation time: 0 hr 12 min 30 sec) 
*** Reached end of trace for Core: 0 Repeating trace: traces/spec2k17/srv_19.champsimtrace.xz
Heartbeat CPU 0 instructions: 160000001 cycles: 377693082 heartbeat IPC: 0.302289 cumulative IPC: 0.302637 (Simulation time: 0 hr 13 min 29 sec) 
Heartbeat CPU 0 instructions: 170000000 cycles: 410671954 heartbeat IPC: 0.303224 cumulative IPC: 0.302685 (Simulation time: 0 hr 14 min 26 sec) 
Heartbeat CPU 0 instructions: 180000003 cycles: 443746611 heartbeat IPC: 0.302346 cumulative IPC: 0.302659 (Simulation time: 0 hr 15 min 26 sec) 
*** Reached end of trace for Core: 0 Repeating trace: traces/spec2k17/srv_19.champsimtrace.xz
Heartbeat CPU 0 instructions: 190000001 cycles: 476656857 heartbeat IPC: 0.303857 cumulative IPC: 0.302745 (Simulation time: 0 hr 16 min 23 sec) 
Heartbeat CPU 0 instructions: 200000000 cycles: 509716760 heartbeat IPC: 0.302481 cumulative IPC: 0.302727 (Simulation time: 0 hr 17 min 20 sec) 
Heartbeat CPU 0 instructions: 210000000 cycles: 542778556 heartbeat IPC: 0.302464 cumulative IPC: 0.302711 (Simulation time: 0 hr 18 min 21 sec) 
*** Reached end of trace for Core: 0 Repeating trace: traces/spec2k17/srv_19.champsimtrace.xz
Heartbeat CPU 0 instructions: 220000000 cycles: 575592369 heartbeat IPC: 0.30475 cumulative IPC: 0.30283 (Simulation time: 0 hr 19 min 22 sec) 
Heartbeat CPU 0 instructions: 230000001 cycles: 608624307 heartbeat IPC: 0.302737 cumulative IPC: 0.302825 (Simulation time: 0 hr 20 min 24 sec) 
Heartbeat CPU 0 instructions: 240000000 cycles: 641542538 heartbeat IPC: 0.303783 cumulative IPC: 0.302875 (Simulation time: 0 hr 21 min 21 sec) 
Heartbeat CPU 0 instructions: 250000000 cycles: 674416996 heartbeat IPC: 0.304188 cumulative IPC: 0.30294 (Simulation time: 0 hr 22 min 21 sec) 
Finished CPU 0 instructions: 200000000 cycles: 660196177 cumulative IPC: 0.30294 (Simulation time: 0 hr 22 min 21 sec) 

ChampSim completed all CPUs

Region of Interest Statistics

CPU 0 cumulative IPC: 0.30294 instructions: 200000000 cycles: 660196177
ITLB TOTAL     ACCESS:   35352323  HIT:   33116595  MISS:    2235728  HIT %:    93.6759  MISS %:    6.32413   MPKI: 11.1786
ITLB LOAD TRANSLATION ACCESS:   35352323  HIT:   33116595  MISS:    2235728  HIT %:    93.6759  MISS %:    6.32413   MPKI: 11.1786
ITLB PREFETCH  REQUESTED:          0  ISSUED:          0  USEFUL:          0  USELESS:          0
ITLB USEFUL LOAD PREFETCHES:          0 PREFETCH ISSUED TO LOWER LEVEL:          0  ACCURACY: -nan
ITLB TIMELY PREFETCHES:          0 LATE PREFETCHES: 0 DROPPED PREFETCHES: 0
ITLB PREFETCHES SAME FILL-ORIGIN LEVEL: 0 DIFFERENT FILL-ORIGIN LEVEL: 0
ITLB AVERAGE MISS LATENCY: 9.21543 cycles
ITLB RQ	ACCESS:   41662606	FORWARD:          0	MERGED:    5780659	TO_CACHE:   35881947

DTLB TOTAL     ACCESS:   45747758  HIT:   43635547  MISS:    2112211  HIT %:    95.3829  MISS %:    4.61708   MPKI: 10.5611
DTLB LOAD TRANSLATION ACCESS:   45747758  HIT:   43635547  MISS:    2112211  HIT %:    95.3829  MISS %:    4.61708   MPKI: 10.5611
DTLB PREFETCH  REQUESTED:          0  ISSUED:          0  USEFUL:          0  USELESS:          0
DTLB USEFUL LOAD PREFETCHES:          0 PREFETCH ISSUED TO LOWER LEVEL:          0  ACCURACY: -nan
DTLB TIMELY PREFETCHES:          0 LATE PREFETCHES: 0 DROPPED PREFETCHES: 0
DTLB PREFETCHES SAME FILL-ORIGIN LEVEL: 0 DIFFERENT FILL-ORIGIN LEVEL: 0
DTLB AVERAGE MISS LATENCY: 10.644 cycles
DTLB RQ	ACCESS:   60477522	FORWARD:          0	MERGED:   14673566	TO_CACHE:   45803956

STLB TOTAL     ACCESS:    7575289  HIT:    7511076  MISS:      64213  HIT %:    99.1523  MISS %:   0.847664   MPKI: 0.321065
STLB LOAD TRANSLATION ACCESS:    4347938  HIT:    4284669  MISS:      63269  HIT %:    98.5449  MISS %:    1.45515   MPKI: 0.316345
STLB TRANSLATION FROM L1D PREFETCHER ACCESS:    3227351  HIT:    3226407  MISS:        944  HIT %:    99.9708  MISS %:    0.02925   MPKI: 0.00472
STLB PREFETCH  REQUESTED:          0  ISSUED:          0  USEFUL:        652  USELESS:        290
STLB USEFUL LOAD PREFETCHES:        652 PREFETCH ISSUED TO LOWER LEVEL:          0  ACCURACY: inf
STLB TIMELY PREFETCHES:        652 LATE PREFETCHES: 394 DROPPED PREFETCHES: 23398
STLB PREFETCHES SAME FILL-ORIGIN LEVEL: 0 DIFFERENT FILL-ORIGIN LEVEL: 0
STLB AVERAGE MISS LATENCY: 61.7308 cycles
STLB RQ	ACCESS:    7885444	FORWARD:          0	MERGED:     283844	TO_CACHE:    7601600

STLB Hit, L1D data hit: 0
STLB Hit, L2C data hit: 0
STLB Hit, LLC data hit: 0
STLB Hit, LLC data miss: 0
STLB STLB hints to L2: 0
L1D TOTAL     ACCESS:   61696138  HIT:   54400685  MISS:    7295453  HIT %:    88.1752  MISS %:    11.8248   MPKI: 36.4773
L1D LOAD      ACCESS:   33704685  HIT:   30206936  MISS:    3497749  HIT %:    89.6224  MISS %:    10.3776   MPKI: 17.4887
L1D RFO       ACCESS:   24941312  HIT:   23775320  MISS:    1165992  HIT %:    95.3251  MISS %:    4.67494   MPKI: 5.82996
L1D PREFETCH  ACCESS:    3050141  HIT:     418429  MISS:    2631712  HIT %:    13.7183  MISS %:    86.2817   MPKI: 13.1586
AGUS PREFETCH L1 MISS: 0
L1D PREFETCH  REQUESTED:    7131740  ISSUED:    7131740  USEFUL:     583392  USELESS:    2048303
L1D USEFUL LOAD PREFETCHES:     583392 PREFETCH ISSUED TO LOWER LEVEL:    2879323  ACCURACY: 20.2614
L1D TIMELY PREFETCHES:     583392 LATE PREFETCHES: 246398 DROPPED PREFETCHES: 26787
L1D PREFETCHES SAME FILL-ORIGIN LEVEL: 2879323 DIFFERENT FILL-ORIGIN LEVEL: 0
L1D AVERAGE MISS LATENCY: 1.15582e+07 cycles
L1D RQ	ACCESS:   46416827	FORWARD:          0	MERGED:   12263830	TO_CACHE:   33832476
L1D WQ	ACCESS:   26793542	FORWARD:     320581	MERGED:     148496	TO_CACHE:   26645046
L1D PQ	ACCESS:    3594234	FORWARD:          0	MERGED:      56668	TO_CACHE:    3537506

L1D UNIQUE REGIONS ACCESSED: 0
L1D REGIONS CONFLICTS: 0
L1D Cross Page Prefetch Requests: 123307
L1D Same Page Prefetch Requests: 4281801
L1D ROI Sum of L1D PQ occupancy: 46452032
L1D PREFETCHES PUSHED FROM L2C: 0
L1I TOTAL     ACCESS:   39968621  HIT:   28623770  MISS:   11344851  HIT %:    71.6156  MISS %:    28.3844   MPKI: 56.7243
L1I LOAD      ACCESS:   39968621  HIT:   28623770  MISS:   11344851  HIT %:    71.6156  MISS %:    28.3844   MPKI: 56.7243
L1I PREFETCH  REQUESTED:          0  ISSUED:          0  USEFUL:          0  USELESS:          0
L1I USEFUL LOAD PREFETCHES:          0 PREFETCH ISSUED TO LOWER LEVEL:          0  ACCURACY: -nan
L1I TIMELY PREFETCHES:          0 LATE PREFETCHES: 0 DROPPED PREFETCHES: 0
L1I PREFETCHES SAME FILL-ORIGIN LEVEL: 0 DIFFERENT FILL-ORIGIN LEVEL: 0
L1I AVERAGE MISS LATENCY: 16.4295 cycles
L1I RQ	ACCESS:   58683615	FORWARD:          0	MERGED:   17021009	TO_CACHE:   41662606

BTB TOTAL     ACCESS:   30556675  HIT:   18035302  MISS:   12521373  HIT %:    59.0225  MISS %:    40.9775   MPKI: 62.6069
BTB BRANCH_DIRECT_JUMP	ACCESS:    2074383  HIT:    1262779  MISS:     811604
BTB BRANCH_INDIRECT	ACCESS:   12202008  HIT:    7365935  MISS:    4836073
BTB BRANCH_CONDITIONAL	ACCESS:    7050334  HIT:    5793232  MISS:    1257102
BTB BRANCH_DIRECT_CALL	ACCESS:    3880637  HIT:    1846862  MISS:    2033775
BTB BRANCH_INDIRECT_CALL	ACCESS:     734371  HIT:     365103  MISS:     369268
BTB BRANCH_RETURN	ACCESS:    4614942  HIT:    1401391  MISS:    3213551
BTB BRANCH_OTHER ACCESS:          0  HIT:          0  MISS:          0

L2C TOTAL     ACCESS:   21120433  HIT:   19171585  MISS:    1948848  HIT %:    90.7727  MISS %:    9.22731   MPKI: 9.74424
L2C LOAD      ACCESS:   14596185  HIT:   13381170  MISS:    1215015  HIT %:    91.6758  MISS %:     8.3242   MPKI: 6.07508
L2C DATA LOAD MPKI: 1.73144
L2C INSTRUCTION LOAD MPKI: 4.34363
L2C RFO       ACCESS:    1164757  HIT:    1067425  MISS:      97332  HIT %:    91.6436  MISS %:    8.35642   MPKI: 0.48666
L2C PREFETCH  ACCESS:    2879323  HIT:    2316656  MISS:     562667  HIT %:    80.4584  MISS %:    19.5416   MPKI: 2.81333
AGUS PREFETCH L1 MISS: 0
L2C DATA PREFETCH MPKI: 2.81333
L2C INSTRUCTION PREFETCH MPKI: 0
L2C WRITEBACK ACCESS:    2339214  HIT:    2317400  MISS:      21814  HIT %:    99.0675  MISS %:   0.932535   MPKI: 0.10907
L2C LOAD TRANSLATION ACCESS:      96551  HIT:      48051  MISS:      48500  HIT %:    49.7675  MISS %:    50.2325   MPKI: 0.2425
L2C TRANSLATION FROM L1D PREFETCHER ACCESS:      44403  HIT:      40883  MISS:       3520  HIT %:    92.0726  MISS %:    7.92739   MPKI: 0.0176
L2C PREFETCH  REQUESTED:          0  ISSUED:          0  USEFUL:      12898  USELESS:     552637
L2C USEFUL LOAD PREFETCHES:      12898 PREFETCH ISSUED TO LOWER LEVEL:     562667  ACCURACY: 2.2923
L2C TIMELY PREFETCHES:      12898 LATE PREFETCHES: 0 DROPPED PREFETCHES: 0
L2C PREFETCHES SAME FILL-ORIGIN LEVEL: 0 DIFFERENT FILL-ORIGIN LEVEL: 0
L2C AVERAGE MISS LATENCY: 41.2209 cycles
L2C RQ	ACCESS:   15901936	FORWARD:          0	MERGED:          0	TO_CACHE:   15901897
L2C WQ	ACCESS:    2339214	FORWARD:         39	MERGED:          0	TO_CACHE:    2339214
L2C PQ	ACCESS:    2879323	FORWARD:          0	MERGED:          0	TO_CACHE:    2879323

L2C Instructions Evicting Data 373539
L2C Translations Evicting Data 37752
L2C Data Evicting Data 607706
L2C Instructions Evicting Instructions 483648
L2C Translations Evicting Instructions 11568
L2C Data Evicting Instructions 361059
L2C Instructions Evicting Translations 11540
L2C Translations Evicting Translations 2700
L2C Data Evicting Translations 37522
L2C Dense regions hint from L2: 0
PSCL5 TOTAL     ACCESS:      87611  HIT:      87611  MISS:          0  HIT %:        100  MISS %:          0   MPKI: 0
PSCL5 LOAD TRANSLATION ACCESS:      62875  HIT:      62875  MISS:          0  HIT %:        100  MISS %:          0   MPKI: 0
PSCL5 TRANSLATION FROM L1D PREFETCHER ACCESS:      24736  HIT:      24736  MISS:          0  HIT %:        100  MISS %:          0   MPKI: 0
PSCL5 PREFETCH  REQUESTED:          0  ISSUED:          0  USEFUL:          0  USELESS:          0
PSCL5 USEFUL LOAD PREFETCHES:          0 PREFETCH ISSUED TO LOWER LEVEL:          0  ACCURACY: -nan
PSCL5 TIMELY PREFETCHES:          0 LATE PREFETCHES: 0 DROPPED PREFETCHES: 0
PSCL5 PREFETCHES SAME FILL-ORIGIN LEVEL: 0 DIFFERENT FILL-ORIGIN LEVEL: 0

PSCL4 TOTAL     ACCESS:      75378  HIT:      74599  MISS:        779  HIT %:    98.9665  MISS %:    1.03346   MPKI: 0.003895
PSCL4 LOAD TRANSLATION ACCESS:      61148  HIT:      60369  MISS:        779  HIT %:     98.726  MISS %:    1.27396   MPKI: 0.003895
PSCL4 TRANSLATION FROM L1D PREFETCHER ACCESS:      14230  HIT:      14230  MISS:          0  HIT %:        100  MISS %:          0   MPKI: 0
PSCL4 PREFETCH  REQUESTED:          0  ISSUED:          0  USEFUL:          0  USELESS:          0
PSCL4 USEFUL LOAD PREFETCHES:          0 PREFETCH ISSUED TO LOWER LEVEL:          0  ACCURACY: -nan
PSCL4 TIMELY PREFETCHES:          0 LATE PREFETCHES: 0 DROPPED PREFETCHES: 0
PSCL4 PREFETCHES SAME FILL-ORIGIN LEVEL: 0 DIFFERENT FILL-ORIGIN LEVEL: 0

PSCL3 TOTAL     ACCESS:      87227  HIT:      86448  MISS:        779  HIT %:    99.1069  MISS %:   0.893072   MPKI: 0.003895
PSCL3 LOAD TRANSLATION ACCESS:      62678  HIT:      61899  MISS:        779  HIT %:    98.7571  MISS %:    1.24286   MPKI: 0.003895
PSCL3 TRANSLATION FROM L1D PREFETCHER ACCESS:      24549  HIT:      24549  MISS:          0  HIT %:        100  MISS %:          0   MPKI: 0
PSCL3 PREFETCH  REQUESTED:          0  ISSUED:          0  USEFUL:          0  USELESS:          0
PSCL3 USEFUL LOAD PREFETCHES:          0 PREFETCH ISSUED TO LOWER LEVEL:          0  ACCURACY: -nan
PSCL3 TIMELY PREFETCHES:          0 LATE PREFETCHES: 0 DROPPED PREFETCHES: 0
PSCL3 PREFETCHES SAME FILL-ORIGIN LEVEL: 0 DIFFERENT FILL-ORIGIN LEVEL: 0

PSCL2 TOTAL     ACCESS:      68471  HIT:      36084  MISS:      32387  HIT %:    52.6997  MISS %:    47.3003   MPKI: 0.161935
PSCL2 LOAD TRANSLATION ACCESS:      63092  HIT:      30705  MISS:      32387  HIT %:     48.667  MISS %:     51.333   MPKI: 0.161935
PSCL2 TRANSLATION FROM L1D PREFETCHER ACCESS:       5379  HIT:       5379  MISS:          0  HIT %:        100  MISS %:          0   MPKI: 0
PSCL2 PREFETCH  REQUESTED:          0  ISSUED:          0  USEFUL:          0  USELESS:          0
PSCL2 USEFUL LOAD PREFETCHES:          0 PREFETCH ISSUED TO LOWER LEVEL:          0  ACCURACY: -nan
PSCL2 TIMELY PREFETCHES:          0 LATE PREFETCHES: 0 DROPPED PREFETCHES: 0
PSCL2 PREFETCHES SAME FILL-ORIGIN LEVEL: 0 DIFFERENT FILL-ORIGIN LEVEL: 0

LLC TOTAL     ACCESS:    2063414  HIT:    1900227  MISS:     163187  HIT %:    92.0914  MISS %:    7.90859   MPKI: 0.815935
LLC LOAD      ACCESS:    1215015  HIT:    1155624  MISS:      59391  HIT %:    95.1119  MISS %:    4.88809   MPKI: 0.296955
LLC RFO       ACCESS:      97331  HIT:      86441  MISS:      10890  HIT %:    88.8114  MISS %:    11.1886   MPKI: 0.05445
LLC PREFETCH  ACCESS:     562667  HIT:     475645  MISS:      87022  HIT %:     84.534  MISS %:     15.466   MPKI: 0.43511
AGUS PREFETCH L1 MISS: 0
LLC WRITEBACK ACCESS:     136381  HIT:     135674  MISS:        707  HIT %:    99.4816  MISS %:   0.518401   MPKI: 0.003535
LLC LOAD TRANSLATION ACCESS:      48500  HIT:      43467  MISS:       5033  HIT %:    89.6227  MISS %:    10.3773   MPKI: 0.025165
LLC TRANSLATION FROM L1D PREFETCHER ACCESS:       3520  HIT:       3376  MISS:        144  HIT %:    95.9091  MISS %:    4.09091   MPKI: 0.00072
LLC PREFETCH  REQUESTED:          0  ISSUED:          0  USEFUL:       1787  USELESS:      84413
LLC USEFUL LOAD PREFETCHES:       1787 PREFETCH ISSUED TO LOWER LEVEL:      87022  ACCURACY: 2.0535
LLC TIMELY PREFETCHES:       1787 LATE PREFETCHES: 0 DROPPED PREFETCHES: 0
LLC PREFETCHES SAME FILL-ORIGIN LEVEL: 0 DIFFERENT FILL-ORIGIN LEVEL: 0
LLC AVERAGE MISS LATENCY: 138.012 cycles
LLC RQ	ACCESS:    1364367	FORWARD:          0	MERGED:          0	TO_CACHE:    1364366
LLC WQ	ACCESS:     136381	FORWARD:          1	MERGED:          0	TO_CACHE:     136381
LLC PQ	ACCESS:     562667	FORWARD:          0	MERGED:          0	TO_CACHE:     562667

LLC Dense regions hint to LLC: 0

RAW hits: 1461202
Loads Generated: 47878029
Loads sent to L1D: 46416827
Stores Generated: 26793541
Stores sent to L1D: 26793542
Major fault: 0 Minor fault: 4418
Allocated PAGES: 4418
CPU 0 L1D 
Prefetch count 3516417 BOP and RL 

DRAM Statistics
 CHANNEL 0
 RQ ROW_BUFFER_HIT:      57771  ROW_BUFFER_MISS:     104709
 DBUS_CONGESTED:         70
 WQ ROW_BUFFER_HIT:       2467  ROW_BUFFER_MISS:      11144  FULL:          0

 AVG_CONGESTED_CYCLE: 4
 All warmup complete: 2
Channel 0 Bank busy for read cycles: 0
Channel 0 Bank busy for write cycles: 0
Channel 0
Rank 0
0banks busy for read cycles: 647673504
0banks busy for write cycles: 9014
1banks busy for read cycles: 5631611
1banks busy for write cycles: 1425624
2banks busy for read cycles: 3584788
2banks busy for write cycles: 314228
3banks busy for read cycles: 655540
3banks busy for write cycles: 93847
4banks busy for read cycles: 357962
4banks busy for write cycles: 34708
5banks busy for read cycles: 146273
5banks busy for write cycles: 12946
6banks busy for read cycles: 103843
6banks busy for write cycles: 5451
7banks busy for read cycles: 75744
7banks busy for write cycles: 1643
8banks busy for read cycles: 64033
8banks busy for write cycles: 5419

CPU 0 Branch Prediction Accuracy: 99.8157% MPKI: 0.33106 Average ROB Occupancy at Mispredict: 51.0136
Branch types
NOT_BRANCH: 164072294 82.0361%
BRANCH_DIRECT_JUMP: 2074383 1.03719%
BRANCH_INDIRECT: 12202008 6.101%
BRANCH_CONDITIONAL: 12421346 6.21067%
BRANCH_DIRECT_CALL: 3880637 1.94032%
BRANCH_INDIRECT_CALL: 734371 0.367185%
BRANCH_RETURN: 4614942 2.30747%
BRANCH_OTHER: 0 0%

DRAM PAGES: 1048576
Allocated PAGES: 4418
