
*** ChampSim Multicore Out-of-Order Simulator ***

Warmup Instructions: 50000000
Simulation Instructions: 200000000
Number of CPUs: 1
LLC sets: 2048
LLC ways: 16
Off-chip DRAM Size: 4096 MB Channels: 1 Width: 64-bit Data Rate: 6400 MT/s
CPU 0 runs traces/spec2k17/srv_9.champsimtrace.xz
.xz
BTB has LRU replacement policy
ITLB has LRU replacement policy
DTLB has LRU replacement policy
STLB has LRU replacement policy
L1I has LRU replacement policy
CPU 0 l1d next line prefetcher
L1D has LRU replacement policy
Initialize SRRIP state for L2C
Initialize DRRIP state for LLC
Offsets elements: 
Potential of Offsets elements: 
rewards of Offsets elements: 
Printing Sanity1
offset list size1968
Heartbeat CPU 0 instructions: 10000001 cycles: 3611713 heartbeat IPC: 2.76877 cumulative IPC: 2.76877 (Simulation time: 0 hr 0 min 43 sec) 
Offsets elements: 
Potential of Offsets elements: 
rewards of Offsets elements: 0 0 0 0 0 23 24 8 96 0 0 0 0 0 0 0 0 179 0 243 0 0 0 0 0 0 0 0 0 0 0 0 183 0 0 1 0 0 140 228 1 0 249 164 0 17 0 0 0 0 0 0 0 0 0 0 0 0 0 0 0 0 0 0 0 312 0 245 0 0 0 0 0 0 0 0 0 0 0 0 422 0 0 0 0 0 0 0 0 0 0 0 0 0 0 0 0 0 0 0 0 0 0 0 0 0 0 0 0 0 0 0 0 0 0 0 0 0 0 0 0 0 0 0 0 0 0 0 0 0 0 0 0 0 0 0 0 0 0 0 0 0 0 0 0 0 0 0 0 0 0 0 0 0 0 0 0 0 0 0 0 0 0 0 0 0 0 0 0 0 0 0 0 0 0 0 0 0 0 0 0 197 0 0 0 0 0 0 0 0 0 0 0 0 0 834 0 0 0 0 0 0 0 0 0 0 0 0 0 0 0 0 0 0 0 0 0 0 0 0 0 0 0 0 0 0 0 0 0 0 0 0 0 0 0 0 0 445 0 0 0 494 0 0 0 0 0 0 0 0 0 0 0 0 0 0 0 0 0 0 0 0 0 0 0 0 0 0 0 0 0 0 0 0 0 0 0 0 0 0 32 0 0 0 0 0 0 32 0 0 0 0 0 0 0 0 0 0 0 0 0 0 406 0 28 0 0 0 0 0 0 0 0 0 0 0 0 0 0 0 0 0 0 0 0 0 0 0 0 0 0 0 0 0 0 0 0 0 0 0 0 0 0 0 0 0 0 0 0 0 0 0 0 0 0 0 0 0 0 0 0 0 0 0 0 0 0 0 0 0 0 0 0 0 0 0 0 0 0 0 0 0 0 0 0 0 0 0 0 0 0 0 0 0 0 0 0 0 0 0 0 0 0 0 0 0 0 0 0 0 0 0 0 0 0 0 0 0 0 0 0 0 0 0 0 0 0 64 0 0 0 0 0 0 0 0 0 0 0 0 0 0 0 0 0 0 0 0 0 0 0 0 0 0 0 0 0 0 0 0 0 0 0 0 0 0 0 0 0 0 0 0 0 0 0 0 0 0 0 0 0 0 0 0 0 0 0 0 0 0 0 0 0 0 0 0 0 0 0 0 156 0 0 0 0 0 0 0 0 0 0 0 0 0 0 0 0 0 0 0 0 0 0 0 0 0 0 0 0 56 0 0 0 0 0 0 0 0 0 0 0 0 0 0 0 0 0 0 0 0 0 0 0 0 0 0 0 0 0 0 0 0 0 0 0 0 0 0 0 0 0 0 0 0 0 0 0 0 0 0 0 0 0 0 0 0 24 24 0 0 0 0 0 0 833 0 0 0 0 0 0 0 165 0 0 0 0 0 417 0 0 0 0 0 0 0 0 0 0 0 0 0 0 0 0 0 0 0 0 0 0 0 0 0 0 0 0 0 0 0 0 0 214 236 0 0 0 196 0 0 0 0 0 0 0 0 0 0 0 0 0 0 0 0 0 0 0 0 0 0 0 0 0 0 0 0 0 0 0 0 0 0 0 0 0 0 0 0 0 0 0 0 0 0 0 0 0 0 0 0 0 0 0 0 0 0 0 0 0 0 0 0 0 0 0 0 0 0 0 0 0 0 0 0 0 0 0 0 0 0 0 0 0 0 0 0 0 0 0 0 0 0 0 0 0 0 0 0 0 0 0 0 0 0 0 0 0 0 0 0 0 0 36 0 0 0 0 0 0 0 0 0 0 0 0 0 0 0 0 0 0 0 153 0 0 0 0 0 0 0 0 0 0 0 0 0 0 0 0 0 0 0 0 0 0 0 0 0 0 0 0 0 0 0 0 0 0 0 0 0 0 0 0 0 0 0 0 0 0 0 0 0 0 0 0 0 0 0 0 0 0 0 0 0 0 0 0 0 0 0 0 0 0 0 0 0 0 0 0 0 0 0 0 0 0 0 0 0 0 0 0 0 0 0 0 0 0 0 0 0 0 0 0 0 0 0 0 0 0 0 0 0 0 0 0 0 0 0 0 0 0 0 0 0 0 0 0 0 0 0 0 0 0 0 0 0 0 0 0 0 0 0 0 0 0 0 0 0 0 0 0 0 155 0 0 0 0 0 0 0 0 0 0 0 0 0 0 0 0 0 0 0 0 0 0 0 0 0 0 0 0 0 0 0 0 0 0 0 0 0 0 0 0 0 0 0 0 0 0 0 0 0 0 0 0 0 0 0 0 0 0 0 0 0 0 0 0 0 0 0 0 0 0 0 0 0 0 0 0 0 0 0 0 0 0 0 0 0 0 0 0 0 0 0 0 0 0 0 0 0 0 0 0 0 0 0 0 0 0 0 0 0 0 0 0 0 0 0 0 0 0 0 28 0 0 0 0 0 0 0 0 0 157 0 0 0 0 0 0 0 0 0 0 0 0 0 0 0 0 0 0 0 0 0 0 0 0 0 0 0 0 0 0 0 0 0 340 0 0 0 0 0 0 0 0 0 0 0 0 0 0 0 0 0 0 0 0 0 0 0 0 0 0 0 0 0 0 0 0 0 0 0 0 0 0 0 0 0 0 0 0 0 0 0 165 0 0 0 0 0 0 0 0 0 0 0 0 0 0 0 0 0 0 0 0 0 0 0 0 180 0 0 0 0 0 0 0 0 0 0 0 0 0 0 0 0 0 0 0 0 0 0 0 0 0 0 0 0 0 0 0 0 0 0 0 0 0 0 0 0 0 0 0 0 0 0 0 0 0 0 0 0 0 0 0 0 0 0 0 0 0 0 0 0 0 0 0 0 0 16 0 0 0 0 0 0 0 0 0 0 0 0 0 0 0 0 24 0 0 0 0 0 0 0 0 0 0 0 0 0 0 0 0 0 0 0 32 0 0 0 0 0 0 0 0 0 0 0 0 32 0 0 0 0 0 0 12 0 0 12 0 0 0 0 0 0 0 0 0 0 0 0 0 0 0 0 0 0 0 0 0 0 0 0 0 0 0 0 0 0 0 0 0 0 0 0 0 0 0 0 0 0 0 0 0 0 0 0 0 0 0 0 139 0 0 0 0 0 0 0 0 0 0 0 0 0 0 0 0 0 0 0 0 0 0 0 0 0 0 0 0 0 0 0 0 0 0 0 0 0 220 0 0 0 0 0 0 0 0 0 0 0 0 0 0 0 0 0 0 0 0 596 0 0 0 0 0 0 0 0 0 0 0 0 0 0 0 0 0 0 0 0 0 0 0 0 0 0 0 0 0 0 0 0 0 0 0 0 0 0 0 0 0 0 0 0 0 0 0 0 0 0 0 0 0 0 0 0 0 0 0 0 0 0 0 0 0 0 0 0 0 0 0 0 0 171 0 0 0 0 0 0 0 0 0 0 0 0 0 0 117 0 0 0 0 0 0 0 0 0 0 0 0 0 0 0 0 0 0 0 0 0 0 0 0 0 0 16 0 0 0 0 0 0 0 0 191 0 0 0 0 196 0 0 0 0 0 0 180 0 0 0 0 0 0 0 0 0 0 0 0 0 0 0 0 0 0 0 0 0 0 0 0 0 0 0 0 0 0 0 0 0 0 0 0 0 0 0 0 0 0 0 0 0 32 0 0 0 0 0 0 0 0 0 0 0 0 0 0 0 0 0 0 0 0 0 0 0 0 0 0 0 0 0 0 0 0 0 0 0 0 0 0 0 0 0 0 0 0 0 0 0 0 0 0 0 0 0 0 0 0 0 0 0 0 0 0 0 0 0 0 0 0 0 0 0 0 0 0 0 0 0 0 0 0 0 0 0 0 0 0 0 0 0 0 0 0 0 0 0 0 0 0 0 0 0 0 0 0 0 0 0 0 0 0 0 0 0 0 0 0 0 0 0 0 0 0 0 0 0 0 0 0 0 0 0 0 0 0 0 0 0 0 0 0 0 0 0 0 0 0 0 0 0 0 0 0 0 0 0 0 0 0 0 0 0 0 0 0 0 0 0 0 0 0 0 0 0 0 0 0 0 0 0 0 0 0 0 0 0 0 0 0 0 0 0 0 0 0 0 9 0 0 0 0 0 0 0 0 0 0 0 0 0 0 0 0 0 0 0 0 0 0 0 0 0 0 0 0 0 0 0 0 0 0 0 0 0 0 0 0 0 0 0 0 0 0 0 0 0 0 0 0 0 0 0 0 0 0 0 0 0 0 0 0 0 0 0 0 0 0 0 0 0 0 0 0 0 0 0 0 0 0 0 0 0 0 0 0 0 0 0 0 0 0 0 0 0 0 0 0 0 0 0 0 0 0 0 0 0 0 0 0 0 0 0 0 0 0 0 18 0 0 0 0 0 0 0 0 0 0 0 0 0 0 0 0 0 0 0 0 0 0 0 0 0 0 0 0 0 0 0 0 0 0 0 0 0 0 0 143 0 0 0 0 0 0 0 0 0 0 0 0 0 0 0 0 0 
Printing Sanity2
Heartbeat CPU 0 instructions: 20000002 cycles: 7639913 heartbeat IPC: 2.4825 cumulative IPC: 2.61783 (Simulation time: 0 hr 1 min 28 sec) 
Heartbeat CPU 0 instructions: 30000000 cycles: 10600803 heartbeat IPC: 3.37736 cumulative IPC: 2.82997 (Simulation time: 0 hr 1 min 54 sec) 
*** Reached end of trace for Core: 0 Repeating trace: traces/spec2k17/srv_9.champsimtrace.xz
Heartbeat CPU 0 instructions: 40000001 cycles: 14128319 heartbeat IPC: 2.83486 cumulative IPC: 2.83119 (Simulation time: 0 hr 2 min 34 sec) 
Heartbeat CPU 0 instructions: 50000003 cycles: 18054842 heartbeat IPC: 2.54678 cumulative IPC: 2.76934 (Simulation time: 0 hr 3 min 20 sec) 

Warmup complete CPU 0 instructions: 50000003 cycles: 18054842 (Simulation time: 0 hr 3 min 20 sec) 

Heartbeat CPU 0 instructions: 60000002 cycles: 40242307 heartbeat IPC: 0.450705 cumulative IPC: 0.450705 (Simulation time: 0 hr 4 min 24 sec) 
*** Reached end of trace for Core: 0 Repeating trace: traces/spec2k17/srv_9.champsimtrace.xz
Heartbeat CPU 0 instructions: 70000000 cycles: 67429614 heartbeat IPC: 0.367819 cumulative IPC: 0.405065 (Simulation time: 0 hr 5 min 26 sec) 
Heartbeat CPU 0 instructions: 80000000 cycles: 102204724 heartbeat IPC: 0.287562 cumulative IPC: 0.356507 (Simulation time: 0 hr 6 min 36 sec) 
Heartbeat CPU 0 instructions: 90000001 cycles: 124595894 heartbeat IPC: 0.446605 cumulative IPC: 0.375442 (Simulation time: 0 hr 7 min 41 sec) 
*** Reached end of trace for Core: 0 Repeating trace: traces/spec2k17/srv_9.champsimtrace.xz
Heartbeat CPU 0 instructions: 100000003 cycles: 150372988 heartbeat IPC: 0.387941 cumulative IPC: 0.377877 (Simulation time: 0 hr 8 min 44 sec) 
Heartbeat CPU 0 instructions: 110000000 cycles: 186352306 heartbeat IPC: 0.277937 cumulative IPC: 0.356512 (Simulation time: 0 hr 9 min 42 sec) 
Heartbeat CPU 0 instructions: 120000001 cycles: 208912496 heartbeat IPC: 0.443259 cumulative IPC: 0.366765 (Simulation time: 0 hr 10 min 40 sec) 
*** Reached end of trace for Core: 0 Repeating trace: traces/spec2k17/srv_9.champsimtrace.xz
Heartbeat CPU 0 instructions: 130000003 cycles: 233246225 heartbeat IPC: 0.410952 cumulative IPC: 0.371762 (Simulation time: 0 hr 11 min 18 sec) 
Heartbeat CPU 0 instructions: 140000001 cycles: 270094907 heartbeat IPC: 0.27138 cumulative IPC: 0.357086 (Simulation time: 0 hr 12 min 0 sec) 
Heartbeat CPU 0 instructions: 150000002 cycles: 293111143 heartbeat IPC: 0.434476 cumulative IPC: 0.363562 (Simulation time: 0 hr 12 min 35 sec) 
*** Reached end of trace for Core: 0 Repeating trace: traces/spec2k17/srv_9.champsimtrace.xz
Heartbeat CPU 0 instructions: 160000001 cycles: 316074914 heartbeat IPC: 0.435468 cumulative IPC: 0.369103 (Simulation time: 0 hr 13 min 7 sec) 
Heartbeat CPU 0 instructions: 170000003 cycles: 353444713 heartbeat IPC: 0.267596 cumulative IPC: 0.357793 (Simulation time: 0 hr 13 min 46 sec) 
Heartbeat CPU 0 instructions: 180000000 cycles: 377093287 heartbeat IPC: 0.422858 cumulative IPC: 0.362078 (Simulation time: 0 hr 14 min 19 sec) 
*** Reached end of trace for Core: 0 Repeating trace: traces/spec2k17/srv_9.champsimtrace.xz
Heartbeat CPU 0 instructions: 190000000 cycles: 398586339 heartbeat IPC: 0.465267 cumulative IPC: 0.367906 (Simulation time: 0 hr 14 min 49 sec) 
Heartbeat CPU 0 instructions: 200000000 cycles: 435926007 heartbeat IPC: 0.267812 cumulative IPC: 0.358962 (Simulation time: 0 hr 15 min 23 sec) 
Heartbeat CPU 0 instructions: 210000002 cycles: 461103445 heartbeat IPC: 0.397181 cumulative IPC: 0.361134 (Simulation time: 0 hr 15 min 51 sec) 
*** Reached end of trace for Core: 0 Repeating trace: traces/spec2k17/srv_9.champsimtrace.xz
Heartbeat CPU 0 instructions: 220000000 cycles: 480155826 heartbeat IPC: 0.524869 cumulative IPC: 0.367885 (Simulation time: 0 hr 16 min 16 sec) 
Heartbeat CPU 0 instructions: 230000000 cycles: 519422732 heartbeat IPC: 0.254667 cumulative IPC: 0.359018 (Simulation time: 0 hr 16 min 50 sec) 
Heartbeat CPU 0 instructions: 240000002 cycles: 545937526 heartbeat IPC: 0.377148 cumulative IPC: 0.359928 (Simulation time: 0 hr 17 min 18 sec) 
*** Reached end of trace for Core: 0 Repeating trace: traces/spec2k17/srv_9.champsimtrace.xz
Heartbeat CPU 0 instructions: 250000003 cycles: 563146571 heartbeat IPC: 0.58109 cumulative IPC: 0.366911 (Simulation time: 0 hr 17 min 42 sec) 
Finished CPU 0 instructions: 200000000 cycles: 545091729 cumulative IPC: 0.366911 (Simulation time: 0 hr 17 min 42 sec) 

ChampSim completed all CPUs

Region of Interest Statistics

CPU 0 cumulative IPC: 0.366911 instructions: 200000000 cycles: 545091729
ITLB TOTAL     ACCESS:   41230775  HIT:   41090663  MISS:     140112  HIT %:    99.6602  MISS %:   0.339824   MPKI: 0.70056
ITLB LOAD TRANSLATION ACCESS:   41230775  HIT:   41090663  MISS:     140112  HIT %:    99.6602  MISS %:   0.339824   MPKI: 0.70056
ITLB PREFETCH  REQUESTED:          0  ISSUED:          0  USEFUL:          0  USELESS:          0
ITLB USEFUL LOAD PREFETCHES:          0 PREFETCH ISSUED TO LOWER LEVEL:          0  ACCURACY: -nan
ITLB TIMELY PREFETCHES:          0 LATE PREFETCHES: 0 DROPPED PREFETCHES: 0
ITLB PREFETCHES SAME FILL-ORIGIN LEVEL: 0 DIFFERENT FILL-ORIGIN LEVEL: 0
ITLB AVERAGE MISS LATENCY: 20.1341 cycles
ITLB RQ	ACCESS:   44803113	FORWARD:          0	MERGED:    3533657	TO_CACHE:   41269456

DTLB TOTAL     ACCESS:   43496019  HIT:   34986080  MISS:    8509939  HIT %:    80.4351  MISS %:    19.5649   MPKI: 42.5497
DTLB LOAD TRANSLATION ACCESS:   43496019  HIT:   34986080  MISS:    8509939  HIT %:    80.4351  MISS %:    19.5649   MPKI: 42.5497
DTLB PREFETCH  REQUESTED:          0  ISSUED:          0  USEFUL:          0  USELESS:          0
DTLB USEFUL LOAD PREFETCHES:          0 PREFETCH ISSUED TO LOWER LEVEL:          0  ACCURACY: -nan
DTLB TIMELY PREFETCHES:          0 LATE PREFETCHES: 0 DROPPED PREFETCHES: 0
DTLB PREFETCHES SAME FILL-ORIGIN LEVEL: 0 DIFFERENT FILL-ORIGIN LEVEL: 0
DTLB AVERAGE MISS LATENCY: 9.84442 cycles
DTLB RQ	ACCESS:   56787351	FORWARD:          0	MERGED:   13176367	TO_CACHE:   43610984

STLB TOTAL     ACCESS:   10023792  HIT:    9924598  MISS:      99194  HIT %:    99.0104  MISS %:   0.989586   MPKI: 0.49597
STLB LOAD TRANSLATION ACCESS:    8650051  HIT:    8563811  MISS:      86240  HIT %:     99.003  MISS %:   0.996988   MPKI: 0.4312
STLB TRANSLATION FROM L1D PREFETCHER ACCESS:    1373741  HIT:    1360787  MISS:      12954  HIT %:     99.057  MISS %:   0.942973   MPKI: 0.06477
STLB PREFETCH  REQUESTED:          0  ISSUED:          0  USEFUL:      12575  USELESS:        376
STLB USEFUL LOAD PREFETCHES:      12575 PREFETCH ISSUED TO LOWER LEVEL:          0  ACCURACY: inf
STLB TIMELY PREFETCHES:      12575 LATE PREFETCHES: 219 DROPPED PREFETCHES: 39440
STLB PREFETCHES SAME FILL-ORIGIN LEVEL: 0 DIFFERENT FILL-ORIGIN LEVEL: 0
STLB AVERAGE MISS LATENCY: 3767.61 cycles
STLB RQ	ACCESS:   10319188	FORWARD:          0	MERGED:     252902	TO_CACHE:   10066286

STLB Hit, L1D data hit: 0
STLB Hit, L2C data hit: 0
STLB Hit, LLC data hit: 0
STLB Hit, LLC data miss: 0
STLB STLB hints to L2: 0
L1D TOTAL     ACCESS:   56857935  HIT:   42916643  MISS:   13941292  HIT %:    75.4805  MISS %:    24.5195   MPKI: 69.7065
L1D LOAD      ACCESS:   41307753  HIT:   28475369  MISS:   12832384  HIT %:    68.9347  MISS %:    31.0653   MPKI: 64.1619
L1D RFO       ACCESS:   14566289  HIT:   14348631  MISS:     217658  HIT %:    98.5057  MISS %:    1.49426   MPKI: 1.08829
L1D PREFETCH  ACCESS:     983893  HIT:      92643  MISS:     891250  HIT %:    9.41596  MISS %:     90.584   MPKI: 4.45625
AGUS PREFETCH L1 MISS: 0
L1D PREFETCH  REQUESTED:    3446296  ISSUED:    3446194  USEFUL:     394357  USELESS:     497035
L1D USEFUL LOAD PREFETCHES:     394357 PREFETCH ISSUED TO LOWER LEVEL:     940933  ACCURACY: 41.9113
L1D TIMELY PREFETCHES:     394357 LATE PREFETCHES: 49630 DROPPED PREFETCHES: 57791
L1D PREFETCHES SAME FILL-ORIGIN LEVEL: 940933 DIFFERENT FILL-ORIGIN LEVEL: 0
L1D AVERAGE MISS LATENCY: 1.02303e+06 cycles
L1D RQ	ACCESS:   59046565	FORWARD:          0	MERGED:   16974683	TO_CACHE:   41965910
L1D WQ	ACCESS:   18280129	FORWARD:     105983	MERGED:    3458688	TO_CACHE:   14821441
L1D PQ	ACCESS:    1777057	FORWARD:          0	MERGED:     107909	TO_CACHE:    1669137

L1D UNIQUE REGIONS ACCESSED: 0
L1D REGIONS CONFLICTS: 0
L1D Cross Page Prefetch Requests: 507752
L1D Same Page Prefetch Requests: 2506486
L1D ROI Sum of L1D PQ occupancy: 24178859
L1D PREFETCHES PUSHED FROM L2C: 0
L1I TOTAL     ACCESS:   44560527  HIT:   43868019  MISS:     692508  HIT %:    98.4459  MISS %:    1.55408   MPKI: 3.46254
L1I LOAD      ACCESS:   44560527  HIT:   43868019  MISS:     692508  HIT %:    98.4459  MISS %:    1.55408   MPKI: 3.46254
L1I PREFETCH  REQUESTED:          0  ISSUED:          0  USEFUL:          0  USELESS:          0
L1I USEFUL LOAD PREFETCHES:          0 PREFETCH ISSUED TO LOWER LEVEL:          0  ACCURACY: -nan
L1I TIMELY PREFETCHES:          0 LATE PREFETCHES: 0 DROPPED PREFETCHES: 0
L1I PREFETCHES SAME FILL-ORIGIN LEVEL: 0 DIFFERENT FILL-ORIGIN LEVEL: 0
L1I AVERAGE MISS LATENCY: 53.0745 cycles
L1I RQ	ACCESS:   72860956	FORWARD:          0	MERGED:   28057843	TO_CACHE:   44803113

BTB TOTAL     ACCESS:   41124974  HIT:   38918366  MISS:    2206608  HIT %:    94.6344  MISS %:    5.36562   MPKI: 11.033
BTB BRANCH_DIRECT_JUMP	ACCESS:    1846532  HIT:    1816859  MISS:      29673
BTB BRANCH_INDIRECT	ACCESS:   24302772  HIT:   22906224  MISS:    1396548
BTB BRANCH_CONDITIONAL	ACCESS:    9638327  HIT:    9593202  MISS:      45125
BTB BRANCH_DIRECT_CALL	ACCESS:    2098553  HIT:    2045392  MISS:      53161
BTB BRANCH_INDIRECT_CALL	ACCESS:     567787  HIT:     550197  MISS:      17590
BTB BRANCH_RETURN	ACCESS:    2671003  HIT:    2006492  MISS:     664511
BTB BRANCH_OTHER ACCESS:          0  HIT:          0  MISS:          0

L2C TOTAL     ACCESS:   15151773  HIT:   13349704  MISS:    1802069  HIT %:    88.1065  MISS %:    11.8935   MPKI: 9.01034
L2C LOAD      ACCESS:   13475260  HIT:   12442017  MISS:    1033243  HIT %:    92.3323  MISS %:     7.6677   MPKI: 5.16622
L2C DATA LOAD MPKI: 3.83202
L2C INSTRUCTION LOAD MPKI: 1.3342
L2C RFO       ACCESS:     217602  HIT:     149565  MISS:      68037  HIT %:    68.7333  MISS %:    31.2667   MPKI: 0.340185
L2C PREFETCH  ACCESS:     940932  HIT:     297581  MISS:     643351  HIT %:    31.6262  MISS %:    68.3738   MPKI: 3.21676
AGUS PREFETCH L1 MISS: 0
L2C DATA PREFETCH MPKI: 3.21676
L2C INSTRUCTION PREFETCH MPKI: 0
L2C WRITEBACK ACCESS:     354934  HIT:     348480  MISS:       6454  HIT %:    98.1816  MISS %:    1.81837   MPKI: 0.03227
L2C LOAD TRANSLATION ACCESS:     106333  HIT:      58673  MISS:      47660  HIT %:    55.1785  MISS %:    44.8215   MPKI: 0.2383
L2C TRANSLATION FROM L1D PREFETCHER ACCESS:      56712  HIT:      53388  MISS:       3324  HIT %:    94.1388  MISS %:    5.86119   MPKI: 0.01662
L2C PREFETCH  REQUESTED:          0  ISSUED:          0  USEFUL:      22225  USELESS:     623806
L2C USEFUL LOAD PREFETCHES:      22225 PREFETCH ISSUED TO LOWER LEVEL:     643351  ACCURACY: 3.45457
L2C TIMELY PREFETCHES:      22225 LATE PREFETCHES: 0 DROPPED PREFETCHES: 0
L2C PREFETCHES SAME FILL-ORIGIN LEVEL: 0 DIFFERENT FILL-ORIGIN LEVEL: 0
L2C AVERAGE MISS LATENCY: 130.775 cycles
L2C RQ	ACCESS:   13855911	FORWARD:          0	MERGED:          0	TO_CACHE:   13855907
L2C WQ	ACCESS:     354934	FORWARD:          5	MERGED:          0	TO_CACHE:     354934
L2C PQ	ACCESS:     940933	FORWARD:          0	MERGED:          0	TO_CACHE:     940932

L2C Instructions Evicting Data 175059
L2C Translations Evicting Data 35838
L2C Data Evicting Data 1267033
L2C Instructions Evicting Instructions 78743
L2C Translations Evicting Instructions 12943
L2C Data Evicting Instructions 175214
L2C Instructions Evicting Translations 13037
L2C Translations Evicting Translations 2203
L2C Data Evicting Translations 35545
L2C Dense regions hint from L2: 0
PSCL5 TOTAL     ACCESS:     138634  HIT:     138634  MISS:          0  HIT %:        100  MISS %:          0   MPKI: 0
PSCL5 LOAD TRANSLATION ACCESS:      86021  HIT:      86021  MISS:          0  HIT %:        100  MISS %:          0   MPKI: 0
PSCL5 TRANSLATION FROM L1D PREFETCHER ACCESS:      52613  HIT:      52613  MISS:          0  HIT %:        100  MISS %:          0   MPKI: 0
PSCL5 PREFETCH  REQUESTED:          0  ISSUED:          0  USEFUL:          0  USELESS:          0
PSCL5 USEFUL LOAD PREFETCHES:          0 PREFETCH ISSUED TO LOWER LEVEL:          0  ACCURACY: -nan
PSCL5 TIMELY PREFETCHES:          0 LATE PREFETCHES: 0 DROPPED PREFETCHES: 0
PSCL5 PREFETCHES SAME FILL-ORIGIN LEVEL: 0 DIFFERENT FILL-ORIGIN LEVEL: 0

PSCL4 TOTAL     ACCESS:     131754  HIT:     131661  MISS:         93  HIT %:    99.9294  MISS %:  0.0705861   MPKI: 0.000465
PSCL4 LOAD TRANSLATION ACCESS:      79800  HIT:      79707  MISS:         93  HIT %:    99.8835  MISS %:   0.116541   MPKI: 0.000465
PSCL4 TRANSLATION FROM L1D PREFETCHER ACCESS:      51954  HIT:      51954  MISS:          0  HIT %:        100  MISS %:          0   MPKI: 0
PSCL4 PREFETCH  REQUESTED:          0  ISSUED:          0  USEFUL:          0  USELESS:          0
PSCL4 USEFUL LOAD PREFETCHES:          0 PREFETCH ISSUED TO LOWER LEVEL:          0  ACCURACY: -nan
PSCL4 TIMELY PREFETCHES:          0 LATE PREFETCHES: 0 DROPPED PREFETCHES: 0
PSCL4 PREFETCHES SAME FILL-ORIGIN LEVEL: 0 DIFFERENT FILL-ORIGIN LEVEL: 0

PSCL3 TOTAL     ACCESS:     138376  HIT:     138156  MISS:        220  HIT %:     99.841  MISS %:   0.158987   MPKI: 0.0011
PSCL3 LOAD TRANSLATION ACCESS:      85839  HIT:      85619  MISS:        220  HIT %:    99.7437  MISS %:   0.256294   MPKI: 0.0011
PSCL3 TRANSLATION FROM L1D PREFETCHER ACCESS:      52537  HIT:      52537  MISS:          0  HIT %:        100  MISS %:          0   MPKI: 0
PSCL3 PREFETCH  REQUESTED:          0  ISSUED:          0  USEFUL:          0  USELESS:          0
PSCL3 USEFUL LOAD PREFETCHES:          0 PREFETCH ISSUED TO LOWER LEVEL:          0  ACCURACY: -nan
PSCL3 TIMELY PREFETCHES:          0 LATE PREFETCHES: 0 DROPPED PREFETCHES: 0
PSCL3 PREFETCHES SAME FILL-ORIGIN LEVEL: 0 DIFFERENT FILL-ORIGIN LEVEL: 0

PSCL2 TOTAL     ACCESS:     134515  HIT:     114226  MISS:      20289  HIT %:    84.9169  MISS %:    15.0831   MPKI: 0.101445
PSCL2 LOAD TRANSLATION ACCESS:      86307  HIT:      66018  MISS:      20289  HIT %:    76.4921  MISS %:    23.5079   MPKI: 0.101445
PSCL2 TRANSLATION FROM L1D PREFETCHER ACCESS:      48208  HIT:      48208  MISS:          0  HIT %:        100  MISS %:          0   MPKI: 0
PSCL2 PREFETCH  REQUESTED:          0  ISSUED:          0  USEFUL:          0  USELESS:          0
PSCL2 USEFUL LOAD PREFETCHES:          0 PREFETCH ISSUED TO LOWER LEVEL:          0  ACCURACY: -nan
PSCL2 TIMELY PREFETCHES:          0 LATE PREFETCHES: 0 DROPPED PREFETCHES: 0
PSCL2 PREFETCHES SAME FILL-ORIGIN LEVEL: 0 DIFFERENT FILL-ORIGIN LEVEL: 0

LLC TOTAL     ACCESS:    1973738  HIT:     497363  MISS:    1476375  HIT %:     25.199  MISS %:     74.801   MPKI: 7.38187
LLC LOAD      ACCESS:    1033243  HIT:     249196  MISS:     784047  HIT %:    24.1179  MISS %:    75.8821   MPKI: 3.92023
LLC RFO       ACCESS:      68037  HIT:      10773  MISS:      57264  HIT %:     15.834  MISS %:     84.166   MPKI: 0.28632
LLC PREFETCH  ACCESS:     643350  HIT:      75491  MISS:     567859  HIT %:     11.734  MISS %:     88.266   MPKI: 2.83929
AGUS PREFETCH L1 MISS: 0
LLC WRITEBACK ACCESS:     178124  HIT:     142253  MISS:      35871  HIT %:    79.8618  MISS %:    20.1382   MPKI: 0.179355
LLC LOAD TRANSLATION ACCESS:      47660  HIT:      18524  MISS:      29136  HIT %:     38.867  MISS %:     61.133   MPKI: 0.14568
LLC TRANSLATION FROM L1D PREFETCHER ACCESS:       3324  HIT:       1126  MISS:       2198  HIT %:    33.8748  MISS %:    66.1252   MPKI: 0.01099
LLC PREFETCH  REQUESTED:          0  ISSUED:          0  USEFUL:      19116  USELESS:     555105
LLC USEFUL LOAD PREFETCHES:      19116 PREFETCH ISSUED TO LOWER LEVEL:     567859  ACCURACY: 3.36633
LLC TIMELY PREFETCHES:      19116 LATE PREFETCHES: 0 DROPPED PREFETCHES: 0
LLC PREFETCHES SAME FILL-ORIGIN LEVEL: 0 DIFFERENT FILL-ORIGIN LEVEL: 0
LLC AVERAGE MISS LATENCY: 123.137 cycles
LLC RQ	ACCESS:    1152264	FORWARD:          0	MERGED:          0	TO_CACHE:    1152264
LLC WQ	ACCESS:     178123	FORWARD:          1	MERGED:          0	TO_CACHE:     178123
LLC PQ	ACCESS:     643351	FORWARD:          0	MERGED:          0	TO_CACHE:     643350

LLC Dense regions hint to LLC: 0

RAW hits: 7029456
Loads Generated: 66076027
Loads sent to L1D: 59046565
Stores Generated: 18280128
Stores sent to L1D: 18280129
Major fault: 0 Minor fault: 9438
Allocated PAGES: 9438
CPU 0 L1D 
Prefetch count 1624907 BOP and RL 

DRAM Statistics
 CHANNEL 0
 RQ ROW_BUFFER_HIT:     790736  ROW_BUFFER_MISS:     649768
 DBUS_CONGESTED:        863
 WQ ROW_BUFFER_HIT:      64925  ROW_BUFFER_MISS:      79439  FULL:          0

 AVG_CONGESTED_CYCLE: 4
 All warmup complete: 2
Channel 0 Bank busy for read cycles: 0
Channel 0 Bank busy for write cycles: 0
Channel 0
Rank 0
0banks busy for read cycles: 438097823
0banks busy for write cycles: 53899
1banks busy for read cycles: 52172574
1banks busy for write cycles: 9922244
2banks busy for read cycles: 25389671
2banks busy for write cycles: 3049000
3banks busy for read cycles: 7045659
3banks busy for write cycles: 1359359
4banks busy for read cycles: 2124572
4banks busy for write cycles: 806435
5banks busy for read cycles: 272987
5banks busy for write cycles: 579587
6banks busy for read cycles: 141298
6banks busy for write cycles: 613320
7banks busy for read cycles: 109735
7banks busy for write cycles: 1090003
8banks busy for read cycles: 184756
8banks busy for write cycles: 2078808

CPU 0 Branch Prediction Accuracy: 99.6511% MPKI: 0.819515 Average ROB Occupancy at Mispredict: 28.5453
Branch types
NOT_BRANCH: 153025252 76.5126%
BRANCH_DIRECT_JUMP: 1846532 0.923266%
BRANCH_INDIRECT: 24302772 12.1514%
BRANCH_CONDITIONAL: 15487967 7.74398%
BRANCH_DIRECT_CALL: 2098553 1.04928%
BRANCH_INDIRECT_CALL: 567787 0.283894%
BRANCH_RETURN: 2671003 1.3355%
BRANCH_OTHER: 0 0%

DRAM PAGES: 1048576
Allocated PAGES: 9438
