
*** ChampSim Multicore Out-of-Order Simulator ***

Warmup Instructions: 50000000
Simulation Instructions: 200000000
Number of CPUs: 1
LLC sets: 2048
LLC ways: 16
Off-chip DRAM Size: 4096 MB Channels: 1 Width: 64-bit Data Rate: 6400 MT/s
CPU 0 runs traces/spec2k17/srv_28.champsimtrace.xz
.xz
BTB has LRU replacement policy
ITLB has LRU replacement policy
DTLB has LRU replacement policy
STLB has LRU replacement policy
L1I has LRU replacement policy
CPU 0 l1d next line prefetcher
L1D has LRU replacement policy
Initialize SRRIP state for L2C
Initialize DRRIP state for LLC
Offsets elements: 
Potential of Offsets elements: 
rewards of Offsets elements: 
Printing Sanity1
offset list size2414
Heartbeat CPU 0 instructions: 10000001 cycles: 2807787 heartbeat IPC: 3.56152 cumulative IPC: 3.56152 (Simulation time: 0 hr 0 min 39 sec) 
Heartbeat CPU 0 instructions: 20000001 cycles: 5613273 heartbeat IPC: 3.56444 cumulative IPC: 3.56298 (Simulation time: 0 hr 1 min 20 sec) 
Heartbeat CPU 0 instructions: 30000003 cycles: 8419094 heartbeat IPC: 3.56402 cumulative IPC: 3.56333 (Simulation time: 0 hr 2 min 1 sec) 
*** Reached end of trace for Core: 0 Repeating trace: traces/spec2k17/srv_28.champsimtrace.xz
Heartbeat CPU 0 instructions: 40000003 cycles: 11221574 heartbeat IPC: 3.56827 cumulative IPC: 3.56456 (Simulation time: 0 hr 2 min 38 sec) 
Heartbeat CPU 0 instructions: 50000002 cycles: 14025855 heartbeat IPC: 3.56598 cumulative IPC: 3.56485 (Simulation time: 0 hr 3 min 15 sec) 

Warmup complete CPU 0 instructions: 50000002 cycles: 14025855 (Simulation time: 0 hr 3 min 15 sec) 

Heartbeat CPU 0 instructions: 60000000 cycles: 27950423 heartbeat IPC: 0.718155 cumulative IPC: 0.718155 (Simulation time: 0 hr 4 min 6 sec) 
*** Reached end of trace for Core: 0 Repeating trace: traces/spec2k17/srv_28.champsimtrace.xz
Heartbeat CPU 0 instructions: 70000003 cycles: 41984682 heartbeat IPC: 0.712542 cumulative IPC: 0.715338 (Simulation time: 0 hr 4 min 52 sec) 
Heartbeat CPU 0 instructions: 80000000 cycles: 55892826 heartbeat IPC: 0.719003 cumulative IPC: 0.716555 (Simulation time: 0 hr 5 min 38 sec) 
Heartbeat CPU 0 instructions: 90000001 cycles: 69729827 heartbeat IPC: 0.7227 cumulative IPC: 0.718082 (Simulation time: 0 hr 6 min 27 sec) 
*** Reached end of trace for Core: 0 Repeating trace: traces/spec2k17/srv_28.champsimtrace.xz
Heartbeat CPU 0 instructions: 100000000 cycles: 83833344 heartbeat IPC: 0.709043 cumulative IPC: 0.716255 (Simulation time: 0 hr 7 min 18 sec) 
Heartbeat CPU 0 instructions: 110000000 cycles: 97495717 heartbeat IPC: 0.731937 cumulative IPC: 0.718822 (Simulation time: 0 hr 8 min 7 sec) 
Heartbeat CPU 0 instructions: 120000001 cycles: 111509974 heartbeat IPC: 0.713559 cumulative IPC: 0.718066 (Simulation time: 0 hr 8 min 56 sec) 
*** Reached end of trace for Core: 0 Repeating trace: traces/spec2k17/srv_28.champsimtrace.xz
Heartbeat CPU 0 instructions: 130000000 cycles: 125415877 heartbeat IPC: 0.719119 cumulative IPC: 0.718197 (Simulation time: 0 hr 9 min 43 sec) 
Heartbeat CPU 0 instructions: 140000001 cycles: 139077153 heartbeat IPC: 0.731996 cumulative IPC: 0.719705 (Simulation time: 0 hr 10 min 31 sec) 
Heartbeat CPU 0 instructions: 150000001 cycles: 153202989 heartbeat IPC: 0.707923 cumulative IPC: 0.718509 (Simulation time: 0 hr 11 min 21 sec) 
*** Reached end of trace for Core: 0 Repeating trace: traces/spec2k17/srv_28.champsimtrace.xz
Heartbeat CPU 0 instructions: 160000000 cycles: 167129089 heartbeat IPC: 0.718076 cumulative IPC: 0.718469 (Simulation time: 0 hr 12 min 9 sec) 
Heartbeat CPU 0 instructions: 170000003 cycles: 180815624 heartbeat IPC: 0.730645 cumulative IPC: 0.719469 (Simulation time: 0 hr 12 min 58 sec) 
Heartbeat CPU 0 instructions: 180000001 cycles: 194925721 heartbeat IPC: 0.708712 cumulative IPC: 0.71863 (Simulation time: 0 hr 13 min 48 sec) 
Heartbeat CPU 0 instructions: 190000001 cycles: 208619792 heartbeat IPC: 0.730243 cumulative IPC: 0.719447 (Simulation time: 0 hr 14 min 37 sec) 
*** Reached end of trace for Core: 0 Repeating trace: traces/spec2k17/srv_28.champsimtrace.xz
Heartbeat CPU 0 instructions: 200000000 cycles: 222521760 heartbeat IPC: 0.719323 cumulative IPC: 0.719439 (Simulation time: 0 hr 15 min 26 sec) 
Heartbeat CPU 0 instructions: 210000001 cycles: 236461411 heartbeat IPC: 0.717378 cumulative IPC: 0.719309 (Simulation time: 0 hr 16 min 14 sec) 
Heartbeat CPU 0 instructions: 220000000 cycles: 250260885 heartbeat IPC: 0.724665 cumulative IPC: 0.719622 (Simulation time: 0 hr 16 min 58 sec) 
*** Reached end of trace for Core: 0 Repeating trace: traces/spec2k17/srv_28.champsimtrace.xz
Heartbeat CPU 0 instructions: 230000001 cycles: 264165628 heartbeat IPC: 0.719179 cumulative IPC: 0.719598 (Simulation time: 0 hr 17 min 46 sec) 
Heartbeat CPU 0 instructions: 240000003 cycles: 277928929 heartbeat IPC: 0.72657 cumulative IPC: 0.719961 (Simulation time: 0 hr 18 min 31 sec) 
Heartbeat CPU 0 instructions: 250000001 cycles: 291400881 heartbeat IPC: 0.742283 cumulative IPC: 0.721045 (Simulation time: 0 hr 19 min 20 sec) 
Finished CPU 0 instructions: 200000001 cycles: 277375027 cumulative IPC: 0.721045 (Simulation time: 0 hr 19 min 20 sec) 

ChampSim completed all CPUs

Region of Interest Statistics

CPU 0 cumulative IPC: 0.721045 instructions: 200000001 cycles: 277375027
ITLB TOTAL     ACCESS:   32447147  HIT:   32341214  MISS:     105933  HIT %:    99.6735  MISS %:   0.326479   MPKI: 0.529665
ITLB LOAD TRANSLATION ACCESS:   32447147  HIT:   32341214  MISS:     105933  HIT %:    99.6735  MISS %:   0.326479   MPKI: 0.529665
ITLB PREFETCH  REQUESTED:          0  ISSUED:          0  USEFUL:          0  USELESS:          0
ITLB USEFUL LOAD PREFETCHES:          0 PREFETCH ISSUED TO LOWER LEVEL:          0  ACCURACY: -nan
ITLB TIMELY PREFETCHES:          0 LATE PREFETCHES: 0 DROPPED PREFETCHES: 0
ITLB PREFETCHES SAME FILL-ORIGIN LEVEL: 0 DIFFERENT FILL-ORIGIN LEVEL: 0
ITLB AVERAGE MISS LATENCY: 10.8014 cycles
ITLB RQ	ACCESS:   38246630	FORWARD:          0	MERGED:    5764955	TO_CACHE:   32481675

DTLB TOTAL     ACCESS:   40730530  HIT:   38931986  MISS:    1798544  HIT %:    95.5843  MISS %:    4.41571   MPKI: 8.99272
DTLB LOAD TRANSLATION ACCESS:   40730530  HIT:   38931986  MISS:    1798544  HIT %:    95.5843  MISS %:    4.41571   MPKI: 8.99272
DTLB PREFETCH  REQUESTED:          0  ISSUED:          0  USEFUL:          0  USELESS:          0
DTLB USEFUL LOAD PREFETCHES:          0 PREFETCH ISSUED TO LOWER LEVEL:          0  ACCURACY: -nan
DTLB TIMELY PREFETCHES:          0 LATE PREFETCHES: 0 DROPPED PREFETCHES: 0
DTLB PREFETCHES SAME FILL-ORIGIN LEVEL: 0 DIFFERENT FILL-ORIGIN LEVEL: 0
DTLB AVERAGE MISS LATENCY: 10.8778 cycles
DTLB RQ	ACCESS:   54731333	FORWARD:          0	MERGED:   13799617	TO_CACHE:   40931716

STLB TOTAL     ACCESS:    2290882  HIT:    2202222  MISS:      88660  HIT %:    96.1299  MISS %:    3.87013   MPKI: 0.4433
STLB LOAD TRANSLATION ACCESS:    1904477  HIT:    1818400  MISS:      86077  HIT %:    95.4803  MISS %:    4.51972   MPKI: 0.430385
STLB TRANSLATION FROM L1D PREFETCHER ACCESS:     386405  HIT:     383822  MISS:       2583  HIT %:    99.3315  MISS %:    0.66847   MPKI: 0.012915
STLB PREFETCH  REQUESTED:          0  ISSUED:          0  USEFUL:       1744  USELESS:        836
STLB USEFUL LOAD PREFETCHES:       1744 PREFETCH ISSUED TO LOWER LEVEL:          0  ACCURACY: inf
STLB TIMELY PREFETCHES:       1744 LATE PREFETCHES: 182 DROPPED PREFETCHES: 1858
STLB PREFETCHES SAME FILL-ORIGIN LEVEL: 0 DIFFERENT FILL-ORIGIN LEVEL: 0
STLB AVERAGE MISS LATENCY: 26783 cycles
STLB RQ	ACCESS:    2347722	FORWARD:          0	MERGED:      54622	TO_CACHE:    2293100

STLB Hit, L1D data hit: 0
STLB Hit, L2C data hit: 0
STLB Hit, LLC data hit: 0
STLB Hit, LLC data miss: 0
STLB STLB hints to L2: 0
L1D TOTAL     ACCESS:   54384605  HIT:   53657088  MISS:     727517  HIT %:    98.6623  MISS %:    1.33773   MPKI: 3.63758
L1D LOAD      ACCESS:   30688482  HIT:   30333119  MISS:     355363  HIT %:     98.842  MISS %:    1.15797   MPKI: 1.77681
L1D RFO       ACCESS:   23400564  HIT:   23264950  MISS:     135614  HIT %:    99.4205  MISS %:   0.579533   MPKI: 0.67807
L1D PREFETCH  ACCESS:     295559  HIT:      59019  MISS:     236540  HIT %:    19.9686  MISS %:    80.0314   MPKI: 1.1827
AGUS PREFETCH L1 MISS: 0
L1D PREFETCH  REQUESTED:     910863  ISSUED:     910850  USEFUL:      40302  USELESS:     196213
L1D USEFUL LOAD PREFETCHES:      40302 PREFETCH ISSUED TO LOWER LEVEL:     270581  ACCURACY: 14.8946
L1D TIMELY PREFETCHES:      40302 LATE PREFETCHES: 33777 DROPPED PREFETCHES: 1981
L1D PREFETCHES SAME FILL-ORIGIN LEVEL: 270581 DIFFERENT FILL-ORIGIN LEVEL: 0
L1D AVERAGE MISS LATENCY: 6.90241e+06 cycles
L1D RQ	ACCESS:   49524174	FORWARD:          0	MERGED:   18599536	TO_CACHE:   30803194
L1D WQ	ACCESS:   24183739	FORWARD:     121492	MERGED:     255600	TO_CACHE:   23928139
L1D PQ	ACCESS:     467605	FORWARD:          0	MERGED:      24312	TO_CACHE:     443245

L1D UNIQUE REGIONS ACCESSED: 0
L1D REGIONS CONFLICTS: 0
L1D Cross Page Prefetch Requests: 15752
L1D Same Page Prefetch Requests: 543734
L1D ROI Sum of L1D PQ occupancy: 6274686
L1D PREFETCHES PUSHED FROM L2C: 0
L1I TOTAL     ACCESS:   38055335  HIT:   37422806  MISS:     632529  HIT %:    98.3379  MISS %:    1.66213   MPKI: 3.16264
L1I LOAD      ACCESS:   38055335  HIT:   37422806  MISS:     632529  HIT %:    98.3379  MISS %:    1.66213   MPKI: 3.16264
L1I PREFETCH  REQUESTED:          0  ISSUED:          0  USEFUL:          0  USELESS:          0
L1I USEFUL LOAD PREFETCHES:          0 PREFETCH ISSUED TO LOWER LEVEL:          0  ACCURACY: -nan
L1I TIMELY PREFETCHES:          0 LATE PREFETCHES: 0 DROPPED PREFETCHES: 0
L1I PREFETCHES SAME FILL-ORIGIN LEVEL: 0 DIFFERENT FILL-ORIGIN LEVEL: 0
L1I AVERAGE MISS LATENCY: 17.0365 cycles
L1I RQ	ACCESS:   60430628	FORWARD:          0	MERGED:   22183998	TO_CACHE:   38246630

BTB TOTAL     ACCESS:   29604974  HIT:   27951083  MISS:    1653891  HIT %:    94.4135  MISS %:    5.58653   MPKI: 8.26945
BTB BRANCH_DIRECT_JUMP	ACCESS:    2284365  HIT:    2283256  MISS:       1109
BTB BRANCH_INDIRECT	ACCESS:   12536315  HIT:   11991074  MISS:     545241
BTB BRANCH_CONDITIONAL	ACCESS:    7228322  HIT:    7226630  MISS:       1692
BTB BRANCH_DIRECT_CALL	ACCESS:    3327463  HIT:    3324379  MISS:       3084
BTB BRANCH_INDIRECT_CALL	ACCESS:     450518  HIT:     257027  MISS:     193491
BTB BRANCH_RETURN	ACCESS:    3777991  HIT:    2868717  MISS:     909274
BTB BRANCH_OTHER ACCESS:          0  HIT:          0  MISS:          0

L2C TOTAL     ACCESS:    1674080  HIT:     986464  MISS:     687616  HIT %:    58.9257  MISS %:    41.0743   MPKI: 3.43808
L2C LOAD      ACCESS:     953999  HIT:     651039  MISS:     302960  HIT %:    68.2432  MISS %:    31.7568   MPKI: 1.5148
L2C DATA LOAD MPKI: 1.31226
L2C INSTRUCTION LOAD MPKI: 0.20254
L2C RFO       ACCESS:     135343  HIT:      12733  MISS:     122610  HIT %:    9.40795  MISS %:    90.5921   MPKI: 0.61305
L2C PREFETCH  ACCESS:     270580  HIT:      43092  MISS:     227488  HIT %:    15.9258  MISS %:    84.0742   MPKI: 1.13744
AGUS PREFETCH L1 MISS: 0
L2C DATA PREFETCH MPKI: 1.13744
L2C INSTRUCTION PREFETCH MPKI: 0
L2C WRITEBACK ACCESS:     185420  HIT:     180995  MISS:       4425  HIT %:    97.6135  MISS %:    2.38647   MPKI: 0.022125
L2C LOAD TRANSLATION ACCESS:     123275  HIT:      93659  MISS:      29616  HIT %:    75.9757  MISS %:    24.0243   MPKI: 0.14808
L2C TRANSLATION FROM L1D PREFETCHER ACCESS:       5463  HIT:       4946  MISS:        517  HIT %:    90.5363  MISS %:    9.46366   MPKI: 0.002585
L2C PREFETCH  REQUESTED:          0  ISSUED:          0  USEFUL:       5916  USELESS:     222135
L2C USEFUL LOAD PREFETCHES:       5916 PREFETCH ISSUED TO LOWER LEVEL:     227488  ACCURACY: 2.60058
L2C TIMELY PREFETCHES:       5916 LATE PREFETCHES: 0 DROPPED PREFETCHES: 0
L2C PREFETCHES SAME FILL-ORIGIN LEVEL: 0 DIFFERENT FILL-ORIGIN LEVEL: 0
L2C AVERAGE MISS LATENCY: 130.007 cycles
L2C RQ	ACCESS:    1218203	FORWARD:          0	MERGED:          0	TO_CACHE:    1218080
L2C WQ	ACCESS:     185420	FORWARD:        124	MERGED:          0	TO_CACHE:     185420
L2C PQ	ACCESS:     270581	FORWARD:          0	MERGED:          0	TO_CACHE:     270580

L2C Instructions Evicting Data 37106
L2C Translations Evicting Data 27223
L2C Data Evicting Data 548775
L2C Instructions Evicting Instructions 1643
L2C Translations Evicting Instructions 1912
L2C Data Evicting Instructions 36928
L2C Instructions Evicting Translations 1759
L2C Translations Evicting Translations 998
L2C Data Evicting Translations 26847
L2C Dense regions hint from L2: 0
PSCL5 TOTAL     ACCESS:      90518  HIT:      90518  MISS:          0  HIT %:        100  MISS %:          0   MPKI: 0
PSCL5 LOAD TRANSLATION ACCESS:      85895  HIT:      85895  MISS:          0  HIT %:        100  MISS %:          0   MPKI: 0
PSCL5 TRANSLATION FROM L1D PREFETCHER ACCESS:       4623  HIT:       4623  MISS:          0  HIT %:        100  MISS %:          0   MPKI: 0
PSCL5 PREFETCH  REQUESTED:          0  ISSUED:          0  USEFUL:          0  USELESS:          0
PSCL5 USEFUL LOAD PREFETCHES:          0 PREFETCH ISSUED TO LOWER LEVEL:          0  ACCURACY: -nan
PSCL5 TIMELY PREFETCHES:          0 LATE PREFETCHES: 0 DROPPED PREFETCHES: 0
PSCL5 PREFETCHES SAME FILL-ORIGIN LEVEL: 0 DIFFERENT FILL-ORIGIN LEVEL: 0

PSCL4 TOTAL     ACCESS:      88169  HIT:      88070  MISS:         99  HIT %:    99.8877  MISS %:   0.112284   MPKI: 0.000495
PSCL4 LOAD TRANSLATION ACCESS:      83900  HIT:      83801  MISS:         99  HIT %:     99.882  MISS %:   0.117998   MPKI: 0.000495
PSCL4 TRANSLATION FROM L1D PREFETCHER ACCESS:       4269  HIT:       4269  MISS:          0  HIT %:        100  MISS %:          0   MPKI: 0
PSCL4 PREFETCH  REQUESTED:          0  ISSUED:          0  USEFUL:          0  USELESS:          0
PSCL4 USEFUL LOAD PREFETCHES:          0 PREFETCH ISSUED TO LOWER LEVEL:          0  ACCURACY: -nan
PSCL4 TIMELY PREFETCHES:          0 LATE PREFETCHES: 0 DROPPED PREFETCHES: 0
PSCL4 PREFETCHES SAME FILL-ORIGIN LEVEL: 0 DIFFERENT FILL-ORIGIN LEVEL: 0

PSCL3 TOTAL     ACCESS:      90063  HIT:      89646  MISS:        417  HIT %:     99.537  MISS %:   0.463009   MPKI: 0.002085
PSCL3 LOAD TRANSLATION ACCESS:      85528  HIT:      85111  MISS:        417  HIT %:    99.5124  MISS %:    0.48756   MPKI: 0.002085
PSCL3 TRANSLATION FROM L1D PREFETCHER ACCESS:       4535  HIT:       4535  MISS:          0  HIT %:        100  MISS %:          0   MPKI: 0
PSCL3 PREFETCH  REQUESTED:          0  ISSUED:          0  USEFUL:          0  USELESS:          0
PSCL3 USEFUL LOAD PREFETCHES:          0 PREFETCH ISSUED TO LOWER LEVEL:          0  ACCURACY: -nan
PSCL3 TIMELY PREFETCHES:          0 LATE PREFETCHES: 0 DROPPED PREFETCHES: 0
PSCL3 PREFETCHES SAME FILL-ORIGIN LEVEL: 0 DIFFERENT FILL-ORIGIN LEVEL: 0

PSCL2 TOTAL     ACCESS:      89939  HIT:      52829  MISS:      37110  HIT %:    58.7387  MISS %:    41.2613   MPKI: 0.18555
PSCL2 LOAD TRANSLATION ACCESS:      86141  HIT:      49031  MISS:      37110  HIT %:    56.9195  MISS %:    43.0805   MPKI: 0.18555
PSCL2 TRANSLATION FROM L1D PREFETCHER ACCESS:       3798  HIT:       3798  MISS:          0  HIT %:        100  MISS %:          0   MPKI: 0
PSCL2 PREFETCH  REQUESTED:          0  ISSUED:          0  USEFUL:          0  USELESS:          0
PSCL2 USEFUL LOAD PREFETCHES:          0 PREFETCH ISSUED TO LOWER LEVEL:          0  ACCURACY: -nan
PSCL2 TIMELY PREFETCHES:          0 LATE PREFETCHES: 0 DROPPED PREFETCHES: 0
PSCL2 PREFETCHES SAME FILL-ORIGIN LEVEL: 0 DIFFERENT FILL-ORIGIN LEVEL: 0

LLC TOTAL     ACCESS:     845447  HIT:     399004  MISS:     446443  HIT %:    47.1944  MISS %:    52.8056   MPKI: 2.23221
LLC LOAD      ACCESS:     302960  HIT:     109543  MISS:     193417  HIT %:    36.1576  MISS %:    63.8424   MPKI: 0.967085
LLC RFO       ACCESS:     122610  HIT:      54220  MISS:      68390  HIT %:    44.2215  MISS %:    55.7785   MPKI: 0.34195
LLC PREFETCH  ACCESS:     227488  HIT:      55864  MISS:     171624  HIT %:    24.5569  MISS %:    75.4431   MPKI: 0.85812
AGUS PREFETCH L1 MISS: 0
LLC WRITEBACK ACCESS:     162256  HIT:     152988  MISS:       9268  HIT %:     94.288  MISS %:    5.71196   MPKI: 0.04634
LLC LOAD TRANSLATION ACCESS:      29616  HIT:      26071  MISS:       3545  HIT %:    88.0301  MISS %:    11.9699   MPKI: 0.017725
LLC TRANSLATION FROM L1D PREFETCHER ACCESS:        517  HIT:        318  MISS:        199  HIT %:    61.5087  MISS %:    38.4913   MPKI: 0.000995
LLC PREFETCH  REQUESTED:          0  ISSUED:          0  USEFUL:       4284  USELESS:     170816
LLC USEFUL LOAD PREFETCHES:       4284 PREFETCH ISSUED TO LOWER LEVEL:     171624  ACCURACY: 2.49615
LLC TIMELY PREFETCHES:       4284 LATE PREFETCHES: 0 DROPPED PREFETCHES: 0
LLC PREFETCHES SAME FILL-ORIGIN LEVEL: 0 DIFFERENT FILL-ORIGIN LEVEL: 0
LLC AVERAGE MISS LATENCY: 154.327 cycles
LLC RQ	ACCESS:     455703	FORWARD:          0	MERGED:          0	TO_CACHE:     455703
LLC WQ	ACCESS:     162256	FORWARD:          0	MERGED:          0	TO_CACHE:     162256
LLC PQ	ACCESS:     227488	FORWARD:          0	MERGED:          0	TO_CACHE:     227488

LLC Dense regions hint to LLC: 0

RAW hits: 2373079
Loads Generated: 51897258
Loads sent to L1D: 49524174
Stores Generated: 24183727
Stores sent to L1D: 24183739
Major fault: 0 Minor fault: 6201
Allocated PAGES: 6201
CPU 0 L1D 
Prefetch count 338990 BOP and RL 

DRAM Statistics
 CHANNEL 0
 RQ ROW_BUFFER_HIT:      96607  ROW_BUFFER_MISS:     340518
 DBUS_CONGESTED:        354
 WQ ROW_BUFFER_HIT:      12278  ROW_BUFFER_MISS:      72673  FULL:          0

 AVG_CONGESTED_CYCLE: 5
 All warmup complete: 2
Channel 0 Bank busy for read cycles: 0
Channel 0 Bank busy for write cycles: 0
Channel 0
Rank 0
0banks busy for read cycles: 238255460
0banks busy for write cycles: 41610
1banks busy for read cycles: 11608384
1banks busy for write cycles: 6423839
2banks busy for read cycles: 14829655
2banks busy for write cycles: 1888690
3banks busy for read cycles: 1045943
3banks busy for write cycles: 470935
4banks busy for read cycles: 609755
4banks busy for write cycles: 189041
5banks busy for read cycles: 403801
5banks busy for write cycles: 122264
6banks busy for read cycles: 345066
6banks busy for write cycles: 119887
7banks busy for read cycles: 307489
7banks busy for write cycles: 136685
8banks busy for read cycles: 354819
8banks busy for write cycles: 221705

CPU 0 Branch Prediction Accuracy: 99.7863% MPKI: 0.390065 Average ROB Occupancy at Mispredict: 19.7523
Branch types
NOT_BRANCH: 163487732 81.7439%
BRANCH_DIRECT_JUMP: 2284365 1.14218%
BRANCH_INDIRECT: 12536315 6.26816%
BRANCH_CONDITIONAL: 14135281 7.06764%
BRANCH_DIRECT_CALL: 3327463 1.66373%
BRANCH_INDIRECT_CALL: 450518 0.225259%
BRANCH_RETURN: 3777991 1.889%
BRANCH_OTHER: 0 0%

DRAM PAGES: 1048576
Allocated PAGES: 6201
