
*** ChampSim Multicore Out-of-Order Simulator ***

Warmup Instructions: 50000000
Simulation Instructions: 200000000
Number of CPUs: 1
LLC sets: 2048
LLC ways: 16
Off-chip DRAM Size: 4096 MB Channels: 1 Width: 64-bit Data Rate: 6400 MT/s
CPU 0 runs traces/spec2k17/srv_27.champsimtrace.xz
.xz
BTB has LRU replacement policy
ITLB has LRU replacement policy
DTLB has LRU replacement policy
STLB has LRU replacement policy
L1I has LRU replacement policy
CPU 0 l1d next line prefetcher
L1D has LRU replacement policy
Initialize SRRIP state for L2C
Initialize DRRIP state for LLC
Offsets elements: 
Potential of Offsets elements: 
rewards of Offsets elements: 
Printing Sanity1
offset list size1998
Heartbeat CPU 0 instructions: 10000001 cycles: 2808744 heartbeat IPC: 3.56031 cumulative IPC: 3.56031 (Simulation time: 0 hr 0 min 39 sec) 
Heartbeat CPU 0 instructions: 20000002 cycles: 5614122 heartbeat IPC: 3.56458 cumulative IPC: 3.56245 (Simulation time: 0 hr 1 min 16 sec) 
Heartbeat CPU 0 instructions: 30000001 cycles: 8420867 heartbeat IPC: 3.56285 cumulative IPC: 3.56258 (Simulation time: 0 hr 1 min 55 sec) 
*** Reached end of trace for Core: 0 Repeating trace: traces/spec2k17/srv_27.champsimtrace.xz
Heartbeat CPU 0 instructions: 40000001 cycles: 11225665 heartbeat IPC: 3.56532 cumulative IPC: 3.56326 (Simulation time: 0 hr 2 min 34 sec) 
Heartbeat CPU 0 instructions: 50000000 cycles: 14030421 heartbeat IPC: 3.56537 cumulative IPC: 3.56368 (Simulation time: 0 hr 3 min 12 sec) 

Warmup complete CPU 0 instructions: 50000004 cycles: 14030422 (Simulation time: 0 hr 3 min 12 sec) 

Heartbeat CPU 0 instructions: 60000002 cycles: 27839607 heartbeat IPC: 0.724156 cumulative IPC: 0.724156 (Simulation time: 0 hr 4 min 2 sec) 
*** Reached end of trace for Core: 0 Repeating trace: traces/spec2k17/srv_27.champsimtrace.xz
Heartbeat CPU 0 instructions: 70000003 cycles: 41791706 heartbeat IPC: 0.716738 cumulative IPC: 0.720428 (Simulation time: 0 hr 4 min 52 sec) 
Heartbeat CPU 0 instructions: 80000000 cycles: 55665600 heartbeat IPC: 0.720778 cumulative IPC: 0.720544 (Simulation time: 0 hr 5 min 39 sec) 
Heartbeat CPU 0 instructions: 90000000 cycles: 69431854 heartbeat IPC: 0.726414 cumulative IPC: 0.722003 (Simulation time: 0 hr 6 min 28 sec) 
*** Reached end of trace for Core: 0 Repeating trace: traces/spec2k17/srv_27.champsimtrace.xz
Heartbeat CPU 0 instructions: 100000000 cycles: 83403543 heartbeat IPC: 0.715733 cumulative IPC: 0.72074 (Simulation time: 0 hr 7 min 17 sec) 
Heartbeat CPU 0 instructions: 110000000 cycles: 97180470 heartbeat IPC: 0.725851 cumulative IPC: 0.721587 (Simulation time: 0 hr 8 min 4 sec) 
Heartbeat CPU 0 instructions: 120000000 cycles: 110972059 heartbeat IPC: 0.72508 cumulative IPC: 0.722084 (Simulation time: 0 hr 8 min 51 sec) 
*** Reached end of trace for Core: 0 Repeating trace: traces/spec2k17/srv_27.champsimtrace.xz
Heartbeat CPU 0 instructions: 130000001 cycles: 124984321 heartbeat IPC: 0.713661 cumulative IPC: 0.72102 (Simulation time: 0 hr 9 min 40 sec) 
Heartbeat CPU 0 instructions: 140000001 cycles: 138497194 heartbeat IPC: 0.740035 cumulative IPC: 0.723085 (Simulation time: 0 hr 10 min 28 sec) 
Heartbeat CPU 0 instructions: 150000001 cycles: 152514307 heartbeat IPC: 0.713414 cumulative IPC: 0.722106 (Simulation time: 0 hr 11 min 13 sec) 
*** Reached end of trace for Core: 0 Repeating trace: traces/spec2k17/srv_27.champsimtrace.xz
Heartbeat CPU 0 instructions: 160000002 cycles: 166450074 heartbeat IPC: 0.717578 cumulative IPC: 0.721692 (Simulation time: 0 hr 12 min 0 sec) 
Heartbeat CPU 0 instructions: 170000001 cycles: 179998807 heartbeat IPC: 0.738076 cumulative IPC: 0.723029 (Simulation time: 0 hr 12 min 48 sec) 
Heartbeat CPU 0 instructions: 180000001 cycles: 193833377 heartbeat IPC: 0.722827 cumulative IPC: 0.723014 (Simulation time: 0 hr 13 min 37 sec) 
Heartbeat CPU 0 instructions: 190000002 cycles: 207355321 heartbeat IPC: 0.739539 cumulative IPC: 0.724169 (Simulation time: 0 hr 14 min 25 sec) 
*** Reached end of trace for Core: 0 Repeating trace: traces/spec2k17/srv_27.champsimtrace.xz
Heartbeat CPU 0 instructions: 200000003 cycles: 220673983 heartbeat IPC: 0.750826 cumulative IPC: 0.725888 (Simulation time: 0 hr 15 min 13 sec) 
Heartbeat CPU 0 instructions: 210000002 cycles: 234419245 heartbeat IPC: 0.727523 cumulative IPC: 0.72599 (Simulation time: 0 hr 16 min 2 sec) 
Heartbeat CPU 0 instructions: 220000000 cycles: 247735574 heartbeat IPC: 0.750958 cumulative IPC: 0.727412 (Simulation time: 0 hr 16 min 50 sec) 
*** Reached end of trace for Core: 0 Repeating trace: traces/spec2k17/srv_27.champsimtrace.xz
Heartbeat CPU 0 instructions: 230000001 cycles: 261233442 heartbeat IPC: 0.740858 cumulative IPC: 0.728146 (Simulation time: 0 hr 17 min 37 sec) 
Heartbeat CPU 0 instructions: 240000003 cycles: 274911231 heartbeat IPC: 0.731112 cumulative IPC: 0.728302 (Simulation time: 0 hr 18 min 22 sec) 
Heartbeat CPU 0 instructions: 250000000 cycles: 288411268 heartbeat IPC: 0.740739 cumulative IPC: 0.728914 (Simulation time: 0 hr 19 min 8 sec) 
Finished CPU 0 instructions: 200000002 cycles: 274380866 cumulative IPC: 0.728914 (Simulation time: 0 hr 19 min 8 sec) 

ChampSim completed all CPUs

Region of Interest Statistics

CPU 0 cumulative IPC: 0.728914 instructions: 200000002 cycles: 274380866
ITLB TOTAL     ACCESS:   32431665  HIT:   32329371  MISS:     102294  HIT %:    99.6846  MISS %:   0.315414   MPKI: 0.51147
ITLB LOAD TRANSLATION ACCESS:   32431665  HIT:   32329371  MISS:     102294  HIT %:    99.6846  MISS %:   0.315414   MPKI: 0.51147
ITLB PREFETCH  REQUESTED:          0  ISSUED:          0  USEFUL:          0  USELESS:          0
ITLB USEFUL LOAD PREFETCHES:          0 PREFETCH ISSUED TO LOWER LEVEL:          0  ACCURACY: -nan
ITLB TIMELY PREFETCHES:          0 LATE PREFETCHES: 0 DROPPED PREFETCHES: 0
ITLB PREFETCHES SAME FILL-ORIGIN LEVEL: 0 DIFFERENT FILL-ORIGIN LEVEL: 0
ITLB AVERAGE MISS LATENCY: 10.7068 cycles
ITLB RQ	ACCESS:   38228885	FORWARD:          0	MERGED:    5763701	TO_CACHE:   32465184

DTLB TOTAL     ACCESS:   40743838  HIT:   38963973  MISS:    1779865  HIT %:    95.6316  MISS %:    4.36843   MPKI: 8.89932
DTLB LOAD TRANSLATION ACCESS:   40743838  HIT:   38963973  MISS:    1779865  HIT %:    95.6316  MISS %:    4.36843   MPKI: 8.89932
DTLB PREFETCH  REQUESTED:          0  ISSUED:          0  USEFUL:          0  USELESS:          0
DTLB USEFUL LOAD PREFETCHES:          0 PREFETCH ISSUED TO LOWER LEVEL:          0  ACCURACY: -nan
DTLB TIMELY PREFETCHES:          0 LATE PREFETCHES: 0 DROPPED PREFETCHES: 0
DTLB PREFETCHES SAME FILL-ORIGIN LEVEL: 0 DIFFERENT FILL-ORIGIN LEVEL: 0
DTLB AVERAGE MISS LATENCY: 10.7578 cycles
DTLB RQ	ACCESS:   54717397	FORWARD:          0	MERGED:   13773908	TO_CACHE:   40943489

STLB TOTAL     ACCESS:    2246317  HIT:    2158942  MISS:      87375  HIT %:    96.1103  MISS %:     3.8897   MPKI: 0.436875
STLB LOAD TRANSLATION ACCESS:    1882159  HIT:    1797471  MISS:      84688  HIT %:    95.5005  MISS %:    4.49951   MPKI: 0.42344
STLB TRANSLATION FROM L1D PREFETCHER ACCESS:     364158  HIT:     361471  MISS:       2687  HIT %:    99.2621  MISS %:   0.737867   MPKI: 0.013435
STLB PREFETCH  REQUESTED:          0  ISSUED:          0  USEFUL:       1762  USELESS:        940
STLB USEFUL LOAD PREFETCHES:       1762 PREFETCH ISSUED TO LOWER LEVEL:          0  ACCURACY: inf
STLB TIMELY PREFETCHES:       1762 LATE PREFETCHES: 153 DROPPED PREFETCHES: 1840
STLB PREFETCHES SAME FILL-ORIGIN LEVEL: 0 DIFFERENT FILL-ORIGIN LEVEL: 0
STLB AVERAGE MISS LATENCY: 11603.6 cycles
STLB RQ	ACCESS:    2296980	FORWARD:          0	MERGED:      48470	TO_CACHE:    2248510

STLB Hit, L1D data hit: 0
STLB Hit, L2C data hit: 0
STLB Hit, LLC data hit: 0
STLB Hit, LLC data miss: 0
STLB STLB hints to L2: 0
L1D TOTAL     ACCESS:   54438837  HIT:   53767144  MISS:     671693  HIT %:    98.7662  MISS %:    1.23385   MPKI: 3.35846
L1D LOAD      ACCESS:   30739835  HIT:   30408051  MISS:     331784  HIT %:    98.9207  MISS %:    1.07933   MPKI: 1.65892
L1D RFO       ACCESS:   23416380  HIT:   23304783  MISS:     111597  HIT %:    99.5234  MISS %:   0.476577   MPKI: 0.557985
L1D PREFETCH  ACCESS:     282622  HIT:      54310  MISS:     228312  HIT %:    19.2165  MISS %:    80.7835   MPKI: 1.14156
AGUS PREFETCH L1 MISS: 0
L1D PREFETCH  REQUESTED:     852021  ISSUED:     852021  USEFUL:      37393  USELESS:     191037
L1D USEFUL LOAD PREFETCHES:      37393 PREFETCH ISSUED TO LOWER LEVEL:     258601  ACCURACY: 14.4597
L1D TIMELY PREFETCHES:      37393 LATE PREFETCHES: 29938 DROPPED PREFETCHES: 1969
L1D PREFETCHES SAME FILL-ORIGIN LEVEL: 258601 DIFFERENT FILL-ORIGIN LEVEL: 0
L1D AVERAGE MISS LATENCY: 7.15548e+06 cycles
L1D RQ	ACCESS:   49497807	FORWARD:          0	MERGED:   18528220	TO_CACHE:   30848110
L1D WQ	ACCESS:   24124410	FORWARD:     121527	MERGED:     255123	TO_CACHE:   23869287
L1D PQ	ACCESS:     437200	FORWARD:          0	MERGED:      22329	TO_CACHE:     414821

L1D UNIQUE REGIONS ACCESSED: 0
L1D REGIONS CONFLICTS: 0
L1D Cross Page Prefetch Requests: 14696
L1D Same Page Prefetch Requests: 508169
L1D ROI Sum of L1D PQ occupancy: 5747069
L1D PREFETCHES PUSHED FROM L2C: 0
L1I TOTAL     ACCESS:   38044638  HIT:   37437177  MISS:     607461  HIT %:    98.4033  MISS %:    1.59671   MPKI: 3.0373
L1I LOAD      ACCESS:   38044638  HIT:   37437177  MISS:     607461  HIT %:    98.4033  MISS %:    1.59671   MPKI: 3.0373
L1I PREFETCH  REQUESTED:          0  ISSUED:          0  USEFUL:          0  USELESS:          0
L1I USEFUL LOAD PREFETCHES:          0 PREFETCH ISSUED TO LOWER LEVEL:          0  ACCURACY: -nan
L1I TIMELY PREFETCHES:          0 LATE PREFETCHES: 0 DROPPED PREFETCHES: 0
L1I PREFETCHES SAME FILL-ORIGIN LEVEL: 0 DIFFERENT FILL-ORIGIN LEVEL: 0
L1I AVERAGE MISS LATENCY: 16.7816 cycles
L1I RQ	ACCESS:   60443464	FORWARD:          0	MERGED:   22214579	TO_CACHE:   38228885

BTB TOTAL     ACCESS:   29347733  HIT:   27692669  MISS:    1655064  HIT %:    94.3605  MISS %:     5.6395   MPKI: 8.27532
BTB BRANCH_DIRECT_JUMP	ACCESS:    2290071  HIT:    2288950  MISS:       1121
BTB BRANCH_INDIRECT	ACCESS:   12563222  HIT:   12018859  MISS:     544363
BTB BRANCH_CONDITIONAL	ACCESS:    6926945  HIT:    6925297  MISS:       1648
BTB BRANCH_DIRECT_CALL	ACCESS:    3333321  HIT:    3330170  MISS:       3151
BTB BRANCH_INDIRECT_CALL	ACCESS:     450445  HIT:     256847  MISS:     193598
BTB BRANCH_RETURN	ACCESS:    3783729  HIT:    2872546  MISS:     911183
BTB BRANCH_OTHER ACCESS:          0  HIT:          0  MISS:          0

L2C TOTAL     ACCESS:    1564654  HIT:     917095  MISS:     647559  HIT %:    58.6133  MISS %:    41.3867   MPKI: 3.23779
L2C LOAD      ACCESS:     909201  HIT:     620645  MISS:     288556  HIT %:    68.2627  MISS %:    31.7373   MPKI: 1.44278
L2C DATA LOAD MPKI: 1.25567
L2C INSTRUCTION LOAD MPKI: 0.187105
L2C RFO       ACCESS:     111243  HIT:       8930  MISS:     102313  HIT %:    8.02747  MISS %:    91.9725   MPKI: 0.511565
L2C PREFETCH  ACCESS:     258601  HIT:      35244  MISS:     223357  HIT %:    13.6287  MISS %:    86.3713   MPKI: 1.11678
AGUS PREFETCH L1 MISS: 0
L2C DATA PREFETCH MPKI: 1.11678
L2C INSTRUCTION PREFETCH MPKI: 0
L2C WRITEBACK ACCESS:     158330  HIT:     153926  MISS:       4404  HIT %:    97.2185  MISS %:    2.78153   MPKI: 0.02202
L2C LOAD TRANSLATION ACCESS:     121686  HIT:      93274  MISS:      28412  HIT %:    76.6514  MISS %:    23.3486   MPKI: 0.14206
L2C TRANSLATION FROM L1D PREFETCHER ACCESS:       5593  HIT:       5076  MISS:        517  HIT %:    90.7563  MISS %:     9.2437   MPKI: 0.002585
L2C PREFETCH  REQUESTED:          0  ISSUED:          0  USEFUL:       5105  USELESS:     218917
L2C USEFUL LOAD PREFETCHES:       5105 PREFETCH ISSUED TO LOWER LEVEL:     223357  ACCURACY: 2.28558
L2C TIMELY PREFETCHES:       5105 LATE PREFETCHES: 0 DROPPED PREFETCHES: 0
L2C PREFETCHES SAME FILL-ORIGIN LEVEL: 0 DIFFERENT FILL-ORIGIN LEVEL: 0
L2C AVERAGE MISS LATENCY: 117.099 cycles
L2C RQ	ACCESS:    1147832	FORWARD:          0	MERGED:          0	TO_CACHE:    1147723
L2C WQ	ACCESS:     158330	FORWARD:        109	MERGED:          0	TO_CACHE:     158330
L2C PQ	ACCESS:     258601	FORWARD:          0	MERGED:          0	TO_CACHE:     258601

L2C Instructions Evicting Data 34191
L2C Translations Evicting Data 25789
L2C Data Evicting Data 517190
L2C Instructions Evicting Instructions 1720
L2C Translations Evicting Instructions 1751
L2C Data Evicting Instructions 34091
L2C Instructions Evicting Translations 1510
L2C Translations Evicting Translations 1389
L2C Data Evicting Translations 25524
L2C Dense regions hint from L2: 0
PSCL5 TOTAL     ACCESS:      89215  HIT:      89215  MISS:          0  HIT %:        100  MISS %:          0   MPKI: 0
PSCL5 LOAD TRANSLATION ACCESS:      84535  HIT:      84535  MISS:          0  HIT %:        100  MISS %:          0   MPKI: 0
PSCL5 TRANSLATION FROM L1D PREFETCHER ACCESS:       4680  HIT:       4680  MISS:          0  HIT %:        100  MISS %:          0   MPKI: 0
PSCL5 PREFETCH  REQUESTED:          0  ISSUED:          0  USEFUL:          0  USELESS:          0
PSCL5 USEFUL LOAD PREFETCHES:          0 PREFETCH ISSUED TO LOWER LEVEL:          0  ACCURACY: -nan
PSCL5 TIMELY PREFETCHES:          0 LATE PREFETCHES: 0 DROPPED PREFETCHES: 0
PSCL5 PREFETCHES SAME FILL-ORIGIN LEVEL: 0 DIFFERENT FILL-ORIGIN LEVEL: 0

PSCL4 TOTAL     ACCESS:      87103  HIT:      87001  MISS:        102  HIT %:    99.8829  MISS %:   0.117103   MPKI: 0.00051
PSCL4 LOAD TRANSLATION ACCESS:      82746  HIT:      82644  MISS:        102  HIT %:    99.8767  MISS %:   0.123269   MPKI: 0.00051
PSCL4 TRANSLATION FROM L1D PREFETCHER ACCESS:       4357  HIT:       4357  MISS:          0  HIT %:        100  MISS %:          0   MPKI: 0
PSCL4 PREFETCH  REQUESTED:          0  ISSUED:          0  USEFUL:          0  USELESS:          0
PSCL4 USEFUL LOAD PREFETCHES:          0 PREFETCH ISSUED TO LOWER LEVEL:          0  ACCURACY: -nan
PSCL4 TIMELY PREFETCHES:          0 LATE PREFETCHES: 0 DROPPED PREFETCHES: 0
PSCL4 PREFETCHES SAME FILL-ORIGIN LEVEL: 0 DIFFERENT FILL-ORIGIN LEVEL: 0

PSCL3 TOTAL     ACCESS:      88960  HIT:      88583  MISS:        377  HIT %:    99.5762  MISS %:   0.423786   MPKI: 0.001885
PSCL3 LOAD TRANSLATION ACCESS:      84353  HIT:      83976  MISS:        377  HIT %:    99.5531  MISS %:   0.446931   MPKI: 0.001885
PSCL3 TRANSLATION FROM L1D PREFETCHER ACCESS:       4607  HIT:       4607  MISS:          0  HIT %:        100  MISS %:          0   MPKI: 0
PSCL3 PREFETCH  REQUESTED:          0  ISSUED:          0  USEFUL:          0  USELESS:          0
PSCL3 USEFUL LOAD PREFETCHES:          0 PREFETCH ISSUED TO LOWER LEVEL:          0  ACCURACY: -nan
PSCL3 TIMELY PREFETCHES:          0 LATE PREFETCHES: 0 DROPPED PREFETCHES: 0
PSCL3 PREFETCHES SAME FILL-ORIGIN LEVEL: 0 DIFFERENT FILL-ORIGIN LEVEL: 0

PSCL2 TOTAL     ACCESS:      88618  HIT:      51697  MISS:      36921  HIT %:    58.3369  MISS %:    41.6631   MPKI: 0.184605
PSCL2 LOAD TRANSLATION ACCESS:      84782  HIT:      47861  MISS:      36921  HIT %:    56.4518  MISS %:    43.5482   MPKI: 0.184605
PSCL2 TRANSLATION FROM L1D PREFETCHER ACCESS:       3836  HIT:       3836  MISS:          0  HIT %:        100  MISS %:          0   MPKI: 0
PSCL2 PREFETCH  REQUESTED:          0  ISSUED:          0  USEFUL:          0  USELESS:          0
PSCL2 USEFUL LOAD PREFETCHES:          0 PREFETCH ISSUED TO LOWER LEVEL:          0  ACCURACY: -nan
PSCL2 TIMELY PREFETCHES:          0 LATE PREFETCHES: 0 DROPPED PREFETCHES: 0
PSCL2 PREFETCHES SAME FILL-ORIGIN LEVEL: 0 DIFFERENT FILL-ORIGIN LEVEL: 0

LLC TOTAL     ACCESS:     783785  HIT:     414730  MISS:     369055  HIT %:    52.9137  MISS %:    47.0863   MPKI: 1.84527
LLC LOAD      ACCESS:     288556  HIT:     123559  MISS:     164997  HIT %:    42.8198  MISS %:    57.1802   MPKI: 0.824985
LLC RFO       ACCESS:     102313  HIT:      66976  MISS:      35337  HIT %:    65.4619  MISS %:    34.5381   MPKI: 0.176685
LLC PREFETCH  ACCESS:     223356  HIT:      63257  MISS:     160099  HIT %:    28.3212  MISS %:    71.6788   MPKI: 0.800495
AGUS PREFETCH L1 MISS: 0
LLC WRITEBACK ACCESS:     140631  HIT:     134522  MISS:       6109  HIT %:     95.656  MISS %:    4.34399   MPKI: 0.030545
LLC LOAD TRANSLATION ACCESS:      28412  HIT:      26088  MISS:       2324  HIT %:    91.8204  MISS %:    8.17964   MPKI: 0.01162
LLC TRANSLATION FROM L1D PREFETCHER ACCESS:        517  HIT:        328  MISS:        189  HIT %:    63.4429  MISS %:    36.5571   MPKI: 0.000945
LLC PREFETCH  REQUESTED:          0  ISSUED:          0  USEFUL:       3682  USELESS:     159485
LLC USEFUL LOAD PREFETCHES:       3682 PREFETCH ISSUED TO LOWER LEVEL:     160099  ACCURACY: 2.29983
LLC TIMELY PREFETCHES:       3682 LATE PREFETCHES: 0 DROPPED PREFETCHES: 0
LLC PREFETCHES SAME FILL-ORIGIN LEVEL: 0 DIFFERENT FILL-ORIGIN LEVEL: 0
LLC AVERAGE MISS LATENCY: 153.182 cycles
LLC RQ	ACCESS:     419798	FORWARD:          0	MERGED:          0	TO_CACHE:     419798
LLC WQ	ACCESS:     140631	FORWARD:          1	MERGED:          0	TO_CACHE:     140631
LLC PQ	ACCESS:     223357	FORWARD:          0	MERGED:          0	TO_CACHE:     223356

LLC Dense regions hint to LLC: 0

RAW hits: 2365145
Loads Generated: 51862954
Loads sent to L1D: 49497807
Stores Generated: 24124397
Stores sent to L1D: 24124410
Major fault: 0 Minor fault: 6082
Allocated PAGES: 6082
CPU 0 L1D 
Prefetch count 316450 BOP and RL 

DRAM Statistics
 CHANNEL 0
 RQ ROW_BUFFER_HIT:      72586  ROW_BUFFER_MISS:     290337
 DBUS_CONGESTED:        184
 WQ ROW_BUFFER_HIT:       6785  ROW_BUFFER_MISS:      39778  FULL:          0

 AVG_CONGESTED_CYCLE: 5
 All warmup complete: 2
Channel 0 Bank busy for read cycles: 0
Channel 0 Bank busy for write cycles: 0
Channel 0
Rank 0
0banks busy for read cycles: 242245127
0banks busy for write cycles: 26241
1banks busy for read cycles: 10764208
1banks busy for write cycles: 4208104
2banks busy for read cycles: 13383995
2banks busy for write cycles: 1016833
3banks busy for read cycles: 857726
3banks busy for write cycles: 238980
4banks busy for read cycles: 428551
4banks busy for write cycles: 96566
5banks busy for read cycles: 264807
5banks busy for write cycles: 60107
6banks busy for read cycles: 215775
6banks busy for write cycles: 55762
7banks busy for read cycles: 187619
7banks busy for write cycles: 64848
8banks busy for read cycles: 178744
8banks busy for write cycles: 86874

CPU 0 Branch Prediction Accuracy: 99.7868% MPKI: 0.389745 Average ROB Occupancy at Mispredict: 19.2032
Branch types
NOT_BRANCH: 163431817 81.7159%
BRANCH_DIRECT_JUMP: 2290071 1.14504%
BRANCH_INDIRECT: 12563222 6.28161%
BRANCH_CONDITIONAL: 14147089 7.07354%
BRANCH_DIRECT_CALL: 3333321 1.66666%
BRANCH_INDIRECT_CALL: 450445 0.225222%
BRANCH_RETURN: 3783729 1.89186%
BRANCH_OTHER: 0 0%

DRAM PAGES: 1048576
Allocated PAGES: 6082
