
*** ChampSim Multicore Out-of-Order Simulator ***

Warmup Instructions: 50000000
Simulation Instructions: 200000000
Number of CPUs: 1
LLC sets: 2048
LLC ways: 16
Off-chip DRAM Size: 4096 MB Channels: 1 Width: 64-bit Data Rate: 6400 MT/s
CPU 0 runs traces/spec2k17/srv_40.champsimtrace.xz
.xz
BTB has LRU replacement policy
ITLB has LRU replacement policy
DTLB has LRU replacement policy
STLB has LRU replacement policy
L1I has LRU replacement policy
CPU 0 l1d next line prefetcher
L1D has LRU replacement policy
Initialize SRRIP state for L2C
Initialize DRRIP state for LLC
Offsets elements: 
Potential of Offsets elements: 
rewards of Offsets elements: 
Printing Sanity1
offset list size1968
Heartbeat CPU 0 instructions: 10000001 cycles: 2804725 heartbeat IPC: 3.56541 cumulative IPC: 3.56541 (Simulation time: 0 hr 0 min 33 sec) 
Heartbeat CPU 0 instructions: 20000003 cycles: 5825625 heartbeat IPC: 3.31027 cumulative IPC: 3.43311 (Simulation time: 0 hr 1 min 12 sec) 
Heartbeat CPU 0 instructions: 30000002 cycles: 8856144 heartbeat IPC: 3.29976 cumulative IPC: 3.38748 (Simulation time: 0 hr 1 min 49 sec) 
*** Reached end of trace for Core: 0 Repeating trace: traces/spec2k17/srv_40.champsimtrace.xz
Heartbeat CPU 0 instructions: 40000000 cycles: 11669120 heartbeat IPC: 3.55495 cumulative IPC: 3.42785 (Simulation time: 0 hr 2 min 24 sec) 
Heartbeat CPU 0 instructions: 50000003 cycles: 14683926 heartbeat IPC: 3.31696 cumulative IPC: 3.40508 (Simulation time: 0 hr 3 min 2 sec) 

Warmup complete CPU 0 instructions: 50000003 cycles: 14683926 (Simulation time: 0 hr 3 min 2 sec) 

Heartbeat CPU 0 instructions: 60000000 cycles: 28340129 heartbeat IPC: 0.732268 cumulative IPC: 0.732268 (Simulation time: 0 hr 3 min 45 sec) 
*** Reached end of trace for Core: 0 Repeating trace: traces/spec2k17/srv_40.champsimtrace.xz
Heartbeat CPU 0 instructions: 70000003 cycles: 44357141 heartbeat IPC: 0.624336 cumulative IPC: 0.674009 (Simulation time: 0 hr 4 min 33 sec) 
Heartbeat CPU 0 instructions: 80000001 cycles: 59598349 heartbeat IPC: 0.656116 cumulative IPC: 0.667937 (Simulation time: 0 hr 5 min 16 sec) 
Heartbeat CPU 0 instructions: 90000001 cycles: 73293288 heartbeat IPC: 0.730197 cumulative IPC: 0.682485 (Simulation time: 0 hr 6 min 1 sec) 
*** Reached end of trace for Core: 0 Repeating trace: traces/spec2k17/srv_40.champsimtrace.xz
Heartbeat CPU 0 instructions: 100000002 cycles: 89395025 heartbeat IPC: 0.621051 cumulative IPC: 0.669245 (Simulation time: 0 hr 6 min 50 sec) 
Heartbeat CPU 0 instructions: 110000000 cycles: 104384728 heartbeat IPC: 0.667125 cumulative IPC: 0.66889 (Simulation time: 0 hr 7 min 34 sec) 
Heartbeat CPU 0 instructions: 120000001 cycles: 118029686 heartbeat IPC: 0.732872 cumulative IPC: 0.677338 (Simulation time: 0 hr 8 min 17 sec) 
*** Reached end of trace for Core: 0 Repeating trace: traces/spec2k17/srv_40.champsimtrace.xz
Heartbeat CPU 0 instructions: 130000003 cycles: 134398231 heartbeat IPC: 0.610928 cumulative IPC: 0.668258 (Simulation time: 0 hr 9 min 7 sec) 
Heartbeat CPU 0 instructions: 140000003 cycles: 149228840 heartbeat IPC: 0.674281 cumulative IPC: 0.668922 (Simulation time: 0 hr 9 min 52 sec) 
Heartbeat CPU 0 instructions: 150000000 cycles: 162886906 heartbeat IPC: 0.732168 cumulative IPC: 0.67475 (Simulation time: 0 hr 10 min 38 sec) 
*** Reached end of trace for Core: 0 Repeating trace: traces/spec2k17/srv_40.champsimtrace.xz
Heartbeat CPU 0 instructions: 160000001 cycles: 179280605 heartbeat IPC: 0.609991 cumulative IPC: 0.6683 (Simulation time: 0 hr 11 min 25 sec) 
Heartbeat CPU 0 instructions: 170000000 cycles: 194036121 heartbeat IPC: 0.677713 cumulative IPC: 0.669075 (Simulation time: 0 hr 12 min 9 sec) 
Heartbeat CPU 0 instructions: 180000003 cycles: 207650096 heartbeat IPC: 0.73454 cumulative IPC: 0.673693 (Simulation time: 0 hr 12 min 53 sec) 
Offsets elements: 
Potential of Offsets elements: 
rewards of Offsets elements: 0 0 0 0 0 0 9 0 0 16 180 0 0 276 45 107 0 21 44 0 0 0 0 1 21 78 1 3 0 0 0 0 0 0 0 0 0 0 0 0 25 0 0 75 0 0 62 0 0 0 0 0 0 0 0 0 0 0 1 0 0 0 0 0 0 3 4 0 39 5 0 0 0 0 0 0 0 0 0 0 0 133 0 0 0 0 0 0 0 204 71 0 0 0 0 0 136 6 0 0 5 0 0 0 2 95 9 1 38 12 1 0 0 0 0 1 0 0 0 63 0 0 40 176 197 124 129 0 0 0 142 0 0 0 0 0 0 0 0 0 0 0 0 0 0 151 1 0 0 0 0 0 0 0 0 0 0 0 0 0 0 0 0 0 0 0 0 0 0 0 0 106 0 0 0 31 45 2 0 0 0 53 0 0 281 0 0 0 40 37 29 39 1 0 0 0 0 231 0 0 0 0 0 0 0 117 0 110 0 3 0 0 0 0 0 0 0 0 0 0 0 0 0 0 0 201 0 38 284 41 53 105 0 0 1 0 2 0 0 0 0 0 0 0 0 136 109 71 0 0 0 0 0 68 0 5 0 204 1 1 172 150 201 2 5 0 0 0 0 0 0 0 0 0 0 158 159 2 8 2 0 0 0 0 7 59 0 0 0 0 0 0 42 32 24 0 0 2 0 0 0 0 0 0 0 0 0 0 0 12 0 0 0 0 0 0 5 0 0 0 7 31 0 0 12 0 0 43 0 0 0 0 0 9 11 14 10 8 0 0 58 34 0 0 30 35 9 39 0 0 48 0 1 74 0 51 5 30 51 10 150 0 0 4 23 3 0 0 71 1 7 0 0 0 0 9 26 0 2 35 0 0 0 0 0 0 0 2 0 0 0 0 3 0 0 32 109 107 134 75 125 0 53 0 1 0 0 0 31 32 5 0 0 0 0 0 33 51 0 0 0 0 0 0 0 0 0 0 0 0 0 0 0 10 26 142 139 0 144 0 0 6 48 58 0 0 0 0 0 0 0 0 0 0 0 0 0 0 0 0 0 0 0 0 0 0 0 0 0 0 0 177 226 0 0 0 0 1 0 0 127 0 14 3 0 0 239 0 0 0 0 1 0 0 0 162 2 0 2 0 20 0 169 0 0 0 0 0 0 0 1 15 4 0 0 0 0 0 0 0 0 0 0 6 0 0 32 0 0 0 0 0 36 2 0 0 0 0 0 0 0 0 3 0 0 200 0 0 0 0 0 0 0 0 0 0 0 0 0 0 0 0 0 0 0 0 0 1 0 0 0 0 0 49 0 0 0 0 1 3 25 80 2 2 2 1 3 116 0 0 2 114 0 3 0 0 7 0 0 1 0 0 0 0 0 0 0 0 0 0 0 0 0 0 1 0 0 0 0 0 0 0 0 0 0 4 0 0 0 0 0 0 0 0 0 0 0 4 0 0 7 0 0 0 0 0 0 0 0 0 0 0 0 0 0 0 0 0 0 0 0 0 0 0 0 0 0 16 6 0 0 0 0 0 0 0 0 0 0 0 0 0 0 0 0 0 0 0 5 0 0 0 0 0 0 0 0 0 0 8 1 0 33 0 0 0 0 0 0 0 0 0 0 0 0 0 0 0 0 0 0 0 0 198 0 0 0 0 0 0 10 0 0 35 0 24 0 0 0 0 87 0 0 0 0 0 0 0 52 1 0 0 1 62 1 0 0 0 0 0 0 0 1 0 0 0 4 0 0 0 0 0 0 0 0 0 0 0 0 0 0 3 0 0 0 0 0 0 0 0 0 0 0 0 0 0 0 0 0 0 1 0 0 0 0 0 3 221 27 0 0 0 0 1 0 0 0 0 1 96 2 0 1 2 0 0 0 0 0 0 0 0 0 0 0 0 0 0 0 0 0 0 1 0 0 0 0 0 0 0 0 0 0 0 0 0 0 0 0 0 0 0 0 0 0 0 0 0 0 4 0 0 0 0 0 0 1 0 145 0 0 0 0 0 0 0 0 134 0 108 0 0 0 0 0 0 0 0 0 121 0 0 0 0 0 0 0 0 0 0 0 0 0 236 259 163 0 0 0 0 0 0 1 0 0 0 81 70 0 0 0 0 0 0 0 0 0 2 0 0 179 0 0 0 0 0 0 0 0 0 0 0 0 0 0 199 209 7 26 0 60 0 0 0 176 0 0 0 0 0 0 0 0 0 0 0 0 0 0 0 0 0 0 0 22 49 0 0 0 0 0 0 0 0 0 9 0 0 0 0 0 0 0 0 0 0 0 0 0 1 0 0 0 0 0 0 0 0 0 0 0 7 0 0 0 0 0 0 0 0 0 0 0 0 22 0 0 1 0 0 0 1 0 0 0 0 0 0 0 0 0 1 0 0 0 0 0 0 0 0 0 0 0 1 0 0 0 0 0 0 0 0 0 0 250 0 0 0 0 5 0 0 0 0 40 0 0 0 0 164 0 0 0 0 0 0 0 0 0 0 0 0 0 0 0 0 0 0 3 0 0 0 204 0 0 0 0 0 0 298 0 0 0 0 29 0 0 0 0 0 0 145 0 0 93 0 0 0 0 0 0 0 0 3 0 0 0 0 0 0 0 0 0 0 0 0 51 0 1 0 0 0 0 0 0 0 0 0 0 0 0 2 0 0 0 0 0 0 0 0 0 151 0 0 0 0 0 0 0 0 0 1 4 0 229 0 0 0 34 36 13 0 0 0 0 0 0 0 0 0 0 0 0 80 0 0 0 0 0 99 97 0 0 0 0 0 0 0 0 0 0 19 0 0 0 1 0 1 2 1 0 0 2 0 0 0 0 0 0 0 1 0 166 0 0 0 0 0 0 0 0 30 28 0 0 37 0 0 0 26 0 0 0 0 0 0 0 0 0 35 38 0 0 0 0 0 0 0 53 0 0 0 0 0 0 0 0 0 32 0 0 0 0 0 0 0 0 0 0 0 0 0 0 0 0 0 0 0 0 0 0 0 0 0 0 0 0 0 0 0 0 0 0 0 0 0 0 0 0 0 0 0 0 0 0 0 7 2 2 4 0 0 0 32 0 0 0 0 6 0 0 0 0 0 0 0 0 0 0 0 0 0 0 0 0 0 0 4 0 0 0 0 0 0 0 0 0 0 0 0 0 0 0 0 0 49 0 0 0 0 0 0 0 0 0 0 0 0 0 0 0 0 1 0 0 0 0 0 0 0 0 0 0 0 0 0 0 0 0 0 0 0 0 0 0 43 0 0 0 0 0 0 0 0 5 0 0 0 0 0 0 0 59 0 0 0 0 0 0 0 0 0 0 0 0 0 0 0 0 0 0 1 0 0 0 0 0 0 0 175 0 0 0 0 0 0 0 0 3 0 0 0 0 0 0 0 0 0 0 0 0 152 0 0 0 0 0 0 0 0 0 0 0 248 58 0 0 0 0 0 0 0 0 29 0 0 0 4 242 0 123 0 0 0 1 0 0 0 0 0 0 0 0 0 0 0 0 0 0 0 0 0 0 0 0 0 0 0 0 70 0 0 0 0 20 0 0 0 0 77 0 0 0 0 0 190 1 0 0 0 0 0 0 0 0 0 0 0 0 126 0 133 0 0 0 32 0 0 0 0 0 0 0 25 61 0 0 0 0 0 0 0 0 0 0 0 0 0 0 0 0 0 0 0 3 0 0 0 0 0 0 0 0 0 0 2 0 0 0 0 0 0 0 0 0 0 0 0 0 0 0 0 0 0 0 0 0 0 0 45 0 4 0 0 0 0 2 0 21 0 1 0 0 0 0 0 5 0 0 0 0 0 5 0 0 0 0 0 0 1 0 0 4 10 0 0 0 0 0 0 0 0 67 0 0 0 0 0 0 0 0 94 0 0 0 0 0 0 0 0 0 0 0 0 0 0 0 0 0 5 0 0 0 0 5 0 0 0 0 4 0 0 0 0 69 102 16 0 0 0 0 0 18 2 0 0 0 0 0 1 3 20 0 0 0 0 0 0 0 282 0 0 1 3 0 0 0 0 0 27 0 0 0 0 0 0 0 0 0 0 0 0 0 0 0 0 0 0 0 0 0 0 0 0 0 0 0 3 9 0 0 0 0 0 0 0 0 0 59 48 1 0 3 0 0 0 0 0 0 0 0 0 0 0 0 0 3 0 0 0 0 0 0 0 0 2 66 21 0 0 0 1 0 0 0 0 0 0 0 1 0 0 0 0 0 0 0 0 2 0 0 0 0 0 0 0 0 0 0 0 0 0 0 0 18 0 0 0 0 0 0 0 1 0 0 0 0 0 0 0 0 0 0 0 0 0 0 0 0 0 0 0 0 0 0 0 0 1 0 38 0 0 0 0 0 0 0 0 178 0 0 0 0 0 1 0 0 0 1 0 0 0 47 0 0 0 0 0 0 0 0 0 0 0 0 0 0 0 0 0 0 0 0 83 0 0 0 0 
Printing Sanity2
*** Reached end of trace for Core: 0 Repeating trace: traces/spec2k17/srv_40.champsimtrace.xz
Heartbeat CPU 0 instructions: 190000001 cycles: 224151665 heartbeat IPC: 0.606003 cumulative IPC: 0.668361 (Simulation time: 0 hr 13 min 42 sec) 
Heartbeat CPU 0 instructions: 200000002 cycles: 238736375 heartbeat IPC: 0.68565 cumulative IPC: 0.669486 (Simulation time: 0 hr 14 min 26 sec) 
Heartbeat CPU 0 instructions: 210000000 cycles: 252452776 heartbeat IPC: 0.729054 cumulative IPC: 0.672922 (Simulation time: 0 hr 15 min 8 sec) 
*** Reached end of trace for Core: 0 Repeating trace: traces/spec2k17/srv_40.champsimtrace.xz
Heartbeat CPU 0 instructions: 220000000 cycles: 269141419 heartbeat IPC: 0.59921 cumulative IPC: 0.668088 (Simulation time: 0 hr 15 min 56 sec) 
Heartbeat CPU 0 instructions: 230000000 cycles: 283491165 heartbeat IPC: 0.696876 cumulative IPC: 0.669625 (Simulation time: 0 hr 16 min 41 sec) 
Heartbeat CPU 0 instructions: 240000000 cycles: 297140870 heartbeat IPC: 0.732617 cumulative IPC: 0.672669 (Simulation time: 0 hr 17 min 23 sec) 
*** Reached end of trace for Core: 0 Repeating trace: traces/spec2k17/srv_40.champsimtrace.xz
Heartbeat CPU 0 instructions: 250000002 cycles: 313688477 heartbeat IPC: 0.604317 cumulative IPC: 0.668886 (Simulation time: 0 hr 18 min 13 sec) 
Finished CPU 0 instructions: 200000003 cycles: 299004552 cumulative IPC: 0.668886 (Simulation time: 0 hr 18 min 13 sec) 

ChampSim completed all CPUs

Region of Interest Statistics

CPU 0 cumulative IPC: 0.668886 instructions: 200000003 cycles: 299004552
ITLB TOTAL     ACCESS:   29009404  HIT:   28743913  MISS:     265491  HIT %:    99.0848  MISS %:   0.915189   MPKI: 1.32745
ITLB LOAD TRANSLATION ACCESS:   29009404  HIT:   28743913  MISS:     265491  HIT %:    99.0848  MISS %:   0.915189   MPKI: 1.32745
ITLB PREFETCH  REQUESTED:          0  ISSUED:          0  USEFUL:          0  USELESS:          0
ITLB USEFUL LOAD PREFETCHES:          0 PREFETCH ISSUED TO LOWER LEVEL:          0  ACCURACY: -nan
ITLB TIMELY PREFETCHES:          0 LATE PREFETCHES: 0 DROPPED PREFETCHES: 0
ITLB PREFETCHES SAME FILL-ORIGIN LEVEL: 0 DIFFERENT FILL-ORIGIN LEVEL: 0
ITLB AVERAGE MISS LATENCY: 11.4692 cycles
ITLB RQ	ACCESS:   37717906	FORWARD:          0	MERGED:    8614647	TO_CACHE:   29103259

DTLB TOTAL     ACCESS:   36801770  HIT:   36487262  MISS:     314508  HIT %:    99.1454  MISS %:     0.8546   MPKI: 1.57254
DTLB LOAD TRANSLATION ACCESS:   36801770  HIT:   36487262  MISS:     314508  HIT %:    99.1454  MISS %:     0.8546   MPKI: 1.57254
DTLB PREFETCH  REQUESTED:          0  ISSUED:          0  USEFUL:          0  USELESS:          0
DTLB USEFUL LOAD PREFETCHES:          0 PREFETCH ISSUED TO LOWER LEVEL:          0  ACCURACY: -nan
DTLB TIMELY PREFETCHES:          0 LATE PREFETCHES: 0 DROPPED PREFETCHES: 0
DTLB PREFETCHES SAME FILL-ORIGIN LEVEL: 0 DIFFERENT FILL-ORIGIN LEVEL: 0
DTLB AVERAGE MISS LATENCY: 21.6016 cycles
DTLB RQ	ACCESS:   54991925	FORWARD:          0	MERGED:   18081946	TO_CACHE:   36909979

STLB TOTAL     ACCESS:    1493558  HIT:    1445713  MISS:      47845  HIT %:    96.7966  MISS %:    3.20342   MPKI: 0.239225
STLB LOAD TRANSLATION ACCESS:     579999  HIT:     537476  MISS:      42523  HIT %:    92.6684  MISS %:    7.33156   MPKI: 0.212615
STLB TRANSLATION FROM L1D PREFETCHER ACCESS:     913559  HIT:     908237  MISS:       5322  HIT %:    99.4174  MISS %:   0.582557   MPKI: 0.02661
STLB PREFETCH  REQUESTED:          0  ISSUED:          0  USEFUL:       5295  USELESS:         26
STLB USEFUL LOAD PREFETCHES:       5295 PREFETCH ISSUED TO LOWER LEVEL:          0  ACCURACY: inf
STLB TIMELY PREFETCHES:       5295 LATE PREFETCHES: 409 DROPPED PREFETCHES: 12131
STLB PREFETCHES SAME FILL-ORIGIN LEVEL: 0 DIFFERENT FILL-ORIGIN LEVEL: 0
STLB AVERAGE MISS LATENCY: 605064 cycles
STLB RQ	ACCESS:    1692940	FORWARD:          0	MERGED:     183399	TO_CACHE:    1509541

STLB Hit, L1D data hit: 0
STLB Hit, L2C data hit: 0
STLB Hit, LLC data hit: 0
STLB Hit, LLC data miss: 0
STLB STLB hints to L2: 0
L1D TOTAL     ACCESS:   52607655  HIT:   49667513  MISS:    2940142  HIT %:    94.4112  MISS %:    5.58881   MPKI: 14.7007
L1D LOAD      ACCESS:   43013894  HIT:   41910538  MISS:    1103356  HIT %:    97.4349  MISS %:    2.56512   MPKI: 5.51678
L1D RFO       ACCESS:    8736454  HIT:    7620861  MISS:    1115593  HIT %:    87.2306  MISS %:    12.7694   MPKI: 5.57796
L1D PREFETCH  ACCESS:     857307  HIT:     136114  MISS:     721193  HIT %:    15.8769  MISS %:    84.1231   MPKI: 3.60596
AGUS PREFETCH L1 MISS: 0
L1D PREFETCH  REQUESTED:    2253011  ISSUED:    2252248  USEFUL:     281166  USELESS:     439973
L1D USEFUL LOAD PREFETCHES:     281166 PREFETCH ISSUED TO LOWER LEVEL:     835886  ACCURACY: 33.6369
L1D TIMELY PREFETCHES:     281166 LATE PREFETCHES: 113844 DROPPED PREFETCHES: 14162
L1D PREFETCHES SAME FILL-ORIGIN LEVEL: 835886 DIFFERENT FILL-ORIGIN LEVEL: 0
L1D AVERAGE MISS LATENCY: 6.10385e+06 cycles
L1D RQ	ACCESS:   49905458	FORWARD:          0	MERGED:    6717517	TO_CACHE:   43068988
L1D WQ	ACCESS:   12021205	FORWARD:     119107	MERGED:      98268	TO_CACHE:   11922937
L1D PQ	ACCESS:    1139307	FORWARD:          0	MERGED:      26212	TO_CACHE:    1112941

L1D UNIQUE REGIONS ACCESSED: 0
L1D REGIONS CONFLICTS: 0
L1D Cross Page Prefetch Requests: 124571
L1D Same Page Prefetch Requests: 1265217
L1D ROI Sum of L1D PQ occupancy: 24931455
L1D PREFETCHES PUSHED FROM L2C: 0
L1I TOTAL     ACCESS:   37375568  HIT:   36107146  MISS:    1268422  HIT %:    96.6063  MISS %:    3.39372   MPKI: 6.34211
L1I LOAD      ACCESS:   37375568  HIT:   36107146  MISS:    1268422  HIT %:    96.6063  MISS %:    3.39372   MPKI: 6.34211
L1I PREFETCH  REQUESTED:          0  ISSUED:          0  USEFUL:          0  USELESS:          0
L1I USEFUL LOAD PREFETCHES:          0 PREFETCH ISSUED TO LOWER LEVEL:          0  ACCURACY: -nan
L1I TIMELY PREFETCHES:          0 LATE PREFETCHES: 0 DROPPED PREFETCHES: 0
L1I PREFETCHES SAME FILL-ORIGIN LEVEL: 0 DIFFERENT FILL-ORIGIN LEVEL: 0
L1I AVERAGE MISS LATENCY: 27.9191 cycles
L1I RQ	ACCESS:   53161709	FORWARD:          0	MERGED:   15443803	TO_CACHE:   37717906

BTB TOTAL     ACCESS:   13141795  HIT:   12087746  MISS:    1054049  HIT %:    91.9794  MISS %:    8.02059   MPKI: 5.27024
BTB BRANCH_DIRECT_JUMP	ACCESS:    1417010  HIT:    1361698  MISS:      55312
BTB BRANCH_INDIRECT	ACCESS:    4725375  HIT:    4385112  MISS:     340263
BTB BRANCH_CONDITIONAL	ACCESS:    4838902  HIT:    4776127  MISS:      62775
BTB BRANCH_DIRECT_CALL	ACCESS:     958453  HIT:     856614  MISS:     101839
BTB BRANCH_INDIRECT_CALL	ACCESS:     121813  HIT:      97196  MISS:      24617
BTB BRANCH_RETURN	ACCESS:    1080242  HIT:     610999  MISS:     469243
BTB BRANCH_OTHER ACCESS:          0  HIT:          0  MISS:          0

L2C TOTAL     ACCESS:    5617174  HIT:    3609247  MISS:    2007927  HIT %:    64.2538  MISS %:    35.7462   MPKI: 10.0396
L2C LOAD      ACCESS:    2257919  HIT:    1647879  MISS:     610040  HIT %:    72.9822  MISS %:    27.0178   MPKI: 3.0502
L2C DATA LOAD MPKI: 1.72272
L2C INSTRUCTION LOAD MPKI: 1.32748
L2C RFO       ACCESS:    1114548  HIT:     144513  MISS:     970035  HIT %:    12.9661  MISS %:    87.0339   MPKI: 4.85017
L2C PREFETCH  ACCESS:     835882  HIT:     448406  MISS:     387476  HIT %:    53.6447  MISS %:    46.3553   MPKI: 1.93738
AGUS PREFETCH L1 MISS: 0
L2C DATA PREFETCH MPKI: 1.93738
L2C INSTRUCTION PREFETCH MPKI: 0
L2C WRITEBACK ACCESS:    1329686  HIT:    1314306  MISS:      15380  HIT %:    98.8433  MISS %:    1.15666   MPKI: 0.0769
L2C LOAD TRANSLATION ACCESS:      54486  HIT:      32377  MISS:      22109  HIT %:    59.4226  MISS %:    40.5774   MPKI: 0.110545
L2C TRANSLATION FROM L1D PREFETCHER ACCESS:      24653  HIT:      21766  MISS:       2887  HIT %:    88.2895  MISS %:    11.7105   MPKI: 0.014435
L2C PREFETCH  REQUESTED:          0  ISSUED:          0  USEFUL:      20992  USELESS:     369356
L2C USEFUL LOAD PREFETCHES:      20992 PREFETCH ISSUED TO LOWER LEVEL:     387476  ACCURACY: 5.41763
L2C TIMELY PREFETCHES:      20992 LATE PREFETCHES: 0 DROPPED PREFETCHES: 0
L2C PREFETCHES SAME FILL-ORIGIN LEVEL: 0 DIFFERENT FILL-ORIGIN LEVEL: 0
L2C AVERAGE MISS LATENCY: 262.222 cycles
L2C RQ	ACCESS:    3451817	FORWARD:          0	MERGED:          0	TO_CACHE:    3451606
L2C WQ	ACCESS:    1329686	FORWARD:        215	MERGED:          0	TO_CACHE:    1329686
L2C PQ	ACCESS:     835886	FORWARD:          0	MERGED:          0	TO_CACHE:     835882

L2C Instructions Evicting Data 150730
L2C Translations Evicting Data 17183
L2C Data Evicting Data 1540481
L2C Instructions Evicting Instructions 106869
L2C Translations Evicting Instructions 7200
L2C Data Evicting Instructions 145620
L2C Instructions Evicting Translations 7897
L2C Translations Evicting Translations 613
L2C Data Evicting Translations 15954
L2C Dense regions hint from L2: 0
PSCL5 TOTAL     ACCESS:      59976  HIT:      59976  MISS:          0  HIT %:        100  MISS %:          0   MPKI: 0
PSCL5 LOAD TRANSLATION ACCESS:      42114  HIT:      42114  MISS:          0  HIT %:        100  MISS %:          0   MPKI: 0
PSCL5 TRANSLATION FROM L1D PREFETCHER ACCESS:      17862  HIT:      17862  MISS:          0  HIT %:        100  MISS %:          0   MPKI: 0
PSCL5 PREFETCH  REQUESTED:          0  ISSUED:          0  USEFUL:          0  USELESS:          0
PSCL5 USEFUL LOAD PREFETCHES:          0 PREFETCH ISSUED TO LOWER LEVEL:          0  ACCURACY: -nan
PSCL5 TIMELY PREFETCHES:          0 LATE PREFETCHES: 0 DROPPED PREFETCHES: 0
PSCL5 PREFETCHES SAME FILL-ORIGIN LEVEL: 0 DIFFERENT FILL-ORIGIN LEVEL: 0

PSCL4 TOTAL     ACCESS:      59447  HIT:      59322  MISS:        125  HIT %:    99.7897  MISS %:   0.210271   MPKI: 0.000625
PSCL4 LOAD TRANSLATION ACCESS:      41836  HIT:      41711  MISS:        125  HIT %:    99.7012  MISS %:   0.298786   MPKI: 0.000625
PSCL4 TRANSLATION FROM L1D PREFETCHER ACCESS:      17611  HIT:      17611  MISS:          0  HIT %:        100  MISS %:          0   MPKI: 0
PSCL4 PREFETCH  REQUESTED:          0  ISSUED:          0  USEFUL:          0  USELESS:          0
PSCL4 USEFUL LOAD PREFETCHES:          0 PREFETCH ISSUED TO LOWER LEVEL:          0  ACCURACY: -nan
PSCL4 TIMELY PREFETCHES:          0 LATE PREFETCHES: 0 DROPPED PREFETCHES: 0
PSCL4 PREFETCHES SAME FILL-ORIGIN LEVEL: 0 DIFFERENT FILL-ORIGIN LEVEL: 0

PSCL3 TOTAL     ACCESS:      48350  HIT:      45010  MISS:       3340  HIT %:     93.092  MISS %:    6.90796   MPKI: 0.0167
PSCL3 LOAD TRANSLATION ACCESS:      36590  HIT:      33250  MISS:       3340  HIT %:    90.8718  MISS %:    9.12818   MPKI: 0.0167
PSCL3 TRANSLATION FROM L1D PREFETCHER ACCESS:      11760  HIT:      11760  MISS:          0  HIT %:        100  MISS %:          0   MPKI: 0
PSCL3 PREFETCH  REQUESTED:          0  ISSUED:          0  USEFUL:          0  USELESS:          0
PSCL3 USEFUL LOAD PREFETCHES:          0 PREFETCH ISSUED TO LOWER LEVEL:          0  ACCURACY: -nan
PSCL3 TIMELY PREFETCHES:          0 LATE PREFETCHES: 0 DROPPED PREFETCHES: 0
PSCL3 PREFETCHES SAME FILL-ORIGIN LEVEL: 0 DIFFERENT FILL-ORIGIN LEVEL: 0

PSCL2 TOTAL     ACCESS:      54635  HIT:      45538  MISS:       9097  HIT %:    83.3495  MISS %:    16.6505   MPKI: 0.045485
PSCL2 LOAD TRANSLATION ACCESS:      42249  HIT:      33152  MISS:       9097  HIT %:    78.4681  MISS %:    21.5319   MPKI: 0.045485
PSCL2 TRANSLATION FROM L1D PREFETCHER ACCESS:      12386  HIT:      12386  MISS:          0  HIT %:        100  MISS %:          0   MPKI: 0
PSCL2 PREFETCH  REQUESTED:          0  ISSUED:          0  USEFUL:          0  USELESS:          0
PSCL2 USEFUL LOAD PREFETCHES:          0 PREFETCH ISSUED TO LOWER LEVEL:          0  ACCURACY: -nan
PSCL2 TIMELY PREFETCHES:          0 LATE PREFETCHES: 0 DROPPED PREFETCHES: 0
PSCL2 PREFETCHES SAME FILL-ORIGIN LEVEL: 0 DIFFERENT FILL-ORIGIN LEVEL: 0

LLC TOTAL     ACCESS:    3033138  HIT:    1384870  MISS:    1648268  HIT %:     45.658  MISS %:     54.342   MPKI: 8.24134
LLC LOAD      ACCESS:     610040  HIT:     268165  MISS:     341875  HIT %:    43.9586  MISS %:    56.0414   MPKI: 1.70937
LLC RFO       ACCESS:     970034  HIT:      20320  MISS:     949714  HIT %:    2.09477  MISS %:    97.9052   MPKI: 4.74857
LLC PREFETCH  ACCESS:     387476  HIT:      66803  MISS:     320673  HIT %:    17.2406  MISS %:    82.7594   MPKI: 1.60336
AGUS PREFETCH L1 MISS: 0
LLC WRITEBACK ACCESS:    1040592  HIT:    1019376  MISS:      21216  HIT %:    97.9612  MISS %:    2.03884   MPKI: 0.10608
LLC LOAD TRANSLATION ACCESS:      22109  HIT:       8953  MISS:      13156  HIT %:    40.4948  MISS %:    59.5052   MPKI: 0.06578
LLC TRANSLATION FROM L1D PREFETCHER ACCESS:       2887  HIT:       1253  MISS:       1634  HIT %:    43.4015  MISS %:    56.5985   MPKI: 0.00817
LLC PREFETCH  REQUESTED:          0  ISSUED:          0  USEFUL:       6860  USELESS:     315666
LLC USEFUL LOAD PREFETCHES:       6860 PREFETCH ISSUED TO LOWER LEVEL:     320673  ACCURACY: 2.13925
LLC TIMELY PREFETCHES:       6860 LATE PREFETCHES: 0 DROPPED PREFETCHES: 0
LLC PREFETCHES SAME FILL-ORIGIN LEVEL: 0 DIFFERENT FILL-ORIGIN LEVEL: 0
LLC AVERAGE MISS LATENCY: 283.173 cycles
LLC RQ	ACCESS:    1605071	FORWARD:          0	MERGED:          0	TO_CACHE:    1605070
LLC WQ	ACCESS:    1040592	FORWARD:          1	MERGED:          0	TO_CACHE:    1040592
LLC PQ	ACCESS:     387476	FORWARD:          0	MERGED:          0	TO_CACHE:     387476

LLC Dense regions hint to LLC: 0

RAW hits: 893016
Loads Generated: 50798474
Loads sent to L1D: 49905458
Stores Generated: 12021212
Stores sent to L1D: 12021205
Major fault: 0 Minor fault: 6461
Allocated PAGES: 6461
CPU 0 L1D 
Prefetch count 1036229 BOP and RL 

DRAM Statistics
 CHANNEL 0
 RQ ROW_BUFFER_HIT:     675077  ROW_BUFFER_MISS:     951973
 DBUS_CONGESTED:        704
 WQ ROW_BUFFER_HIT:     217632  ROW_BUFFER_MISS:     790765  FULL:          0

 AVG_CONGESTED_CYCLE: 4
 All warmup complete: 2
Channel 0 Bank busy for read cycles: 0
Channel 0 Bank busy for write cycles: 0
Channel 0
Rank 0
0banks busy for read cycles: 220828758
0banks busy for write cycles: 48892
1banks busy for read cycles: 15537908
1banks busy for write cycles: 6459406
2banks busy for read cycles: 7123666
2banks busy for write cycles: 3573982
3banks busy for read cycles: 2167106
3banks busy for write cycles: 1981767
4banks busy for read cycles: 1530669
4banks busy for write cycles: 1352418
5banks busy for read cycles: 1162236
5banks busy for write cycles: 993539
6banks busy for read cycles: 1798906
6banks busy for write cycles: 803378
7banks busy for read cycles: 2376768
7banks busy for write cycles: 1631706
8banks busy for read cycles: 12999903
8banks busy for write cycles: 16633545

CPU 0 Branch Prediction Accuracy: 99.6381% MPKI: 0.27243 Average ROB Occupancy at Mispredict: 46.0849
Branch types
NOT_BRANCH: 184943667 92.4718%
BRANCH_DIRECT_JUMP: 1417010 0.708505%
BRANCH_INDIRECT: 4725375 2.36269%
BRANCH_CONDITIONAL: 6753211 3.37661%
BRANCH_DIRECT_CALL: 958453 0.479226%
BRANCH_INDIRECT_CALL: 121813 0.0609065%
BRANCH_RETURN: 1080242 0.540121%
BRANCH_OTHER: 0 0%

DRAM PAGES: 1048576
Allocated PAGES: 6461
