
*** ChampSim Multicore Out-of-Order Simulator ***

Warmup Instructions: 50000000
Simulation Instructions: 200000000
Number of CPUs: 1
LLC sets: 2048
LLC ways: 16
Off-chip DRAM Size: 4096 MB Channels: 1 Width: 64-bit Data Rate: 6400 MT/s
CPU 0 runs traces/spec2k17/srv_13.champsimtrace.xz
.xz
BTB has LRU replacement policy
ITLB has LRU replacement policy
DTLB has LRU replacement policy
STLB has LRU replacement policy
L1I has LRU replacement policy
CPU 0 l1d next line prefetcher
L1D has LRU replacement policy
Initialize SRRIP state for L2C
Initialize DRRIP state for LLC
Offsets elements: 
Potential of Offsets elements: 
rewards of Offsets elements: 
Printing Sanity1
offset list size1585
Heartbeat CPU 0 instructions: 10000002 cycles: 2818091 heartbeat IPC: 3.5485 cumulative IPC: 3.5485 (Simulation time: 0 hr 0 min 34 sec) 
Heartbeat CPU 0 instructions: 20000000 cycles: 5634072 heartbeat IPC: 3.55116 cumulative IPC: 3.54983 (Simulation time: 0 hr 1 min 8 sec) 
Heartbeat CPU 0 instructions: 30000003 cycles: 8453123 heartbeat IPC: 3.54729 cumulative IPC: 3.54898 (Simulation time: 0 hr 1 min 42 sec) 
*** Reached end of trace for Core: 0 Repeating trace: traces/spec2k17/srv_13.champsimtrace.xz
Heartbeat CPU 0 instructions: 40000001 cycles: 11262230 heartbeat IPC: 3.55985 cumulative IPC: 3.55169 (Simulation time: 0 hr 2 min 15 sec) 
Heartbeat CPU 0 instructions: 50000003 cycles: 14079894 heartbeat IPC: 3.54904 cumulative IPC: 3.55116 (Simulation time: 0 hr 2 min 50 sec) 

Warmup complete CPU 0 instructions: 50000003 cycles: 14079894 (Simulation time: 0 hr 2 min 50 sec) 

Heartbeat CPU 0 instructions: 60000000 cycles: 44726942 heartbeat IPC: 0.326296 cumulative IPC: 0.326296 (Simulation time: 0 hr 3 min 53 sec) 
Offsets elements: 
Potential of Offsets elements: 
rewards of Offsets elements: 0 0 0 0 0 0 0 0 0 1 0 0 137 0 0 0 0 0 0 0 0 0 0 83 0 2 1 0 0 1 0 0 0 0 2 5 1 0 0 0 0 0 5 0 0 2 0 102 0 0 0 2 0 0 0 0 0 0 22 33 0 0 0 3 0 0 0 0 1 0 32 0 0 0 1 1 0 0 0 0 0 0 0 0 0 0 0 77 0 87 0 0 0 0 0 0 0 1 0 8 0 20 0 0 0 1 0 8 202 1 122 0 0 0 1 0 0 0 4 0 0 0 36 182 1 0 0 0 0 0 0 0 0 3 0 1 2 0 1 0 0 102 0 0 7 1 8 0 0 3 0 0 0 0 1 2 5 1 0 0 0 0 0 1 0 2 7 1 0 0 0 0 0 158 0 1 0 0 0 4 0 0 0 6 68 178 55 1 0 1 0 0 0 1 0 13 0 0 1 0 3 0 0 0 0 12 1 2 0 0 0 0 62 2 2 0 0 134 1 0 0 0 4 2 3 0 65 0 0 0 0 0 2 0 0 0 0 2 0 0 0 2 0 1 1 5 0 5 0 7 0 4 0 2 0 0 0 11 57 1 0 0 36 166 0 0 1 1 0 0 0 0 0 1 1 2 0 0 0 0 1 0 1 1 3 1 2 0 1 1 0 1 0 1 0 1 2 0 2 2 0 1 0 0 0 0 2 1 0 0 2 0 0 0 6 11 64 0 0 16 16 47 15 0 1 1 0 0 0 70 0 0 4 1 0 0 0 0 0 0 1 0 0 60 0 78 0 2 0 4 1 0 0 0 0 20 2 3 2 39 1 0 0 0 0 0 1 0 7 0 1 1 0 0 0 1 0 0 0 0 0 0 125 0 1 1 0 0 1 1 0 0 145 0 0 0 1 1 0 1 0 5 0 1 0 3 0 0 1 0 1 0 0 0 0 0 0 0 1 0 2 1 3 0 0 1 0 0 2 0 0 1 1 1 0 0 0 0 0 0 0 0 1 3 0 0 0 0 0 0 1 0 0 60 0 0 1 1 0 3 0 2 0 0 0 0 0 1 0 1 0 0 0 0 0 0 0 0 0 0 0 0 0 0 2 0 0 0 1 0 0 0 2 1 0 0 5 0 0 4 3 0 0 1 0 0 87 7 0 0 0 0 0 0 1 0 0 0 2 0 0 0 0 0 0 0 0 0 0 0 0 0 0 2 0 0 0 0 7 0 0 1 1 0 1 0 0 0 0 0 0 0 0 5 0 4 5 64 0 0 0 1 0 1 0 1 0 6 1 2 0 1 0 0 0 0 1 0 0 0 0 0 0 0 0 0 3 2 0 0 0 0 0 0 0 0 0 0 0 0 3 0 0 0 0 0 0 0 0 0 0 0 0 0 1 0 0 2 1 0 0 0 0 0 1 0 0 0 0 24 2 0 0 0 0 0 0 0 0 0 0 0 0 1 0 0 0 1 0 0 0 1 0 0 0 0 0 0 0 0 0 0 23 0 0 0 0 0 0 0 0 0 0 10 0 0 0 2 0 2 0 0 3 0 0 0 0 2 2 0 50 0 0 0 68 0 0 0 0 0 0 0 0 0 0 0 1 0 0 0 0 0 4 56 4 1 3 0 0 0 0 0 0 3 38 2 0 0 0 0 2 0 0 2 0 0 0 0 0 0 1 0 3 1 1 0 0 1 1 0 0 2 0 0 0 5 0 0 0 1 0 1 0 0 4 0 0 0 0 0 0 0 4 4 1 0 0 0 1 1 0 0 1 1 1 0 1 1 1 0 2 7 1 2 133 11 5 1 0 0 0 0 0 3 2 0 0 1 0 0 0 0 2 0 0 0 1 0 3 0 0 1 0 0 5 1 9 5 0 0 0 2 0 2 1 0 0 0 0 5 0 0 0 3 0 0 1 0 1 0 0 1 0 0 1 0 0 1 0 2 0 0 0 9 1 0 0 0 0 0 0 0 0 0 0 0 2 1 0 22 2 0 0 1 0 2 0 0 0 3 1 0 0 1 2 0 0 1 1 0 1 1 0 1 0 0 0 0 0 1 0 0 0 0 0 2 0 0 0 18 2 0 1 0 0 0 0 0 2 0 0 0 0 0 0 0 0 0 0 0 0 0 0 0 3 2 19 0 0 0 0 0 0 1 0 0 0 0 0 0 2 0 0 0 28 0 0 0 0 3 6 0 0 6 1 0 2 2 5 5 0 0 0 0 0 0 0 0 0 0 1 0 0 2 3 0 0 0 0 0 0 0 0 0 0 0 0 2 0 0 0 0 4 0 2 0 0 0 0 0 0 0 0 12 6 0 0 0 0 0 2 0 0 0 0 2 0 0 1 1 2 0 0 0 0 0 0 3 0 0 0 0 0 0 39 0 0 0 0 0 0 0 0 0 2 1 0 0 0 0 1 0 0 0 107 45 0 0 0 1 0 0 0 0 0 0 3 0 0 0 0 0 0 0 0 0 0 0 0 0 0 1 0 0 0 0 0 2 0 2 2 0 0 0 0 2 3 0 0 1 1 0 0 0 0 1 3 0 0 0 3 0 0 2 0 0 0 0 0 0 3 2 0 0 4 0 1 0 2 1 0 0 2 0 0 0 19 5 0 0 0 0 0 0 2 1 1 0 0 8 0 1 0 0 0 2 3 0 2 0 151 10 0 1 0 0 0 0 0 0 0 10 0 0 0 0 2 0 0 1 1 0 5 1 0 0 7 2 4 0 1 0 0 0 2 0 0 0 0 0 0 0 0 1 0 0 0 1 1 0 2 0 1 1 0 0 3 1 1 0 3 0 1 4 0 2 0 0 0 0 0 0 0 2 0 0 0 1 0 0 0 0 0 5 0 0 0 0 0 0 2 0 4 1 0 0 1 0 0 0 0 1 3 0 0 5 5 0 0 0 0 0 3 2 2 0 0 0 0 3 0 0 1 1 0 0 0 0 1 2 0 0 0 0 0 3 2 0 0 0 0 0 0 1 0 0 2 3 2 3 3 0 0 0 0 0 0 1 1 0 0 1 0 0 0 0 0 0 0 0 0 0 0 0 0 0 0 1 0 0 0 0 0 0 0 0 0 0 0 0 0 1 0 0 0 1 1 1 0 0 1 2 0 3 0 0 0 1 1 1 0 0 2 1 0 0 0 0 0 0 0 1 0 1 1 0 0 0 0 0 0 2 1 0 0 6 0 1 0 0 0 0 0 0 0 0 0 0 10 0 0 2 0 0 0 0 0 0 0 0 0 0 0 0 1 1 2 1 0 0 0 0 0 0 0 0 0 0 0 5 0 0 0 0 0 0 0 0 0 0 3 0 26 0 0 0 0 0 0 0 0 0 1 0 0 0 0 0 0 0 0 0 0 0 0 0 0 1 0 0 3 0 0 0 0 0 0 0 1 1 0 0 0 0 0 0 0 0 0 0 0 1 0 1 0 3 0 0 1 0 2 0 0 0 0 0 0 0 1 1 0 0 0 0 1 0 3 0 0 0 0 0 0 0 0 0 0 1 2 0 0 0 0 0 2 0 21 0 0 0 0 0 1 2 2 0 0 0 0 0 0 0 0 0 0 
Printing Sanity2
*** Reached end of trace for Core: 0 Repeating trace: traces/spec2k17/srv_13.champsimtrace.xz
Heartbeat CPU 0 instructions: 70000001 cycles: 74132061 heartbeat IPC: 0.340077 cumulative IPC: 0.333044 (Simulation time: 0 hr 4 min 51 sec) 
Heartbeat CPU 0 instructions: 80000003 cycles: 104441324 heartbeat IPC: 0.329932 cumulative IPC: 0.332 (Simulation time: 0 hr 5 min 42 sec) 
Heartbeat CPU 0 instructions: 90000001 cycles: 135251342 heartbeat IPC: 0.32457 cumulative IPC: 0.330111 (Simulation time: 0 hr 6 min 35 sec) 
*** Reached end of trace for Core: 0 Repeating trace: traces/spec2k17/srv_13.champsimtrace.xz
Heartbeat CPU 0 instructions: 100000000 cycles: 164916579 heartbeat IPC: 0.337095 cumulative IPC: 0.331484 (Simulation time: 0 hr 7 min 32 sec) 
Heartbeat CPU 0 instructions: 110000000 cycles: 194901624 heartbeat IPC: 0.3335 cumulative IPC: 0.331819 (Simulation time: 0 hr 8 min 32 sec) 
Heartbeat CPU 0 instructions: 120000000 cycles: 225676183 heartbeat IPC: 0.324944 cumulative IPC: 0.330819 (Simulation time: 0 hr 9 min 30 sec) 
*** Reached end of trace for Core: 0 Repeating trace: traces/spec2k17/srv_13.champsimtrace.xz
Heartbeat CPU 0 instructions: 130000001 cycles: 255274769 heartbeat IPC: 0.337854 cumulative IPC: 0.331682 (Simulation time: 0 hr 10 min 26 sec) 
Heartbeat CPU 0 instructions: 140000002 cycles: 285440796 heartbeat IPC: 0.331499 cumulative IPC: 0.331662 (Simulation time: 0 hr 11 min 19 sec) 
Heartbeat CPU 0 instructions: 150000002 cycles: 315976088 heartbeat IPC: 0.32749 cumulative IPC: 0.33124 (Simulation time: 0 hr 12 min 14 sec) 
*** Reached end of trace for Core: 0 Repeating trace: traces/spec2k17/srv_13.champsimtrace.xz
Heartbeat CPU 0 instructions: 160000002 cycles: 345548622 heartbeat IPC: 0.338152 cumulative IPC: 0.331856 (Simulation time: 0 hr 13 min 10 sec) 
Heartbeat CPU 0 instructions: 170000000 cycles: 375777762 heartbeat IPC: 0.330807 cumulative IPC: 0.331769 (Simulation time: 0 hr 14 min 4 sec) 
Heartbeat CPU 0 instructions: 180000003 cycles: 406411047 heartbeat IPC: 0.326442 cumulative IPC: 0.331353 (Simulation time: 0 hr 14 min 58 sec) 
*** Reached end of trace for Core: 0 Repeating trace: traces/spec2k17/srv_13.champsimtrace.xz
Heartbeat CPU 0 instructions: 190000000 cycles: 436059303 heartbeat IPC: 0.337288 cumulative IPC: 0.33177 (Simulation time: 0 hr 15 min 55 sec) 
Heartbeat CPU 0 instructions: 200000001 cycles: 466194211 heartbeat IPC: 0.331841 cumulative IPC: 0.331775 (Simulation time: 0 hr 16 min 52 sec) 
Heartbeat CPU 0 instructions: 210000001 cycles: 496451023 heartbeat IPC: 0.330504 cumulative IPC: 0.331695 (Simulation time: 0 hr 17 min 47 sec) 
*** Reached end of trace for Core: 0 Repeating trace: traces/spec2k17/srv_13.champsimtrace.xz
Heartbeat CPU 0 instructions: 220000000 cycles: 526365611 heartbeat IPC: 0.334285 cumulative IPC: 0.331846 (Simulation time: 0 hr 18 min 42 sec) 
Heartbeat CPU 0 instructions: 230000001 cycles: 556409562 heartbeat IPC: 0.332846 cumulative IPC: 0.331901 (Simulation time: 0 hr 19 min 40 sec) 
Heartbeat CPU 0 instructions: 240000000 cycles: 586717392 heartbeat IPC: 0.329948 cumulative IPC: 0.331798 (Simulation time: 0 hr 20 min 37 sec) 
*** Reached end of trace for Core: 0 Repeating trace: traces/spec2k17/srv_13.champsimtrace.xz
Heartbeat CPU 0 instructions: 250000000 cycles: 616975373 heartbeat IPC: 0.330491 cumulative IPC: 0.331732 (Simulation time: 0 hr 21 min 33 sec) 
Finished CPU 0 instructions: 200000003 cycles: 602895481 cumulative IPC: 0.331732 (Simulation time: 0 hr 21 min 33 sec) 

ChampSim completed all CPUs

Region of Interest Statistics

CPU 0 cumulative IPC: 0.331732 instructions: 200000003 cycles: 602895481
ITLB TOTAL     ACCESS:   34429603  HIT:   32591478  MISS:    1838125  HIT %:    94.6612  MISS %:    5.33879   MPKI: 9.19062
ITLB LOAD TRANSLATION ACCESS:   34429603  HIT:   32591478  MISS:    1838125  HIT %:    94.6612  MISS %:    5.33879   MPKI: 9.19062
ITLB PREFETCH  REQUESTED:          0  ISSUED:          0  USEFUL:          0  USELESS:          0
ITLB USEFUL LOAD PREFETCHES:          0 PREFETCH ISSUED TO LOWER LEVEL:          0  ACCURACY: -nan
ITLB TIMELY PREFETCHES:          0 LATE PREFETCHES: 0 DROPPED PREFETCHES: 0
ITLB PREFETCHES SAME FILL-ORIGIN LEVEL: 0 DIFFERENT FILL-ORIGIN LEVEL: 0
ITLB AVERAGE MISS LATENCY: 9.04543 cycles
ITLB RQ	ACCESS:   40231499	FORWARD:          0	MERGED:    5358929	TO_CACHE:   34872570

DTLB TOTAL     ACCESS:   45340957  HIT:   43547332  MISS:    1793625  HIT %:    96.0441  MISS %:    3.95586   MPKI: 8.96812
DTLB LOAD TRANSLATION ACCESS:   45340957  HIT:   43547332  MISS:    1793625  HIT %:    96.0441  MISS %:    3.95586   MPKI: 8.96812
DTLB PREFETCH  REQUESTED:          0  ISSUED:          0  USEFUL:          0  USELESS:          0
DTLB USEFUL LOAD PREFETCHES:          0 PREFETCH ISSUED TO LOWER LEVEL:          0  ACCURACY: -nan
DTLB TIMELY PREFETCHES:          0 LATE PREFETCHES: 0 DROPPED PREFETCHES: 0
DTLB PREFETCHES SAME FILL-ORIGIN LEVEL: 0 DIFFERENT FILL-ORIGIN LEVEL: 0
DTLB AVERAGE MISS LATENCY: 9.21271 cycles
DTLB RQ	ACCESS:   59713902	FORWARD:          0	MERGED:   14307046	TO_CACHE:   45406856

STLB TOTAL     ACCESS:    5933537  HIT:    5924062  MISS:       9475  HIT %:    99.8403  MISS %:   0.159686   MPKI: 0.047375
STLB LOAD TRANSLATION ACCESS:    3631750  HIT:    3622550  MISS:       9200  HIT %:    99.7467  MISS %:   0.253321   MPKI: 0.046
STLB TRANSLATION FROM L1D PREFETCHER ACCESS:    2301787  HIT:    2301512  MISS:        275  HIT %:    99.9881  MISS %:  0.0119472   MPKI: 0.001375
STLB PREFETCH  REQUESTED:          0  ISSUED:          0  USEFUL:        253  USELESS:         22
STLB USEFUL LOAD PREFETCHES:        253 PREFETCH ISSUED TO LOWER LEVEL:          0  ACCURACY: inf
STLB TIMELY PREFETCHES:        253 LATE PREFETCHES: 117 DROPPED PREFETCHES: 7969
STLB PREFETCHES SAME FILL-ORIGIN LEVEL: 0 DIFFERENT FILL-ORIGIN LEVEL: 0
STLB AVERAGE MISS LATENCY: 47.9051 cycles
STLB RQ	ACCESS:    6151824	FORWARD:          0	MERGED:     209338	TO_CACHE:    5942486

STLB Hit, L1D data hit: 0
STLB Hit, L2C data hit: 0
STLB Hit, LLC data hit: 0
STLB Hit, LLC data miss: 0
STLB STLB hints to L2: 0
L1D TOTAL     ACCESS:   60036504  HIT:   54503762  MISS:    5532742  HIT %:    90.7844  MISS %:    9.21563   MPKI: 27.6637
L1D LOAD      ACCESS:   33461741  HIT:   30818270  MISS:    2643471  HIT %:       92.1  MISS %:    7.89998   MPKI: 13.2174
L1D RFO       ACCESS:   24438358  HIT:   23345983  MISS:    1092375  HIT %:    95.5301  MISS %:    4.46992   MPKI: 5.46187
L1D PREFETCH  ACCESS:    2136405  HIT:     339509  MISS:    1796896  HIT %:    15.8916  MISS %:    84.1084   MPKI: 8.98448
AGUS PREFETCH L1 MISS: 0
L1D PREFETCH  REQUESTED:    5085712  ISSUED:    5085712  USEFUL:     397732  USELESS:    1399316
L1D USEFUL LOAD PREFETCHES:     397732 PREFETCH ISSUED TO LOWER LEVEL:    2002536  ACCURACY: 19.8614
L1D TIMELY PREFETCHES:     397732 LATE PREFETCHES: 204694 DROPPED PREFETCHES: 9045
L1D PREFETCHES SAME FILL-ORIGIN LEVEL: 2002536 DIFFERENT FILL-ORIGIN LEVEL: 0
L1D AVERAGE MISS LATENCY: 1.15725e+07 cycles
L1D RQ	ACCESS:   46950372	FORWARD:          0	MERGED:   13079553	TO_CACHE:   33576880
L1D WQ	ACCESS:   26311887	FORWARD:     294042	MERGED:     174865	TO_CACHE:   26137022
L1D PQ	ACCESS:    2565638	FORWARD:          0	MERGED:      45461	TO_CACHE:    2520074

L1D UNIQUE REGIONS ACCESSED: 0
L1D REGIONS CONFLICTS: 0
L1D Cross Page Prefetch Requests: 72355
L1D Same Page Prefetch Requests: 3149211
L1D ROI Sum of L1D PQ occupancy: 32903560
L1D PREFETCHES PUSHED FROM L2C: 0
L1I TOTAL     ACCESS:   38818302  HIT:   29177463  MISS:    9640839  HIT %:    75.1642  MISS %:    24.8358   MPKI: 48.2042
L1I LOAD      ACCESS:   38818302  HIT:   29177463  MISS:    9640839  HIT %:    75.1642  MISS %:    24.8358   MPKI: 48.2042
L1I PREFETCH  REQUESTED:          0  ISSUED:          0  USEFUL:          0  USELESS:          0
L1I USEFUL LOAD PREFETCHES:          0 PREFETCH ISSUED TO LOWER LEVEL:          0  ACCURACY: -nan
L1I TIMELY PREFETCHES:          0 LATE PREFETCHES: 0 DROPPED PREFETCHES: 0
L1I PREFETCHES SAME FILL-ORIGIN LEVEL: 0 DIFFERENT FILL-ORIGIN LEVEL: 0
L1I AVERAGE MISS LATENCY: 17.4966 cycles
L1I RQ	ACCESS:   57796792	FORWARD:          0	MERGED:   17565293	TO_CACHE:   40231499

BTB TOTAL     ACCESS:   30281760  HIT:   18910009  MISS:   11371751  HIT %:    62.4469  MISS %:    37.5531   MPKI: 56.8588
BTB BRANCH_DIRECT_JUMP	ACCESS:    2184471  HIT:    1385849  MISS:     798622
BTB BRANCH_INDIRECT	ACCESS:   11367631  HIT:    7108083  MISS:    4259548
BTB BRANCH_CONDITIONAL	ACCESS:    8713184  HIT:    7563917  MISS:    1149267
BTB BRANCH_DIRECT_CALL	ACCESS:    3386061  HIT:    1522950  MISS:    1863111
BTB BRANCH_INDIRECT_CALL	ACCESS:     622186  HIT:     244573  MISS:     377613
BTB BRANCH_RETURN	ACCESS:    4008227  HIT:    1084637  MISS:    2923590
BTB BRANCH_OTHER ACCESS:          0  HIT:          0  MISS:          0

L2C TOTAL     ACCESS:   17154413  HIT:   14880837  MISS:    2273576  HIT %:    86.7464  MISS %:    13.2536   MPKI: 11.3679
L2C LOAD      ACCESS:   12079497  HIT:   10627368  MISS:    1452129  HIT %:    87.9786  MISS %:    12.0214   MPKI: 7.26064
L2C DATA LOAD MPKI: 1.82108
L2C INSTRUCTION LOAD MPKI: 5.43956
L2C RFO       ACCESS:    1091425  HIT:     837794  MISS:     253631  HIT %:    76.7615  MISS %:    23.2385   MPKI: 1.26815
L2C PREFETCH  ACCESS:    2002389  HIT:    1492547  MISS:     509842  HIT %:    74.5383  MISS %:    25.4617   MPKI: 2.54921
AGUS PREFETCH L1 MISS: 0
L2C DATA PREFETCH MPKI: 2.54921
L2C INSTRUCTION PREFETCH MPKI: 0
L2C WRITEBACK ACCESS:    1958096  HIT:    1911431  MISS:      46665  HIT %:    97.6168  MISS %:    2.38318   MPKI: 0.233325
L2C LOAD TRANSLATION ACCESS:       9973  HIT:       2798  MISS:       7175  HIT %:    28.0558  MISS %:    71.9442   MPKI: 0.035875
L2C TRANSLATION FROM L1D PREFETCHER ACCESS:      13033  HIT:       8899  MISS:       4134  HIT %:    68.2805  MISS %:    31.7195   MPKI: 0.02067
L2C PREFETCH  REQUESTED:          0  ISSUED:          0  USEFUL:      29129  USELESS:     485296
L2C USEFUL LOAD PREFETCHES:      29129 PREFETCH ISSUED TO LOWER LEVEL:     509842  ACCURACY: 5.71334
L2C TIMELY PREFETCHES:      29129 LATE PREFETCHES: 0 DROPPED PREFETCHES: 0
L2C PREFETCHES SAME FILL-ORIGIN LEVEL: 0 DIFFERENT FILL-ORIGIN LEVEL: 0
L2C AVERAGE MISS LATENCY: 35.1825 cycles
L2C RQ	ACCESS:   13194053	FORWARD:          0	MERGED:          0	TO_CACHE:   13193930
L2C WQ	ACCESS:    1958096	FORWARD:        270	MERGED:          0	TO_CACHE:    1958096
L2C PQ	ACCESS:    2002536	FORWARD:          0	MERGED:          0	TO_CACHE:    2002389

L2C Instructions Evicting Data 506220
L2C Translations Evicting Data 7654
L2C Data Evicting Data 636926
L2C Instructions Evicting Instructions 577992
L2C Translations Evicting Instructions 3562
L2C Data Evicting Instructions 483394
L2C Instructions Evicting Translations 3701
L2C Translations Evicting Translations 93
L2C Data Evicting Translations 7369
L2C Dense regions hint from L2: 0
PSCL5 TOTAL     ACCESS:      17444  HIT:      17444  MISS:          0  HIT %:        100  MISS %:          0   MPKI: 0
PSCL5 LOAD TRANSLATION ACCESS:       9083  HIT:       9083  MISS:          0  HIT %:        100  MISS %:          0   MPKI: 0
PSCL5 TRANSLATION FROM L1D PREFETCHER ACCESS:       8361  HIT:       8361  MISS:          0  HIT %:        100  MISS %:          0   MPKI: 0
PSCL5 PREFETCH  REQUESTED:          0  ISSUED:          0  USEFUL:          0  USELESS:          0
PSCL5 USEFUL LOAD PREFETCHES:          0 PREFETCH ISSUED TO LOWER LEVEL:          0  ACCURACY: -nan
PSCL5 TIMELY PREFETCHES:          0 LATE PREFETCHES: 0 DROPPED PREFETCHES: 0
PSCL5 PREFETCHES SAME FILL-ORIGIN LEVEL: 0 DIFFERENT FILL-ORIGIN LEVEL: 0

PSCL4 TOTAL     ACCESS:      15231  HIT:      15199  MISS:         32  HIT %:    99.7899  MISS %:   0.210098   MPKI: 0.00016
PSCL4 LOAD TRANSLATION ACCESS:       8539  HIT:       8507  MISS:         32  HIT %:    99.6252  MISS %:   0.374751   MPKI: 0.00016
PSCL4 TRANSLATION FROM L1D PREFETCHER ACCESS:       6692  HIT:       6692  MISS:          0  HIT %:        100  MISS %:          0   MPKI: 0
PSCL4 PREFETCH  REQUESTED:          0  ISSUED:          0  USEFUL:          0  USELESS:          0
PSCL4 USEFUL LOAD PREFETCHES:          0 PREFETCH ISSUED TO LOWER LEVEL:          0  ACCURACY: -nan
PSCL4 TIMELY PREFETCHES:          0 LATE PREFETCHES: 0 DROPPED PREFETCHES: 0
PSCL4 PREFETCHES SAME FILL-ORIGIN LEVEL: 0 DIFFERENT FILL-ORIGIN LEVEL: 0

PSCL3 TOTAL     ACCESS:      16905  HIT:      16873  MISS:         32  HIT %:    99.8107  MISS %:   0.189293   MPKI: 0.00016
PSCL3 LOAD TRANSLATION ACCESS:       8921  HIT:       8889  MISS:         32  HIT %:    99.6413  MISS %:   0.358704   MPKI: 0.00016
PSCL3 TRANSLATION FROM L1D PREFETCHER ACCESS:       7984  HIT:       7984  MISS:          0  HIT %:        100  MISS %:          0   MPKI: 0
PSCL3 PREFETCH  REQUESTED:          0  ISSUED:          0  USEFUL:          0  USELESS:          0
PSCL3 USEFUL LOAD PREFETCHES:          0 PREFETCH ISSUED TO LOWER LEVEL:          0  ACCURACY: -nan
PSCL3 TIMELY PREFETCHES:          0 LATE PREFETCHES: 0 DROPPED PREFETCHES: 0
PSCL3 PREFETCHES SAME FILL-ORIGIN LEVEL: 0 DIFFERENT FILL-ORIGIN LEVEL: 0

PSCL2 TOTAL     ACCESS:      13397  HIT:      12560  MISS:        837  HIT %:    93.7523  MISS %:    6.24767   MPKI: 0.004185
PSCL2 LOAD TRANSLATION ACCESS:       9094  HIT:       8257  MISS:        837  HIT %:    90.7961  MISS %:    9.20387   MPKI: 0.004185
PSCL2 TRANSLATION FROM L1D PREFETCHER ACCESS:       4303  HIT:       4303  MISS:          0  HIT %:        100  MISS %:          0   MPKI: 0
PSCL2 PREFETCH  REQUESTED:          0  ISSUED:          0  USEFUL:          0  USELESS:          0
PSCL2 USEFUL LOAD PREFETCHES:          0 PREFETCH ISSUED TO LOWER LEVEL:          0  ACCURACY: -nan
PSCL2 TIMELY PREFETCHES:          0 LATE PREFETCHES: 0 DROPPED PREFETCHES: 0
PSCL2 PREFETCHES SAME FILL-ORIGIN LEVEL: 0 DIFFERENT FILL-ORIGIN LEVEL: 0

LLC TOTAL     ACCESS:    2586511  HIT:    2501638  MISS:      84873  HIT %:    96.7186  MISS %:    3.28137   MPKI: 0.424365
LLC LOAD      ACCESS:    1452126  HIT:    1431763  MISS:      20363  HIT %:    98.5977  MISS %:    1.40229   MPKI: 0.101815
LLC RFO       ACCESS:     253628  HIT:     218106  MISS:      35522  HIT %:    85.9944  MISS %:    14.0056   MPKI: 0.17761
LLC PREFETCH  ACCESS:     509841  HIT:     481477  MISS:      28364  HIT %:    94.4367  MISS %:     5.5633   MPKI: 0.14182
AGUS PREFETCH L1 MISS: 0
LLC WRITEBACK ACCESS:     359607  HIT:     359249  MISS:        358  HIT %:    99.9004  MISS %:  0.0995531   MPKI: 0.00179
LLC LOAD TRANSLATION ACCESS:       7175  HIT:       6952  MISS:        223  HIT %:     96.892  MISS %:    3.10801   MPKI: 0.001115
LLC TRANSLATION FROM L1D PREFETCHER ACCESS:       4134  HIT:       4091  MISS:         43  HIT %:    98.9598  MISS %:    1.04015   MPKI: 0.000215
LLC PREFETCH  REQUESTED:          0  ISSUED:          0  USEFUL:       3044  USELESS:      26141
LLC USEFUL LOAD PREFETCHES:       3044 PREFETCH ISSUED TO LOWER LEVEL:      28364  ACCURACY: 10.7319
LLC TIMELY PREFETCHES:       3044 LATE PREFETCHES: 0 DROPPED PREFETCHES: 0
LLC PREFETCHES SAME FILL-ORIGIN LEVEL: 0 DIFFERENT FILL-ORIGIN LEVEL: 0
LLC AVERAGE MISS LATENCY: 155.302 cycles
LLC RQ	ACCESS:    1717069	FORWARD:          0	MERGED:          0	TO_CACHE:    1717063
LLC WQ	ACCESS:     359607	FORWARD:          7	MERGED:          0	TO_CACHE:     359607
LLC PQ	ACCESS:     509842	FORWARD:          0	MERGED:          0	TO_CACHE:     509841

LLC Dense regions hint to LLC: 0

RAW hits: 1391993
Loads Generated: 48342365
Loads sent to L1D: 46950372
Stores Generated: 26311868
Stores sent to L1D: 26311887
Major fault: 0 Minor fault: 1910
Allocated PAGES: 1910
CPU 0 L1D 
Prefetch count 2516669 BOP and RL 

DRAM Statistics
 CHANNEL 0
 RQ ROW_BUFFER_HIT:      27594  ROW_BUFFER_MISS:      56862
 DBUS_CONGESTED:         85
 WQ ROW_BUFFER_HIT:       4197  ROW_BUFFER_MISS:      36757  FULL:          0

 AVG_CONGESTED_CYCLE: 5
 All warmup complete: 2
Channel 0 Bank busy for read cycles: 0
Channel 0 Bank busy for write cycles: 0
Channel 0
Rank 0
0banks busy for read cycles: 595663769
0banks busy for write cycles: 11910
1banks busy for read cycles: 2531285
1banks busy for write cycles: 1389432
2banks busy for read cycles: 910167
2banks busy for write cycles: 406881
3banks busy for read cycles: 313079
3banks busy for write cycles: 180735
4banks busy for read cycles: 233999
4banks busy for write cycles: 127765
5banks busy for read cycles: 177454
5banks busy for write cycles: 105642
6banks busy for read cycles: 149859
6banks busy for write cycles: 91553
7banks busy for read cycles: 134037
7banks busy for write cycles: 84719
8banks busy for read cycles: 123043
8banks busy for write cycles: 260153

CPU 0 Branch Prediction Accuracy: 99.8429% MPKI: 0.27698 Average ROB Occupancy at Mispredict: 52.8407
Branch types
NOT_BRANCH: 164736751 82.3684%
BRANCH_DIRECT_JUMP: 2184471 1.09224%
BRANCH_INDIRECT: 11367631 5.68382%
BRANCH_CONDITIONAL: 13694607 6.8473%
BRANCH_DIRECT_CALL: 3386061 1.69303%
BRANCH_INDIRECT_CALL: 622186 0.311093%
BRANCH_RETURN: 4008227 2.00411%
BRANCH_OTHER: 0 0%

DRAM PAGES: 1048576
Allocated PAGES: 1910
