
*** ChampSim Multicore Out-of-Order Simulator ***

Warmup Instructions: 50000000
Simulation Instructions: 200000000
Number of CPUs: 1
LLC sets: 2048
LLC ways: 16
Off-chip DRAM Size: 4096 MB Channels: 1 Width: 64-bit Data Rate: 6400 MT/s
CPU 0 runs traces/spec2k17/srv_63.champsimtrace.xz
.xz
BTB has LRU replacement policy
ITLB has LRU replacement policy
DTLB has LRU replacement policy
STLB has LRU replacement policy
L1I has LRU replacement policy
CPU 0 l1d next line prefetcher
L1D has LRU replacement policy
Initialize SRRIP state for L2C
Initialize DRRIP state for LLC
Offsets elements: 
Potential of Offsets elements: 
rewards of Offsets elements: 
Printing Sanity1
offset list size2415
Heartbeat CPU 0 instructions: 10000000 cycles: 2782498 heartbeat IPC: 3.59389 cumulative IPC: 3.59389 (Simulation time: 0 hr 0 min 34 sec) 
Heartbeat CPU 0 instructions: 20000003 cycles: 5560105 heartbeat IPC: 3.60022 cumulative IPC: 3.59705 (Simulation time: 0 hr 1 min 7 sec) 
Heartbeat CPU 0 instructions: 30000002 cycles: 8338621 heartbeat IPC: 3.59904 cumulative IPC: 3.59772 (Simulation time: 0 hr 1 min 42 sec) 
*** Reached end of trace for Core: 0 Repeating trace: traces/spec2k17/srv_63.champsimtrace.xz
Heartbeat CPU 0 instructions: 40000001 cycles: 11114621 heartbeat IPC: 3.60231 cumulative IPC: 3.59886 (Simulation time: 0 hr 2 min 16 sec) 
Heartbeat CPU 0 instructions: 50000001 cycles: 13891564 heartbeat IPC: 3.60108 cumulative IPC: 3.59931 (Simulation time: 0 hr 2 min 50 sec) 

Warmup complete CPU 0 instructions: 50000001 cycles: 13891564 (Simulation time: 0 hr 2 min 50 sec) 

Heartbeat CPU 0 instructions: 60000000 cycles: 37018311 heartbeat IPC: 0.4324 cumulative IPC: 0.4324 (Simulation time: 0 hr 3 min 42 sec) 
*** Reached end of trace for Core: 0 Repeating trace: traces/spec2k17/srv_63.champsimtrace.xz
Heartbeat CPU 0 instructions: 70000001 cycles: 59443297 heartbeat IPC: 0.445931 cumulative IPC: 0.439061 (Simulation time: 0 hr 4 min 33 sec) 
Heartbeat CPU 0 instructions: 80000001 cycles: 82077202 heartbeat IPC: 0.441815 cumulative IPC: 0.439975 (Simulation time: 0 hr 5 min 27 sec) 
Heartbeat CPU 0 instructions: 90000000 cycles: 104871774 heartbeat IPC: 0.438701 cumulative IPC: 0.439656 (Simulation time: 0 hr 6 min 22 sec) 
*** Reached end of trace for Core: 0 Repeating trace: traces/spec2k17/srv_63.champsimtrace.xz
Heartbeat CPU 0 instructions: 100000002 cycles: 127498147 heartbeat IPC: 0.441962 cumulative IPC: 0.440115 (Simulation time: 0 hr 7 min 17 sec) 
Heartbeat CPU 0 instructions: 110000000 cycles: 149980201 heartbeat IPC: 0.444799 cumulative IPC: 0.440889 (Simulation time: 0 hr 8 min 12 sec) 
Offsets elements: 
Potential of Offsets elements: 
rewards of Offsets elements: 0 0 0 0 15 177 0 0 5 0 2 0 0 0 0 0 5 0 0 0 0 0 0 0 0 0 0 0 0 0 0 0 0 0 0 0 0 8 2 0 128 0 0 0 0 0 2 0 0 0 0 4 0 0 94 0 0 0 0 0 0 0 5 0 0 0 72 0 4 0 0 3 0 0 0 0 25 2 0 0 0 81 83 0 51 0 0 0 1 0 0 0 55 1 1 1 0 0 0 0 0 0 0 0 0 0 0 0 0 0 0 0 0 0 0 0 0 1 0 0 0 2 0 1 0 14 0 0 0 5 0 0 0 0 0 1 0 0 0 0 0 0 0 0 0 0 0 0 0 63 27 2 41 0 11 0 0 0 0 0 12 1 0 0 0 0 0 0 0 0 0 0 0 0 0 0 0 0 0 0 1 0 2 0 0 0 0 0 0 18 0 0 0 0 0 0 0 0 0 0 0 3 0 0 0 0 0 0 0 0 8 0 0 0 0 20 0 0 0 0 2 0 12 0 0 0 0 0 0 0 166 0 1 0 0 0 0 0 0 0 0 0 0 0 0 0 0 0 0 0 0 0 0 0 1 0 0 40 56 0 1 0 0 0 0 0 0 0 0 0 0 0 0 0 0 0 17 0 0 1 0 0 122 0 7 0 0 1 0 0 0 0 9 0 0 0 0 0 0 0 0 0 0 0 0 0 0 0 0 0 29 0 0 0 9 4 47 0 14 0 10 0 2 0 0 4 21 6 0 155 0 0 0 0 0 1 2 2 1 0 2 1 0 0 0 0 0 0 0 0 1 0 0 0 0 0 0 1 0 0 0 0 0 0 0 0 0 0 0 0 0 0 0 0 0 0 0 0 0 0 0 0 0 0 1 0 0 0 1 0 0 0 0 0 0 0 0 0 0 0 0 0 0 0 0 0 0 0 0 0 0 0 0 0 0 5 0 0 0 2 0 0 0 0 0 0 0 0 0 2 0 0 0 0 4 0 0 2 0 0 0 0 0 34 0 2 0 0 0 0 0 0 0 0 0 0 0 0 0 0 0 0 2 0 3 0 0 0 0 14 0 0 1 5 0 0 0 2 0 27 34 0 0 2 1 2 0 0 1 0 0 0 0 0 4 3 0 0 0 0 2 0 2 0 0 0 0 0 0 1 1 0 0 0 0 0 0 0 0 0 0 4 0 0 7 0 0 0 0 0 0 0 0 0 0 0 0 0 0 0 0 0 0 0 0 0 0 0 0 0 0 0 48 0 0 0 0 0 0 0 0 0 0 0 0 1 3 5 0 0 1 0 0 0 0 0 0 0 0 0 3 0 0 0 0 0 0 0 0 0 0 0 0 0 0 0 0 0 0 4 0 0 0 0 0 0 0 0 0 0 0 0 0 0 0 0 0 0 0 0 0 0 0 0 0 0 0 0 0 0 0 0 4 1 1 0 0 0 0 1 0 0 0 0 0 0 0 0 0 0 0 0 0 8 0 1 0 0 0 0 0 0 0 0 0 0 0 0 0 0 1 0 0 44 0 0 10 0 0 0 0 0 0 0 0 0 0 0 0 4 34 0 0 0 0 1 0 1 0 0 0 0 0 0 0 0 0 0 0 0 0 0 0 2 1 0 0 0 0 0 0 0 0 0 4 24 0 0 0 1 0 0 0 0 0 0 0 0 0 0 0 0 8 0 0 0 0 0 0 0 0 0 0 0 0 0 0 0 0 0 0 0 0 0 0 0 0 0 0 0 1 0 0 0 0 0 0 0 0 0 1 0 0 0 0 0 1 26 1 0 0 0 0 3 0 0 22 0 0 0 27 0 0 0 0 0 0 0 4 0 1 0 0 0 0 14 0 30 15 0 0 0 0 0 0 0 0 0 0 0 1 0 0 2 0 3 0 0 0 0 0 0 0 0 0 0 0 0 0 0 20 0 1 0 9 0 0 1 0 0 0 0 0 0 0 0 0 0 2 0 0 0 9 0 0 1 0 0 0 0 0 0 0 0 0 0 0 0 0 0 0 0 4 42 0 0 0 0 0 0 0 0 0 0 0 0 0 0 0 0 0 0 0 0 0 0 4 0 0 0 0 0 0 0 0 2 1 0 0 0 0 0 0 0 0 0 0 1 0 0 0 0 0 0 0 0 0 0 0 0 0 0 0 0 0 0 0 0 2 0 0 0 0 0 0 0 0 0 0 20 0 0 0 0 0 0 0 0 2 0 0 0 0 0 0 0 0 0 0 0 0 0 0 7 0 0 0 0 0 0 2 0 1 0 0 0 0 1 0 0 0 0 0 0 0 0 0 0 6 0 0 0 0 0 0 3 0 1 0 0 0 0 1 0 0 0 0 0 0 0 0 0 0 0 3 0 0 0 0 0 0 0 0 0 0 0 0 0 0 2 1 2 0 0 0 0 0 0 0 0 0 0 0 0 0 0 0 0 0 1 0 0 0 0 0 0 24 0 0 0 0 0 0 0 0 0 0 0 0 0 2 0 0 0 0 0 0 0 64 0 0 0 0 0 0 0 0 0 0 0 0 0 0 0 8 0 0 0 79 0 0 0 0 0 1 0 0 0 0 0 0 0 0 0 0 21 0 2 0 0 0 0 0 16 7 73 0 0 0 0 24 0 0 0 0 0 0 0 0 0 1 0 0 0 0 0 0 0 0 0 4 0 0 0 0 0 0 0 0 0 0 0 0 0 0 0 0 0 0 0 0 0 0 0 5 0 0 0 0 0 0 1 0 0 0 1 4 0 0 0 0 0 0 3 1 0 0 0 0 0 0 0 1 0 0 10 0 0 0 0 0 0 50 0 0 0 0 0 0 0 2 0 0 0 0 0 0 0 0 0 0 0 0 0 0 0 0 0 0 0 0 0 0 1 0 6 0 1 0 0 0 0 0 0 0 3 0 0 1 2 0 1 11 0 0 0 0 3 0 0 0 0 0 0 0 0 0 0 0 0 0 37 0 0 0 33 0 0 0 0 0 0 0 0 0 0 0 0 0 0 5 0 0 0 0 0 0 0 0 0 0 0 0 0 0 0 0 0 0 3 0 0 0 0 0 0 0 0 4 0 0 0 0 0 0 0 0 0 0 0 0 0 0 0 0 0 0 0 0 0 0 0 0 0 0 0 0 0 0 0 0 0 0 0 0 0 5 0 0 0 0 0 0 0 0 0 0 0 0 0 0 0 0 0 0 0 0 0 0 0 3 0 0 0 1 0 2 14 0 0 0 0 0 0 2 0 0 0 0 0 64 0 0 0 0 0 0 0 0 0 0 0 0 0 0 0 0 0 0 0 0 0 0 0 0 0 1 0 0 0 0 0 0 0 0 0 0 0 0 0 0 0 0 0 0 6 0 0 0 0 0 0 0 0 0 0 0 0 0 0 0 0 19 28 0 0 0 0 0 0 1 0 0 0 0 0 0 0 0 0 0 0 0 0 0 0 0 0 1 0 0 0 0 0 0 0 0 0 16 0 2 2 0 0 0 0 0 0 1 0 0 1 0 0 0 0 0 0 0 1 0 0 0 0 0 5 40 3 0 0 0 0 14 0 0 0 0 0 0 0 0 0 0 0 0 1 0 0 0 0 0 0 0 4 3 0 0 0 0 2 78 2 0 51 0 0 0 0 0 0 0 0 0 0 1 0 0 0 0 0 0 0 0 1 0 1 0 0 0 0 1 2 1 0 0 0 0 0 0 0 0 0 0 0 0 0 0 8 0 0 0 4 0 0 0 0 3 0 0 0 2 0 0 0 0 0 0 0 0 0 0 0 0 0 0 0 0 0 0 0 0 0 0 0 0 0 0 0 0 0 0 0 0 0 5 0 0 0 0 0 1 0 0 0 0 0 0 0 0 0 0 0 0 0 0 0 0 9 6 0 2 7 0 41 4 0 0 0 0 0 3 0 0 0 0 2 0 0 0 0 0 0 1 1 0 0 0 0 0 0 0 0 1 0 0 0 0 0 0 0 0 0 0 0 0 0 0 0 1 0 0 0 0 0 0 0 0 0 0 5 0 0 0 0 0 0 0 11 2 0 0 0 0 0 1 0 2 1 0 0 0 0 0 0 0 0 0 0 0 0 0 0 0 0 1 0 0 0 0 0 0 0 0 0 0 0 0 0 0 0 0 0 0 0 0 0 0 0 0 0 0 0 0 0 0 0 1 1 4 1 0 0 0 0 0 0 0 0 0 0 0 0 0 0 0 0 0 0 0 0 0 0 0 0 0 5 10 0 0 0 0 0 0 0 0 0 0 0 0 0 0 0 0 0 0 0 0 0 0 0 0 0 0 7 0 1 0 0 0 0 0 0 5 0 0 0 0 0 0 0 0 0 0 0 0 0 0 0 0 0 0 0 2 1 2 0 1 0 0 0 0 0 0 0 0 0 0 0 0 0 0 0 0 0 0 0 0 0 0 0 0 0 0 0 0 0 41 10 0 0 1 0 0 0 0 0 0 0 0 0 0 0 0 0 0 0 0 0 0 0 0 0 0 0 0 0 0 0 0 0 1 0 0 0 0 7 0 0 0 0 0 0 0 0 0 0 0 0 0 0 0 0 0 0 0 0 0 0 0 0 0 0 0 0 1 0 0 0 0 0 0 0 0 1 0 0 0 2 0 0 0 0 0 0 0 0 0 0 0 0 2 0 0 2 0 0 0 0 0 0 0 0 0 8 0 1 0 0 0 0 1 0 0 0 4 0 0 0 1 0 0 0 0 0 0 0 1 0 0 0 0 0 0 0 0 0 0 0 0 0 0 0 0 0 0 0 0 0 0 0 0 0 0 2 0 0 0 2 0 0 0 0 0 0 0 0 0 0 0 0 0 0 0 0 0 0 0 0 0 0 0 0 0 3 1 0 0 0 0 0 79 1 0 0 0 0 0 0 0 0 0 0 0 0 0 0 0 0 0 0 0 0 0 0 1 0 0 0 0 0 0 0 0 0 0 0 0 0 0 0 0 0 0 0 0 0 0 0 0 0 0 0 0 0 0 0 0 0 0 0 0 0 0 0 0 1 0 0 0 0 0 0 0 0 0 0 0 0 0 0 0 0 0 0 0 0 0 0 0 0 0 0 0 0 0 0 0 0 0 0 0 0 1 0 0 0 2 0 0 0 0 1 0 1 0 0 0 0 0 0 2 1 0 0 1 0 0 0 0 0 0 0 0 0 0 0 0 0 1 0 0 0 1 1 0 0 0 0 0 0 0 0 0 1 0 0 0 0 0 0 0 0 0 2 1 0 0 0 0 2 0 0 0 0 0 0 1 0 0 0 0 0 0 0 0 0 0 0 0 0 0 0 0 0 0 0 0 0 0 0 0 0 0 1 0 0 0 0 0 0 0 0 0 0 0 0 1 0 0 0 0 0 0 0 0 0 0 0 0 0 0 0 0 1 0 0 0 0 0 0 0 33 15 1 0 0 18 4 0 0 0 0 0 0 1 
Printing Sanity2
Heartbeat CPU 0 instructions: 120000000 cycles: 172608067 heartbeat IPC: 0.441933 cumulative IPC: 0.441038 (Simulation time: 0 hr 9 min 6 sec) 
*** Reached end of trace for Core: 0 Repeating trace: traces/spec2k17/srv_63.champsimtrace.xz
Heartbeat CPU 0 instructions: 130000000 cycles: 195417858 heartbeat IPC: 0.438408 cumulative IPC: 0.440708 (Simulation time: 0 hr 10 min 1 sec) 
Heartbeat CPU 0 instructions: 140000003 cycles: 217768316 heartbeat IPC: 0.447418 cumulative IPC: 0.441443 (Simulation time: 0 hr 10 min 53 sec) 
Heartbeat CPU 0 instructions: 150000003 cycles: 239948688 heartbeat IPC: 0.450849 cumulative IPC: 0.442366 (Simulation time: 0 hr 11 min 46 sec) 
*** Reached end of trace for Core: 0 Repeating trace: traces/spec2k17/srv_63.champsimtrace.xz
Heartbeat CPU 0 instructions: 160000000 cycles: 262818440 heartbeat IPC: 0.437259 cumulative IPC: 0.441897 (Simulation time: 0 hr 12 min 40 sec) 
Heartbeat CPU 0 instructions: 170000003 cycles: 285009222 heartbeat IPC: 0.450638 cumulative IPC: 0.442612 (Simulation time: 0 hr 13 min 33 sec) 
Heartbeat CPU 0 instructions: 180000003 cycles: 307150125 heartbeat IPC: 0.451653 cumulative IPC: 0.443295 (Simulation time: 0 hr 14 min 24 sec) 
*** Reached end of trace for Core: 0 Repeating trace: traces/spec2k17/srv_63.champsimtrace.xz
Heartbeat CPU 0 instructions: 190000000 cycles: 329980712 heartbeat IPC: 0.438009 cumulative IPC: 0.442913 (Simulation time: 0 hr 15 min 15 sec) 
Heartbeat CPU 0 instructions: 200000000 cycles: 352207653 heartbeat IPC: 0.449904 cumulative IPC: 0.443372 (Simulation time: 0 hr 16 min 8 sec) 
Heartbeat CPU 0 instructions: 210000002 cycles: 374218163 heartbeat IPC: 0.454329 cumulative IPC: 0.444042 (Simulation time: 0 hr 17 min 2 sec) 
*** Reached end of trace for Core: 0 Repeating trace: traces/spec2k17/srv_63.champsimtrace.xz
Heartbeat CPU 0 instructions: 220000000 cycles: 396945778 heartbeat IPC: 0.439993 cumulative IPC: 0.443801 (Simulation time: 0 hr 17 min 55 sec) 
Heartbeat CPU 0 instructions: 230000001 cycles: 419017008 heartbeat IPC: 0.453079 cumulative IPC: 0.444307 (Simulation time: 0 hr 18 min 49 sec) 
Heartbeat CPU 0 instructions: 240000002 cycles: 441490574 heartbeat IPC: 0.444967 cumulative IPC: 0.444342 (Simulation time: 0 hr 19 min 28 sec) 
*** Reached end of trace for Core: 0 Repeating trace: traces/spec2k17/srv_63.champsimtrace.xz
Heartbeat CPU 0 instructions: 250000000 cycles: 463907997 heartbeat IPC: 0.446082 cumulative IPC: 0.444428 (Simulation time: 0 hr 20 min 0 sec) 
Finished CPU 0 instructions: 200000001 cycles: 450016434 cumulative IPC: 0.444428 (Simulation time: 0 hr 20 min 0 sec) 

ChampSim completed all CPUs

Region of Interest Statistics

CPU 0 cumulative IPC: 0.444428 instructions: 200000001 cycles: 450016434
ITLB TOTAL     ACCESS:   31325575  HIT:   30544997  MISS:     780578  HIT %:    97.5082  MISS %:    2.49182   MPKI: 3.90289
ITLB LOAD TRANSLATION ACCESS:   31325575  HIT:   30544997  MISS:     780578  HIT %:    97.5082  MISS %:    2.49182   MPKI: 3.90289
ITLB PREFETCH  REQUESTED:          0  ISSUED:          0  USEFUL:          0  USELESS:          0
ITLB USEFUL LOAD PREFETCHES:          0 PREFETCH ISSUED TO LOWER LEVEL:          0  ACCURACY: -nan
ITLB TIMELY PREFETCHES:          0 LATE PREFETCHES: 0 DROPPED PREFETCHES: 0
ITLB PREFETCHES SAME FILL-ORIGIN LEVEL: 0 DIFFERENT FILL-ORIGIN LEVEL: 0
ITLB AVERAGE MISS LATENCY: 14.2535 cycles
ITLB RQ	ACCESS:   38369484	FORWARD:          0	MERGED:    6848188	TO_CACHE:   31521296

DTLB TOTAL     ACCESS:   37196374  HIT:   34586354  MISS:    2610020  HIT %:    92.9831  MISS %:    7.01687   MPKI: 13.0501
DTLB LOAD TRANSLATION ACCESS:   37196374  HIT:   34586354  MISS:    2610020  HIT %:    92.9831  MISS %:    7.01687   MPKI: 13.0501
DTLB PREFETCH  REQUESTED:          0  ISSUED:          0  USEFUL:          0  USELESS:          0
DTLB USEFUL LOAD PREFETCHES:          0 PREFETCH ISSUED TO LOWER LEVEL:          0  ACCURACY: -nan
DTLB TIMELY PREFETCHES:          0 LATE PREFETCHES: 0 DROPPED PREFETCHES: 0
DTLB PREFETCHES SAME FILL-ORIGIN LEVEL: 0 DIFFERENT FILL-ORIGIN LEVEL: 0
DTLB AVERAGE MISS LATENCY: 14.1277 cycles
DTLB RQ	ACCESS:   47674105	FORWARD:          0	MERGED:   10327854	TO_CACHE:   37346251

STLB TOTAL     ACCESS:    4842003  HIT:    4484357  MISS:     357646  HIT %:    92.6137  MISS %:    7.38632   MPKI: 1.78823
STLB LOAD TRANSLATION ACCESS:    3390598  HIT:    3038002  MISS:     352596  HIT %:    89.6008  MISS %:    10.3992   MPKI: 1.76298
STLB TRANSLATION FROM L1D PREFETCHER ACCESS:    1451405  HIT:    1446355  MISS:       5050  HIT %:    99.6521  MISS %:   0.347939   MPKI: 0.02525
STLB PREFETCH  REQUESTED:          0  ISSUED:          0  USEFUL:       4341  USELESS:        713
STLB USEFUL LOAD PREFETCHES:       4341 PREFETCH ISSUED TO LOWER LEVEL:          0  ACCURACY: inf
STLB TIMELY PREFETCHES:       4341 LATE PREFETCHES: 62 DROPPED PREFETCHES: 14201
STLB PREFETCHES SAME FILL-ORIGIN LEVEL: 0 DIFFERENT FILL-ORIGIN LEVEL: 0
STLB AVERAGE MISS LATENCY: 49.1715 cycles
STLB RQ	ACCESS:    5002333	FORWARD:          0	MERGED:     145254	TO_CACHE:    4857079

STLB Hit, L1D data hit: 0
STLB Hit, L2C data hit: 0
STLB Hit, LLC data hit: 0
STLB Hit, LLC data miss: 0
STLB STLB hints to L2: 0
L1D TOTAL     ACCESS:   48638786  HIT:   45024341  MISS:    3614445  HIT %:    92.5688  MISS %:     7.4312   MPKI: 18.0722
L1D LOAD      ACCESS:   27601372  HIT:   25599036  MISS:    2002336  HIT %:    92.7455  MISS %:    7.25448   MPKI: 10.0117
L1D RFO       ACCESS:   19581066  HIT:   19249728  MISS:     331338  HIT %:    98.3079  MISS %:    1.69213   MPKI: 1.65669
L1D PREFETCH  ACCESS:    1456348  HIT:     175577  MISS:    1280771  HIT %:     12.056  MISS %:     87.944   MPKI: 6.40385
AGUS PREFETCH L1 MISS: 0
L1D PREFETCH  REQUESTED:    3246393  ISSUED:    3246393  USEFUL:     292449  USELESS:     988577
L1D USEFUL LOAD PREFETCHES:     292449 PREFETCH ISSUED TO LOWER LEVEL:    1300345  ACCURACY: 22.4901
L1D TIMELY PREFETCHES:     292449 LATE PREFETCHES: 18802 DROPPED PREFETCHES: 15827
L1D PREFETCHES SAME FILL-ORIGIN LEVEL: 1300345 DIFFERENT FILL-ORIGIN LEVEL: 0
L1D AVERAGE MISS LATENCY: 1.24672e+06 cycles
L1D RQ	ACCESS:   42174481	FORWARD:          0	MERGED:   14213463	TO_CACHE:   27709460
L1D WQ	ACCESS:   20271818	FORWARD:     251989	MERGED:     307173	TO_CACHE:   19964645
L1D PQ	ACCESS:    1634658	FORWARD:          0	MERGED:      22492	TO_CACHE:    1611735

L1D UNIQUE REGIONS ACCESSED: 0
L1D REGIONS CONFLICTS: 0
L1D Cross Page Prefetch Requests: 74965
L1D Same Page Prefetch Requests: 2079344
L1D ROI Sum of L1D PQ occupancy: 21727969
L1D PREFETCHES PUSHED FROM L2C: 0
L1I TOTAL     ACCESS:   36573309  HIT:   31428793  MISS:    5144516  HIT %:    85.9337  MISS %:    14.0663   MPKI: 25.7226
L1I LOAD      ACCESS:   36573309  HIT:   31428793  MISS:    5144516  HIT %:    85.9337  MISS %:    14.0663   MPKI: 25.7226
L1I PREFETCH  REQUESTED:          0  ISSUED:          0  USEFUL:          0  USELESS:          0
L1I USEFUL LOAD PREFETCHES:          0 PREFETCH ISSUED TO LOWER LEVEL:          0  ACCURACY: -nan
L1I TIMELY PREFETCHES:          0 LATE PREFETCHES: 0 DROPPED PREFETCHES: 0
L1I PREFETCHES SAME FILL-ORIGIN LEVEL: 0 DIFFERENT FILL-ORIGIN LEVEL: 0
L1I AVERAGE MISS LATENCY: 27.1103 cycles
L1I RQ	ACCESS:   57226762	FORWARD:          0	MERGED:   18857278	TO_CACHE:   38369484

BTB TOTAL     ACCESS:   22132994  HIT:   17703037  MISS:    4429957  HIT %:    79.9848  MISS %:    20.0152   MPKI: 22.1498
BTB BRANCH_DIRECT_JUMP	ACCESS:    1771716  HIT:    1521380  MISS:     250336
BTB BRANCH_INDIRECT	ACCESS:    9488973  HIT:    7332684  MISS:    2156289
BTB BRANCH_CONDITIONAL	ACCESS:    4504476  HIT:    4096603  MISS:     407873
BTB BRANCH_DIRECT_CALL	ACCESS:    2499396  HIT:    2015019  MISS:     484377
BTB BRANCH_INDIRECT_CALL	ACCESS:     683762  HIT:     642808  MISS:      40954
BTB BRANCH_RETURN	ACCESS:    3184671  HIT:    2094543  MISS:    1090128
BTB BRANCH_OTHER ACCESS:          0  HIT:          0  MISS:          0

L2C TOTAL     ACCESS:   10316685  HIT:    6278497  MISS:    4038188  HIT %:    60.8577  MISS %:    39.1423   MPKI: 20.1909
L2C LOAD      ACCESS:    7127831  HIT:    4170971  MISS:    2956860  HIT %:    58.5167  MISS %:    41.4833   MPKI: 14.7843
L2C DATA LOAD MPKI: 4.22906
L2C INSTRUCTION LOAD MPKI: 10.5552
L2C RFO       ACCESS:     330559  HIT:     192699  MISS:     137860  HIT %:    58.2949  MISS %:    41.7051   MPKI: 0.6893
L2C PREFETCH  ACCESS:    1300338  HIT:     598511  MISS:     701827  HIT %:    46.0273  MISS %:    53.9727   MPKI: 3.50913
AGUS PREFETCH L1 MISS: 0
L2C DATA PREFETCH MPKI: 3.50913
L2C INSTRUCTION PREFETCH MPKI: 0
L2C WRITEBACK ACCESS:    1069767  HIT:    1029099  MISS:      40668  HIT %:    96.1984  MISS %:    3.80158   MPKI: 0.20334
L2C LOAD TRANSLATION ACCESS:     461429  HIT:     265520  MISS:     195909  HIT %:     57.543  MISS %:     42.457   MPKI: 0.979545
L2C TRANSLATION FROM L1D PREFETCHER ACCESS:      26761  HIT:      21697  MISS:       5064  HIT %:    81.0769  MISS %:    18.9231   MPKI: 0.02532
L2C PREFETCH  REQUESTED:          0  ISSUED:          0  USEFUL:      39130  USELESS:     669177
L2C USEFUL LOAD PREFETCHES:      39130 PREFETCH ISSUED TO LOWER LEVEL:     701827  ACCURACY: 5.57545
L2C TIMELY PREFETCHES:      39130 LATE PREFETCHES: 0 DROPPED PREFETCHES: 0
L2C PREFETCHES SAME FILL-ORIGIN LEVEL: 0 DIFFERENT FILL-ORIGIN LEVEL: 0
L2C AVERAGE MISS LATENCY: 44.7592 cycles
L2C RQ	ACCESS:    7946807	FORWARD:          0	MERGED:          0	TO_CACHE:    7946581
L2C WQ	ACCESS:    1069767	FORWARD:        233	MERGED:          0	TO_CACHE:    1069767
L2C PQ	ACCESS:    1300345	FORWARD:          0	MERGED:          0	TO_CACHE:    1300338

L2C Instructions Evicting Data 905451
L2C Translations Evicting Data 87227
L2C Data Evicting Data 717073
L2C Instructions Evicting Instructions 1103808
L2C Translations Evicting Instructions 102087
L2C Data Evicting Instructions 882941
L2C Instructions Evicting Translations 101788
L2C Translations Evicting Translations 11659
L2C Data Evicting Translations 85486
L2C Dense regions hint from L2: 0
PSCL5 TOTAL     ACCESS:     371847  HIT:     371847  MISS:          0  HIT %:        100  MISS %:          0   MPKI: 0
PSCL5 LOAD TRANSLATION ACCESS:     352534  HIT:     352534  MISS:          0  HIT %:        100  MISS %:          0   MPKI: 0
PSCL5 TRANSLATION FROM L1D PREFETCHER ACCESS:      19313  HIT:      19313  MISS:          0  HIT %:        100  MISS %:          0   MPKI: 0
PSCL5 PREFETCH  REQUESTED:          0  ISSUED:          0  USEFUL:          0  USELESS:          0
PSCL5 USEFUL LOAD PREFETCHES:          0 PREFETCH ISSUED TO LOWER LEVEL:          0  ACCURACY: -nan
PSCL5 TIMELY PREFETCHES:          0 LATE PREFETCHES: 0 DROPPED PREFETCHES: 0
PSCL5 PREFETCHES SAME FILL-ORIGIN LEVEL: 0 DIFFERENT FILL-ORIGIN LEVEL: 0

PSCL4 TOTAL     ACCESS:     350083  HIT:     349650  MISS:        433  HIT %:    99.8763  MISS %:   0.123685   MPKI: 0.002165
PSCL4 LOAD TRANSLATION ACCESS:     332534  HIT:     332101  MISS:        433  HIT %:    99.8698  MISS %:   0.130212   MPKI: 0.002165
PSCL4 TRANSLATION FROM L1D PREFETCHER ACCESS:      17549  HIT:      17549  MISS:          0  HIT %:        100  MISS %:          0   MPKI: 0
PSCL4 PREFETCH  REQUESTED:          0  ISSUED:          0  USEFUL:          0  USELESS:          0
PSCL4 USEFUL LOAD PREFETCHES:          0 PREFETCH ISSUED TO LOWER LEVEL:          0  ACCURACY: -nan
PSCL4 TIMELY PREFETCHES:          0 LATE PREFETCHES: 0 DROPPED PREFETCHES: 0
PSCL4 PREFETCHES SAME FILL-ORIGIN LEVEL: 0 DIFFERENT FILL-ORIGIN LEVEL: 0

PSCL3 TOTAL     ACCESS:     370832  HIT:     369964  MISS:        868  HIT %:    99.7659  MISS %:   0.234068   MPKI: 0.00434
PSCL3 LOAD TRANSLATION ACCESS:     351590  HIT:     350722  MISS:        868  HIT %:    99.7531  MISS %:   0.246878   MPKI: 0.00434
PSCL3 TRANSLATION FROM L1D PREFETCHER ACCESS:      19242  HIT:      19242  MISS:          0  HIT %:        100  MISS %:          0   MPKI: 0
PSCL3 PREFETCH  REQUESTED:          0  ISSUED:          0  USEFUL:          0  USELESS:          0
PSCL3 USEFUL LOAD PREFETCHES:          0 PREFETCH ISSUED TO LOWER LEVEL:          0  ACCURACY: -nan
PSCL3 TIMELY PREFETCHES:          0 LATE PREFETCHES: 0 DROPPED PREFETCHES: 0
PSCL3 PREFETCHES SAME FILL-ORIGIN LEVEL: 0 DIFFERENT FILL-ORIGIN LEVEL: 0

PSCL2 TOTAL     ACCESS:     365558  HIT:     256816  MISS:     108742  HIT %:    70.2531  MISS %:    29.7469   MPKI: 0.54371
PSCL2 LOAD TRANSLATION ACCESS:     353649  HIT:     244907  MISS:     108742  HIT %:    69.2514  MISS %:    30.7486   MPKI: 0.54371
PSCL2 TRANSLATION FROM L1D PREFETCHER ACCESS:      11909  HIT:      11909  MISS:          0  HIT %:        100  MISS %:          0   MPKI: 0
PSCL2 PREFETCH  REQUESTED:          0  ISSUED:          0  USEFUL:          0  USELESS:          0
PSCL2 USEFUL LOAD PREFETCHES:          0 PREFETCH ISSUED TO LOWER LEVEL:          0  ACCURACY: -nan
PSCL2 TIMELY PREFETCHES:          0 LATE PREFETCHES: 0 DROPPED PREFETCHES: 0
PSCL2 PREFETCHES SAME FILL-ORIGIN LEVEL: 0 DIFFERENT FILL-ORIGIN LEVEL: 0

LLC TOTAL     ACCESS:    4441153  HIT:    4032240  MISS:     408913  HIT %:    90.7926  MISS %:    9.20736   MPKI: 2.04456
LLC LOAD      ACCESS:    2956859  HIT:    2764351  MISS:     192508  HIT %:    93.4894  MISS %:    6.51056   MPKI: 0.96254
LLC RFO       ACCESS:     137851  HIT:      94116  MISS:      43735  HIT %:    68.2737  MISS %:    31.7263   MPKI: 0.218675
LLC PREFETCH  ACCESS:     701827  HIT:     549366  MISS:     152461  HIT %:    78.2766  MISS %:    21.7234   MPKI: 0.762305
AGUS PREFETCH L1 MISS: 0
LLC WRITEBACK ACCESS:     443643  HIT:     440301  MISS:       3342  HIT %:    99.2467  MISS %:   0.753308   MPKI: 0.01671
LLC LOAD TRANSLATION ACCESS:     195909  HIT:     179351  MISS:      16558  HIT %:    91.5481  MISS %:    8.45188   MPKI: 0.08279
LLC TRANSLATION FROM L1D PREFETCHER ACCESS:       5064  HIT:       4755  MISS:        309  HIT %:    93.8981  MISS %:     6.1019   MPKI: 0.001545
LLC PREFETCH  REQUESTED:          0  ISSUED:          0  USEFUL:       6818  USELESS:     148896
LLC USEFUL LOAD PREFETCHES:       6818 PREFETCH ISSUED TO LOWER LEVEL:     152461  ACCURACY: 4.47196
LLC TIMELY PREFETCHES:       6818 LATE PREFETCHES: 0 DROPPED PREFETCHES: 0
LLC PREFETCHES SAME FILL-ORIGIN LEVEL: 0 DIFFERENT FILL-ORIGIN LEVEL: 0
LLC AVERAGE MISS LATENCY: 148.733 cycles
LLC RQ	ACCESS:    3295693	FORWARD:          0	MERGED:          0	TO_CACHE:    3295683
LLC WQ	ACCESS:     443643	FORWARD:         10	MERGED:          0	TO_CACHE:     443643
LLC PQ	ACCESS:     701827	FORWARD:          0	MERGED:          0	TO_CACHE:     701827

LLC Dense regions hint to LLC: 0

RAW hits: 2678193
Loads Generated: 44852676
Loads sent to L1D: 42174481
Stores Generated: 20271815
Stores sent to L1D: 20271818
Major fault: 0 Minor fault: 6260
Allocated PAGES: 6260
CPU 0 L1D 
Prefetch count 1717399 BOP and RL 

DRAM Statistics
 CHANNEL 0
 RQ ROW_BUFFER_HIT:      92023  ROW_BUFFER_MISS:     313544
 DBUS_CONGESTED:        244
 WQ ROW_BUFFER_HIT:      32582  ROW_BUFFER_MISS:     188774  FULL:          0

 AVG_CONGESTED_CYCLE: 4
 All warmup complete: 2
Channel 0 Bank busy for read cycles: 0
Channel 0 Bank busy for write cycles: 0
Channel 0
Rank 0
0banks busy for read cycles: 392677255
0banks busy for write cycles: 103270
1banks busy for read cycles: 21717166
1banks busy for write cycles: 12561806
2banks busy for read cycles: 10742118
2banks busy for write cycles: 5222714
3banks busy for read cycles: 1523464
3banks busy for write cycles: 1787718
4banks busy for read cycles: 545461
4banks busy for write cycles: 1040945
5banks busy for read cycles: 147022
5banks busy for write cycles: 667830
6banks busy for read cycles: 69270
6banks busy for write cycles: 475865
7banks busy for read cycles: 34487
7banks busy for write cycles: 360807
8banks busy for read cycles: 36023
8banks busy for write cycles: 303214

CPU 0 Branch Prediction Accuracy: 99.8245% MPKI: 0.314415 Average ROB Occupancy at Mispredict: 40.7639
Branch types
NOT_BRANCH: 164177127 82.0886%
BRANCH_DIRECT_JUMP: 1771716 0.885858%
BRANCH_INDIRECT: 9488973 4.74449%
BRANCH_CONDITIONAL: 18194015 9.09701%
BRANCH_DIRECT_CALL: 2499396 1.2497%
BRANCH_INDIRECT_CALL: 683762 0.341881%
BRANCH_RETURN: 3184671 1.59234%
BRANCH_OTHER: 0 0%

DRAM PAGES: 1048576
Allocated PAGES: 6260
