
*** ChampSim Multicore Out-of-Order Simulator ***

Warmup Instructions: 50000000
Simulation Instructions: 200000000
Number of CPUs: 1
LLC sets: 2048
LLC ways: 16
Off-chip DRAM Size: 4096 MB Channels: 1 Width: 64-bit Data Rate: 6400 MT/s
CPU 0 runs traces/spec2k17/server_014.champsimtrace.xz
.xz
BTB has LRU replacement policy
ITLB has LRU replacement policy
DTLB has LRU replacement policy
STLB has LRU replacement policy
L1I has LRU replacement policy
L1D has LRU replacement policy
CPU 0 L2C best offset prefetcher
Initialize SRRIP state for L2C
Initialize DRRIP state for LLC
Heartbeat CPU 0 instructions: 10000001 cycles: 2682165 heartbeat IPC: 3.72833 cumulative IPC: 3.72833 (Simulation time: 0 hr 0 min 26 sec) 
Heartbeat CPU 0 instructions: 20000000 cycles: 5401699 heartbeat IPC: 3.6771 cumulative IPC: 3.70254 (Simulation time: 0 hr 0 min 53 sec) 
Heartbeat CPU 0 instructions: 30000001 cycles: 8090300 heartbeat IPC: 3.71941 cumulative IPC: 3.70814 (Simulation time: 0 hr 1 min 17 sec) 
Heartbeat CPU 0 instructions: 40000001 cycles: 10779385 heartbeat IPC: 3.71874 cumulative IPC: 3.71079 (Simulation time: 0 hr 1 min 43 sec) 
Heartbeat CPU 0 instructions: 50000000 cycles: 13467519 heartbeat IPC: 3.72005 cumulative IPC: 3.71264 (Simulation time: 0 hr 2 min 10 sec) 

Warmup complete CPU 0 instructions: 50000004 cycles: 13467520 (Simulation time: 0 hr 2 min 10 sec) 

Heartbeat CPU 0 instructions: 60000003 cycles: 28885060 heartbeat IPC: 0.648612 cumulative IPC: 0.648612 (Simulation time: 0 hr 2 min 57 sec) 
Heartbeat CPU 0 instructions: 70000002 cycles: 44230453 heartbeat IPC: 0.651661 cumulative IPC: 0.650133 (Simulation time: 0 hr 3 min 44 sec) 
*** Reached end of trace for Core: 0 Repeating trace: traces/spec2k17/server_014.champsimtrace.xz
Heartbeat CPU 0 instructions: 80000001 cycles: 60143693 heartbeat IPC: 0.628407 cumulative IPC: 0.642726 (Simulation time: 0 hr 4 min 33 sec) 
Heartbeat CPU 0 instructions: 90000003 cycles: 77386656 heartbeat IPC: 0.579947 cumulative IPC: 0.625791 (Simulation time: 0 hr 5 min 21 sec) 
Heartbeat CPU 0 instructions: 100000000 cycles: 92800631 heartbeat IPC: 0.648762 cumulative IPC: 0.630254 (Simulation time: 0 hr 6 min 9 sec) 
Heartbeat CPU 0 instructions: 110000000 cycles: 108407335 heartbeat IPC: 0.64075 cumulative IPC: 0.631979 (Simulation time: 0 hr 6 min 56 sec) 
Heartbeat CPU 0 instructions: 120000000 cycles: 123776758 heartbeat IPC: 0.650643 cumulative IPC: 0.63458 (Simulation time: 0 hr 7 min 43 sec) 
Heartbeat CPU 0 instructions: 130000002 cycles: 139147261 heartbeat IPC: 0.650597 cumulative IPC: 0.636539 (Simulation time: 0 hr 8 min 30 sec) 
Heartbeat CPU 0 instructions: 140000001 cycles: 154515947 heartbeat IPC: 0.650674 cumulative IPC: 0.638079 (Simulation time: 0 hr 9 min 19 sec) 
Heartbeat CPU 0 instructions: 150000000 cycles: 169869855 heartbeat IPC: 0.6513 cumulative IPC: 0.639377 (Simulation time: 0 hr 10 min 8 sec) 
*** Reached end of trace for Core: 0 Repeating trace: traces/spec2k17/server_014.champsimtrace.xz
Heartbeat CPU 0 instructions: 160000000 cycles: 185831072 heartbeat IPC: 0.626519 cumulative IPC: 0.638186 (Simulation time: 0 hr 10 min 54 sec) 
Heartbeat CPU 0 instructions: 170000002 cycles: 202907883 heartbeat IPC: 0.58559 cumulative IPC: 0.633445 (Simulation time: 0 hr 11 min 43 sec) 
Heartbeat CPU 0 instructions: 180000000 cycles: 218308035 heartbeat IPC: 0.649344 cumulative IPC: 0.63464 (Simulation time: 0 hr 12 min 29 sec) 
Heartbeat CPU 0 instructions: 190000001 cycles: 233895128 heartbeat IPC: 0.641557 cumulative IPC: 0.635129 (Simulation time: 0 hr 13 min 19 sec) 
Heartbeat CPU 0 instructions: 200000000 cycles: 249256832 heartbeat IPC: 0.650969 cumulative IPC: 0.636161 (Simulation time: 0 hr 14 min 6 sec) 
Heartbeat CPU 0 instructions: 210000000 cycles: 264622391 heartbeat IPC: 0.650806 cumulative IPC: 0.637057 (Simulation time: 0 hr 14 min 54 sec) 
Heartbeat CPU 0 instructions: 220000000 cycles: 279991759 heartbeat IPC: 0.650645 cumulative IPC: 0.637841 (Simulation time: 0 hr 15 min 45 sec) 
Heartbeat CPU 0 instructions: 230000003 cycles: 295342387 heartbeat IPC: 0.651439 cumulative IPC: 0.638581 (Simulation time: 0 hr 16 min 32 sec) 
*** Reached end of trace for Core: 0 Repeating trace: traces/spec2k17/server_014.champsimtrace.xz
Heartbeat CPU 0 instructions: 240000000 cycles: 311372779 heartbeat IPC: 0.623815 cumulative IPC: 0.637787 (Simulation time: 0 hr 17 min 18 sec) 
Heartbeat CPU 0 instructions: 250000001 cycles: 328117971 heartbeat IPC: 0.597186 cumulative IPC: 0.635626 (Simulation time: 0 hr 18 min 7 sec) 
Finished CPU 0 instructions: 200000000 cycles: 314650452 cumulative IPC: 0.635626 (Simulation time: 0 hr 18 min 7 sec) 

ChampSim completed all CPUs

Region of Interest Statistics

CPU 0 cumulative IPC: 0.635626 instructions: 200000000 cycles: 314650452
ITLB TOTAL     ACCESS:   33933975  HIT:   32343676  MISS:    1590299  HIT %:    95.3135  MISS %:    4.68645   MPKI: 7.9515
ITLB LOAD TRANSLATION ACCESS:   33933975  HIT:   32343676  MISS:    1590299  HIT %:    95.3135  MISS %:    4.68645   MPKI: 7.9515
ITLB PREFETCH  REQUESTED:          0  ISSUED:          0  USEFUL:          0  USELESS:          0
ITLB USEFUL LOAD PREFETCHES:          0 PREFETCH ISSUED TO LOWER LEVEL:          0  ACCURACY: -nan
ITLB TIMELY PREFETCHES:          0 LATE PREFETCHES: 0 DROPPED PREFETCHES: 0
ITLB PREFETCHES SAME FILL-ORIGIN LEVEL: 0 DIFFERENT FILL-ORIGIN LEVEL: 0
ITLB AVERAGE MISS LATENCY: 9.04363 cycles
ITLB RQ	ACCESS:   39383835	FORWARD:          0	MERGED:    4929703	TO_CACHE:   34454132

DTLB TOTAL     ACCESS:   39446345  HIT:   38768384  MISS:     677961  HIT %:    98.2813  MISS %:    1.71869   MPKI: 3.3898
DTLB LOAD TRANSLATION ACCESS:   39446345  HIT:   38768384  MISS:     677961  HIT %:    98.2813  MISS %:    1.71869   MPKI: 3.3898
DTLB PREFETCH  REQUESTED:          0  ISSUED:          0  USEFUL:          0  USELESS:          0
DTLB USEFUL LOAD PREFETCHES:          0 PREFETCH ISSUED TO LOWER LEVEL:          0  ACCURACY: -nan
DTLB TIMELY PREFETCHES:          0 LATE PREFETCHES: 0 DROPPED PREFETCHES: 0
DTLB PREFETCHES SAME FILL-ORIGIN LEVEL: 0 DIFFERENT FILL-ORIGIN LEVEL: 0
DTLB AVERAGE MISS LATENCY: 9.50144 cycles
DTLB RQ	ACCESS:   59049558	FORWARD:          0	MERGED:   19561944	TO_CACHE:   39487614

STLB TOTAL     ACCESS:    2268260  HIT:    2264746  MISS:       3514  HIT %:    99.8451  MISS %:   0.154921   MPKI: 0.01757
STLB LOAD TRANSLATION ACCESS:    2268260  HIT:    2264746  MISS:       3514  HIT %:    99.8451  MISS %:   0.154921   MPKI: 0.01757
STLB PREFETCH  REQUESTED:          0  ISSUED:          0  USEFUL:          0  USELESS:          0
STLB USEFUL LOAD PREFETCHES:          0 PREFETCH ISSUED TO LOWER LEVEL:          0  ACCURACY: -nan
STLB TIMELY PREFETCHES:          0 LATE PREFETCHES: 0 DROPPED PREFETCHES: 0
STLB PREFETCHES SAME FILL-ORIGIN LEVEL: 0 DIFFERENT FILL-ORIGIN LEVEL: 0
STLB AVERAGE MISS LATENCY: 116.001 cycles
STLB RQ	ACCESS:    2268260	FORWARD:          0	MERGED:          0	TO_CACHE:    2268260

STLB Hit, L1D data hit: 0
STLB Hit, L2C data hit: 0
STLB Hit, LLC data hit: 0
STLB Hit, LLC data miss: 0
STLB STLB hints to L2: 0
L1D TOTAL     ACCESS:   58883052  HIT:   58701441  MISS:     181611  HIT %:    99.6916  MISS %:   0.308427   MPKI: 0.908055
L1D LOAD      ACCESS:   26943563  HIT:   26858627  MISS:      84936  HIT %:    99.6848  MISS %:   0.315237   MPKI: 0.42468
L1D RFO       ACCESS:   31939489  HIT:   31842814  MISS:      96675  HIT %:    99.6973  MISS %:   0.302682   MPKI: 0.483375
L1D PREFETCH  REQUESTED:          0  ISSUED:          0  USEFUL:          0  USELESS:          0
L1D USEFUL LOAD PREFETCHES:          0 PREFETCH ISSUED TO LOWER LEVEL:          0  ACCURACY: -nan
L1D TIMELY PREFETCHES:          0 LATE PREFETCHES: 0 DROPPED PREFETCHES: 0
L1D PREFETCHES SAME FILL-ORIGIN LEVEL: 0 DIFFERENT FILL-ORIGIN LEVEL: 0
L1D AVERAGE MISS LATENCY: 191.894 cycles
L1D RQ	ACCESS:   44731001	FORWARD:          0	MERGED:   17404497	TO_CACHE:   26948518
L1D WQ	ACCESS:   32528945	FORWARD:     377986	MERGED:     427905	TO_CACHE:   32101040

L1D UNIQUE REGIONS ACCESSED: 0
L1D REGIONS CONFLICTS: 0
L1D Cross Page Prefetch Requests: 0
L1D Same Page Prefetch Requests: 0
L1D ROI Sum of L1D PQ occupancy: 0
L1D PREFETCHES PUSHED FROM L2C: 0
L1I TOTAL     ACCESS:   38023076  HIT:   32320761  MISS:    5702315  HIT %:     85.003  MISS %:     14.997   MPKI: 28.5116
L1I LOAD      ACCESS:   38023076  HIT:   32320761  MISS:    5702315  HIT %:     85.003  MISS %:     14.997   MPKI: 28.5116
L1I PREFETCH  REQUESTED:          0  ISSUED:          0  USEFUL:          0  USELESS:          0
L1I USEFUL LOAD PREFETCHES:          0 PREFETCH ISSUED TO LOWER LEVEL:          0  ACCURACY: -nan
L1I TIMELY PREFETCHES:          0 LATE PREFETCHES: 0 DROPPED PREFETCHES: 0
L1I PREFETCHES SAME FILL-ORIGIN LEVEL: 0 DIFFERENT FILL-ORIGIN LEVEL: 0
L1I AVERAGE MISS LATENCY: 14.6099 cycles
L1I RQ	ACCESS:   60211622	FORWARD:          0	MERGED:   20827787	TO_CACHE:   39383835

BTB TOTAL     ACCESS:   28030751  HIT:   25492705  MISS:    2538046  HIT %:    90.9455  MISS %:    9.05451   MPKI: 12.6902
BTB BRANCH_DIRECT_JUMP	ACCESS:    1660185  HIT:    1656204  MISS:       3981
BTB BRANCH_INDIRECT	ACCESS:   12451124  HIT:   11582007  MISS:     869117
BTB BRANCH_CONDITIONAL	ACCESS:    4291215  HIT:    4285628  MISS:       5587
BTB BRANCH_DIRECT_CALL	ACCESS:    4358215  HIT:    4347520  MISS:      10695
BTB BRANCH_INDIRECT_CALL	ACCESS:     455923  HIT:     405462  MISS:      50461
BTB BRANCH_RETURN	ACCESS:    4814089  HIT:    3215884  MISS:    1598205
BTB BRANCH_OTHER ACCESS:          0  HIT:          0  MISS:          0

L2C TOTAL     ACCESS:    6054832  HIT:    5835496  MISS:     219336  HIT %:    96.3775  MISS %:     3.6225   MPKI: 1.09668
L2C LOAD      ACCESS:    5787250  HIT:    5710722  MISS:      76528  HIT %:    98.6776  MISS %:    1.32236   MPKI: 0.38264
L2C DATA LOAD MPKI: 0.210265
L2C INSTRUCTION LOAD MPKI: 0.172375
L2C RFO       ACCESS:      96675  HIT:       3549  MISS:      93126  HIT %:    3.67106  MISS %:    96.3289   MPKI: 0.46563
L2C PREFETCH  ACCESS:      54610  HIT:      10423  MISS:      44187  HIT %:    19.0862  MISS %:    80.9138   MPKI: 0.220935
AGUS PREFETCH L1 MISS: 0
L2C DATA PREFETCH MPKI: 0.220935
L2C INSTRUCTION PREFETCH MPKI: 0
L2C WRITEBACK ACCESS:     112337  HIT:     108767  MISS:       3570  HIT %:    96.8221  MISS %:    3.17794   MPKI: 0.01785
L2C LOAD TRANSLATION ACCESS:       3960  HIT:       2035  MISS:       1925  HIT %:    51.3889  MISS %:    48.6111   MPKI: 0.009625
L2C PREFETCH  REQUESTED:      68478  ISSUED:      68478  USEFUL:      26819  USELESS:      18311
L2C USEFUL LOAD PREFETCHES:      26819 PREFETCH ISSUED TO LOWER LEVEL:      57879  ACCURACY: 46.3363
L2C TIMELY PREFETCHES:      26819 LATE PREFETCHES: 13692 DROPPED PREFETCHES: 0
L2C PREFETCHES SAME FILL-ORIGIN LEVEL: 57879 DIFFERENT FILL-ORIGIN LEVEL: 0
L2C AVERAGE MISS LATENCY: 211.23 cycles
L2C RQ	ACCESS:    5887885	FORWARD:          0	MERGED:          0	TO_CACHE:    5887885
L2C WQ	ACCESS:     112337	FORWARD:          0	MERGED:          0	TO_CACHE:     112337
L2C PQ	ACCESS:      68478	FORWARD:          0	MERGED:          8	TO_CACHE:      68470

L2C Instructions Evicting Data 29149
L2C Translations Evicting Data 1640
L2C Data Evicting Data 149501
L2C Instructions Evicting Instructions 4991
L2C Translations Evicting Instructions 257
L2C Data Evicting Instructions 28225
L2C Instructions Evicting Translations 335
L2C Translations Evicting Translations 28
L2C Data Evicting Translations 1640
L2C Dense regions hint from L2: 0
PSCL5 TOTAL     ACCESS:       3514  HIT:       3514  MISS:          0  HIT %:        100  MISS %:          0   MPKI: 0
PSCL5 LOAD TRANSLATION ACCESS:       3514  HIT:       3514  MISS:          0  HIT %:        100  MISS %:          0   MPKI: 0
PSCL5 PREFETCH  REQUESTED:          0  ISSUED:          0  USEFUL:          0  USELESS:          0
PSCL5 USEFUL LOAD PREFETCHES:          0 PREFETCH ISSUED TO LOWER LEVEL:          0  ACCURACY: -nan
PSCL5 TIMELY PREFETCHES:          0 LATE PREFETCHES: 0 DROPPED PREFETCHES: 0
PSCL5 PREFETCHES SAME FILL-ORIGIN LEVEL: 0 DIFFERENT FILL-ORIGIN LEVEL: 0

PSCL4 TOTAL     ACCESS:       2064  HIT:       2049  MISS:         15  HIT %:    99.2733  MISS %:   0.726744   MPKI: 7.5e-05
PSCL4 LOAD TRANSLATION ACCESS:       2064  HIT:       2049  MISS:         15  HIT %:    99.2733  MISS %:   0.726744   MPKI: 7.5e-05
PSCL4 PREFETCH  REQUESTED:          0  ISSUED:          0  USEFUL:          0  USELESS:          0
PSCL4 USEFUL LOAD PREFETCHES:          0 PREFETCH ISSUED TO LOWER LEVEL:          0  ACCURACY: -nan
PSCL4 TIMELY PREFETCHES:          0 LATE PREFETCHES: 0 DROPPED PREFETCHES: 0
PSCL4 PREFETCHES SAME FILL-ORIGIN LEVEL: 0 DIFFERENT FILL-ORIGIN LEVEL: 0

PSCL3 TOTAL     ACCESS:       3172  HIT:       3157  MISS:         15  HIT %:    99.5271  MISS %:   0.472888   MPKI: 7.5e-05
PSCL3 LOAD TRANSLATION ACCESS:       3172  HIT:       3157  MISS:         15  HIT %:    99.5271  MISS %:   0.472888   MPKI: 7.5e-05
PSCL3 PREFETCH  REQUESTED:          0  ISSUED:          0  USEFUL:          0  USELESS:          0
PSCL3 USEFUL LOAD PREFETCHES:          0 PREFETCH ISSUED TO LOWER LEVEL:          0  ACCURACY: -nan
PSCL3 TIMELY PREFETCHES:          0 LATE PREFETCHES: 0 DROPPED PREFETCHES: 0
PSCL3 PREFETCHES SAME FILL-ORIGIN LEVEL: 0 DIFFERENT FILL-ORIGIN LEVEL: 0

PSCL2 TOTAL     ACCESS:       3514  HIT:       3098  MISS:        416  HIT %:    88.1616  MISS %:    11.8384   MPKI: 0.00208
PSCL2 LOAD TRANSLATION ACCESS:       3514  HIT:       3098  MISS:        416  HIT %:    88.1616  MISS %:    11.8384   MPKI: 0.00208
PSCL2 PREFETCH  REQUESTED:          0  ISSUED:          0  USEFUL:          0  USELESS:          0
PSCL2 USEFUL LOAD PREFETCHES:          0 PREFETCH ISSUED TO LOWER LEVEL:          0  ACCURACY: -nan
PSCL2 TIMELY PREFETCHES:          0 LATE PREFETCHES: 0 DROPPED PREFETCHES: 0
PSCL2 PREFETCHES SAME FILL-ORIGIN LEVEL: 0 DIFFERENT FILL-ORIGIN LEVEL: 0

LLC TOTAL     ACCESS:     317528  HIT:     161590  MISS:     155938  HIT %:      50.89  MISS %:      49.11   MPKI: 0.77969
LLC LOAD      ACCESS:      62836  HIT:      31213  MISS:      31623  HIT %:    49.6738  MISS %:    50.3262   MPKI: 0.158115
LLC RFO       ACCESS:      93126  HIT:      25565  MISS:      67561  HIT %:    27.4521  MISS %:    72.5479   MPKI: 0.337805
LLC PREFETCH  ACCESS:      57879  HIT:      12689  MISS:      45190  HIT %:    21.9233  MISS %:    78.0767   MPKI: 0.22595
AGUS PREFETCH L1 MISS: 0
LLC WRITEBACK ACCESS:     101762  HIT:      91349  MISS:      10413  HIT %:    89.7673  MISS %:    10.2327   MPKI: 0.052065
LLC LOAD TRANSLATION ACCESS:       1925  HIT:        774  MISS:       1151  HIT %:    40.2078  MISS %:    59.7922   MPKI: 0.005755
LLC PREFETCH  REQUESTED:          0  ISSUED:          0  USEFUL:       3747  USELESS:      45408
LLC USEFUL LOAD PREFETCHES:       3747 PREFETCH ISSUED TO LOWER LEVEL:      45190  ACCURACY: 8.29166
LLC TIMELY PREFETCHES:       3747 LATE PREFETCHES: 0 DROPPED PREFETCHES: 0
LLC PREFETCHES SAME FILL-ORIGIN LEVEL: 0 DIFFERENT FILL-ORIGIN LEVEL: 0
LLC AVERAGE MISS LATENCY: 277.095 cycles
LLC RQ	ACCESS:     157887	FORWARD:          0	MERGED:          0	TO_CACHE:     157887
LLC WQ	ACCESS:     101762	FORWARD:          0	MERGED:          0	TO_CACHE:     101762
LLC PQ	ACCESS:      57879	FORWARD:          0	MERGED:          0	TO_CACHE:      57879

LLC Dense regions hint to LLC: 0

RAW hits: 3284394
Loads Generated: 48015396
Loads sent to L1D: 44731001
Stores Generated: 32528949
Stores sent to L1D: 32528945
Major fault: 0 Minor fault: 2022
Allocated PAGES: 2022
CPU 0 L2C best offset prefetcher final stats

DRAM Statistics
 CHANNEL 0
 RQ ROW_BUFFER_HIT:      72015  ROW_BUFFER_MISS:      73508
 DBUS_CONGESTED:         41
 WQ ROW_BUFFER_HIT:      17615  ROW_BUFFER_MISS:      53362  FULL:          0

 AVG_CONGESTED_CYCLE: 4
 All warmup complete: 2
Channel 0 Bank busy for read cycles: 0
Channel 0 Bank busy for write cycles: 0
Channel 0
Rank 0
0banks busy for read cycles: 305549580
0banks busy for write cycles: 7142
1banks busy for read cycles: 2756414
1banks busy for write cycles: 1071128
2banks busy for read cycles: 1160111
2banks busy for write cycles: 635071
3banks busy for read cycles: 283331
3banks busy for write cycles: 365105
4banks busy for read cycles: 140404
4banks busy for write cycles: 244972
5banks busy for read cycles: 105701
5banks busy for write cycles: 149495
6banks busy for read cycles: 128954
6banks busy for write cycles: 123409
7banks busy for read cycles: 225252
7banks busy for write cycles: 186655
8banks busy for read cycles: 719679
8banks busy for write cycles: 798050

CPU 0 Branch Prediction Accuracy: 99.8714% MPKI: 0.20299 Average ROB Occupancy at Mispredict: 16.1427
Branch types
NOT_BRANCH: 168420567 84.2103%
BRANCH_DIRECT_JUMP: 1660185 0.830093%
BRANCH_INDIRECT: 12451124 6.22556%
BRANCH_CONDITIONAL: 7839905 3.91995%
BRANCH_DIRECT_CALL: 4358215 2.17911%
BRANCH_INDIRECT_CALL: 455923 0.227962%
BRANCH_RETURN: 4814089 2.40704%
BRANCH_OTHER: 0 0%

DRAM PAGES: 1048576
Allocated PAGES: 2022
