
*** ChampSim Multicore Out-of-Order Simulator ***

Warmup Instructions: 50000000
Simulation Instructions: 200000000
Number of CPUs: 1
LLC sets: 2048
LLC ways: 16
Off-chip DRAM Size: 4096 MB Channels: 1 Width: 64-bit Data Rate: 6400 MT/s
CPU 0 runs traces/spec2k17/srv_28.champsimtrace.xz
.xz
BTB has LRU replacement policy
ITLB has LRU replacement policy
DTLB has LRU replacement policy
STLB has LRU replacement policy
L1I has LRU replacement policy
L1D has LRU replacement policy
CPU 0 L2C best offset prefetcher
Initialize SRRIP state for L2C
Initialize DRRIP state for LLC
Heartbeat CPU 0 instructions: 10000001 cycles: 2807766 heartbeat IPC: 3.56155 cumulative IPC: 3.56155 (Simulation time: 0 hr 0 min 40 sec) 
Heartbeat CPU 0 instructions: 20000003 cycles: 5613176 heartbeat IPC: 3.56454 cumulative IPC: 3.56305 (Simulation time: 0 hr 1 min 21 sec) 
Heartbeat CPU 0 instructions: 30000003 cycles: 8419056 heartbeat IPC: 3.56394 cumulative IPC: 3.56335 (Simulation time: 0 hr 2 min 1 sec) 
*** Reached end of trace for Core: 0 Repeating trace: traces/spec2k17/srv_28.champsimtrace.xz
Heartbeat CPU 0 instructions: 40000003 cycles: 11221560 heartbeat IPC: 3.56824 cumulative IPC: 3.56457 (Simulation time: 0 hr 2 min 40 sec) 
Heartbeat CPU 0 instructions: 50000002 cycles: 14025731 heartbeat IPC: 3.56612 cumulative IPC: 3.56488 (Simulation time: 0 hr 3 min 18 sec) 

Warmup complete CPU 0 instructions: 50000002 cycles: 14025731 (Simulation time: 0 hr 3 min 18 sec) 

Heartbeat CPU 0 instructions: 60000000 cycles: 27944426 heartbeat IPC: 0.718458 cumulative IPC: 0.718458 (Simulation time: 0 hr 4 min 7 sec) 
*** Reached end of trace for Core: 0 Repeating trace: traces/spec2k17/srv_28.champsimtrace.xz
Heartbeat CPU 0 instructions: 70000003 cycles: 41994456 heartbeat IPC: 0.711742 cumulative IPC: 0.715084 (Simulation time: 0 hr 4 min 56 sec) 
Heartbeat CPU 0 instructions: 80000000 cycles: 55981388 heartbeat IPC: 0.714953 cumulative IPC: 0.715041 (Simulation time: 0 hr 5 min 42 sec) 
Heartbeat CPU 0 instructions: 90000001 cycles: 69807446 heartbeat IPC: 0.723272 cumulative IPC: 0.717081 (Simulation time: 0 hr 6 min 31 sec) 
*** Reached end of trace for Core: 0 Repeating trace: traces/spec2k17/srv_28.champsimtrace.xz
Heartbeat CPU 0 instructions: 100000000 cycles: 83897094 heartbeat IPC: 0.709741 cumulative IPC: 0.715601 (Simulation time: 0 hr 7 min 23 sec) 
Heartbeat CPU 0 instructions: 110000000 cycles: 97635429 heartbeat IPC: 0.72789 cumulative IPC: 0.71762 (Simulation time: 0 hr 8 min 12 sec) 
Heartbeat CPU 0 instructions: 120000001 cycles: 111678275 heartbeat IPC: 0.712106 cumulative IPC: 0.716827 (Simulation time: 0 hr 8 min 58 sec) 
*** Reached end of trace for Core: 0 Repeating trace: traces/spec2k17/srv_28.champsimtrace.xz
Heartbeat CPU 0 instructions: 130000000 cycles: 125606959 heartbeat IPC: 0.717943 cumulative IPC: 0.716966 (Simulation time: 0 hr 9 min 48 sec) 
Heartbeat CPU 0 instructions: 140000001 cycles: 139326857 heartbeat IPC: 0.728868 cumulative IPC: 0.71827 (Simulation time: 0 hr 10 min 36 sec) 
Heartbeat CPU 0 instructions: 150000001 cycles: 153505080 heartbeat IPC: 0.705307 cumulative IPC: 0.716952 (Simulation time: 0 hr 11 min 25 sec) 
*** Reached end of trace for Core: 0 Repeating trace: traces/spec2k17/srv_28.champsimtrace.xz
Heartbeat CPU 0 instructions: 160000000 cycles: 167480183 heartbeat IPC: 0.715558 cumulative IPC: 0.716825 (Simulation time: 0 hr 12 min 10 sec) 
Heartbeat CPU 0 instructions: 170000003 cycles: 181181511 heartbeat IPC: 0.729856 cumulative IPC: 0.717893 (Simulation time: 0 hr 12 min 57 sec) 
Heartbeat CPU 0 instructions: 180000001 cycles: 195334670 heartbeat IPC: 0.706556 cumulative IPC: 0.717008 (Simulation time: 0 hr 13 min 46 sec) 
Heartbeat CPU 0 instructions: 190000001 cycles: 209084991 heartbeat IPC: 0.727256 cumulative IPC: 0.717731 (Simulation time: 0 hr 14 min 37 sec) 
*** Reached end of trace for Core: 0 Repeating trace: traces/spec2k17/srv_28.champsimtrace.xz
Heartbeat CPU 0 instructions: 200000000 cycles: 222997057 heartbeat IPC: 0.7188 cumulative IPC: 0.717802 (Simulation time: 0 hr 15 min 27 sec) 
Heartbeat CPU 0 instructions: 210000001 cycles: 237006753 heartbeat IPC: 0.713791 cumulative IPC: 0.71755 (Simulation time: 0 hr 16 min 14 sec) 
Heartbeat CPU 0 instructions: 220000000 cycles: 250813719 heartbeat IPC: 0.724272 cumulative IPC: 0.717942 (Simulation time: 0 hr 17 min 5 sec) 
*** Reached end of trace for Core: 0 Repeating trace: traces/spec2k17/srv_28.champsimtrace.xz
Heartbeat CPU 0 instructions: 230000001 cycles: 264695231 heartbeat IPC: 0.720383 cumulative IPC: 0.718077 (Simulation time: 0 hr 17 min 53 sec) 
Heartbeat CPU 0 instructions: 240000003 cycles: 278424339 heartbeat IPC: 0.72838 cumulative IPC: 0.718612 (Simulation time: 0 hr 18 min 39 sec) 
Heartbeat CPU 0 instructions: 250000001 cycles: 291888835 heartbeat IPC: 0.742694 cumulative IPC: 0.719779 (Simulation time: 0 hr 19 min 29 sec) 
Finished CPU 0 instructions: 200000001 cycles: 277863105 cumulative IPC: 0.719779 (Simulation time: 0 hr 19 min 29 sec) 

ChampSim completed all CPUs

Region of Interest Statistics

CPU 0 cumulative IPC: 0.719779 instructions: 200000001 cycles: 277863105
ITLB TOTAL     ACCESS:   32444339  HIT:   32338406  MISS:     105933  HIT %:    99.6735  MISS %:   0.326507   MPKI: 0.529665
ITLB LOAD TRANSLATION ACCESS:   32444339  HIT:   32338406  MISS:     105933  HIT %:    99.6735  MISS %:   0.326507   MPKI: 0.529665
ITLB PREFETCH  REQUESTED:          0  ISSUED:          0  USEFUL:          0  USELESS:          0
ITLB USEFUL LOAD PREFETCHES:          0 PREFETCH ISSUED TO LOWER LEVEL:          0  ACCURACY: -nan
ITLB TIMELY PREFETCHES:          0 LATE PREFETCHES: 0 DROPPED PREFETCHES: 0
ITLB PREFETCHES SAME FILL-ORIGIN LEVEL: 0 DIFFERENT FILL-ORIGIN LEVEL: 0
ITLB AVERAGE MISS LATENCY: 10.8438 cycles
ITLB RQ	ACCESS:   38244166	FORWARD:          0	MERGED:    5765368	TO_CACHE:   32478798

DTLB TOTAL     ACCESS:   40715598  HIT:   38917031  MISS:    1798567  HIT %:    95.5826  MISS %:    4.41739   MPKI: 8.99283
DTLB LOAD TRANSLATION ACCESS:   40715598  HIT:   38917031  MISS:    1798567  HIT %:    95.5826  MISS %:    4.41739   MPKI: 8.99283
DTLB PREFETCH  REQUESTED:          0  ISSUED:          0  USEFUL:          0  USELESS:          0
DTLB USEFUL LOAD PREFETCHES:          0 PREFETCH ISSUED TO LOWER LEVEL:          0  ACCURACY: -nan
DTLB TIMELY PREFETCHES:          0 LATE PREFETCHES: 0 DROPPED PREFETCHES: 0
DTLB PREFETCHES SAME FILL-ORIGIN LEVEL: 0 DIFFERENT FILL-ORIGIN LEVEL: 0
DTLB AVERAGE MISS LATENCY: 10.9607 cycles
DTLB RQ	ACCESS:   54722809	FORWARD:          0	MERGED:   13805739	TO_CACHE:   40917070

STLB TOTAL     ACCESS:    1904500  HIT:    1817406  MISS:      87094  HIT %:    95.4269  MISS %:    4.57306   MPKI: 0.43547
STLB LOAD TRANSLATION ACCESS:    1904500  HIT:    1817406  MISS:      87094  HIT %:    95.4269  MISS %:    4.57306   MPKI: 0.43547
STLB PREFETCH  REQUESTED:          0  ISSUED:          0  USEFUL:          0  USELESS:          0
STLB USEFUL LOAD PREFETCHES:          0 PREFETCH ISSUED TO LOWER LEVEL:          0  ACCURACY: -nan
STLB TIMELY PREFETCHES:          0 LATE PREFETCHES: 0 DROPPED PREFETCHES: 0
STLB PREFETCHES SAME FILL-ORIGIN LEVEL: 0 DIFFERENT FILL-ORIGIN LEVEL: 0
STLB AVERAGE MISS LATENCY: 42.6788 cycles
STLB RQ	ACCESS:    1904500	FORWARD:          0	MERGED:          0	TO_CACHE:    1904500

STLB Hit, L1D data hit: 0
STLB Hit, L2C data hit: 0
STLB Hit, LLC data hit: 0
STLB Hit, LLC data miss: 0
STLB STLB hints to L2: 0
L1D TOTAL     ACCESS:   54040322  HIT:   53526691  MISS:     513631  HIT %:    99.0495  MISS %:   0.950459   MPKI: 2.56815
L1D LOAD      ACCESS:   30655291  HIT:   30275661  MISS:     379630  HIT %:    98.7616  MISS %:    1.23838   MPKI: 1.89815
L1D RFO       ACCESS:   23385031  HIT:   23251030  MISS:     134001  HIT %:     99.427  MISS %:    0.57302   MPKI: 0.670005
L1D PREFETCH  REQUESTED:          0  ISSUED:          0  USEFUL:          0  USELESS:          0
L1D USEFUL LOAD PREFETCHES:          0 PREFETCH ISSUED TO LOWER LEVEL:          0  ACCURACY: -nan
L1D TIMELY PREFETCHES:          0 LATE PREFETCHES: 0 DROPPED PREFETCHES: 0
L1D PREFETCHES SAME FILL-ORIGIN LEVEL: 0 DIFFERENT FILL-ORIGIN LEVEL: 0
L1D AVERAGE MISS LATENCY: 114.887 cycles
L1D RQ	ACCESS:   49517033	FORWARD:          0	MERGED:   18598559	TO_CACHE:   30796195
L1D WQ	ACCESS:   24183739	FORWARD:     122279	MERGED:     257125	TO_CACHE:   23926614

L1D UNIQUE REGIONS ACCESSED: 0
L1D REGIONS CONFLICTS: 0
L1D Cross Page Prefetch Requests: 0
L1D Same Page Prefetch Requests: 0
L1D ROI Sum of L1D PQ occupancy: 0
L1D PREFETCHES PUSHED FROM L2C: 0
L1I TOTAL     ACCESS:   38052769  HIT:   37420240  MISS:     632529  HIT %:    98.3378  MISS %:    1.66224   MPKI: 3.16264
L1I LOAD      ACCESS:   38052769  HIT:   37420240  MISS:     632529  HIT %:    98.3378  MISS %:    1.66224   MPKI: 3.16264
L1I PREFETCH  REQUESTED:          0  ISSUED:          0  USEFUL:          0  USELESS:          0
L1I USEFUL LOAD PREFETCHES:          0 PREFETCH ISSUED TO LOWER LEVEL:          0  ACCURACY: -nan
L1I TIMELY PREFETCHES:          0 LATE PREFETCHES: 0 DROPPED PREFETCHES: 0
L1I PREFETCHES SAME FILL-ORIGIN LEVEL: 0 DIFFERENT FILL-ORIGIN LEVEL: 0
L1I AVERAGE MISS LATENCY: 17.1251 cycles
L1I RQ	ACCESS:   60431926	FORWARD:          0	MERGED:   22187760	TO_CACHE:   38244166

BTB TOTAL     ACCESS:   29604974  HIT:   27951083  MISS:    1653891  HIT %:    94.4135  MISS %:    5.58653   MPKI: 8.26945
BTB BRANCH_DIRECT_JUMP	ACCESS:    2284365  HIT:    2283256  MISS:       1109
BTB BRANCH_INDIRECT	ACCESS:   12536315  HIT:   11991074  MISS:     545241
BTB BRANCH_CONDITIONAL	ACCESS:    7228322  HIT:    7226630  MISS:       1692
BTB BRANCH_DIRECT_CALL	ACCESS:    3327463  HIT:    3324379  MISS:       3084
BTB BRANCH_INDIRECT_CALL	ACCESS:     450518  HIT:     257027  MISS:     193491
BTB BRANCH_RETURN	ACCESS:    3777991  HIT:    2868717  MISS:     909274
BTB BRANCH_OTHER ACCESS:          0  HIT:          0  MISS:          0

L2C TOTAL     ACCESS:    1741323  HIT:     998815  MISS:     742508  HIT %:    57.3595  MISS %:    42.6405   MPKI: 3.71254
L2C LOAD      ACCESS:    1012038  HIT:     701472  MISS:     310566  HIT %:    69.3128  MISS %:    30.6872   MPKI: 1.55283
L2C DATA LOAD MPKI: 1.34296
L2C INSTRUCTION LOAD MPKI: 0.209865
L2C RFO       ACCESS:     134000  HIT:      12370  MISS:     121630  HIT %:    9.23134  MISS %:    90.7687   MPKI: 0.60815
L2C PREFETCH  ACCESS:     292644  HIT:      22363  MISS:     270281  HIT %:    7.64171  MISS %:    92.3583   MPKI: 1.3514
AGUS PREFETCH L1 MISS: 0
L2C DATA PREFETCH MPKI: 1.3514
L2C INSTRUCTION PREFETCH MPKI: 0
L2C WRITEBACK ACCESS:     177833  HIT:     170639  MISS:       7194  HIT %:    95.9546  MISS %:    4.04537   MPKI: 0.03597
L2C LOAD TRANSLATION ACCESS:     124808  HIT:      91971  MISS:      32837  HIT %:      73.69  MISS %:      26.31   MPKI: 0.164185
L2C PREFETCH  REQUESTED:     326749  ISSUED:     326749  USEFUL:      63098  USELESS:     207059
L2C USEFUL LOAD PREFETCHES:      63098 PREFETCH ISSUED TO LOWER LEVEL:     300128  ACCURACY: 21.0237
L2C TIMELY PREFETCHES:      63098 LATE PREFETCHES: 29847 DROPPED PREFETCHES: 0
L2C PREFETCHES SAME FILL-ORIGIN LEVEL: 300128 DIFFERENT FILL-ORIGIN LEVEL: 0
L2C AVERAGE MISS LATENCY: 130.394 cycles
L2C RQ	ACCESS:    1270968	FORWARD:          0	MERGED:          0	TO_CACHE:    1270846
L2C WQ	ACCESS:     177833	FORWARD:        122	MERGED:          0	TO_CACHE:     177833
L2C PQ	ACCESS:     326749	FORWARD:          0	MERGED:          3	TO_CACHE:     326746

L2C Instructions Evicting Data 38498
L2C Translations Evicting Data 29639
L2C Data Evicting Data 593310
L2C Instructions Evicting Instructions 1680
L2C Translations Evicting Instructions 2059
L2C Data Evicting Instructions 37932
L2C Instructions Evicting Translations 1795
L2C Translations Evicting Translations 1139
L2C Data Evicting Translations 29262
L2C Dense regions hint from L2: 0
PSCL5 TOTAL     ACCESS:      87094  HIT:      87094  MISS:          0  HIT %:        100  MISS %:          0   MPKI: 0
PSCL5 LOAD TRANSLATION ACCESS:      87094  HIT:      87094  MISS:          0  HIT %:        100  MISS %:          0   MPKI: 0
PSCL5 PREFETCH  REQUESTED:          0  ISSUED:          0  USEFUL:          0  USELESS:          0
PSCL5 USEFUL LOAD PREFETCHES:          0 PREFETCH ISSUED TO LOWER LEVEL:          0  ACCURACY: -nan
PSCL5 TIMELY PREFETCHES:          0 LATE PREFETCHES: 0 DROPPED PREFETCHES: 0
PSCL5 PREFETCHES SAME FILL-ORIGIN LEVEL: 0 DIFFERENT FILL-ORIGIN LEVEL: 0

PSCL4 TOTAL     ACCESS:      83278  HIT:      83127  MISS:        151  HIT %:    99.8187  MISS %:    0.18132   MPKI: 0.000755
PSCL4 LOAD TRANSLATION ACCESS:      83278  HIT:      83127  MISS:        151  HIT %:    99.8187  MISS %:    0.18132   MPKI: 0.000755
PSCL4 PREFETCH  REQUESTED:          0  ISSUED:          0  USEFUL:          0  USELESS:          0
PSCL4 USEFUL LOAD PREFETCHES:          0 PREFETCH ISSUED TO LOWER LEVEL:          0  ACCURACY: -nan
PSCL4 TIMELY PREFETCHES:          0 LATE PREFETCHES: 0 DROPPED PREFETCHES: 0
PSCL4 PREFETCHES SAME FILL-ORIGIN LEVEL: 0 DIFFERENT FILL-ORIGIN LEVEL: 0

PSCL3 TOTAL     ACCESS:      86701  HIT:      86223  MISS:        478  HIT %:    99.4487  MISS %:    0.55132   MPKI: 0.00239
PSCL3 LOAD TRANSLATION ACCESS:      86701  HIT:      86223  MISS:        478  HIT %:    99.4487  MISS %:    0.55132   MPKI: 0.00239
PSCL3 PREFETCH  REQUESTED:          0  ISSUED:          0  USEFUL:          0  USELESS:          0
PSCL3 USEFUL LOAD PREFETCHES:          0 PREFETCH ISSUED TO LOWER LEVEL:          0  ACCURACY: -nan
PSCL3 TIMELY PREFETCHES:          0 LATE PREFETCHES: 0 DROPPED PREFETCHES: 0
PSCL3 PREFETCHES SAME FILL-ORIGIN LEVEL: 0 DIFFERENT FILL-ORIGIN LEVEL: 0

PSCL2 TOTAL     ACCESS:      87094  HIT:      50009  MISS:      37085  HIT %:    57.4196  MISS %:    42.5804   MPKI: 0.185425
PSCL2 LOAD TRANSLATION ACCESS:      87094  HIT:      50009  MISS:      37085  HIT %:    57.4196  MISS %:    42.5804   MPKI: 0.185425
PSCL2 PREFETCH  REQUESTED:          0  ISSUED:          0  USEFUL:          0  USELESS:          0
PSCL2 USEFUL LOAD PREFETCHES:          0 PREFETCH ISSUED TO LOWER LEVEL:          0  ACCURACY: -nan
PSCL2 TIMELY PREFETCHES:          0 LATE PREFETCHES: 0 DROPPED PREFETCHES: 0
PSCL2 PREFETCHES SAME FILL-ORIGIN LEVEL: 0 DIFFERENT FILL-ORIGIN LEVEL: 0

LLC TOTAL     ACCESS:     898740  HIT:     408088  MISS:     490652  HIT %:    45.4067  MISS %:    54.5933   MPKI: 2.45326
LLC LOAD      ACCESS:     281496  HIT:     109139  MISS:     172357  HIT %:    38.7711  MISS %:    61.2289   MPKI: 0.861785
LLC RFO       ACCESS:     120852  HIT:      51841  MISS:      69011  HIT %:    42.8963  MISS %:    57.1037   MPKI: 0.345055
LLC PREFETCH  ACCESS:     300128  HIT:      63426  MISS:     236702  HIT %:     21.133  MISS %:     78.867   MPKI: 1.18351
AGUS PREFETCH L1 MISS: 0
LLC WRITEBACK ACCESS:     163427  HIT:     154575  MISS:       8852  HIT %:    94.5835  MISS %:    5.41649   MPKI: 0.04426
LLC LOAD TRANSLATION ACCESS:      32837  HIT:      29107  MISS:       3730  HIT %:    88.6409  MISS %:    11.3591   MPKI: 0.01865
LLC PREFETCH  REQUESTED:          0  ISSUED:          0  USEFUL:       6689  USELESS:     232279
LLC USEFUL LOAD PREFETCHES:       6689 PREFETCH ISSUED TO LOWER LEVEL:     236702  ACCURACY: 2.82592
LLC TIMELY PREFETCHES:       6689 LATE PREFETCHES: 0 DROPPED PREFETCHES: 0
LLC PREFETCHES SAME FILL-ORIGIN LEVEL: 0 DIFFERENT FILL-ORIGIN LEVEL: 0
LLC AVERAGE MISS LATENCY: 157.194 cycles
LLC RQ	ACCESS:     435186	FORWARD:          0	MERGED:          0	TO_CACHE:     435185
LLC WQ	ACCESS:     163427	FORWARD:          1	MERGED:          0	TO_CACHE:     163427
LLC PQ	ACCESS:     300128	FORWARD:          0	MERGED:          0	TO_CACHE:     300128

LLC Dense regions hint to LLC: 0

RAW hits: 2380220
Loads Generated: 51897258
Loads sent to L1D: 49517033
Stores Generated: 24183727
Stores sent to L1D: 24183739
Major fault: 0 Minor fault: 6201
Allocated PAGES: 6201
CPU 0 L2C best offset prefetcher final stats

DRAM Statistics
 CHANNEL 0
 RQ ROW_BUFFER_HIT:     141658  ROW_BUFFER_MISS:     340059
 DBUS_CONGESTED:        379
 WQ ROW_BUFFER_HIT:      14191  ROW_BUFFER_MISS:      73461  FULL:          0

 AVG_CONGESTED_CYCLE: 5
 All warmup complete: 2
Channel 0 Bank busy for read cycles: 0
Channel 0 Bank busy for write cycles: 0
Channel 0
Rank 0
0banks busy for read cycles: 236689981
0banks busy for write cycles: 42333
1banks busy for read cycles: 13379999
1banks busy for write cycles: 6681547
2banks busy for read cycles: 14791729
2banks busy for write cycles: 1971469
3banks busy for read cycles: 987655
3banks busy for write cycles: 518824
4banks busy for read cycles: 605305
4banks busy for write cycles: 201539
5banks busy for read cycles: 351041
5banks busy for write cycles: 114041
6banks busy for read cycles: 313273
6banks busy for write cycles: 97382
7banks busy for read cycles: 310692
7banks busy for write cycles: 113096
8banks busy for read cycles: 494393
8banks busy for write cycles: 198807

CPU 0 Branch Prediction Accuracy: 99.7863% MPKI: 0.390065 Average ROB Occupancy at Mispredict: 19.8013
Branch types
NOT_BRANCH: 163487732 81.7439%
BRANCH_DIRECT_JUMP: 2284365 1.14218%
BRANCH_INDIRECT: 12536315 6.26816%
BRANCH_CONDITIONAL: 14135281 7.06764%
BRANCH_DIRECT_CALL: 3327463 1.66373%
BRANCH_INDIRECT_CALL: 450518 0.225259%
BRANCH_RETURN: 3777991 1.889%
BRANCH_OTHER: 0 0%

DRAM PAGES: 1048576
Allocated PAGES: 6201
