
*** ChampSim Multicore Out-of-Order Simulator ***

Warmup Instructions: 50000000
Simulation Instructions: 200000000
Number of CPUs: 1
LLC sets: 2048
LLC ways: 16
Off-chip DRAM Size: 4096 MB Channels: 1 Width: 64-bit Data Rate: 6400 MT/s
CPU 0 runs traces/spec2k17/srv_8.champsimtrace.xz
.xz
BTB has LRU replacement policy
ITLB has LRU replacement policy
DTLB has LRU replacement policy
STLB has LRU replacement policy
L1I has LRU replacement policy
L1D has LRU replacement policy
CPU 0 L2C best offset prefetcher
Initialize SRRIP state for L2C
Initialize DRRIP state for LLC
Heartbeat CPU 0 instructions: 10000001 cycles: 2739709 heartbeat IPC: 3.65002 cumulative IPC: 3.65002 (Simulation time: 0 hr 0 min 32 sec) 
Heartbeat CPU 0 instructions: 20000002 cycles: 5479429 heartbeat IPC: 3.65001 cumulative IPC: 3.65002 (Simulation time: 0 hr 1 min 4 sec) 
Heartbeat CPU 0 instructions: 30000000 cycles: 8206638 heartbeat IPC: 3.66675 cumulative IPC: 3.65558 (Simulation time: 0 hr 1 min 37 sec) 
*** Reached end of trace for Core: 0 Repeating trace: traces/spec2k17/srv_8.champsimtrace.xz
Heartbeat CPU 0 instructions: 40000000 cycles: 10944054 heartbeat IPC: 3.65308 cumulative IPC: 3.65495 (Simulation time: 0 hr 2 min 7 sec) 
Heartbeat CPU 0 instructions: 50000002 cycles: 13679689 heartbeat IPC: 3.65546 cumulative IPC: 3.65505 (Simulation time: 0 hr 2 min 37 sec) 

Warmup complete CPU 0 instructions: 50000002 cycles: 13679689 (Simulation time: 0 hr 2 min 37 sec) 

Heartbeat CPU 0 instructions: 60000000 cycles: 29667256 heartbeat IPC: 0.625486 cumulative IPC: 0.625486 (Simulation time: 0 hr 3 min 27 sec) 
*** Reached end of trace for Core: 0 Repeating trace: traces/spec2k17/srv_8.champsimtrace.xz
Heartbeat CPU 0 instructions: 70000002 cycles: 47635670 heartbeat IPC: 0.556532 cumulative IPC: 0.588998 (Simulation time: 0 hr 4 min 8 sec) 
Heartbeat CPU 0 instructions: 80000001 cycles: 63899845 heartbeat IPC: 0.614848 cumulative IPC: 0.59737 (Simulation time: 0 hr 4 min 49 sec) 
Heartbeat CPU 0 instructions: 90000000 cycles: 80019434 heartbeat IPC: 0.620363 cumulative IPC: 0.602957 (Simulation time: 0 hr 5 min 38 sec) 
*** Reached end of trace for Core: 0 Repeating trace: traces/spec2k17/srv_8.champsimtrace.xz
Heartbeat CPU 0 instructions: 100000000 cycles: 97680571 heartbeat IPC: 0.566215 cumulative IPC: 0.595232 (Simulation time: 0 hr 6 min 21 sec) 
Heartbeat CPU 0 instructions: 110000000 cycles: 114377877 heartbeat IPC: 0.598899 cumulative IPC: 0.59584 (Simulation time: 0 hr 7 min 6 sec) 
Heartbeat CPU 0 instructions: 120000003 cycles: 130419047 heartbeat IPC: 0.623396 cumulative IPC: 0.599626 (Simulation time: 0 hr 7 min 53 sec) 
*** Reached end of trace for Core: 0 Repeating trace: traces/spec2k17/srv_8.champsimtrace.xz
Heartbeat CPU 0 instructions: 130000002 cycles: 147897794 heartbeat IPC: 0.572123 cumulative IPC: 0.596045 (Simulation time: 0 hr 8 min 36 sec) 
Heartbeat CPU 0 instructions: 140000003 cycles: 164728038 heartbeat IPC: 0.594168 cumulative IPC: 0.595836 (Simulation time: 0 hr 9 min 24 sec) 
Heartbeat CPU 0 instructions: 150000000 cycles: 180437053 heartbeat IPC: 0.636577 cumulative IPC: 0.599674 (Simulation time: 0 hr 10 min 10 sec) 
*** Reached end of trace for Core: 0 Repeating trace: traces/spec2k17/srv_8.champsimtrace.xz
Heartbeat CPU 0 instructions: 160000002 cycles: 197835476 heartbeat IPC: 0.574765 cumulative IPC: 0.59732 (Simulation time: 0 hr 10 min 55 sec) 
Heartbeat CPU 0 instructions: 170000002 cycles: 214532569 heartbeat IPC: 0.598907 cumulative IPC: 0.597452 (Simulation time: 0 hr 11 min 48 sec) 
Heartbeat CPU 0 instructions: 180000000 cycles: 230472865 heartbeat IPC: 0.627341 cumulative IPC: 0.59965 (Simulation time: 0 hr 12 min 39 sec) 
*** Reached end of trace for Core: 0 Repeating trace: traces/spec2k17/srv_8.champsimtrace.xz
Heartbeat CPU 0 instructions: 190000000 cycles: 247647481 heartbeat IPC: 0.582255 cumulative IPC: 0.598373 (Simulation time: 0 hr 13 min 17 sec) 
Heartbeat CPU 0 instructions: 200000000 cycles: 264286388 heartbeat IPC: 0.601001 cumulative IPC: 0.598547 (Simulation time: 0 hr 13 min 47 sec) 
Heartbeat CPU 0 instructions: 210000000 cycles: 280444007 heartbeat IPC: 0.618903 cumulative IPC: 0.59978 (Simulation time: 0 hr 14 min 16 sec) 
*** Reached end of trace for Core: 0 Repeating trace: traces/spec2k17/srv_8.champsimtrace.xz
Heartbeat CPU 0 instructions: 220000000 cycles: 297524395 heartbeat IPC: 0.585467 cumulative IPC: 0.598919 (Simulation time: 0 hr 14 min 44 sec) 
Heartbeat CPU 0 instructions: 230000000 cycles: 314289283 heartbeat IPC: 0.596485 cumulative IPC: 0.598783 (Simulation time: 0 hr 15 min 12 sec) 
Heartbeat CPU 0 instructions: 240000003 cycles: 330639793 heartbeat IPC: 0.611602 cumulative IPC: 0.599445 (Simulation time: 0 hr 15 min 39 sec) 
*** Reached end of trace for Core: 0 Repeating trace: traces/spec2k17/srv_8.champsimtrace.xz
Heartbeat CPU 0 instructions: 250000000 cycles: 347648057 heartbeat IPC: 0.587949 cumulative IPC: 0.598859 (Simulation time: 0 hr 16 min 6 sec) 
Finished CPU 0 instructions: 200000002 cycles: 333968369 cumulative IPC: 0.598859 (Simulation time: 0 hr 16 min 6 sec) 

ChampSim completed all CPUs

Region of Interest Statistics

CPU 0 cumulative IPC: 0.598859 instructions: 200000002 cycles: 333968369
ITLB TOTAL     ACCESS:   29942248  HIT:   29483635  MISS:     458613  HIT %:    98.4683  MISS %:    1.53166   MPKI: 2.29306
ITLB LOAD TRANSLATION ACCESS:   29942248  HIT:   29483635  MISS:     458613  HIT %:    98.4683  MISS %:    1.53166   MPKI: 2.29306
ITLB PREFETCH  REQUESTED:          0  ISSUED:          0  USEFUL:          0  USELESS:          0
ITLB USEFUL LOAD PREFETCHES:          0 PREFETCH ISSUED TO LOWER LEVEL:          0  ACCURACY: -nan
ITLB TIMELY PREFETCHES:          0 LATE PREFETCHES: 0 DROPPED PREFETCHES: 0
ITLB PREFETCHES SAME FILL-ORIGIN LEVEL: 0 DIFFERENT FILL-ORIGIN LEVEL: 0
ITLB AVERAGE MISS LATENCY: 13.4627 cycles
ITLB RQ	ACCESS:   36823807	FORWARD:          0	MERGED:    6746290	TO_CACHE:   30077517

DTLB TOTAL     ACCESS:   38230433  HIT:   36874111  MISS:    1356322  HIT %:    96.4522  MISS %:    3.54775   MPKI: 6.78161
DTLB LOAD TRANSLATION ACCESS:   38230433  HIT:   36874111  MISS:    1356322  HIT %:    96.4522  MISS %:    3.54775   MPKI: 6.78161
DTLB PREFETCH  REQUESTED:          0  ISSUED:          0  USEFUL:          0  USELESS:          0
DTLB USEFUL LOAD PREFETCHES:          0 PREFETCH ISSUED TO LOWER LEVEL:          0  ACCURACY: -nan
DTLB TIMELY PREFETCHES:          0 LATE PREFETCHES: 0 DROPPED PREFETCHES: 0
DTLB PREFETCHES SAME FILL-ORIGIN LEVEL: 0 DIFFERENT FILL-ORIGIN LEVEL: 0
DTLB AVERAGE MISS LATENCY: 16.8912 cycles
DTLB RQ	ACCESS:   47872192	FORWARD:          0	MERGED:    9579830	TO_CACHE:   38292362

STLB TOTAL     ACCESS:    1814935  HIT:    1663353  MISS:     151582  HIT %:    91.6481  MISS %:    8.35192   MPKI: 0.75791
STLB LOAD TRANSLATION ACCESS:    1814935  HIT:    1663353  MISS:     151582  HIT %:    91.6481  MISS %:    8.35192   MPKI: 0.75791
STLB PREFETCH  REQUESTED:          0  ISSUED:          0  USEFUL:          0  USELESS:          0
STLB USEFUL LOAD PREFETCHES:          0 PREFETCH ISSUED TO LOWER LEVEL:          0  ACCURACY: -nan
STLB TIMELY PREFETCHES:          0 LATE PREFETCHES: 0 DROPPED PREFETCHES: 0
STLB PREFETCHES SAME FILL-ORIGIN LEVEL: 0 DIFFERENT FILL-ORIGIN LEVEL: 0
STLB AVERAGE MISS LATENCY: 83.9577 cycles
STLB RQ	ACCESS:    1814935	FORWARD:          0	MERGED:          0	TO_CACHE:    1814935

STLB Hit, L1D data hit: 0
STLB Hit, L2C data hit: 0
STLB Hit, LLC data hit: 0
STLB Hit, LLC data miss: 0
STLB STLB hints to L2: 0
L1D TOTAL     ACCESS:   46593842  HIT:   44923475  MISS:    1670367  HIT %:     96.415  MISS %:    3.58495   MPKI: 8.35183
L1D LOAD      ACCESS:   26921513  HIT:   25618913  MISS:    1302600  HIT %:    95.1615  MISS %:    4.83851   MPKI: 6.513
L1D RFO       ACCESS:   19672329  HIT:   19304562  MISS:     367767  HIT %:    98.1305  MISS %:    1.86946   MPKI: 1.83883
L1D PREFETCH  REQUESTED:          0  ISSUED:          0  USEFUL:          0  USELESS:          0
L1D USEFUL LOAD PREFETCHES:          0 PREFETCH ISSUED TO LOWER LEVEL:          0  ACCURACY: -nan
L1D TIMELY PREFETCHES:          0 LATE PREFETCHES: 0 DROPPED PREFETCHES: 0
L1D PREFETCHES SAME FILL-ORIGIN LEVEL: 0 DIFFERENT FILL-ORIGIN LEVEL: 0
L1D AVERAGE MISS LATENCY: 72.8371 cycles
L1D RQ	ACCESS:   42386420	FORWARD:          0	MERGED:   15120115	TO_CACHE:   27063455
L1D WQ	ACCESS:   21041647	FORWARD:     202850	MERGED:     232910	TO_CACHE:   20808737

L1D UNIQUE REGIONS ACCESSED: 0
L1D REGIONS CONFLICTS: 0
L1D Cross Page Prefetch Requests: 0
L1D Same Page Prefetch Requests: 0
L1D ROI Sum of L1D PQ occupancy: 0
L1D PREFETCHES PUSHED FROM L2C: 0
L1I TOTAL     ACCESS:   35940630  HIT:   33734390  MISS:    2206240  HIT %:    93.8614  MISS %:    6.13857   MPKI: 11.0312
L1I LOAD      ACCESS:   35940630  HIT:   33734390  MISS:    2206240  HIT %:    93.8614  MISS %:    6.13857   MPKI: 11.0312
L1I PREFETCH  REQUESTED:          0  ISSUED:          0  USEFUL:          0  USELESS:          0
L1I USEFUL LOAD PREFETCHES:          0 PREFETCH ISSUED TO LOWER LEVEL:          0  ACCURACY: -nan
L1I TIMELY PREFETCHES:          0 LATE PREFETCHES: 0 DROPPED PREFETCHES: 0
L1I PREFETCHES SAME FILL-ORIGIN LEVEL: 0 DIFFERENT FILL-ORIGIN LEVEL: 0
L1I AVERAGE MISS LATENCY: 26.4208 cycles
L1I RQ	ACCESS:   55121143	FORWARD:          0	MERGED:   18297336	TO_CACHE:   36823807

BTB TOTAL     ACCESS:   19580536  HIT:   17560008  MISS:    2020528  HIT %:    89.6809  MISS %:    10.3191   MPKI: 10.1026
BTB BRANCH_DIRECT_JUMP	ACCESS:    1439768  HIT:    1365109  MISS:      74659
BTB BRANCH_INDIRECT	ACCESS:    8153859  HIT:    7176509  MISS:     977350
BTB BRANCH_CONDITIONAL	ACCESS:    5123996  HIT:    5005744  MISS:     118252
BTB BRANCH_DIRECT_CALL	ACCESS:    2259799  HIT:    2125181  MISS:     134618
BTB BRANCH_INDIRECT_CALL	ACCESS:     171512  HIT:     155340  MISS:      16172
BTB BRANCH_RETURN	ACCESS:    2431602  HIT:    1732125  MISS:     699477
BTB BRANCH_OTHER ACCESS:          0  HIT:          0  MISS:          0

L2C TOTAL     ACCESS:    5650397  HIT:    3438407  MISS:    2211990  HIT %:    60.8525  MISS %:    39.1475   MPKI: 11.0599
L2C LOAD      ACCESS:    3508839  HIT:    2363007  MISS:    1145832  HIT %:    67.3444  MISS %:    32.6556   MPKI: 5.72916
L2C DATA LOAD MPKI: 2.19592
L2C INSTRUCTION LOAD MPKI: 3.53324
L2C RFO       ACCESS:     367767  HIT:     104849  MISS:     262918  HIT %:    28.5096  MISS %:    71.4904   MPKI: 1.31459
L2C PREFETCH  ACCESS:     774652  HIT:      95330  MISS:     679322  HIT %:    12.3062  MISS %:    87.6938   MPKI: 3.39661
AGUS PREFETCH L1 MISS: 0
L2C DATA PREFETCH MPKI: 3.39661
L2C INSTRUCTION PREFETCH MPKI: 0
L2C WRITEBACK ACCESS:     806797  HIT:     783833  MISS:      22964  HIT %:    97.1537  MISS %:    2.84632   MPKI: 0.11482
L2C LOAD TRANSLATION ACCESS:     192342  HIT:      91388  MISS:     100954  HIT %:    47.5133  MISS %:    52.4867   MPKI: 0.50477
L2C PREFETCH  REQUESTED:     813355  ISSUED:     813355  USEFUL:     401479  USELESS:     277696
L2C USEFUL LOAD PREFETCHES:     401479 PREFETCH ISSUED TO LOWER LEVEL:     701099  ACCURACY: 57.2642
L2C TIMELY PREFETCHES:     401479 LATE PREFETCHES: 21777 DROPPED PREFETCHES: 0
L2C PREFETCHES SAME FILL-ORIGIN LEVEL: 701099 DIFFERENT FILL-ORIGIN LEVEL: 0
L2C AVERAGE MISS LATENCY: 102.517 cycles
L2C RQ	ACCESS:    4068948	FORWARD:          0	MERGED:          0	TO_CACHE:    4068947
L2C WQ	ACCESS:     806797	FORWARD:          1	MERGED:          0	TO_CACHE:     806797
L2C PQ	ACCESS:     813355	FORWARD:          0	MERGED:          3	TO_CACHE:     813352

L2C Instructions Evicting Data 447637
L2C Translations Evicting Data 62725
L2C Data Evicting Data 878185
L2C Instructions Evicting Instructions 227312
L2C Translations Evicting Instructions 34024
L2C Data Evicting Instructions 439295
L2C Instructions Evicting Translations 31699
L2C Translations Evicting Translations 4205
L2C Data Evicting Translations 63944
L2C Dense regions hint from L2: 0
PSCL5 TOTAL     ACCESS:     151582  HIT:     151582  MISS:          0  HIT %:        100  MISS %:          0   MPKI: 0
PSCL5 LOAD TRANSLATION ACCESS:     151582  HIT:     151582  MISS:          0  HIT %:        100  MISS %:          0   MPKI: 0
PSCL5 PREFETCH  REQUESTED:          0  ISSUED:          0  USEFUL:          0  USELESS:          0
PSCL5 USEFUL LOAD PREFETCHES:          0 PREFETCH ISSUED TO LOWER LEVEL:          0  ACCURACY: -nan
PSCL5 TIMELY PREFETCHES:          0 LATE PREFETCHES: 0 DROPPED PREFETCHES: 0
PSCL5 PREFETCHES SAME FILL-ORIGIN LEVEL: 0 DIFFERENT FILL-ORIGIN LEVEL: 0

PSCL4 TOTAL     ACCESS:     149248  HIT:     148898  MISS:        350  HIT %:    99.7655  MISS %:   0.234509   MPKI: 0.00175
PSCL4 LOAD TRANSLATION ACCESS:     149248  HIT:     148898  MISS:        350  HIT %:    99.7655  MISS %:   0.234509   MPKI: 0.00175
PSCL4 PREFETCH  REQUESTED:          0  ISSUED:          0  USEFUL:          0  USELESS:          0
PSCL4 USEFUL LOAD PREFETCHES:          0 PREFETCH ISSUED TO LOWER LEVEL:          0  ACCURACY: -nan
PSCL4 TIMELY PREFETCHES:          0 LATE PREFETCHES: 0 DROPPED PREFETCHES: 0
PSCL4 PREFETCHES SAME FILL-ORIGIN LEVEL: 0 DIFFERENT FILL-ORIGIN LEVEL: 0

PSCL3 TOTAL     ACCESS:     151246  HIT:     150896  MISS:        350  HIT %:    99.7686  MISS %:   0.231411   MPKI: 0.00175
PSCL3 LOAD TRANSLATION ACCESS:     151246  HIT:     150896  MISS:        350  HIT %:    99.7686  MISS %:   0.231411   MPKI: 0.00175
PSCL3 PREFETCH  REQUESTED:          0  ISSUED:          0  USEFUL:          0  USELESS:          0
PSCL3 USEFUL LOAD PREFETCHES:          0 PREFETCH ISSUED TO LOWER LEVEL:          0  ACCURACY: -nan
PSCL3 TIMELY PREFETCHES:          0 LATE PREFETCHES: 0 DROPPED PREFETCHES: 0
PSCL3 PREFETCHES SAME FILL-ORIGIN LEVEL: 0 DIFFERENT FILL-ORIGIN LEVEL: 0

PSCL2 TOTAL     ACCESS:     151582  HIT:     111522  MISS:      40060  HIT %:    73.5721  MISS %:    26.4279   MPKI: 0.2003
PSCL2 LOAD TRANSLATION ACCESS:     151582  HIT:     111522  MISS:      40060  HIT %:    73.5721  MISS %:    26.4279   MPKI: 0.2003
PSCL2 PREFETCH  REQUESTED:          0  ISSUED:          0  USEFUL:          0  USELESS:          0
PSCL2 USEFUL LOAD PREFETCHES:          0 PREFETCH ISSUED TO LOWER LEVEL:          0  ACCURACY: -nan
PSCL2 TIMELY PREFETCHES:          0 LATE PREFETCHES: 0 DROPPED PREFETCHES: 0
PSCL2 PREFETCHES SAME FILL-ORIGIN LEVEL: 0 DIFFERENT FILL-ORIGIN LEVEL: 0

LLC TOTAL     ACCESS:    2808942  HIT:    1821119  MISS:     987823  HIT %:    64.8329  MISS %:    35.1671   MPKI: 4.93911
LLC LOAD      ACCESS:    1124467  HIT:     945289  MISS:     179178  HIT %:    84.0655  MISS %:    15.9345   MPKI: 0.89589
LLC RFO       ACCESS:     262506  HIT:      26959  MISS:     235547  HIT %:    10.2699  MISS %:    89.7301   MPKI: 1.17773
LLC PREFETCH  ACCESS:     701098  HIT:     189002  MISS:     512096  HIT %:     26.958  MISS %:     73.042   MPKI: 2.56048
AGUS PREFETCH L1 MISS: 0
LLC WRITEBACK ACCESS:     619917  HIT:     589066  MISS:      30851  HIT %:    95.0234  MISS %:    4.97663   MPKI: 0.154255
LLC LOAD TRANSLATION ACCESS:     100954  HIT:      70803  MISS:      30151  HIT %:    70.1339  MISS %:    29.8661   MPKI: 0.150755
LLC PREFETCH  REQUESTED:          0  ISSUED:          0  USEFUL:      31409  USELESS:     479392
LLC USEFUL LOAD PREFETCHES:      31409 PREFETCH ISSUED TO LOWER LEVEL:     512096  ACCURACY: 6.13342
LLC TIMELY PREFETCHES:      31409 LATE PREFETCHES: 0 DROPPED PREFETCHES: 0
LLC PREFETCHES SAME FILL-ORIGIN LEVEL: 0 DIFFERENT FILL-ORIGIN LEVEL: 0
LLC AVERAGE MISS LATENCY: 164.427 cycles
LLC RQ	ACCESS:    1487926	FORWARD:          0	MERGED:          0	TO_CACHE:    1487926
LLC WQ	ACCESS:     619917	FORWARD:          1	MERGED:          0	TO_CACHE:     619917
LLC PQ	ACCESS:     701099	FORWARD:          0	MERGED:          0	TO_CACHE:     701098

LLC Dense regions hint to LLC: 0

RAW hits: 3254425
Loads Generated: 45640846
Loads sent to L1D: 42386420
Stores Generated: 21041652
Stores sent to L1D: 21041647
Major fault: 0 Minor fault: 7544
Allocated PAGES: 7544
CPU 0 L2C best offset prefetcher final stats

DRAM Statistics
 CHANNEL 0
 RQ ROW_BUFFER_HIT:     277776  ROW_BUFFER_MISS:     679189
 DBUS_CONGESTED:        986
 WQ ROW_BUFFER_HIT:      92232  ROW_BUFFER_MISS:     468407  FULL:          0

 AVG_CONGESTED_CYCLE: 5
 All warmup complete: 2
Channel 0 Bank busy for read cycles: 0
Channel 0 Bank busy for write cycles: 0
Channel 0
Rank 0
0banks busy for read cycles: 205420409
0banks busy for write cycles: 230219
1banks busy for read cycles: 54217725
1banks busy for write cycles: 30351791
2banks busy for read cycles: 17003754
2banks busy for write cycles: 10536051
3banks busy for read cycles: 2904956
3banks busy for write cycles: 3888807
4banks busy for read cycles: 852408
4banks busy for write cycles: 1935430
5banks busy for read cycles: 245577
5banks busy for write cycles: 1060610
6banks busy for read cycles: 173119
6banks busy for write cycles: 624058
7banks busy for read cycles: 240043
7banks busy for write cycles: 545928
8banks busy for read cycles: 1470496
8banks busy for write cycles: 2266989

CPU 0 Branch Prediction Accuracy: 99.7754% MPKI: 0.374465 Average ROB Occupancy at Mispredict: 44.5807
Branch types
NOT_BRANCH: 166657442 83.3287%
BRANCH_DIRECT_JUMP: 1439768 0.719884%
BRANCH_INDIRECT: 8153859 4.07693%
BRANCH_CONDITIONAL: 18885875 9.44294%
BRANCH_DIRECT_CALL: 2259799 1.1299%
BRANCH_INDIRECT_CALL: 171512 0.085756%
BRANCH_RETURN: 2431602 1.2158%
BRANCH_OTHER: 0 0%

DRAM PAGES: 1048576
Allocated PAGES: 7544
