
*** ChampSim Multicore Out-of-Order Simulator ***

Warmup Instructions: 50000000
Simulation Instructions: 200000000
Number of CPUs: 1
LLC sets: 2048
LLC ways: 16
Off-chip DRAM Size: 4096 MB Channels: 1 Width: 64-bit Data Rate: 6400 MT/s
CPU 0 runs traces/spec2k17/srv_24.champsimtrace.xz
.xz
BTB has LRU replacement policy
ITLB has LRU replacement policy
DTLB has LRU replacement policy
STLB has LRU replacement policy
L1I has LRU replacement policy
L1D has LRU replacement policy
CPU 0 L2C best offset prefetcher
Initialize SRRIP state for L2C
Initialize DRRIP state for LLC
Heartbeat CPU 0 instructions: 10000000 cycles: 2832827 heartbeat IPC: 3.53004 cumulative IPC: 3.53004 (Simulation time: 0 hr 0 min 32 sec) 
Heartbeat CPU 0 instructions: 20000000 cycles: 5660713 heartbeat IPC: 3.53621 cumulative IPC: 3.53312 (Simulation time: 0 hr 1 min 6 sec) 
Heartbeat CPU 0 instructions: 30000001 cycles: 8488405 heartbeat IPC: 3.53645 cumulative IPC: 3.53423 (Simulation time: 0 hr 1 min 38 sec) 
*** Reached end of trace for Core: 0 Repeating trace: traces/spec2k17/srv_24.champsimtrace.xz
Heartbeat CPU 0 instructions: 40000002 cycles: 11314939 heartbeat IPC: 3.5379 cumulative IPC: 3.53515 (Simulation time: 0 hr 2 min 9 sec) 
Heartbeat CPU 0 instructions: 50000002 cycles: 14141711 heartbeat IPC: 3.5376 cumulative IPC: 3.53564 (Simulation time: 0 hr 2 min 40 sec) 

Warmup complete CPU 0 instructions: 50000002 cycles: 14141711 (Simulation time: 0 hr 2 min 40 sec) 

Heartbeat CPU 0 instructions: 60000000 cycles: 47583375 heartbeat IPC: 0.299028 cumulative IPC: 0.299028 (Simulation time: 0 hr 3 min 36 sec) 
*** Reached end of trace for Core: 0 Repeating trace: traces/spec2k17/srv_24.champsimtrace.xz
Heartbeat CPU 0 instructions: 70000000 cycles: 80993066 heartbeat IPC: 0.299314 cumulative IPC: 0.299171 (Simulation time: 0 hr 4 min 31 sec) 
Heartbeat CPU 0 instructions: 80000002 cycles: 114345783 heartbeat IPC: 0.299826 cumulative IPC: 0.299389 (Simulation time: 0 hr 5 min 28 sec) 
Heartbeat CPU 0 instructions: 90000000 cycles: 147727809 heartbeat IPC: 0.299562 cumulative IPC: 0.299432 (Simulation time: 0 hr 6 min 26 sec) 
*** Reached end of trace for Core: 0 Repeating trace: traces/spec2k17/srv_24.champsimtrace.xz
Heartbeat CPU 0 instructions: 100000001 cycles: 181092766 heartbeat IPC: 0.299716 cumulative IPC: 0.299489 (Simulation time: 0 hr 7 min 23 sec) 
Heartbeat CPU 0 instructions: 110000000 cycles: 214411497 heartbeat IPC: 0.300131 cumulative IPC: 0.299596 (Simulation time: 0 hr 8 min 23 sec) 
Heartbeat CPU 0 instructions: 120000001 cycles: 247774611 heartbeat IPC: 0.299732 cumulative IPC: 0.299615 (Simulation time: 0 hr 9 min 17 sec) 
*** Reached end of trace for Core: 0 Repeating trace: traces/spec2k17/srv_24.champsimtrace.xz
Heartbeat CPU 0 instructions: 130000003 cycles: 281151523 heartbeat IPC: 0.299608 cumulative IPC: 0.299614 (Simulation time: 0 hr 10 min 14 sec) 
Heartbeat CPU 0 instructions: 140000003 cycles: 314480601 heartbeat IPC: 0.300038 cumulative IPC: 0.299661 (Simulation time: 0 hr 11 min 9 sec) 
Heartbeat CPU 0 instructions: 150000003 cycles: 347842273 heartbeat IPC: 0.299745 cumulative IPC: 0.29967 (Simulation time: 0 hr 12 min 5 sec) 
*** Reached end of trace for Core: 0 Repeating trace: traces/spec2k17/srv_24.champsimtrace.xz
Heartbeat CPU 0 instructions: 160000003 cycles: 381200043 heartbeat IPC: 0.29978 cumulative IPC: 0.29968 (Simulation time: 0 hr 13 min 1 sec) 
Heartbeat CPU 0 instructions: 170000000 cycles: 414531038 heartbeat IPC: 0.300021 cumulative IPC: 0.299708 (Simulation time: 0 hr 13 min 57 sec) 
Heartbeat CPU 0 instructions: 180000001 cycles: 447863110 heartbeat IPC: 0.300011 cumulative IPC: 0.299732 (Simulation time: 0 hr 14 min 54 sec) 
*** Reached end of trace for Core: 0 Repeating trace: traces/spec2k17/srv_24.champsimtrace.xz
Heartbeat CPU 0 instructions: 190000002 cycles: 481203178 heartbeat IPC: 0.299939 cumulative IPC: 0.299746 (Simulation time: 0 hr 15 min 51 sec) 
Heartbeat CPU 0 instructions: 200000001 cycles: 514540617 heartbeat IPC: 0.299963 cumulative IPC: 0.299761 (Simulation time: 0 hr 16 min 49 sec) 
Heartbeat CPU 0 instructions: 210000001 cycles: 547857951 heartbeat IPC: 0.300144 cumulative IPC: 0.299785 (Simulation time: 0 hr 17 min 45 sec) 
*** Reached end of trace for Core: 0 Repeating trace: traces/spec2k17/srv_24.champsimtrace.xz
Heartbeat CPU 0 instructions: 220000000 cycles: 581197144 heartbeat IPC: 0.299947 cumulative IPC: 0.299794 (Simulation time: 0 hr 18 min 39 sec) 
Heartbeat CPU 0 instructions: 230000001 cycles: 614540753 heartbeat IPC: 0.299908 cumulative IPC: 0.299801 (Simulation time: 0 hr 19 min 36 sec) 
Heartbeat CPU 0 instructions: 240000003 cycles: 647853702 heartbeat IPC: 0.300184 cumulative IPC: 0.299821 (Simulation time: 0 hr 20 min 30 sec) 
Heartbeat CPU 0 instructions: 250000000 cycles: 681185122 heartbeat IPC: 0.300017 cumulative IPC: 0.299831 (Simulation time: 0 hr 21 min 30 sec) 
Finished CPU 0 instructions: 200000000 cycles: 667043412 cumulative IPC: 0.299831 (Simulation time: 0 hr 21 min 30 sec) 

ChampSim completed all CPUs

Region of Interest Statistics

CPU 0 cumulative IPC: 0.299831 instructions: 200000000 cycles: 667043412
ITLB TOTAL     ACCESS:   35351037  HIT:   32920264  MISS:    2430773  HIT %:    93.1239  MISS %:     6.8761   MPKI: 12.1539
ITLB LOAD TRANSLATION ACCESS:   35351037  HIT:   32920264  MISS:    2430773  HIT %:    93.1239  MISS %:     6.8761   MPKI: 12.1539
ITLB PREFETCH  REQUESTED:          0  ISSUED:          0  USEFUL:          0  USELESS:          0
ITLB USEFUL LOAD PREFETCHES:          0 PREFETCH ISSUED TO LOWER LEVEL:          0  ACCURACY: -nan
ITLB TIMELY PREFETCHES:          0 LATE PREFETCHES: 0 DROPPED PREFETCHES: 0
ITLB PREFETCHES SAME FILL-ORIGIN LEVEL: 0 DIFFERENT FILL-ORIGIN LEVEL: 0
ITLB AVERAGE MISS LATENCY: 9.00355 cycles
ITLB RQ	ACCESS:   41925815	FORWARD:          0	MERGED:    6009581	TO_CACHE:   35916234

DTLB TOTAL     ACCESS:   47423726  HIT:   45433146  MISS:    1990580  HIT %:    95.8026  MISS %:    4.19743   MPKI: 9.9529
DTLB LOAD TRANSLATION ACCESS:   47423726  HIT:   45433146  MISS:    1990580  HIT %:    95.8026  MISS %:    4.19743   MPKI: 9.9529
DTLB PREFETCH  REQUESTED:          0  ISSUED:          0  USEFUL:          0  USELESS:          0
DTLB USEFUL LOAD PREFETCHES:          0 PREFETCH ISSUED TO LOWER LEVEL:          0  ACCURACY: -nan
DTLB TIMELY PREFETCHES:          0 LATE PREFETCHES: 0 DROPPED PREFETCHES: 0
DTLB PREFETCHES SAME FILL-ORIGIN LEVEL: 0 DIFFERENT FILL-ORIGIN LEVEL: 0
DTLB AVERAGE MISS LATENCY: 9.03132 cycles
DTLB RQ	ACCESS:   62666658	FORWARD:          0	MERGED:   15191575	TO_CACHE:   47475083

STLB TOTAL     ACCESS:    4421352  HIT:    4420147  MISS:       1205  HIT %:    99.9727  MISS %:  0.0272541   MPKI: 0.006025
STLB LOAD TRANSLATION ACCESS:    4421352  HIT:    4420147  MISS:       1205  HIT %:    99.9727  MISS %:  0.0272541   MPKI: 0.006025
STLB PREFETCH  REQUESTED:          0  ISSUED:          0  USEFUL:          0  USELESS:          0
STLB USEFUL LOAD PREFETCHES:          0 PREFETCH ISSUED TO LOWER LEVEL:          0  ACCURACY: -nan
STLB TIMELY PREFETCHES:          0 LATE PREFETCHES: 0 DROPPED PREFETCHES: 0
STLB PREFETCHES SAME FILL-ORIGIN LEVEL: 0 DIFFERENT FILL-ORIGIN LEVEL: 0
STLB AVERAGE MISS LATENCY: 33.4788 cycles
STLB RQ	ACCESS:    4421352	FORWARD:          0	MERGED:          0	TO_CACHE:    4421352

STLB Hit, L1D data hit: 0
STLB Hit, L2C data hit: 0
STLB Hit, LLC data hit: 0
STLB Hit, LLC data miss: 0
STLB STLB hints to L2: 0
L1D TOTAL     ACCESS:   60849145  HIT:   56434065  MISS:    4415080  HIT %:    92.7442  MISS %:    7.25578   MPKI: 22.0754
L1D LOAD      ACCESS:   34688068  HIT:   31448939  MISS:    3239129  HIT %:    90.6621  MISS %:    9.33788   MPKI: 16.1956
L1D RFO       ACCESS:   26161077  HIT:   24985126  MISS:    1175951  HIT %:     95.505  MISS %:    4.49504   MPKI: 5.87976
L1D PREFETCH  REQUESTED:          0  ISSUED:          0  USEFUL:          0  USELESS:          0
L1D USEFUL LOAD PREFETCHES:          0 PREFETCH ISSUED TO LOWER LEVEL:          0  ACCURACY: -nan
L1D TIMELY PREFETCHES:          0 LATE PREFETCHES: 0 DROPPED PREFETCHES: 0
L1D PREFETCHES SAME FILL-ORIGIN LEVEL: 0 DIFFERENT FILL-ORIGIN LEVEL: 0
L1D AVERAGE MISS LATENCY: 16.3051 cycles
L1D RQ	ACCESS:   47223226	FORWARD:          0	MERGED:   12089959	TO_CACHE:   34787807
L1D WQ	ACCESS:   28029091	FORWARD:     345460	MERGED:     150240	TO_CACHE:   27878851

L1D UNIQUE REGIONS ACCESSED: 0
L1D REGIONS CONFLICTS: 0
L1D Cross Page Prefetch Requests: 0
L1D Same Page Prefetch Requests: 0
L1D ROI Sum of L1D PQ occupancy: 0
L1D PREFETCHES PUSHED FROM L2C: 0
L1I TOTAL     ACCESS:   40155318  HIT:   27926298  MISS:   12229020  HIT %:    69.5457  MISS %:    30.4543   MPKI: 61.1451
L1I LOAD      ACCESS:   40155318  HIT:   27926298  MISS:   12229020  HIT %:    69.5457  MISS %:    30.4543   MPKI: 61.1451
L1I PREFETCH  REQUESTED:          0  ISSUED:          0  USEFUL:          0  USELESS:          0
L1I USEFUL LOAD PREFETCHES:          0 PREFETCH ISSUED TO LOWER LEVEL:          0  ACCURACY: -nan
L1I TIMELY PREFETCHES:          0 LATE PREFETCHES: 0 DROPPED PREFETCHES: 0
L1I PREFETCHES SAME FILL-ORIGIN LEVEL: 0 DIFFERENT FILL-ORIGIN LEVEL: 0
L1I AVERAGE MISS LATENCY: 15.0146 cycles
L1I RQ	ACCESS:   58799547	FORWARD:          0	MERGED:   16873732	TO_CACHE:   41925815

BTB TOTAL     ACCESS:   30232374  HIT:   16633211  MISS:   13599163  HIT %:    55.0179  MISS %:    44.9821   MPKI: 67.9958
BTB BRANCH_DIRECT_JUMP	ACCESS:    1953106  HIT:    1075540  MISS:     877566
BTB BRANCH_INDIRECT	ACCESS:   12762841  HIT:    7577249  MISS:    5185592
BTB BRANCH_CONDITIONAL	ACCESS:    5680689  HIT:    4279292  MISS:    1401397
BTB BRANCH_DIRECT_CALL	ACCESS:    4143765  HIT:    1916358  MISS:    2227407
BTB BRANCH_INDIRECT_CALL	ACCESS:     774109  HIT:     369936  MISS:     404173
BTB BRANCH_RETURN	ACCESS:    4917864  HIT:    1414836  MISS:    3503028
BTB BRANCH_OTHER ACCESS:          0  HIT:          0  MISS:          0

L2C TOTAL     ACCESS:   19117635  HIT:   18437812  MISS:     679823  HIT %:     96.444  MISS %:      3.556   MPKI: 3.39912
L2C LOAD      ACCESS:   15467478  HIT:   14929793  MISS:     537685  HIT %:    96.5238  MISS %:    3.47623   MPKI: 2.68843
L2C DATA LOAD MPKI: 0.77183
L2C INSTRUCTION LOAD MPKI: 1.9166
L2C RFO       ACCESS:    1175952  HIT:    1143781  MISS:      32171  HIT %:    97.2643  MISS %:    2.73574   MPKI: 0.160855
L2C PREFETCH  ACCESS:     180619  HIT:      91400  MISS:      89219  HIT %:    50.6038  MISS %:    49.3962   MPKI: 0.446095
AGUS PREFETCH L1 MISS: 0
L2C DATA PREFETCH MPKI: 0.446095
L2C INSTRUCTION PREFETCH MPKI: 0
L2C WRITEBACK ACCESS:    2292381  HIT:    2272210  MISS:      20171  HIT %:    99.1201  MISS %:   0.879915   MPKI: 0.100855
L2C LOAD TRANSLATION ACCESS:       1205  HIT:        628  MISS:        577  HIT %:    52.1162  MISS %:    47.8838   MPKI: 0.002885
L2C PREFETCH  REQUESTED:     185051  ISSUED:     185051  USEFUL:      35299  USELESS:      53519
L2C USEFUL LOAD PREFETCHES:      35299 PREFETCH ISSUED TO LOWER LEVEL:      93157  ACCURACY: 37.8919
L2C TIMELY PREFETCHES:      35299 LATE PREFETCHES: 3938 DROPPED PREFETCHES: 0
L2C PREFETCHES SAME FILL-ORIGIN LEVEL: 93157 DIFFERENT FILL-ORIGIN LEVEL: 0
L2C AVERAGE MISS LATENCY: 30.2124 cycles
L2C RQ	ACCESS:   16645304	FORWARD:          0	MERGED:          0	TO_CACHE:   16644634
L2C WQ	ACCESS:    2292381	FORWARD:        670	MERGED:          0	TO_CACHE:    2292381
L2C PQ	ACCESS:     185051	FORWARD:          0	MERGED:          1	TO_CACHE:     185050

L2C Instructions Evicting Data 105250
L2C Translations Evicting Data 455
L2C Data Evicting Data 181980
L2C Instructions Evicting Instructions 277918
L2C Translations Evicting Instructions 122
L2C Data Evicting Instructions 93337
L2C Instructions Evicting Translations 151
L2C Translations Evicting Translations 0
L2C Data Evicting Translations 439
L2C Dense regions hint from L2: 0
PSCL5 TOTAL     ACCESS:       1205  HIT:       1205  MISS:          0  HIT %:        100  MISS %:          0   MPKI: 0
PSCL5 LOAD TRANSLATION ACCESS:       1205  HIT:       1205  MISS:          0  HIT %:        100  MISS %:          0   MPKI: 0
PSCL5 PREFETCH  REQUESTED:          0  ISSUED:          0  USEFUL:          0  USELESS:          0
PSCL5 USEFUL LOAD PREFETCHES:          0 PREFETCH ISSUED TO LOWER LEVEL:          0  ACCURACY: -nan
PSCL5 TIMELY PREFETCHES:          0 LATE PREFETCHES: 0 DROPPED PREFETCHES: 0
PSCL5 PREFETCHES SAME FILL-ORIGIN LEVEL: 0 DIFFERENT FILL-ORIGIN LEVEL: 0

PSCL4 TOTAL     ACCESS:       1198  HIT:       1198  MISS:          0  HIT %:        100  MISS %:          0   MPKI: 0
PSCL4 LOAD TRANSLATION ACCESS:       1198  HIT:       1198  MISS:          0  HIT %:        100  MISS %:          0   MPKI: 0
PSCL4 PREFETCH  REQUESTED:          0  ISSUED:          0  USEFUL:          0  USELESS:          0
PSCL4 USEFUL LOAD PREFETCHES:          0 PREFETCH ISSUED TO LOWER LEVEL:          0  ACCURACY: -nan
PSCL4 TIMELY PREFETCHES:          0 LATE PREFETCHES: 0 DROPPED PREFETCHES: 0
PSCL4 PREFETCHES SAME FILL-ORIGIN LEVEL: 0 DIFFERENT FILL-ORIGIN LEVEL: 0

PSCL3 TOTAL     ACCESS:       1198  HIT:       1198  MISS:          0  HIT %:        100  MISS %:          0   MPKI: 0
PSCL3 LOAD TRANSLATION ACCESS:       1198  HIT:       1198  MISS:          0  HIT %:        100  MISS %:          0   MPKI: 0
PSCL3 PREFETCH  REQUESTED:          0  ISSUED:          0  USEFUL:          0  USELESS:          0
PSCL3 USEFUL LOAD PREFETCHES:          0 PREFETCH ISSUED TO LOWER LEVEL:          0  ACCURACY: -nan
PSCL3 TIMELY PREFETCHES:          0 LATE PREFETCHES: 0 DROPPED PREFETCHES: 0
PSCL3 PREFETCHES SAME FILL-ORIGIN LEVEL: 0 DIFFERENT FILL-ORIGIN LEVEL: 0

PSCL2 TOTAL     ACCESS:       1205  HIT:       1205  MISS:          0  HIT %:        100  MISS %:          0   MPKI: 0
PSCL2 LOAD TRANSLATION ACCESS:       1205  HIT:       1205  MISS:          0  HIT %:        100  MISS %:          0   MPKI: 0
PSCL2 PREFETCH  REQUESTED:          0  ISSUED:          0  USEFUL:          0  USELESS:          0
PSCL2 USEFUL LOAD PREFETCHES:          0 PREFETCH ISSUED TO LOWER LEVEL:          0  ACCURACY: -nan
PSCL2 TIMELY PREFETCHES:          0 LATE PREFETCHES: 0 DROPPED PREFETCHES: 0
PSCL2 PREFETCHES SAME FILL-ORIGIN LEVEL: 0 DIFFERENT FILL-ORIGIN LEVEL: 0

LLC TOTAL     ACCESS:     698821  HIT:     693903  MISS:       4918  HIT %:    99.2962  MISS %:   0.703757   MPKI: 0.02459
LLC LOAD      ACCESS:     533747  HIT:     533379  MISS:        368  HIT %:    99.9311  MISS %:  0.0689465   MPKI: 0.00184
LLC RFO       ACCESS:      32171  HIT:      32171  MISS:          0  HIT %:        100  MISS %:          0   MPKI: 0
LLC PREFETCH  ACCESS:      93157  HIT:      88609  MISS:       4548  HIT %:    95.1179  MISS %:    4.88208   MPKI: 0.02274
AGUS PREFETCH L1 MISS: 0
LLC WRITEBACK ACCESS:      39169  HIT:      39167  MISS:          2  HIT %:    99.9949  MISS %: 0.00510608   MPKI: 1e-05
LLC LOAD TRANSLATION ACCESS:        577  HIT:        577  MISS:          0  HIT %:        100  MISS %:          0   MPKI: 0
LLC PREFETCH  REQUESTED:          0  ISSUED:          0  USEFUL:        995  USELESS:        678
LLC USEFUL LOAD PREFETCHES:        995 PREFETCH ISSUED TO LOWER LEVEL:       4548  ACCURACY: 21.8777
LLC TIMELY PREFETCHES:        995 LATE PREFETCHES: 0 DROPPED PREFETCHES: 0
LLC PREFETCHES SAME FILL-ORIGIN LEVEL: 0 DIFFERENT FILL-ORIGIN LEVEL: 0
LLC AVERAGE MISS LATENCY: 162.176 cycles
LLC RQ	ACCESS:     566495	FORWARD:          0	MERGED:          0	TO_CACHE:     566495
LLC WQ	ACCESS:      39169	FORWARD:          0	MERGED:          0	TO_CACHE:      39169
LLC PQ	ACCESS:      93157	FORWARD:          0	MERGED:          0	TO_CACHE:      93157

LLC Dense regions hint to LLC: 0

RAW hits: 1509352
Loads Generated: 48732580
Loads sent to L1D: 47223226
Stores Generated: 28029087
Stores sent to L1D: 28029091
Major fault: 0 Minor fault: 1251
Allocated PAGES: 1251
CPU 0 L2C best offset prefetcher final stats

DRAM Statistics
 CHANNEL 0
 RQ ROW_BUFFER_HIT:        417  ROW_BUFFER_MISS:       4499
 DBUS_CONGESTED:          0
 WQ ROW_BUFFER_HIT:          0  ROW_BUFFER_MISS:          2  FULL:          0

 AVG_CONGESTED_CYCLE: -
 All warmup complete: 2
Channel 0 Bank busy for read cycles: 0
Channel 0 Bank busy for write cycles: 0
Channel 0
Rank 0
0banks busy for read cycles: 666458059
0banks busy for write cycles: 2
1banks busy for read cycles: 507899
1banks busy for write cycles: 300
2banks busy for read cycles: 55596
2banks busy for write cycles: 0
3banks busy for read cycles: 12939
3banks busy for write cycles: 0
4banks busy for read cycles: 5979
4banks busy for write cycles: 0
5banks busy for read cycles: 1957
5banks busy for write cycles: 0
6banks busy for read cycles: 682
6banks busy for write cycles: 0
7banks busy for read cycles: 0
7banks busy for write cycles: 0
8banks busy for read cycles: 0
8banks busy for write cycles: 0

CPU 0 Branch Prediction Accuracy: 99.9093% MPKI: 0.16097 Average ROB Occupancy at Mispredict: 31.5264
Branch types
NOT_BRANCH: 164496933 82.2485%
BRANCH_DIRECT_JUMP: 1953106 0.976553%
BRANCH_INDIRECT: 12762841 6.38142%
BRANCH_CONDITIONAL: 10951337 5.47567%
BRANCH_DIRECT_CALL: 4143765 2.07188%
BRANCH_INDIRECT_CALL: 774109 0.387055%
BRANCH_RETURN: 4917864 2.45893%
BRANCH_OTHER: 0 0%

DRAM PAGES: 1048576
Allocated PAGES: 1251
