
*** ChampSim Multicore Out-of-Order Simulator ***

Warmup Instructions: 50000000
Simulation Instructions: 200000000
Number of CPUs: 1
LLC sets: 2048
LLC ways: 16
Off-chip DRAM Size: 4096 MB Channels: 1 Width: 64-bit Data Rate: 6400 MT/s
CPU 0 runs traces/spec2k17/srv_37.champsimtrace.xz
.xz
BTB has LRU replacement policy
ITLB has LRU replacement policy
DTLB has LRU replacement policy
STLB has LRU replacement policy
L1I has LRU replacement policy
L1D has LRU replacement policy
CPU 0 L2C best offset prefetcher
Initialize SRRIP state for L2C
Initialize DRRIP state for LLC
Heartbeat CPU 0 instructions: 10000003 cycles: 2946206 heartbeat IPC: 3.3942 cumulative IPC: 3.3942 (Simulation time: 0 hr 0 min 42 sec) 
Heartbeat CPU 0 instructions: 20000003 cycles: 5881908 heartbeat IPC: 3.40634 cumulative IPC: 3.40026 (Simulation time: 0 hr 1 min 24 sec) 
Heartbeat CPU 0 instructions: 30000000 cycles: 8824112 heartbeat IPC: 3.39881 cumulative IPC: 3.39978 (Simulation time: 0 hr 2 min 2 sec) 
*** Reached end of trace for Core: 0 Repeating trace: traces/spec2k17/srv_37.champsimtrace.xz
Heartbeat CPU 0 instructions: 40000001 cycles: 11769172 heartbeat IPC: 3.39552 cumulative IPC: 3.39871 (Simulation time: 0 hr 2 min 39 sec) 
Heartbeat CPU 0 instructions: 50000000 cycles: 14705960 heartbeat IPC: 3.40508 cumulative IPC: 3.39998 (Simulation time: 0 hr 3 min 16 sec) 

Warmup complete CPU 0 instructions: 50000004 cycles: 14705961 (Simulation time: 0 hr 3 min 16 sec) 

Heartbeat CPU 0 instructions: 60000002 cycles: 33967875 heartbeat IPC: 0.519159 cumulative IPC: 0.519159 (Simulation time: 0 hr 4 min 20 sec) 
*** Reached end of trace for Core: 0 Repeating trace: traces/spec2k17/srv_37.champsimtrace.xz
Heartbeat CPU 0 instructions: 70000003 cycles: 52726326 heartbeat IPC: 0.533093 cumulative IPC: 0.526034 (Simulation time: 0 hr 5 min 25 sec) 
Heartbeat CPU 0 instructions: 80000000 cycles: 71616044 heartbeat IPC: 0.529388 cumulative IPC: 0.527147 (Simulation time: 0 hr 6 min 31 sec) 
Heartbeat CPU 0 instructions: 90000000 cycles: 90848102 heartbeat IPC: 0.519965 cumulative IPC: 0.525333 (Simulation time: 0 hr 7 min 37 sec) 
*** Reached end of trace for Core: 0 Repeating trace: traces/spec2k17/srv_37.champsimtrace.xz
Heartbeat CPU 0 instructions: 100000001 cycles: 109674799 heartbeat IPC: 0.531161 cumulative IPC: 0.526488 (Simulation time: 0 hr 8 min 41 sec) 
Heartbeat CPU 0 instructions: 110000000 cycles: 128516428 heartbeat IPC: 0.53074 cumulative IPC: 0.527192 (Simulation time: 0 hr 9 min 48 sec) 
Heartbeat CPU 0 instructions: 120000001 cycles: 147547325 heartbeat IPC: 0.525461 cumulative IPC: 0.526944 (Simulation time: 0 hr 10 min 53 sec) 
*** Reached end of trace for Core: 0 Repeating trace: traces/spec2k17/srv_37.champsimtrace.xz
Heartbeat CPU 0 instructions: 130000001 cycles: 166605636 heartbeat IPC: 0.524705 cumulative IPC: 0.526663 (Simulation time: 0 hr 11 min 59 sec) 
Heartbeat CPU 0 instructions: 140000003 cycles: 185337757 heartbeat IPC: 0.533843 cumulative IPC: 0.527452 (Simulation time: 0 hr 13 min 2 sec) 
Heartbeat CPU 0 instructions: 150000001 cycles: 204226703 heartbeat IPC: 0.52941 cumulative IPC: 0.527647 (Simulation time: 0 hr 14 min 10 sec) 
Heartbeat CPU 0 instructions: 160000000 cycles: 223454181 heartbeat IPC: 0.520089 cumulative IPC: 0.526951 (Simulation time: 0 hr 15 min 15 sec) 
*** Reached end of trace for Core: 0 Repeating trace: traces/spec2k17/srv_37.champsimtrace.xz
Heartbeat CPU 0 instructions: 170000003 cycles: 242250976 heartbeat IPC: 0.532006 cumulative IPC: 0.527368 (Simulation time: 0 hr 16 min 20 sec) 
Heartbeat CPU 0 instructions: 180000003 cycles: 261164956 heartbeat IPC: 0.528709 cumulative IPC: 0.527471 (Simulation time: 0 hr 17 min 26 sec) 
Heartbeat CPU 0 instructions: 190000000 cycles: 280362823 heartbeat IPC: 0.520891 cumulative IPC: 0.526996 (Simulation time: 0 hr 18 min 32 sec) 
*** Reached end of trace for Core: 0 Repeating trace: traces/spec2k17/srv_37.champsimtrace.xz
Heartbeat CPU 0 instructions: 200000001 cycles: 299225849 heartbeat IPC: 0.530138 cumulative IPC: 0.527204 (Simulation time: 0 hr 19 min 38 sec) 
Heartbeat CPU 0 instructions: 210000002 cycles: 317999162 heartbeat IPC: 0.532671 cumulative IPC: 0.527542 (Simulation time: 0 hr 20 min 43 sec) 
Heartbeat CPU 0 instructions: 220000000 cycles: 337276680 heartbeat IPC: 0.518739 cumulative IPC: 0.527016 (Simulation time: 0 hr 21 min 50 sec) 
*** Reached end of trace for Core: 0 Repeating trace: traces/spec2k17/srv_37.champsimtrace.xz
Heartbeat CPU 0 instructions: 230000000 cycles: 356081276 heartbeat IPC: 0.531785 cumulative IPC: 0.527279 (Simulation time: 0 hr 22 min 56 sec) 
Heartbeat CPU 0 instructions: 240000001 cycles: 374928881 heartbeat IPC: 0.530571 cumulative IPC: 0.527451 (Simulation time: 0 hr 24 min 3 sec) 
Heartbeat CPU 0 instructions: 250000001 cycles: 394081564 heartbeat IPC: 0.52212 cumulative IPC: 0.527182 (Simulation time: 0 hr 25 min 7 sec) 
Finished CPU 0 instructions: 200000002 cycles: 379375608 cumulative IPC: 0.527182 (Simulation time: 0 hr 25 min 7 sec) 

ChampSim completed all CPUs

Region of Interest Statistics

CPU 0 cumulative IPC: 0.527182 instructions: 200000002 cycles: 379375608
ITLB TOTAL     ACCESS:   33736099  HIT:   32203538  MISS:    1532561  HIT %:    95.4572  MISS %:    4.54279   MPKI: 7.6628
ITLB LOAD TRANSLATION ACCESS:   33736099  HIT:   32203538  MISS:    1532561  HIT %:    95.4572  MISS %:    4.54279   MPKI: 7.6628
ITLB PREFETCH  REQUESTED:          0  ISSUED:          0  USEFUL:          0  USELESS:          0
ITLB USEFUL LOAD PREFETCHES:          0 PREFETCH ISSUED TO LOWER LEVEL:          0  ACCURACY: -nan
ITLB TIMELY PREFETCHES:          0 LATE PREFETCHES: 0 DROPPED PREFETCHES: 0
ITLB PREFETCHES SAME FILL-ORIGIN LEVEL: 0 DIFFERENT FILL-ORIGIN LEVEL: 0
ITLB AVERAGE MISS LATENCY: 9.29726 cycles
ITLB RQ	ACCESS:   40639425	FORWARD:          0	MERGED:    6408703	TO_CACHE:   34230722

DTLB TOTAL     ACCESS:   40003622  HIT:   38469724  MISS:    1533898  HIT %:    96.1656  MISS %:     3.8344   MPKI: 7.66949
DTLB LOAD TRANSLATION ACCESS:   40003622  HIT:   38469724  MISS:    1533898  HIT %:    96.1656  MISS %:     3.8344   MPKI: 7.66949
DTLB PREFETCH  REQUESTED:          0  ISSUED:          0  USEFUL:          0  USELESS:          0
DTLB USEFUL LOAD PREFETCHES:          0 PREFETCH ISSUED TO LOWER LEVEL:          0  ACCURACY: -nan
DTLB TIMELY PREFETCHES:          0 LATE PREFETCHES: 0 DROPPED PREFETCHES: 0
DTLB PREFETCHES SAME FILL-ORIGIN LEVEL: 0 DIFFERENT FILL-ORIGIN LEVEL: 0
DTLB AVERAGE MISS LATENCY: 15.6273 cycles
DTLB RQ	ACCESS:   61108645	FORWARD:          0	MERGED:   20699259	TO_CACHE:   40409386

STLB TOTAL     ACCESS:    3066459  HIT:    2984944  MISS:      81515  HIT %:    97.3417  MISS %:    2.65828   MPKI: 0.407575
STLB LOAD TRANSLATION ACCESS:    3066459  HIT:    2984944  MISS:      81515  HIT %:    97.3417  MISS %:    2.65828   MPKI: 0.407575
STLB PREFETCH  REQUESTED:          0  ISSUED:          0  USEFUL:          0  USELESS:          0
STLB USEFUL LOAD PREFETCHES:          0 PREFETCH ISSUED TO LOWER LEVEL:          0  ACCURACY: -nan
STLB TIMELY PREFETCHES:          0 LATE PREFETCHES: 0 DROPPED PREFETCHES: 0
STLB PREFETCHES SAME FILL-ORIGIN LEVEL: 0 DIFFERENT FILL-ORIGIN LEVEL: 0
STLB AVERAGE MISS LATENCY: 129.996 cycles
STLB RQ	ACCESS:    3066459	FORWARD:          0	MERGED:          0	TO_CACHE:    3066459

STLB Hit, L1D data hit: 0
STLB Hit, L2C data hit: 0
STLB Hit, LLC data hit: 0
STLB Hit, LLC data miss: 0
STLB STLB hints to L2: 0
L1D TOTAL     ACCESS:   48602063  HIT:   41835332  MISS:    6766731  HIT %:    86.0773  MISS %:    13.9227   MPKI: 33.8337
L1D LOAD      ACCESS:   26685444  HIT:   23621102  MISS:    3064342  HIT %:    88.5168  MISS %:    11.4832   MPKI: 15.3217
L1D RFO       ACCESS:   21916619  HIT:   18214230  MISS:    3702389  HIT %:    83.1069  MISS %:    16.8931   MPKI: 18.5119
L1D PREFETCH  REQUESTED:          0  ISSUED:          0  USEFUL:          0  USELESS:          0
L1D USEFUL LOAD PREFETCHES:          0 PREFETCH ISSUED TO LOWER LEVEL:          0  ACCURACY: -nan
L1D TIMELY PREFETCHES:          0 LATE PREFETCHES: 0 DROPPED PREFETCHES: 0
L1D PREFETCHES SAME FILL-ORIGIN LEVEL: 0 DIFFERENT FILL-ORIGIN LEVEL: 0
L1D AVERAGE MISS LATENCY: 143.038 cycles
L1D RQ	ACCESS:   45211936	FORWARD:          0	MERGED:   17778609	TO_CACHE:   27175052
L1D WQ	ACCESS:   34134601	FORWARD:     258275	MERGED:     201008	TO_CACHE:   33933593

L1D UNIQUE REGIONS ACCESSED: 0
L1D REGIONS CONFLICTS: 0
L1D Cross Page Prefetch Requests: 0
L1D Same Page Prefetch Requests: 0
L1D ROI Sum of L1D PQ occupancy: 0
L1D PREFETCHES PUSHED FROM L2C: 0
L1I TOTAL     ACCESS:   37991069  HIT:   28914852  MISS:    9076217  HIT %:    76.1096  MISS %:    23.8904   MPKI: 45.3811
L1I LOAD      ACCESS:   37991069  HIT:   28914852  MISS:    9076217  HIT %:    76.1096  MISS %:    23.8904   MPKI: 45.3811
L1I PREFETCH  REQUESTED:          0  ISSUED:          0  USEFUL:          0  USELESS:          0
L1I USEFUL LOAD PREFETCHES:          0 PREFETCH ISSUED TO LOWER LEVEL:          0  ACCURACY: -nan
L1I TIMELY PREFETCHES:          0 LATE PREFETCHES: 0 DROPPED PREFETCHES: 0
L1I PREFETCHES SAME FILL-ORIGIN LEVEL: 0 DIFFERENT FILL-ORIGIN LEVEL: 0
L1I AVERAGE MISS LATENCY: 17.111 cycles
L1I RQ	ACCESS:   58829852	FORWARD:          0	MERGED:   18190427	TO_CACHE:   40639425

BTB TOTAL     ACCESS:   25792470  HIT:   24215892  MISS:    1576578  HIT %:    93.8874  MISS %:    6.11255   MPKI: 7.88289
BTB BRANCH_DIRECT_JUMP	ACCESS:    1657270  HIT:    1644420  MISS:      12850
BTB BRANCH_INDIRECT	ACCESS:    9945376  HIT:    9419363  MISS:     526013
BTB BRANCH_CONDITIONAL	ACCESS:    7366898  HIT:    7349104  MISS:      17794
BTB BRANCH_DIRECT_CALL	ACCESS:    2818310  HIT:    2778533  MISS:      39777
BTB BRANCH_INDIRECT_CALL	ACCESS:     593130  HIT:     481549  MISS:     111581
BTB BRANCH_RETURN	ACCESS:    3411486  HIT:    2542923  MISS:     868563
BTB BRANCH_OTHER ACCESS:          0  HIT:          0  MISS:          0

L2C TOTAL     ACCESS:   22248885  HIT:   14604154  MISS:    7644731  HIT %:    65.6399  MISS %:    34.3601   MPKI: 38.2237
L2C LOAD      ACCESS:   12140260  HIT:    9938749  MISS:    2201511  HIT %:     81.866  MISS %:     18.134   MPKI: 11.0076
L2C DATA LOAD MPKI: 7.83642
L2C INSTRUCTION LOAD MPKI: 3.17113
L2C RFO       ACCESS:    3702384  HIT:     155779  MISS:    3546605  HIT %:    4.20753  MISS %:    95.7925   MPKI: 17.733
L2C PREFETCH  ACCESS:    1960005  HIT:     299066  MISS:    1660939  HIT %:    15.2584  MISS %:    84.7416   MPKI: 8.30469
AGUS PREFETCH L1 MISS: 0
L2C DATA PREFETCH MPKI: 8.30469
L2C INSTRUCTION PREFETCH MPKI: 0
L2C WRITEBACK ACCESS:    4351364  HIT:    4161717  MISS:     189647  HIT %:    95.6417  MISS %:    4.35833   MPKI: 0.948235
L2C LOAD TRANSLATION ACCESS:      94872  HIT:      48843  MISS:      46029  HIT %:    51.4831  MISS %:    48.5169   MPKI: 0.230145
L2C PREFETCH  REQUESTED:    2332940  ISSUED:    2332940  USEFUL:     804151  USELESS:     856990
L2C USEFUL LOAD PREFETCHES:     804151 PREFETCH ISSUED TO LOWER LEVEL:    2011669  ACCURACY: 39.9743
L2C TIMELY PREFETCHES:     804151 LATE PREFETCHES: 350730 DROPPED PREFETCHES: 0
L2C PREFETCHES SAME FILL-ORIGIN LEVEL: 2011669 DIFFERENT FILL-ORIGIN LEVEL: 0
L2C AVERAGE MISS LATENCY: 150.083 cycles
L2C RQ	ACCESS:   15937820	FORWARD:          0	MERGED:          0	TO_CACHE:   15937516
L2C WQ	ACCESS:    4351364	FORWARD:        306	MERGED:          0	TO_CACHE:    4351364
L2C PQ	ACCESS:    2332940	FORWARD:          0	MERGED:         77	TO_CACHE:    2332861

L2C Instructions Evicting Data 583330
L2C Translations Evicting Data 42324
L2C Data Evicting Data 6166613
L2C Instructions Evicting Instructions 47167
L2C Translations Evicting Instructions 3434
L2C Data Evicting Instructions 567032
L2C Instructions Evicting Translations 3729
L2C Translations Evicting Translations 271
L2C Data Evicting Translations 41184
L2C Dense regions hint from L2: 0
PSCL5 TOTAL     ACCESS:      81515  HIT:      81515  MISS:          0  HIT %:        100  MISS %:          0   MPKI: 0
PSCL5 LOAD TRANSLATION ACCESS:      81515  HIT:      81515  MISS:          0  HIT %:        100  MISS %:          0   MPKI: 0
PSCL5 PREFETCH  REQUESTED:          0  ISSUED:          0  USEFUL:          0  USELESS:          0
PSCL5 USEFUL LOAD PREFETCHES:          0 PREFETCH ISSUED TO LOWER LEVEL:          0  ACCURACY: -nan
PSCL5 TIMELY PREFETCHES:          0 LATE PREFETCHES: 0 DROPPED PREFETCHES: 0
PSCL5 PREFETCHES SAME FILL-ORIGIN LEVEL: 0 DIFFERENT FILL-ORIGIN LEVEL: 0

PSCL4 TOTAL     ACCESS:      78743  HIT:      78520  MISS:        223  HIT %:    99.7168  MISS %:     0.2832   MPKI: 0.001115
PSCL4 LOAD TRANSLATION ACCESS:      78743  HIT:      78520  MISS:        223  HIT %:    99.7168  MISS %:     0.2832   MPKI: 0.001115
PSCL4 PREFETCH  REQUESTED:          0  ISSUED:          0  USEFUL:          0  USELESS:          0
PSCL4 USEFUL LOAD PREFETCHES:          0 PREFETCH ISSUED TO LOWER LEVEL:          0  ACCURACY: -nan
PSCL4 TIMELY PREFETCHES:          0 LATE PREFETCHES: 0 DROPPED PREFETCHES: 0
PSCL4 PREFETCHES SAME FILL-ORIGIN LEVEL: 0 DIFFERENT FILL-ORIGIN LEVEL: 0

PSCL3 TOTAL     ACCESS:      76653  HIT:      75372  MISS:       1281  HIT %:    98.3288  MISS %:    1.67117   MPKI: 0.006405
PSCL3 LOAD TRANSLATION ACCESS:      76653  HIT:      75372  MISS:       1281  HIT %:    98.3288  MISS %:    1.67117   MPKI: 0.006405
PSCL3 PREFETCH  REQUESTED:          0  ISSUED:          0  USEFUL:          0  USELESS:          0
PSCL3 USEFUL LOAD PREFETCHES:          0 PREFETCH ISSUED TO LOWER LEVEL:          0  ACCURACY: -nan
PSCL3 TIMELY PREFETCHES:          0 LATE PREFETCHES: 0 DROPPED PREFETCHES: 0
PSCL3 PREFETCHES SAME FILL-ORIGIN LEVEL: 0 DIFFERENT FILL-ORIGIN LEVEL: 0

PSCL2 TOTAL     ACCESS:      81515  HIT:      69662  MISS:      11853  HIT %:    85.4591  MISS %:    14.5409   MPKI: 0.059265
PSCL2 LOAD TRANSLATION ACCESS:      81515  HIT:      69662  MISS:      11853  HIT %:    85.4591  MISS %:    14.5409   MPKI: 0.059265
PSCL2 PREFETCH  REQUESTED:          0  ISSUED:          0  USEFUL:          0  USELESS:          0
PSCL2 USEFUL LOAD PREFETCHES:          0 PREFETCH ISSUED TO LOWER LEVEL:          0  ACCURACY: -nan
PSCL2 TIMELY PREFETCHES:          0 LATE PREFETCHES: 0 DROPPED PREFETCHES: 0
PSCL2 PREFETCHES SAME FILL-ORIGIN LEVEL: 0 DIFFERENT FILL-ORIGIN LEVEL: 0

LLC TOTAL     ACCESS:   11544051  HIT:    4772585  MISS:    6771466  HIT %:    41.3424  MISS %:    58.6576   MPKI: 33.8573
LLC LOAD      ACCESS:    1850869  HIT:    1531357  MISS:     319512  HIT %:    82.7372  MISS %:    17.2628   MPKI: 1.59756
LLC RFO       ACCESS:    3546469  HIT:     956053  MISS:    2590416  HIT %:    26.9579  MISS %:    73.0421   MPKI: 12.9521
LLC PREFETCH  ACCESS:    2011669  HIT:     705913  MISS:    1305756  HIT %:    35.0909  MISS %:    64.9091   MPKI: 6.52878
AGUS PREFETCH L1 MISS: 0
LLC WRITEBACK ACCESS:    4089015  HIT:    1568449  MISS:    2520566  HIT %:    38.3576  MISS %:    61.6424   MPKI: 12.6028
LLC LOAD TRANSLATION ACCESS:      46029  HIT:      10813  MISS:      35216  HIT %:    23.4917  MISS %:    76.5083   MPKI: 0.17608
LLC PREFETCH  REQUESTED:          0  ISSUED:          0  USEFUL:       3484  USELESS:    1302563
LLC USEFUL LOAD PREFETCHES:       3484 PREFETCH ISSUED TO LOWER LEVEL:    1305756  ACCURACY: 0.266819
LLC TIMELY PREFETCHES:       3484 LATE PREFETCHES: 0 DROPPED PREFETCHES: 0
LLC PREFETCHES SAME FILL-ORIGIN LEVEL: 0 DIFFERENT FILL-ORIGIN LEVEL: 0
LLC AVERAGE MISS LATENCY: 140.889 cycles
LLC RQ	ACCESS:    5443415	FORWARD:          0	MERGED:          0	TO_CACHE:    5443367
LLC WQ	ACCESS:    4089015	FORWARD:         48	MERGED:          0	TO_CACHE:    4089015
LLC PQ	ACCESS:    2011669	FORWARD:          0	MERGED:          0	TO_CACHE:    2011669

LLC Dense regions hint to LLC: 0

RAW hits: 2380952
Loads Generated: 47592890
Loads sent to L1D: 45211936
Stores Generated: 34134585
Stores sent to L1D: 34134601
Major fault: 0 Minor fault: 9332
Allocated PAGES: 9332
CPU 0 L2C best offset prefetcher final stats

DRAM Statistics
 CHANNEL 0
 RQ ROW_BUFFER_HIT:    2315641  ROW_BUFFER_MISS:    1934766
 DBUS_CONGESTED:       2954
 WQ ROW_BUFFER_HIT:     532300  ROW_BUFFER_MISS:    2140722  FULL:      44421

 AVG_CONGESTED_CYCLE: 3
 All warmup complete: 2
Channel 0 Bank busy for read cycles: 0
Channel 0 Bank busy for write cycles: 0
Channel 0
Rank 0
0banks busy for read cycles: 152246843
0banks busy for write cycles: 246811
1banks busy for read cycles: 44513742
1banks busy for write cycles: 33165161
2banks busy for read cycles: 16777032
2banks busy for write cycles: 15329013
3banks busy for read cycles: 15722141
3banks busy for write cycles: 8052655
4banks busy for read cycles: 5379147
4banks busy for write cycles: 5125358
5banks busy for read cycles: 4625226
5banks busy for write cycles: 3892897
6banks busy for read cycles: 5976972
6banks busy for write cycles: 3642189
7banks busy for read cycles: 7446995
7banks busy for write cycles: 5792008
8banks busy for read cycles: 19614493
8banks busy for write cycles: 31826926

CPU 0 Branch Prediction Accuracy: 99.9446% MPKI: 0.08483 Average ROB Occupancy at Mispredict: 110.705
Branch types
NOT_BRANCH: 169380952 84.6905%
BRANCH_DIRECT_JUMP: 1657270 0.828635%
BRANCH_INDIRECT: 9945376 4.97269%
BRANCH_CONDITIONAL: 12193387 6.09669%
BRANCH_DIRECT_CALL: 2818310 1.40915%
BRANCH_INDIRECT_CALL: 593130 0.296565%
BRANCH_RETURN: 3411486 1.70574%
BRANCH_OTHER: 0 0%

DRAM PAGES: 1048576
Allocated PAGES: 9332
