
*** ChampSim Multicore Out-of-Order Simulator ***

Warmup Instructions: 50000000
Simulation Instructions: 200000000
Number of CPUs: 1
LLC sets: 2048
LLC ways: 16
Off-chip DRAM Size: 4096 MB Channels: 1 Width: 64-bit Data Rate: 6400 MT/s
CPU 0 runs traces/spec2k17/srv_2.champsimtrace.xz
.xz
BTB has LRU replacement policy
ITLB has LRU replacement policy
DTLB has LRU replacement policy
STLB has LRU replacement policy
L1I has LRU replacement policy
L1D has LRU replacement policy
CPU 0 L2C best offset prefetcher
Initialize SRRIP state for L2C
Initialize DRRIP state for LLC
Heartbeat CPU 0 instructions: 10000002 cycles: 2775126 heartbeat IPC: 3.60344 cumulative IPC: 3.60344 (Simulation time: 0 hr 0 min 34 sec) 
Heartbeat CPU 0 instructions: 20000002 cycles: 5542343 heartbeat IPC: 3.61374 cumulative IPC: 3.60858 (Simulation time: 0 hr 1 min 10 sec) 
Heartbeat CPU 0 instructions: 30000001 cycles: 8312024 heartbeat IPC: 3.61052 cumulative IPC: 3.60923 (Simulation time: 0 hr 1 min 42 sec) 
*** Reached end of trace for Core: 0 Repeating trace: traces/spec2k17/srv_2.champsimtrace.xz
Heartbeat CPU 0 instructions: 40000000 cycles: 11080325 heartbeat IPC: 3.61232 cumulative IPC: 3.61 (Simulation time: 0 hr 2 min 15 sec) 
Heartbeat CPU 0 instructions: 50000000 cycles: 13845653 heartbeat IPC: 3.61621 cumulative IPC: 3.61124 (Simulation time: 0 hr 2 min 46 sec) 

Warmup complete CPU 0 instructions: 50000004 cycles: 13845654 (Simulation time: 0 hr 2 min 46 sec) 

Heartbeat CPU 0 instructions: 60000000 cycles: 36473674 heartbeat IPC: 0.44193 cumulative IPC: 0.44193 (Simulation time: 0 hr 3 min 35 sec) 
*** Reached end of trace for Core: 0 Repeating trace: traces/spec2k17/srv_2.champsimtrace.xz
Heartbeat CPU 0 instructions: 70000000 cycles: 58864155 heartbeat IPC: 0.446618 cumulative IPC: 0.444262 (Simulation time: 0 hr 4 min 25 sec) 
Heartbeat CPU 0 instructions: 80000001 cycles: 80648449 heartbeat IPC: 0.459046 cumulative IPC: 0.449083 (Simulation time: 0 hr 5 min 15 sec) 
Heartbeat CPU 0 instructions: 90000000 cycles: 103231267 heartbeat IPC: 0.442814 cumulative IPC: 0.447499 (Simulation time: 0 hr 6 min 6 sec) 
*** Reached end of trace for Core: 0 Repeating trace: traces/spec2k17/srv_2.champsimtrace.xz
Heartbeat CPU 0 instructions: 100000000 cycles: 125505284 heartbeat IPC: 0.448954 cumulative IPC: 0.447789 (Simulation time: 0 hr 6 min 58 sec) 
Heartbeat CPU 0 instructions: 110000000 cycles: 147341143 heartbeat IPC: 0.457962 cumulative IPC: 0.449453 (Simulation time: 0 hr 7 min 51 sec) 
Heartbeat CPU 0 instructions: 120000001 cycles: 169473736 heartbeat IPC: 0.451822 cumulative IPC: 0.44979 (Simulation time: 0 hr 8 min 45 sec) 
*** Reached end of trace for Core: 0 Repeating trace: traces/spec2k17/srv_2.champsimtrace.xz
Heartbeat CPU 0 instructions: 130000001 cycles: 192305251 heartbeat IPC: 0.437991 cumulative IPC: 0.448281 (Simulation time: 0 hr 9 min 38 sec) 
Heartbeat CPU 0 instructions: 140000000 cycles: 214068542 heartbeat IPC: 0.459489 cumulative IPC: 0.449499 (Simulation time: 0 hr 10 min 28 sec) 
Heartbeat CPU 0 instructions: 150000001 cycles: 236267090 heartbeat IPC: 0.45048 cumulative IPC: 0.449597 (Simulation time: 0 hr 11 min 18 sec) 
*** Reached end of trace for Core: 0 Repeating trace: traces/spec2k17/srv_2.champsimtrace.xz
Heartbeat CPU 0 instructions: 160000002 cycles: 258759775 heartbeat IPC: 0.444589 cumulative IPC: 0.449137 (Simulation time: 0 hr 12 min 10 sec) 
Heartbeat CPU 0 instructions: 170000001 cycles: 280821160 heartbeat IPC: 0.453281 cumulative IPC: 0.449479 (Simulation time: 0 hr 13 min 1 sec) 
Heartbeat CPU 0 instructions: 180000000 cycles: 302977266 heartbeat IPC: 0.451343 cumulative IPC: 0.449622 (Simulation time: 0 hr 13 min 54 sec) 
*** Reached end of trace for Core: 0 Repeating trace: traces/spec2k17/srv_2.champsimtrace.xz
Heartbeat CPU 0 instructions: 190000000 cycles: 325554503 heartbeat IPC: 0.442924 cumulative IPC: 0.449137 (Simulation time: 0 hr 14 min 47 sec) 
Heartbeat CPU 0 instructions: 200000000 cycles: 347516570 heartbeat IPC: 0.455331 cumulative IPC: 0.449545 (Simulation time: 0 hr 15 min 38 sec) 
Heartbeat CPU 0 instructions: 210000000 cycles: 369176732 heartbeat IPC: 0.461677 cumulative IPC: 0.450284 (Simulation time: 0 hr 16 min 28 sec) 
*** Reached end of trace for Core: 0 Repeating trace: traces/spec2k17/srv_2.champsimtrace.xz
Heartbeat CPU 0 instructions: 220000000 cycles: 392045950 heartbeat IPC: 0.437269 cumulative IPC: 0.449497 (Simulation time: 0 hr 17 min 22 sec) 
Heartbeat CPU 0 instructions: 230000002 cycles: 414143704 heartbeat IPC: 0.452535 cumulative IPC: 0.449665 (Simulation time: 0 hr 18 min 14 sec) 
Heartbeat CPU 0 instructions: 240000002 cycles: 435875409 heartbeat IPC: 0.460157 cumulative IPC: 0.450205 (Simulation time: 0 hr 19 min 5 sec) 
*** Reached end of trace for Core: 0 Repeating trace: traces/spec2k17/srv_2.champsimtrace.xz
Heartbeat CPU 0 instructions: 250000002 cycles: 458651800 heartbeat IPC: 0.439051 cumulative IPC: 0.449634 (Simulation time: 0 hr 19 min 58 sec) 
Finished CPU 0 instructions: 200000002 cycles: 444806147 cumulative IPC: 0.449634 (Simulation time: 0 hr 19 min 58 sec) 

ChampSim completed all CPUs

Region of Interest Statistics

CPU 0 cumulative IPC: 0.449634 instructions: 200000002 cycles: 444806147
ITLB TOTAL     ACCESS:   31281022  HIT:   30502277  MISS:     778745  HIT %:    97.5105  MISS %:    2.48951   MPKI: 3.89372
ITLB LOAD TRANSLATION ACCESS:   31281022  HIT:   30502277  MISS:     778745  HIT %:    97.5105  MISS %:    2.48951   MPKI: 3.89372
ITLB PREFETCH  REQUESTED:          0  ISSUED:          0  USEFUL:          0  USELESS:          0
ITLB USEFUL LOAD PREFETCHES:          0 PREFETCH ISSUED TO LOWER LEVEL:          0  ACCURACY: -nan
ITLB TIMELY PREFETCHES:          0 LATE PREFETCHES: 0 DROPPED PREFETCHES: 0
ITLB PREFETCHES SAME FILL-ORIGIN LEVEL: 0 DIFFERENT FILL-ORIGIN LEVEL: 0
ITLB AVERAGE MISS LATENCY: 14.0016 cycles
ITLB RQ	ACCESS:   38366244	FORWARD:          0	MERGED:    6890885	TO_CACHE:   31475359

DTLB TOTAL     ACCESS:   37323963  HIT:   34729424  MISS:    2594539  HIT %:    93.0486  MISS %:     6.9514   MPKI: 12.9727
DTLB LOAD TRANSLATION ACCESS:   37323963  HIT:   34729424  MISS:    2594539  HIT %:    93.0486  MISS %:     6.9514   MPKI: 12.9727
DTLB PREFETCH  REQUESTED:          0  ISSUED:          0  USEFUL:          0  USELESS:          0
DTLB USEFUL LOAD PREFETCHES:          0 PREFETCH ISSUED TO LOWER LEVEL:          0  ACCURACY: -nan
DTLB TIMELY PREFETCHES:          0 LATE PREFETCHES: 0 DROPPED PREFETCHES: 0
DTLB PREFETCHES SAME FILL-ORIGIN LEVEL: 0 DIFFERENT FILL-ORIGIN LEVEL: 0
DTLB AVERAGE MISS LATENCY: 14.05 cycles
DTLB RQ	ACCESS:   47729397	FORWARD:          0	MERGED:   10263110	TO_CACHE:   37466287

STLB TOTAL     ACCESS:    3373284  HIT:    3039176  MISS:     334108  HIT %:    90.0955  MISS %:    9.90453   MPKI: 1.67054
STLB LOAD TRANSLATION ACCESS:    3373284  HIT:    3039176  MISS:     334108  HIT %:    90.0955  MISS %:    9.90453   MPKI: 1.67054
STLB PREFETCH  REQUESTED:          0  ISSUED:          0  USEFUL:          0  USELESS:          0
STLB USEFUL LOAD PREFETCHES:          0 PREFETCH ISSUED TO LOWER LEVEL:          0  ACCURACY: -nan
STLB TIMELY PREFETCHES:          0 LATE PREFETCHES: 0 DROPPED PREFETCHES: 0
STLB PREFETCHES SAME FILL-ORIGIN LEVEL: 0 DIFFERENT FILL-ORIGIN LEVEL: 0
STLB AVERAGE MISS LATENCY: 50.6295 cycles
STLB RQ	ACCESS:    3373284	FORWARD:          0	MERGED:          0	TO_CACHE:    3373284

STLB Hit, L1D data hit: 0
STLB Hit, L2C data hit: 0
STLB Hit, LLC data hit: 0
STLB Hit, LLC data miss: 0
STLB STLB hints to L2: 0
L1D TOTAL     ACCESS:   47260583  HIT:   44809332  MISS:    2451251  HIT %:    94.8133  MISS %:    5.18667   MPKI: 12.2563
L1D LOAD      ACCESS:   27686390  HIT:   25572447  MISS:    2113943  HIT %:    92.3647  MISS %:    7.63531   MPKI: 10.5697
L1D RFO       ACCESS:   19574193  HIT:   19236885  MISS:     337308  HIT %:    98.2768  MISS %:    1.72323   MPKI: 1.68654
L1D PREFETCH  REQUESTED:          0  ISSUED:          0  USEFUL:          0  USELESS:          0
L1D USEFUL LOAD PREFETCHES:          0 PREFETCH ISSUED TO LOWER LEVEL:          0  ACCURACY: -nan
L1D TIMELY PREFETCHES:          0 LATE PREFETCHES: 0 DROPPED PREFETCHES: 0
L1D PREFETCHES SAME FILL-ORIGIN LEVEL: 0 DIFFERENT FILL-ORIGIN LEVEL: 0
L1D AVERAGE MISS LATENCY: 33.2213 cycles
L1D RQ	ACCESS:   42293943	FORWARD:          0	MERGED:   14270203	TO_CACHE:   27775190
L1D WQ	ACCESS:   20224318	FORWARD:     248550	MERGED:     270111	TO_CACHE:   19954207

L1D UNIQUE REGIONS ACCESSED: 0
L1D REGIONS CONFLICTS: 0
L1D Cross Page Prefetch Requests: 0
L1D Same Page Prefetch Requests: 0
L1D ROI Sum of L1D PQ occupancy: 0
L1D PREFETCHES PUSHED FROM L2C: 0
L1I TOTAL     ACCESS:   36556565  HIT:   31408277  MISS:    5148288  HIT %:    85.9169  MISS %:    14.0831   MPKI: 25.7414
L1I LOAD      ACCESS:   36556565  HIT:   31408277  MISS:    5148288  HIT %:    85.9169  MISS %:    14.0831   MPKI: 25.7414
L1I PREFETCH  REQUESTED:          0  ISSUED:          0  USEFUL:          0  USELESS:          0
L1I USEFUL LOAD PREFETCHES:          0 PREFETCH ISSUED TO LOWER LEVEL:          0  ACCURACY: -nan
L1I TIMELY PREFETCHES:          0 LATE PREFETCHES: 0 DROPPED PREFETCHES: 0
L1I PREFETCHES SAME FILL-ORIGIN LEVEL: 0 DIFFERENT FILL-ORIGIN LEVEL: 0
L1I AVERAGE MISS LATENCY: 26.658 cycles
L1I RQ	ACCESS:   57169818	FORWARD:          0	MERGED:   18803574	TO_CACHE:   38366244

BTB TOTAL     ACCESS:   22017286  HIT:   17637200  MISS:    4380086  HIT %:    80.1061  MISS %:    19.8939   MPKI: 21.9004
BTB BRANCH_DIRECT_JUMP	ACCESS:    1737856  HIT:    1493758  MISS:     244098
BTB BRANCH_INDIRECT	ACCESS:    9415712  HIT:    7279334  MISS:    2136378
BTB BRANCH_CONDITIONAL	ACCESS:    4567442  HIT:    4164173  MISS:     403269
BTB BRANCH_DIRECT_CALL	ACCESS:    2474421  HIT:    1994045  MISS:     480376
BTB BRANCH_INDIRECT_CALL	ACCESS:     673221  HIT:     632799  MISS:      40422
BTB BRANCH_RETURN	ACCESS:    3148634  HIT:    2073091  MISS:    1075543
BTB BRANCH_OTHER ACCESS:          0  HIT:          0  MISS:          0

L2C TOTAL     ACCESS:    9947144  HIT:    6100702  MISS:    3846442  HIT %:    61.3312  MISS %:    38.6688   MPKI: 19.2322
L2C LOAD      ACCESS:    7262045  HIT:    4530126  MISS:    2731919  HIT %:    62.3809  MISS %:    37.6191   MPKI: 13.6596
L2C DATA LOAD MPKI: 3.65601
L2C INSTRUCTION LOAD MPKI: 10.0036
L2C RFO       ACCESS:     337308  HIT:     203536  MISS:     133772  HIT %:    60.3413  MISS %:    39.6587   MPKI: 0.66886
L2C PREFETCH  ACCESS:     897775  HIT:     149891  MISS:     747884  HIT %:    16.6958  MISS %:    83.3042   MPKI: 3.73942
AGUS PREFETCH L1 MISS: 0
L2C DATA PREFETCH MPKI: 3.73942
L2C INSTRUCTION PREFETCH MPKI: 0
L2C WRITEBACK ACCESS:    1008787  HIT:     971097  MISS:      37690  HIT %:    96.2638  MISS %:    3.73617   MPKI: 0.18845
L2C LOAD TRANSLATION ACCESS:     441229  HIT:     246052  MISS:     195177  HIT %:    55.7651  MISS %:    44.2349   MPKI: 0.975885
L2C PREFETCH  REQUESTED:     944808  ISSUED:     944808  USEFUL:     231406  USELESS:     516422
L2C USEFUL LOAD PREFETCHES:     231406 PREFETCH ISSUED TO LOWER LEVEL:     767359  ACCURACY: 30.1562
L2C TIMELY PREFETCHES:     231406 LATE PREFETCHES: 19475 DROPPED PREFETCHES: 0
L2C PREFETCHES SAME FILL-ORIGIN LEVEL: 767359 DIFFERENT FILL-ORIGIN LEVEL: 0
L2C AVERAGE MISS LATENCY: 45.9148 cycles
L2C RQ	ACCESS:    8040769	FORWARD:          0	MERGED:          0	TO_CACHE:    8040582
L2C WQ	ACCESS:    1008787	FORWARD:        187	MERGED:          0	TO_CACHE:    1008787
L2C PQ	ACCESS:     944808	FORWARD:          0	MERGED:          3	TO_CACHE:     944805

L2C Instructions Evicting Data 835351
L2C Translations Evicting Data 88223
L2C Data Evicting Data 710677
L2C Instructions Evicting Instructions 1070074
L2C Translations Evicting Instructions 95737
L2C Data Evicting Instructions 815166
L2C Instructions Evicting Translations 95291
L2C Translations Evicting Translations 11217
L2C Data Evicting Translations 87016
L2C Dense regions hint from L2: 0
PSCL5 TOTAL     ACCESS:     334108  HIT:     334108  MISS:          0  HIT %:        100  MISS %:          0   MPKI: 0
PSCL5 LOAD TRANSLATION ACCESS:     334108  HIT:     334108  MISS:          0  HIT %:        100  MISS %:          0   MPKI: 0
PSCL5 PREFETCH  REQUESTED:          0  ISSUED:          0  USEFUL:          0  USELESS:          0
PSCL5 USEFUL LOAD PREFETCHES:          0 PREFETCH ISSUED TO LOWER LEVEL:          0  ACCURACY: -nan
PSCL5 TIMELY PREFETCHES:          0 LATE PREFETCHES: 0 DROPPED PREFETCHES: 0
PSCL5 PREFETCHES SAME FILL-ORIGIN LEVEL: 0 DIFFERENT FILL-ORIGIN LEVEL: 0

PSCL4 TOTAL     ACCESS:     315353  HIT:     314952  MISS:        401  HIT %:    99.8728  MISS %:   0.127159   MPKI: 0.002005
PSCL4 LOAD TRANSLATION ACCESS:     315353  HIT:     314952  MISS:        401  HIT %:    99.8728  MISS %:   0.127159   MPKI: 0.002005
PSCL4 PREFETCH  REQUESTED:          0  ISSUED:          0  USEFUL:          0  USELESS:          0
PSCL4 USEFUL LOAD PREFETCHES:          0 PREFETCH ISSUED TO LOWER LEVEL:          0  ACCURACY: -nan
PSCL4 TIMELY PREFETCHES:          0 LATE PREFETCHES: 0 DROPPED PREFETCHES: 0
PSCL4 PREFETCHES SAME FILL-ORIGIN LEVEL: 0 DIFFERENT FILL-ORIGIN LEVEL: 0

PSCL3 TOTAL     ACCESS:     333184  HIT:     332380  MISS:        804  HIT %:    99.7587  MISS %:   0.241308   MPKI: 0.00402
PSCL3 LOAD TRANSLATION ACCESS:     333184  HIT:     332380  MISS:        804  HIT %:    99.7587  MISS %:   0.241308   MPKI: 0.00402
PSCL3 PREFETCH  REQUESTED:          0  ISSUED:          0  USEFUL:          0  USELESS:          0
PSCL3 USEFUL LOAD PREFETCHES:          0 PREFETCH ISSUED TO LOWER LEVEL:          0  ACCURACY: -nan
PSCL3 TIMELY PREFETCHES:          0 LATE PREFETCHES: 0 DROPPED PREFETCHES: 0
PSCL3 PREFETCHES SAME FILL-ORIGIN LEVEL: 0 DIFFERENT FILL-ORIGIN LEVEL: 0

PSCL2 TOTAL     ACCESS:     334108  HIT:     228192  MISS:     105916  HIT %:    68.2989  MISS %:    31.7011   MPKI: 0.52958
PSCL2 LOAD TRANSLATION ACCESS:     334108  HIT:     228192  MISS:     105916  HIT %:    68.2989  MISS %:    31.7011   MPKI: 0.52958
PSCL2 PREFETCH  REQUESTED:          0  ISSUED:          0  USEFUL:          0  USELESS:          0
PSCL2 USEFUL LOAD PREFETCHES:          0 PREFETCH ISSUED TO LOWER LEVEL:          0  ACCURACY: -nan
PSCL2 TIMELY PREFETCHES:          0 LATE PREFETCHES: 0 DROPPED PREFETCHES: 0
PSCL2 PREFETCHES SAME FILL-ORIGIN LEVEL: 0 DIFFERENT FILL-ORIGIN LEVEL: 0

LLC TOTAL     ACCESS:    4249236  HIT:    3815225  MISS:     434011  HIT %:    89.7861  MISS %:    10.2139   MPKI: 2.17005
LLC LOAD      ACCESS:    2712826  HIT:    2598879  MISS:     113947  HIT %:    95.7997  MISS %:    4.20031   MPKI: 0.569735
LLC RFO       ACCESS:     133389  HIT:      94305  MISS:      39084  HIT %:    70.6992  MISS %:    29.3008   MPKI: 0.19542
LLC PREFETCH  ACCESS:     767359  HIT:     506593  MISS:     260766  HIT %:    66.0177  MISS %:    33.9823   MPKI: 1.30383
AGUS PREFETCH L1 MISS: 0
LLC WRITEBACK ACCESS:     440485  HIT:     437377  MISS:       3108  HIT %:    99.2944  MISS %:   0.705586   MPKI: 0.01554
LLC LOAD TRANSLATION ACCESS:     195177  HIT:     178071  MISS:      17106  HIT %:    91.2356  MISS %:    8.76435   MPKI: 0.08553
LLC PREFETCH  REQUESTED:          0  ISSUED:          0  USEFUL:       8812  USELESS:     252585
LLC USEFUL LOAD PREFETCHES:       8812 PREFETCH ISSUED TO LOWER LEVEL:     260766  ACCURACY: 3.37927
LLC TIMELY PREFETCHES:       8812 LATE PREFETCHES: 0 DROPPED PREFETCHES: 0
LLC PREFETCHES SAME FILL-ORIGIN LEVEL: 0 DIFFERENT FILL-ORIGIN LEVEL: 0
LLC AVERAGE MISS LATENCY: 146.878 cycles
LLC RQ	ACCESS:    3041393	FORWARD:          0	MERGED:          0	TO_CACHE:    3041392
LLC WQ	ACCESS:     440485	FORWARD:          1	MERGED:          0	TO_CACHE:     440485
LLC PQ	ACCESS:     767359	FORWARD:          0	MERGED:          0	TO_CACHE:     767359

LLC Dense regions hint to LLC: 0

RAW hits: 2579247
Loads Generated: 44873189
Loads sent to L1D: 42293943
Stores Generated: 20224314
Stores sent to L1D: 20224318
Major fault: 0 Minor fault: 6527
Allocated PAGES: 6527
CPU 0 L2C best offset prefetcher final stats

DRAM Statistics
 CHANNEL 0
 RQ ROW_BUFFER_HIT:     105984  ROW_BUFFER_MISS:     324919
 DBUS_CONGESTED:        285
 WQ ROW_BUFFER_HIT:      43159  ROW_BUFFER_MISS:     184091  FULL:          0

 AVG_CONGESTED_CYCLE: 4
 All warmup complete: 2
Channel 0 Bank busy for read cycles: 0
Channel 0 Bank busy for write cycles: 0
Channel 0
Rank 0
0banks busy for read cycles: 381143742
0banks busy for write cycles: 107435
1banks busy for read cycles: 28556437
1banks busy for write cycles: 14856490
2banks busy for read cycles: 8115569
2banks busy for write cycles: 3988006
3banks busy for read cycles: 1659268
3banks busy for write cycles: 1742090
4banks busy for read cycles: 606719
4banks busy for write cycles: 1176684
5banks busy for read cycles: 165730
5banks busy for write cycles: 883815
6banks busy for read cycles: 69472
6banks busy for write cycles: 671493
7banks busy for read cycles: 37353
7banks busy for write cycles: 533081
8banks busy for read cycles: 42420
8banks busy for write cycles: 450344

CPU 0 Branch Prediction Accuracy: 99.8118% MPKI: 0.33607 Average ROB Occupancy at Mispredict: 38.5792
Branch types
NOT_BRANCH: 164293646 82.1468%
BRANCH_DIRECT_JUMP: 1737856 0.868928%
BRANCH_INDIRECT: 9415712 4.70786%
BRANCH_CONDITIONAL: 18256214 9.12811%
BRANCH_DIRECT_CALL: 2474421 1.23721%
BRANCH_INDIRECT_CALL: 673221 0.33661%
BRANCH_RETURN: 3148634 1.57432%
BRANCH_OTHER: 0 0%

DRAM PAGES: 1048576
Allocated PAGES: 6527
