
*** ChampSim Multicore Out-of-Order Simulator ***

Warmup Instructions: 50000000
Simulation Instructions: 200000000
Number of CPUs: 1
LLC sets: 2048
LLC ways: 16
Off-chip DRAM Size: 4096 MB Channels: 1 Width: 64-bit Data Rate: 6400 MT/s
CPU 0 runs traces/spec2k17/srv_12.champsimtrace.xz
.xz
BTB has LRU replacement policy
ITLB has LRU replacement policy
DTLB has LRU replacement policy
STLB has LRU replacement policy
L1I has LRU replacement policy
L1D has LRU replacement policy
CPU 0 L2C best offset prefetcher
Initialize SRRIP state for L2C
Initialize DRRIP state for LLC
Heartbeat CPU 0 instructions: 10000002 cycles: 2817150 heartbeat IPC: 3.54969 cumulative IPC: 3.54969 (Simulation time: 0 hr 0 min 33 sec) 
Heartbeat CPU 0 instructions: 20000001 cycles: 5630315 heartbeat IPC: 3.55471 cumulative IPC: 3.5522 (Simulation time: 0 hr 1 min 6 sec) 
Heartbeat CPU 0 instructions: 30000002 cycles: 8440461 heartbeat IPC: 3.55853 cumulative IPC: 3.55431 (Simulation time: 0 hr 1 min 39 sec) 
*** Reached end of trace for Core: 0 Repeating trace: traces/spec2k17/srv_12.champsimtrace.xz
Heartbeat CPU 0 instructions: 40000001 cycles: 11249833 heartbeat IPC: 3.55951 cumulative IPC: 3.55561 (Simulation time: 0 hr 2 min 12 sec) 
Heartbeat CPU 0 instructions: 50000000 cycles: 14062231 heartbeat IPC: 3.55568 cumulative IPC: 3.55562 (Simulation time: 0 hr 2 min 44 sec) 

Warmup complete CPU 0 instructions: 50000004 cycles: 14062232 (Simulation time: 0 hr 2 min 44 sec) 

Heartbeat CPU 0 instructions: 60000001 cycles: 44382022 heartbeat IPC: 0.329818 cumulative IPC: 0.329818 (Simulation time: 0 hr 3 min 45 sec) 
*** Reached end of trace for Core: 0 Repeating trace: traces/spec2k17/srv_12.champsimtrace.xz
Heartbeat CPU 0 instructions: 70000000 cycles: 74852201 heartbeat IPC: 0.32819 cumulative IPC: 0.329002 (Simulation time: 0 hr 4 min 40 sec) 
Heartbeat CPU 0 instructions: 80000001 cycles: 105268654 heartbeat IPC: 0.328769 cumulative IPC: 0.328924 (Simulation time: 0 hr 5 min 37 sec) 
Heartbeat CPU 0 instructions: 90000003 cycles: 135621141 heartbeat IPC: 0.329462 cumulative IPC: 0.329059 (Simulation time: 0 hr 6 min 33 sec) 
*** Reached end of trace for Core: 0 Repeating trace: traces/spec2k17/srv_12.champsimtrace.xz
Heartbeat CPU 0 instructions: 100000000 cycles: 166289351 heartbeat IPC: 0.32607 cumulative IPC: 0.328457 (Simulation time: 0 hr 7 min 28 sec) 
Heartbeat CPU 0 instructions: 110000000 cycles: 196685415 heartbeat IPC: 0.32899 cumulative IPC: 0.328545 (Simulation time: 0 hr 8 min 24 sec) 
Heartbeat CPU 0 instructions: 120000003 cycles: 226804974 heartbeat IPC: 0.33201 cumulative IPC: 0.329036 (Simulation time: 0 hr 9 min 17 sec) 
*** Reached end of trace for Core: 0 Repeating trace: traces/spec2k17/srv_12.champsimtrace.xz
Heartbeat CPU 0 instructions: 130000003 cycles: 257546842 heartbeat IPC: 0.325289 cumulative IPC: 0.328563 (Simulation time: 0 hr 10 min 13 sec) 
Heartbeat CPU 0 instructions: 140000003 cycles: 287982460 heartbeat IPC: 0.328562 cumulative IPC: 0.328563 (Simulation time: 0 hr 11 min 8 sec) 
Heartbeat CPU 0 instructions: 150000001 cycles: 318153448 heartbeat IPC: 0.331444 cumulative IPC: 0.328849 (Simulation time: 0 hr 12 min 1 sec) 
*** Reached end of trace for Core: 0 Repeating trace: traces/spec2k17/srv_12.champsimtrace.xz
Heartbeat CPU 0 instructions: 160000001 cycles: 348716859 heartbeat IPC: 0.327189 cumulative IPC: 0.328697 (Simulation time: 0 hr 12 min 56 sec) 
Heartbeat CPU 0 instructions: 170000001 cycles: 379087078 heartbeat IPC: 0.32927 cumulative IPC: 0.328745 (Simulation time: 0 hr 13 min 49 sec) 
Heartbeat CPU 0 instructions: 180000001 cycles: 409395449 heartbeat IPC: 0.329942 cumulative IPC: 0.328837 (Simulation time: 0 hr 14 min 42 sec) 
*** Reached end of trace for Core: 0 Repeating trace: traces/spec2k17/srv_12.champsimtrace.xz
Heartbeat CPU 0 instructions: 190000002 cycles: 439882634 heartbeat IPC: 0.328007 cumulative IPC: 0.328777 (Simulation time: 0 hr 15 min 38 sec) 
Heartbeat CPU 0 instructions: 200000001 cycles: 469989481 heartbeat IPC: 0.33215 cumulative IPC: 0.329 (Simulation time: 0 hr 16 min 34 sec) 
Heartbeat CPU 0 instructions: 210000003 cycles: 500333738 heartbeat IPC: 0.329552 cumulative IPC: 0.329034 (Simulation time: 0 hr 17 min 29 sec) 
*** Reached end of trace for Core: 0 Repeating trace: traces/spec2k17/srv_12.champsimtrace.xz
Heartbeat CPU 0 instructions: 220000000 cycles: 530884345 heartbeat IPC: 0.327326 cumulative IPC: 0.328933 (Simulation time: 0 hr 18 min 23 sec) 
Heartbeat CPU 0 instructions: 230000001 cycles: 561252052 heartbeat IPC: 0.329297 cumulative IPC: 0.328953 (Simulation time: 0 hr 19 min 16 sec) 
Heartbeat CPU 0 instructions: 240000000 cycles: 591565631 heartbeat IPC: 0.329885 cumulative IPC: 0.329002 (Simulation time: 0 hr 20 min 12 sec) 
*** Reached end of trace for Core: 0 Repeating trace: traces/spec2k17/srv_12.champsimtrace.xz
Heartbeat CPU 0 instructions: 250000000 cycles: 621916288 heartbeat IPC: 0.329482 cumulative IPC: 0.329026 (Simulation time: 0 hr 21 min 8 sec) 
Finished CPU 0 instructions: 200000002 cycles: 607854060 cumulative IPC: 0.329026 (Simulation time: 0 hr 21 min 8 sec) 

ChampSim completed all CPUs

Region of Interest Statistics

CPU 0 cumulative IPC: 0.329026 instructions: 200000002 cycles: 607854060
ITLB TOTAL     ACCESS:   34561225  HIT:   32663064  MISS:    1898161  HIT %:    94.5078  MISS %:    5.49217   MPKI: 9.4908
ITLB LOAD TRANSLATION ACCESS:   34561225  HIT:   32663064  MISS:    1898161  HIT %:    94.5078  MISS %:    5.49217   MPKI: 9.4908
ITLB PREFETCH  REQUESTED:          0  ISSUED:          0  USEFUL:          0  USELESS:          0
ITLB USEFUL LOAD PREFETCHES:          0 PREFETCH ISSUED TO LOWER LEVEL:          0  ACCURACY: -nan
ITLB TIMELY PREFETCHES:          0 LATE PREFETCHES: 0 DROPPED PREFETCHES: 0
ITLB PREFETCHES SAME FILL-ORIGIN LEVEL: 0 DIFFERENT FILL-ORIGIN LEVEL: 0
ITLB AVERAGE MISS LATENCY: 9.03645 cycles
ITLB RQ	ACCESS:   40437908	FORWARD:          0	MERGED:    5417014	TO_CACHE:   35020894

DTLB TOTAL     ACCESS:   45377192  HIT:   43523330  MISS:    1853862  HIT %:    95.9146  MISS %:    4.08545   MPKI: 9.26931
DTLB LOAD TRANSLATION ACCESS:   45377192  HIT:   43523330  MISS:    1853862  HIT %:    95.9146  MISS %:    4.08545   MPKI: 9.26931
DTLB PREFETCH  REQUESTED:          0  ISSUED:          0  USEFUL:          0  USELESS:          0
DTLB USEFUL LOAD PREFETCHES:          0 PREFETCH ISSUED TO LOWER LEVEL:          0  ACCURACY: -nan
DTLB TIMELY PREFETCHES:          0 LATE PREFETCHES: 0 DROPPED PREFETCHES: 0
DTLB PREFETCHES SAME FILL-ORIGIN LEVEL: 0 DIFFERENT FILL-ORIGIN LEVEL: 0
DTLB AVERAGE MISS LATENCY: 9.20247 cycles
DTLB RQ	ACCESS:   59940126	FORWARD:          0	MERGED:   14499274	TO_CACHE:   45440852

STLB TOTAL     ACCESS:    3752023  HIT:    3742726  MISS:       9297  HIT %:    99.7522  MISS %:   0.247786   MPKI: 0.046485
STLB LOAD TRANSLATION ACCESS:    3752023  HIT:    3742726  MISS:       9297  HIT %:    99.7522  MISS %:   0.247786   MPKI: 0.046485
STLB PREFETCH  REQUESTED:          0  ISSUED:          0  USEFUL:          0  USELESS:          0
STLB USEFUL LOAD PREFETCHES:          0 PREFETCH ISSUED TO LOWER LEVEL:          0  ACCURACY: -nan
STLB TIMELY PREFETCHES:          0 LATE PREFETCHES: 0 DROPPED PREFETCHES: 0
STLB PREFETCHES SAME FILL-ORIGIN LEVEL: 0 DIFFERENT FILL-ORIGIN LEVEL: 0
STLB AVERAGE MISS LATENCY: 45.0438 cycles
STLB RQ	ACCESS:    3752023	FORWARD:          0	MERGED:          0	TO_CACHE:    3752023

STLB Hit, L1D data hit: 0
STLB Hit, L2C data hit: 0
STLB Hit, LLC data hit: 0
STLB Hit, LLC data miss: 0
STLB STLB hints to L2: 0
L1D TOTAL     ACCESS:   58166019  HIT:   54157155  MISS:    4008864  HIT %:    93.1079  MISS %:    6.89211   MPKI: 20.0443
L1D LOAD      ACCESS:   33629093  HIT:   30715014  MISS:    2914079  HIT %:    91.3346  MISS %:    8.66535   MPKI: 14.5704
L1D RFO       ACCESS:   24536926  HIT:   23442141  MISS:    1094785  HIT %:    95.5382  MISS %:    4.46179   MPKI: 5.47392
L1D PREFETCH  REQUESTED:          0  ISSUED:          0  USEFUL:          0  USELESS:          0
L1D USEFUL LOAD PREFETCHES:          0 PREFETCH ISSUED TO LOWER LEVEL:          0  ACCURACY: -nan
L1D TIMELY PREFETCHES:          0 LATE PREFETCHES: 0 DROPPED PREFETCHES: 0
L1D PREFETCHES SAME FILL-ORIGIN LEVEL: 0 DIFFERENT FILL-ORIGIN LEVEL: 0
L1D AVERAGE MISS LATENCY: 20.2292 cycles
L1D RQ	ACCESS:   46854306	FORWARD:          0	MERGED:   12821269	TO_CACHE:   33735971
L1D WQ	ACCESS:   26377432	FORWARD:     297066	MERGED:     173277	TO_CACHE:   26204155

L1D UNIQUE REGIONS ACCESSED: 0
L1D REGIONS CONFLICTS: 0
L1D Cross Page Prefetch Requests: 0
L1D Same Page Prefetch Requests: 0
L1D ROI Sum of L1D PQ occupancy: 0
L1D PREFETCHES PUSHED FROM L2C: 0
L1I TOTAL     ACCESS:   38994655  HIT:   29091691  MISS:    9902964  HIT %:    74.6043  MISS %:    25.3957   MPKI: 49.5148
L1I LOAD      ACCESS:   38994655  HIT:   29091691  MISS:    9902964  HIT %:    74.6043  MISS %:    25.3957   MPKI: 49.5148
L1I PREFETCH  REQUESTED:          0  ISSUED:          0  USEFUL:          0  USELESS:          0
L1I USEFUL LOAD PREFETCHES:          0 PREFETCH ISSUED TO LOWER LEVEL:          0  ACCURACY: -nan
L1I TIMELY PREFETCHES:          0 LATE PREFETCHES: 0 DROPPED PREFETCHES: 0
L1I PREFETCHES SAME FILL-ORIGIN LEVEL: 0 DIFFERENT FILL-ORIGIN LEVEL: 0
L1I AVERAGE MISS LATENCY: 16.8267 cycles
L1I RQ	ACCESS:   57847990	FORWARD:          0	MERGED:   17410082	TO_CACHE:   40437908

BTB TOTAL     ACCESS:   30343266  HIT:   18703041  MISS:   11640225  HIT %:    61.6382  MISS %:    38.3618   MPKI: 58.2011
BTB BRANCH_DIRECT_JUMP	ACCESS:    2169196  HIT:    1357881  MISS:     811315
BTB BRANCH_INDIRECT	ACCESS:   11477795  HIT:    7107158  MISS:    4370637
BTB BRANCH_CONDITIONAL	ACCESS:    8505201  HIT:    7327634  MISS:    1177567
BTB BRANCH_DIRECT_CALL	ACCESS:    3457228  HIT:    1544444  MISS:    1912784
BTB BRANCH_INDIRECT_CALL	ACCESS:     638342  HIT:     254235  MISS:     384107
BTB BRANCH_RETURN	ACCESS:    4095504  HIT:    1111689  MISS:    2983815
BTB BRANCH_OTHER ACCESS:          0  HIT:          0  MISS:          0

L2C TOTAL     ACCESS:   16170086  HIT:   14430791  MISS:    1739295  HIT %:    89.2437  MISS %:    10.7563   MPKI: 8.69647
L2C LOAD      ACCESS:   12817037  HIT:   11548943  MISS:    1268094  HIT %:    90.1062  MISS %:    9.89382   MPKI: 6.34047
L2C DATA LOAD MPKI: 1.84939
L2C INSTRUCTION LOAD MPKI: 4.49108
L2C RFO       ACCESS:    1094784  HIT:     919766  MISS:     175018  HIT %:    84.0135  MISS %:    15.9865   MPKI: 0.87509
L2C PREFETCH  ACCESS:     383955  HIT:     147061  MISS:     236894  HIT %:    38.3016  MISS %:    61.6984   MPKI: 1.18447
AGUS PREFETCH L1 MISS: 0
L2C DATA PREFETCH MPKI: 1.18447
L2C INSTRUCTION PREFETCH MPKI: 0
L2C WRITEBACK ACCESS:    1864370  HIT:    1811757  MISS:      52613  HIT %:     97.178  MISS %:    2.82203   MPKI: 0.263065
L2C LOAD TRANSLATION ACCESS:       9940  HIT:       3264  MISS:       6676  HIT %:     32.837  MISS %:     67.163   MPKI: 0.03338
L2C PREFETCH  REQUESTED:     406415  ISSUED:     406415  USEFUL:      53255  USELESS:     183511
L2C USEFUL LOAD PREFETCHES:      53255 PREFETCH ISSUED TO LOWER LEVEL:     254051  ACCURACY: 20.9623
L2C TIMELY PREFETCHES:      53255 LATE PREFETCHES: 17157 DROPPED PREFETCHES: 0
L2C PREFETCHES SAME FILL-ORIGIN LEVEL: 254051 DIFFERENT FILL-ORIGIN LEVEL: 0
L2C AVERAGE MISS LATENCY: 34.0644 cycles
L2C RQ	ACCESS:   13921768	FORWARD:          0	MERGED:          0	TO_CACHE:   13921761
L2C WQ	ACCESS:    1864370	FORWARD:          7	MERGED:          0	TO_CACHE:    1864370
L2C PQ	ACCESS:     406415	FORWARD:          0	MERGED:          0	TO_CACHE:     406415

L2C Instructions Evicting Data 381868
L2C Translations Evicting Data 4774
L2C Data Evicting Data 424720
L2C Instructions Evicting Instructions 514517
L2C Translations Evicting Instructions 1839
L2C Data Evicting Instructions 352349
L2C Instructions Evicting Translations 1831
L2C Translations Evicting Translations 63
L2C Data Evicting Translations 4721
L2C Dense regions hint from L2: 0
PSCL5 TOTAL     ACCESS:       9297  HIT:       9297  MISS:          0  HIT %:        100  MISS %:          0   MPKI: 0
PSCL5 LOAD TRANSLATION ACCESS:       9297  HIT:       9297  MISS:          0  HIT %:        100  MISS %:          0   MPKI: 0
PSCL5 PREFETCH  REQUESTED:          0  ISSUED:          0  USEFUL:          0  USELESS:          0
PSCL5 USEFUL LOAD PREFETCHES:          0 PREFETCH ISSUED TO LOWER LEVEL:          0  ACCURACY: -nan
PSCL5 TIMELY PREFETCHES:          0 LATE PREFETCHES: 0 DROPPED PREFETCHES: 0
PSCL5 PREFETCHES SAME FILL-ORIGIN LEVEL: 0 DIFFERENT FILL-ORIGIN LEVEL: 0

PSCL4 TOTAL     ACCESS:       8684  HIT:       8653  MISS:         31  HIT %:     99.643  MISS %:   0.356978   MPKI: 0.000155
PSCL4 LOAD TRANSLATION ACCESS:       8684  HIT:       8653  MISS:         31  HIT %:     99.643  MISS %:   0.356978   MPKI: 0.000155
PSCL4 PREFETCH  REQUESTED:          0  ISSUED:          0  USEFUL:          0  USELESS:          0
PSCL4 USEFUL LOAD PREFETCHES:          0 PREFETCH ISSUED TO LOWER LEVEL:          0  ACCURACY: -nan
PSCL4 TIMELY PREFETCHES:          0 LATE PREFETCHES: 0 DROPPED PREFETCHES: 0
PSCL4 PREFETCHES SAME FILL-ORIGIN LEVEL: 0 DIFFERENT FILL-ORIGIN LEVEL: 0

PSCL3 TOTAL     ACCESS:       9243  HIT:       9212  MISS:         31  HIT %:    99.6646  MISS %:   0.335389   MPKI: 0.000155
PSCL3 LOAD TRANSLATION ACCESS:       9243  HIT:       9212  MISS:         31  HIT %:    99.6646  MISS %:   0.335389   MPKI: 0.000155
PSCL3 PREFETCH  REQUESTED:          0  ISSUED:          0  USEFUL:          0  USELESS:          0
PSCL3 USEFUL LOAD PREFETCHES:          0 PREFETCH ISSUED TO LOWER LEVEL:          0  ACCURACY: -nan
PSCL3 TIMELY PREFETCHES:          0 LATE PREFETCHES: 0 DROPPED PREFETCHES: 0
PSCL3 PREFETCHES SAME FILL-ORIGIN LEVEL: 0 DIFFERENT FILL-ORIGIN LEVEL: 0

PSCL2 TOTAL     ACCESS:       9297  HIT:       8716  MISS:        581  HIT %:    93.7507  MISS %:    6.24933   MPKI: 0.002905
PSCL2 LOAD TRANSLATION ACCESS:       9297  HIT:       8716  MISS:        581  HIT %:    93.7507  MISS %:    6.24933   MPKI: 0.002905
PSCL2 PREFETCH  REQUESTED:          0  ISSUED:          0  USEFUL:          0  USELESS:          0
PSCL2 USEFUL LOAD PREFETCHES:          0 PREFETCH ISSUED TO LOWER LEVEL:          0  ACCURACY: -nan
PSCL2 TIMELY PREFETCHES:          0 LATE PREFETCHES: 0 DROPPED PREFETCHES: 0
PSCL2 PREFETCHES SAME FILL-ORIGIN LEVEL: 0 DIFFERENT FILL-ORIGIN LEVEL: 0

LLC TOTAL     ACCESS:    1949143  HIT:    1889608  MISS:      59535  HIT %:    96.9456  MISS %:    3.05442   MPKI: 0.297675
LLC LOAD      ACCESS:    1250947  HIT:    1240305  MISS:      10642  HIT %:    99.1493  MISS %:   0.850715   MPKI: 0.05321
LLC RFO       ACCESS:     175004  HIT:     155800  MISS:      19204  HIT %:    89.0265  MISS %:    10.9735   MPKI: 0.09602
LLC PREFETCH  ACCESS:     254050  HIT:     225077  MISS:      28973  HIT %:    88.5956  MISS %:    11.4044   MPKI: 0.144865
AGUS PREFETCH L1 MISS: 0
LLC WRITEBACK ACCESS:     262466  HIT:     261940  MISS:        526  HIT %:    99.7996  MISS %:   0.200407   MPKI: 0.00263
LLC LOAD TRANSLATION ACCESS:       6676  HIT:       6486  MISS:        190  HIT %:     97.154  MISS %:    2.84602   MPKI: 0.00095
LLC PREFETCH  REQUESTED:          0  ISSUED:          0  USEFUL:       2912  USELESS:      21444
LLC USEFUL LOAD PREFETCHES:       2912 PREFETCH ISSUED TO LOWER LEVEL:      28973  ACCURACY: 10.0507
LLC TIMELY PREFETCHES:       2912 LATE PREFETCHES: 0 DROPPED PREFETCHES: 0
LLC PREFETCHES SAME FILL-ORIGIN LEVEL: 0 DIFFERENT FILL-ORIGIN LEVEL: 0
LLC AVERAGE MISS LATENCY: 152.156 cycles
LLC RQ	ACCESS:    1432631	FORWARD:          0	MERGED:          0	TO_CACHE:    1432627
LLC WQ	ACCESS:     262466	FORWARD:          5	MERGED:          0	TO_CACHE:     262466
LLC PQ	ACCESS:     254051	FORWARD:          0	MERGED:          0	TO_CACHE:     254050

LLC Dense regions hint to LLC: 0

RAW hits: 1391762
Loads Generated: 48246069
Loads sent to L1D: 46854306
Stores Generated: 26377415
Stores sent to L1D: 26377432
Major fault: 0 Minor fault: 1862
Allocated PAGES: 1862
CPU 0 L2C best offset prefetcher final stats

DRAM Statistics
 CHANNEL 0
 RQ ROW_BUFFER_HIT:      15802  ROW_BUFFER_MISS:      43140
 DBUS_CONGESTED:         52
 WQ ROW_BUFFER_HIT:       2108  ROW_BUFFER_MISS:      22586  FULL:          0

 AVG_CONGESTED_CYCLE: 5
 All warmup complete: 2
Channel 0 Bank busy for read cycles: 0
Channel 0 Bank busy for write cycles: 0
Channel 0
Rank 0
0banks busy for read cycles: 601507515
0banks busy for write cycles: 10666
1banks busy for read cycles: 2853157
1banks busy for write cycles: 1315576
2banks busy for read cycles: 738431
2banks busy for write cycles: 306494
3banks busy for read cycles: 248219
3banks busy for write cycles: 144163
4banks busy for read cycles: 164187
4banks busy for write cycles: 92170
5banks busy for read cycles: 111397
5banks busy for write cycles: 64643
6banks busy for read cycles: 76449
6banks busy for write cycles: 42879
7banks busy for read cycles: 43624
7banks busy for write cycles: 37422
8banks busy for read cycles: 27625
8banks busy for write cycles: 69444

CPU 0 Branch Prediction Accuracy: 99.8469% MPKI: 0.27084 Average ROB Occupancy at Mispredict: 54.5406
Branch types
NOT_BRANCH: 164615243 82.3076%
BRANCH_DIRECT_JUMP: 2169196 1.0846%
BRANCH_INDIRECT: 11477795 5.7389%
BRANCH_CONDITIONAL: 13546570 6.77328%
BRANCH_DIRECT_CALL: 3457228 1.72861%
BRANCH_INDIRECT_CALL: 638342 0.319171%
BRANCH_RETURN: 4095504 2.04775%
BRANCH_OTHER: 0 0%

DRAM PAGES: 1048576
Allocated PAGES: 1862
