
*** ChampSim Multicore Out-of-Order Simulator ***

Warmup Instructions: 50000000
Simulation Instructions: 200000000
Number of CPUs: 1
LLC sets: 2048
LLC ways: 16
Off-chip DRAM Size: 4096 MB Channels: 1 Width: 64-bit Data Rate: 6400 MT/s
CPU 0 runs traces/spec2k17/server_035.champsimtrace.xz
.xz
BTB has LRU replacement policy
ITLB has LRU replacement policy
DTLB has LRU replacement policy
STLB has LRU replacement policy
L1I has LRU replacement policy
Bingo PHT WAYS: 16 and PHT_SIZE: 16384
L1D has LRU replacement policy
Initialize SRRIP state for L2C
Initialize DRRIP state for LLC
Heartbeat CPU 0 instructions: 10000003 cycles: 2815101 heartbeat IPC: 3.55227 cumulative IPC: 3.55227 (Simulation time: 0 hr 0 min 18 sec) 
Heartbeat CPU 0 instructions: 20000000 cycles: 5629002 heartbeat IPC: 3.55378 cumulative IPC: 3.55303 (Simulation time: 0 hr 0 min 36 sec) 
Heartbeat CPU 0 instructions: 30000002 cycles: 8441383 heartbeat IPC: 3.55571 cumulative IPC: 3.55392 (Simulation time: 0 hr 0 min 55 sec) 
Heartbeat CPU 0 instructions: 40000003 cycles: 11256889 heartbeat IPC: 3.55176 cumulative IPC: 3.55338 (Simulation time: 0 hr 1 min 13 sec) 
Heartbeat CPU 0 instructions: 50000000 cycles: 14069641 heartbeat IPC: 3.55524 cumulative IPC: 3.55375 (Simulation time: 0 hr 1 min 31 sec) 

Warmup complete CPU 0 instructions: 50000004 cycles: 14069642 (Simulation time: 0 hr 1 min 31 sec) 

Heartbeat CPU 0 instructions: 60000000 cycles: 40528806 heartbeat IPC: 0.377941 cumulative IPC: 0.377941 (Simulation time: 0 hr 2 min 6 sec) 
Heartbeat CPU 0 instructions: 70000001 cycles: 67317530 heartbeat IPC: 0.373291 cumulative IPC: 0.375602 (Simulation time: 0 hr 2 min 43 sec) 
Heartbeat CPU 0 instructions: 80000000 cycles: 93815628 heartbeat IPC: 0.377386 cumulative IPC: 0.376194 (Simulation time: 0 hr 3 min 18 sec) 
Heartbeat CPU 0 instructions: 90000000 cycles: 120731194 heartbeat IPC: 0.371532 cumulative IPC: 0.375018 (Simulation time: 0 hr 4 min 1 sec) 
Heartbeat CPU 0 instructions: 100000000 cycles: 147175883 heartbeat IPC: 0.378148 cumulative IPC: 0.37564 (Simulation time: 0 hr 4 min 58 sec) 
*** Reached end of trace for Core: 0 Repeating trace: traces/spec2k17/server_035.champsimtrace.xz
Heartbeat CPU 0 instructions: 110000000 cycles: 173943991 heartbeat IPC: 0.373579 cumulative IPC: 0.375295 (Simulation time: 0 hr 5 min 55 sec) 
Heartbeat CPU 0 instructions: 120000002 cycles: 200394550 heartbeat IPC: 0.378064 cumulative IPC: 0.375688 (Simulation time: 0 hr 6 min 53 sec) 
Heartbeat CPU 0 instructions: 130000001 cycles: 227210770 heartbeat IPC: 0.372909 cumulative IPC: 0.375338 (Simulation time: 0 hr 7 min 50 sec) 
Heartbeat CPU 0 instructions: 140000000 cycles: 254157568 heartbeat IPC: 0.371102 cumulative IPC: 0.374863 (Simulation time: 0 hr 8 min 49 sec) 
Heartbeat CPU 0 instructions: 150000001 cycles: 280645285 heartbeat IPC: 0.377534 cumulative IPC: 0.375128 (Simulation time: 0 hr 9 min 45 sec) 
Heartbeat CPU 0 instructions: 160000000 cycles: 307339785 heartbeat IPC: 0.374609 cumulative IPC: 0.375081 (Simulation time: 0 hr 10 min 43 sec) 
Heartbeat CPU 0 instructions: 170000000 cycles: 333731247 heartbeat IPC: 0.37891 cumulative IPC: 0.375397 (Simulation time: 0 hr 11 min 41 sec) 
Heartbeat CPU 0 instructions: 180000000 cycles: 360203830 heartbeat IPC: 0.377749 cumulative IPC: 0.375577 (Simulation time: 0 hr 12 min 38 sec) 
Heartbeat CPU 0 instructions: 190000000 cycles: 386969245 heartbeat IPC: 0.373616 cumulative IPC: 0.375436 (Simulation time: 0 hr 13 min 36 sec) 
Heartbeat CPU 0 instructions: 200000000 cycles: 413533176 heartbeat IPC: 0.37645 cumulative IPC: 0.375504 (Simulation time: 0 hr 14 min 33 sec) 
*** Reached end of trace for Core: 0 Repeating trace: traces/spec2k17/server_035.champsimtrace.xz
Heartbeat CPU 0 instructions: 210000000 cycles: 440370065 heartbeat IPC: 0.372621 cumulative IPC: 0.375322 (Simulation time: 0 hr 15 min 31 sec) 
Heartbeat CPU 0 instructions: 220000000 cycles: 466746751 heartbeat IPC: 0.379123 cumulative IPC: 0.375544 (Simulation time: 0 hr 16 min 28 sec) 
Heartbeat CPU 0 instructions: 230000000 cycles: 493582291 heartbeat IPC: 0.37264 cumulative IPC: 0.375381 (Simulation time: 0 hr 17 min 23 sec) 
Heartbeat CPU 0 instructions: 240000002 cycles: 520044695 heartbeat IPC: 0.377895 cumulative IPC: 0.375513 (Simulation time: 0 hr 17 min 59 sec) 
Heartbeat CPU 0 instructions: 250000000 cycles: 546977622 heartbeat IPC: 0.371293 cumulative IPC: 0.375299 (Simulation time: 0 hr 18 min 36 sec) 
Finished CPU 0 instructions: 200000002 cycles: 532908030 cumulative IPC: 0.375299 (Simulation time: 0 hr 18 min 36 sec) 

ChampSim completed all CPUs

Region of Interest Statistics

CPU 0 cumulative IPC: 0.375299 instructions: 200000002 cycles: 532908030
ITLB TOTAL     ACCESS:   35614627  HIT:   33570365  MISS:    2044262  HIT %:      94.26  MISS %:    5.73995   MPKI: 10.2213
ITLB LOAD TRANSLATION ACCESS:   35614627  HIT:   33570365  MISS:    2044262  HIT %:      94.26  MISS %:    5.73995   MPKI: 10.2213
ITLB PREFETCH  REQUESTED:          0  ISSUED:          0  USEFUL:          0  USELESS:          0
ITLB USEFUL LOAD PREFETCHES:          0 PREFETCH ISSUED TO LOWER LEVEL:          0  ACCURACY: -nan
ITLB TIMELY PREFETCHES:          0 LATE PREFETCHES: 0 DROPPED PREFETCHES: 0
ITLB PREFETCHES SAME FILL-ORIGIN LEVEL: 0 DIFFERENT FILL-ORIGIN LEVEL: 0
ITLB AVERAGE MISS LATENCY: 9.0905 cycles
ITLB RQ	ACCESS:   41305473	FORWARD:          0	MERGED:    5233637	TO_CACHE:   36071836

DTLB TOTAL     ACCESS:   39454820  HIT:   37731580  MISS:    1723240  HIT %:    95.6324  MISS %:    4.36763   MPKI: 8.6162
DTLB LOAD TRANSLATION ACCESS:   39454820  HIT:   37731580  MISS:    1723240  HIT %:    95.6324  MISS %:    4.36763   MPKI: 8.6162
DTLB PREFETCH  REQUESTED:          0  ISSUED:          0  USEFUL:          0  USELESS:          0
DTLB USEFUL LOAD PREFETCHES:          0 PREFETCH ISSUED TO LOWER LEVEL:          0  ACCURACY: -nan
DTLB TIMELY PREFETCHES:          0 LATE PREFETCHES: 0 DROPPED PREFETCHES: 0
DTLB PREFETCHES SAME FILL-ORIGIN LEVEL: 0 DIFFERENT FILL-ORIGIN LEVEL: 0
DTLB AVERAGE MISS LATENCY: 10.0284 cycles
DTLB RQ	ACCESS:   55056884	FORWARD:          0	MERGED:   15536911	TO_CACHE:   39519973

STLB TOTAL     ACCESS:    4810173  HIT:    4776169  MISS:      34004  HIT %:    99.2931  MISS %:   0.706918   MPKI: 0.17002
STLB LOAD TRANSLATION ACCESS:    3767502  HIT:    3733498  MISS:      34004  HIT %:    99.0974  MISS %:   0.902561   MPKI: 0.17002
STLB TRANSLATION FROM L1D PREFETCHER ACCESS:    1042671  HIT:    1042671  MISS:          0  HIT %:        100  MISS %:          0   MPKI: 0
STLB PREFETCH  REQUESTED:          0  ISSUED:          0  USEFUL:          0  USELESS:          0
STLB USEFUL LOAD PREFETCHES:          0 PREFETCH ISSUED TO LOWER LEVEL:          0  ACCURACY: -nan
STLB TIMELY PREFETCHES:          0 LATE PREFETCHES: 0 DROPPED PREFETCHES: 0
STLB PREFETCHES SAME FILL-ORIGIN LEVEL: 0 DIFFERENT FILL-ORIGIN LEVEL: 0
STLB AVERAGE MISS LATENCY: 56.2092 cycles
STLB RQ	ACCESS:    7461336	FORWARD:          0	MERGED:    2651163	TO_CACHE:    4810173

STLB Hit, L1D data hit: 0
STLB Hit, L2C data hit: 0
STLB Hit, LLC data hit: 0
STLB Hit, LLC data miss: 0
STLB STLB hints to L2: 0
L1D TOTAL     ACCESS:   58256777  HIT:   55384278  MISS:    2872499  HIT %:    95.0692  MISS %:    4.93076   MPKI: 14.3625
L1D LOAD      ACCESS:   30316145  HIT:   29215344  MISS:    1100801  HIT %:    96.3689  MISS %:    3.63107   MPKI: 5.504
L1D RFO       ACCESS:   24602196  HIT:   24393894  MISS:     208302  HIT %:    99.1533  MISS %:   0.846681   MPKI: 1.04151
L1D PREFETCH  ACCESS:    3338436  HIT:    1775040  MISS:    1563396  HIT %:    53.1698  MISS %:    46.8302   MPKI: 7.81698
AGUS PREFETCH L1 MISS: 0
L1D PREFETCH  REQUESTED:    7388052  ISSUED:    7388052  USEFUL:    1313169  USELESS:     250215
L1D USEFUL LOAD PREFETCHES:    1313169 PREFETCH ISSUED TO LOWER LEVEL:    1795612  ACCURACY: 73.1321
L1D TIMELY PREFETCHES:    1313169 LATE PREFETCHES: 18374 DROPPED PREFETCHES: 0
L1D PREFETCHES SAME FILL-ORIGIN LEVEL: 1583961 DIFFERENT FILL-ORIGIN LEVEL: 211651
L1D AVERAGE MISS LATENCY: 1.97737e+06 cycles
L1D RQ	ACCESS:   43448332	FORWARD:          0	MERGED:   12773124	TO_CACHE:   30338794
L1D WQ	ACCESS:   24970645	FORWARD:     336774	MERGED:     252555	TO_CACHE:   24718090
L1D PQ	ACCESS:    3694218	FORWARD:          0	MERGED:         24	TO_CACHE:    3693834

L1D UNIQUE REGIONS ACCESSED: 0
L1D REGIONS CONFLICTS: 0
L1D Cross Page Prefetch Requests: 0
L1D Same Page Prefetch Requests: 4560671
L1D ROI Sum of L1D PQ occupancy: 53192411
L1D PREFETCHES PUSHED FROM L2C: 0
L1I TOTAL     ACCESS:   38652596  HIT:   25866174  MISS:   12786422  HIT %:    66.9196  MISS %:    33.0804   MPKI: 63.9321
L1I LOAD      ACCESS:   38652596  HIT:   25866174  MISS:   12786422  HIT %:    66.9196  MISS %:    33.0804   MPKI: 63.9321
L1I PREFETCH  REQUESTED:          0  ISSUED:          0  USEFUL:          0  USELESS:          0
L1I USEFUL LOAD PREFETCHES:          0 PREFETCH ISSUED TO LOWER LEVEL:          0  ACCURACY: -nan
L1I TIMELY PREFETCHES:          0 LATE PREFETCHES: 0 DROPPED PREFETCHES: 0
L1I PREFETCHES SAME FILL-ORIGIN LEVEL: 0 DIFFERENT FILL-ORIGIN LEVEL: 0
L1I AVERAGE MISS LATENCY: 14.4125 cycles
L1I RQ	ACCESS:   60994627	FORWARD:          0	MERGED:   19689154	TO_CACHE:   41305473

BTB TOTAL     ACCESS:   31158250  HIT:   22772680  MISS:    8385570  HIT %:    73.0872  MISS %:    26.9128   MPKI: 41.9278
BTB BRANCH_DIRECT_JUMP	ACCESS:    2947353  HIT:    2315064  MISS:     632289
BTB BRANCH_INDIRECT	ACCESS:   13078898  HIT:    9492314  MISS:    3586584
BTB BRANCH_CONDITIONAL	ACCESS:    5413262  HIT:    4750583  MISS:     662679
BTB BRANCH_DIRECT_CALL	ACCESS:    4056170  HIT:    3104100  MISS:     952070
BTB BRANCH_INDIRECT_CALL	ACCESS:     803174  HIT:     456636  MISS:     346538
BTB BRANCH_RETURN	ACCESS:    4859393  HIT:    2653983  MISS:    2205410
BTB BRANCH_OTHER ACCESS:          0  HIT:          0  MISS:          0

L2C TOTAL     ACCESS:   16882457  HIT:   16051581  MISS:     830876  HIT %:    95.0785  MISS %:    4.92153   MPKI: 4.15438
L2C LOAD      ACCESS:   13868803  HIT:   13605871  MISS:     262932  HIT %:    98.1041  MISS %:    1.89585   MPKI: 1.31466
L2C DATA LOAD MPKI: 1.06049
L2C INSTRUCTION LOAD MPKI: 0.25417
L2C RFO       ACCESS:     206093  HIT:     156338  MISS:      49755  HIT %:     75.858  MISS %:     24.142   MPKI: 0.248775
L2C PREFETCH  ACCESS:    1793751  HIT:    1303098  MISS:     490653  HIT %:    72.6465  MISS %:    27.3535   MPKI: 2.45326
AGUS PREFETCH L1 MISS: 0
L2C DATA PREFETCH MPKI: 2.45326
L2C INSTRUCTION PREFETCH MPKI: 0
L2C WRITEBACK ACCESS:     977351  HIT:     965059  MISS:      12292  HIT %:    98.7423  MISS %:    1.25769   MPKI: 0.06146
L2C LOAD TRANSLATION ACCESS:      36459  HIT:      21215  MISS:      15244  HIT %:    58.1887  MISS %:    41.8113   MPKI: 0.07622
L2C PREFETCH  REQUESTED:          0  ISSUED:          0  USEFUL:     111217  USELESS:     379360
L2C USEFUL LOAD PREFETCHES:     111217 PREFETCH ISSUED TO LOWER LEVEL:     492430  ACCURACY: 22.5853
L2C TIMELY PREFETCHES:     111217 LATE PREFETCHES: 1777 DROPPED PREFETCHES: 0
L2C PREFETCHES SAME FILL-ORIGIN LEVEL: 151849 DIFFERENT FILL-ORIGIN LEVEL: 0
L2C AVERAGE MISS LATENCY: 164.491 cycles
L2C RQ	ACCESS:   14111421	FORWARD:          0	MERGED:          0	TO_CACHE:   14111357
L2C WQ	ACCESS:     977351	FORWARD:        114	MERGED:          0	TO_CACHE:     977351
L2C PQ	ACCESS:    1795612	FORWARD:          0	MERGED:          0	TO_CACHE:    1795562

L2C Instructions Evicting Data 36573
L2C Translations Evicting Data 14294
L2C Data Evicting Data 703229
L2C Instructions Evicting Instructions 13847
L2C Translations Evicting Instructions 628
L2C Data Evicting Instructions 34962
L2C Instructions Evicting Translations 414
L2C Translations Evicting Translations 322
L2C Data Evicting Translations 14315
L2C Dense regions hint from L2: 0
PSCL5 TOTAL     ACCESS:      34004  HIT:      34004  MISS:          0  HIT %:        100  MISS %:          0   MPKI: 0
PSCL5 LOAD TRANSLATION ACCESS:      34004  HIT:      34004  MISS:          0  HIT %:        100  MISS %:          0   MPKI: 0
PSCL5 PREFETCH  REQUESTED:          0  ISSUED:          0  USEFUL:          0  USELESS:          0
PSCL5 USEFUL LOAD PREFETCHES:          0 PREFETCH ISSUED TO LOWER LEVEL:          0  ACCURACY: -nan
PSCL5 TIMELY PREFETCHES:          0 LATE PREFETCHES: 0 DROPPED PREFETCHES: 0
PSCL5 PREFETCHES SAME FILL-ORIGIN LEVEL: 0 DIFFERENT FILL-ORIGIN LEVEL: 0

PSCL4 TOTAL     ACCESS:      32329  HIT:      32267  MISS:         62  HIT %:    99.8082  MISS %:   0.191778   MPKI: 0.00031
PSCL4 LOAD TRANSLATION ACCESS:      32329  HIT:      32267  MISS:         62  HIT %:    99.8082  MISS %:   0.191778   MPKI: 0.00031
PSCL4 PREFETCH  REQUESTED:          0  ISSUED:          0  USEFUL:          0  USELESS:          0
PSCL4 USEFUL LOAD PREFETCHES:          0 PREFETCH ISSUED TO LOWER LEVEL:          0  ACCURACY: -nan
PSCL4 TIMELY PREFETCHES:          0 LATE PREFETCHES: 0 DROPPED PREFETCHES: 0
PSCL4 PREFETCHES SAME FILL-ORIGIN LEVEL: 0 DIFFERENT FILL-ORIGIN LEVEL: 0

PSCL3 TOTAL     ACCESS:      33097  HIT:      32972  MISS:        125  HIT %:    99.6223  MISS %:   0.377678   MPKI: 0.000625
PSCL3 LOAD TRANSLATION ACCESS:      33097  HIT:      32972  MISS:        125  HIT %:    99.6223  MISS %:   0.377678   MPKI: 0.000625
PSCL3 PREFETCH  REQUESTED:          0  ISSUED:          0  USEFUL:          0  USELESS:          0
PSCL3 USEFUL LOAD PREFETCHES:          0 PREFETCH ISSUED TO LOWER LEVEL:          0  ACCURACY: -nan
PSCL3 TIMELY PREFETCHES:          0 LATE PREFETCHES: 0 DROPPED PREFETCHES: 0
PSCL3 PREFETCHES SAME FILL-ORIGIN LEVEL: 0 DIFFERENT FILL-ORIGIN LEVEL: 0

PSCL2 TOTAL     ACCESS:      34004  HIT:      31734  MISS:       2270  HIT %:    93.3243  MISS %:    6.67569   MPKI: 0.01135
PSCL2 LOAD TRANSLATION ACCESS:      34004  HIT:      31734  MISS:       2270  HIT %:    93.3243  MISS %:    6.67569   MPKI: 0.01135
PSCL2 PREFETCH  REQUESTED:          0  ISSUED:          0  USEFUL:          0  USELESS:          0
PSCL2 USEFUL LOAD PREFETCHES:          0 PREFETCH ISSUED TO LOWER LEVEL:          0  ACCURACY: -nan
PSCL2 TIMELY PREFETCHES:          0 LATE PREFETCHES: 0 DROPPED PREFETCHES: 0
PSCL2 PREFETCHES SAME FILL-ORIGIN LEVEL: 0 DIFFERENT FILL-ORIGIN LEVEL: 0

LLC TOTAL     ACCESS:    1179347  HIT:     544922  MISS:     634425  HIT %:    46.2054  MISS %:    53.7946   MPKI: 3.17212
LLC LOAD      ACCESS:     261305  HIT:      74583  MISS:     186722  HIT %:    28.5425  MISS %:    71.4575   MPKI: 0.93361
LLC RFO       ACCESS:      49605  HIT:       9853  MISS:      39752  HIT %:    19.8629  MISS %:    80.1371   MPKI: 0.19876
LLC PREFETCH  ACCESS:     492430  HIT:      93825  MISS:     398605  HIT %:    19.0535  MISS %:    80.9465   MPKI: 1.99302
AGUS PREFETCH L1 MISS: 0
LLC WRITEBACK ACCESS:     360763  HIT:     355245  MISS:       5518  HIT %:    98.4705  MISS %:    1.52954   MPKI: 0.02759
LLC LOAD TRANSLATION ACCESS:      15244  HIT:      11416  MISS:       3828  HIT %:    74.8885  MISS %:    25.1115   MPKI: 0.01914
LLC PREFETCH  REQUESTED:          0  ISSUED:          0  USEFUL:      11188  USELESS:     390144
LLC USEFUL LOAD PREFETCHES:      11188 PREFETCH ISSUED TO LOWER LEVEL:     398605  ACCURACY: 2.80679
LLC TIMELY PREFETCHES:      11188 LATE PREFETCHES: 0 DROPPED PREFETCHES: 0
LLC PREFETCHES SAME FILL-ORIGIN LEVEL: 0 DIFFERENT FILL-ORIGIN LEVEL: 0
LLC AVERAGE MISS LATENCY: 176.792 cycles
LLC RQ	ACCESS:     326154	FORWARD:          0	MERGED:          0	TO_CACHE:     326154
LLC WQ	ACCESS:     360763	FORWARD:          0	MERGED:          0	TO_CACHE:     360763
LLC PQ	ACCESS:     492430	FORWARD:          0	MERGED:          0	TO_CACHE:     492430

LLC Dense regions hint to LLC: 0

RAW hits: 2718758
Loads Generated: 46167090
Loads sent to L1D: 43448332
Stores Generated: 24970644
Stores sent to L1D: 24970645
Major fault: 0 Minor fault: 5644
Allocated PAGES: 5644
[Bingo] PHT Access: 1368391
[Bingo] PHT Hit PC+Addr: 844529
[Bingo] PHT Hit PC+Offs: 153278
[Bingo] PHT Miss: 370584
[Bingo] Prefetch PC+Addr: 0
[Bingo] Prefetch PC+Offs: 0
[Bingo] Useful PC+Addr: 0
[Bingo] Useful PC+Offs: 0
[Bingo] Useless PC+Addr: 0
[Bingo] Useless PC+Offs: 0
[Bingo] L1 Prefetch per Region: 4.46346
[Bingo] L2 Prefetch per Region: 0.264644
[Bingo] L3 Prefetch per Region: 0
[Bingo] No Prefetch per Region: 27.2719
[Bingo] Number of Voters Mean: 10.0728
[Bingo] Number of Voters SD: 7.83294
PHT read accesses: 11106346
PHT write accesses: 806556
AT read accesses: 26450961
AT write accesses: 26485968
FT read accesses: 9236806
FT write accesses: 1368391
PS read accesses: 2064212
PS write accesses: 997807
PHT tag read accesses: 26066107
PHT tag write accesses: 1651085
AT tag read accesses: 563085830
AT tag write accesses: 27257521
FT tag read accesses: 182195824
FT tag write accesses: 6507642
PS tag read accesses: 518715139
PS tag write accesses: 3057075

DRAM Statistics
 CHANNEL 0
 RQ ROW_BUFFER_HIT:     182093  ROW_BUFFER_MISS:     446799
 DBUS_CONGESTED:        647
 WQ ROW_BUFFER_HIT:      34430  ROW_BUFFER_MISS:     266219  FULL:          0

 AVG_CONGESTED_CYCLE: 3
 All warmup complete: 2
Channel 0 Bank busy for read cycles: 0
Channel 0 Bank busy for write cycles: 0
Channel 0
Rank 0
0banks busy for read cycles: 480876698
0banks busy for write cycles: 85009
1banks busy for read cycles: 15987689
1banks busy for write cycles: 9717447
2banks busy for read cycles: 4551681
2banks busy for write cycles: 3633094
3banks busy for read cycles: 3295097
3banks busy for write cycles: 2074031
4banks busy for read cycles: 2336631
4banks busy for write cycles: 1266286
5banks busy for read cycles: 1239255
5banks busy for write cycles: 1044684
6banks busy for read cycles: 1002813
6banks busy for write cycles: 1088853
7banks busy for read cycles: 1710648
7banks busy for write cycles: 1097849
8banks busy for read cycles: 975853
8banks busy for write cycles: 924413

CPU 0 Branch Prediction Accuracy: 99.9574% MPKI: 0.07907 Average ROB Occupancy at Mispredict: 18.174
Branch types
NOT_BRANCH: 162853576 81.4268%
BRANCH_DIRECT_JUMP: 2947353 1.47368%
BRANCH_INDIRECT: 13078898 6.53945%
BRANCH_CONDITIONAL: 11401392 5.7007%
BRANCH_DIRECT_CALL: 4056170 2.02808%
BRANCH_INDIRECT_CALL: 803174 0.401587%
BRANCH_RETURN: 4859393 2.4297%
BRANCH_OTHER: 0 0%

DRAM PAGES: 1048576
Allocated PAGES: 5644
