
*** ChampSim Multicore Out-of-Order Simulator ***

Warmup Instructions: 50000000
Simulation Instructions: 200000000
Number of CPUs: 1
LLC sets: 2048
LLC ways: 16
Off-chip DRAM Size: 4096 MB Channels: 1 Width: 64-bit Data Rate: 6400 MT/s
CPU 0 runs traces/spec2k17/server_028.champsimtrace.xz
.xz
BTB has LRU replacement policy
ITLB has LRU replacement policy
DTLB has LRU replacement policy
STLB has LRU replacement policy
L1I has LRU replacement policy
Bingo PHT WAYS: 16 and PHT_SIZE: 16384
L1D has LRU replacement policy
Initialize SRRIP state for L2C
Initialize DRRIP state for LLC
Heartbeat CPU 0 instructions: 10000001 cycles: 2842378 heartbeat IPC: 3.51818 cumulative IPC: 3.51818 (Simulation time: 0 hr 0 min 21 sec) 
Heartbeat CPU 0 instructions: 20000002 cycles: 5674862 heartbeat IPC: 3.53047 cumulative IPC: 3.52432 (Simulation time: 0 hr 0 min 43 sec) 
Heartbeat CPU 0 instructions: 30000002 cycles: 8508011 heartbeat IPC: 3.52964 cumulative IPC: 3.52609 (Simulation time: 0 hr 1 min 4 sec) 
Heartbeat CPU 0 instructions: 40000001 cycles: 11341661 heartbeat IPC: 3.52902 cumulative IPC: 3.52682 (Simulation time: 0 hr 1 min 26 sec) 
Heartbeat CPU 0 instructions: 50000003 cycles: 14176830 heartbeat IPC: 3.52713 cumulative IPC: 3.52688 (Simulation time: 0 hr 1 min 48 sec) 

Warmup complete CPU 0 instructions: 50000003 cycles: 14176830 (Simulation time: 0 hr 1 min 48 sec) 

Heartbeat CPU 0 instructions: 60000000 cycles: 46091299 heartbeat IPC: 0.313337 cumulative IPC: 0.313337 (Simulation time: 0 hr 2 min 26 sec) 
Heartbeat CPU 0 instructions: 70000000 cycles: 78075342 heartbeat IPC: 0.312656 cumulative IPC: 0.312996 (Simulation time: 0 hr 3 min 4 sec) 
Heartbeat CPU 0 instructions: 80000000 cycles: 110121960 heartbeat IPC: 0.312045 cumulative IPC: 0.312679 (Simulation time: 0 hr 3 min 42 sec) 
*** Reached end of trace for Core: 0 Repeating trace: traces/spec2k17/server_028.champsimtrace.xz
Heartbeat CPU 0 instructions: 90000001 cycles: 141865135 heartbeat IPC: 0.315028 cumulative IPC: 0.313263 (Simulation time: 0 hr 4 min 19 sec) 
Heartbeat CPU 0 instructions: 100000001 cycles: 173513487 heartbeat IPC: 0.315972 cumulative IPC: 0.313801 (Simulation time: 0 hr 4 min 56 sec) 
Heartbeat CPU 0 instructions: 110000000 cycles: 205517320 heartbeat IPC: 0.312463 cumulative IPC: 0.313577 (Simulation time: 0 hr 5 min 34 sec) 
Heartbeat CPU 0 instructions: 120000003 cycles: 237265317 heartbeat IPC: 0.314981 cumulative IPC: 0.313777 (Simulation time: 0 hr 6 min 12 sec) 
Heartbeat CPU 0 instructions: 130000002 cycles: 269220620 heartbeat IPC: 0.312937 cumulative IPC: 0.313672 (Simulation time: 0 hr 6 min 50 sec) 
Heartbeat CPU 0 instructions: 140000001 cycles: 301128289 heartbeat IPC: 0.313404 cumulative IPC: 0.313642 (Simulation time: 0 hr 7 min 28 sec) 
Heartbeat CPU 0 instructions: 150000002 cycles: 332925528 heartbeat IPC: 0.314493 cumulative IPC: 0.313727 (Simulation time: 0 hr 8 min 5 sec) 
Heartbeat CPU 0 instructions: 160000000 cycles: 364846737 heartbeat IPC: 0.313271 cumulative IPC: 0.313685 (Simulation time: 0 hr 8 min 42 sec) 
Heartbeat CPU 0 instructions: 170000001 cycles: 396422659 heartbeat IPC: 0.316697 cumulative IPC: 0.313934 (Simulation time: 0 hr 9 min 19 sec) 
*** Reached end of trace for Core: 0 Repeating trace: traces/spec2k17/server_028.champsimtrace.xz
Heartbeat CPU 0 instructions: 180000002 cycles: 428234811 heartbeat IPC: 0.314345 cumulative IPC: 0.313966 (Simulation time: 0 hr 9 min 57 sec) 
Heartbeat CPU 0 instructions: 190000000 cycles: 459971672 heartbeat IPC: 0.315091 cumulative IPC: 0.314046 (Simulation time: 0 hr 10 min 35 sec) 
Heartbeat CPU 0 instructions: 200000001 cycles: 491724769 heartbeat IPC: 0.31493 cumulative IPC: 0.314105 (Simulation time: 0 hr 11 min 12 sec) 
Heartbeat CPU 0 instructions: 210000002 cycles: 523620588 heartbeat IPC: 0.313521 cumulative IPC: 0.314068 (Simulation time: 0 hr 11 min 50 sec) 
Heartbeat CPU 0 instructions: 220000000 cycles: 555540176 heartbeat IPC: 0.313287 cumulative IPC: 0.314022 (Simulation time: 0 hr 12 min 28 sec) 
Heartbeat CPU 0 instructions: 230000000 cycles: 587281309 heartbeat IPC: 0.315049 cumulative IPC: 0.314079 (Simulation time: 0 hr 13 min 6 sec) 
Heartbeat CPU 0 instructions: 240000000 cycles: 619070617 heartbeat IPC: 0.314571 cumulative IPC: 0.314105 (Simulation time: 0 hr 13 min 43 sec) 
Heartbeat CPU 0 instructions: 250000000 cycles: 650976732 heartbeat IPC: 0.31342 cumulative IPC: 0.31407 (Simulation time: 0 hr 14 min 21 sec) 
Finished CPU 0 instructions: 200000003 cycles: 636799913 cumulative IPC: 0.31407 (Simulation time: 0 hr 14 min 21 sec) 

ChampSim completed all CPUs

Region of Interest Statistics

CPU 0 cumulative IPC: 0.31407 instructions: 200000003 cycles: 636799913
ITLB TOTAL     ACCESS:   35608484  HIT:   33419277  MISS:    2189207  HIT %:     93.852  MISS %:    6.14799   MPKI: 10.946
ITLB LOAD TRANSLATION ACCESS:   35608484  HIT:   33419277  MISS:    2189207  HIT %:     93.852  MISS %:    6.14799   MPKI: 10.946
ITLB PREFETCH  REQUESTED:          0  ISSUED:          0  USEFUL:          0  USELESS:          0
ITLB USEFUL LOAD PREFETCHES:          0 PREFETCH ISSUED TO LOWER LEVEL:          0  ACCURACY: -nan
ITLB TIMELY PREFETCHES:          0 LATE PREFETCHES: 0 DROPPED PREFETCHES: 0
ITLB PREFETCHES SAME FILL-ORIGIN LEVEL: 0 DIFFERENT FILL-ORIGIN LEVEL: 0
ITLB AVERAGE MISS LATENCY: 9.28335 cycles
ITLB RQ	ACCESS:   41782861	FORWARD:          0	MERGED:    5649960	TO_CACHE:   36132901

DTLB TOTAL     ACCESS:   45154680  HIT:   43072501  MISS:    2082179  HIT %:    95.3888  MISS %:    4.61121   MPKI: 10.4109
DTLB LOAD TRANSLATION ACCESS:   45154680  HIT:   43072501  MISS:    2082179  HIT %:    95.3888  MISS %:    4.61121   MPKI: 10.4109
DTLB PREFETCH  REQUESTED:          0  ISSUED:          0  USEFUL:          0  USELESS:          0
DTLB USEFUL LOAD PREFETCHES:          0 PREFETCH ISSUED TO LOWER LEVEL:          0  ACCURACY: -nan
DTLB TIMELY PREFETCHES:          0 LATE PREFETCHES: 0 DROPPED PREFETCHES: 0
DTLB PREFETCHES SAME FILL-ORIGIN LEVEL: 0 DIFFERENT FILL-ORIGIN LEVEL: 0
DTLB AVERAGE MISS LATENCY: 10.6141 cycles
DTLB RQ	ACCESS:   59749517	FORWARD:          0	MERGED:   14538904	TO_CACHE:   45210613

STLB TOTAL     ACCESS:    5682011  HIT:    5604601  MISS:      77410  HIT %:    98.6376  MISS %:    1.36237   MPKI: 0.38705
STLB LOAD TRANSLATION ACCESS:    4271386  HIT:    4193976  MISS:      77410  HIT %:    98.1877  MISS %:    1.81229   MPKI: 0.38705
STLB TRANSLATION FROM L1D PREFETCHER ACCESS:    1410625  HIT:    1410625  MISS:          0  HIT %:        100  MISS %:          0   MPKI: 0
STLB PREFETCH  REQUESTED:          0  ISSUED:          0  USEFUL:          0  USELESS:          0
STLB USEFUL LOAD PREFETCHES:          0 PREFETCH ISSUED TO LOWER LEVEL:          0  ACCURACY: -nan
STLB TIMELY PREFETCHES:          0 LATE PREFETCHES: 0 DROPPED PREFETCHES: 0
STLB PREFETCHES SAME FILL-ORIGIN LEVEL: 0 DIFFERENT FILL-ORIGIN LEVEL: 0
STLB AVERAGE MISS LATENCY: 51.0813 cycles
STLB RQ	ACCESS:    9415694	FORWARD:          0	MERGED:    3733683	TO_CACHE:    5682011

STLB Hit, L1D data hit: 0
STLB Hit, L2C data hit: 0
STLB Hit, LLC data hit: 0
STLB Hit, LLC data miss: 0
STLB STLB hints to L2: 0
L1D TOTAL     ACCESS:   63562207  HIT:   57361098  MISS:    6201109  HIT %:     90.244  MISS %:    9.75597   MPKI: 31.0055
L1D LOAD      ACCESS:   33618007  HIT:   31899344  MISS:    1718663  HIT %:    94.8877  MISS %:    5.11233   MPKI: 8.59331
L1D RFO       ACCESS:   25092855  HIT:   24431854  MISS:     661001  HIT %:    97.3658  MISS %:    2.63422   MPKI: 3.305
L1D PREFETCH  ACCESS:    4851345  HIT:    1029900  MISS:    3821445  HIT %:    21.2292  MISS %:    78.7708   MPKI: 19.1072
AGUS PREFETCH L1 MISS: 0
L1D PREFETCH  REQUESTED:   10292876  ISSUED:   10292876  USEFUL:    3274384  USELESS:     547022
L1D USEFUL LOAD PREFETCHES:    3274384 PREFETCH ISSUED TO LOWER LEVEL:    3982093  ACCURACY: 82.2277
L1D TIMELY PREFETCHES:    3274384 LATE PREFETCHES: 55287 DROPPED PREFETCHES: 0
L1D PREFETCHES SAME FILL-ORIGIN LEVEL: 3881109 DIFFERENT FILL-ORIGIN LEVEL: 100984
L1D AVERAGE MISS LATENCY: 3.2035e+06 cycles
L1D RQ	ACCESS:   46102234	FORWARD:          0	MERGED:   12120409	TO_CACHE:   33663935
L1D WQ	ACCESS:   26217180	FORWARD:     322150	MERGED:     131598	TO_CACHE:   26085582
L1D PQ	ACCESS:    5148568	FORWARD:          0	MERGED:          0	TO_CACHE:    5144308

L1D UNIQUE REGIONS ACCESSED: 0
L1D REGIONS CONFLICTS: 0
L1D Cross Page Prefetch Requests: 0
L1D Same Page Prefetch Requests: 6361838
L1D ROI Sum of L1D PQ occupancy: 74463831
L1D PREFETCHES PUSHED FROM L2C: 0
L1I TOTAL     ACCESS:   40145530  HIT:   29061830  MISS:   11083700  HIT %:    72.3912  MISS %:    27.6088   MPKI: 55.4185
L1I LOAD      ACCESS:   40145530  HIT:   29061830  MISS:   11083700  HIT %:    72.3912  MISS %:    27.6088   MPKI: 55.4185
L1I PREFETCH  REQUESTED:          0  ISSUED:          0  USEFUL:          0  USELESS:          0
L1I USEFUL LOAD PREFETCHES:          0 PREFETCH ISSUED TO LOWER LEVEL:          0  ACCURACY: -nan
L1I TIMELY PREFETCHES:          0 LATE PREFETCHES: 0 DROPPED PREFETCHES: 0
L1I PREFETCHES SAME FILL-ORIGIN LEVEL: 0 DIFFERENT FILL-ORIGIN LEVEL: 0
L1I AVERAGE MISS LATENCY: 15.8092 cycles
L1I RQ	ACCESS:   58377184	FORWARD:          0	MERGED:   16594323	TO_CACHE:   41782861

BTB TOTAL     ACCESS:   30542458  HIT:   18336623  MISS:   12205835  HIT %:    60.0365  MISS %:    39.9635   MPKI: 61.0292
BTB BRANCH_DIRECT_JUMP	ACCESS:    2010403  HIT:    1225655  MISS:     784748
BTB BRANCH_INDIRECT	ACCESS:   11931802  HIT:    7220486  MISS:    4711316
BTB BRANCH_CONDITIONAL	ACCESS:    7548039  HIT:    6326083  MISS:    1221956
BTB BRANCH_DIRECT_CALL	ACCESS:    3806012  HIT:    1828717  MISS:    1977295
BTB BRANCH_INDIRECT_CALL	ACCESS:     720088  HIT:     358904  MISS:     361184
BTB BRANCH_RETURN	ACCESS:    4526114  HIT:    1376778  MISS:    3149336
BTB BRANCH_OTHER ACCESS:          0  HIT:          0  MISS:          0

L2C TOTAL     ACCESS:   19797940  HIT:   18530736  MISS:    1267204  HIT %:    93.5993  MISS %:    6.40069   MPKI: 6.33602
L2C LOAD      ACCESS:   12747076  HIT:   11922634  MISS:     824442  HIT %:    93.5323  MISS %:     6.4677   MPKI: 4.12221
L2C DATA LOAD MPKI: 0.98324
L2C INSTRUCTION LOAD MPKI: 3.13897
L2C RFO       ACCESS:     656624  HIT:     613296  MISS:      43328  HIT %:    93.4014  MISS %:     6.5986   MPKI: 0.21664
L2C PREFETCH  ACCESS:    3980130  HIT:    3643849  MISS:     336281  HIT %:     91.551  MISS %:      8.449   MPKI: 1.6814
AGUS PREFETCH L1 MISS: 0
L2C DATA PREFETCH MPKI: 1.6814
L2C INSTRUCTION PREFETCH MPKI: 0
L2C WRITEBACK ACCESS:    2302776  HIT:    2282142  MISS:      20634  HIT %:     99.104  MISS %:   0.896049   MPKI: 0.10317
L2C LOAD TRANSLATION ACCESS:     111334  HIT:      68815  MISS:      42519  HIT %:    61.8095  MISS %:    38.1905   MPKI: 0.212595
L2C PREFETCH  REQUESTED:          0  ISSUED:          0  USEFUL:      15600  USELESS:     320683
L2C USEFUL LOAD PREFETCHES:      15600 PREFETCH ISSUED TO LOWER LEVEL:     338178  ACCURACY: 4.61296
L2C TIMELY PREFETCHES:      15600 LATE PREFETCHES: 1897 DROPPED PREFETCHES: 0
L2C PREFETCHES SAME FILL-ORIGIN LEVEL: 63520 DIFFERENT FILL-ORIGIN LEVEL: 0
L2C AVERAGE MISS LATENCY: 48.508 cycles
L2C RQ	ACCESS:   13515034	FORWARD:          0	MERGED:          0	TO_CACHE:   13515034
L2C WQ	ACCESS:    2302776	FORWARD:         66	MERGED:          0	TO_CACHE:    2302776
L2C PQ	ACCESS:    3982093	FORWARD:          0	MERGED:          0	TO_CACHE:    3982027

L2C Instructions Evicting Data 236626
L2C Translations Evicting Data 29402
L2C Data Evicting Data 323556
L2C Instructions Evicting Instructions 381245
L2C Translations Evicting Instructions 9666
L2C Data Evicting Instructions 223726
L2C Instructions Evicting Translations 9923
L2C Translations Evicting Translations 3451
L2C Data Evicting Translations 28975
L2C Dense regions hint from L2: 0
PSCL5 TOTAL     ACCESS:      77410  HIT:      77410  MISS:          0  HIT %:        100  MISS %:          0   MPKI: 0
PSCL5 LOAD TRANSLATION ACCESS:      77410  HIT:      77410  MISS:          0  HIT %:        100  MISS %:          0   MPKI: 0
PSCL5 PREFETCH  REQUESTED:          0  ISSUED:          0  USEFUL:          0  USELESS:          0
PSCL5 USEFUL LOAD PREFETCHES:          0 PREFETCH ISSUED TO LOWER LEVEL:          0  ACCURACY: -nan
PSCL5 TIMELY PREFETCHES:          0 LATE PREFETCHES: 0 DROPPED PREFETCHES: 0
PSCL5 PREFETCHES SAME FILL-ORIGIN LEVEL: 0 DIFFERENT FILL-ORIGIN LEVEL: 0

PSCL4 TOTAL     ACCESS:      75622  HIT:      74893  MISS:        729  HIT %:     99.036  MISS %:   0.964005   MPKI: 0.003645
PSCL4 LOAD TRANSLATION ACCESS:      75622  HIT:      74893  MISS:        729  HIT %:     99.036  MISS %:   0.964005   MPKI: 0.003645
PSCL4 PREFETCH  REQUESTED:          0  ISSUED:          0  USEFUL:          0  USELESS:          0
PSCL4 USEFUL LOAD PREFETCHES:          0 PREFETCH ISSUED TO LOWER LEVEL:          0  ACCURACY: -nan
PSCL4 TIMELY PREFETCHES:          0 LATE PREFETCHES: 0 DROPPED PREFETCHES: 0
PSCL4 PREFETCHES SAME FILL-ORIGIN LEVEL: 0 DIFFERENT FILL-ORIGIN LEVEL: 0

PSCL3 TOTAL     ACCESS:      77114  HIT:      76385  MISS:        729  HIT %:    99.0546  MISS %:   0.945354   MPKI: 0.003645
PSCL3 LOAD TRANSLATION ACCESS:      77114  HIT:      76385  MISS:        729  HIT %:    99.0546  MISS %:   0.945354   MPKI: 0.003645
PSCL3 PREFETCH  REQUESTED:          0  ISSUED:          0  USEFUL:          0  USELESS:          0
PSCL3 USEFUL LOAD PREFETCHES:          0 PREFETCH ISSUED TO LOWER LEVEL:          0  ACCURACY: -nan
PSCL3 TIMELY PREFETCHES:          0 LATE PREFETCHES: 0 DROPPED PREFETCHES: 0
PSCL3 PREFETCHES SAME FILL-ORIGIN LEVEL: 0 DIFFERENT FILL-ORIGIN LEVEL: 0

PSCL2 TOTAL     ACCESS:      77410  HIT:      44944  MISS:      32466  HIT %:    58.0597  MISS %:    41.9403   MPKI: 0.16233
PSCL2 LOAD TRANSLATION ACCESS:      77410  HIT:      44944  MISS:      32466  HIT %:    58.0597  MISS %:    41.9403   MPKI: 0.16233
PSCL2 PREFETCH  REQUESTED:          0  ISSUED:          0  USEFUL:          0  USELESS:          0
PSCL2 USEFUL LOAD PREFETCHES:          0 PREFETCH ISSUED TO LOWER LEVEL:          0  ACCURACY: -nan
PSCL2 TIMELY PREFETCHES:          0 LATE PREFETCHES: 0 DROPPED PREFETCHES: 0
PSCL2 PREFETCHES SAME FILL-ORIGIN LEVEL: 0 DIFFERENT FILL-ORIGIN LEVEL: 0

LLC TOTAL     ACCESS:    1345733  HIT:    1185010  MISS:     160723  HIT %:    88.0568  MISS %:    11.9432   MPKI: 0.803615
LLC LOAD      ACCESS:     822545  HIT:     771779  MISS:      50766  HIT %:    93.8282  MISS %:    6.17182   MPKI: 0.25383
LLC RFO       ACCESS:      43326  HIT:      36118  MISS:       7208  HIT %:    83.3633  MISS %:    16.6367   MPKI: 0.03604
LLC PREFETCH  ACCESS:     338178  HIT:     240175  MISS:      98003  HIT %:    71.0203  MISS %:    28.9797   MPKI: 0.490015
AGUS PREFETCH L1 MISS: 0
LLC WRITEBACK ACCESS:      99165  HIT:      98587  MISS:        578  HIT %:    99.4171  MISS %:   0.582867   MPKI: 0.00289
LLC LOAD TRANSLATION ACCESS:      42519  HIT:      38351  MISS:       4168  HIT %:    90.1973  MISS %:    9.80268   MPKI: 0.02084
LLC PREFETCH  REQUESTED:          0  ISSUED:          0  USEFUL:       2090  USELESS:      95317
LLC USEFUL LOAD PREFETCHES:       2090 PREFETCH ISSUED TO LOWER LEVEL:      98003  ACCURACY: 2.13259
LLC TIMELY PREFETCHES:       2090 LATE PREFETCHES: 0 DROPPED PREFETCHES: 0
LLC PREFETCHES SAME FILL-ORIGIN LEVEL: 0 DIFFERENT FILL-ORIGIN LEVEL: 0
LLC AVERAGE MISS LATENCY: 150.423 cycles
LLC RQ	ACCESS:     908392	FORWARD:          0	MERGED:          0	TO_CACHE:     908390
LLC WQ	ACCESS:      99165	FORWARD:          2	MERGED:          0	TO_CACHE:      99165
LLC PQ	ACCESS:     338178	FORWARD:          0	MERGED:          0	TO_CACHE:     338178

LLC Dense regions hint to LLC: 0

RAW hits: 1382031
Loads Generated: 47484267
Loads sent to L1D: 46102234
Stores Generated: 26217178
Stores sent to L1D: 26217180
Major fault: 0 Minor fault: 6256
Allocated PAGES: 6256
[Bingo] PHT Access: 1789816
[Bingo] PHT Hit PC+Addr: 1164406
[Bingo] PHT Hit PC+Offs: 99687
[Bingo] PHT Miss: 525723
[Bingo] Prefetch PC+Addr: 0
[Bingo] Prefetch PC+Offs: 0
[Bingo] Useful PC+Addr: 0
[Bingo] Useful PC+Offs: 0
[Bingo] Useless PC+Addr: 0
[Bingo] Useless PC+Offs: 0
[Bingo] L1 Prefetch per Region: 4.99329
[Bingo] L2 Prefetch per Region: 0.0812448
[Bingo] L3 Prefetch per Region: 0
[Bingo] No Prefetch per Region: 26.9255
[Bingo] Number of Voters Mean: 9.99232
[Bingo] Number of Voters SD: 7.91721
PHT read accesses: 6667162
PHT write accesses: 935828
AT read accesses: 27094687
AT write accesses: 27105425
FT read accesses: 14549100
FT write accesses: 1789816
PS read accesses: 2767825
PS write accesses: 1264093
PHT tag read accesses: 27515300
PHT tag write accesses: 2100234
AT tag read accesses: 673217705
AT tag write accesses: 28030496
FT tag read accesses: 296397977
FT tag write accesses: 9698604
PS tag read accesses: 583559928
PS tag write accesses: 4031508

DRAM Statistics
 CHANNEL 0
 RQ ROW_BUFFER_HIT:      55078  ROW_BUFFER_MISS:     105067
 DBUS_CONGESTED:         12
 WQ ROW_BUFFER_HIT:       1810  ROW_BUFFER_MISS:       9368  FULL:          0

 AVG_CONGESTED_CYCLE: 4
 All warmup complete: 2
Channel 0 Bank busy for read cycles: 0
Channel 0 Bank busy for write cycles: 0
Channel 0
Rank 0
0banks busy for read cycles: 626695990
0banks busy for write cycles: 7886
1banks busy for read cycles: 4063997
1banks busy for write cycles: 1206892
2banks busy for read cycles: 2461958
2banks busy for write cycles: 250070
3banks busy for read cycles: 720904
3banks busy for write cycles: 71832
4banks busy for read cycles: 460848
4banks busy for write cycles: 23705
5banks busy for read cycles: 203610
5banks busy for write cycles: 8408
6banks busy for read cycles: 139774
6banks busy for write cycles: 3106
7banks busy for read cycles: 165180
7banks busy for write cycles: 1172
8banks busy for read cycles: 313404
8banks busy for write cycles: 1178

CPU 0 Branch Prediction Accuracy: 99.7758% MPKI: 0.40526 Average ROB Occupancy at Mispredict: 41.9188
Branch types
NOT_BRANCH: 163841125 81.9206%
BRANCH_DIRECT_JUMP: 2010403 1.0052%
BRANCH_INDIRECT: 11931802 5.9659%
BRANCH_CONDITIONAL: 13164452 6.58223%
BRANCH_DIRECT_CALL: 3806012 1.90301%
BRANCH_INDIRECT_CALL: 720088 0.360044%
BRANCH_RETURN: 4526114 2.26306%
BRANCH_OTHER: 0 0%

DRAM PAGES: 1048576
Allocated PAGES: 6256
