
*** ChampSim Multicore Out-of-Order Simulator ***

Warmup Instructions: 50000000
Simulation Instructions: 200000000
Number of CPUs: 1
LLC sets: 2048
LLC ways: 16
Off-chip DRAM Size: 4096 MB Channels: 1 Width: 64-bit Data Rate: 6400 MT/s
CPU 0 runs traces/spec2k17/server_038.champsimtrace.xz
.xz
BTB has LRU replacement policy
ITLB has LRU replacement policy
DTLB has LRU replacement policy
STLB has LRU replacement policy
L1I has LRU replacement policy
Bingo PHT WAYS: 16 and PHT_SIZE: 16384
L1D has LRU replacement policy
Initialize SRRIP state for L2C
Initialize DRRIP state for LLC
Heartbeat CPU 0 instructions: 10000000 cycles: 2786935 heartbeat IPC: 3.58817 cumulative IPC: 3.58817 (Simulation time: 0 hr 0 min 19 sec) 
Heartbeat CPU 0 instructions: 20000002 cycles: 5571737 heartbeat IPC: 3.59092 cumulative IPC: 3.58955 (Simulation time: 0 hr 0 min 39 sec) 
Heartbeat CPU 0 instructions: 30000003 cycles: 8356055 heartbeat IPC: 3.59154 cumulative IPC: 3.59021 (Simulation time: 0 hr 1 min 0 sec) 
Heartbeat CPU 0 instructions: 40000001 cycles: 11140798 heartbeat IPC: 3.59099 cumulative IPC: 3.59041 (Simulation time: 0 hr 1 min 19 sec) 
Heartbeat CPU 0 instructions: 50000001 cycles: 13925743 heartbeat IPC: 3.59074 cumulative IPC: 3.59047 (Simulation time: 0 hr 1 min 39 sec) 

Warmup complete CPU 0 instructions: 50000001 cycles: 13925743 (Simulation time: 0 hr 1 min 39 sec) 

Heartbeat CPU 0 instructions: 60000000 cycles: 33891086 heartbeat IPC: 0.500868 cumulative IPC: 0.500868 (Simulation time: 0 hr 2 min 14 sec) 
Heartbeat CPU 0 instructions: 70000000 cycles: 53680935 heartbeat IPC: 0.50531 cumulative IPC: 0.503079 (Simulation time: 0 hr 2 min 48 sec) 
Heartbeat CPU 0 instructions: 80000000 cycles: 73465821 heartbeat IPC: 0.505436 cumulative IPC: 0.503862 (Simulation time: 0 hr 3 min 22 sec) 
Heartbeat CPU 0 instructions: 90000001 cycles: 93284523 heartbeat IPC: 0.504574 cumulative IPC: 0.50404 (Simulation time: 0 hr 3 min 56 sec) 
Heartbeat CPU 0 instructions: 100000002 cycles: 113079977 heartbeat IPC: 0.505167 cumulative IPC: 0.504265 (Simulation time: 0 hr 4 min 30 sec) 
*** Reached end of trace for Core: 0 Repeating trace: traces/spec2k17/server_038.champsimtrace.xz
Heartbeat CPU 0 instructions: 110000000 cycles: 132998147 heartbeat IPC: 0.502054 cumulative IPC: 0.503895 (Simulation time: 0 hr 5 min 4 sec) 
Heartbeat CPU 0 instructions: 120000003 cycles: 152861237 heartbeat IPC: 0.503447 cumulative IPC: 0.503831 (Simulation time: 0 hr 5 min 39 sec) 
Heartbeat CPU 0 instructions: 130000001 cycles: 172667945 heartbeat IPC: 0.504879 cumulative IPC: 0.503962 (Simulation time: 0 hr 6 min 13 sec) 
Heartbeat CPU 0 instructions: 140000001 cycles: 192477071 heartbeat IPC: 0.504818 cumulative IPC: 0.504057 (Simulation time: 0 hr 6 min 48 sec) 
Heartbeat CPU 0 instructions: 150000002 cycles: 212283200 heartbeat IPC: 0.504894 cumulative IPC: 0.50414 (Simulation time: 0 hr 7 min 22 sec) 
Heartbeat CPU 0 instructions: 160000000 cycles: 232133152 heartbeat IPC: 0.503779 cumulative IPC: 0.504108 (Simulation time: 0 hr 7 min 56 sec) 
Heartbeat CPU 0 instructions: 170000002 cycles: 251889720 heartbeat IPC: 0.506161 cumulative IPC: 0.504278 (Simulation time: 0 hr 8 min 31 sec) 
Heartbeat CPU 0 instructions: 180000000 cycles: 271636397 heartbeat IPC: 0.506414 cumulative IPC: 0.504442 (Simulation time: 0 hr 9 min 5 sec) 
Heartbeat CPU 0 instructions: 190000002 cycles: 291404676 heartbeat IPC: 0.505861 cumulative IPC: 0.504543 (Simulation time: 0 hr 9 min 40 sec) 
Heartbeat CPU 0 instructions: 200000001 cycles: 311161394 heartbeat IPC: 0.506157 cumulative IPC: 0.50465 (Simulation time: 0 hr 10 min 15 sec) 
*** Reached end of trace for Core: 0 Repeating trace: traces/spec2k17/server_038.champsimtrace.xz
Heartbeat CPU 0 instructions: 210000003 cycles: 331040737 heartbeat IPC: 0.503035 cumulative IPC: 0.504549 (Simulation time: 0 hr 10 min 50 sec) 
Heartbeat CPU 0 instructions: 220000000 cycles: 350903297 heartbeat IPC: 0.50346 cumulative IPC: 0.504485 (Simulation time: 0 hr 11 min 25 sec) 
Heartbeat CPU 0 instructions: 230000003 cycles: 370665740 heartbeat IPC: 0.50601 cumulative IPC: 0.504569 (Simulation time: 0 hr 11 min 59 sec) 
Heartbeat CPU 0 instructions: 240000001 cycles: 390503828 heartbeat IPC: 0.504081 cumulative IPC: 0.504543 (Simulation time: 0 hr 12 min 34 sec) 
Heartbeat CPU 0 instructions: 250000001 cycles: 410310555 heartbeat IPC: 0.504879 cumulative IPC: 0.50456 (Simulation time: 0 hr 13 min 9 sec) 
Finished CPU 0 instructions: 200000000 cycles: 396384812 cumulative IPC: 0.50456 (Simulation time: 0 hr 13 min 9 sec) 

ChampSim completed all CPUs

Region of Interest Statistics

CPU 0 cumulative IPC: 0.50456 instructions: 200000000 cycles: 396384812
ITLB TOTAL     ACCESS:   35174153  HIT:   32681442  MISS:    2492711  HIT %:    92.9132  MISS %:    7.08677   MPKI: 12.4636
ITLB LOAD TRANSLATION ACCESS:   35174153  HIT:   32681442  MISS:    2492711  HIT %:    92.9132  MISS %:    7.08677   MPKI: 12.4636
ITLB PREFETCH  REQUESTED:          0  ISSUED:          0  USEFUL:          0  USELESS:          0
ITLB USEFUL LOAD PREFETCHES:          0 PREFETCH ISSUED TO LOWER LEVEL:          0  ACCURACY: -nan
ITLB TIMELY PREFETCHES:          0 LATE PREFETCHES: 0 DROPPED PREFETCHES: 0
ITLB PREFETCHES SAME FILL-ORIGIN LEVEL: 0 DIFFERENT FILL-ORIGIN LEVEL: 0
ITLB AVERAGE MISS LATENCY: 9.01524 cycles
ITLB RQ	ACCESS:   41437335	FORWARD:          0	MERGED:    5452042	TO_CACHE:   35985293

DTLB TOTAL     ACCESS:   40207746  HIT:   38210680  MISS:    1997066  HIT %:    95.0331  MISS %:    4.96687   MPKI: 9.98533
DTLB LOAD TRANSLATION ACCESS:   40207746  HIT:   38210680  MISS:    1997066  HIT %:    95.0331  MISS %:    4.96687   MPKI: 9.98533
DTLB PREFETCH  REQUESTED:          0  ISSUED:          0  USEFUL:          0  USELESS:          0
DTLB USEFUL LOAD PREFETCHES:          0 PREFETCH ISSUED TO LOWER LEVEL:          0  ACCURACY: -nan
DTLB TIMELY PREFETCHES:          0 LATE PREFETCHES: 0 DROPPED PREFETCHES: 0
DTLB PREFETCHES SAME FILL-ORIGIN LEVEL: 0 DIFFERENT FILL-ORIGIN LEVEL: 0
DTLB AVERAGE MISS LATENCY: 9.65985 cycles
DTLB RQ	ACCESS:   56022126	FORWARD:          0	MERGED:   15659130	TO_CACHE:   40362996

STLB TOTAL     ACCESS:    5208623  HIT:    5185814  MISS:      22809  HIT %:    99.5621  MISS %:   0.437908   MPKI: 0.114045
STLB LOAD TRANSLATION ACCESS:    4489777  HIT:    4466968  MISS:      22809  HIT %:     99.492  MISS %:   0.508021   MPKI: 0.114045
STLB TRANSLATION FROM L1D PREFETCHER ACCESS:     718846  HIT:     718846  MISS:          0  HIT %:        100  MISS %:          0   MPKI: 0
STLB PREFETCH  REQUESTED:          0  ISSUED:          0  USEFUL:          0  USELESS:          0
STLB USEFUL LOAD PREFETCHES:          0 PREFETCH ISSUED TO LOWER LEVEL:          0  ACCURACY: -nan
STLB TIMELY PREFETCHES:          0 LATE PREFETCHES: 0 DROPPED PREFETCHES: 0
STLB PREFETCHES SAME FILL-ORIGIN LEVEL: 0 DIFFERENT FILL-ORIGIN LEVEL: 0
STLB AVERAGE MISS LATENCY: 58.5256 cycles
STLB RQ	ACCESS:    7216350	FORWARD:          0	MERGED:    2007727	TO_CACHE:    5208623

STLB Hit, L1D data hit: 0
STLB Hit, L2C data hit: 0
STLB Hit, LLC data hit: 0
STLB Hit, LLC data miss: 0
STLB STLB hints to L2: 0
L1D TOTAL     ACCESS:   58419096  HIT:   56334252  MISS:    2084844  HIT %:    96.4312  MISS %:    3.56877   MPKI: 10.4242
L1D LOAD      ACCESS:   31458268  HIT:   30607553  MISS:     850715  HIT %:    97.2957  MISS %:    2.70427   MPKI: 4.25357
L1D RFO       ACCESS:   24423378  HIT:   24300165  MISS:     123213  HIT %:    99.4955  MISS %:   0.504488   MPKI: 0.616065
L1D PREFETCH  ACCESS:    2537450  HIT:    1426534  MISS:    1110916  HIT %:    56.2192  MISS %:    43.7808   MPKI: 5.55458
AGUS PREFETCH L1 MISS: 0
L1D PREFETCH  REQUESTED:    5453541  ISSUED:    5453541  USEFUL:     894172  USELESS:     216741
L1D USEFUL LOAD PREFETCHES:     894172 PREFETCH ISSUED TO LOWER LEVEL:    1160669  ACCURACY: 77.0394
L1D TIMELY PREFETCHES:     894172 LATE PREFETCHES: 20834 DROPPED PREFETCHES: 0
L1D PREFETCHES SAME FILL-ORIGIN LEVEL: 1132516 DIFFERENT FILL-ORIGIN LEVEL: 28153
L1D AVERAGE MISS LATENCY: 2.21577e+06 cycles
L1D RQ	ACCESS:   46076576	FORWARD:          0	MERGED:   14316916	TO_CACHE:   31515589
L1D WQ	ACCESS:   24697059	FORWARD:     244391	MERGED:     190522	TO_CACHE:   24506537
L1D PQ	ACCESS:    2726968	FORWARD:          0	MERGED:         75	TO_CACHE:    2726573

L1D UNIQUE REGIONS ACCESSED: 0
L1D REGIONS CONFLICTS: 0
L1D Cross Page Prefetch Requests: 0
L1D Same Page Prefetch Requests: 3369049
L1D ROI Sum of L1D PQ occupancy: 39572349
L1D PREFETCHES PUSHED FROM L2C: 0
L1I TOTAL     ACCESS:   37494631  HIT:   22056139  MISS:   15438492  HIT %:    58.8248  MISS %:    41.1752   MPKI: 77.1925
L1I LOAD      ACCESS:   37494631  HIT:   22056139  MISS:   15438492  HIT %:    58.8248  MISS %:    41.1752   MPKI: 77.1925
L1I PREFETCH  REQUESTED:          0  ISSUED:          0  USEFUL:          0  USELESS:          0
L1I USEFUL LOAD PREFETCHES:          0 PREFETCH ISSUED TO LOWER LEVEL:          0  ACCURACY: -nan
L1I TIMELY PREFETCHES:          0 LATE PREFETCHES: 0 DROPPED PREFETCHES: 0
L1I PREFETCHES SAME FILL-ORIGIN LEVEL: 0 DIFFERENT FILL-ORIGIN LEVEL: 0
L1I AVERAGE MISS LATENCY: 14.1287 cycles
L1I RQ	ACCESS:   62466395	FORWARD:          0	MERGED:   21029060	TO_CACHE:   41437335

BTB TOTAL     ACCESS:   28064303  HIT:   24482602  MISS:    3581701  HIT %:    87.2375  MISS %:    12.7625   MPKI: 17.9085
BTB BRANCH_DIRECT_JUMP	ACCESS:    2068715  HIT:    1958904  MISS:     109811
BTB BRANCH_INDIRECT	ACCESS:   12589489  HIT:   11340070  MISS:    1249419
BTB BRANCH_CONDITIONAL	ACCESS:    3946651  HIT:    3830860  MISS:     115791
BTB BRANCH_DIRECT_CALL	ACCESS:    3834255  HIT:    3580644  MISS:     253611
BTB BRANCH_INDIRECT_CALL	ACCESS:     895479  HIT:     719752  MISS:     175727
BTB BRANCH_RETURN	ACCESS:    4729714  HIT:    3052372  MISS:    1677342
BTB BRANCH_OTHER ACCESS:          0  HIT:          0  MISS:          0

L2C TOTAL     ACCESS:   18516082  HIT:   17927073  MISS:     589009  HIT %:    96.8189  MISS %:    3.18107   MPKI: 2.94504
L2C LOAD      ACCESS:   16268130  HIT:   16041665  MISS:     226465  HIT %:    98.6079  MISS %:    1.39208   MPKI: 1.13233
L2C DATA LOAD MPKI: 1.01615
L2C INSTRUCTION LOAD MPKI: 0.11617
L2C RFO       ACCESS:     122447  HIT:      79552  MISS:      42895  HIT %:    64.9685  MISS %:    35.0315   MPKI: 0.214475
L2C PREFETCH  ACCESS:    1159973  HIT:     873963  MISS:     286010  HIT %:    75.3434  MISS %:    24.6566   MPKI: 1.43005
AGUS PREFETCH L1 MISS: 0
L2C DATA PREFETCH MPKI: 1.43005
L2C INSTRUCTION PREFETCH MPKI: 0
L2C WRITEBACK ACCESS:     934058  HIT:     919826  MISS:      14232  HIT %:    98.4763  MISS %:    1.52367   MPKI: 0.07116
L2C LOAD TRANSLATION ACCESS:      31474  HIT:      12067  MISS:      19407  HIT %:    38.3396  MISS %:    61.6604   MPKI: 0.097035
L2C PREFETCH  REQUESTED:          0  ISSUED:          0  USEFUL:      16971  USELESS:     269108
L2C USEFUL LOAD PREFETCHES:      16971 PREFETCH ISSUED TO LOWER LEVEL:     286703  ACCURACY: 5.91937
L2C TIMELY PREFETCHES:      16971 LATE PREFETCHES: 693 DROPPED PREFETCHES: 0
L2C PREFETCHES SAME FILL-ORIGIN LEVEL: 20291 DIFFERENT FILL-ORIGIN LEVEL: 0
L2C AVERAGE MISS LATENCY: 53.2636 cycles
L2C RQ	ACCESS:   16422294	FORWARD:          0	MERGED:          0	TO_CACHE:   16422051
L2C WQ	ACCESS:     934058	FORWARD:        246	MERGED:          0	TO_CACHE:     934058
L2C PQ	ACCESS:    1160669	FORWARD:          0	MERGED:          0	TO_CACHE:    1160666

L2C Instructions Evicting Data 20928
L2C Translations Evicting Data 17891
L2C Data Evicting Data 494236
L2C Instructions Evicting Instructions 1461
L2C Translations Evicting Instructions 854
L2C Data Evicting Instructions 20229
L2C Instructions Evicting Translations 845
L2C Translations Evicting Translations 662
L2C Data Evicting Translations 17671
L2C Dense regions hint from L2: 0
PSCL5 TOTAL     ACCESS:      22809  HIT:      22809  MISS:          0  HIT %:        100  MISS %:          0   MPKI: 0
PSCL5 LOAD TRANSLATION ACCESS:      22809  HIT:      22809  MISS:          0  HIT %:        100  MISS %:          0   MPKI: 0
PSCL5 PREFETCH  REQUESTED:          0  ISSUED:          0  USEFUL:          0  USELESS:          0
PSCL5 USEFUL LOAD PREFETCHES:          0 PREFETCH ISSUED TO LOWER LEVEL:          0  ACCURACY: -nan
PSCL5 TIMELY PREFETCHES:          0 LATE PREFETCHES: 0 DROPPED PREFETCHES: 0
PSCL5 PREFETCHES SAME FILL-ORIGIN LEVEL: 0 DIFFERENT FILL-ORIGIN LEVEL: 0

PSCL4 TOTAL     ACCESS:      22207  HIT:      22197  MISS:         10  HIT %:     99.955  MISS %:  0.0450308   MPKI: 5e-05
PSCL4 LOAD TRANSLATION ACCESS:      22207  HIT:      22197  MISS:         10  HIT %:     99.955  MISS %:  0.0450308   MPKI: 5e-05
PSCL4 PREFETCH  REQUESTED:          0  ISSUED:          0  USEFUL:          0  USELESS:          0
PSCL4 USEFUL LOAD PREFETCHES:          0 PREFETCH ISSUED TO LOWER LEVEL:          0  ACCURACY: -nan
PSCL4 TIMELY PREFETCHES:          0 LATE PREFETCHES: 0 DROPPED PREFETCHES: 0
PSCL4 PREFETCHES SAME FILL-ORIGIN LEVEL: 0 DIFFERENT FILL-ORIGIN LEVEL: 0

PSCL3 TOTAL     ACCESS:      22744  HIT:      22675  MISS:         69  HIT %:    99.6966  MISS %:   0.303377   MPKI: 0.000345
PSCL3 LOAD TRANSLATION ACCESS:      22744  HIT:      22675  MISS:         69  HIT %:    99.6966  MISS %:   0.303377   MPKI: 0.000345
PSCL3 PREFETCH  REQUESTED:          0  ISSUED:          0  USEFUL:          0  USELESS:          0
PSCL3 USEFUL LOAD PREFETCHES:          0 PREFETCH ISSUED TO LOWER LEVEL:          0  ACCURACY: -nan
PSCL3 TIMELY PREFETCHES:          0 LATE PREFETCHES: 0 DROPPED PREFETCHES: 0
PSCL3 PREFETCHES SAME FILL-ORIGIN LEVEL: 0 DIFFERENT FILL-ORIGIN LEVEL: 0

PSCL2 TOTAL     ACCESS:      22809  HIT:      14200  MISS:       8609  HIT %:    62.2561  MISS %:    37.7439   MPKI: 0.043045
PSCL2 LOAD TRANSLATION ACCESS:      22809  HIT:      14200  MISS:       8609  HIT %:    62.2561  MISS %:    37.7439   MPKI: 0.043045
PSCL2 PREFETCH  REQUESTED:          0  ISSUED:          0  USEFUL:          0  USELESS:          0
PSCL2 USEFUL LOAD PREFETCHES:          0 PREFETCH ISSUED TO LOWER LEVEL:          0  ACCURACY: -nan
PSCL2 TIMELY PREFETCHES:          0 LATE PREFETCHES: 0 DROPPED PREFETCHES: 0
PSCL2 PREFETCHES SAME FILL-ORIGIN LEVEL: 0 DIFFERENT FILL-ORIGIN LEVEL: 0

LLC TOTAL     ACCESS:     847474  HIT:     755005  MISS:      92469  HIT %:    89.0889  MISS %:    10.9111   MPKI: 0.462345
LLC LOAD      ACCESS:     225790  HIT:     187178  MISS:      38612  HIT %:    82.8992  MISS %:    17.1008   MPKI: 0.19306
LLC RFO       ACCESS:      42873  HIT:      24995  MISS:      17878  HIT %:    58.3001  MISS %:    41.6999   MPKI: 0.08939
LLC PREFETCH  ACCESS:     286703  HIT:     251852  MISS:      34851  HIT %:    87.8442  MISS %:    12.1558   MPKI: 0.174255
AGUS PREFETCH L1 MISS: 0
LLC WRITEBACK ACCESS:     272701  HIT:     272081  MISS:        620  HIT %:    99.7726  MISS %:   0.227355   MPKI: 0.0031
LLC LOAD TRANSLATION ACCESS:      19407  HIT:      18899  MISS:        508  HIT %:    97.3824  MISS %:    2.61761   MPKI: 0.00254
LLC PREFETCH  REQUESTED:          0  ISSUED:          0  USEFUL:        369  USELESS:      33528
LLC USEFUL LOAD PREFETCHES:        369 PREFETCH ISSUED TO LOWER LEVEL:      34851  ACCURACY: 1.05879
LLC TIMELY PREFETCHES:        369 LATE PREFETCHES: 0 DROPPED PREFETCHES: 0
LLC PREFETCHES SAME FILL-ORIGIN LEVEL: 0 DIFFERENT FILL-ORIGIN LEVEL: 0
LLC AVERAGE MISS LATENCY: 153.297 cycles
LLC RQ	ACCESS:     288074	FORWARD:          0	MERGED:          0	TO_CACHE:     288070
LLC WQ	ACCESS:     272701	FORWARD:          4	MERGED:          0	TO_CACHE:     272701
LLC PQ	ACCESS:     286703	FORWARD:          0	MERGED:          0	TO_CACHE:     286703

LLC Dense regions hint to LLC: 0

RAW hits: 2023174
Loads Generated: 48099750
Loads sent to L1D: 46076576
Stores Generated: 24697058
Stores sent to L1D: 24697059
Major fault: 0 Minor fault: 5748
Allocated PAGES: 5748
[Bingo] PHT Access: 1090954
[Bingo] PHT Hit PC+Addr: 565525
[Bingo] PHT Hit PC+Offs: 114783
[Bingo] PHT Miss: 410646
[Bingo] Prefetch PC+Addr: 0
[Bingo] Prefetch PC+Offs: 0
[Bingo] Useful PC+Addr: 0
[Bingo] Useful PC+Offs: 0
[Bingo] Useless PC+Addr: 0
[Bingo] Useless PC+Offs: 0
[Bingo] L1 Prefetch per Region: 5.02528
[Bingo] L2 Prefetch per Region: 0.0454074
[Bingo] L3 Prefetch per Region: 0
[Bingo] No Prefetch per Region: 26.9293
[Bingo] Number of Voters Mean: 10.9779
[Bingo] Number of Voters SD: 8.50834
PHT read accesses: 4709520
PHT write accesses: 434062
AT read accesses: 27166424
AT write accesses: 27166641
FT read accesses: 8959492
FT write accesses: 1090954
PS read accesses: 1495088
PS write accesses: 680308
PHT tag read accesses: 17494671
PHT tag write accesses: 999587
AT tag read accesses: 554120166
AT tag write accesses: 27600482
FT tag read accesses: 153564108
FT tag write accesses: 5924336
PS tag read accesses: 527406112
PS tag write accesses: 2174932

DRAM Statistics
 CHANNEL 0
 RQ ROW_BUFFER_HIT:      24380  ROW_BUFFER_MISS:      67464
 DBUS_CONGESTED:         34
 WQ ROW_BUFFER_HIT:       2847  ROW_BUFFER_MISS:      29391  FULL:          0

 AVG_CONGESTED_CYCLE: 3
 All warmup complete: 2
Channel 0 Bank busy for read cycles: 0
Channel 0 Bank busy for write cycles: 0
Channel 0
Rank 0
0banks busy for read cycles: 385004236
0banks busy for write cycles: 21340
1banks busy for read cycles: 4815577
1banks busy for write cycles: 3114642
2banks busy for read cycles: 1585074
2banks busy for write cycles: 717058
3banks busy for read cycles: 677894
3banks busy for write cycles: 104526
4banks busy for read cycles: 85720
4banks busy for write cycles: 65043
5banks busy for read cycles: 29140
5banks busy for write cycles: 20268
6banks busy for read cycles: 29076
6banks busy for write cycles: 12251
7banks busy for read cycles: 34870
7banks busy for write cycles: 11280
8banks busy for read cycles: 52547
8banks busy for write cycles: 4271

CPU 0 Branch Prediction Accuracy: 99.9778% MPKI: 0.038155 Average ROB Occupancy at Mispredict: 21.5417
Branch types
NOT_BRANCH: 165656544 82.8283%
BRANCH_DIRECT_JUMP: 2068715 1.03436%
BRANCH_INDIRECT: 12589489 6.29474%
BRANCH_CONDITIONAL: 10225815 5.11291%
BRANCH_DIRECT_CALL: 3834255 1.91713%
BRANCH_INDIRECT_CALL: 895479 0.44774%
BRANCH_RETURN: 4729714 2.36486%
BRANCH_OTHER: 0 0%

DRAM PAGES: 1048576
Allocated PAGES: 5748
