
*** ChampSim Multicore Out-of-Order Simulator ***

Warmup Instructions: 50000000
Simulation Instructions: 200000000
Number of CPUs: 1
LLC sets: 2048
LLC ways: 16
Off-chip DRAM Size: 4096 MB Channels: 1 Width: 64-bit Data Rate: 6400 MT/s
CPU 0 runs traces/spec2k17/server_009.champsimtrace.xz
.xz
BTB has LRU replacement policy
ITLB has LRU replacement policy
DTLB has LRU replacement policy
STLB has LRU replacement policy
L1I has LRU replacement policy
Bingo PHT WAYS: 16 and PHT_SIZE: 16384
L1D has LRU replacement policy
Initialize SRRIP state for L2C
Initialize DRRIP state for LLC
Heartbeat CPU 0 instructions: 10000003 cycles: 2776797 heartbeat IPC: 3.60127 cumulative IPC: 3.60127 (Simulation time: 0 hr 0 min 21 sec) 
Heartbeat CPU 0 instructions: 20000001 cycles: 5548325 heartbeat IPC: 3.60812 cumulative IPC: 3.60469 (Simulation time: 0 hr 0 min 44 sec) 
Heartbeat CPU 0 instructions: 30000002 cycles: 8320760 heartbeat IPC: 3.60694 cumulative IPC: 3.60544 (Simulation time: 0 hr 1 min 6 sec) 
Heartbeat CPU 0 instructions: 40000003 cycles: 11097043 heartbeat IPC: 3.60194 cumulative IPC: 3.60456 (Simulation time: 0 hr 1 min 27 sec) 
Heartbeat CPU 0 instructions: 50000003 cycles: 13875692 heartbeat IPC: 3.59887 cumulative IPC: 3.60342 (Simulation time: 0 hr 1 min 49 sec) 

Warmup complete CPU 0 instructions: 50000003 cycles: 13875692 (Simulation time: 0 hr 1 min 49 sec) 

Heartbeat CPU 0 instructions: 60000000 cycles: 41581782 heartbeat IPC: 0.360931 cumulative IPC: 0.360931 (Simulation time: 0 hr 2 min 31 sec) 
Heartbeat CPU 0 instructions: 70000001 cycles: 77445027 heartbeat IPC: 0.278837 cumulative IPC: 0.314617 (Simulation time: 0 hr 3 min 26 sec) 
Heartbeat CPU 0 instructions: 80000001 cycles: 100854516 heartbeat IPC: 0.427177 cumulative IPC: 0.344912 (Simulation time: 0 hr 4 min 0 sec) 
Heartbeat CPU 0 instructions: 90000002 cycles: 123699741 heartbeat IPC: 0.437728 cumulative IPC: 0.364219 (Simulation time: 0 hr 4 min 35 sec) 
Heartbeat CPU 0 instructions: 100000001 cycles: 146749827 heartbeat IPC: 0.433838 cumulative IPC: 0.376296 (Simulation time: 0 hr 5 min 9 sec) 
*** Reached end of trace for Core: 0 Repeating trace: traces/spec2k17/server_009.champsimtrace.xz
Heartbeat CPU 0 instructions: 110000000 cycles: 169334615 heartbeat IPC: 0.442776 cumulative IPC: 0.385954 (Simulation time: 0 hr 5 min 43 sec) 
Heartbeat CPU 0 instructions: 120000000 cycles: 191587014 heartbeat IPC: 0.44939 cumulative IPC: 0.393897 (Simulation time: 0 hr 6 min 18 sec) 
Heartbeat CPU 0 instructions: 130000001 cycles: 214920508 heartbeat IPC: 0.428569 cumulative IPC: 0.397921 (Simulation time: 0 hr 6 min 53 sec) 
Heartbeat CPU 0 instructions: 140000001 cycles: 238245019 heartbeat IPC: 0.428734 cumulative IPC: 0.401124 (Simulation time: 0 hr 7 min 27 sec) 
Heartbeat CPU 0 instructions: 150000001 cycles: 261119845 heartbeat IPC: 0.437162 cumulative IPC: 0.404458 (Simulation time: 0 hr 8 min 2 sec) 
Heartbeat CPU 0 instructions: 160000002 cycles: 284616767 heartbeat IPC: 0.425588 cumulative IPC: 0.406292 (Simulation time: 0 hr 8 min 36 sec) 
Heartbeat CPU 0 instructions: 170000001 cycles: 322125474 heartbeat IPC: 0.266605 cumulative IPC: 0.389295 (Simulation time: 0 hr 9 min 33 sec) 
Heartbeat CPU 0 instructions: 180000001 cycles: 348247180 heartbeat IPC: 0.382823 cumulative IPC: 0.388789 (Simulation time: 0 hr 10 min 13 sec) 
Heartbeat CPU 0 instructions: 190000000 cycles: 370992636 heartbeat IPC: 0.439648 cumulative IPC: 0.392028 (Simulation time: 0 hr 10 min 48 sec) 
Heartbeat CPU 0 instructions: 200000000 cycles: 394231999 heartbeat IPC: 0.430304 cumulative IPC: 0.394367 (Simulation time: 0 hr 11 min 22 sec) 
*** Reached end of trace for Core: 0 Repeating trace: traces/spec2k17/server_009.champsimtrace.xz
Heartbeat CPU 0 instructions: 210000003 cycles: 416644499 heartbeat IPC: 0.44618 cumulative IPC: 0.39725 (Simulation time: 0 hr 11 min 57 sec) 
Heartbeat CPU 0 instructions: 220000000 cycles: 439118526 heartbeat IPC: 0.444958 cumulative IPC: 0.399772 (Simulation time: 0 hr 12 min 31 sec) 
Heartbeat CPU 0 instructions: 230000002 cycles: 462335603 heartbeat IPC: 0.430718 cumulative IPC: 0.401374 (Simulation time: 0 hr 13 min 6 sec) 
Heartbeat CPU 0 instructions: 240000001 cycles: 485436365 heartbeat IPC: 0.432886 cumulative IPC: 0.402917 (Simulation time: 0 hr 13 min 40 sec) 
Heartbeat CPU 0 instructions: 250000000 cycles: 508314832 heartbeat IPC: 0.437092 cumulative IPC: 0.404499 (Simulation time: 0 hr 14 min 15 sec) 
Finished CPU 0 instructions: 200000001 cycles: 494439142 cumulative IPC: 0.404499 (Simulation time: 0 hr 14 min 15 sec) 

ChampSim completed all CPUs

Region of Interest Statistics

CPU 0 cumulative IPC: 0.404499 instructions: 200000001 cycles: 494439142
ITLB TOTAL     ACCESS:   33733193  HIT:   33020871  MISS:     712322  HIT %:    97.8884  MISS %:    2.11164   MPKI: 3.56161
ITLB LOAD TRANSLATION ACCESS:   33733193  HIT:   33020871  MISS:     712322  HIT %:    97.8884  MISS %:    2.11164   MPKI: 3.56161
ITLB PREFETCH  REQUESTED:          0  ISSUED:          0  USEFUL:          0  USELESS:          0
ITLB USEFUL LOAD PREFETCHES:          0 PREFETCH ISSUED TO LOWER LEVEL:          0  ACCURACY: -nan
ITLB TIMELY PREFETCHES:          0 LATE PREFETCHES: 0 DROPPED PREFETCHES: 0
ITLB PREFETCHES SAME FILL-ORIGIN LEVEL: 0 DIFFERENT FILL-ORIGIN LEVEL: 0
ITLB AVERAGE MISS LATENCY: 15.6088 cycles
ITLB RQ	ACCESS:   40242606	FORWARD:          0	MERGED:    6339157	TO_CACHE:   33903449

DTLB TOTAL     ACCESS:   39976262  HIT:   35267575  MISS:    4708687  HIT %:    88.2213  MISS %:    11.7787   MPKI: 23.5434
DTLB LOAD TRANSLATION ACCESS:   39976262  HIT:   35267575  MISS:    4708687  HIT %:    88.2213  MISS %:    11.7787   MPKI: 23.5434
DTLB PREFETCH  REQUESTED:          0  ISSUED:          0  USEFUL:          0  USELESS:          0
DTLB USEFUL LOAD PREFETCHES:          0 PREFETCH ISSUED TO LOWER LEVEL:          0  ACCURACY: -nan
DTLB TIMELY PREFETCHES:          0 LATE PREFETCHES: 0 DROPPED PREFETCHES: 0
DTLB PREFETCHES SAME FILL-ORIGIN LEVEL: 0 DIFFERENT FILL-ORIGIN LEVEL: 0
DTLB AVERAGE MISS LATENCY: 11.4859 cycles
DTLB RQ	ACCESS:   51903098	FORWARD:          0	MERGED:   11761058	TO_CACHE:   40142040

STLB TOTAL     ACCESS:    7821998  HIT:    7412033  MISS:     409965  HIT %:    94.7588  MISS %:    5.24118   MPKI: 2.04982
STLB LOAD TRANSLATION ACCESS:    5421009  HIT:    5011044  MISS:     409965  HIT %:    92.4375  MISS %:    7.56252   MPKI: 2.04982
STLB TRANSLATION FROM L1D PREFETCHER ACCESS:    2400989  HIT:    2400989  MISS:          0  HIT %:        100  MISS %:          0   MPKI: 0
STLB PREFETCH  REQUESTED:          0  ISSUED:          0  USEFUL:          0  USELESS:          0
STLB USEFUL LOAD PREFETCHES:          0 PREFETCH ISSUED TO LOWER LEVEL:          0  ACCURACY: -nan
STLB TIMELY PREFETCHES:          0 LATE PREFETCHES: 0 DROPPED PREFETCHES: 0
STLB PREFETCHES SAME FILL-ORIGIN LEVEL: 0 DIFFERENT FILL-ORIGIN LEVEL: 0
STLB AVERAGE MISS LATENCY: 39.8463 cycles
STLB RQ	ACCESS:   10436427	FORWARD:          0	MERGED:    2614429	TO_CACHE:    7821998

STLB Hit, L1D data hit: 0
STLB Hit, L2C data hit: 0
STLB Hit, LLC data hit: 0
STLB Hit, LLC data miss: 0
STLB STLB hints to L2: 0
L1D TOTAL     ACCESS:   54510542  HIT:   48237446  MISS:    6273096  HIT %:     88.492  MISS %:     11.508   MPKI: 31.3655
L1D LOAD      ACCESS:   32584117  HIT:   28326419  MISS:    4257698  HIT %:    86.9332  MISS %:    13.0668   MPKI: 21.2885
L1D RFO       ACCESS:   19044890  HIT:   18812527  MISS:     232363  HIT %:    98.7799  MISS %:    1.22008   MPKI: 1.16181
L1D PREFETCH  ACCESS:    2881535  HIT:    1098500  MISS:    1783035  HIT %:     38.122  MISS %:     61.878   MPKI: 8.91517
AGUS PREFETCH L1 MISS: 0
L1D PREFETCH  REQUESTED:   10031176  ISSUED:   10031176  USEFUL:    1358484  USELESS:     424567
L1D USEFUL LOAD PREFETCHES:    1358484 PREFETCH ISSUED TO LOWER LEVEL:    2378447  ACCURACY: 57.1164
L1D TIMELY PREFETCHES:    1358484 LATE PREFETCHES: 49074 DROPPED PREFETCHES: 0
L1D PREFETCHES SAME FILL-ORIGIN LEVEL: 1836058 DIFFERENT FILL-ORIGIN LEVEL: 542389
L1D AVERAGE MISS LATENCY: 2.01408e+06 cycles
L1D RQ	ACCESS:   46366888	FORWARD:          0	MERGED:   13512536	TO_CACHE:   32633862
L1D WQ	ACCESS:   19535803	FORWARD:     220830	MERGED:     266567	TO_CACHE:   19269236
L1D PQ	ACCESS:    5015758	FORWARD:          0	MERGED:          0	TO_CACHE:    5015418

L1D UNIQUE REGIONS ACCESSED: 0
L1D REGIONS CONFLICTS: 0
L1D Cross Page Prefetch Requests: 0
L1D Same Page Prefetch Requests: 5506824
L1D ROI Sum of L1D PQ occupancy: 69646670
L1D PREFETCHES PUSHED FROM L2C: 0
L1I TOTAL     ACCESS:   38790152  HIT:   34302936  MISS:    4487216  HIT %:    88.4321  MISS %:    11.5679   MPKI: 22.4361
L1I LOAD      ACCESS:   38790152  HIT:   34302936  MISS:    4487216  HIT %:    88.4321  MISS %:    11.5679   MPKI: 22.4361
L1I PREFETCH  REQUESTED:          0  ISSUED:          0  USEFUL:          0  USELESS:          0
L1I USEFUL LOAD PREFETCHES:          0 PREFETCH ISSUED TO LOWER LEVEL:          0  ACCURACY: -nan
L1I TIMELY PREFETCHES:          0 LATE PREFETCHES: 0 DROPPED PREFETCHES: 0
L1I PREFETCHES SAME FILL-ORIGIN LEVEL: 0 DIFFERENT FILL-ORIGIN LEVEL: 0
L1I AVERAGE MISS LATENCY: 28.2489 cycles
L1I RQ	ACCESS:   60134622	FORWARD:          0	MERGED:   19892016	TO_CACHE:   40242606

BTB TOTAL     ACCESS:   26457735  HIT:   21644987  MISS:    4812748  HIT %:    81.8097  MISS %:    18.1903   MPKI: 24.0637
BTB BRANCH_DIRECT_JUMP	ACCESS:    1781803  HIT:    1519806  MISS:     261997
BTB BRANCH_INDIRECT	ACCESS:   13089428  HIT:   10736402  MISS:    2353026
BTB BRANCH_CONDITIONAL	ACCESS:    4687165  HIT:    4274227  MISS:     412938
BTB BRANCH_DIRECT_CALL	ACCESS:    2727145  HIT:    2216757  MISS:     510388
BTB BRANCH_INDIRECT_CALL	ACCESS:     716294  HIT:     661956  MISS:      54338
BTB BRANCH_RETURN	ACCESS:    3455900  HIT:    2235839  MISS:    1220061
BTB BRANCH_OTHER ACCESS:          0  HIT:          0  MISS:          0

L2C TOTAL     ACCESS:   12774700  HIT:    9154833  MISS:    3619867  HIT %:    71.6638  MISS %:    28.3362   MPKI: 18.0993
L2C LOAD      ACCESS:    8695790  HIT:    6150465  MISS:    2545325  HIT %:    70.7292  MISS %:    29.2708   MPKI: 12.7266
L2C DATA LOAD MPKI: 2.50736
L2C INSTRUCTION LOAD MPKI: 10.2193
L2C RFO       ACCESS:     228414  HIT:     141559  MISS:      86855  HIT %:    61.9747  MISS %:    38.0253   MPKI: 0.434275
L2C PREFETCH  ACCESS:    2377917  HIT:    1627310  MISS:     750607  HIT %:    68.4343  MISS %:    31.5657   MPKI: 3.75303
AGUS PREFETCH L1 MISS: 0
L2C DATA PREFETCH MPKI: 3.75303
L2C INSTRUCTION PREFETCH MPKI: 0
L2C WRITEBACK ACCESS:     953472  HIT:     909861  MISS:      43611  HIT %:    95.4261  MISS %:    4.57392   MPKI: 0.218055
L2C LOAD TRANSLATION ACCESS:     519107  HIT:     325638  MISS:     193469  HIT %:    62.7304  MISS %:    37.2696   MPKI: 0.967345
L2C PREFETCH  REQUESTED:          0  ISSUED:          0  USEFUL:      81989  USELESS:     668610
L2C USEFUL LOAD PREFETCHES:      81989 PREFETCH ISSUED TO LOWER LEVEL:     751104  ACCURACY: 10.9158
L2C TIMELY PREFETCHES:      81989 LATE PREFETCHES: 497 DROPPED PREFETCHES: 0
L2C PREFETCHES SAME FILL-ORIGIN LEVEL: 75719 DIFFERENT FILL-ORIGIN LEVEL: 0
L2C AVERAGE MISS LATENCY: 42.1647 cycles
L2C RQ	ACCESS:    9443361	FORWARD:          0	MERGED:          0	TO_CACHE:    9443311
L2C WQ	ACCESS:     953472	FORWARD:         79	MERGED:          0	TO_CACHE:     953472
L2C PQ	ACCESS:    2378447	FORWARD:          0	MERGED:          0	TO_CACHE:    2378418

L2C Instructions Evicting Data 777698
L2C Translations Evicting Data 74654
L2C Data Evicting Data 513683
L2C Instructions Evicting Instructions 1156108
L2C Translations Evicting Instructions 110681
L2C Data Evicting Instructions 752219
L2C Instructions Evicting Translations 110046
L2C Translations Evicting Translations 8134
L2C Data Evicting Translations 73033
L2C Dense regions hint from L2: 0
PSCL5 TOTAL     ACCESS:     409965  HIT:     409965  MISS:          0  HIT %:        100  MISS %:          0   MPKI: 0
PSCL5 LOAD TRANSLATION ACCESS:     409965  HIT:     409965  MISS:          0  HIT %:        100  MISS %:          0   MPKI: 0
PSCL5 PREFETCH  REQUESTED:          0  ISSUED:          0  USEFUL:          0  USELESS:          0
PSCL5 USEFUL LOAD PREFETCHES:          0 PREFETCH ISSUED TO LOWER LEVEL:          0  ACCURACY: -nan
PSCL5 TIMELY PREFETCHES:          0 LATE PREFETCHES: 0 DROPPED PREFETCHES: 0
PSCL5 PREFETCHES SAME FILL-ORIGIN LEVEL: 0 DIFFERENT FILL-ORIGIN LEVEL: 0

PSCL4 TOTAL     ACCESS:     381688  HIT:     380464  MISS:       1224  HIT %:    99.6793  MISS %:   0.320681   MPKI: 0.00612
PSCL4 LOAD TRANSLATION ACCESS:     381688  HIT:     380464  MISS:       1224  HIT %:    99.6793  MISS %:   0.320681   MPKI: 0.00612
PSCL4 PREFETCH  REQUESTED:          0  ISSUED:          0  USEFUL:          0  USELESS:          0
PSCL4 USEFUL LOAD PREFETCHES:          0 PREFETCH ISSUED TO LOWER LEVEL:          0  ACCURACY: -nan
PSCL4 TIMELY PREFETCHES:          0 LATE PREFETCHES: 0 DROPPED PREFETCHES: 0
PSCL4 PREFETCHES SAME FILL-ORIGIN LEVEL: 0 DIFFERENT FILL-ORIGIN LEVEL: 0

PSCL3 TOTAL     ACCESS:     406680  HIT:     403349  MISS:       3331  HIT %:    99.1809  MISS %:   0.819072   MPKI: 0.016655
PSCL3 LOAD TRANSLATION ACCESS:     406680  HIT:     403349  MISS:       3331  HIT %:    99.1809  MISS %:   0.819072   MPKI: 0.016655
PSCL3 PREFETCH  REQUESTED:          0  ISSUED:          0  USEFUL:          0  USELESS:          0
PSCL3 USEFUL LOAD PREFETCHES:          0 PREFETCH ISSUED TO LOWER LEVEL:          0  ACCURACY: -nan
PSCL3 TIMELY PREFETCHES:          0 LATE PREFETCHES: 0 DROPPED PREFETCHES: 0
PSCL3 PREFETCHES SAME FILL-ORIGIN LEVEL: 0 DIFFERENT FILL-ORIGIN LEVEL: 0

PSCL2 TOTAL     ACCESS:     409965  HIT:     305302  MISS:     104663  HIT %:    74.4703  MISS %:    25.5297   MPKI: 0.523315
PSCL2 LOAD TRANSLATION ACCESS:     409965  HIT:     305302  MISS:     104663  HIT %:    74.4703  MISS %:    25.5297   MPKI: 0.523315
PSCL2 PREFETCH  REQUESTED:          0  ISSUED:          0  USEFUL:          0  USELESS:          0
PSCL2 USEFUL LOAD PREFETCHES:          0 PREFETCH ISSUED TO LOWER LEVEL:          0  ACCURACY: -nan
PSCL2 TIMELY PREFETCHES:          0 LATE PREFETCHES: 0 DROPPED PREFETCHES: 0
PSCL2 PREFETCHES SAME FILL-ORIGIN LEVEL: 0 DIFFERENT FILL-ORIGIN LEVEL: 0

LLC TOTAL     ACCESS:    4005881  HIT:    3738501  MISS:     267380  HIT %:    93.3253  MISS %:    6.67469   MPKI: 1.3369
LLC LOAD      ACCESS:    2545176  HIT:    2467981  MISS:      77195  HIT %:     96.967  MISS %:    3.03299   MPKI: 0.385975
LLC RFO       ACCESS:      86507  HIT:      65344  MISS:      21163  HIT %:    75.5361  MISS %:    24.4639   MPKI: 0.105815
LLC PREFETCH  ACCESS:     751104  HIT:     588748  MISS:     162356  HIT %:    78.3844  MISS %:    21.6156   MPKI: 0.81178
AGUS PREFETCH L1 MISS: 0
LLC WRITEBACK ACCESS:     429625  HIT:     427451  MISS:       2174  HIT %:     99.494  MISS %:   0.506023   MPKI: 0.01087
LLC LOAD TRANSLATION ACCESS:     193469  HIT:     188977  MISS:       4492  HIT %:    97.6782  MISS %:    2.32182   MPKI: 0.02246
LLC PREFETCH  REQUESTED:          0  ISSUED:          0  USEFUL:       8294  USELESS:     151775
LLC USEFUL LOAD PREFETCHES:       8294 PREFETCH ISSUED TO LOWER LEVEL:     162356  ACCURACY: 5.10853
LLC TIMELY PREFETCHES:       8294 LATE PREFETCHES: 0 DROPPED PREFETCHES: 0
LLC PREFETCHES SAME FILL-ORIGIN LEVEL: 0 DIFFERENT FILL-ORIGIN LEVEL: 0
LLC AVERAGE MISS LATENCY: 169.761 cycles
LLC RQ	ACCESS:    2825152	FORWARD:          0	MERGED:          0	TO_CACHE:    2825152
LLC WQ	ACCESS:     429625	FORWARD:          0	MERGED:          0	TO_CACHE:     429625
LLC PQ	ACCESS:     751104	FORWARD:          0	MERGED:          0	TO_CACHE:     751104

LLC Dense regions hint to LLC: 0

RAW hits: 2400252
Loads Generated: 48767141
Loads sent to L1D: 46366888
Stores Generated: 19535794
Stores sent to L1D: 19535803
Major fault: 0 Minor fault: 6724
Allocated PAGES: 6724
[Bingo] PHT Access: 3265338
[Bingo] PHT Hit PC+Addr: 1651558
[Bingo] PHT Hit PC+Offs: 720023
[Bingo] PHT Miss: 893757
[Bingo] Prefetch PC+Addr: 0
[Bingo] Prefetch PC+Offs: 0
[Bingo] Useful PC+Addr: 0
[Bingo] Useful PC+Offs: 0
[Bingo] Useless PC+Addr: 0
[Bingo] Useless PC+Offs: 0
[Bingo] L1 Prefetch per Region: 2.89697
[Bingo] L2 Prefetch per Region: 0.237178
[Bingo] L3 Prefetch per Region: 0
[Bingo] No Prefetch per Region: 28.8659
[Bingo] Number of Voters Mean: 13.3528
[Bingo] Number of Voters SD: 5.62271
PHT read accesses: 37759098
PHT write accesses: 2040777
AT read accesses: 25441490
AT write accesses: 25452235
FT read accesses: 18287885
FT write accesses: 3265338
PS read accesses: 4798199
PS write accesses: 2371581
PHT tag read accesses: 82703786
PHT tag write accesses: 3692335
AT tag read accesses: 701619979
AT tag write accesses: 27482276
FT tag read accesses: 401056806
FT tag write accesses: 13555358
PS tag read accesses: 603399403
PS tag write accesses: 7163495

DRAM Statistics
 CHANNEL 0
 RQ ROW_BUFFER_HIT:      82222  ROW_BUFFER_MISS:     182984
 DBUS_CONGESTED:        122
 WQ ROW_BUFFER_HIT:      20147  ROW_BUFFER_MISS:     168804  FULL:          0

 AVG_CONGESTED_CYCLE: 4
 All warmup complete: 2
Channel 0 Bank busy for read cycles: 0
Channel 0 Bank busy for write cycles: 0
Channel 0
Rank 0
0banks busy for read cycles: 468161071
0banks busy for write cycles: 51029
1banks busy for read cycles: 9496067
1banks busy for write cycles: 5998566
2banks busy for read cycles: 1790774
2banks busy for write cycles: 1827201
3banks busy for read cycles: 597081
3banks busy for write cycles: 892363
4banks busy for read cycles: 384044
4banks busy for write cycles: 615863
5banks busy for read cycles: 298161
5banks busy for write cycles: 522956
6banks busy for read cycles: 346304
6banks busy for write cycles: 485322
7banks busy for read cycles: 441119
7banks busy for write cycles: 581844
8banks busy for read cycles: 1065255
8banks busy for write cycles: 884123

CPU 0 Branch Prediction Accuracy: 99.7405% MPKI: 0.500965 Average ROB Occupancy at Mispredict: 22.5824
Branch types
NOT_BRANCH: 161395749 80.6979%
BRANCH_DIRECT_JUMP: 1781803 0.890901%
BRANCH_INDIRECT: 13089428 6.54471%
BRANCH_CONDITIONAL: 16833331 8.41667%
BRANCH_DIRECT_CALL: 2727145 1.36357%
BRANCH_INDIRECT_CALL: 716294 0.358147%
BRANCH_RETURN: 3455900 1.72795%
BRANCH_OTHER: 0 0%

DRAM PAGES: 1048576
Allocated PAGES: 6724
