
*** ChampSim Multicore Out-of-Order Simulator ***

Warmup Instructions: 50000000
Simulation Instructions: 200000000
Number of CPUs: 1
LLC sets: 2048
LLC ways: 16
Off-chip DRAM Size: 4096 MB Channels: 1 Width: 64-bit Data Rate: 6400 MT/s
CPU 0 runs traces/spec2k17/srv_32.champsimtrace.xz
.xz
BTB has LRU replacement policy
ITLB has LRU replacement policy
DTLB has LRU replacement policy
STLB has LRU replacement policy
L1I has LRU replacement policy
Bingo PHT WAYS: 16 and PHT_SIZE: 16384
L1D has LRU replacement policy
Initialize SRRIP state for L2C
Initialize DRRIP state for LLC
Heartbeat CPU 0 instructions: 10000001 cycles: 2785933 heartbeat IPC: 3.58946 cumulative IPC: 3.58946 (Simulation time: 0 hr 0 min 22 sec) 
Heartbeat CPU 0 instructions: 20000001 cycles: 5569770 heartbeat IPC: 3.59216 cumulative IPC: 3.59081 (Simulation time: 0 hr 0 min 49 sec) 
Heartbeat CPU 0 instructions: 30000003 cycles: 8353507 heartbeat IPC: 3.59229 cumulative IPC: 3.59131 (Simulation time: 0 hr 1 min 14 sec) 
*** Reached end of trace for Core: 0 Repeating trace: traces/spec2k17/srv_32.champsimtrace.xz
Heartbeat CPU 0 instructions: 40000003 cycles: 11137136 heartbeat IPC: 3.59243 cumulative IPC: 3.59159 (Simulation time: 0 hr 1 min 34 sec) 
Heartbeat CPU 0 instructions: 50000001 cycles: 13920891 heartbeat IPC: 3.59227 cumulative IPC: 3.59172 (Simulation time: 0 hr 2 min 2 sec) 

Warmup complete CPU 0 instructions: 50000001 cycles: 13920891 (Simulation time: 0 hr 2 min 2 sec) 

Heartbeat CPU 0 instructions: 60000000 cycles: 33604355 heartbeat IPC: 0.508041 cumulative IPC: 0.508041 (Simulation time: 0 hr 2 min 56 sec) 
*** Reached end of trace for Core: 0 Repeating trace: traces/spec2k17/srv_32.champsimtrace.xz
Heartbeat CPU 0 instructions: 70000002 cycles: 53169229 heartbeat IPC: 0.51112 cumulative IPC: 0.509576 (Simulation time: 0 hr 3 min 50 sec) 
Heartbeat CPU 0 instructions: 80000000 cycles: 72732328 heartbeat IPC: 0.511166 cumulative IPC: 0.510105 (Simulation time: 0 hr 4 min 45 sec) 
Heartbeat CPU 0 instructions: 90000002 cycles: 92332063 heartbeat IPC: 0.510211 cumulative IPC: 0.510131 (Simulation time: 0 hr 5 min 39 sec) 
*** Reached end of trace for Core: 0 Repeating trace: traces/spec2k17/srv_32.champsimtrace.xz
Heartbeat CPU 0 instructions: 100000000 cycles: 111891937 heartbeat IPC: 0.511251 cumulative IPC: 0.510355 (Simulation time: 0 hr 6 min 33 sec) 
Heartbeat CPU 0 instructions: 110000000 cycles: 131436121 heartbeat IPC: 0.511661 cumulative IPC: 0.510572 (Simulation time: 0 hr 7 min 27 sec) 
Heartbeat CPU 0 instructions: 120000000 cycles: 151030311 heartbeat IPC: 0.510355 cumulative IPC: 0.510541 (Simulation time: 0 hr 8 min 22 sec) 
*** Reached end of trace for Core: 0 Repeating trace: traces/spec2k17/srv_32.champsimtrace.xz
Heartbeat CPU 0 instructions: 130000000 cycles: 170585409 heartbeat IPC: 0.511376 cumulative IPC: 0.510645 (Simulation time: 0 hr 9 min 16 sec) 
Heartbeat CPU 0 instructions: 140000001 cycles: 190135802 heartbeat IPC: 0.511499 cumulative IPC: 0.51074 (Simulation time: 0 hr 9 min 58 sec) 
Heartbeat CPU 0 instructions: 150000002 cycles: 209727314 heartbeat IPC: 0.510425 cumulative IPC: 0.510709 (Simulation time: 0 hr 10 min 52 sec) 
*** Reached end of trace for Core: 0 Repeating trace: traces/spec2k17/srv_32.champsimtrace.xz
Heartbeat CPU 0 instructions: 160000000 cycles: 229278613 heartbeat IPC: 0.511475 cumulative IPC: 0.510778 (Simulation time: 0 hr 11 min 46 sec) 
Heartbeat CPU 0 instructions: 170000000 cycles: 248821862 heartbeat IPC: 0.511686 cumulative IPC: 0.510854 (Simulation time: 0 hr 12 min 41 sec) 
Heartbeat CPU 0 instructions: 180000002 cycles: 268426018 heartbeat IPC: 0.510096 cumulative IPC: 0.510795 (Simulation time: 0 hr 13 min 35 sec) 
*** Reached end of trace for Core: 0 Repeating trace: traces/spec2k17/srv_32.champsimtrace.xz
Heartbeat CPU 0 instructions: 190000000 cycles: 287969388 heartbeat IPC: 0.511682 cumulative IPC: 0.510858 (Simulation time: 0 hr 14 min 29 sec) 
Heartbeat CPU 0 instructions: 200000000 cycles: 307521668 heartbeat IPC: 0.511449 cumulative IPC: 0.510898 (Simulation time: 0 hr 15 min 24 sec) 
Heartbeat CPU 0 instructions: 210000002 cycles: 327110853 heartbeat IPC: 0.510486 cumulative IPC: 0.510872 (Simulation time: 0 hr 16 min 18 sec) 
Heartbeat CPU 0 instructions: 220000000 cycles: 346657064 heartbeat IPC: 0.511608 cumulative IPC: 0.510915 (Simulation time: 0 hr 17 min 13 sec) 
*** Reached end of trace for Core: 0 Repeating trace: traces/spec2k17/srv_32.champsimtrace.xz
Heartbeat CPU 0 instructions: 230000001 cycles: 366211696 heartbeat IPC: 0.511388 cumulative IPC: 0.510942 (Simulation time: 0 hr 18 min 7 sec) 
Heartbeat CPU 0 instructions: 240000002 cycles: 385754010 heartbeat IPC: 0.51171 cumulative IPC: 0.510982 (Simulation time: 0 hr 19 min 1 sec) 
Heartbeat CPU 0 instructions: 250000001 cycles: 405349708 heartbeat IPC: 0.510316 cumulative IPC: 0.510949 (Simulation time: 0 hr 19 min 55 sec) 
Finished CPU 0 instructions: 200000000 cycles: 391428817 cumulative IPC: 0.510949 (Simulation time: 0 hr 19 min 55 sec) 

ChampSim completed all CPUs

Region of Interest Statistics

CPU 0 cumulative IPC: 0.510949 instructions: 200000000 cycles: 391428817
ITLB TOTAL     ACCESS:   35159684  HIT:   32673231  MISS:    2486453  HIT %:    92.9281  MISS %:    7.07189   MPKI: 12.4323
ITLB LOAD TRANSLATION ACCESS:   35159684  HIT:   32673231  MISS:    2486453  HIT %:    92.9281  MISS %:    7.07189   MPKI: 12.4323
ITLB PREFETCH  REQUESTED:          0  ISSUED:          0  USEFUL:          0  USELESS:          0
ITLB USEFUL LOAD PREFETCHES:          0 PREFETCH ISSUED TO LOWER LEVEL:          0  ACCURACY: -nan
ITLB TIMELY PREFETCHES:          0 LATE PREFETCHES: 0 DROPPED PREFETCHES: 0
ITLB PREFETCHES SAME FILL-ORIGIN LEVEL: 0 DIFFERENT FILL-ORIGIN LEVEL: 0
ITLB AVERAGE MISS LATENCY: 9.0127 cycles
ITLB RQ	ACCESS:   41424652	FORWARD:          0	MERGED:    5454557	TO_CACHE:   35970095

DTLB TOTAL     ACCESS:   40208071  HIT:   38192333  MISS:    2015738  HIT %:    94.9867  MISS %:    5.01327   MPKI: 10.0787
DTLB LOAD TRANSLATION ACCESS:   40208071  HIT:   38192333  MISS:    2015738  HIT %:    94.9867  MISS %:    5.01327   MPKI: 10.0787
DTLB PREFETCH  REQUESTED:          0  ISSUED:          0  USEFUL:          0  USELESS:          0
DTLB USEFUL LOAD PREFETCHES:          0 PREFETCH ISSUED TO LOWER LEVEL:          0  ACCURACY: -nan
DTLB TIMELY PREFETCHES:          0 LATE PREFETCHES: 0 DROPPED PREFETCHES: 0
DTLB PREFETCHES SAME FILL-ORIGIN LEVEL: 0 DIFFERENT FILL-ORIGIN LEVEL: 0
DTLB AVERAGE MISS LATENCY: 9.53821 cycles
DTLB RQ	ACCESS:   56028540	FORWARD:          0	MERGED:   15664970	TO_CACHE:   40363570

STLB TOTAL     ACCESS:    5134864  HIT:    5112430  MISS:      22434  HIT %:    99.5631  MISS %:   0.436896   MPKI: 0.11217
STLB LOAD TRANSLATION ACCESS:    4502191  HIT:    4479757  MISS:      22434  HIT %:    99.5017  MISS %:   0.498291   MPKI: 0.11217
STLB TRANSLATION FROM L1D PREFETCHER ACCESS:     632673  HIT:     632673  MISS:          0  HIT %:        100  MISS %:          0   MPKI: 0
STLB PREFETCH  REQUESTED:          0  ISSUED:          0  USEFUL:          0  USELESS:          0
STLB USEFUL LOAD PREFETCHES:          0 PREFETCH ISSUED TO LOWER LEVEL:          0  ACCURACY: -nan
STLB TIMELY PREFETCHES:          0 LATE PREFETCHES: 0 DROPPED PREFETCHES: 0
STLB PREFETCHES SAME FILL-ORIGIN LEVEL: 0 DIFFERENT FILL-ORIGIN LEVEL: 0
STLB AVERAGE MISS LATENCY: 48.9027 cycles
STLB RQ	ACCESS:    6986408	FORWARD:          0	MERGED:    1851544	TO_CACHE:    5134864

STLB Hit, L1D data hit: 0
STLB Hit, L2C data hit: 0
STLB Hit, LLC data hit: 0
STLB Hit, LLC data miss: 0
STLB STLB hints to L2: 0
L1D TOTAL     ACCESS:   58197404  HIT:   56244725  MISS:    1952679  HIT %:    96.6447  MISS %:    3.35527   MPKI: 9.76339
L1D LOAD      ACCESS:   31462445  HIT:   30638867  MISS:     823578  HIT %:    97.3823  MISS %:    2.61765   MPKI: 4.11789
L1D RFO       ACCESS:   24425230  HIT:   24301365  MISS:     123865  HIT %:    99.4929  MISS %:   0.507119   MPKI: 0.619325
L1D PREFETCH  ACCESS:    2309729  HIT:    1304493  MISS:    1005236  HIT %:    56.4782  MISS %:    43.5218   MPKI: 5.02618
AGUS PREFETCH L1 MISS: 0
L1D PREFETCH  REQUESTED:    4968816  ISSUED:    4968816  USEFUL:     873492  USELESS:     131741
L1D USEFUL LOAD PREFETCHES:     873492 PREFETCH ISSUED TO LOWER LEVEL:    1045271  ACCURACY: 83.5661
L1D TIMELY PREFETCHES:     873492 LATE PREFETCHES: 19899 DROPPED PREFETCHES: 0
L1D PREFETCHES SAME FILL-ORIGIN LEVEL: 1025704 DIFFERENT FILL-ORIGIN LEVEL: 19567
L1D AVERAGE MISS LATENCY: 2.2106e+06 cycles
L1D RQ	ACCESS:   46088565	FORWARD:          0	MERGED:   14324135	TO_CACHE:   31515791
L1D WQ	ACCESS:   24705066	FORWARD:     249009	MERGED:     192317	TO_CACHE:   24512749
L1D PQ	ACCESS:    2484599	FORWARD:          0	MERGED:         12	TO_CACHE:    2484217

L1D UNIQUE REGIONS ACCESSED: 0
L1D REGIONS CONFLICTS: 0
L1D Cross Page Prefetch Requests: 0
L1D Same Page Prefetch Requests: 3075260
L1D ROI Sum of L1D PQ occupancy: 36154506
L1D PREFETCHES PUSHED FROM L2C: 0
L1I TOTAL     ACCESS:   37483326  HIT:   22073162  MISS:   15410164  HIT %:    58.8879  MISS %:    41.1121   MPKI: 77.0508
L1I LOAD      ACCESS:   37483326  HIT:   22073162  MISS:   15410164  HIT %:    58.8879  MISS %:    41.1121   MPKI: 77.0508
L1I PREFETCH  REQUESTED:          0  ISSUED:          0  USEFUL:          0  USELESS:          0
L1I USEFUL LOAD PREFETCHES:          0 PREFETCH ISSUED TO LOWER LEVEL:          0  ACCURACY: -nan
L1I TIMELY PREFETCHES:          0 LATE PREFETCHES: 0 DROPPED PREFETCHES: 0
L1I PREFETCHES SAME FILL-ORIGIN LEVEL: 0 DIFFERENT FILL-ORIGIN LEVEL: 0
L1I AVERAGE MISS LATENCY: 14.1335 cycles
L1I RQ	ACCESS:   62462488	FORWARD:          0	MERGED:   21037836	TO_CACHE:   41424652

BTB TOTAL     ACCESS:   28035651  HIT:   24469448  MISS:    3566203  HIT %:    87.2798  MISS %:    12.7202   MPKI: 17.831
BTB BRANCH_DIRECT_JUMP	ACCESS:    2069035  HIT:    1957528  MISS:     111507
BTB BRANCH_INDIRECT	ACCESS:   12587391  HIT:   11351206  MISS:    1236185
BTB BRANCH_CONDITIONAL	ACCESS:    3930791  HIT:    3817367  MISS:     113424
BTB BRANCH_DIRECT_CALL	ACCESS:    3828229  HIT:    3576567  MISS:     251662
BTB BRANCH_INDIRECT_CALL	ACCESS:     895995  HIT:     719505  MISS:     176490
BTB BRANCH_RETURN	ACCESS:    4724210  HIT:    3047275  MISS:    1676935
BTB BRANCH_OTHER ACCESS:          0  HIT:          0  MISS:          0

L2C TOTAL     ACCESS:   18334789  HIT:   17666423  MISS:     668366  HIT %:    96.3547  MISS %:    3.64534   MPKI: 3.34183
L2C LOAD      ACCESS:   16213676  HIT:   15959152  MISS:     254524  HIT %:    98.4302  MISS %:    1.56981   MPKI: 1.27262
L2C DATA LOAD MPKI: 1.13538
L2C INSTRUCTION LOAD MPKI: 0.137245
L2C RFO       ACCESS:     123296  HIT:      77628  MISS:      45668  HIT %:    62.9607  MISS %:    37.0393   MPKI: 0.22834
L2C PREFETCH  ACCESS:    1044968  HIT:     712467  MISS:     332501  HIT %:    68.1807  MISS %:    31.8193   MPKI: 1.6625
AGUS PREFETCH L1 MISS: 0
L2C DATA PREFETCH MPKI: 1.6625
L2C INSTRUCTION PREFETCH MPKI: 0
L2C WRITEBACK ACCESS:     921721  HIT:     903076  MISS:      18645  HIT %:    97.9772  MISS %:    2.02285   MPKI: 0.093225
L2C LOAD TRANSLATION ACCESS:      31128  HIT:      14100  MISS:      17028  HIT %:    45.2968  MISS %:    54.7032   MPKI: 0.08514
L2C PREFETCH  REQUESTED:          0  ISSUED:          0  USEFUL:      17560  USELESS:     315031
L2C USEFUL LOAD PREFETCHES:      17560 PREFETCH ISSUED TO LOWER LEVEL:     332798  ACCURACY: 5.27647
L2C TIMELY PREFETCHES:      17560 LATE PREFETCHES: 297 DROPPED PREFETCHES: 0
L2C PREFETCHES SAME FILL-ORIGIN LEVEL: 15021 DIFFERENT FILL-ORIGIN LEVEL: 0
L2C AVERAGE MISS LATENCY: 34.4695 cycles
L2C RQ	ACCESS:   16368267	FORWARD:          0	MERGED:          0	TO_CACHE:   16368100
L2C WQ	ACCESS:     921721	FORWARD:        173	MERGED:          0	TO_CACHE:     921721
L2C PQ	ACCESS:    1045271	FORWARD:          0	MERGED:          0	TO_CACHE:    1045265

L2C Instructions Evicting Data 25558
L2C Translations Evicting Data 15641
L2C Data Evicting Data 565133
L2C Instructions Evicting Instructions 1128
L2C Translations Evicting Instructions 636
L2C Data Evicting Instructions 24828
L2C Instructions Evicting Translations 763
L2C Translations Evicting Translations 751
L2C Data Evicting Translations 15283
L2C Dense regions hint from L2: 0
PSCL5 TOTAL     ACCESS:      22434  HIT:      22434  MISS:          0  HIT %:        100  MISS %:          0   MPKI: 0
PSCL5 LOAD TRANSLATION ACCESS:      22434  HIT:      22434  MISS:          0  HIT %:        100  MISS %:          0   MPKI: 0
PSCL5 PREFETCH  REQUESTED:          0  ISSUED:          0  USEFUL:          0  USELESS:          0
PSCL5 USEFUL LOAD PREFETCHES:          0 PREFETCH ISSUED TO LOWER LEVEL:          0  ACCURACY: -nan
PSCL5 TIMELY PREFETCHES:          0 LATE PREFETCHES: 0 DROPPED PREFETCHES: 0
PSCL5 PREFETCHES SAME FILL-ORIGIN LEVEL: 0 DIFFERENT FILL-ORIGIN LEVEL: 0

PSCL4 TOTAL     ACCESS:      22434  HIT:      22434  MISS:          0  HIT %:        100  MISS %:          0   MPKI: 0
PSCL4 LOAD TRANSLATION ACCESS:      22434  HIT:      22434  MISS:          0  HIT %:        100  MISS %:          0   MPKI: 0
PSCL4 PREFETCH  REQUESTED:          0  ISSUED:          0  USEFUL:          0  USELESS:          0
PSCL4 USEFUL LOAD PREFETCHES:          0 PREFETCH ISSUED TO LOWER LEVEL:          0  ACCURACY: -nan
PSCL4 TIMELY PREFETCHES:          0 LATE PREFETCHES: 0 DROPPED PREFETCHES: 0
PSCL4 PREFETCHES SAME FILL-ORIGIN LEVEL: 0 DIFFERENT FILL-ORIGIN LEVEL: 0

PSCL3 TOTAL     ACCESS:      22362  HIT:      22332  MISS:         30  HIT %:    99.8658  MISS %:   0.134156   MPKI: 0.00015
PSCL3 LOAD TRANSLATION ACCESS:      22362  HIT:      22332  MISS:         30  HIT %:    99.8658  MISS %:   0.134156   MPKI: 0.00015
PSCL3 PREFETCH  REQUESTED:          0  ISSUED:          0  USEFUL:          0  USELESS:          0
PSCL3 USEFUL LOAD PREFETCHES:          0 PREFETCH ISSUED TO LOWER LEVEL:          0  ACCURACY: -nan
PSCL3 TIMELY PREFETCHES:          0 LATE PREFETCHES: 0 DROPPED PREFETCHES: 0
PSCL3 PREFETCHES SAME FILL-ORIGIN LEVEL: 0 DIFFERENT FILL-ORIGIN LEVEL: 0

PSCL2 TOTAL     ACCESS:      22434  HIT:      13770  MISS:       8664  HIT %:      61.38  MISS %:      38.62   MPKI: 0.04332
PSCL2 LOAD TRANSLATION ACCESS:      22434  HIT:      13770  MISS:       8664  HIT %:      61.38  MISS %:      38.62   MPKI: 0.04332
PSCL2 PREFETCH  REQUESTED:          0  ISSUED:          0  USEFUL:          0  USELESS:          0
PSCL2 USEFUL LOAD PREFETCHES:          0 PREFETCH ISSUED TO LOWER LEVEL:          0  ACCURACY: -nan
PSCL2 TIMELY PREFETCHES:          0 LATE PREFETCHES: 0 DROPPED PREFETCHES: 0
PSCL2 PREFETCHES SAME FILL-ORIGIN LEVEL: 0 DIFFERENT FILL-ORIGIN LEVEL: 0

LLC TOTAL     ACCESS:     966208  HIT:     944370  MISS:      21838  HIT %:    97.7398  MISS %:    2.26018   MPKI: 0.10919
LLC LOAD      ACCESS:     254231  HIT:     247238  MISS:       6993  HIT %:    97.2494  MISS %:    2.75065   MPKI: 0.034965
LLC RFO       ACCESS:      45664  HIT:      39711  MISS:       5953  HIT %:    86.9635  MISS %:    13.0365   MPKI: 0.029765
LLC PREFETCH  ACCESS:     332798  HIT:     324300  MISS:       8498  HIT %:    97.4465  MISS %:     2.5535   MPKI: 0.04249
AGUS PREFETCH L1 MISS: 0
LLC WRITEBACK ACCESS:     316487  HIT:     316406  MISS:         81  HIT %:    99.9744  MISS %:  0.0255935   MPKI: 0.000405
LLC LOAD TRANSLATION ACCESS:      17028  HIT:      16715  MISS:        313  HIT %:    98.1619  MISS %:    1.83815   MPKI: 0.001565
LLC PREFETCH  REQUESTED:          0  ISSUED:          0  USEFUL:        353  USELESS:       8358
LLC USEFUL LOAD PREFETCHES:        353 PREFETCH ISSUED TO LOWER LEVEL:       8498  ACCURACY: 4.15392
LLC TIMELY PREFETCHES:        353 LATE PREFETCHES: 0 DROPPED PREFETCHES: 0
LLC PREFETCHES SAME FILL-ORIGIN LEVEL: 0 DIFFERENT FILL-ORIGIN LEVEL: 0
LLC AVERAGE MISS LATENCY: 163.427 cycles
LLC RQ	ACCESS:     316923	FORWARD:          0	MERGED:          0	TO_CACHE:     316923
LLC WQ	ACCESS:     316487	FORWARD:          0	MERGED:          0	TO_CACHE:     316487
LLC PQ	ACCESS:     332798	FORWARD:          0	MERGED:          0	TO_CACHE:     332798

LLC Dense regions hint to LLC: 0

RAW hits: 2023906
Loads Generated: 48112470
Loads sent to L1D: 46088565
Stores Generated: 24705062
Stores sent to L1D: 24705066
Major fault: 0 Minor fault: 3454
Allocated PAGES: 3454
[Bingo] PHT Access: 1058055
[Bingo] PHT Hit PC+Addr: 494950
[Bingo] PHT Hit PC+Offs: 99951
[Bingo] PHT Miss: 463154
[Bingo] Prefetch PC+Addr: 0
[Bingo] Prefetch PC+Offs: 0
[Bingo] Useful PC+Addr: 0
[Bingo] Useful PC+Offs: 0
[Bingo] Useless PC+Addr: 0
[Bingo] Useless PC+Offs: 0
[Bingo] L1 Prefetch per Region: 5.21216
[Bingo] L2 Prefetch per Region: 0.0363388
[Bingo] L3 Prefetch per Region: 0
[Bingo] No Prefetch per Region: 26.7515
[Bingo] Number of Voters Mean: 11.9792
[Bingo] Number of Voters SD: 8.33752
PHT read accesses: 4460734
PHT write accesses: 409750
AT read accesses: 27176883
AT write accesses: 27177120
FT read accesses: 8796845
FT write accesses: 1058055
PS read accesses: 1325848
PS write accesses: 594901
PHT tag read accesses: 17503457
PHT tag write accesses: 904700
AT tag read accesses: 551101614
AT tag write accesses: 27586633
FT tag read accesses: 149918631
FT tag write accesses: 5754784
PS tag read accesses: 523954251
PS tag write accesses: 1920164

DRAM Statistics
 CHANNEL 0
 RQ ROW_BUFFER_HIT:       5276  ROW_BUFFER_MISS:      16481
 DBUS_CONGESTED:         10
 WQ ROW_BUFFER_HIT:        729  ROW_BUFFER_MISS:      10252  FULL:          0

 AVG_CONGESTED_CYCLE: 6
 All warmup complete: 2
Channel 0 Bank busy for read cycles: 0
Channel 0 Bank busy for write cycles: 0
Channel 0
Rank 0
0banks busy for read cycles: 387866640
0banks busy for write cycles: 8190
1banks busy for read cycles: 1782533
1banks busy for write cycles: 1161131
2banks busy for read cycles: 286106
2banks busy for write cycles: 169360
3banks busy for read cycles: 58154
3banks busy for write cycles: 23325
4banks busy for read cycles: 21247
4banks busy for write cycles: 15220
5banks busy for read cycles: 10464
5banks busy for write cycles: 6290
6banks busy for read cycles: 7496
6banks busy for write cycles: 4559
7banks busy for read cycles: 2884
7banks busy for write cycles: 2748
8banks busy for read cycles: 544
8banks busy for write cycles: 1927

CPU 0 Branch Prediction Accuracy: 99.9775% MPKI: 0.03855 Average ROB Occupancy at Mispredict: 18.8473
Branch types
NOT_BRANCH: 165663597 82.8318%
BRANCH_DIRECT_JUMP: 2069035 1.03452%
BRANCH_INDIRECT: 12587391 6.2937%
BRANCH_CONDITIONAL: 10231477 5.11574%
BRANCH_DIRECT_CALL: 3828229 1.91411%
BRANCH_INDIRECT_CALL: 895995 0.447997%
BRANCH_RETURN: 4724210 2.36211%
BRANCH_OTHER: 0 0%

DRAM PAGES: 1048576
Allocated PAGES: 3454
