
*** ChampSim Multicore Out-of-Order Simulator ***

Warmup Instructions: 50000000
Simulation Instructions: 200000000
Number of CPUs: 1
LLC sets: 2048
LLC ways: 16
Off-chip DRAM Size: 4096 MB Channels: 1 Width: 64-bit Data Rate: 6400 MT/s
CPU 0 runs traces/spec2k17/srv_63.champsimtrace.xz
.xz
BTB has LRU replacement policy
ITLB has LRU replacement policy
DTLB has LRU replacement policy
STLB has LRU replacement policy
L1I has LRU replacement policy
Bingo PHT WAYS: 16 and PHT_SIZE: 16384
L1D has LRU replacement policy
Initialize SRRIP state for L2C
Initialize DRRIP state for LLC
Heartbeat CPU 0 instructions: 10000000 cycles: 2770988 heartbeat IPC: 3.60882 cumulative IPC: 3.60882 (Simulation time: 0 hr 0 min 34 sec) 
Heartbeat CPU 0 instructions: 20000003 cycles: 5536656 heartbeat IPC: 3.61576 cumulative IPC: 3.61229 (Simulation time: 0 hr 1 min 7 sec) 
Heartbeat CPU 0 instructions: 30000003 cycles: 8302718 heartbeat IPC: 3.61525 cumulative IPC: 3.61328 (Simulation time: 0 hr 1 min 41 sec) 
*** Reached end of trace for Core: 0 Repeating trace: traces/spec2k17/srv_63.champsimtrace.xz
Heartbeat CPU 0 instructions: 40000001 cycles: 11066127 heartbeat IPC: 3.61872 cumulative IPC: 3.61463 (Simulation time: 0 hr 2 min 15 sec) 
Heartbeat CPU 0 instructions: 50000001 cycles: 13830331 heartbeat IPC: 3.61768 cumulative IPC: 3.61524 (Simulation time: 0 hr 2 min 49 sec) 

Warmup complete CPU 0 instructions: 50000001 cycles: 13830331 (Simulation time: 0 hr 2 min 49 sec) 

Heartbeat CPU 0 instructions: 60000000 cycles: 35855915 heartbeat IPC: 0.454017 cumulative IPC: 0.454017 (Simulation time: 0 hr 3 min 44 sec) 
*** Reached end of trace for Core: 0 Repeating trace: traces/spec2k17/srv_63.champsimtrace.xz
Heartbeat CPU 0 instructions: 70000001 cycles: 57293708 heartbeat IPC: 0.466466 cumulative IPC: 0.460158 (Simulation time: 0 hr 4 min 38 sec) 
Heartbeat CPU 0 instructions: 80000001 cycles: 78896793 heartbeat IPC: 0.462897 cumulative IPC: 0.461067 (Simulation time: 0 hr 5 min 19 sec) 
Heartbeat CPU 0 instructions: 90000000 cycles: 100689016 heartbeat IPC: 0.458879 cumulative IPC: 0.460518 (Simulation time: 0 hr 5 min 53 sec) 
*** Reached end of trace for Core: 0 Repeating trace: traces/spec2k17/srv_63.champsimtrace.xz
Heartbeat CPU 0 instructions: 100000002 cycles: 122308429 heartbeat IPC: 0.462547 cumulative IPC: 0.460923 (Simulation time: 0 hr 6 min 31 sec) 
Heartbeat CPU 0 instructions: 110000000 cycles: 143720279 heartbeat IPC: 0.467031 cumulative IPC: 0.46193 (Simulation time: 0 hr 7 min 5 sec) 
Heartbeat CPU 0 instructions: 120000000 cycles: 165270600 heartbeat IPC: 0.46403 cumulative IPC: 0.462228 (Simulation time: 0 hr 7 min 39 sec) 
*** Reached end of trace for Core: 0 Repeating trace: traces/spec2k17/srv_63.champsimtrace.xz
Heartbeat CPU 0 instructions: 130000000 cycles: 187003690 heartbeat IPC: 0.460128 cumulative IPC: 0.461965 (Simulation time: 0 hr 8 min 20 sec) 
Heartbeat CPU 0 instructions: 140000003 cycles: 208475123 heartbeat IPC: 0.465735 cumulative IPC: 0.462381 (Simulation time: 0 hr 8 min 53 sec) 
Heartbeat CPU 0 instructions: 150000003 cycles: 229801150 heartbeat IPC: 0.468911 cumulative IPC: 0.463026 (Simulation time: 0 hr 9 min 25 sec) 
*** Reached end of trace for Core: 0 Repeating trace: traces/spec2k17/srv_63.champsimtrace.xz
Heartbeat CPU 0 instructions: 160000000 cycles: 251781511 heartbeat IPC: 0.454951 cumulative IPC: 0.46228 (Simulation time: 0 hr 9 min 58 sec) 
Heartbeat CPU 0 instructions: 170000003 cycles: 273111301 heartbeat IPC: 0.468828 cumulative IPC: 0.462818 (Simulation time: 0 hr 10 min 30 sec) 
Heartbeat CPU 0 instructions: 180000003 cycles: 294497068 heartbeat IPC: 0.467601 cumulative IPC: 0.463183 (Simulation time: 0 hr 11 min 2 sec) 
*** Reached end of trace for Core: 0 Repeating trace: traces/spec2k17/srv_63.champsimtrace.xz
Heartbeat CPU 0 instructions: 190000000 cycles: 316397420 heartbeat IPC: 0.456614 cumulative IPC: 0.462707 (Simulation time: 0 hr 11 min 34 sec) 
Heartbeat CPU 0 instructions: 200000000 cycles: 337754998 heartbeat IPC: 0.468218 cumulative IPC: 0.463071 (Simulation time: 0 hr 12 min 6 sec) 
Heartbeat CPU 0 instructions: 210000002 cycles: 358996871 heartbeat IPC: 0.470768 cumulative IPC: 0.463544 (Simulation time: 0 hr 12 min 38 sec) 
*** Reached end of trace for Core: 0 Repeating trace: traces/spec2k17/srv_63.champsimtrace.xz
Heartbeat CPU 0 instructions: 220000000 cycles: 380867906 heartbeat IPC: 0.457226 cumulative IPC: 0.463168 (Simulation time: 0 hr 13 min 11 sec) 
Heartbeat CPU 0 instructions: 230000001 cycles: 402136007 heartbeat IPC: 0.470188 cumulative IPC: 0.463552 (Simulation time: 0 hr 13 min 43 sec) 
Heartbeat CPU 0 instructions: 240000002 cycles: 423765727 heartbeat IPC: 0.462327 cumulative IPC: 0.463488 (Simulation time: 0 hr 14 min 15 sec) 
*** Reached end of trace for Core: 0 Repeating trace: traces/spec2k17/srv_63.champsimtrace.xz
Heartbeat CPU 0 instructions: 250000000 cycles: 445267333 heartbeat IPC: 0.465081 cumulative IPC: 0.463567 (Simulation time: 0 hr 14 min 46 sec) 
Finished CPU 0 instructions: 200000001 cycles: 431437003 cumulative IPC: 0.463567 (Simulation time: 0 hr 14 min 46 sec) 

ChampSim completed all CPUs

Region of Interest Statistics

CPU 0 cumulative IPC: 0.463567 instructions: 200000001 cycles: 431437003
ITLB TOTAL     ACCESS:   31322306  HIT:   30541728  MISS:     780578  HIT %:    97.5079  MISS %:    2.49208   MPKI: 3.90289
ITLB LOAD TRANSLATION ACCESS:   31322306  HIT:   30541728  MISS:     780578  HIT %:    97.5079  MISS %:    2.49208   MPKI: 3.90289
ITLB PREFETCH  REQUESTED:          0  ISSUED:          0  USEFUL:          0  USELESS:          0
ITLB USEFUL LOAD PREFETCHES:          0 PREFETCH ISSUED TO LOWER LEVEL:          0  ACCURACY: -nan
ITLB TIMELY PREFETCHES:          0 LATE PREFETCHES: 0 DROPPED PREFETCHES: 0
ITLB PREFETCHES SAME FILL-ORIGIN LEVEL: 0 DIFFERENT FILL-ORIGIN LEVEL: 0
ITLB AVERAGE MISS LATENCY: 13.951 cycles
ITLB RQ	ACCESS:   38366799	FORWARD:          0	MERGED:    6848822	TO_CACHE:   31517977

DTLB TOTAL     ACCESS:   37469080  HIT:   34858731  MISS:    2610349  HIT %:    93.0333  MISS %:    6.96667   MPKI: 13.0517
DTLB LOAD TRANSLATION ACCESS:   37469080  HIT:   34858731  MISS:    2610349  HIT %:    93.0333  MISS %:    6.96667   MPKI: 13.0517
DTLB PREFETCH  REQUESTED:          0  ISSUED:          0  USEFUL:          0  USELESS:          0
DTLB USEFUL LOAD PREFETCHES:          0 PREFETCH ISSUED TO LOWER LEVEL:          0  ACCURACY: -nan
DTLB TIMELY PREFETCHES:          0 LATE PREFETCHES: 0 DROPPED PREFETCHES: 0
DTLB PREFETCHES SAME FILL-ORIGIN LEVEL: 0 DIFFERENT FILL-ORIGIN LEVEL: 0
DTLB AVERAGE MISS LATENCY: 13.8367 cycles
DTLB RQ	ACCESS:   47873593	FORWARD:          0	MERGED:   10256624	TO_CACHE:   37616969

STLB TOTAL     ACCESS:    4102368  HIT:    3746813  MISS:     355555  HIT %:    91.3329  MISS %:    8.66707   MPKI: 1.77777
STLB LOAD TRANSLATION ACCESS:    3390927  HIT:    3035372  MISS:     355555  HIT %:    89.5145  MISS %:    10.4855   MPKI: 1.77777
STLB TRANSLATION FROM L1D PREFETCHER ACCESS:     711441  HIT:     711441  MISS:          0  HIT %:        100  MISS %:          0   MPKI: 0
STLB PREFETCH  REQUESTED:          0  ISSUED:          0  USEFUL:          0  USELESS:          0
STLB USEFUL LOAD PREFETCHES:          0 PREFETCH ISSUED TO LOWER LEVEL:          0  ACCURACY: -nan
STLB TIMELY PREFETCHES:          0 LATE PREFETCHES: 0 DROPPED PREFETCHES: 0
STLB PREFETCHES SAME FILL-ORIGIN LEVEL: 0 DIFFERENT FILL-ORIGIN LEVEL: 0
STLB AVERAGE MISS LATENCY: 46.1452 cycles
STLB RQ	ACCESS:    5542232	FORWARD:          0	MERGED:    1439864	TO_CACHE:    4102368

STLB Hit, L1D data hit: 0
STLB Hit, L2C data hit: 0
STLB Hit, LLC data hit: 0
STLB Hit, LLC data miss: 0
STLB STLB hints to L2: 0
L1D TOTAL     ACCESS:   49586875  HIT:   46692473  MISS:    2894402  HIT %:     94.163  MISS %:    5.83703   MPKI: 14.472
L1D LOAD      ACCESS:   27839251  HIT:   26668622  MISS:    1170629  HIT %:     95.795  MISS %:    4.20496   MPKI: 5.85314
L1D RFO       ACCESS:   19789596  HIT:   19588018  MISS:     201578  HIT %:    98.9814  MISS %:    1.01861   MPKI: 1.00789
L1D PREFETCH  ACCESS:    1958028  HIT:     435833  MISS:    1522195  HIT %:    22.2588  MISS %:    77.7412   MPKI: 7.61097
AGUS PREFETCH L1 MISS: 0
L1D PREFETCH  REQUESTED:    4303061  ISSUED:    4303061  USEFUL:    1172259  USELESS:     349932
L1D USEFUL LOAD PREFETCHES:    1172259 PREFETCH ISSUED TO LOWER LEVEL:    1623754  ACCURACY: 72.1944
L1D TIMELY PREFETCHES:    1172259 LATE PREFETCHES: 22255 DROPPED PREFETCHES: 0
L1D PREFETCHES SAME FILL-ORIGIN LEVEL: 1550087 DIFFERENT FILL-ORIGIN LEVEL: 73667
L1D AVERAGE MISS LATENCY: 2.21932e+06 cycles
L1D RQ	ACCESS:   42331661	FORWARD:          0	MERGED:   14191701	TO_CACHE:   27884489
L1D WQ	ACCESS:   20271818	FORWARD:     255917	MERGED:     282714	TO_CACHE:   19989104
L1D PQ	ACCESS:    2151756	FORWARD:          0	MERGED:          5	TO_CACHE:    2151305

L1D UNIQUE REGIONS ACCESSED: 0
L1D REGIONS CONFLICTS: 0
L1D Cross Page Prefetch Requests: 0
L1D Same Page Prefetch Requests: 2633513
L1D ROI Sum of L1D PQ occupancy: 30633687
L1D PREFETCHES PUSHED FROM L2C: 0
L1I TOTAL     ACCESS:   36569834  HIT:   31425320  MISS:    5144514  HIT %:    85.9324  MISS %:    14.0676   MPKI: 25.7226
L1I LOAD      ACCESS:   36569834  HIT:   31425320  MISS:    5144514  HIT %:    85.9324  MISS %:    14.0676   MPKI: 25.7226
L1I PREFETCH  REQUESTED:          0  ISSUED:          0  USEFUL:          0  USELESS:          0
L1I USEFUL LOAD PREFETCHES:          0 PREFETCH ISSUED TO LOWER LEVEL:          0  ACCURACY: -nan
L1I TIMELY PREFETCHES:          0 LATE PREFETCHES: 0 DROPPED PREFETCHES: 0
L1I PREFETCHES SAME FILL-ORIGIN LEVEL: 0 DIFFERENT FILL-ORIGIN LEVEL: 0
L1I AVERAGE MISS LATENCY: 25.7086 cycles
L1I RQ	ACCESS:   57220271	FORWARD:          0	MERGED:   18853472	TO_CACHE:   38366799

BTB TOTAL     ACCESS:   22132994  HIT:   17703037  MISS:    4429957  HIT %:    79.9848  MISS %:    20.0152   MPKI: 22.1498
BTB BRANCH_DIRECT_JUMP	ACCESS:    1771716  HIT:    1521380  MISS:     250336
BTB BRANCH_INDIRECT	ACCESS:    9488973  HIT:    7332684  MISS:    2156289
BTB BRANCH_CONDITIONAL	ACCESS:    4504476  HIT:    4096603  MISS:     407873
BTB BRANCH_DIRECT_CALL	ACCESS:    2499396  HIT:    2015019  MISS:     484377
BTB BRANCH_INDIRECT_CALL	ACCESS:     683762  HIT:     642808  MISS:      40954
BTB BRANCH_RETURN	ACCESS:    3184671  HIT:    2094543  MISS:    1090128
BTB BRANCH_OTHER ACCESS:          0  HIT:          0  MISS:          0

L2C TOTAL     ACCESS:    9621839  HIT:    6232326  MISS:    3389513  HIT %:    64.7727  MISS %:    35.2273   MPKI: 16.9476
L2C LOAD      ACCESS:    6292807  HIT:    3900444  MISS:    2392363  HIT %:    61.9826  MISS %:    38.0174   MPKI: 11.9618
L2C DATA LOAD MPKI: 2.29365
L2C INSTRUCTION LOAD MPKI: 9.66816
L2C RFO       ACCESS:     195933  HIT:     124154  MISS:      71779  HIT %:    63.3655  MISS %:    36.6345   MPKI: 0.358895
L2C PREFETCH  ACCESS:    1622676  HIT:     927778  MISS:     694898  HIT %:    57.1758  MISS %:    42.8242   MPKI: 3.47449
AGUS PREFETCH L1 MISS: 0
L2C DATA PREFETCH MPKI: 3.47449
L2C INSTRUCTION PREFETCH MPKI: 0
L2C WRITEBACK ACCESS:    1044931  HIT:     999750  MISS:      45181  HIT %:    95.6762  MISS %:    4.32383   MPKI: 0.225905
L2C LOAD TRANSLATION ACCESS:     465492  HIT:     280200  MISS:     185292  HIT %:    60.1944  MISS %:    39.8056   MPKI: 0.92646
L2C PREFETCH  REQUESTED:          0  ISSUED:          0  USEFUL:      72363  USELESS:     622532
L2C USEFUL LOAD PREFETCHES:      72363 PREFETCH ISSUED TO LOWER LEVEL:     695887  ACCURACY: 10.3987
L2C TIMELY PREFETCHES:      72363 LATE PREFETCHES: 989 DROPPED PREFETCHES: 0
L2C PREFETCHES SAME FILL-ORIGIN LEVEL: 59859 DIFFERENT FILL-ORIGIN LEVEL: 0
L2C AVERAGE MISS LATENCY: 45.6242 cycles
L2C RQ	ACCESS:    6954322	FORWARD:          0	MERGED:          0	TO_CACHE:    6954233
L2C WQ	ACCESS:    1044931	FORWARD:        178	MERGED:          0	TO_CACHE:    1044931
L2C PQ	ACCESS:    1623754	FORWARD:          0	MERGED:          0	TO_CACHE:    1623665

L2C Instructions Evicting Data 724829
L2C Translations Evicting Data 72418
L2C Data Evicting Data 456808
L2C Instructions Evicting Instructions 1105766
L2C Translations Evicting Instructions 101536
L2C Data Evicting Instructions 699946
L2C Instructions Evicting Translations 103038
L2C Translations Evicting Translations 11338
L2C Data Evicting Translations 68653
L2C Dense regions hint from L2: 0
PSCL5 TOTAL     ACCESS:     355555  HIT:     355555  MISS:          0  HIT %:        100  MISS %:          0   MPKI: 0
PSCL5 LOAD TRANSLATION ACCESS:     355555  HIT:     355555  MISS:          0  HIT %:        100  MISS %:          0   MPKI: 0
PSCL5 PREFETCH  REQUESTED:          0  ISSUED:          0  USEFUL:          0  USELESS:          0
PSCL5 USEFUL LOAD PREFETCHES:          0 PREFETCH ISSUED TO LOWER LEVEL:          0  ACCURACY: -nan
PSCL5 TIMELY PREFETCHES:          0 LATE PREFETCHES: 0 DROPPED PREFETCHES: 0
PSCL5 PREFETCHES SAME FILL-ORIGIN LEVEL: 0 DIFFERENT FILL-ORIGIN LEVEL: 0

PSCL4 TOTAL     ACCESS:     335400  HIT:     334965  MISS:        435  HIT %:    99.8703  MISS %:   0.129696   MPKI: 0.002175
PSCL4 LOAD TRANSLATION ACCESS:     335400  HIT:     334965  MISS:        435  HIT %:    99.8703  MISS %:   0.129696   MPKI: 0.002175
PSCL4 PREFETCH  REQUESTED:          0  ISSUED:          0  USEFUL:          0  USELESS:          0
PSCL4 USEFUL LOAD PREFETCHES:          0 PREFETCH ISSUED TO LOWER LEVEL:          0  ACCURACY: -nan
PSCL4 TIMELY PREFETCHES:          0 LATE PREFETCHES: 0 DROPPED PREFETCHES: 0
PSCL4 PREFETCHES SAME FILL-ORIGIN LEVEL: 0 DIFFERENT FILL-ORIGIN LEVEL: 0

PSCL3 TOTAL     ACCESS:     354590  HIT:     353722  MISS:        868  HIT %:    99.7552  MISS %:    0.24479   MPKI: 0.00434
PSCL3 LOAD TRANSLATION ACCESS:     354590  HIT:     353722  MISS:        868  HIT %:    99.7552  MISS %:    0.24479   MPKI: 0.00434
PSCL3 PREFETCH  REQUESTED:          0  ISSUED:          0  USEFUL:          0  USELESS:          0
PSCL3 USEFUL LOAD PREFETCHES:          0 PREFETCH ISSUED TO LOWER LEVEL:          0  ACCURACY: -nan
PSCL3 TIMELY PREFETCHES:          0 LATE PREFETCHES: 0 DROPPED PREFETCHES: 0
PSCL3 PREFETCHES SAME FILL-ORIGIN LEVEL: 0 DIFFERENT FILL-ORIGIN LEVEL: 0

PSCL2 TOTAL     ACCESS:     355555  HIT:     246921  MISS:     108634  HIT %:    69.4466  MISS %:    30.5534   MPKI: 0.54317
PSCL2 LOAD TRANSLATION ACCESS:     355555  HIT:     246921  MISS:     108634  HIT %:    69.4466  MISS %:    30.5534   MPKI: 0.54317
PSCL2 PREFETCH  REQUESTED:          0  ISSUED:          0  USEFUL:          0  USELESS:          0
PSCL2 USEFUL LOAD PREFETCHES:          0 PREFETCH ISSUED TO LOWER LEVEL:          0  ACCURACY: -nan
PSCL2 TIMELY PREFETCHES:          0 LATE PREFETCHES: 0 DROPPED PREFETCHES: 0
PSCL2 PREFETCHES SAME FILL-ORIGIN LEVEL: 0 DIFFERENT FILL-ORIGIN LEVEL: 0

LLC TOTAL     ACCESS:    3763727  HIT:    3432351  MISS:     331376  HIT %:    91.1955  MISS %:    8.80446   MPKI: 1.65688
LLC LOAD      ACCESS:    2391850  HIT:    2320303  MISS:      71547  HIT %:    97.0087  MISS %:    2.99128   MPKI: 0.357735
LLC RFO       ACCESS:      71303  HIT:      53199  MISS:      18104  HIT %:    74.6098  MISS %:    25.3902   MPKI: 0.09052
LLC PREFETCH  ACCESS:     695887  HIT:     469204  MISS:     226683  HIT %:    67.4253  MISS %:    32.5747   MPKI: 1.13341
AGUS PREFETCH L1 MISS: 0
LLC WRITEBACK ACCESS:     419395  HIT:     417112  MISS:       2283  HIT %:    99.4556  MISS %:   0.544356   MPKI: 0.011415
LLC LOAD TRANSLATION ACCESS:     185292  HIT:     172533  MISS:      12759  HIT %:    93.1141  MISS %:    6.88589   MPKI: 0.063795
LLC PREFETCH  REQUESTED:          0  ISSUED:          0  USEFUL:       4956  USELESS:     221619
LLC USEFUL LOAD PREFETCHES:       4956 PREFETCH ISSUED TO LOWER LEVEL:     226683  ACCURACY: 2.18631
LLC TIMELY PREFETCHES:       4956 LATE PREFETCHES: 0 DROPPED PREFETCHES: 0
LLC PREFETCHES SAME FILL-ORIGIN LEVEL: 0 DIFFERENT FILL-ORIGIN LEVEL: 0
LLC AVERAGE MISS LATENCY: 164.324 cycles
LLC RQ	ACCESS:    2648445	FORWARD:          0	MERGED:          0	TO_CACHE:    2648445
LLC WQ	ACCESS:     419395	FORWARD:          0	MERGED:          0	TO_CACHE:     419395
LLC PQ	ACCESS:     695887	FORWARD:          0	MERGED:          0	TO_CACHE:     695887

LLC Dense regions hint to LLC: 0

RAW hits: 2521013
Loads Generated: 44852676
Loads sent to L1D: 42331661
Stores Generated: 20271815
Stores sent to L1D: 20271818
Major fault: 0 Minor fault: 6260
Allocated PAGES: 6260
[Bingo] PHT Access: 1239363
[Bingo] PHT Hit PC+Addr: 610898
[Bingo] PHT Hit PC+Offs: 72737
[Bingo] PHT Miss: 555728
[Bingo] Prefetch PC+Addr: 0
[Bingo] Prefetch PC+Offs: 0
[Bingo] Useful PC+Addr: 0
[Bingo] Useful PC+Offs: 0
[Bingo] Useless PC+Addr: 0
[Bingo] Useless PC+Offs: 0
[Bingo] L1 Prefetch per Region: 4.06116
[Bingo] L2 Prefetch per Region: 0.115183
[Bingo] L3 Prefetch per Region: 0
[Bingo] No Prefetch per Region: 27.8237
[Bingo] Number of Voters Mean: 3.91658
[Bingo] Number of Voters SD: 4.91458
PHT read accesses: 10174526
PHT write accesses: 486181
AT read accesses: 21255316
AT write accesses: 21261875
FT read accesses: 13308340
FT write accesses: 1239363
PS read accesses: 1419183
PS write accesses: 683635
PHT tag read accesses: 20035848
PHT tag write accesses: 1097079
AT tag read accesses: 511137192
AT tag write accesses: 21741493
FT tag read accesses: 210758498
FT tag write accesses: 8192098
PS tag read accesses: 469222005
PS tag write accesses: 2100756

DRAM Statistics
 CHANNEL 0
 RQ ROW_BUFFER_HIT:     104152  ROW_BUFFER_MISS:     224941
 DBUS_CONGESTED:        179
 WQ ROW_BUFFER_HIT:      29347  ROW_BUFFER_MISS:     186762  FULL:          0

 AVG_CONGESTED_CYCLE: 4
 All warmup complete: 2
Channel 0 Bank busy for read cycles: 0
Channel 0 Bank busy for write cycles: 0
Channel 0
Rank 0
0banks busy for read cycles: 403446738
0banks busy for write cycles: 42767
1banks busy for read cycles: 8405078
1banks busy for write cycles: 4591392
2banks busy for read cycles: 2248053
2banks busy for write cycles: 1948878
3banks busy for read cycles: 1213977
3banks busy for write cycles: 1334542
4banks busy for read cycles: 831124
4banks busy for write cycles: 1083415
5banks busy for read cycles: 530280
5banks busy for write cycles: 932246
6banks busy for read cycles: 477053
6banks busy for write cycles: 844317
7banks busy for read cycles: 558978
7banks busy for write cycles: 852082
8banks busy for read cycles: 1207008
8banks busy for write cycles: 889076

CPU 0 Branch Prediction Accuracy: 99.8245% MPKI: 0.314415 Average ROB Occupancy at Mispredict: 35.9807
Branch types
NOT_BRANCH: 164177132 82.0886%
BRANCH_DIRECT_JUMP: 1771716 0.885858%
BRANCH_INDIRECT: 9488973 4.74449%
BRANCH_CONDITIONAL: 18194016 9.09701%
BRANCH_DIRECT_CALL: 2499396 1.2497%
BRANCH_INDIRECT_CALL: 683762 0.341881%
BRANCH_RETURN: 3184671 1.59234%
BRANCH_OTHER: 0 0%

DRAM PAGES: 1048576
Allocated PAGES: 6260
