
*** ChampSim Multicore Out-of-Order Simulator ***

Warmup Instructions: 50000000
Simulation Instructions: 200000000
Number of CPUs: 1
LLC sets: 2048
LLC ways: 16
Off-chip DRAM Size: 4096 MB Channels: 1 Width: 64-bit Data Rate: 6400 MT/s
CPU 0 runs traces/spec2k17/srv_51.champsimtrace.xz
.xz
BTB has LRU replacement policy
ITLB has LRU replacement policy
DTLB has LRU replacement policy
STLB has LRU replacement policy
L1I has LRU replacement policy
Bingo PHT WAYS: 16 and PHT_SIZE: 16384
L1D has LRU replacement policy
Initialize SRRIP state for L2C
Initialize DRRIP state for LLC
Heartbeat CPU 0 instructions: 10000001 cycles: 2874338 heartbeat IPC: 3.47906 cumulative IPC: 3.47906 (Simulation time: 0 hr 0 min 23 sec) 
Heartbeat CPU 0 instructions: 20000003 cycles: 5677219 heartbeat IPC: 3.56776 cumulative IPC: 3.52285 (Simulation time: 0 hr 0 min 47 sec) 
Heartbeat CPU 0 instructions: 30000003 cycles: 8548628 heartbeat IPC: 3.48261 cumulative IPC: 3.50934 (Simulation time: 0 hr 1 min 11 sec) 
*** Reached end of trace for Core: 0 Repeating trace: traces/spec2k17/srv_51.champsimtrace.xz
Heartbeat CPU 0 instructions: 40000002 cycles: 11413185 heartbeat IPC: 3.49094 cumulative IPC: 3.50472 (Simulation time: 0 hr 1 min 35 sec) 
Heartbeat CPU 0 instructions: 50000001 cycles: 14215735 heartbeat IPC: 3.56818 cumulative IPC: 3.51723 (Simulation time: 0 hr 1 min 58 sec) 

Warmup complete CPU 0 instructions: 50000001 cycles: 14215735 (Simulation time: 0 hr 1 min 58 sec) 

Heartbeat CPU 0 instructions: 60000000 cycles: 39324412 heartbeat IPC: 0.398269 cumulative IPC: 0.398269 (Simulation time: 0 hr 2 min 34 sec) 
*** Reached end of trace for Core: 0 Repeating trace: traces/spec2k17/srv_51.champsimtrace.xz
Heartbeat CPU 0 instructions: 70000002 cycles: 65903036 heartbeat IPC: 0.376242 cumulative IPC: 0.386942 (Simulation time: 0 hr 3 min 10 sec) 
Heartbeat CPU 0 instructions: 80000001 cycles: 82388623 heartbeat IPC: 0.60659 cumulative IPC: 0.440058 (Simulation time: 0 hr 3 min 57 sec) 
Heartbeat CPU 0 instructions: 90000001 cycles: 108897497 heartbeat IPC: 0.377232 cumulative IPC: 0.422468 (Simulation time: 0 hr 4 min 55 sec) 
*** Reached end of trace for Core: 0 Repeating trace: traces/spec2k17/srv_51.champsimtrace.xz
Heartbeat CPU 0 instructions: 100000001 cycles: 134483916 heartbeat IPC: 0.390832 cumulative IPC: 0.415738 (Simulation time: 0 hr 5 min 48 sec) 
Heartbeat CPU 0 instructions: 110000000 cycles: 151563332 heartbeat IPC: 0.5855 cumulative IPC: 0.436848 (Simulation time: 0 hr 6 min 37 sec) 
Heartbeat CPU 0 instructions: 120000001 cycles: 177183222 heartbeat IPC: 0.390322 cumulative IPC: 0.429534 (Simulation time: 0 hr 7 min 13 sec) 
*** Reached end of trace for Core: 0 Repeating trace: traces/spec2k17/srv_51.champsimtrace.xz
Heartbeat CPU 0 instructions: 130000000 cycles: 203034545 heartbeat IPC: 0.386827 cumulative IPC: 0.423687 (Simulation time: 0 hr 7 min 49 sec) 
Heartbeat CPU 0 instructions: 140000000 cycles: 221735730 heartbeat IPC: 0.534725 cumulative IPC: 0.433693 (Simulation time: 0 hr 8 min 22 sec) 
Heartbeat CPU 0 instructions: 150000000 cycles: 245013449 heartbeat IPC: 0.429595 cumulative IPC: 0.43328 (Simulation time: 0 hr 8 min 57 sec) 
*** Reached end of trace for Core: 0 Repeating trace: traces/spec2k17/srv_51.champsimtrace.xz
Heartbeat CPU 0 instructions: 160000003 cycles: 272039267 heartbeat IPC: 0.370017 cumulative IPC: 0.426648 (Simulation time: 0 hr 9 min 33 sec) 
Heartbeat CPU 0 instructions: 170000001 cycles: 291512775 heartbeat IPC: 0.513518 cumulative IPC: 0.432749 (Simulation time: 0 hr 10 min 7 sec) 
Heartbeat CPU 0 instructions: 180000002 cycles: 314877918 heartbeat IPC: 0.427988 cumulative IPC: 0.432379 (Simulation time: 0 hr 10 min 43 sec) 
*** Reached end of trace for Core: 0 Repeating trace: traces/spec2k17/srv_51.champsimtrace.xz
Heartbeat CPU 0 instructions: 190000001 cycles: 340139061 heartbeat IPC: 0.395865 cumulative IPC: 0.429549 (Simulation time: 0 hr 11 min 18 sec) 
Heartbeat CPU 0 instructions: 200000001 cycles: 361577674 heartbeat IPC: 0.466448 cumulative IPC: 0.431826 (Simulation time: 0 hr 11 min 53 sec) 
Heartbeat CPU 0 instructions: 210000002 cycles: 384512107 heartbeat IPC: 0.436026 cumulative IPC: 0.432086 (Simulation time: 0 hr 12 min 28 sec) 
*** Reached end of trace for Core: 0 Repeating trace: traces/spec2k17/srv_51.champsimtrace.xz
Heartbeat CPU 0 instructions: 220000000 cycles: 407924464 heartbeat IPC: 0.427125 cumulative IPC: 0.431791 (Simulation time: 0 hr 13 min 4 sec) 
Heartbeat CPU 0 instructions: 230000002 cycles: 431518715 heartbeat IPC: 0.423832 cumulative IPC: 0.431341 (Simulation time: 0 hr 13 min 38 sec) 
Heartbeat CPU 0 instructions: 240000001 cycles: 454154323 heartbeat IPC: 0.441782 cumulative IPC: 0.431878 (Simulation time: 0 hr 14 min 20 sec) 
*** Reached end of trace for Core: 0 Repeating trace: traces/spec2k17/srv_51.champsimtrace.xz
Heartbeat CPU 0 instructions: 250000003 cycles: 477047638 heartbeat IPC: 0.436809 cumulative IPC: 0.432122 (Simulation time: 0 hr 14 min 58 sec) 
Finished CPU 0 instructions: 200000002 cycles: 462831903 cumulative IPC: 0.432122 (Simulation time: 0 hr 14 min 58 sec) 

ChampSim completed all CPUs

Region of Interest Statistics

CPU 0 cumulative IPC: 0.432122 instructions: 200000002 cycles: 462831903
ITLB TOTAL     ACCESS:   34144035  HIT:   33253048  MISS:     890987  HIT %:    97.3905  MISS %:     2.6095   MPKI: 4.45493
ITLB LOAD TRANSLATION ACCESS:   34144035  HIT:   33253048  MISS:     890987  HIT %:    97.3905  MISS %:     2.6095   MPKI: 4.45493
ITLB PREFETCH  REQUESTED:          0  ISSUED:          0  USEFUL:          0  USELESS:          0
ITLB USEFUL LOAD PREFETCHES:          0 PREFETCH ISSUED TO LOWER LEVEL:          0  ACCURACY: -nan
ITLB TIMELY PREFETCHES:          0 LATE PREFETCHES: 0 DROPPED PREFETCHES: 0
ITLB PREFETCHES SAME FILL-ORIGIN LEVEL: 0 DIFFERENT FILL-ORIGIN LEVEL: 0
ITLB AVERAGE MISS LATENCY: 10.0427 cycles
ITLB RQ	ACCESS:   39343819	FORWARD:          0	MERGED:    4958419	TO_CACHE:   34385400

DTLB TOTAL     ACCESS:   42288743  HIT:   41241382  MISS:    1047361  HIT %:    97.5233  MISS %:    2.47669   MPKI: 5.2368
DTLB LOAD TRANSLATION ACCESS:   42288743  HIT:   41241382  MISS:    1047361  HIT %:    97.5233  MISS %:    2.47669   MPKI: 5.2368
DTLB PREFETCH  REQUESTED:          0  ISSUED:          0  USEFUL:          0  USELESS:          0
DTLB USEFUL LOAD PREFETCHES:          0 PREFETCH ISSUED TO LOWER LEVEL:          0  ACCURACY: -nan
DTLB TIMELY PREFETCHES:          0 LATE PREFETCHES: 0 DROPPED PREFETCHES: 0
DTLB PREFETCHES SAME FILL-ORIGIN LEVEL: 0 DIFFERENT FILL-ORIGIN LEVEL: 0
DTLB AVERAGE MISS LATENCY: 15.0634 cycles
DTLB RQ	ACCESS:   55267463	FORWARD:          0	MERGED:   12911614	TO_CACHE:   42355849

STLB TOTAL     ACCESS:    2709202  HIT:    2625160  MISS:      84042  HIT %:    96.8979  MISS %:    3.10209   MPKI: 0.42021
STLB LOAD TRANSLATION ACCESS:    1938348  HIT:    1854306  MISS:      84042  HIT %:    95.6642  MISS %:    4.33575   MPKI: 0.42021
STLB TRANSLATION FROM L1D PREFETCHER ACCESS:     770854  HIT:     770854  MISS:          0  HIT %:        100  MISS %:          0   MPKI: 0
STLB PREFETCH  REQUESTED:          0  ISSUED:          0  USEFUL:          0  USELESS:          0
STLB USEFUL LOAD PREFETCHES:          0 PREFETCH ISSUED TO LOWER LEVEL:          0  ACCURACY: -nan
STLB TIMELY PREFETCHES:          0 LATE PREFETCHES: 0 DROPPED PREFETCHES: 0
STLB PREFETCHES SAME FILL-ORIGIN LEVEL: 0 DIFFERENT FILL-ORIGIN LEVEL: 0
STLB AVERAGE MISS LATENCY: 86.5139 cycles
STLB RQ	ACCESS:    4671890	FORWARD:          0	MERGED:    1962688	TO_CACHE:    2709202

STLB Hit, L1D data hit: 0
STLB Hit, L2C data hit: 0
STLB Hit, LLC data hit: 0
STLB Hit, LLC data miss: 0
STLB STLB hints to L2: 0
L1D TOTAL     ACCESS:   57103366  HIT:   54306131  MISS:    2797235  HIT %:    95.1015  MISS %:    4.89855   MPKI: 13.9862
L1D LOAD      ACCESS:   34283161  HIT:   33429001  MISS:     854160  HIT %:    97.5085  MISS %:    2.49149   MPKI: 4.2708
L1D RFO       ACCESS:   20333150  HIT:   19879256  MISS:     453894  HIT %:    97.7677  MISS %:    2.23229   MPKI: 2.26947
L1D PREFETCH  ACCESS:    2487055  HIT:     997874  MISS:    1489181  HIT %:    40.1227  MISS %:    59.8773   MPKI: 7.4459
AGUS PREFETCH L1 MISS: 0
L1D PREFETCH  REQUESTED:    5467842  ISSUED:    5467842  USEFUL:    1192007  USELESS:     297187
L1D USEFUL LOAD PREFETCHES:    1192007 PREFETCH ISSUED TO LOWER LEVEL:    1672998  ACCURACY: 71.2498
L1D TIMELY PREFETCHES:    1192007 LATE PREFETCHES: 31471 DROPPED PREFETCHES: 0
L1D PREFETCHES SAME FILL-ORIGIN LEVEL: 1523340 DIFFERENT FILL-ORIGIN LEVEL: 149658
L1D AVERAGE MISS LATENCY: 3.01273e+06 cycles
L1D RQ	ACCESS:   46174952	FORWARD:          0	MERGED:   11546624	TO_CACHE:   34329658
L1D WQ	ACCESS:   21239484	FORWARD:     299410	MERGED:     301679	TO_CACHE:   20937805
L1D PQ	ACCESS:    2734300	FORWARD:          0	MERGED:         18	TO_CACHE:    2733542

L1D UNIQUE REGIONS ACCESSED: 0
L1D REGIONS CONFLICTS: 0
L1D Cross Page Prefetch Requests: 0
L1D Same Page Prefetch Requests: 3331746
L1D ROI Sum of L1D PQ occupancy: 39570250
L1D PREFETCHES PUSHED FROM L2C: 0
L1I TOTAL     ACCESS:   38617760  HIT:   33873656  MISS:    4744104  HIT %:    87.7152  MISS %:    12.2848   MPKI: 23.7205
L1I LOAD      ACCESS:   38617760  HIT:   33873656  MISS:    4744104  HIT %:    87.7152  MISS %:    12.2848   MPKI: 23.7205
L1I PREFETCH  REQUESTED:          0  ISSUED:          0  USEFUL:          0  USELESS:          0
L1I USEFUL LOAD PREFETCHES:          0 PREFETCH ISSUED TO LOWER LEVEL:          0  ACCURACY: -nan
L1I TIMELY PREFETCHES:          0 LATE PREFETCHES: 0 DROPPED PREFETCHES: 0
L1I PREFETCHES SAME FILL-ORIGIN LEVEL: 0 DIFFERENT FILL-ORIGIN LEVEL: 0
L1I AVERAGE MISS LATENCY: 24.114 cycles
L1I RQ	ACCESS:   59211432	FORWARD:          0	MERGED:   19867613	TO_CACHE:   39343819

BTB TOTAL     ACCESS:   30738840  HIT:   24217544  MISS:    6521296  HIT %:    78.7848  MISS %:    21.2152   MPKI: 32.6065
BTB BRANCH_DIRECT_JUMP	ACCESS:    3651900  HIT:    3183732  MISS:     468168
BTB BRANCH_INDIRECT	ACCESS:   11989099  HIT:    9519359  MISS:    2469740
BTB BRANCH_CONDITIONAL	ACCESS:    8587084  HIT:    8036020  MISS:     551064
BTB BRANCH_DIRECT_CALL	ACCESS:    2662247  HIT:    1824351  MISS:     837896
BTB BRANCH_INDIRECT_CALL	ACCESS:     593188  HIT:     320085  MISS:     273103
BTB BRANCH_RETURN	ACCESS:    3255322  HIT:    1333997  MISS:    1921325
BTB BRANCH_OTHER ACCESS:          0  HIT:          0  MISS:          0

L2C TOTAL     ACCESS:    9079246  HIT:    6157862  MISS:    2921384  HIT %:    67.8235  MISS %:    32.1765   MPKI: 14.6069
L2C LOAD      ACCESS:    5566780  HIT:    3744241  MISS:    1822539  HIT %:    67.2604  MISS %:    32.7396   MPKI: 9.11269
L2C DATA LOAD MPKI: 1.65466
L2C INSTRUCTION LOAD MPKI: 7.45803
L2C RFO       ACCESS:     451200  HIT:     191945  MISS:     259255  HIT %:     42.541  MISS %:     57.459   MPKI: 1.29627
L2C PREFETCH  ACCESS:    1672223  HIT:     972133  MISS:     700090  HIT %:    58.1342  MISS %:    41.8658   MPKI: 3.50045
AGUS PREFETCH L1 MISS: 0
L2C DATA PREFETCH MPKI: 3.50045
L2C INSTRUCTION PREFETCH MPKI: 0
L2C WRITEBACK ACCESS:    1256475  HIT:    1188320  MISS:      68155  HIT %:    94.5757  MISS %:     5.4243   MPKI: 0.340775
L2C LOAD TRANSLATION ACCESS:     132568  HIT:      61223  MISS:      71345  HIT %:    46.1823  MISS %:    53.8177   MPKI: 0.356725
L2C PREFETCH  REQUESTED:          0  ISSUED:          0  USEFUL:      91827  USELESS:     608168
L2C USEFUL LOAD PREFETCHES:      91827 PREFETCH ISSUED TO LOWER LEVEL:     700824  ACCURACY: 13.1027
L2C TIMELY PREFETCHES:      91827 LATE PREFETCHES: 734 DROPPED PREFETCHES: 0
L2C PREFETCHES SAME FILL-ORIGIN LEVEL: 107185 DIFFERENT FILL-ORIGIN LEVEL: 0
L2C AVERAGE MISS LATENCY: 60.2144 cycles
L2C RQ	ACCESS:    6150568	FORWARD:          0	MERGED:          0	TO_CACHE:    6150548
L2C WQ	ACCESS:    1256475	FORWARD:         61	MERGED:          0	TO_CACHE:    1256475
L2C PQ	ACCESS:    1672998	FORWARD:          0	MERGED:          0	TO_CACHE:    1672957

L2C Instructions Evicting Data 599881
L2C Translations Evicting Data 41124
L2C Data Evicting Data 682143
L2C Instructions Evicting Instructions 864165
L2C Translations Evicting Instructions 27756
L2C Data Evicting Instructions 568432
L2C Instructions Evicting Translations 27560
L2C Translations Evicting Translations 2465
L2C Data Evicting Translations 39703
L2C Dense regions hint from L2: 0
PSCL5 TOTAL     ACCESS:      84042  HIT:      84042  MISS:          0  HIT %:        100  MISS %:          0   MPKI: 0
PSCL5 LOAD TRANSLATION ACCESS:      84042  HIT:      84042  MISS:          0  HIT %:        100  MISS %:          0   MPKI: 0
PSCL5 PREFETCH  REQUESTED:          0  ISSUED:          0  USEFUL:          0  USELESS:          0
PSCL5 USEFUL LOAD PREFETCHES:          0 PREFETCH ISSUED TO LOWER LEVEL:          0  ACCURACY: -nan
PSCL5 TIMELY PREFETCHES:          0 LATE PREFETCHES: 0 DROPPED PREFETCHES: 0
PSCL5 PREFETCHES SAME FILL-ORIGIN LEVEL: 0 DIFFERENT FILL-ORIGIN LEVEL: 0

PSCL4 TOTAL     ACCESS:      83435  HIT:      83012  MISS:        423  HIT %:     99.493  MISS %:   0.506981   MPKI: 0.002115
PSCL4 LOAD TRANSLATION ACCESS:      83435  HIT:      83012  MISS:        423  HIT %:     99.493  MISS %:   0.506981   MPKI: 0.002115
PSCL4 PREFETCH  REQUESTED:          0  ISSUED:          0  USEFUL:          0  USELESS:          0
PSCL4 USEFUL LOAD PREFETCHES:          0 PREFETCH ISSUED TO LOWER LEVEL:          0  ACCURACY: -nan
PSCL4 TIMELY PREFETCHES:          0 LATE PREFETCHES: 0 DROPPED PREFETCHES: 0
PSCL4 PREFETCHES SAME FILL-ORIGIN LEVEL: 0 DIFFERENT FILL-ORIGIN LEVEL: 0

PSCL3 TOTAL     ACCESS:      78272  HIT:      65040  MISS:      13232  HIT %:    83.0948  MISS %:    16.9052   MPKI: 0.06616
PSCL3 LOAD TRANSLATION ACCESS:      78272  HIT:      65040  MISS:      13232  HIT %:    83.0948  MISS %:    16.9052   MPKI: 0.06616
PSCL3 PREFETCH  REQUESTED:          0  ISSUED:          0  USEFUL:          0  USELESS:          0
PSCL3 USEFUL LOAD PREFETCHES:          0 PREFETCH ISSUED TO LOWER LEVEL:          0  ACCURACY: -nan
PSCL3 TIMELY PREFETCHES:          0 LATE PREFETCHES: 0 DROPPED PREFETCHES: 0
PSCL3 PREFETCHES SAME FILL-ORIGIN LEVEL: 0 DIFFERENT FILL-ORIGIN LEVEL: 0

PSCL2 TOTAL     ACCESS:      84042  HIT:      49171  MISS:      34871  HIT %:    58.5077  MISS %:    41.4923   MPKI: 0.174355
PSCL2 LOAD TRANSLATION ACCESS:      84042  HIT:      49171  MISS:      34871  HIT %:    58.5077  MISS %:    41.4923   MPKI: 0.174355
PSCL2 PREFETCH  REQUESTED:          0  ISSUED:          0  USEFUL:          0  USELESS:          0
PSCL2 USEFUL LOAD PREFETCHES:          0 PREFETCH ISSUED TO LOWER LEVEL:          0  ACCURACY: -nan
PSCL2 TIMELY PREFETCHES:          0 LATE PREFETCHES: 0 DROPPED PREFETCHES: 0
PSCL2 PREFETCHES SAME FILL-ORIGIN LEVEL: 0 DIFFERENT FILL-ORIGIN LEVEL: 0

LLC TOTAL     ACCESS:    3455791  HIT:    2960386  MISS:     495405  HIT %:    85.6645  MISS %:    14.3355   MPKI: 2.47702
LLC LOAD      ACCESS:    1821817  HIT:    1706153  MISS:     115664  HIT %:    93.6512  MISS %:    6.34883   MPKI: 0.57832
LLC RFO       ACCESS:     259240  HIT:     125959  MISS:     133281  HIT %:    48.5878  MISS %:    51.4122   MPKI: 0.666405
LLC PREFETCH  ACCESS:     700823  HIT:     474708  MISS:     226115  HIT %:    67.7358  MISS %:    32.2642   MPKI: 1.13057
AGUS PREFETCH L1 MISS: 0
LLC WRITEBACK ACCESS:     602566  HIT:     598715  MISS:       3851  HIT %:    99.3609  MISS %:     0.6391   MPKI: 0.019255
LLC LOAD TRANSLATION ACCESS:      71345  HIT:      54851  MISS:      16494  HIT %:    76.8814  MISS %:    23.1186   MPKI: 0.08247
LLC PREFETCH  REQUESTED:          0  ISSUED:          0  USEFUL:      11244  USELESS:     212909
LLC USEFUL LOAD PREFETCHES:      11244 PREFETCH ISSUED TO LOWER LEVEL:     226115  ACCURACY: 4.97269
LLC TIMELY PREFETCHES:      11244 LATE PREFETCHES: 0 DROPPED PREFETCHES: 0
LLC PREFETCHES SAME FILL-ORIGIN LEVEL: 0 DIFFERENT FILL-ORIGIN LEVEL: 0
LLC AVERAGE MISS LATENCY: 182.445 cycles
LLC RQ	ACCESS:    2152405	FORWARD:          0	MERGED:          0	TO_CACHE:    2152402
LLC WQ	ACCESS:     602566	FORWARD:          4	MERGED:          0	TO_CACHE:     602566
LLC PQ	ACCESS:     700824	FORWARD:          0	MERGED:          0	TO_CACHE:     700823

LLC Dense regions hint to LLC: 0

RAW hits: 2204124
Loads Generated: 48379076
Loads sent to L1D: 46174952
Stores Generated: 21239479
Stores sent to L1D: 21239484
Major fault: 0 Minor fault: 6400
Allocated PAGES: 6400
[Bingo] PHT Access: 937977
[Bingo] PHT Hit PC+Addr: 662446
[Bingo] PHT Hit PC+Offs: 66581
[Bingo] PHT Miss: 208950
[Bingo] Prefetch PC+Addr: 0
[Bingo] Prefetch PC+Offs: 0
[Bingo] Useful PC+Addr: 0
[Bingo] Useful PC+Offs: 0
[Bingo] Useless PC+Addr: 0
[Bingo] Useless PC+Offs: 0
[Bingo] L1 Prefetch per Region: 4.54706
[Bingo] L2 Prefetch per Region: 0.232297
[Bingo] L3 Prefetch per Region: 0
[Bingo] No Prefetch per Region: 27.2206
[Bingo] Number of Voters Mean: 6.15151
[Bingo] Number of Voters SD: 5.89019
PHT read accesses: 7102291
PHT write accesses: 545732
AT read accesses: 27354305
AT write accesses: 27356623
FT read accesses: 15036700
FT write accesses: 937977
PS read accesses: 1540300
PS write accesses: 729027
PHT tag read accesses: 16429083
PHT tag write accesses: 1208178
AT tag read accesses: 614580551
AT tag write accesses: 27900024
FT tag read accesses: 206097353
FT tag write accesses: 8848181
PS tag read accesses: 576075561
PS tag write accesses: 2267575

DRAM Statistics
 CHANNEL 0
 RQ ROW_BUFFER_HIT:     166424  ROW_BUFFER_MISS:     325130
 DBUS_CONGESTED:        225
 WQ ROW_BUFFER_HIT:      28164  ROW_BUFFER_MISS:     232694  FULL:          0

 AVG_CONGESTED_CYCLE: 4
 All warmup complete: 2
Channel 0 Bank busy for read cycles: 0
Channel 0 Bank busy for write cycles: 0
Channel 0
Rank 0
0banks busy for read cycles: 418517305
0banks busy for write cycles: 74976
1banks busy for read cycles: 15289283
1banks busy for write cycles: 9033595
2banks busy for read cycles: 3917112
2banks busy for write cycles: 3344794
3banks busy for read cycles: 1870997
3banks busy for write cycles: 1793185
4banks busy for read cycles: 1264054
4banks busy for write cycles: 1114119
5banks busy for read cycles: 842179
5banks busy for write cycles: 767078
6banks busy for read cycles: 756343
6banks busy for write cycles: 565338
7banks busy for read cycles: 781455
7banks busy for write cycles: 454863
8banks busy for read cycles: 1160442
8banks busy for write cycles: 1284786

CPU 0 Branch Prediction Accuracy: 99.6854% MPKI: 0.56232 Average ROB Occupancy at Mispredict: 35.0894
Branch types
NOT_BRANCH: 164252983 82.1265%
BRANCH_DIRECT_JUMP: 3651900 1.82595%
BRANCH_INDIRECT: 11989099 5.99455%
BRANCH_CONDITIONAL: 13594936 6.79747%
BRANCH_DIRECT_CALL: 2662247 1.33112%
BRANCH_INDIRECT_CALL: 593188 0.296594%
BRANCH_RETURN: 3255322 1.62766%
BRANCH_OTHER: 0 0%

DRAM PAGES: 1048576
Allocated PAGES: 6400
