
*** ChampSim Multicore Out-of-Order Simulator ***

Warmup Instructions: 50000000
Simulation Instructions: 200000000
Number of CPUs: 1
LLC sets: 2048
LLC ways: 16
Off-chip DRAM Size: 4096 MB Channels: 1 Width: 64-bit Data Rate: 6400 MT/s
CPU 0 runs traces/spec2k17/srv_43.champsimtrace.xz
.xz
BTB has LRU replacement policy
ITLB has LRU replacement policy
DTLB has LRU replacement policy
STLB has LRU replacement policy
L1I has LRU replacement policy
Bingo PHT WAYS: 16 and PHT_SIZE: 16384
L1D has LRU replacement policy
Initialize SRRIP state for L2C
Initialize DRRIP state for LLC
Heartbeat CPU 0 instructions: 10000003 cycles: 2925372 heartbeat IPC: 3.41837 cumulative IPC: 3.41837 (Simulation time: 0 hr 0 min 25 sec) 
Heartbeat CPU 0 instructions: 20000000 cycles: 5844575 heartbeat IPC: 3.42559 cumulative IPC: 3.42198 (Simulation time: 0 hr 0 min 49 sec) 
Heartbeat CPU 0 instructions: 30000001 cycles: 8764087 heartbeat IPC: 3.42523 cumulative IPC: 3.42306 (Simulation time: 0 hr 1 min 14 sec) 
*** Reached end of trace for Core: 0 Repeating trace: traces/spec2k17/srv_43.champsimtrace.xz
Heartbeat CPU 0 instructions: 40000001 cycles: 11681626 heartbeat IPC: 3.42755 cumulative IPC: 3.42418 (Simulation time: 0 hr 1 min 38 sec) 
Heartbeat CPU 0 instructions: 50000003 cycles: 14599695 heartbeat IPC: 3.42692 cumulative IPC: 3.42473 (Simulation time: 0 hr 2 min 3 sec) 

Warmup complete CPU 0 instructions: 50000003 cycles: 14599695 (Simulation time: 0 hr 2 min 3 sec) 

Heartbeat CPU 0 instructions: 60000000 cycles: 43697270 heartbeat IPC: 0.343671 cumulative IPC: 0.343671 (Simulation time: 0 hr 2 min 50 sec) 
*** Reached end of trace for Core: 0 Repeating trace: traces/spec2k17/srv_43.champsimtrace.xz
Heartbeat CPU 0 instructions: 70000000 cycles: 72720780 heartbeat IPC: 0.344548 cumulative IPC: 0.344109 (Simulation time: 0 hr 3 min 50 sec) 
Heartbeat CPU 0 instructions: 80000000 cycles: 101833068 heartbeat IPC: 0.343498 cumulative IPC: 0.343905 (Simulation time: 0 hr 4 min 39 sec) 
Heartbeat CPU 0 instructions: 90000003 cycles: 130958026 heartbeat IPC: 0.343348 cumulative IPC: 0.343766 (Simulation time: 0 hr 5 min 17 sec) 
*** Reached end of trace for Core: 0 Repeating trace: traces/spec2k17/srv_43.champsimtrace.xz
Heartbeat CPU 0 instructions: 100000003 cycles: 159972926 heartbeat IPC: 0.344651 cumulative IPC: 0.343942 (Simulation time: 0 hr 5 min 55 sec) 
Heartbeat CPU 0 instructions: 110000000 cycles: 188946900 heartbeat IPC: 0.345137 cumulative IPC: 0.344141 (Simulation time: 0 hr 6 min 32 sec) 
Heartbeat CPU 0 instructions: 120000003 cycles: 218039639 heartbeat IPC: 0.343728 cumulative IPC: 0.344082 (Simulation time: 0 hr 7 min 9 sec) 
*** Reached end of trace for Core: 0 Repeating trace: traces/spec2k17/srv_43.champsimtrace.xz
Heartbeat CPU 0 instructions: 130000002 cycles: 247012881 heartbeat IPC: 0.345146 cumulative IPC: 0.344215 (Simulation time: 0 hr 7 min 47 sec) 
Heartbeat CPU 0 instructions: 140000002 cycles: 276109656 heartbeat IPC: 0.343681 cumulative IPC: 0.344155 (Simulation time: 0 hr 8 min 25 sec) 
Heartbeat CPU 0 instructions: 150000000 cycles: 305041535 heartbeat IPC: 0.345639 cumulative IPC: 0.344303 (Simulation time: 0 hr 9 min 2 sec) 
*** Reached end of trace for Core: 0 Repeating trace: traces/spec2k17/srv_43.champsimtrace.xz
Heartbeat CPU 0 instructions: 160000000 cycles: 334099178 heartbeat IPC: 0.344144 cumulative IPC: 0.344288 (Simulation time: 0 hr 9 min 50 sec) 
Heartbeat CPU 0 instructions: 170000000 cycles: 363126744 heartbeat IPC: 0.3445 cumulative IPC: 0.344306 (Simulation time: 0 hr 10 min 34 sec) 
Heartbeat CPU 0 instructions: 180000000 cycles: 392140981 heartbeat IPC: 0.344658 cumulative IPC: 0.344333 (Simulation time: 0 hr 11 min 11 sec) 
*** Reached end of trace for Core: 0 Repeating trace: traces/spec2k17/srv_43.champsimtrace.xz
Heartbeat CPU 0 instructions: 190000002 cycles: 421167249 heartbeat IPC: 0.344516 cumulative IPC: 0.344346 (Simulation time: 0 hr 11 min 52 sec) 
Heartbeat CPU 0 instructions: 200000001 cycles: 450185720 heartbeat IPC: 0.344608 cumulative IPC: 0.344364 (Simulation time: 0 hr 12 min 29 sec) 
Heartbeat CPU 0 instructions: 210000002 cycles: 479153920 heartbeat IPC: 0.345206 cumulative IPC: 0.344416 (Simulation time: 0 hr 13 min 6 sec) 
*** Reached end of trace for Core: 0 Repeating trace: traces/spec2k17/srv_43.champsimtrace.xz
Heartbeat CPU 0 instructions: 220000000 cycles: 508217268 heartbeat IPC: 0.344076 cumulative IPC: 0.344396 (Simulation time: 0 hr 13 min 43 sec) 
Heartbeat CPU 0 instructions: 230000003 cycles: 537253600 heartbeat IPC: 0.344396 cumulative IPC: 0.344396 (Simulation time: 0 hr 14 min 21 sec) 
Heartbeat CPU 0 instructions: 240000000 cycles: 566180029 heartbeat IPC: 0.345705 cumulative IPC: 0.344465 (Simulation time: 0 hr 14 min 59 sec) 
*** Reached end of trace for Core: 0 Repeating trace: traces/spec2k17/srv_43.champsimtrace.xz
Heartbeat CPU 0 instructions: 250000002 cycles: 595217922 heartbeat IPC: 0.344378 cumulative IPC: 0.34446 (Simulation time: 0 hr 15 min 39 sec) 
Finished CPU 0 instructions: 200000001 cycles: 580618229 cumulative IPC: 0.34446 (Simulation time: 0 hr 15 min 39 sec) 

ChampSim completed all CPUs

Region of Interest Statistics

CPU 0 cumulative IPC: 0.34446 instructions: 200000001 cycles: 580618229
ITLB TOTAL     ACCESS:   34763766  HIT:   33118165  MISS:    1645601  HIT %:    95.2663  MISS %:    4.73367   MPKI: 8.228
ITLB LOAD TRANSLATION ACCESS:   34763766  HIT:   33118165  MISS:    1645601  HIT %:    95.2663  MISS %:    4.73367   MPKI: 8.228
ITLB PREFETCH  REQUESTED:          0  ISSUED:          0  USEFUL:          0  USELESS:          0
ITLB USEFUL LOAD PREFETCHES:          0 PREFETCH ISSUED TO LOWER LEVEL:          0  ACCURACY: -nan
ITLB TIMELY PREFETCHES:          0 LATE PREFETCHES: 0 DROPPED PREFETCHES: 0
ITLB PREFETCHES SAME FILL-ORIGIN LEVEL: 0 DIFFERENT FILL-ORIGIN LEVEL: 0
ITLB AVERAGE MISS LATENCY: 9.65837 cycles
ITLB RQ	ACCESS:   40677997	FORWARD:          0	MERGED:    5423532	TO_CACHE:   35254465

DTLB TOTAL     ACCESS:   46106323  HIT:   44295170  MISS:    1811153  HIT %:    96.0718  MISS %:    3.92821   MPKI: 9.05576
DTLB LOAD TRANSLATION ACCESS:   46106323  HIT:   44295170  MISS:    1811153  HIT %:    96.0718  MISS %:    3.92821   MPKI: 9.05576
DTLB PREFETCH  REQUESTED:          0  ISSUED:          0  USEFUL:          0  USELESS:          0
DTLB USEFUL LOAD PREFETCHES:          0 PREFETCH ISSUED TO LOWER LEVEL:          0  ACCURACY: -nan
DTLB TIMELY PREFETCHES:          0 LATE PREFETCHES: 0 DROPPED PREFETCHES: 0
DTLB PREFETCHES SAME FILL-ORIGIN LEVEL: 0 DIFFERENT FILL-ORIGIN LEVEL: 0
DTLB AVERAGE MISS LATENCY: 12.116 cycles
DTLB RQ	ACCESS:   61133427	FORWARD:          0	MERGED:   14911712	TO_CACHE:   46221715

STLB TOTAL     ACCESS:    4797349  HIT:    4679440  MISS:     117909  HIT %:    97.5422  MISS %:    2.45779   MPKI: 0.589545
STLB LOAD TRANSLATION ACCESS:    3456754  HIT:    3338845  MISS:     117909  HIT %:     96.589  MISS %:    3.41097   MPKI: 0.589545
STLB TRANSLATION FROM L1D PREFETCHER ACCESS:    1340595  HIT:    1340595  MISS:          0  HIT %:        100  MISS %:          0   MPKI: 0
STLB PREFETCH  REQUESTED:          0  ISSUED:          0  USEFUL:          0  USELESS:          0
STLB USEFUL LOAD PREFETCHES:          0 PREFETCH ISSUED TO LOWER LEVEL:          0  ACCURACY: -nan
STLB TIMELY PREFETCHES:          0 LATE PREFETCHES: 0 DROPPED PREFETCHES: 0
STLB PREFETCHES SAME FILL-ORIGIN LEVEL: 0 DIFFERENT FILL-ORIGIN LEVEL: 0
STLB AVERAGE MISS LATENCY: 56.7627 cycles
STLB RQ	ACCESS:    8183072	FORWARD:          0	MERGED:    3385723	TO_CACHE:    4797349

STLB Hit, L1D data hit: 0
STLB Hit, L2C data hit: 0
STLB Hit, LLC data hit: 0
STLB Hit, LLC data miss: 0
STLB STLB hints to L2: 0
L1D TOTAL     ACCESS:   64409303  HIT:   59237022  MISS:    5172281  HIT %:    91.9697  MISS %:    8.03033   MPKI: 25.8614
L1D LOAD      ACCESS:   35550340  HIT:   34043418  MISS:    1506922  HIT %:    95.7612  MISS %:    4.23884   MPKI: 7.53461
L1D RFO       ACCESS:   24360996  HIT:   23625803  MISS:     735193  HIT %:    96.9821  MISS %:    3.01791   MPKI: 3.67596
L1D PREFETCH  ACCESS:    4497967  HIT:    1567801  MISS:    2930166  HIT %:    34.8558  MISS %:    65.1442   MPKI: 14.6508
AGUS PREFETCH L1 MISS: 0
L1D PREFETCH  REQUESTED:    9453371  ISSUED:    9453371  USEFUL:    2390692  USELESS:     539561
L1D USEFUL LOAD PREFETCHES:    2390692 PREFETCH ISSUED TO LOWER LEVEL:    3049539  ACCURACY: 78.3952
L1D TIMELY PREFETCHES:    2390692 LATE PREFETCHES: 25378 DROPPED PREFETCHES: 0
L1D PREFETCHES SAME FILL-ORIGIN LEVEL: 2960502 DIFFERENT FILL-ORIGIN LEVEL: 89037
L1D AVERAGE MISS LATENCY: 1.77238e+06 cycles
L1D RQ	ACCESS:   46692475	FORWARD:          0	MERGED:   10887675	TO_CACHE:   35592354
L1D WQ	ACCESS:   25869328	FORWARD:     213159	MERGED:     328255	TO_CACHE:   25541073
L1D PQ	ACCESS:    4727053	FORWARD:          0	MERGED:         22	TO_CACHE:    4726318

L1D UNIQUE REGIONS ACCESSED: 0
L1D REGIONS CONFLICTS: 0
L1D Cross Page Prefetch Requests: 0
L1D Same Page Prefetch Requests: 5838881
L1D ROI Sum of L1D PQ occupancy: 67825622
L1D PREFETCHES PUSHED FROM L2C: 0
L1I TOTAL     ACCESS:   39391351  HIT:   30952903  MISS:    8438448  HIT %:    78.5779  MISS %:    21.4221   MPKI: 42.1922
L1I LOAD      ACCESS:   39391351  HIT:   30952903  MISS:    8438448  HIT %:    78.5779  MISS %:    21.4221   MPKI: 42.1922
L1I PREFETCH  REQUESTED:          0  ISSUED:          0  USEFUL:          0  USELESS:          0
L1I USEFUL LOAD PREFETCHES:          0 PREFETCH ISSUED TO LOWER LEVEL:          0  ACCURACY: -nan
L1I TIMELY PREFETCHES:          0 LATE PREFETCHES: 0 DROPPED PREFETCHES: 0
L1I PREFETCHES SAME FILL-ORIGIN LEVEL: 0 DIFFERENT FILL-ORIGIN LEVEL: 0
L1I AVERAGE MISS LATENCY: 19.7746 cycles
L1I RQ	ACCESS:   59995876	FORWARD:          0	MERGED:   19317879	TO_CACHE:   40677997

BTB TOTAL     ACCESS:   29897603  HIT:   19967868  MISS:    9929735  HIT %:    66.7875  MISS %:    33.2125   MPKI: 49.6487
BTB BRANCH_DIRECT_JUMP	ACCESS:    2615827  HIT:    1794124  MISS:     821703
BTB BRANCH_INDIRECT	ACCESS:   12513602  HIT:    8361778  MISS:    4151824
BTB BRANCH_CONDITIONAL	ACCESS:    6697250  HIT:    5806240  MISS:     891010
BTB BRANCH_DIRECT_CALL	ACCESS:    3083799  HIT:    1615768  MISS:    1468031
BTB BRANCH_INDIRECT_CALL	ACCESS:     951675  HIT:     669300  MISS:     282375
BTB BRANCH_RETURN	ACCESS:    4035450  HIT:    1720658  MISS:    2314792
BTB BRANCH_OTHER ACCESS:          0  HIT:          0  MISS:          0

L2C TOTAL     ACCESS:   16026967  HIT:   12551297  MISS:    3475670  HIT %:    78.3136  MISS %:    21.6864   MPKI: 17.3783
L2C LOAD      ACCESS:    9919991  HIT:    7901155  MISS:    2018836  HIT %:    79.6488  MISS %:    20.3512   MPKI: 10.0942
L2C DATA LOAD MPKI: 2.17113
L2C INSTRUCTION LOAD MPKI: 7.92304
L2C RFO       ACCESS:     730222  HIT:     414633  MISS:     315589  HIT %:    56.7818  MISS %:    43.2182   MPKI: 1.57794
L2C PREFETCH  ACCESS:    3049215  HIT:    2100767  MISS:     948448  HIT %:    68.8953  MISS %:    31.1047   MPKI: 4.74224
AGUS PREFETCH L1 MISS: 0
L2C DATA PREFETCH MPKI: 4.74224
L2C INSTRUCTION PREFETCH MPKI: 0
L2C WRITEBACK ACCESS:    2120130  HIT:    2020343  MISS:      99787  HIT %:    95.2934  MISS %:    4.70665   MPKI: 0.498935
L2C LOAD TRANSLATION ACCESS:     207409  HIT:     114399  MISS:      93010  HIT %:    55.1562  MISS %:    44.8438   MPKI: 0.46505
L2C PREFETCH  REQUESTED:          0  ISSUED:          0  USEFUL:      82037  USELESS:     866330
L2C USEFUL LOAD PREFETCHES:      82037 PREFETCH ISSUED TO LOWER LEVEL:     948729  ACCURACY: 8.64704
L2C TIMELY PREFETCHES:      82037 LATE PREFETCHES: 278 DROPPED PREFETCHES: 0
L2C PREFETCHES SAME FILL-ORIGIN LEVEL: 72104 DIFFERENT FILL-ORIGIN LEVEL: 0
L2C AVERAGE MISS LATENCY: 34.8111 cycles
L2C RQ	ACCESS:   10857639	FORWARD:          0	MERGED:          0	TO_CACHE:   10857622
L2C WQ	ACCESS:    2120130	FORWARD:         60	MERGED:          0	TO_CACHE:    2120130
L2C PQ	ACCESS:    3049539	FORWARD:          0	MERGED:          0	TO_CACHE:    3049496

L2C Instructions Evicting Data 665382
L2C Translations Evicting Data 61478
L2C Data Evicting Data 1012051
L2C Instructions Evicting Instructions 891269
L2C Translations Evicting Instructions 28124
L2C Data Evicting Instructions 627347
L2C Instructions Evicting Translations 27958
L2C Translations Evicting Translations 3408
L2C Data Evicting Translations 58866
L2C Dense regions hint from L2: 0
PSCL5 TOTAL     ACCESS:     117909  HIT:     117909  MISS:          0  HIT %:        100  MISS %:          0   MPKI: 0
PSCL5 LOAD TRANSLATION ACCESS:     117909  HIT:     117909  MISS:          0  HIT %:        100  MISS %:          0   MPKI: 0
PSCL5 PREFETCH  REQUESTED:          0  ISSUED:          0  USEFUL:          0  USELESS:          0
PSCL5 USEFUL LOAD PREFETCHES:          0 PREFETCH ISSUED TO LOWER LEVEL:          0  ACCURACY: -nan
PSCL5 TIMELY PREFETCHES:          0 LATE PREFETCHES: 0 DROPPED PREFETCHES: 0
PSCL5 PREFETCHES SAME FILL-ORIGIN LEVEL: 0 DIFFERENT FILL-ORIGIN LEVEL: 0

PSCL4 TOTAL     ACCESS:     111175  HIT:     107848  MISS:       3327  HIT %:    97.0074  MISS %:    2.99258   MPKI: 0.016635
PSCL4 LOAD TRANSLATION ACCESS:     111175  HIT:     107848  MISS:       3327  HIT %:    97.0074  MISS %:    2.99258   MPKI: 0.016635
PSCL4 PREFETCH  REQUESTED:          0  ISSUED:          0  USEFUL:          0  USELESS:          0
PSCL4 USEFUL LOAD PREFETCHES:          0 PREFETCH ISSUED TO LOWER LEVEL:          0  ACCURACY: -nan
PSCL4 TIMELY PREFETCHES:          0 LATE PREFETCHES: 0 DROPPED PREFETCHES: 0
PSCL4 PREFETCHES SAME FILL-ORIGIN LEVEL: 0 DIFFERENT FILL-ORIGIN LEVEL: 0

PSCL3 TOTAL     ACCESS:     110961  HIT:      87438  MISS:      23523  HIT %:    78.8007  MISS %:    21.1993   MPKI: 0.117615
PSCL3 LOAD TRANSLATION ACCESS:     110961  HIT:      87438  MISS:      23523  HIT %:    78.8007  MISS %:    21.1993   MPKI: 0.117615
PSCL3 PREFETCH  REQUESTED:          0  ISSUED:          0  USEFUL:          0  USELESS:          0
PSCL3 USEFUL LOAD PREFETCHES:          0 PREFETCH ISSUED TO LOWER LEVEL:          0  ACCURACY: -nan
PSCL3 TIMELY PREFETCHES:          0 LATE PREFETCHES: 0 DROPPED PREFETCHES: 0
PSCL3 PREFETCHES SAME FILL-ORIGIN LEVEL: 0 DIFFERENT FILL-ORIGIN LEVEL: 0

PSCL2 TOTAL     ACCESS:     117909  HIT:      55259  MISS:      62650  HIT %:    46.8658  MISS %:    53.1342   MPKI: 0.31325
PSCL2 LOAD TRANSLATION ACCESS:     117909  HIT:      55259  MISS:      62650  HIT %:    46.8658  MISS %:    53.1342   MPKI: 0.31325
PSCL2 PREFETCH  REQUESTED:          0  ISSUED:          0  USEFUL:          0  USELESS:          0
PSCL2 USEFUL LOAD PREFETCHES:          0 PREFETCH ISSUED TO LOWER LEVEL:          0  ACCURACY: -nan
PSCL2 TIMELY PREFETCHES:          0 LATE PREFETCHES: 0 DROPPED PREFETCHES: 0
PSCL2 PREFETCHES SAME FILL-ORIGIN LEVEL: 0 DIFFERENT FILL-ORIGIN LEVEL: 0

LLC TOTAL     ACCESS:    4166926  HIT:    4041500  MISS:     125426  HIT %:      96.99  MISS %:    3.01004   MPKI: 0.62713
LLC LOAD      ACCESS:    2018563  HIT:    1976806  MISS:      41757  HIT %:    97.9314  MISS %:    2.06865   MPKI: 0.208785
LLC RFO       ACCESS:     315584  HIT:     297293  MISS:      18291  HIT %:    94.2041  MISS %:    5.79592   MPKI: 0.091455
LLC PREFETCH  ACCESS:     948726  HIT:     887505  MISS:      61221  HIT %:     93.547  MISS %:    6.45297   MPKI: 0.306105
AGUS PREFETCH L1 MISS: 0
LLC WRITEBACK ACCESS:     791043  HIT:     790721  MISS:        322  HIT %:    99.9593  MISS %:  0.0407058   MPKI: 0.00161
LLC LOAD TRANSLATION ACCESS:      93010  HIT:      89175  MISS:       3835  HIT %:    95.8768  MISS %:    4.12321   MPKI: 0.019175
LLC PREFETCH  REQUESTED:          0  ISSUED:          0  USEFUL:       1796  USELESS:      59059
LLC USEFUL LOAD PREFETCHES:       1796 PREFETCH ISSUED TO LOWER LEVEL:      61224  ACCURACY: 2.93349
LLC TIMELY PREFETCHES:       1796 LATE PREFETCHES: 0 DROPPED PREFETCHES: 0
LLC PREFETCHES SAME FILL-ORIGIN LEVEL: 0 DIFFERENT FILL-ORIGIN LEVEL: 0
LLC AVERAGE MISS LATENCY: 157.453 cycles
LLC RQ	ACCESS:    2427157	FORWARD:          0	MERGED:          0	TO_CACHE:    2427157
LLC WQ	ACCESS:     791043	FORWARD:          0	MERGED:          0	TO_CACHE:     791043
LLC PQ	ACCESS:     948729	FORWARD:          0	MERGED:          0	TO_CACHE:     948729

LLC Dense regions hint to LLC: 0

RAW hits: 3091039
Loads Generated: 49783514
Loads sent to L1D: 46692475
Stores Generated: 25869307
Stores sent to L1D: 25869328
Major fault: 0 Minor fault: 4436
Allocated PAGES: 4436
[Bingo] PHT Access: 1717717
[Bingo] PHT Hit PC+Addr: 1200453
[Bingo] PHT Hit PC+Offs: 82352
[Bingo] PHT Miss: 434912
[Bingo] Prefetch PC+Addr: 0
[Bingo] Prefetch PC+Offs: 0
[Bingo] Useful PC+Addr: 0
[Bingo] Useful PC+Offs: 0
[Bingo] Useless PC+Addr: 0
[Bingo] Useless PC+Offs: 0
[Bingo] L1 Prefetch per Region: 4.63742
[Bingo] L2 Prefetch per Region: 0.0700863
[Bingo] L3 Prefetch per Region: 0
[Bingo] No Prefetch per Region: 27.2925
[Bingo] Number of Voters Mean: 4.65842
[Bingo] Number of Voters SD: 6.1014
PHT read accesses: 9024292
PHT write accesses: 977451
AT read accesses: 30360086
AT write accesses: 30360942
FT read accesses: 12291109
FT write accesses: 1717717
PS read accesses: 2674197
PS write accesses: 1282805
PHT tag read accesses: 27282765
PHT tag write accesses: 2177904
AT tag read accesses: 689060149
AT tag write accesses: 31337555
FT tag read accesses: 257830312
FT tag write accesses: 8540192
PS tag read accesses: 612104346
PS tag write accesses: 3954107

DRAM Statistics
 CHANNEL 0
 RQ ROW_BUFFER_HIT:      37904  ROW_BUFFER_MISS:      87194
 DBUS_CONGESTED:        103
 WQ ROW_BUFFER_HIT:       3614  ROW_BUFFER_MISS:      50560  FULL:          0

 AVG_CONGESTED_CYCLE: 6
 All warmup complete: 2
Channel 0 Bank busy for read cycles: 0
Channel 0 Bank busy for write cycles: 0
Channel 0
Rank 0
0banks busy for read cycles: 567119235
0banks busy for write cycles: 25728
1banks busy for read cycles: 5170763
1banks busy for write cycles: 3121667
2banks busy for read cycles: 1512794
2banks busy for write cycles: 1023392
3banks busy for read cycles: 815056
3banks busy for write cycles: 444886
4banks busy for read cycles: 450527
4banks busy for write cycles: 197394
5banks busy for read cycles: 176593
5banks busy for write cycles: 98933
6banks busy for read cycles: 102579
6banks busy for write cycles: 47476
7banks busy for read cycles: 71328
7banks busy for write cycles: 40432
8banks busy for read cycles: 68038
8banks busy for write cycles: 131409

CPU 0 Branch Prediction Accuracy: 99.8237% MPKI: 0.313695 Average ROB Occupancy at Mispredict: 33.3576
Branch types
NOT_BRANCH: 164410969 82.2055%
BRANCH_DIRECT_JUMP: 2615827 1.30791%
BRANCH_INDIRECT: 12513602 6.2568%
BRANCH_CONDITIONAL: 12388308 6.19415%
BRANCH_DIRECT_CALL: 3083799 1.5419%
BRANCH_INDIRECT_CALL: 951675 0.475837%
BRANCH_RETURN: 4035450 2.01772%
BRANCH_OTHER: 0 0%

DRAM PAGES: 1048576
Allocated PAGES: 4436
