
*** ChampSim Multicore Out-of-Order Simulator ***

Warmup Instructions: 50000000
Simulation Instructions: 200000000
Number of CPUs: 1
LLC sets: 2048
LLC ways: 16
Off-chip DRAM Size: 4096 MB Channels: 1 Width: 64-bit Data Rate: 6400 MT/s
CPU 0 runs traces/spec2k17/server_026.champsimtrace.xz
.xz
BTB has LRU replacement policy
ITLB has LRU replacement policy
DTLB has LRU replacement policy
STLB has LRU replacement policy
L1I has LRU replacement policy
CPU 0 l1d next line prefetcher
L1D has LRU replacement policy
Initialize SRRIP state for L2C
Initialize DRRIP state for LLC
Offsets elements: 
Potential of Offsets elements: 
rewards of Offsets elements: 
Printing Sanity1
offset list size1372
Heartbeat CPU 0 instructions: 10000003 cycles: 2823078 heartbeat IPC: 3.54223 cumulative IPC: 3.54223 (Simulation time: 0 hr 0 min 36 sec) 
Heartbeat CPU 0 instructions: 20000001 cycles: 5640955 heartbeat IPC: 3.54877 cumulative IPC: 3.5455 (Simulation time: 0 hr 1 min 11 sec) 
Heartbeat CPU 0 instructions: 30000002 cycles: 8457315 heartbeat IPC: 3.55068 cumulative IPC: 3.54723 (Simulation time: 0 hr 1 min 47 sec) 
Heartbeat CPU 0 instructions: 40000001 cycles: 11275139 heartbeat IPC: 3.54884 cumulative IPC: 3.54763 (Simulation time: 0 hr 2 min 21 sec) 
Offsets elements: 
Potential of Offsets elements: 
rewards of Offsets elements: 0 0 2 7 0 0 0 0 0 0 0 0 0 0 0 40 0 0 0 0 0 0 0 0 2 0 7 0 1 0 0 0 2 1 0 2 1 0 0 1 1 0 0 0 0 5 0 1 1 0 1 48 28 0 0 0 0 0 1 0 0 0 6 0 0 0 3 6 0 0 0 0 0 3 1 0 0 0 0 0 0 1 0 0 0 3 20 0 0 0 1 0 39 0 1 0 127 37 33 16 0 206 2 0 0 0 0 1 0 0 1 0 2 1 2 1 0 0 1 1 1 0 1 0 0 0 0 0 3 0 0 78 3 0 0 0 0 0 0 2 0 0 0 0 0 2 0 205 12 0 0 0 0 0 0 0 0 0 0 0 0 0 0 0 0 0 0 19 2 85 3 44 1 0 0 0 3 5 1 2 0 0 0 1 0 1 1 0 0 0 1 5 0 0 0 0 0 1 0 1 0 0 96 0 0 0 0 3 1 0 2 0 0 1 0 0 19 0 0 0 0 1 1 0 0 0 3 0 0 0 2 0 4 0 0 0 0 0 0 6 0 0 0 4 7 0 1 0 0 0 0 0 3 0 0 6 0 0 0 0 0 0 0 0 0 0 0 0 0 0 0 0 0 0 0 0 0 0 0 2 0 0 1 1 32 0 213 0 0 0 0 0 0 4 0 0 0 0 2 2 2 0 0 0 0 0 0 0 0 0 0 0 0 0 0 0 0 0 0 0 0 0 1 0 0 0 0 0 0 0 0 150 4 0 0 0 59 0 0 0 0 0 1 0 0 3 0 0 0 2 0 0 1 0 0 0 0 2 1 0 3 126 0 0 0 2 0 0 3 0 0 0 0 0 0 0 0 0 0 0 0 0 151 0 4 0 0 0 0 16 1 1 0 0 1 0 0 0 0 0 0 0 5 0 0 0 0 0 0 519 0 0 0 145 0 46 1 0 0 2 0 2 0 3 0 0 0 0 3 44 0 2 1 1 3 0 0 1 1 0 0 0 0 1 51 1 4 2 0 0 1 0 0 0 0 0 0 0 1 0 0 1 0 0 2 0 0 0 0 0 0 0 3 1 1 0 0 1 0 0 159 1 9 18 1 0 0 0 22 11 0 0 0 0 0 0 0 6 55 2 0 0 0 0 2 0 0 81 1 0 1 1 2 2 2 7 2 0 21 44 4 0 0 0 0 0 1 1 0 1 1 0 1 0 0 0 0 1 142 1 0 0 2 2 0 0 0 0 2 0 0 0 0 3 1 0 3 3 0 0 0 0 0 0 0 0 0 0 1 0 0 2 4 4 55 0 1 0 1 0 1 0 2 0 2 1 1 2 19 6 0 0 0 1 0 2 1 1 0 0 0 0 0 0 1 0 0 0 0 0 0 0 0 0 0 0 0 0 0 1 7 47 2 0 0 1 4 0 0 0 2 0 0 1 1 0 2 103 0 0 1 0 0 0 0 0 0 8 4 0 0 0 0 0 0 0 1 0 0 0 0 0 0 0 1 0 0 5 3 0 0 0 3 0 0 0 0 0 0 0 0 0 0 0 0 5 0 1 0 0 0 0 0 2 0 0 1 0 0 0 1 1 0 9 2 0 0 0 0 0 0 0 0 0 0 0 0 0 0 0 0 0 0 1 4 1 0 0 90 12 0 0 0 0 0 0 2 0 0 0 0 0 0 0 0 0 0 0 0 0 0 0 0 0 0 2 0 0 0 17 5 0 0 0 1 59 0 1 1 0 1 0 3 1 1 0 0 0 0 0 0 125 0 4 0 170 0 3 0 0 0 0 0 150 0 0 0 0 0 3 0 0 0 0 1 0 3 0 1 0 3 0 0 1 0 0 0 0 0 0 0 0 0 0 0 1 1 2 0 0 0 0 0 0 7 1 0 0 0 1 0 0 0 0 0 0 0 0 27 0 1 0 0 46 0 0 0 0 0 0 4 0 0 0 0 0 0 0 0 14 1 0 0 0 0 0 0 1 0 0 0 0 0 0 1 0 0 0 0 1 2 0 0 0 0 0 1 10 0 1 0 0 0 0 0 0 1 0 0 2 0 1 0 0 0 0 0 0 1 0 0 2 0 0 0 0 2 2 1 0 0 1 0 0 2 1 1 0 0 59 1 0 6 0 2 0 3 0 1 0 0 2 2 0 0 2 0 3 2 18 11 0 93 0 2 0 0 38 28 0 0 1 0 0 0 3 8 94 3 2 0 0 1 0 0 1 0 0 0 0 0 0 0 0 1 1 0 3 2 0 0 0 0 0 0 0 0 0 4 0 0 1 0 0 0 0 35 1 0 0 0 0 0 4 0 0 0 0 0 0 0 0 6 0 0 0 0 0 0 0 0 0 6 0 0 0 0 2 0 1 0 0 0 0 1 0 0 0 120 0 0 0 0 0 0 1 0 1 0 0 0 0 0 0 0 0 0 0 0 1 0 1 121 0 0 0 0 0 2 3 0 1 2 0 0 0 0 0 0 0 0 0 0 0 0 0 0 0 0 2 0 0 6 1 0 15 0 0 0 0 0 0 0 23 0 0 0 125 0 99 0 0 0 1 0 0 0 1 0 0 0 0 6 0 1 0 0 5 2 0 0 0 0 1 2 0 0 0 2 0 0 0 0 0 0 2 0 0 1 0 0 0 0 0 0 0 0 0 0 0 1 0 0 2 0 0 0 4 0 1 0 0 0 0 0 0 0 0 1 0 0 0 0 1 0 0 1 0 1 0 3 0 0 0 2 1 3 7 0 0 0 0 1 0 0 0 0 4 0 0 3 0 0 1 0 0 0 0 1 0 0 1 0 2 5 1 0 0 0 0 0 0 0 0 0 0 95 0 0 0 0 0 178 8 0 0 1 0 0 0 0 0 0 8 0 0 0 0 0 0 0 0 0 0 0 2 0 0 0 0 0 0 0 0 2 0 0 0 0 0 2 0 0 0 0 7 0 0 1 0 0 0 0 0 1 0 0 1 2 43 2 2 3 6 3 11 1 0 180 1 3 1 2 8 0 0 0 1 0 0 0 0 0 34 0 0 0 0 0 2 0 0 0 0 0 0 0 0 0 0 0 0 0 0 0 0 2 0 0 0 0 0 
Printing Sanity2
Heartbeat CPU 0 instructions: 50000001 cycles: 14095906 heartbeat IPC: 3.54514 cumulative IPC: 3.54713 (Simulation time: 0 hr 2 min 57 sec) 

Warmup complete CPU 0 instructions: 50000001 cycles: 14095906 (Simulation time: 0 hr 2 min 57 sec) 

Heartbeat CPU 0 instructions: 60000001 cycles: 46750327 heartbeat IPC: 0.306237 cumulative IPC: 0.306237 (Simulation time: 0 hr 3 min 54 sec) 
*** Reached end of trace for Core: 0 Repeating trace: traces/spec2k17/server_026.champsimtrace.xz
Heartbeat CPU 0 instructions: 70000000 cycles: 79240857 heartbeat IPC: 0.307782 cumulative IPC: 0.307008 (Simulation time: 0 hr 4 min 51 sec) 
Heartbeat CPU 0 instructions: 80000000 cycles: 111697473 heartbeat IPC: 0.308104 cumulative IPC: 0.307372 (Simulation time: 0 hr 5 min 51 sec) 
Heartbeat CPU 0 instructions: 90000003 cycles: 144181651 heartbeat IPC: 0.307842 cumulative IPC: 0.30749 (Simulation time: 0 hr 6 min 47 sec) 
Heartbeat CPU 0 instructions: 100000000 cycles: 176734476 heartbeat IPC: 0.307193 cumulative IPC: 0.30743 (Simulation time: 0 hr 7 min 45 sec) 
Heartbeat CPU 0 instructions: 110000000 cycles: 209206071 heartbeat IPC: 0.307961 cumulative IPC: 0.307519 (Simulation time: 0 hr 8 min 45 sec) 
Heartbeat CPU 0 instructions: 120000002 cycles: 241828304 heartbeat IPC: 0.306539 cumulative IPC: 0.307378 (Simulation time: 0 hr 9 min 42 sec) 
*** Reached end of trace for Core: 0 Repeating trace: traces/spec2k17/server_026.champsimtrace.xz
Heartbeat CPU 0 instructions: 130000002 cycles: 274277711 heartbeat IPC: 0.308172 cumulative IPC: 0.307477 (Simulation time: 0 hr 10 min 36 sec) 
Heartbeat CPU 0 instructions: 140000002 cycles: 306733819 heartbeat IPC: 0.308108 cumulative IPC: 0.307547 (Simulation time: 0 hr 11 min 36 sec) 
Heartbeat CPU 0 instructions: 150000001 cycles: 339195445 heartbeat IPC: 0.308056 cumulative IPC: 0.307598 (Simulation time: 0 hr 12 min 31 sec) 
Heartbeat CPU 0 instructions: 160000001 cycles: 371670794 heartbeat IPC: 0.307926 cumulative IPC: 0.307628 (Simulation time: 0 hr 13 min 25 sec) 
Heartbeat CPU 0 instructions: 170000000 cycles: 404220816 heartbeat IPC: 0.307219 cumulative IPC: 0.307594 (Simulation time: 0 hr 14 min 20 sec) 
Heartbeat CPU 0 instructions: 180000003 cycles: 436719289 heartbeat IPC: 0.307707 cumulative IPC: 0.307602 (Simulation time: 0 hr 15 min 18 sec) 
*** Reached end of trace for Core: 0 Repeating trace: traces/spec2k17/server_026.champsimtrace.xz
Heartbeat CPU 0 instructions: 190000000 cycles: 469172437 heartbeat IPC: 0.308136 cumulative IPC: 0.307641 (Simulation time: 0 hr 16 min 14 sec) 
Heartbeat CPU 0 instructions: 200000003 cycles: 501594480 heartbeat IPC: 0.308432 cumulative IPC: 0.307693 (Simulation time: 0 hr 17 min 11 sec) 
Heartbeat CPU 0 instructions: 210000000 cycles: 534044619 heartbeat IPC: 0.308165 cumulative IPC: 0.307723 (Simulation time: 0 hr 18 min 9 sec) 
Heartbeat CPU 0 instructions: 220000000 cycles: 566500167 heartbeat IPC: 0.308114 cumulative IPC: 0.307746 (Simulation time: 0 hr 19 min 7 sec) 
Heartbeat CPU 0 instructions: 230000000 cycles: 599043305 heartbeat IPC: 0.307284 cumulative IPC: 0.30772 (Simulation time: 0 hr 20 min 5 sec) 
Heartbeat CPU 0 instructions: 240000000 cycles: 631479700 heartbeat IPC: 0.308296 cumulative IPC: 0.30775 (Simulation time: 0 hr 21 min 8 sec) 
*** Reached end of trace for Core: 0 Repeating trace: traces/spec2k17/server_026.champsimtrace.xz
Heartbeat CPU 0 instructions: 250000003 cycles: 663986423 heartbeat IPC: 0.307629 cumulative IPC: 0.307744 (Simulation time: 0 hr 22 min 8 sec) 
Finished CPU 0 instructions: 200000002 cycles: 649890517 cumulative IPC: 0.307744 (Simulation time: 0 hr 22 min 8 sec) 

ChampSim completed all CPUs

Region of Interest Statistics

CPU 0 cumulative IPC: 0.307744 instructions: 200000002 cycles: 649890517
ITLB TOTAL     ACCESS:   34765456  HIT:   32754244  MISS:    2011212  HIT %:    94.2149  MISS %:    5.78509   MPKI: 10.0561
ITLB LOAD TRANSLATION ACCESS:   34765456  HIT:   32754244  MISS:    2011212  HIT %:    94.2149  MISS %:    5.78509   MPKI: 10.0561
ITLB PREFETCH  REQUESTED:          0  ISSUED:          0  USEFUL:          0  USELESS:          0
ITLB USEFUL LOAD PREFETCHES:          0 PREFETCH ISSUED TO LOWER LEVEL:          0  ACCURACY: -nan
ITLB TIMELY PREFETCHES:          0 LATE PREFETCHES: 0 DROPPED PREFETCHES: 0
ITLB PREFETCHES SAME FILL-ORIGIN LEVEL: 0 DIFFERENT FILL-ORIGIN LEVEL: 0
ITLB AVERAGE MISS LATENCY: 9.03244 cycles
ITLB RQ	ACCESS:   40947405	FORWARD:          0	MERGED:    5700849	TO_CACHE:   35246556

DTLB TOTAL     ACCESS:   46259569  HIT:   44423140  MISS:    1836429  HIT %:    96.0302  MISS %:    3.96984   MPKI: 9.18214
DTLB LOAD TRANSLATION ACCESS:   46259569  HIT:   44423140  MISS:    1836429  HIT %:    96.0302  MISS %:    3.96984   MPKI: 9.18214
DTLB PREFETCH  REQUESTED:          0  ISSUED:          0  USEFUL:          0  USELESS:          0
DTLB USEFUL LOAD PREFETCHES:          0 PREFETCH ISSUED TO LOWER LEVEL:          0  ACCURACY: -nan
DTLB TIMELY PREFETCHES:          0 LATE PREFETCHES: 0 DROPPED PREFETCHES: 0
DTLB PREFETCHES SAME FILL-ORIGIN LEVEL: 0 DIFFERENT FILL-ORIGIN LEVEL: 0
DTLB AVERAGE MISS LATENCY: 9.19399 cycles
DTLB RQ	ACCESS:   60876560	FORWARD:          0	MERGED:   14550437	TO_CACHE:   46326123

STLB TOTAL     ACCESS:    6541956  HIT:    6533995  MISS:       7961  HIT %:    99.8783  MISS %:   0.121691   MPKI: 0.039805
STLB LOAD TRANSLATION ACCESS:    3847641  HIT:    3839778  MISS:       7863  HIT %:    99.7956  MISS %:   0.204359   MPKI: 0.039315
STLB TRANSLATION FROM L1D PREFETCHER ACCESS:    2694315  HIT:    2694217  MISS:         98  HIT %:    99.9964  MISS %: 0.00363729   MPKI: 0.00049
STLB PREFETCH  REQUESTED:          0  ISSUED:          0  USEFUL:         78  USELESS:         20
STLB USEFUL LOAD PREFETCHES:         78 PREFETCH ISSUED TO LOWER LEVEL:          0  ACCURACY: inf
STLB TIMELY PREFETCHES:         78 LATE PREFETCHES: 153 DROPPED PREFETCHES: 12313
STLB PREFETCHES SAME FILL-ORIGIN LEVEL: 0 DIFFERENT FILL-ORIGIN LEVEL: 0
STLB AVERAGE MISS LATENCY: 56218.6 cycles
STLB RQ	ACCESS:    6742884	FORWARD:          0	MERGED:     186635	TO_CACHE:    6556249

STLB Hit, L1D data hit: 0
STLB Hit, L2C data hit: 0
STLB Hit, LLC data hit: 0
STLB Hit, LLC data miss: 0
STLB STLB hints to L2: 0
L1D TOTAL     ACCESS:   61544881  HIT:   55318921  MISS:    6225960  HIT %:    89.8839  MISS %:    10.1161   MPKI: 31.1298
L1D LOAD      ACCESS:   34168745  HIT:   31338092  MISS:    2830653  HIT %:    91.7157  MISS %:    8.28433   MPKI: 14.1533
L1D RFO       ACCESS:   24790023  HIT:   23616249  MISS:    1173774  HIT %:    95.2651  MISS %:    4.73486   MPKI: 5.86887
L1D PREFETCH  ACCESS:    2586113  HIT:     364580  MISS:    2221533  HIT %:    14.0976  MISS %:    85.9024   MPKI: 11.1077
AGUS PREFETCH L1 MISS: 0
L1D PREFETCH  REQUESTED:    5839937  ISSUED:    5839937  USEFUL:     466565  USELESS:    1754951
L1D USEFUL LOAD PREFETCHES:     466565 PREFETCH ISSUED TO LOWER LEVEL:    2409604  ACCURACY: 19.3627
L1D TIMELY PREFETCHES:     466565 LATE PREFETCHES: 186390 DROPPED PREFETCHES: 14146
L1D PREFETCHES SAME FILL-ORIGIN LEVEL: 2409604 DIFFERENT FILL-ORIGIN LEVEL: 0
L1D AVERAGE MISS LATENCY: 1.03052e+07 cycles
L1D RQ	ACCESS:   47421448	FORWARD:          0	MERGED:   12843217	TO_CACHE:   34282786
L1D WQ	ACCESS:   26764780	FORWARD:     295453	MERGED:     171006	TO_CACHE:   26593774
L1D PQ	ACCESS:    2944694	FORWARD:          0	MERGED:      49443	TO_CACHE:    2895243

L1D UNIQUE REGIONS ACCESSED: 0
L1D REGIONS CONFLICTS: 0
L1D Cross Page Prefetch Requests: 2994204
L1D Same Page Prefetch Requests: 0
L1D ROI Sum of L1D PQ occupancy: 37922788
L1D PREFETCHES PUSHED FROM L2C: 0
L1I TOTAL     ACCESS:   39436992  HIT:   28909248  MISS:   10527744  HIT %:    73.3049  MISS %:    26.6951   MPKI: 52.6387
L1I LOAD      ACCESS:   39436992  HIT:   28909248  MISS:   10527744  HIT %:    73.3049  MISS %:    26.6951   MPKI: 52.6387
L1I PREFETCH  REQUESTED:          0  ISSUED:          0  USEFUL:          0  USELESS:          0
L1I USEFUL LOAD PREFETCHES:          0 PREFETCH ISSUED TO LOWER LEVEL:          0  ACCURACY: -nan
L1I TIMELY PREFETCHES:          0 LATE PREFETCHES: 0 DROPPED PREFETCHES: 0
L1I PREFETCHES SAME FILL-ORIGIN LEVEL: 0 DIFFERENT FILL-ORIGIN LEVEL: 0
L1I AVERAGE MISS LATENCY: 17.6913 cycles
L1I RQ	ACCESS:   57901922	FORWARD:          0	MERGED:   16954517	TO_CACHE:   40947405

BTB TOTAL     ACCESS:   29988881  HIT:   17348500  MISS:   12640381  HIT %:    57.8498  MISS %:    42.1502   MPKI: 63.2019
BTB BRANCH_DIRECT_JUMP	ACCESS:    2009046  HIT:    1127352  MISS:     881694
BTB BRANCH_INDIRECT	ACCESS:   11800647  HIT:    6994353  MISS:    4806294
BTB BRANCH_CONDITIONAL	ACCESS:    7683211  HIT:    6358422  MISS:    1324789
BTB BRANCH_DIRECT_CALL	ACCESS:    3580654  HIT:    1498237  MISS:    2082417
BTB BRANCH_INDIRECT_CALL	ACCESS:     667351  HIT:     263513  MISS:     403838
BTB BRANCH_RETURN	ACCESS:    4247972  HIT:    1106623  MISS:    3141349
BTB BRANCH_OTHER ACCESS:          0  HIT:          0  MISS:          0

L2C TOTAL     ACCESS:   18928853  HIT:   16603181  MISS:    2325672  HIT %:    87.7136  MISS %:    12.2864   MPKI: 11.6284
L2C LOAD      ACCESS:   13171951  HIT:   11592308  MISS:    1579643  HIT %:    88.0075  MISS %:    11.9925   MPKI: 7.89821
L2C DATA LOAD MPKI: 1.60373
L2C INSTRUCTION LOAD MPKI: 6.29448
L2C RFO       ACCESS:    1171981  HIT:     913050  MISS:     258931  HIT %:    77.9066  MISS %:    22.0934   MPKI: 1.29465
L2C PREFETCH  ACCESS:    2409347  HIT:    1983475  MISS:     425872  HIT %:    82.3242  MISS %:    17.6758   MPKI: 2.12936
AGUS PREFETCH L1 MISS: 0
L2C DATA PREFETCH MPKI: 2.12936
L2C INSTRUCTION PREFETCH MPKI: 0
L2C WRITEBACK ACCESS:    2147871  HIT:    2095018  MISS:      52853  HIT %:    97.5393  MISS %:    2.46072   MPKI: 0.264265
L2C LOAD TRANSLATION ACCESS:       8074  HIT:       2228  MISS:       5846  HIT %:    27.5947  MISS %:    72.4053   MPKI: 0.02923
L2C TRANSLATION FROM L1D PREFETCHER ACCESS:      19629  HIT:      17102  MISS:       2527  HIT %:    87.1262  MISS %:    12.8738   MPKI: 0.012635
L2C PREFETCH  REQUESTED:          0  ISSUED:          0  USEFUL:      19090  USELESS:     409324
L2C USEFUL LOAD PREFETCHES:      19090 PREFETCH ISSUED TO LOWER LEVEL:     425872  ACCURACY: 4.48257
L2C TIMELY PREFETCHES:      19090 LATE PREFETCHES: 0 DROPPED PREFETCHES: 0
L2C PREFETCHES SAME FILL-ORIGIN LEVEL: 0 DIFFERENT FILL-ORIGIN LEVEL: 0
L2C AVERAGE MISS LATENCY: 34.8549 cycles
L2C RQ	ACCESS:   14371801	FORWARD:          0	MERGED:          0	TO_CACHE:   14371634
L2C WQ	ACCESS:    2147872	FORWARD:        424	MERGED:          0	TO_CACHE:    2147872
L2C PQ	ACCESS:    2409604	FORWARD:          0	MERGED:          0	TO_CACHE:    2409347

L2C Instructions Evicting Data 519850
L2C Translations Evicting Data 5824
L2C Data Evicting Data 507408
L2C Instructions Evicting Instructions 736639
L2C Translations Evicting Instructions 2278
L2C Data Evicting Instructions 492502
L2C Instructions Evicting Translations 2407
L2C Translations Evicting Translations 271
L2C Data Evicting Translations 5640
L2C Dense regions hint from L2: 0
PSCL5 TOTAL     ACCESS:      20275  HIT:      20275  MISS:          0  HIT %:        100  MISS %:          0   MPKI: 0
PSCL5 LOAD TRANSLATION ACCESS:       7711  HIT:       7711  MISS:          0  HIT %:        100  MISS %:          0   MPKI: 0
PSCL5 TRANSLATION FROM L1D PREFETCHER ACCESS:      12564  HIT:      12564  MISS:          0  HIT %:        100  MISS %:          0   MPKI: 0
PSCL5 PREFETCH  REQUESTED:          0  ISSUED:          0  USEFUL:          0  USELESS:          0
PSCL5 USEFUL LOAD PREFETCHES:          0 PREFETCH ISSUED TO LOWER LEVEL:          0  ACCURACY: -nan
PSCL5 TIMELY PREFETCHES:          0 LATE PREFETCHES: 0 DROPPED PREFETCHES: 0
PSCL5 PREFETCHES SAME FILL-ORIGIN LEVEL: 0 DIFFERENT FILL-ORIGIN LEVEL: 0

PSCL4 TOTAL     ACCESS:      19709  HIT:      19702  MISS:          7  HIT %:    99.9645  MISS %:  0.0355168   MPKI: 3.5e-05
PSCL4 LOAD TRANSLATION ACCESS:       7584  HIT:       7577  MISS:          7  HIT %:    99.9077  MISS %:  0.0922996   MPKI: 3.5e-05
PSCL4 TRANSLATION FROM L1D PREFETCHER ACCESS:      12125  HIT:      12125  MISS:          0  HIT %:        100  MISS %:          0   MPKI: 0
PSCL4 PREFETCH  REQUESTED:          0  ISSUED:          0  USEFUL:          0  USELESS:          0
PSCL4 USEFUL LOAD PREFETCHES:          0 PREFETCH ISSUED TO LOWER LEVEL:          0  ACCURACY: -nan
PSCL4 TIMELY PREFETCHES:          0 LATE PREFETCHES: 0 DROPPED PREFETCHES: 0
PSCL4 PREFETCHES SAME FILL-ORIGIN LEVEL: 0 DIFFERENT FILL-ORIGIN LEVEL: 0

PSCL3 TOTAL     ACCESS:      20182  HIT:      20175  MISS:          7  HIT %:    99.9653  MISS %:  0.0346844   MPKI: 3.5e-05
PSCL3 LOAD TRANSLATION ACCESS:       7623  HIT:       7616  MISS:          7  HIT %:    99.9082  MISS %:  0.0918274   MPKI: 3.5e-05
PSCL3 TRANSLATION FROM L1D PREFETCHER ACCESS:      12559  HIT:      12559  MISS:          0  HIT %:        100  MISS %:          0   MPKI: 0
PSCL3 PREFETCH  REQUESTED:          0  ISSUED:          0  USEFUL:          0  USELESS:          0
PSCL3 USEFUL LOAD PREFETCHES:          0 PREFETCH ISSUED TO LOWER LEVEL:          0  ACCURACY: -nan
PSCL3 TIMELY PREFETCHES:          0 LATE PREFETCHES: 0 DROPPED PREFETCHES: 0
PSCL3 PREFETCHES SAME FILL-ORIGIN LEVEL: 0 DIFFERENT FILL-ORIGIN LEVEL: 0

PSCL2 TOTAL     ACCESS:      13226  HIT:      12866  MISS:        360  HIT %:    97.2781  MISS %:    2.72191   MPKI: 0.0018
PSCL2 LOAD TRANSLATION ACCESS:       7719  HIT:       7359  MISS:        360  HIT %:    95.3362  MISS %:    4.66382   MPKI: 0.0018
PSCL2 TRANSLATION FROM L1D PREFETCHER ACCESS:       5507  HIT:       5507  MISS:          0  HIT %:        100  MISS %:          0   MPKI: 0
PSCL2 PREFETCH  REQUESTED:          0  ISSUED:          0  USEFUL:          0  USELESS:          0
PSCL2 USEFUL LOAD PREFETCHES:          0 PREFETCH ISSUED TO LOWER LEVEL:          0  ACCURACY: -nan
PSCL2 TIMELY PREFETCHES:          0 LATE PREFETCHES: 0 DROPPED PREFETCHES: 0
PSCL2 PREFETCHES SAME FILL-ORIGIN LEVEL: 0 DIFFERENT FILL-ORIGIN LEVEL: 0

LLC TOTAL     ACCESS:    2626862  HIT:    2550124  MISS:      76738  HIT %:    97.0787  MISS %:    2.92128   MPKI: 0.38369
LLC LOAD      ACCESS:    1579643  HIT:    1564060  MISS:      15583  HIT %:    99.0135  MISS %:   0.986489   MPKI: 0.077915
LLC RFO       ACCESS:     258928  HIT:     221668  MISS:      37260  HIT %:    85.6099  MISS %:    14.3901   MPKI: 0.1863
LLC PREFETCH  ACCESS:     425872  HIT:     402951  MISS:      22921  HIT %:    94.6179  MISS %:    5.38213   MPKI: 0.114605
AGUS PREFETCH L1 MISS: 0
LLC WRITEBACK ACCESS:     354046  HIT:     353451  MISS:        595  HIT %:    99.8319  MISS %:   0.168057   MPKI: 0.002975
LLC LOAD TRANSLATION ACCESS:       5846  HIT:       5556  MISS:        290  HIT %:    95.0393  MISS %:    4.96066   MPKI: 0.00145
LLC TRANSLATION FROM L1D PREFETCHER ACCESS:       2527  HIT:       2438  MISS:         89  HIT %:     96.478  MISS %:    3.52196   MPKI: 0.000445
LLC PREFETCH  REQUESTED:          0  ISSUED:          0  USEFUL:       1573  USELESS:      18073
LLC USEFUL LOAD PREFETCHES:       1573 PREFETCH ISSUED TO LOWER LEVEL:      22921  ACCURACY: 6.8627
LLC TIMELY PREFETCHES:       1573 LATE PREFETCHES: 0 DROPPED PREFETCHES: 0
LLC PREFETCHES SAME FILL-ORIGIN LEVEL: 0 DIFFERENT FILL-ORIGIN LEVEL: 0
LLC AVERAGE MISS LATENCY: 167.651 cycles
LLC RQ	ACCESS:    1846946	FORWARD:          0	MERGED:          0	TO_CACHE:    1846943
LLC WQ	ACCESS:     354046	FORWARD:          3	MERGED:          0	TO_CACHE:     354046
LLC PQ	ACCESS:     425872	FORWARD:          0	MERGED:          0	TO_CACHE:     425872

LLC Dense regions hint to LLC: 0

RAW hits: 1409184
Loads Generated: 48830632
Loads sent to L1D: 47421448
Stores Generated: 26764758
Stores sent to L1D: 26764780
Major fault: 0 Minor fault: 2264
Allocated PAGES: 2264
CPU 0 L1D 
Prefetch count 2449672 BOP and RL 

DRAM Statistics
 CHANNEL 0
 RQ ROW_BUFFER_HIT:      26568  ROW_BUFFER_MISS:      49557
 DBUS_CONGESTED:         30
 WQ ROW_BUFFER_HIT:       3814  ROW_BUFFER_MISS:      36359  FULL:          0

 AVG_CONGESTED_CYCLE: 4
 All warmup complete: 2
Channel 0 Bank busy for read cycles: 0
Channel 0 Bank busy for write cycles: 0
Channel 0
Rank 0
0banks busy for read cycles: 643949784
0banks busy for write cycles: 9979
1banks busy for read cycles: 1782987
1banks busy for write cycles: 1118964
2banks busy for read cycles: 783964
2banks busy for write cycles: 378553
3banks busy for read cycles: 254145
3banks busy for write cycles: 164638
4banks busy for read cycles: 194371
4banks busy for write cycles: 115663
5banks busy for read cycles: 146190
5banks busy for write cycles: 89159
6banks busy for read cycles: 127999
6banks busy for write cycles: 82449
7banks busy for read cycles: 121312
7banks busy for write cycles: 91690
8banks busy for read cycles: 195978
8banks busy for write cycles: 282693

CPU 0 Branch Prediction Accuracy: 99.8683% MPKI: 0.231785 Average ROB Occupancy at Mispredict: 31.6105
Branch types
NOT_BRANCH: 164806543 82.4033%
BRANCH_DIRECT_JUMP: 2009046 1.00452%
BRANCH_INDIRECT: 11800647 5.90032%
BRANCH_CONDITIONAL: 12887721 6.44386%
BRANCH_DIRECT_CALL: 3580654 1.79033%
BRANCH_INDIRECT_CALL: 667351 0.333675%
BRANCH_RETURN: 4247972 2.12399%
BRANCH_OTHER: 0 0%

DRAM PAGES: 1048576
Allocated PAGES: 2264
