
*** ChampSim Multicore Out-of-Order Simulator ***

Warmup Instructions: 50000000
Simulation Instructions: 200000000
Number of CPUs: 1
LLC sets: 2048
LLC ways: 16
Off-chip DRAM Size: 4096 MB Channels: 1 Width: 64-bit Data Rate: 6400 MT/s
CPU 0 runs traces/spec2k17/server_016.champsimtrace.xz
.xz
BTB has LRU replacement policy
ITLB has LRU replacement policy
DTLB has LRU replacement policy
STLB has LRU replacement policy
L1I has LRU replacement policy
CPU 0 l1d next line prefetcher
L1D has LRU replacement policy
Initialize SRRIP state for L2C
Initialize DRRIP state for LLC
Offsets elements: 
Potential of Offsets elements: 
rewards of Offsets elements: 
Printing Sanity1
offset list size1587
Heartbeat CPU 0 instructions: 10000001 cycles: 2810006 heartbeat IPC: 3.55871 cumulative IPC: 3.55871 (Simulation time: 0 hr 0 min 38 sec) 
Heartbeat CPU 0 instructions: 20000001 cycles: 5613943 heartbeat IPC: 3.56641 cumulative IPC: 3.56256 (Simulation time: 0 hr 1 min 18 sec) 
Heartbeat CPU 0 instructions: 30000000 cycles: 8416478 heartbeat IPC: 3.5682 cumulative IPC: 3.56444 (Simulation time: 0 hr 1 min 57 sec) 
Heartbeat CPU 0 instructions: 40000000 cycles: 11520317 heartbeat IPC: 3.22182 cumulative IPC: 3.47213 (Simulation time: 0 hr 2 min 21 sec) 
Heartbeat CPU 0 instructions: 50000001 cycles: 14786791 heartbeat IPC: 3.06141 cumulative IPC: 3.3814 (Simulation time: 0 hr 2 min 35 sec) 

Warmup complete CPU 0 instructions: 50000001 cycles: 14786791 (Simulation time: 0 hr 2 min 35 sec) 

Heartbeat CPU 0 instructions: 60000001 cycles: 29224822 heartbeat IPC: 0.692615 cumulative IPC: 0.692615 (Simulation time: 0 hr 3 min 13 sec) 
Heartbeat CPU 0 instructions: 70000001 cycles: 58823271 heartbeat IPC: 0.337856 cumulative IPC: 0.454169 (Simulation time: 0 hr 4 min 12 sec) 
Heartbeat CPU 0 instructions: 80000000 cycles: 89343238 heartbeat IPC: 0.327654 cumulative IPC: 0.40238 (Simulation time: 0 hr 5 min 8 sec) 
Offsets elements: 
Potential of Offsets elements: 
rewards of Offsets elements: 0 1 0 0 0 0 0 0 0 1 113 106 6 1 0 0 0 0 1 0 1 0 0 0 0 0 0 0 1 0 0 0 1 0 0 4 0 0 0 1 94 46 2 1 3 0 0 1 0 2 2 1 0 0 0 415 0 0 0 4 0 214 0 0 0 0 0 0 3 0 0 0 0 3 16 0 0 0 0 1 1 14 1 0 0 65 20 0 0 0 0 0 1 0 0 221 11 6 1 0 3 1 0 0 0 202 3 0 0 0 0 0 214 0 0 0 0 0 81 3 0 0 2 0 0 1 0 0 0 0 0 0 0 0 0 0 0 0 0 0 0 0 0 0 0 0 0 0 0 0 1 0 0 10 0 294 3 49 0 0 0 0 3 0 0 3 0 0 0 0 0 0 1 0 0 0 0 5 0 0 0 1 4 0 0 14 1 0 0 1 1 0 37 3 2 0 0 1 0 0 1 0 2 0 0 1 0 1 0 0 1 4 0 0 0 0 0 0 0 3 0 0 0 7 3 0 0 0 0 0 0 0 0 0 0 0 0 0 0 0 0 0 0 0 0 96 0 0 14 0 0 0 5 0 0 0 1 0 2 0 0 0 0 0 0 0 128 3 43 0 0 0 0 0 3 0 0 0 3 0 0 0 0 0 32 0 1 1 161 0 33 0 0 1 0 0 0 0 0 1 1 0 110 0 0 0 0 0 0 1 1 2 0 1 2 0 0 0 1 0 0 3 0 1 0 2 0 0 0 194 0 0 0 0 0 1 198 3 3 0 2 0 0 0 82 0 1 0 1 2 1 0 0 4 0 2 1 3 1 1 0 1 149 1 0 0 2 0 1 7 0 1 0 0 1 1 0 3 0 3 0 0 0 0 0 2 0 0 0 1 0 0 0 0 1 42 21 0 0 0 0 0 1 0 120 0 142 204 20 180 0 0 2 0 3 0 54 1 0 0 0 0 0 0 0 0 1 0 0 0 0 2 0 0 0 245 5 2 0 4 0 3 0 0 0 1 0 0 0 0 0 0 0 0 91 3 1 2 1 0 3 1 3 3 2 0 0 0 0 0 0 0 0 2 1 0 0 0 0 0 0 0 2 0 0 0 38 1 0 3 0 2 1 0 1 0 0 0 0 2 0 2 0 0 1 4 0 0 0 0 0 290 0 0 2 0 2 9 0 3 0 0 5 0 2 0 0 0 0 1 0 0 0 0 0 2 0 0 0 0 3 0 0 0 0 0 0 4 0 3 0 4 2 0 0 0 0 1 1 0 0 5 2 0 0 0 0 0 0 0 0 0 16 0 0 2 0 2 1 0 0 0 0 0 0 0 0 0 0 1 0 0 4 0 0 0 1 1 0 1 0 1 0 1 0 0 0 0 0 1 0 0 0 0 1 0 0 1 0 0 0 2 0 0 0 0 0 0 0 0 0 4 0 8 0 0 0 0 2 0 0 0 0 0 0 0 0 0 0 0 0 11 1 0 0 0 1 0 1 1 0 0 0 208 0 0 0 0 0 0 0 0 146 0 0 2 1 0 0 6 0 0 0 0 0 62 0 0 0 0 0 1 0 0 0 0 1 1 0 0 0 0 0 0 0 0 1 0 2 0 0 1 0 0 1 0 1 2 1 0 2 5 0 0 0 1 0 0 6 0 0 0 0 1 0 0 2 0 1 0 0 0 1 0 0 0 1 6 0 0 3 0 0 2 0 2 1 55 0 0 0 0 0 0 0 0 0 2 4 0 0 0 0 0 0 0 0 2 9 0 0 0 0 0 0 44 2 0 0 0 0 10 4 0 2 2 0 0 0 0 0 0 0 0 0 1 0 0 9 1 0 0 0 0 1 0 0 0 0 5 4 4 5 2 0 166 1 0 2 0 4 1 0 4 0 0 0 1 0 0 1 1 0 0 2 5 0 1 4 0 0 0 0 2 0 0 2 0 117 45 225 0 0 7 57 0 0 0 0 1 0 0 0 29 5 0 0 0 0 0 0 1 0 42 0 1 0 2 1 0 1 0 0 4 28 0 0 0 0 0 0 1 0 1 0 0 0 0 0 0 1 0 0 0 0 0 0 0 0 2 0 0 0 0 0 0 0 0 0 0 0 0 0 2 0 0 0 0 0 0 0 7 0 0 0 0 0 0 2 0 0 0 0 1 0 0 0 0 0 0 0 0 0 0 0 0 0 0 2 49 1 0 0 3 0 0 0 0 0 0 0 0 0 0 0 0 0 0 1 0 3 0 0 0 0 0 0 0 0 0 0 184 0 0 0 223 0 0 0 0 0 0 0 199 1 0 1 0 0 0 0 3 0 0 0 0 1 2 0 0 0 45 111 0 0 0 0 2 0 0 0 0 0 0 0 1 0 0 0 0 0 0 0 0 0 0 0 0 1 0 0 0 6 125 0 3 3 1 2 3 2 0 0 0 1 0 0 0 1 0 0 0 0 0 0 0 0 0 3 0 0 0 0 0 0 0 0 1 1 0 1 0 0 0 0 1 0 0 0 0 5 3 0 0 0 0 0 0 6 0 0 0 0 1 1 2 0 1 0 0 0 0 0 0 0 0 1 0 1 0 0 0 0 0 0 0 0 0 0 0 0 1 0 0 0 0 58 2 0 0 0 0 0 3 0 0 0 0 0 0 0 0 0 0 0 0 1 0 0 0 0 0 0 0 0 0 0 0 0 0 0 0 0 0 0 1 1 0 0 0 0 0 0 49 0 0 0 0 0 2 0 0 0 3 2 0 0 1 0 0 0 2 0 201 0 0 2 1 0 0 0 0 0 0 0 0 0 0 0 4 0 4 0 0 0 3 0 0 0 0 3 0 0 0 0 0 0 0 0 0 0 5 0 0 0 0 0 0 0 0 0 1 2 1 0 1 5 0 8 0 0 0 0 2 1 1 0 1 4 1 0 0 3 3 1 139 86 2 0 0 2 0 0 0 1 0 0 1 0 0 0 168 113 0 0 0 1 1 0 0 4 0 1 1 1 1 1 0 0 1 5 2 0 1 0 0 0 0 0 0 1 1 0 4 2 1 0 1 0 0 0 0 0 0 1 0 0 2 0 0 0 1 0 3 1 0 0 0 0 1 0 0 0 0 0 0 0 0 0 0 0 69 1 0 0 0 0 2 0 0 0 2 0 1 0 0 0 0 1 0 3 1 0 0 2 0 0 0 0 4 0 0 1 0 0 0 0 0 1 0 0 0 1 0 6 1 3 0 0 0 0 0 3 1 1 0 0 0 0 0 8 2 0 1 0 0 0 0 0 1 0 2 0 0 0 0 0 0 0 0 0 0 0 0 0 0 1 0 0 0 0 113 0 0 0 0 0 0 0 3 1 1 2 0 2 0 0 0 1 2 0 3 1 0 2 0 0 0 0 0 4 0 0 0 0 0 2 2 0 4 0 0 0 0 1 0 0 0 0 0 2 0 1 0 0 0 0 2 0 0 3 0 0 0 0 0 0 0 0 0 0 0 0 0 0 0 0 4 5 0 0 2 0 0 0 0 0 0 0 0 0 0 3 0 1 0 0 1 0 2 0 0 0 0 0 0 0 0 0 0 2 1 0 0 0 0 0 
Printing Sanity2
Heartbeat CPU 0 instructions: 90000000 cycles: 119338853 heartbeat IPC: 0.333382 cumulative IPC: 0.382585 (Simulation time: 0 hr 6 min 5 sec) 
Heartbeat CPU 0 instructions: 100000000 cycles: 150065760 heartbeat IPC: 0.325448 cumulative IPC: 0.369607 (Simulation time: 0 hr 7 min 4 sec) 
*** Reached end of trace for Core: 0 Repeating trace: traces/spec2k17/server_016.champsimtrace.xz
Heartbeat CPU 0 instructions: 110000000 cycles: 180145096 heartbeat IPC: 0.332454 cumulative IPC: 0.362848 (Simulation time: 0 hr 8 min 0 sec) 
Heartbeat CPU 0 instructions: 120000003 cycles: 210916347 heartbeat IPC: 0.324979 cumulative IPC: 0.356907 (Simulation time: 0 hr 9 min 2 sec) 
Heartbeat CPU 0 instructions: 130000000 cycles: 241332745 heartbeat IPC: 0.32877 cumulative IPC: 0.353129 (Simulation time: 0 hr 10 min 3 sec) 
Heartbeat CPU 0 instructions: 140000000 cycles: 266079631 heartbeat IPC: 0.404091 cumulative IPC: 0.358148 (Simulation time: 0 hr 10 min 55 sec) 
Heartbeat CPU 0 instructions: 150000003 cycles: 280516787 heartbeat IPC: 0.692657 cumulative IPC: 0.376322 (Simulation time: 0 hr 11 min 33 sec) 
Heartbeat CPU 0 instructions: 160000001 cycles: 294954033 heartbeat IPC: 0.692653 cumulative IPC: 0.392623 (Simulation time: 0 hr 12 min 12 sec) 
Heartbeat CPU 0 instructions: 170000000 cycles: 320435022 heartbeat IPC: 0.392449 cumulative IPC: 0.392608 (Simulation time: 0 hr 13 min 4 sec) 
Heartbeat CPU 0 instructions: 180000003 cycles: 351439988 heartbeat IPC: 0.322529 cumulative IPC: 0.386154 (Simulation time: 0 hr 14 min 3 sec) 
Heartbeat CPU 0 instructions: 190000000 cycles: 382242645 heartbeat IPC: 0.324647 cumulative IPC: 0.380998 (Simulation time: 0 hr 14 min 59 sec) 
Heartbeat CPU 0 instructions: 200000000 cycles: 412189858 heartbeat IPC: 0.333921 cumulative IPC: 0.377451 (Simulation time: 0 hr 15 min 55 sec) 
*** Reached end of trace for Core: 0 Repeating trace: traces/spec2k17/server_016.champsimtrace.xz
Heartbeat CPU 0 instructions: 210000000 cycles: 442644846 heartbeat IPC: 0.328353 cumulative IPC: 0.373956 (Simulation time: 0 hr 16 min 54 sec) 
Heartbeat CPU 0 instructions: 220000000 cycles: 473155966 heartbeat IPC: 0.327749 cumulative IPC: 0.37088 (Simulation time: 0 hr 17 min 55 sec) 
Heartbeat CPU 0 instructions: 230000000 cycles: 503464839 heartbeat IPC: 0.329936 cumulative IPC: 0.368341 (Simulation time: 0 hr 18 min 53 sec) 
Heartbeat CPU 0 instructions: 240000000 cycles: 532918566 heartbeat IPC: 0.339516 cumulative IPC: 0.366702 (Simulation time: 0 hr 19 min 51 sec) 
Heartbeat CPU 0 instructions: 250000003 cycles: 547390294 heartbeat IPC: 0.691003 cumulative IPC: 0.375514 (Simulation time: 0 hr 20 min 28 sec) 
Finished CPU 0 instructions: 200000002 cycles: 532603503 cumulative IPC: 0.375514 (Simulation time: 0 hr 20 min 28 sec) 

ChampSim completed all CPUs

Region of Interest Statistics

CPU 0 cumulative IPC: 0.375514 instructions: 200000002 cycles: 532603503
ITLB TOTAL     ACCESS:   37671822  HIT:   36261614  MISS:    1410208  HIT %:    96.2566  MISS %:     3.7434   MPKI: 7.05104
ITLB LOAD TRANSLATION ACCESS:   37671822  HIT:   36261614  MISS:    1410208  HIT %:    96.2566  MISS %:     3.7434   MPKI: 7.05104
ITLB PREFETCH  REQUESTED:          0  ISSUED:          0  USEFUL:          0  USELESS:          0
ITLB USEFUL LOAD PREFETCHES:          0 PREFETCH ISSUED TO LOWER LEVEL:          0  ACCURACY: -nan
ITLB TIMELY PREFETCHES:          0 LATE PREFETCHES: 0 DROPPED PREFETCHES: 0
ITLB PREFETCHES SAME FILL-ORIGIN LEVEL: 0 DIFFERENT FILL-ORIGIN LEVEL: 0
ITLB AVERAGE MISS LATENCY: 9.06831 cycles
ITLB RQ	ACCESS:   42313428	FORWARD:          0	MERGED:    4301811	TO_CACHE:   38011617

DTLB TOTAL     ACCESS:   39336275  HIT:   37965400  MISS:    1370875  HIT %:     96.515  MISS %:    3.48501   MPKI: 6.85437
DTLB LOAD TRANSLATION ACCESS:   39336275  HIT:   37965400  MISS:    1370875  HIT %:     96.515  MISS %:    3.48501   MPKI: 6.85437
DTLB PREFETCH  REQUESTED:          0  ISSUED:          0  USEFUL:          0  USELESS:          0
DTLB USEFUL LOAD PREFETCHES:          0 PREFETCH ISSUED TO LOWER LEVEL:          0  ACCURACY: -nan
DTLB TIMELY PREFETCHES:          0 LATE PREFETCHES: 0 DROPPED PREFETCHES: 0
DTLB PREFETCHES SAME FILL-ORIGIN LEVEL: 0 DIFFERENT FILL-ORIGIN LEVEL: 0
DTLB AVERAGE MISS LATENCY: 9.29481 cycles
DTLB RQ	ACCESS:   50770765	FORWARD:          0	MERGED:   11382296	TO_CACHE:   39388469

STLB TOTAL     ACCESS:    4467369  HIT:    4458919  MISS:       8450  HIT %:    99.8109  MISS %:   0.189149   MPKI: 0.04225
STLB LOAD TRANSLATION ACCESS:    2781083  HIT:    2773143  MISS:       7940  HIT %:    99.7145  MISS %:     0.2855   MPKI: 0.0397
STLB TRANSLATION FROM L1D PREFETCHER ACCESS:    1686286  HIT:    1685776  MISS:        510  HIT %:    99.9698  MISS %:   0.030244   MPKI: 0.00255
STLB PREFETCH  REQUESTED:          0  ISSUED:          0  USEFUL:        417  USELESS:         90
STLB USEFUL LOAD PREFETCHES:        417 PREFETCH ISSUED TO LOWER LEVEL:          0  ACCURACY: inf
STLB TIMELY PREFETCHES:        417 LATE PREFETCHES: 0 DROPPED PREFETCHES: 76142
STLB PREFETCHES SAME FILL-ORIGIN LEVEL: 0 DIFFERENT FILL-ORIGIN LEVEL: 0
STLB AVERAGE MISS LATENCY: 59.8637 cycles
STLB RQ	ACCESS:    4731417	FORWARD:          0	MERGED:     182847	TO_CACHE:    4548570

STLB Hit, L1D data hit: 0
STLB Hit, L2C data hit: 0
STLB Hit, LLC data hit: 0
STLB Hit, LLC data miss: 0
STLB STLB hints to L2: 0
L1D TOTAL     ACCESS:   51138414  HIT:   46753232  MISS:    4385182  HIT %:    91.4249  MISS %:    8.57512   MPKI: 21.9259
L1D LOAD      ACCESS:   29944854  HIT:   27709716  MISS:    2235138  HIT %:    92.5358  MISS %:    7.46418   MPKI: 11.1757
L1D RFO       ACCESS:   19379745  HIT:   18526874  MISS:     852871  HIT %:    95.5992  MISS %:    4.40084   MPKI: 4.26435
L1D PREFETCH  ACCESS:    1813815  HIT:     516642  MISS:    1297173  HIT %:    28.4837  MISS %:    71.5163   MPKI: 6.48586
AGUS PREFETCH L1 MISS: 0
L1D PREFETCH  REQUESTED:    3940651  ISSUED:    3940644  USEFUL:     123885  USELESS:    1173189
L1D USEFUL LOAD PREFETCHES:     123885 PREFETCH ISSUED TO LOWER LEVEL:    1298124  ACCURACY: 9.54339
L1D TIMELY PREFETCHES:     123885 LATE PREFETCHES: 950 DROPPED PREFETCHES: 85330
L1D PREFETCHES SAME FILL-ORIGIN LEVEL: 1298124 DIFFERENT FILL-ORIGIN LEVEL: 0
L1D AVERAGE MISS LATENCY: 63950 cycles
L1D RQ	ACCESS:   40502537	FORWARD:          0	MERGED:   10213199	TO_CACHE:   30042314
L1D WQ	ACCESS:   20857481	FORWARD:     247173	MERGED:     129030	TO_CACHE:   20728451
L1D PQ	ACCESS:    1990310	FORWARD:          0	MERGED:      39827	TO_CACHE:    1950334

L1D UNIQUE REGIONS ACCESSED: 0
L1D REGIONS CONFLICTS: 0
L1D Cross Page Prefetch Requests: 1990310
L1D Same Page Prefetch Requests: 0
L1D ROI Sum of L1D PQ occupancy: 27607879
L1D PREFETCHES PUSHED FROM L2C: 0
L1I TOTAL     ACCESS:   41222159  HIT:   33846947  MISS:    7375212  HIT %:    82.1086  MISS %:    17.8914   MPKI: 36.8761
L1I LOAD      ACCESS:   41222159  HIT:   33846947  MISS:    7375212  HIT %:    82.1086  MISS %:    17.8914   MPKI: 36.8761
L1I PREFETCH  REQUESTED:          0  ISSUED:          0  USEFUL:          0  USELESS:          0
L1I USEFUL LOAD PREFETCHES:          0 PREFETCH ISSUED TO LOWER LEVEL:          0  ACCURACY: -nan
L1I TIMELY PREFETCHES:          0 LATE PREFETCHES: 0 DROPPED PREFETCHES: 0
L1I PREFETCHES SAME FILL-ORIGIN LEVEL: 0 DIFFERENT FILL-ORIGIN LEVEL: 0
L1I AVERAGE MISS LATENCY: 17.5981 cycles
L1I RQ	ACCESS:   60011036	FORWARD:          0	MERGED:   17697608	TO_CACHE:   42313428

BTB TOTAL     ACCESS:   31149502  HIT:   22487623  MISS:    8661879  HIT %:    72.1926  MISS %:    27.8074   MPKI: 43.3094
BTB BRANCH_DIRECT_JUMP	ACCESS:    1790889  HIT:    1185918  MISS:     604971
BTB BRANCH_INDIRECT	ACCESS:    9233189  HIT:    5986023  MISS:    3247166
BTB BRANCH_CONDITIONAL	ACCESS:   13716226  HIT:   12843151  MISS:     873075
BTB BRANCH_DIRECT_CALL	ACCESS:    2729399  HIT:    1310065  MISS:    1419334
BTB BRANCH_INDIRECT_CALL	ACCESS:     475210  HIT:     188709  MISS:     286501
BTB BRANCH_RETURN	ACCESS:    3204589  HIT:     973757  MISS:    2230832
BTB BRANCH_OTHER ACCESS:          0  HIT:          0  MISS:          0

L2C TOTAL     ACCESS:   13399923  HIT:   11676785  MISS:    1723138  HIT %:    87.1407  MISS %:    12.8593   MPKI: 8.61569
L2C LOAD      ACCESS:    9609262  HIT:    8385346  MISS:    1223916  HIT %:    87.2632  MISS %:    12.7368   MPKI: 6.11958
L2C DATA LOAD MPKI: 1.87789
L2C INSTRUCTION LOAD MPKI: 4.24169
L2C RFO       ACCESS:     852869  HIT:     673686  MISS:     179183  HIT %:    78.9906  MISS %:    21.0094   MPKI: 0.895915
L2C PREFETCH  ACCESS:    1298124  HIT:    1025696  MISS:     272428  HIT %:    79.0137  MISS %:    20.9863   MPKI: 1.36214
AGUS PREFETCH L1 MISS: 0
L2C DATA PREFETCH MPKI: 1.36214
L2C INSTRUCTION PREFETCH MPKI: 0
L2C WRITEBACK ACCESS:    1511181  HIT:    1476422  MISS:      34759  HIT %:    97.6999  MISS %:    2.30012   MPKI: 0.173795
L2C LOAD TRANSLATION ACCESS:       8907  HIT:       2581  MISS:       6326  HIT %:    28.9772  MISS %:    71.0228   MPKI: 0.03163
L2C TRANSLATION FROM L1D PREFETCHER ACCESS:     119580  HIT:     113054  MISS:       6526  HIT %:    94.5426  MISS %:    5.45743   MPKI: 0.03263
L2C PREFETCH  REQUESTED:          0  ISSUED:          0  USEFUL:      12675  USELESS:     265709
L2C USEFUL LOAD PREFETCHES:      12675 PREFETCH ISSUED TO LOWER LEVEL:     272428  ACCURACY: 4.65261
L2C TIMELY PREFETCHES:      12675 LATE PREFETCHES: 0 DROPPED PREFETCHES: 0
L2C PREFETCHES SAME FILL-ORIGIN LEVEL: 0 DIFFERENT FILL-ORIGIN LEVEL: 0
L2C AVERAGE MISS LATENCY: 40.2792 cycles
L2C RQ	ACCESS:   10590757	FORWARD:          0	MERGED:          0	TO_CACHE:   10590618
L2C WQ	ACCESS:    1511181	FORWARD:        139	MERGED:          0	TO_CACHE:    1511181
L2C PQ	ACCESS:    1298124	FORWARD:          0	MERGED:          0	TO_CACHE:    1298124

L2C Instructions Evicting Data 396607
L2C Translations Evicting Data 7482
L2C Data Evicting Data 441690
L2C Instructions Evicting Instructions 446525
L2C Translations Evicting Instructions 5254
L2C Data Evicting Instructions 378162
L2C Instructions Evicting Translations 5206
L2C Translations Evicting Translations 116
L2C Data Evicting Translations 7337
L2C Dense regions hint from L2: 0
PSCL5 TOTAL     ACCESS:      84592  HIT:      84592  MISS:          0  HIT %:        100  MISS %:          0   MPKI: 0
PSCL5 LOAD TRANSLATION ACCESS:       7940  HIT:       7940  MISS:          0  HIT %:        100  MISS %:          0   MPKI: 0
PSCL5 TRANSLATION FROM L1D PREFETCHER ACCESS:      76652  HIT:      76652  MISS:          0  HIT %:        100  MISS %:          0   MPKI: 0
PSCL5 PREFETCH  REQUESTED:          0  ISSUED:          0  USEFUL:          0  USELESS:          0
PSCL5 USEFUL LOAD PREFETCHES:          0 PREFETCH ISSUED TO LOWER LEVEL:          0  ACCURACY: -nan
PSCL5 TIMELY PREFETCHES:          0 LATE PREFETCHES: 0 DROPPED PREFETCHES: 0
PSCL5 PREFETCHES SAME FILL-ORIGIN LEVEL: 0 DIFFERENT FILL-ORIGIN LEVEL: 0

PSCL4 TOTAL     ACCESS:      72189  HIT:      72140  MISS:         49  HIT %:    99.9321  MISS %:  0.0678774   MPKI: 0.000245
PSCL4 LOAD TRANSLATION ACCESS:       7387  HIT:       7338  MISS:         49  HIT %:    99.3367  MISS %:   0.663327   MPKI: 0.000245
PSCL4 TRANSLATION FROM L1D PREFETCHER ACCESS:      64802  HIT:      64802  MISS:          0  HIT %:        100  MISS %:          0   MPKI: 0
PSCL4 PREFETCH  REQUESTED:          0  ISSUED:          0  USEFUL:          0  USELESS:          0
PSCL4 USEFUL LOAD PREFETCHES:          0 PREFETCH ISSUED TO LOWER LEVEL:          0  ACCURACY: -nan
PSCL4 TIMELY PREFETCHES:          0 LATE PREFETCHES: 0 DROPPED PREFETCHES: 0
PSCL4 PREFETCHES SAME FILL-ORIGIN LEVEL: 0 DIFFERENT FILL-ORIGIN LEVEL: 0

PSCL3 TOTAL     ACCESS:      83096  HIT:      83047  MISS:         49  HIT %:     99.941  MISS %:  0.0589679   MPKI: 0.000245
PSCL3 LOAD TRANSLATION ACCESS:       7800  HIT:       7751  MISS:         49  HIT %:    99.3718  MISS %:   0.628205   MPKI: 0.000245
PSCL3 TRANSLATION FROM L1D PREFETCHER ACCESS:      75296  HIT:      75296  MISS:          0  HIT %:        100  MISS %:          0   MPKI: 0
PSCL3 PREFETCH  REQUESTED:          0  ISSUED:          0  USEFUL:          0  USELESS:          0
PSCL3 USEFUL LOAD PREFETCHES:          0 PREFETCH ISSUED TO LOWER LEVEL:          0  ACCURACY: -nan
PSCL3 TIMELY PREFETCHES:          0 LATE PREFETCHES: 0 DROPPED PREFETCHES: 0
PSCL3 PREFETCHES SAME FILL-ORIGIN LEVEL: 0 DIFFERENT FILL-ORIGIN LEVEL: 0

PSCL2 TOTAL     ACCESS:      43227  HIT:      42301  MISS:        926  HIT %:    97.8578  MISS %:    2.14218   MPKI: 0.00463
PSCL2 LOAD TRANSLATION ACCESS:       7987  HIT:       7061  MISS:        926  HIT %:    88.4062  MISS %:    11.5938   MPKI: 0.00463
PSCL2 TRANSLATION FROM L1D PREFETCHER ACCESS:      35240  HIT:      35240  MISS:          0  HIT %:        100  MISS %:          0   MPKI: 0
PSCL2 PREFETCH  REQUESTED:          0  ISSUED:          0  USEFUL:          0  USELESS:          0
PSCL2 USEFUL LOAD PREFETCHES:          0 PREFETCH ISSUED TO LOWER LEVEL:          0  ACCURACY: -nan
PSCL2 TIMELY PREFETCHES:          0 LATE PREFETCHES: 0 DROPPED PREFETCHES: 0
PSCL2 PREFETCHES SAME FILL-ORIGIN LEVEL: 0 DIFFERENT FILL-ORIGIN LEVEL: 0

LLC TOTAL     ACCESS:    1940550  HIT:    1826359  MISS:     114191  HIT %:    94.1155  MISS %:    5.88447   MPKI: 0.570955
LLC LOAD      ACCESS:    1223916  HIT:    1182402  MISS:      41514  HIT %:    96.6081  MISS %:     3.3919   MPKI: 0.20757
LLC RFO       ACCESS:     179179  HIT:     123607  MISS:      55572  HIT %:    68.9852  MISS %:    31.0148   MPKI: 0.27786
LLC PREFETCH  ACCESS:     272428  HIT:     256994  MISS:      15434  HIT %:    94.3346  MISS %:    5.66535   MPKI: 0.07717
AGUS PREFETCH L1 MISS: 0
LLC WRITEBACK ACCESS:     252175  HIT:     251335  MISS:        840  HIT %:    99.6669  MISS %:   0.333102   MPKI: 0.0042
LLC LOAD TRANSLATION ACCESS:       6326  HIT:       5846  MISS:        480  HIT %:    92.4123  MISS %:    7.58773   MPKI: 0.0024
LLC TRANSLATION FROM L1D PREFETCHER ACCESS:       6526  HIT:       6175  MISS:        351  HIT %:    94.6215  MISS %:    5.37849   MPKI: 0.001755
LLC PREFETCH  REQUESTED:          0  ISSUED:          0  USEFUL:       1425  USELESS:      10519
LLC USEFUL LOAD PREFETCHES:       1425 PREFETCH ISSUED TO LOWER LEVEL:      15434  ACCURACY: 9.23286
LLC TIMELY PREFETCHES:       1425 LATE PREFETCHES: 0 DROPPED PREFETCHES: 0
LLC PREFETCHES SAME FILL-ORIGIN LEVEL: 0 DIFFERENT FILL-ORIGIN LEVEL: 0
LLC AVERAGE MISS LATENCY: 163.963 cycles
LLC RQ	ACCESS:    1415951	FORWARD:          0	MERGED:          0	TO_CACHE:    1415947
LLC WQ	ACCESS:     252175	FORWARD:          4	MERGED:          0	TO_CACHE:     252175
LLC PQ	ACCESS:     272428	FORWARD:          0	MERGED:          0	TO_CACHE:     272428

LLC Dense regions hint to LLC: 0

RAW hits: 1230502
Loads Generated: 41733040
Loads sent to L1D: 40502537
Stores Generated: 20857481
Stores sent to L1D: 20857481
Major fault: 0 Minor fault: 2472
Allocated PAGES: 2472
CPU 0 L1D 
Prefetch count 1298124 BOP and RL 

DRAM Statistics
 CHANNEL 0
 RQ ROW_BUFFER_HIT:      41096  ROW_BUFFER_MISS:      72239
 DBUS_CONGESTED:         79
 WQ ROW_BUFFER_HIT:       5422  ROW_BUFFER_MISS:      56357  FULL:          0

 AVG_CONGESTED_CYCLE: 5
 All warmup complete: 2
Channel 0 Bank busy for read cycles: 0
Channel 0 Bank busy for write cycles: 0
Channel 0
Rank 0
0banks busy for read cycles: 524017592
0banks busy for write cycles: 13545
1banks busy for read cycles: 2622963
1banks busy for write cycles: 1601832
2banks busy for read cycles: 995184
2banks busy for write cycles: 540488
3banks busy for read cycles: 315507
3banks busy for write cycles: 242853
4banks busy for read cycles: 223120
4banks busy for write cycles: 187270
5banks busy for read cycles: 157865
5banks busy for write cycles: 147148
6banks busy for read cycles: 168104
6banks busy for write cycles: 156016
7banks busy for read cycles: 204103
7banks busy for write cycles: 174221
8banks busy for read cycles: 406478
8banks busy for write cycles: 429215

CPU 0 Branch Prediction Accuracy: 99.773% MPKI: 0.39801 Average ROB Occupancy at Mispredict: 36.1762
Branch types
NOT_BRANCH: 164926668 82.4633%
BRANCH_DIRECT_JUMP: 1790889 0.895444%
BRANCH_INDIRECT: 9233189 4.61659%
BRANCH_CONDITIONAL: 17640059 8.82003%
BRANCH_DIRECT_CALL: 2729399 1.3647%
BRANCH_INDIRECT_CALL: 475210 0.237605%
BRANCH_RETURN: 3204589 1.60229%
BRANCH_OTHER: 0 0%

DRAM PAGES: 1048576
Allocated PAGES: 2472
