
*** ChampSim Multicore Out-of-Order Simulator ***

Warmup Instructions: 50000000
Simulation Instructions: 200000000
Number of CPUs: 1
LLC sets: 2048
LLC ways: 16
Off-chip DRAM Size: 4096 MB Channels: 1 Width: 64-bit Data Rate: 6400 MT/s
CPU 0 runs traces/spec2k17/server_024.champsimtrace.xz
.xz
BTB has LRU replacement policy
ITLB has LRU replacement policy
DTLB has LRU replacement policy
STLB has LRU replacement policy
L1I has LRU replacement policy
CPU 0 l1d next line prefetcher
L1D has LRU replacement policy
Initialize SRRIP state for L2C
Initialize DRRIP state for LLC
Offsets elements: 
Potential of Offsets elements: 
rewards of Offsets elements: 
Printing Sanity1
offset list size1587
Heartbeat CPU 0 instructions: 10000001 cycles: 2810866 heartbeat IPC: 3.55762 cumulative IPC: 3.55762 (Simulation time: 0 hr 0 min 37 sec) 
Heartbeat CPU 0 instructions: 20000002 cycles: 5614863 heartbeat IPC: 3.56634 cumulative IPC: 3.56198 (Simulation time: 0 hr 1 min 18 sec) 
Heartbeat CPU 0 instructions: 30000002 cycles: 8428501 heartbeat IPC: 3.55412 cumulative IPC: 3.55935 (Simulation time: 0 hr 1 min 50 sec) 
Heartbeat CPU 0 instructions: 40000001 cycles: 11235436 heartbeat IPC: 3.5626 cumulative IPC: 3.56016 (Simulation time: 0 hr 2 min 28 sec) 
Heartbeat CPU 0 instructions: 50000003 cycles: 14037444 heartbeat IPC: 3.56887 cumulative IPC: 3.5619 (Simulation time: 0 hr 3 min 4 sec) 

Warmup complete CPU 0 instructions: 50000003 cycles: 14037444 (Simulation time: 0 hr 3 min 4 sec) 

Offsets elements: 
Potential of Offsets elements: 
rewards of Offsets elements: 0 2 0 1 1 2 0 0 0 0 0 0 0 0 1 0 0 0 0 0 195 204 0 0 0 0 0 0 0 0 1 7 2 0 1 0 1 0 0 0 0 1 9 0 0 0 0 2 0 1 0 0 128 0 0 1 0 0 0 0 0 0 1 38 0 0 4 1 5 0 0 0 1 4 1 0 2 0 0 0 0 1 3 0 0 0 0 0 0 3 0 216 0 0 0 4 0 94 0 0 0 0 0 0 0 0 1 0 0 35 2 0 0 2 0 69 1 245 0 1 3 0 0 0 0 0 0 1 0 0 610 573 520 1 0 5 0 3 0 0 0 0 0 2 0 2 3 4 3 163 1 0 221 0 0 10 0 4 72 4 0 5 0 0 3 0 0 0 0 0 1 0 0 0 0 0 0 0 0 10 0 0 0 0 0 1 1 0 0 2 1 2 0 0 1 1 5 0 1 2 0 2 0 0 3 0 248 0 0 1 0 80 4 0 1 0 7 1 2 0 0 0 0 4 0 9 0 0 0 0 12 160 1 0 0 4 0 0 3 0 0 9 0 0 2 74 0 0 0 0 0 0 0 4 0 0 0 0 0 0 0 0 0 1 0 0 0 2 2 0 3 0 4 1 1 5 0 17 232 3 1 0 28 1 1 1 0 1 3 0 2 0 0 3 0 0 4 1 0 0 0 0 0 0 2 1 0 0 2 0 1 1 0 0 1 0 0 0 0 0 0 17 1 0 0 1 0 2 0 0 0 0 0 5 0 0 0 1 0 0 0 0 0 1 1 0 7 0 0 0 2 1 0 0 0 57 0 0 0 0 0 0 0 0 0 0 13 235 2 0 3 2 5 3 0 0 0 0 2 0 1 2 0 0 0 0 5 0 0 0 0 4 0 0 1 1 1 3 0 0 0 0 2 0 0 0 1 0 0 0 1 0 1 0 0 0 0 0 1 0 0 0 197 0 1 1 1 0 0 0 1 267 1 0 1 2 0 0 0 0 2 0 0 1 0 1 0 0 0 0 1 0 209 1 140 1 2 1 72 1 2 0 0 2 0 5 0 0 2 0 0 0 0 3 0 1 0 0 1 0 0 0 0 0 0 0 0 1 0 1 0 0 1 2 1 2 2 0 0 0 0 1 0 1 2 0 0 0 7 0 0 0 3 0 0 0 0 0 0 42 0 1 0 0 0 0 0 0 2 0 0 0 0 0 3 0 0 0 2 1 1 0 0 0 5 0 0 1 0 1 53 0 0 0 0 53 237 0 0 0 0 0 3 0 0 0 0 0 0 1 0 1 0 0 0 0 0 0 0 0 0 0 0 1 1 0 0 0 0 3 0 0 121 0 0 0 0 0 0 0 0 2 0 0 0 0 0 0 0 0 0 0 0 0 2 1 0 0 0 0 0 0 0 2 0 2 0 0 5 2 56 0 0 1 0 0 0 0 0 171 0 0 0 0 0 0 0 0 0 0 0 1 0 0 0 0 0 0 0 0 0 0 32 0 0 0 0 0 0 0 0 0 43 2 0 1 7 0 2 0 0 0 1 0 0 0 0 0 0 0 0 1 0 0 0 1 0 0 0 0 0 0 0 0 1 0 0 0 0 0 57 0 1 0 0 0 0 0 0 47 0 0 0 0 0 0 0 3 0 0 0 0 0 2 0 0 0 0 4 0 0 3 0 1 1 1 0 1 0 2 0 0 0 0 0 1 0 0 1 44 0 0 18 4 0 0 1 0 1 55 0 0 0 0 1 0 1 0 0 2 0 1 0 0 5 0 2 1 188 0 2 1 0 1 1 0 1 0 0 1 0 0 0 0 9 0 3 2 0 0 0 0 1 0 0 1 0 0 0 2 0 0 1 2 0 0 0 0 0 0 230 13 2 0 248 0 0 0 1 1 0 0 0 0 0 7 0 0 4 8 3 0 1 2 6 0 3 0 0 0 0 0 0 0 0 1 0 0 1 2 2 0 0 2 0 1 0 0 0 0 0 0 0 0 55 1 0 0 0 0 0 0 0 0 1 0 5 0 0 0 0 1 4 0 0 1 2 0 0 0 0 0 3 0 0 0 0 95 0 7 0 0 0 3 1 0 2 1 0 0 0 0 0 0 0 1 0 0 0 0 0 0 0 0 1 2 0 0 187 0 0 0 0 6 2 0 1 0 0 0 0 0 0 0 0 0 0 1 0 0 0 0 0 0 1 0 0 0 1 0 0 1 4 0 0 0 3 0 3 4 0 0 0 0 0 19 0 0 1 0 1 0 0 0 0 0 0 1 0 0 0 0 0 0 1 0 1 0 0 0 0 0 0 0 0 0 14 10 103 0 0 0 0 0 0 0 0 0 0 0 1 0 1 0 0 0 0 0 0 0 2 0 0 0 0 0 0 0 0 0 0 2 0 0 1 0 187 0 1 0 0 0 0 0 0 5 39 0 1 0 0 1 0 0 0 3 1 0 0 1 0 0 0 0 0 0 1 4 0 0 0 0 0 116 38 0 8 0 0 1 0 0 0 0 0 0 0 0 0 0 0 0 0 0 0 0 0 0 0 0 3 1 0 3 4 0 3 1 1 0 0 0 82 0 0 0 3 2 0 0 0 0 0 1 1 2 3 0 201 3 6 63 135 0 0 1 7 0 1 1 0 0 0 32 2 0 0 0 0 0 0 0 5 2 1 0 0 0 0 193 1 0 0 1 1 1 3 0 3 0 0 1 0 2 0 0 0 0 0 2 1 0 0 0 0 0 1 1 0 0 0 0 0 0 0 0 0 0 0 0 0 0 0 0 0 0 0 0 0 0 0 0 0 0 0 0 0 0 0 0 0 1 0 1 5 1 0 148 0 1 0 48 0 0 0 0 5 0 2 0 0 5 1 0 0 0 0 0 0 0 0 0 0 6 0 0 2 0 0 0 0 0 0 0 0 0 0 2 0 1 5 0 2 1 0 0 0 0 0 1 0 0 2 2 0 0 0 0 0 0 0 0 0 0 0 0 0 0 0 0 1 0 0 0 2 0 0 2 1 0 0 0 5 0 1 0 98 0 200 0 1 0 0 0 0 35 0 0 0 0 0 0 0 0 0 0 0 0 4 0 0 0 0 0 0 0 0 0 0 0 1 0 3 4 0 0 1 1 0 0 0 0 2 0 3 0 0 0 1 1 0 0 0 0 0 0 0 0 0 0 3 0 0 1 0 0 0 1 2 1 0 0 3 0 1 2 0 0 1 0 0 2 0 0 13 0 3 0 0 0 0 0 135 0 1 0 0 0 0 0 0 0 0 0 0 0 0 0 0 0 3 1 0 0 0 0 6 0 0 0 0 0 4 1 0 0 0 0 0 0 0 0 0 0 2 0 0 0 3 3 0 5 0 0 0 2 0 0 0 1 2 0 0 0 0 0 0 114 1 0 257 0 0 3 0 0 0 0 0 0 1 2 4 2 3 0 0 0 0 1 0 0 1 0 0 0 0 0 1 0 0 0 0 0 0 0 0 0 4 3 0 0 2 0 0 0 0 0 1 0 0 0 1 2 0 0 0 0 0 0 0 0 0 0 3 0 0 0 3 0 0 0 4 2 5 0 28 
Printing Sanity2
Heartbeat CPU 0 instructions: 60000000 cycles: 43644857 heartbeat IPC: 0.337753 cumulative IPC: 0.337753 (Simulation time: 0 hr 3 min 59 sec) 
Heartbeat CPU 0 instructions: 70000000 cycles: 74412091 heartbeat IPC: 0.325021 cumulative IPC: 0.331265 (Simulation time: 0 hr 4 min 56 sec) 
*** Reached end of trace for Core: 0 Repeating trace: traces/spec2k17/server_024.champsimtrace.xz
Heartbeat CPU 0 instructions: 80000001 cycles: 104772707 heartbeat IPC: 0.329374 cumulative IPC: 0.330632 (Simulation time: 0 hr 5 min 52 sec) 
Heartbeat CPU 0 instructions: 90000003 cycles: 135223295 heartbeat IPC: 0.328401 cumulative IPC: 0.330072 (Simulation time: 0 hr 6 min 51 sec) 
Heartbeat CPU 0 instructions: 100000000 cycles: 165540246 heartbeat IPC: 0.329848 cumulative IPC: 0.330027 (Simulation time: 0 hr 7 min 46 sec) 
Heartbeat CPU 0 instructions: 110000000 cycles: 196716804 heartbeat IPC: 0.320754 cumulative IPC: 0.328444 (Simulation time: 0 hr 8 min 46 sec) 
Heartbeat CPU 0 instructions: 120000003 cycles: 227423209 heartbeat IPC: 0.325665 cumulative IPC: 0.328044 (Simulation time: 0 hr 9 min 44 sec) 
Heartbeat CPU 0 instructions: 130000000 cycles: 257157910 heartbeat IPC: 0.336307 cumulative IPC: 0.329055 (Simulation time: 0 hr 10 min 43 sec) 
Heartbeat CPU 0 instructions: 140000002 cycles: 287452790 heartbeat IPC: 0.330089 cumulative IPC: 0.32917 (Simulation time: 0 hr 11 min 41 sec) 
Heartbeat CPU 0 instructions: 150000001 cycles: 317901384 heartbeat IPC: 0.328422 cumulative IPC: 0.329095 (Simulation time: 0 hr 12 min 39 sec) 
*** Reached end of trace for Core: 0 Repeating trace: traces/spec2k17/server_024.champsimtrace.xz
Heartbeat CPU 0 instructions: 160000000 cycles: 348098773 heartbeat IPC: 0.331154 cumulative IPC: 0.329281 (Simulation time: 0 hr 13 min 34 sec) 
Heartbeat CPU 0 instructions: 170000000 cycles: 378547191 heartbeat IPC: 0.328424 cumulative IPC: 0.329209 (Simulation time: 0 hr 14 min 33 sec) 
Heartbeat CPU 0 instructions: 180000000 cycles: 409205535 heartbeat IPC: 0.326175 cumulative IPC: 0.328974 (Simulation time: 0 hr 15 min 29 sec) 
Heartbeat CPU 0 instructions: 190000001 cycles: 440245762 heartbeat IPC: 0.322163 cumulative IPC: 0.328478 (Simulation time: 0 hr 16 min 26 sec) 
Heartbeat CPU 0 instructions: 200000000 cycles: 470651118 heartbeat IPC: 0.328889 cumulative IPC: 0.328505 (Simulation time: 0 hr 17 min 20 sec) 
Heartbeat CPU 0 instructions: 210000000 cycles: 500380450 heartbeat IPC: 0.336368 cumulative IPC: 0.328986 (Simulation time: 0 hr 18 min 15 sec) 
Heartbeat CPU 0 instructions: 220000000 cycles: 530953188 heartbeat IPC: 0.327089 cumulative IPC: 0.328874 (Simulation time: 0 hr 19 min 15 sec) 
Heartbeat CPU 0 instructions: 230000000 cycles: 561026288 heartbeat IPC: 0.332523 cumulative IPC: 0.329074 (Simulation time: 0 hr 20 min 12 sec) 
*** Reached end of trace for Core: 0 Repeating trace: traces/spec2k17/server_024.champsimtrace.xz
Heartbeat CPU 0 instructions: 240000002 cycles: 591265401 heartbeat IPC: 0.330698 cumulative IPC: 0.329159 (Simulation time: 0 hr 21 min 13 sec) 
Heartbeat CPU 0 instructions: 250000003 cycles: 621916978 heartbeat IPC: 0.326248 cumulative IPC: 0.329013 (Simulation time: 0 hr 22 min 15 sec) 
Finished CPU 0 instructions: 200000000 cycles: 607879534 cumulative IPC: 0.329013 (Simulation time: 0 hr 22 min 15 sec) 

ChampSim completed all CPUs

Region of Interest Statistics

CPU 0 cumulative IPC: 0.329013 instructions: 200000000 cycles: 607879534
ITLB TOTAL     ACCESS:   34452680  HIT:   32624728  MISS:    1827952  HIT %:    94.6943  MISS %:    5.30569   MPKI: 9.13976
ITLB LOAD TRANSLATION ACCESS:   34452680  HIT:   32624728  MISS:    1827952  HIT %:    94.6943  MISS %:    5.30569   MPKI: 9.13976
ITLB PREFETCH  REQUESTED:          0  ISSUED:          0  USEFUL:          0  USELESS:          0
ITLB USEFUL LOAD PREFETCHES:          0 PREFETCH ISSUED TO LOWER LEVEL:          0  ACCURACY: -nan
ITLB TIMELY PREFETCHES:          0 LATE PREFETCHES: 0 DROPPED PREFETCHES: 0
ITLB PREFETCHES SAME FILL-ORIGIN LEVEL: 0 DIFFERENT FILL-ORIGIN LEVEL: 0
ITLB AVERAGE MISS LATENCY: 9.07084 cycles
ITLB RQ	ACCESS:   40243518	FORWARD:          0	MERGED:    5352808	TO_CACHE:   34890710

DTLB TOTAL     ACCESS:   45270485  HIT:   43480709  MISS:    1789776  HIT %:    96.0465  MISS %:    3.95352   MPKI: 8.94888
DTLB LOAD TRANSLATION ACCESS:   45270485  HIT:   43480709  MISS:    1789776  HIT %:    96.0465  MISS %:    3.95352   MPKI: 8.94888
DTLB PREFETCH  REQUESTED:          0  ISSUED:          0  USEFUL:          0  USELESS:          0
DTLB USEFUL LOAD PREFETCHES:          0 PREFETCH ISSUED TO LOWER LEVEL:          0  ACCURACY: -nan
DTLB TIMELY PREFETCHES:          0 LATE PREFETCHES: 0 DROPPED PREFETCHES: 0
DTLB PREFETCHES SAME FILL-ORIGIN LEVEL: 0 DIFFERENT FILL-ORIGIN LEVEL: 0
DTLB AVERAGE MISS LATENCY: 9.28261 cycles
DTLB RQ	ACCESS:   59802710	FORWARD:          0	MERGED:   14463876	TO_CACHE:   45338834

STLB TOTAL     ACCESS:    6051904  HIT:    6040207  MISS:      11697  HIT %:    99.8067  MISS %:   0.193278   MPKI: 0.058485
STLB LOAD TRANSLATION ACCESS:    3617728  HIT:    3606964  MISS:      10764  HIT %:    99.7025  MISS %:   0.297535   MPKI: 0.05382
STLB TRANSLATION FROM L1D PREFETCHER ACCESS:    2434176  HIT:    2433243  MISS:        933  HIT %:    99.9617  MISS %:  0.0383292   MPKI: 0.004665
STLB PREFETCH  REQUESTED:          0  ISSUED:          0  USEFUL:        832  USELESS:         98
STLB USEFUL LOAD PREFETCHES:        832 PREFETCH ISSUED TO LOWER LEVEL:          0  ACCURACY: inf
STLB TIMELY PREFETCHES:        832 LATE PREFETCHES: 35 DROPPED PREFETCHES: 21460
STLB PREFETCHES SAME FILL-ORIGIN LEVEL: 0 DIFFERENT FILL-ORIGIN LEVEL: 0
STLB AVERAGE MISS LATENCY: 242609 cycles
STLB RQ	ACCESS:    6257132	FORWARD:          0	MERGED:     181351	TO_CACHE:    6075781

STLB Hit, L1D data hit: 0
STLB Hit, L2C data hit: 0
STLB Hit, LLC data hit: 0
STLB Hit, LLC data miss: 0
STLB STLB hints to L2: 0
L1D TOTAL     ACCESS:   60408554  HIT:   54377178  MISS:    6031376  HIT %:    90.0157  MISS %:    9.98431   MPKI: 30.1569
L1D LOAD      ACCESS:   33544107  HIT:   30861806  MISS:    2682301  HIT %:    92.0037  MISS %:    7.99634   MPKI: 13.4115
L1D RFO       ACCESS:   24374506  HIT:   23258553  MISS:    1115953  HIT %:    95.4216  MISS %:    4.57836   MPKI: 5.57977
L1D PREFETCH  ACCESS:    2489941  HIT:     256819  MISS:    2233122  HIT %:    10.3143  MISS %:    89.6857   MPKI: 11.1656
AGUS PREFETCH L1 MISS: 0
L1D PREFETCH  REQUESTED:    5327494  ISSUED:    5327494  USEFUL:     405604  USELESS:    1827280
L1D USEFUL LOAD PREFETCHES:     405604 PREFETCH ISSUED TO LOWER LEVEL:    2297992  ACCURACY: 17.6504
L1D TIMELY PREFETCHES:     405604 LATE PREFETCHES: 63484 DROPPED PREFETCHES: 25028
L1D PREFETCHES SAME FILL-ORIGIN LEVEL: 2297992 DIFFERENT FILL-ORIGIN LEVEL: 0
L1D AVERAGE MISS LATENCY: 3.53741e+06 cycles
L1D RQ	ACCESS:   46964280	FORWARD:          0	MERGED:   13011088	TO_CACHE:   33660310
L1D WQ	ACCESS:   26317198	FORWARD:     292882	MERGED:     174798	TO_CACHE:   26142400
L1D PQ	ACCESS:    2688090	FORWARD:          0	MERGED:      48686	TO_CACHE:    2639404

L1D UNIQUE REGIONS ACCESSED: 0
L1D REGIONS CONFLICTS: 0
L1D Cross Page Prefetch Requests: 2688090
L1D Same Page Prefetch Requests: 0
L1D ROI Sum of L1D PQ occupancy: 35494082
L1D PREFETCHES PUSHED FROM L2C: 0
L1I TOTAL     ACCESS:   38822481  HIT:   29206813  MISS:    9615668  HIT %:    75.2317  MISS %:    24.7683   MPKI: 48.0783
L1I LOAD      ACCESS:   38822481  HIT:   29206813  MISS:    9615668  HIT %:    75.2317  MISS %:    24.7683   MPKI: 48.0783
L1I PREFETCH  REQUESTED:          0  ISSUED:          0  USEFUL:          0  USELESS:          0
L1I USEFUL LOAD PREFETCHES:          0 PREFETCH ISSUED TO LOWER LEVEL:          0  ACCURACY: -nan
L1I TIMELY PREFETCHES:          0 LATE PREFETCHES: 0 DROPPED PREFETCHES: 0
L1I PREFETCHES SAME FILL-ORIGIN LEVEL: 0 DIFFERENT FILL-ORIGIN LEVEL: 0
L1I AVERAGE MISS LATENCY: 17.8663 cycles
L1I RQ	ACCESS:   57821834	FORWARD:          0	MERGED:   17578316	TO_CACHE:   40243518

BTB TOTAL     ACCESS:   30276049  HIT:   18932725  MISS:   11343324  HIT %:    62.5337  MISS %:    37.4663   MPKI: 56.7166
BTB BRANCH_DIRECT_JUMP	ACCESS:    2183763  HIT:    1387870  MISS:     795893
BTB BRANCH_INDIRECT	ACCESS:   11358219  HIT:    7100300  MISS:    4257919
BTB BRANCH_CONDITIONAL	ACCESS:    8733205  HIT:    7588000  MISS:    1145205
BTB BRANCH_DIRECT_CALL	ACCESS:    3381427  HIT:    1525545  MISS:    1855882
BTB BRANCH_INDIRECT_CALL	ACCESS:     619012  HIT:     244340  MISS:     374672
BTB BRANCH_RETURN	ACCESS:    4000423  HIT:    1086670  MISS:    2913753
BTB BRANCH_OTHER ACCESS:          0  HIT:          0  MISS:          0

L2C TOTAL     ACCESS:   17692047  HIT:   15252369  MISS:    2439678  HIT %:    86.2103  MISS %:    13.7897   MPKI: 12.1984
L2C LOAD      ACCESS:   12234470  HIT:   10622083  MISS:    1612387  HIT %:    86.8209  MISS %:    13.1791   MPKI: 8.06194
L2C DATA LOAD MPKI: 2.10094
L2C INSTRUCTION LOAD MPKI: 5.96099
L2C RFO       ACCESS:    1114567  HIT:     816691  MISS:     297876  HIT %:    73.2743  MISS %:    26.7257   MPKI: 1.48938
L2C PREFETCH  ACCESS:    2297992  HIT:    1841925  MISS:     456067  HIT %:    80.1537  MISS %:    19.8463   MPKI: 2.28034
AGUS PREFETCH L1 MISS: 0
L2C DATA PREFETCH MPKI: 2.28034
L2C INSTRUCTION PREFETCH MPKI: 0
L2C WRITEBACK ACCESS:    2000252  HIT:    1941427  MISS:      58825  HIT %:    97.0591  MISS %:    2.94088   MPKI: 0.294125
L2C LOAD TRANSLATION ACCESS:      11899  HIT:       3919  MISS:       7980  HIT %:    32.9355  MISS %:    67.0645   MPKI: 0.0399
L2C TRANSLATION FROM L1D PREFETCHER ACCESS:      32867  HIT:      26324  MISS:       6543  HIT %:    80.0925  MISS %:    19.9075   MPKI: 0.032715
L2C PREFETCH  REQUESTED:          0  ISSUED:          0  USEFUL:      23290  USELESS:     438054
L2C USEFUL LOAD PREFETCHES:      23290 PREFETCH ISSUED TO LOWER LEVEL:     456067  ACCURACY: 5.10671
L2C TIMELY PREFETCHES:      23290 LATE PREFETCHES: 0 DROPPED PREFETCHES: 0
L2C PREFETCHES SAME FILL-ORIGIN LEVEL: 0 DIFFERENT FILL-ORIGIN LEVEL: 0
L2C AVERAGE MISS LATENCY: 39.7561 cycles
L2C RQ	ACCESS:   13393818	FORWARD:          0	MERGED:          0	TO_CACHE:   13393803
L2C WQ	ACCESS:    2000252	FORWARD:         15	MERGED:          0	TO_CACHE:    2000252
L2C PQ	ACCESS:    2297992	FORWARD:          0	MERGED:          0	TO_CACHE:    2297992

L2C Instructions Evicting Data 573278
L2C Translations Evicting Data 9423
L2C Data Evicting Data 622490
L2C Instructions Evicting Instructions 613980
L2C Translations Evicting Instructions 4946
L2C Data Evicting Instructions 542339
L2C Instructions Evicting Translations 4940
L2C Translations Evicting Translations 154
L2C Data Evicting Translations 9303
L2C Dense regions hint from L2: 0
PSCL5 TOTAL     ACCESS:      33161  HIT:      33161  MISS:          0  HIT %:        100  MISS %:          0   MPKI: 0
PSCL5 LOAD TRANSLATION ACCESS:      10733  HIT:      10733  MISS:          0  HIT %:        100  MISS %:          0   MPKI: 0
PSCL5 TRANSLATION FROM L1D PREFETCHER ACCESS:      22428  HIT:      22428  MISS:          0  HIT %:        100  MISS %:          0   MPKI: 0
PSCL5 PREFETCH  REQUESTED:          0  ISSUED:          0  USEFUL:          0  USELESS:          0
PSCL5 USEFUL LOAD PREFETCHES:          0 PREFETCH ISSUED TO LOWER LEVEL:          0  ACCURACY: -nan
PSCL5 TIMELY PREFETCHES:          0 LATE PREFETCHES: 0 DROPPED PREFETCHES: 0
PSCL5 PREFETCHES SAME FILL-ORIGIN LEVEL: 0 DIFFERENT FILL-ORIGIN LEVEL: 0

PSCL4 TOTAL     ACCESS:      27990  HIT:      27955  MISS:         35  HIT %:     99.875  MISS %:   0.125045   MPKI: 0.000175
PSCL4 LOAD TRANSLATION ACCESS:      10193  HIT:      10158  MISS:         35  HIT %:    99.6566  MISS %:   0.343373   MPKI: 0.000175
PSCL4 TRANSLATION FROM L1D PREFETCHER ACCESS:      17797  HIT:      17797  MISS:          0  HIT %:        100  MISS %:          0   MPKI: 0
PSCL4 PREFETCH  REQUESTED:          0  ISSUED:          0  USEFUL:          0  USELESS:          0
PSCL4 USEFUL LOAD PREFETCHES:          0 PREFETCH ISSUED TO LOWER LEVEL:          0  ACCURACY: -nan
PSCL4 TIMELY PREFETCHES:          0 LATE PREFETCHES: 0 DROPPED PREFETCHES: 0
PSCL4 PREFETCHES SAME FILL-ORIGIN LEVEL: 0 DIFFERENT FILL-ORIGIN LEVEL: 0

PSCL3 TOTAL     ACCESS:      32491  HIT:      32456  MISS:         35  HIT %:    99.8923  MISS %:   0.107722   MPKI: 0.000175
PSCL3 LOAD TRANSLATION ACCESS:      10710  HIT:      10675  MISS:         35  HIT %:    99.6732  MISS %:   0.326797   MPKI: 0.000175
PSCL3 TRANSLATION FROM L1D PREFETCHER ACCESS:      21781  HIT:      21781  MISS:          0  HIT %:        100  MISS %:          0   MPKI: 0
PSCL3 PREFETCH  REQUESTED:          0  ISSUED:          0  USEFUL:          0  USELESS:          0
PSCL3 USEFUL LOAD PREFETCHES:          0 PREFETCH ISSUED TO LOWER LEVEL:          0  ACCURACY: -nan
PSCL3 TIMELY PREFETCHES:          0 LATE PREFETCHES: 0 DROPPED PREFETCHES: 0
PSCL3 PREFETCHES SAME FILL-ORIGIN LEVEL: 0 DIFFERENT FILL-ORIGIN LEVEL: 0

PSCL2 TOTAL     ACCESS:      23964  HIT:      22849  MISS:       1115  HIT %:    95.3472  MISS %:    4.65281   MPKI: 0.005575
PSCL2 LOAD TRANSLATION ACCESS:      10751  HIT:       9636  MISS:       1115  HIT %:    89.6289  MISS %:    10.3711   MPKI: 0.005575
PSCL2 TRANSLATION FROM L1D PREFETCHER ACCESS:      13213  HIT:      13213  MISS:          0  HIT %:        100  MISS %:          0   MPKI: 0
PSCL2 PREFETCH  REQUESTED:          0  ISSUED:          0  USEFUL:          0  USELESS:          0
PSCL2 USEFUL LOAD PREFETCHES:          0 PREFETCH ISSUED TO LOWER LEVEL:          0  ACCURACY: -nan
PSCL2 TIMELY PREFETCHES:          0 LATE PREFETCHES: 0 DROPPED PREFETCHES: 0
PSCL2 PREFETCHES SAME FILL-ORIGIN LEVEL: 0 DIFFERENT FILL-ORIGIN LEVEL: 0

LLC TOTAL     ACCESS:    2797306  HIT:    2648766  MISS:     148540  HIT %:    94.6899  MISS %:    5.31011   MPKI: 0.7427
LLC LOAD      ACCESS:    1612386  HIT:    1582425  MISS:      29961  HIT %:    98.1418  MISS %:    1.85818   MPKI: 0.149805
LLC RFO       ACCESS:     297853  HIT:     220738  MISS:      77115  HIT %:    74.1097  MISS %:    25.8903   MPKI: 0.385575
LLC PREFETCH  ACCESS:     456063  HIT:     416247  MISS:      39816  HIT %:    91.2696  MISS %:    8.73037   MPKI: 0.19908
AGUS PREFETCH L1 MISS: 0
LLC WRITEBACK ACCESS:     416481  HIT:     415557  MISS:        924  HIT %:    99.7781  MISS %:   0.221859   MPKI: 0.00462
LLC LOAD TRANSLATION ACCESS:       7980  HIT:       7342  MISS:        638  HIT %:     92.005  MISS %:    7.99499   MPKI: 0.00319
LLC TRANSLATION FROM L1D PREFETCHER ACCESS:       6543  HIT:       6457  MISS:         86  HIT %:    98.6856  MISS %:    1.31438   MPKI: 0.00043
LLC PREFETCH  REQUESTED:          0  ISSUED:          0  USEFUL:       2277  USELESS:      31806
LLC USEFUL LOAD PREFETCHES:       2277 PREFETCH ISSUED TO LOWER LEVEL:      39816  ACCURACY: 5.71881
LLC TIMELY PREFETCHES:       2277 LATE PREFETCHES: 0 DROPPED PREFETCHES: 0
LLC PREFETCHES SAME FILL-ORIGIN LEVEL: 0 DIFFERENT FILL-ORIGIN LEVEL: 0
LLC AVERAGE MISS LATENCY: 171.905 cycles
LLC RQ	ACCESS:    1924786	FORWARD:          0	MERGED:          0	TO_CACHE:    1924762
LLC WQ	ACCESS:     416481	FORWARD:         28	MERGED:          0	TO_CACHE:     416481
LLC PQ	ACCESS:     456067	FORWARD:          0	MERGED:          0	TO_CACHE:     456063

LLC Dense regions hint to LLC: 0

RAW hits: 1399693
Loads Generated: 48363973
Loads sent to L1D: 46964280
Stores Generated: 26317189
Stores sent to L1D: 26317198
Major fault: 0 Minor fault: 2466
Allocated PAGES: 2466
CPU 0 L1D 
Prefetch count 2297992 BOP and RL 

DRAM Statistics
 CHANNEL 0
 RQ ROW_BUFFER_HIT:      57813  ROW_BUFFER_MISS:      89776
 DBUS_CONGESTED:         61
 WQ ROW_BUFFER_HIT:       8164  ROW_BUFFER_MISS:      78789  FULL:          0

 AVG_CONGESTED_CYCLE: 4
 All warmup complete: 2
Channel 0 Bank busy for read cycles: 0
Channel 0 Bank busy for write cycles: 0
Channel 0
Rank 0
0banks busy for read cycles: 597197199
0banks busy for write cycles: 17226
1banks busy for read cycles: 2893990
1banks busy for write cycles: 1952456
2banks busy for read cycles: 1295806
2banks busy for write cycles: 725191
3banks busy for read cycles: 359857
3banks busy for write cycles: 325782
4banks busy for read cycles: 294190
4banks busy for write cycles: 249116
5banks busy for read cycles: 240596
5banks busy for write cycles: 198916
6banks busy for read cycles: 290444
6banks busy for write cycles: 206091
7banks busy for read cycles: 235114
7banks busy for write cycles: 247697
8banks busy for read cycles: 512004
8banks busy for write cycles: 637860

CPU 0 Branch Prediction Accuracy: 99.8129% MPKI: 0.329815 Average ROB Occupancy at Mispredict: 49.6354
Branch types
NOT_BRANCH: 164744969 82.3725%
BRANCH_DIRECT_JUMP: 2183763 1.09188%
BRANCH_INDIRECT: 11358219 5.67911%
BRANCH_CONDITIONAL: 13711964 6.85598%
BRANCH_DIRECT_CALL: 3381427 1.69071%
BRANCH_INDIRECT_CALL: 619012 0.309506%
BRANCH_RETURN: 4000423 2.00021%
BRANCH_OTHER: 0 0%

DRAM PAGES: 1048576
Allocated PAGES: 2466
