
*** ChampSim Multicore Out-of-Order Simulator ***

Warmup Instructions: 50000000
Simulation Instructions: 200000000
Number of CPUs: 1
LLC sets: 2048
LLC ways: 16
Off-chip DRAM Size: 4096 MB Channels: 1 Width: 64-bit Data Rate: 6400 MT/s
CPU 0 runs traces/spec2k17/srv_63.champsimtrace.xz
.xz
BTB has LRU replacement policy
ITLB has LRU replacement policy
DTLB has LRU replacement policy
STLB has LRU replacement policy
L1I has LRU replacement policy
CPU 0 l1d next line prefetcher
L1D has LRU replacement policy
Initialize SRRIP state for L2C
Initialize DRRIP state for LLC
Offsets elements: 
Potential of Offsets elements: 
rewards of Offsets elements: 
Printing Sanity1
offset list size2367
Heartbeat CPU 0 instructions: 10000000 cycles: 2772322 heartbeat IPC: 3.60708 cumulative IPC: 3.60708 (Simulation time: 0 hr 0 min 35 sec) 
Heartbeat CPU 0 instructions: 20000003 cycles: 5538848 heartbeat IPC: 3.61464 cumulative IPC: 3.61086 (Simulation time: 0 hr 1 min 12 sec) 
Heartbeat CPU 0 instructions: 30000002 cycles: 8305313 heartbeat IPC: 3.61472 cumulative IPC: 3.61215 (Simulation time: 0 hr 1 min 45 sec) 
*** Reached end of trace for Core: 0 Repeating trace: traces/spec2k17/srv_63.champsimtrace.xz
Heartbeat CPU 0 instructions: 40000001 cycles: 11069492 heartbeat IPC: 3.61771 cumulative IPC: 3.61354 (Simulation time: 0 hr 2 min 20 sec) 
Heartbeat CPU 0 instructions: 50000001 cycles: 13834493 heartbeat IPC: 3.61664 cumulative IPC: 3.61415 (Simulation time: 0 hr 2 min 54 sec) 

Warmup complete CPU 0 instructions: 50000001 cycles: 13834493 (Simulation time: 0 hr 2 min 54 sec) 

Heartbeat CPU 0 instructions: 60000000 cycles: 36427615 heartbeat IPC: 0.442613 cumulative IPC: 0.442613 (Simulation time: 0 hr 3 min 48 sec) 
*** Reached end of trace for Core: 0 Repeating trace: traces/spec2k17/srv_63.champsimtrace.xz
Heartbeat CPU 0 instructions: 70000001 cycles: 58407360 heartbeat IPC: 0.454964 cumulative IPC: 0.448703 (Simulation time: 0 hr 4 min 42 sec) 
Heartbeat CPU 0 instructions: 80000001 cycles: 80552887 heartbeat IPC: 0.451558 cumulative IPC: 0.449651 (Simulation time: 0 hr 5 min 38 sec) 
Heartbeat CPU 0 instructions: 90000000 cycles: 102904168 heartbeat IPC: 0.447402 cumulative IPC: 0.449087 (Simulation time: 0 hr 6 min 33 sec) 
*** Reached end of trace for Core: 0 Repeating trace: traces/spec2k17/srv_63.champsimtrace.xz
Heartbeat CPU 0 instructions: 100000002 cycles: 125075109 heartbeat IPC: 0.451041 cumulative IPC: 0.449476 (Simulation time: 0 hr 7 min 29 sec) 
Offsets elements: 
Potential of Offsets elements: 
rewards of Offsets elements: 0 0 0 0 19 242 0 1 0 0 0 0 0 2 0 0 3 0 0 0 0 0 0 0 0 0 0 0 0 0 0 0 0 0 0 0 0 6 0 0 141 0 0 0 0 0 2 0 0 0 0 8 0 0 145 0 0 0 0 0 0 0 1 0 0 0 108 0 0 0 0 4 0 0 0 0 118 5 0 0 0 98 186 0 28 0 0 0 0 0 0 0 109 0 0 0 0 0 1 1 0 0 0 0 0 0 0 0 0 0 0 0 0 0 0 0 0 0 0 0 0 3 0 0 0 0 5 0 2 1 0 0 0 1 0 0 0 0 0 0 0 0 0 0 0 0 0 0 0 70 154 16 47 0 10 0 0 0 0 0 1 0 0 0 0 0 0 0 0 0 0 0 1 0 0 0 0 0 0 0 0 0 0 0 0 0 0 0 0 0 5 0 0 0 0 0 0 0 0 1 0 0 0 0 0 0 0 0 0 0 1 0 0 0 0 11 0 0 0 0 5 0 8 0 0 0 0 0 223 0 0 0 0 0 0 0 0 0 0 0 0 0 0 0 0 0 0 0 1 0 1 0 0 0 0 80 68 1 0 0 0 0 0 0 0 0 0 0 0 0 0 0 12 0 0 1 0 0 0 1 0 0 0 0 0 0 0 0 0 0 1 22 0 0 0 0 0 0 0 0 0 0 0 1 1 0 0 32 46 50 0 25 0 0 13 2 0 0 196 1 3 0 170 0 0 0 0 0 1 1 0 3 1 0 1 0 0 0 0 0 0 0 0 0 0 0 0 0 0 0 36 0 0 0 0 0 0 0 0 0 0 0 0 0 0 0 0 0 0 0 0 0 0 0 0 0 0 0 0 0 0 0 4 0 3 0 0 0 0 0 0 0 0 0 0 0 0 0 0 0 0 0 0 0 0 0 0 0 0 0 3 0 0 0 0 0 0 0 0 0 0 0 0 0 0 0 0 0 0 0 3 0 0 1 0 0 0 0 0 0 13 0 1 0 0 0 0 0 1 0 0 0 0 0 0 0 0 0 0 0 0 3 0 0 0 0 0 0 0 0 0 1 4 0 0 10 0 69 72 0 0 3 2 0 0 0 0 0 0 0 0 0 0 0 0 5 1 0 0 0 3 1 0 44 1 0 0 0 0 0 0 1 5 0 0 0 4 0 0 0 0 0 0 0 0 0 0 2 0 0 0 0 0 0 0 0 0 0 12 0 0 0 0 0 0 0 0 0 0 0 0 2 0 0 0 1 0 54 3 92 0 0 0 0 33 0 0 0 0 0 0 0 0 0 2 4 1 0 0 0 0 0 0 0 0 0 0 0 0 0 0 0 0 0 0 0 0 0 1 0 0 0 0 0 0 0 0 0 0 0 0 0 0 0 0 0 0 0 0 0 0 0 0 0 0 0 0 0 0 14 0 0 0 2 0 0 0 0 1 0 0 0 0 0 0 0 0 0 0 2 0 0 5 0 0 0 0 0 0 0 5 0 0 0 0 0 0 0 0 0 0 0 74 0 0 53 0 0 0 0 0 0 0 0 0 0 0 0 0 0 0 0 83 0 0 0 0 0 0 0 0 0 0 0 0 0 0 0 0 0 0 0 0 0 1 0 0 0 0 0 0 0 0 0 7 10 19 0 0 0 2 0 0 2 0 0 0 0 0 0 2 0 0 0 0 10 0 0 0 0 0 0 0 0 0 0 0 0 0 0 0 0 0 0 0 0 0 0 0 0 0 0 0 0 0 0 0 0 0 0 0 0 0 0 5 0 0 63 0 0 2 97 1 0 0 0 0 0 0 1 0 56 0 0 0 0 0 0 0 0 0 0 0 0 0 80 1 13 16 0 0 0 0 0 0 0 0 0 1 0 0 0 0 0 0 0 0 0 0 0 0 1 0 0 0 19 0 0 16 0 0 0 0 0 0 0 0 0 0 0 0 0 2 0 1 0 0 0 0 0 0 0 0 0 0 0 0 0 0 0 0 0 0 21 67 0 0 0 0 0 0 0 0 0 0 0 0 0 0 0 0 0 0 0 0 0 12 0 0 0 0 0 0 0 0 1 2 0 0 0 0 0 0 0 0 0 0 0 0 0 0 0 0 0 0 0 0 0 0 0 0 0 0 0 0 2 0 0 0 0 0 0 0 0 60 0 0 0 0 0 0 0 0 0 0 0 0 0 0 0 0 0 0 0 0 0 0 0 0 4 0 0 0 0 0 0 5 1 0 0 0 0 0 0 23 0 0 0 0 0 0 0 0 0 0 0 0 0 0 0 0 10 0 0 1 0 0 0 0 1 0 1 0 0 0 0 0 1 0 0 0 5 0 0 0 0 0 0 0 7 0 2 0 0 0 4 7 0 0 0 0 0 0 0 0 1 0 0 0 0 0 0 0 0 0 0 0 3 0 0 0 0 92 0 0 0 0 0 0 0 0 0 0 0 0 0 0 0 0 0 0 0 0 0 0 0 0 0 6 0 0 2 0 2 0 0 1 0 0 0 0 0 0 16 0 0 0 113 0 0 0 0 0 0 0 0 0 0 0 0 10 0 0 0 0 0 0 171 0 1 0 0 0 0 0 0 0 0 0 57 0 0 0 0 0 0 0 0 0 0 0 0 0 0 0 0 0 0 0 0 0 0 0 6 0 0 0 0 0 0 0 1 0 0 0 0 4 0 0 0 0 0 0 0 0 0 0 0 0 0 0 0 1 0 0 0 1 0 0 0 0 0 0 0 0 1 66 0 0 0 0 0 0 0 0 0 0 0 0 0 0 0 0 0 0 0 0 3 0 0 0 0 0 0 0 0 0 3 0 0 1 0 0 1 0 2 0 0 0 0 0 0 0 0 2 106 0 13 0 0 0 0 1 0 0 0 0 0 0 0 0 0 0 25 0 0 0 0 0 5 0 0 0 0 0 0 0 0 0 0 0 0 0 7 0 0 0 0 0 0 0 0 0 0 0 0 0 0 0 0 0 0 0 4 0 1 7 0 0 0 0 0 0 0 0 0 0 0 0 0 0 0 0 0 0 0 0 0 0 0 0 0 0 0 0 0 0 0 0 0 18 0 0 0 0 0 0 0 0 0 0 0 0 0 0 0 0 0 0 0 0 0 0 0 1 0 0 0 0 0 0 3 0 0 0 0 0 0 0 0 0 0 0 0 5 0 0 0 0 0 0 0 0 0 0 0 0 0 0 0 0 0 0 0 0 0 0 0 0 0 0 0 0 0 0 0 0 0 0 0 0 0 0 0 0 0 0 0 0 0 0 0 0 0 0 0 0 0 1 0 0 0 0 0 0 0 0 0 0 0 0 9 29 0 0 0 0 0 0 0 0 0 0 0 0 0 0 0 0 0 1 0 0 0 0 0 0 0 2 0 0 0 0 0 0 10 0 0 0 0 0 0 0 4 0 0 5 2 1 0 0 0 0 0 0 0 0 0 0 0 13 200 0 0 0 0 0 10 0 0 0 0 0 0 0 0 0 0 0 0 3 0 0 1 0 0 0 0 0 0 1 4 5 0 0 0 0 0 121 3 2 0 125 1 0 0 0 0 0 0 0 0 0 0 5 0 0 0 0 0 0 0 1 0 0 0 0 0 0 4 1 2 2 0 0 0 0 0 0 0 0 0 0 0 0 0 0 0 6 0 0 0 1 0 0 0 2 0 1 0 0 2 0 0 0 0 0 0 0 0 1 0 0 0 0 0 0 0 0 0 0 0 0 0 0 0 0 0 0 0 0 0 0 0 0 0 0 0 0 0 0 0 0 0 0 0 0 0 0 0 0 0 0 1 0 0 0 0 0 0 6 0 43 0 0 0 9 0 54 10 0 0 0 0 0 0 1 0 0 0 0 0 0 0 0 0 0 2 0 0 0 0 0 0 0 0 0 0 0 0 0 0 0 0 0 0 1 0 0 0 0 1 0 0 1 4 0 0 0 0 0 0 0 0 0 0 0 0 13 0 0 0 0 4 1 0 0 0 1 0 0 0 0 1 0 1 0 0 0 0 0 0 0 0 0 0 0 0 0 0 0 0 0 0 0 0 0 0 0 0 0 0 0 0 0 0 0 0 0 0 0 0 0 0 2 0 0 0 4 0 0 0 0 0 0 0 0 0 0 0 0 0 0 0 0 0 0 0 0 0 0 0 0 0 8 12 0 0 0 0 0 0 0 0 0 0 0 0 0 0 0 0 0 3 0 0 0 0 2 0 0 0 0 0 0 0 0 0 0 0 0 0 0 0 0 0 0 0 0 0 0 0 0 0 0 0 0 0 0 0 0 1 0 0 0 0 0 0 0 0 0 0 0 0 0 0 0 0 0 0 0 0 0 1 0 0 0 0 6 41 0 0 0 0 0 1 0 0 1 0 0 0 0 0 0 0 0 0 0 0 0 0 0 0 0 0 0 2 0 0 0 0 0 0 0 0 0 0 0 0 0 0 0 0 0 0 0 0 0 0 0 0 0 0 0 0 0 1 1 0 0 1 0 0 0 0 0 1 0 0 0 3 0 0 0 0 0 1 0 0 0 0 0 0 0 0 0 0 0 0 0 2 1 1 0 0 0 0 7 0 0 0 4 0 3 0 0 0 0 0 0 0 0 162 0 0 0 1 0 0 8 0 0 0 0 0 0 0 0 0 0 0 0 0 0 0 0 0 0 0 0 0 2 0 0 0 0 0 0 16 0 0 0 0 0 0 0 0 0 109 0 0 0 0 0 0 0 0 0 0 0 0 0 0 0 0 3 0 0 0 0 0 35 8 1 0 1 0 0 0 0 0 0 0 0 0 0 0 0 0 0 0 0 0 0 0 0 0 0 0 0 0 0 0 0 0 0 0 0 0 0 0 0 0 0 0 0 0 0 0 0 0 0 0 0 0 0 0 0 0 0 2 0 0 0 0 0 0 0 0 0 0 0 0 0 0 0 0 0 0 0 0 0 0 0 0 0 0 0 0 0 0 0 0 0 0 0 0 0 1 0 0 0 0 0 0 0 2 0 0 0 0 0 0 2 0 0 0 0 0 0 0 0 0 0 0 0 0 0 2 2 0 0 0 0 1 0 0 0 0 0 0 0 0 0 0 0 0 0 0 0 0 0 0 4 1 5 0 0 1 0 0 0 0 0 0 2 0 0 0 0 0 0 0 0 0 0 0 0 2 0 0 0 0 0 0 0 0 0 0 0 0 0 0 0 0 0 0 0 0 0 0 0 0 0 0 0 0 0 0 1 0 1 0 1 0 0 0 0 0 0 0 2 0 0 0 0 0 0 0 0 1 45 0 0 0 0 3 0 0 0 0 0 0 0 0 0 1 0 0 0 0 0 0 0 0 0 
Printing Sanity2
Heartbeat CPU 0 instructions: 110000000 cycles: 147038434 heartbeat IPC: 0.455304 cumulative IPC: 0.450437 (Simulation time: 0 hr 8 min 24 sec) 
Heartbeat CPU 0 instructions: 120000000 cycles: 169561143 heartbeat IPC: 0.443996 cumulative IPC: 0.449506 (Simulation time: 0 hr 9 min 19 sec) 
*** Reached end of trace for Core: 0 Repeating trace: traces/spec2k17/srv_63.champsimtrace.xz
Heartbeat CPU 0 instructions: 130000000 cycles: 192231189 heartbeat IPC: 0.441111 cumulative IPC: 0.448439 (Simulation time: 0 hr 10 min 14 sec) 
Heartbeat CPU 0 instructions: 140000003 cycles: 214640735 heartbeat IPC: 0.446239 cumulative IPC: 0.448193 (Simulation time: 0 hr 11 min 6 sec) 
Heartbeat CPU 0 instructions: 150000003 cycles: 236906229 heartbeat IPC: 0.449125 cumulative IPC: 0.448286 (Simulation time: 0 hr 12 min 2 sec) 
*** Reached end of trace for Core: 0 Repeating trace: traces/spec2k17/srv_63.champsimtrace.xz
Heartbeat CPU 0 instructions: 160000000 cycles: 259848931 heartbeat IPC: 0.435868 cumulative IPC: 0.447128 (Simulation time: 0 hr 12 min 54 sec) 
Heartbeat CPU 0 instructions: 170000003 cycles: 282089209 heartbeat IPC: 0.449635 cumulative IPC: 0.447336 (Simulation time: 0 hr 13 min 46 sec) 
Heartbeat CPU 0 instructions: 180000003 cycles: 304399056 heartbeat IPC: 0.448233 cumulative IPC: 0.447405 (Simulation time: 0 hr 14 min 40 sec) 
*** Reached end of trace for Core: 0 Repeating trace: traces/spec2k17/srv_63.champsimtrace.xz
Heartbeat CPU 0 instructions: 190000000 cycles: 327247850 heartbeat IPC: 0.43766 cumulative IPC: 0.446694 (Simulation time: 0 hr 15 min 33 sec) 
Heartbeat CPU 0 instructions: 200000000 cycles: 349500058 heartbeat IPC: 0.449394 cumulative IPC: 0.446873 (Simulation time: 0 hr 16 min 27 sec) 
Heartbeat CPU 0 instructions: 210000002 cycles: 371646912 heartbeat IPC: 0.451531 cumulative IPC: 0.447162 (Simulation time: 0 hr 17 min 19 sec) 
*** Reached end of trace for Core: 0 Repeating trace: traces/spec2k17/srv_63.champsimtrace.xz
Heartbeat CPU 0 instructions: 220000000 cycles: 394476857 heartbeat IPC: 0.438021 cumulative IPC: 0.446613 (Simulation time: 0 hr 18 min 13 sec) 
Heartbeat CPU 0 instructions: 230000001 cycles: 416634474 heartbeat IPC: 0.451312 cumulative IPC: 0.446872 (Simulation time: 0 hr 18 min 59 sec) 
Heartbeat CPU 0 instructions: 240000002 cycles: 439194721 heartbeat IPC: 0.443258 cumulative IPC: 0.44668 (Simulation time: 0 hr 19 min 36 sec) 
*** Reached end of trace for Core: 0 Repeating trace: traces/spec2k17/srv_63.champsimtrace.xz
Heartbeat CPU 0 instructions: 250000000 cycles: 461618740 heartbeat IPC: 0.44595 cumulative IPC: 0.446644 (Simulation time: 0 hr 20 min 10 sec) 
Finished CPU 0 instructions: 200000001 cycles: 447784248 cumulative IPC: 0.446644 (Simulation time: 0 hr 20 min 10 sec) 

ChampSim completed all CPUs

Region of Interest Statistics

CPU 0 cumulative IPC: 0.446644 instructions: 200000001 cycles: 447784248
ITLB TOTAL     ACCESS:   31325870  HIT:   30545292  MISS:     780578  HIT %:    97.5082  MISS %:     2.4918   MPKI: 3.90289
ITLB LOAD TRANSLATION ACCESS:   31325870  HIT:   30545292  MISS:     780578  HIT %:    97.5082  MISS %:     2.4918   MPKI: 3.90289
ITLB PREFETCH  REQUESTED:          0  ISSUED:          0  USEFUL:          0  USELESS:          0
ITLB USEFUL LOAD PREFETCHES:          0 PREFETCH ISSUED TO LOWER LEVEL:          0  ACCURACY: -nan
ITLB TIMELY PREFETCHES:          0 LATE PREFETCHES: 0 DROPPED PREFETCHES: 0
ITLB PREFETCHES SAME FILL-ORIGIN LEVEL: 0 DIFFERENT FILL-ORIGIN LEVEL: 0
ITLB AVERAGE MISS LATENCY: 14.1344 cycles
ITLB RQ	ACCESS:   38370184	FORWARD:          0	MERGED:    6848627	TO_CACHE:   31521557

DTLB TOTAL     ACCESS:   37170033  HIT:   34560287  MISS:    2609746  HIT %:    92.9789  MISS %:     7.0211   MPKI: 13.0487
DTLB LOAD TRANSLATION ACCESS:   37170033  HIT:   34560287  MISS:    2609746  HIT %:    92.9789  MISS %:     7.0211   MPKI: 13.0487
DTLB PREFETCH  REQUESTED:          0  ISSUED:          0  USEFUL:          0  USELESS:          0
DTLB USEFUL LOAD PREFETCHES:          0 PREFETCH ISSUED TO LOWER LEVEL:          0  ACCURACY: -nan
DTLB TIMELY PREFETCHES:          0 LATE PREFETCHES: 0 DROPPED PREFETCHES: 0
DTLB PREFETCHES SAME FILL-ORIGIN LEVEL: 0 DIFFERENT FILL-ORIGIN LEVEL: 0
DTLB AVERAGE MISS LATENCY: 13.8782 cycles
DTLB RQ	ACCESS:   47654373	FORWARD:          0	MERGED:   10335517	TO_CACHE:   37318856

STLB TOTAL     ACCESS:    4726438  HIT:    4369320  MISS:     357118  HIT %:    92.4442  MISS %:    7.55575   MPKI: 1.78559
STLB LOAD TRANSLATION ACCESS:    3390324  HIT:    3038731  MISS:     351593  HIT %:    89.6295  MISS %:    10.3705   MPKI: 1.75796
STLB TRANSLATION FROM L1D PREFETCHER ACCESS:    1336114  HIT:    1330589  MISS:       5525  HIT %:    99.5865  MISS %:   0.413513   MPKI: 0.027625
STLB PREFETCH  REQUESTED:          0  ISSUED:          0  USEFUL:       4964  USELESS:        556
STLB USEFUL LOAD PREFETCHES:       4964 PREFETCH ISSUED TO LOWER LEVEL:          0  ACCURACY: inf
STLB TIMELY PREFETCHES:       4964 LATE PREFETCHES: 71 DROPPED PREFETCHES: 14381
STLB PREFETCHES SAME FILL-ORIGIN LEVEL: 0 DIFFERENT FILL-ORIGIN LEVEL: 0
STLB AVERAGE MISS LATENCY: 47.1704 cycles
STLB RQ	ACCESS:    4863803	FORWARD:          0	MERGED:     122537	TO_CACHE:    4741266

STLB Hit, L1D data hit: 0
STLB Hit, L2C data hit: 0
STLB Hit, LLC data hit: 0
STLB Hit, LLC data miss: 0
STLB STLB hints to L2: 0
L1D TOTAL     ACCESS:   48553085  HIT:   44944280  MISS:    3608805  HIT %:    92.5673  MISS %:     7.4327   MPKI: 18.044
L1D LOAD      ACCESS:   27579773  HIT:   25536097  MISS:    2043676  HIT %:    92.5899  MISS %:    7.41005   MPKI: 10.2184
L1D RFO       ACCESS:   19588089  HIT:   19256785  MISS:     331304  HIT %:    98.3086  MISS %:    1.69135   MPKI: 1.65652
L1D PREFETCH  ACCESS:    1385223  HIT:     151398  MISS:    1233825  HIT %:    10.9295  MISS %:    89.0705   MPKI: 6.16912
AGUS PREFETCH L1 MISS: 0
L1D PREFETCH  REQUESTED:    2966202  ISSUED:    2966202  USEFUL:     244427  USELESS:     989175
L1D USEFUL LOAD PREFETCHES:     244427 PREFETCH ISSUED TO LOWER LEVEL:    1240962  ACCURACY: 19.6966
L1D TIMELY PREFETCHES:     244427 LATE PREFETCHES: 6806 DROPPED PREFETCHES: 17633
L1D PREFETCHES SAME FILL-ORIGIN LEVEL: 1240962 DIFFERENT FILL-ORIGIN LEVEL: 0
L1D AVERAGE MISS LATENCY: 600738 cycles
L1D RQ	ACCESS:   42157862	FORWARD:          0	MERGED:   14215296	TO_CACHE:   27691470
L1D WQ	ACCESS:   20271818	FORWARD:     251098	MERGED:     308915	TO_CACHE:   19962903
L1D PQ	ACCESS:    1492723	FORWARD:          0	MERGED:      19242	TO_CACHE:    1473479

L1D UNIQUE REGIONS ACCESSED: 0
L1D REGIONS CONFLICTS: 0
L1D Cross Page Prefetch Requests: 1492723
L1D Same Page Prefetch Requests: 0
L1D ROI Sum of L1D PQ occupancy: 19944575
L1D PREFETCHES PUSHED FROM L2C: 0
L1I TOTAL     ACCESS:   36572382  HIT:   31427873  MISS:    5144509  HIT %:    85.9333  MISS %:    14.0667   MPKI: 25.7225
L1I LOAD      ACCESS:   36572382  HIT:   31427873  MISS:    5144509  HIT %:    85.9333  MISS %:    14.0667   MPKI: 25.7225
L1I PREFETCH  REQUESTED:          0  ISSUED:          0  USEFUL:          0  USELESS:          0
L1I USEFUL LOAD PREFETCHES:          0 PREFETCH ISSUED TO LOWER LEVEL:          0  ACCURACY: -nan
L1I TIMELY PREFETCHES:          0 LATE PREFETCHES: 0 DROPPED PREFETCHES: 0
L1I PREFETCHES SAME FILL-ORIGIN LEVEL: 0 DIFFERENT FILL-ORIGIN LEVEL: 0
L1I AVERAGE MISS LATENCY: 26.7092 cycles
L1I RQ	ACCESS:   57227399	FORWARD:          0	MERGED:   18857215	TO_CACHE:   38370184

BTB TOTAL     ACCESS:   22132994  HIT:   17703037  MISS:    4429957  HIT %:    79.9848  MISS %:    20.0152   MPKI: 22.1498
BTB BRANCH_DIRECT_JUMP	ACCESS:    1771716  HIT:    1521380  MISS:     250336
BTB BRANCH_INDIRECT	ACCESS:    9488973  HIT:    7332684  MISS:    2156289
BTB BRANCH_CONDITIONAL	ACCESS:    4504476  HIT:    4096603  MISS:     407873
BTB BRANCH_DIRECT_CALL	ACCESS:    2499396  HIT:    2015019  MISS:     484377
BTB BRANCH_INDIRECT_CALL	ACCESS:     683762  HIT:     642808  MISS:      40954
BTB BRANCH_RETURN	ACCESS:    3184671  HIT:    2094543  MISS:    1090128
BTB BRANCH_OTHER ACCESS:          0  HIT:          0  MISS:          0

L2C TOTAL     ACCESS:   10311136  HIT:    6376179  MISS:    3934957  HIT %:    61.8378  MISS %:    38.1622   MPKI: 19.6748
L2C LOAD      ACCESS:    7181093  HIT:    4219308  MISS:    2961785  HIT %:    58.7558  MISS %:    41.2442   MPKI: 14.8089
L2C DATA LOAD MPKI: 4.36722
L2C INSTRUCTION LOAD MPKI: 10.4417
L2C RFO       ACCESS:     330957  HIT:     193635  MISS:     137322  HIT %:    58.5076  MISS %:    41.4924   MPKI: 0.68661
L2C PREFETCH  ACCESS:    1240956  HIT:     643675  MISS:     597281  HIT %:    51.8693  MISS %:    48.1307   MPKI: 2.9864
AGUS PREFETCH L1 MISS: 0
L2C DATA PREFETCH MPKI: 2.9864
L2C INSTRUCTION PREFETCH MPKI: 0
L2C WRITEBACK ACCESS:    1069517  HIT:    1028542  MISS:      40975  HIT %:    96.1688  MISS %:    3.83117   MPKI: 0.204875
L2C LOAD TRANSLATION ACCESS:     460199  HIT:     267227  MISS:     192972  HIT %:    58.0677  MISS %:    41.9323   MPKI: 0.96486
L2C TRANSLATION FROM L1D PREFETCHER ACCESS:      28414  HIT:      23792  MISS:       4622  HIT %:    83.7334  MISS %:    16.2666   MPKI: 0.02311
L2C PREFETCH  REQUESTED:          0  ISSUED:          0  USEFUL:      29384  USELESS:     571193
L2C USEFUL LOAD PREFETCHES:      29384 PREFETCH ISSUED TO LOWER LEVEL:     597281  ACCURACY: 4.91963
L2C TIMELY PREFETCHES:      29384 LATE PREFETCHES: 0 DROPPED PREFETCHES: 0
L2C PREFETCHES SAME FILL-ORIGIN LEVEL: 0 DIFFERENT FILL-ORIGIN LEVEL: 0
L2C AVERAGE MISS LATENCY: 42.8837 cycles
L2C RQ	ACCESS:    8000966	FORWARD:          0	MERGED:          0	TO_CACHE:    8000664
L2C WQ	ACCESS:    1069517	FORWARD:        308	MERGED:          0	TO_CACHE:    1069517
L2C PQ	ACCESS:    1240962	FORWARD:          0	MERGED:          0	TO_CACHE:    1240956

L2C Instructions Evicting Data 879563
L2C Translations Evicting Data 83748
L2C Data Evicting Data 668086
L2C Instructions Evicting Instructions 1106185
L2C Translations Evicting Instructions 102552
L2C Data Evicting Instructions 858220
L2C Instructions Evicting Translations 102592
L2C Translations Evicting Translations 11294
L2C Data Evicting Translations 81742
L2C Dense regions hint from L2: 0
PSCL5 TOTAL     ACCESS:     371499  HIT:     371499  MISS:          0  HIT %:        100  MISS %:          0   MPKI: 0
PSCL5 LOAD TRANSLATION ACCESS:     351522  HIT:     351522  MISS:          0  HIT %:        100  MISS %:          0   MPKI: 0
PSCL5 TRANSLATION FROM L1D PREFETCHER ACCESS:      19977  HIT:      19977  MISS:          0  HIT %:        100  MISS %:          0   MPKI: 0
PSCL5 PREFETCH  REQUESTED:          0  ISSUED:          0  USEFUL:          0  USELESS:          0
PSCL5 USEFUL LOAD PREFETCHES:          0 PREFETCH ISSUED TO LOWER LEVEL:          0  ACCURACY: -nan
PSCL5 TIMELY PREFETCHES:          0 LATE PREFETCHES: 0 DROPPED PREFETCHES: 0
PSCL5 PREFETCHES SAME FILL-ORIGIN LEVEL: 0 DIFFERENT FILL-ORIGIN LEVEL: 0

PSCL4 TOTAL     ACCESS:     349377  HIT:     348942  MISS:        435  HIT %:    99.8755  MISS %:   0.124507   MPKI: 0.002175
PSCL4 LOAD TRANSLATION ACCESS:     331586  HIT:     331151  MISS:        435  HIT %:    99.8688  MISS %:   0.131188   MPKI: 0.002175
PSCL4 TRANSLATION FROM L1D PREFETCHER ACCESS:      17791  HIT:      17791  MISS:          0  HIT %:        100  MISS %:          0   MPKI: 0
PSCL4 PREFETCH  REQUESTED:          0  ISSUED:          0  USEFUL:          0  USELESS:          0
PSCL4 USEFUL LOAD PREFETCHES:          0 PREFETCH ISSUED TO LOWER LEVEL:          0  ACCURACY: -nan
PSCL4 TIMELY PREFETCHES:          0 LATE PREFETCHES: 0 DROPPED PREFETCHES: 0
PSCL4 PREFETCHES SAME FILL-ORIGIN LEVEL: 0 DIFFERENT FILL-ORIGIN LEVEL: 0

PSCL3 TOTAL     ACCESS:     370450  HIT:     369582  MISS:        868  HIT %:    99.7657  MISS %:    0.23431   MPKI: 0.00434
PSCL3 LOAD TRANSLATION ACCESS:     350614  HIT:     349746  MISS:        868  HIT %:    99.7524  MISS %:   0.247566   MPKI: 0.00434
PSCL3 TRANSLATION FROM L1D PREFETCHER ACCESS:      19836  HIT:      19836  MISS:          0  HIT %:        100  MISS %:          0   MPKI: 0
PSCL3 PREFETCH  REQUESTED:          0  ISSUED:          0  USEFUL:          0  USELESS:          0
PSCL3 USEFUL LOAD PREFETCHES:          0 PREFETCH ISSUED TO LOWER LEVEL:          0  ACCURACY: -nan
PSCL3 TIMELY PREFETCHES:          0 LATE PREFETCHES: 0 DROPPED PREFETCHES: 0
PSCL3 PREFETCHES SAME FILL-ORIGIN LEVEL: 0 DIFFERENT FILL-ORIGIN LEVEL: 0

PSCL2 TOTAL     ACCESS:     364479  HIT:     255757  MISS:     108722  HIT %:    70.1706  MISS %:    29.8294   MPKI: 0.54361
PSCL2 LOAD TRANSLATION ACCESS:     352782  HIT:     244060  MISS:     108722  HIT %:    69.1815  MISS %:    30.8185   MPKI: 0.54361
PSCL2 TRANSLATION FROM L1D PREFETCHER ACCESS:      11697  HIT:      11697  MISS:          0  HIT %:        100  MISS %:          0   MPKI: 0
PSCL2 PREFETCH  REQUESTED:          0  ISSUED:          0  USEFUL:          0  USELESS:          0
PSCL2 USEFUL LOAD PREFETCHES:          0 PREFETCH ISSUED TO LOWER LEVEL:          0  ACCURACY: -nan
PSCL2 TIMELY PREFETCHES:          0 LATE PREFETCHES: 0 DROPPED PREFETCHES: 0
PSCL2 PREFETCHES SAME FILL-ORIGIN LEVEL: 0 DIFFERENT FILL-ORIGIN LEVEL: 0

LLC TOTAL     ACCESS:    4335667  HIT:    3990815  MISS:     344852  HIT %:    92.0462  MISS %:    7.95384   MPKI: 1.72426
LLC LOAD      ACCESS:    2961785  HIT:    2780076  MISS:     181709  HIT %:    93.8649  MISS %:    6.13512   MPKI: 0.908545
LLC RFO       ACCESS:     137315  HIT:      95344  MISS:      41971  HIT %:    69.4345  MISS %:    30.5655   MPKI: 0.209855
LLC PREFETCH  ACCESS:     597281  HIT:     492106  MISS:     105175  HIT %:     82.391  MISS %:     17.609   MPKI: 0.525875
AGUS PREFETCH L1 MISS: 0
LLC WRITEBACK ACCESS:     441692  HIT:     439144  MISS:       2548  HIT %:    99.4231  MISS %:   0.576873   MPKI: 0.01274
LLC LOAD TRANSLATION ACCESS:     192972  HIT:     179697  MISS:      13275  HIT %:    93.1208  MISS %:    6.87924   MPKI: 0.066375
LLC TRANSLATION FROM L1D PREFETCHER ACCESS:       4622  HIT:       4448  MISS:        174  HIT %:    96.2354  MISS %:     3.7646   MPKI: 0.00087
LLC PREFETCH  REQUESTED:          0  ISSUED:          0  USEFUL:       5202  USELESS:      91785
LLC USEFUL LOAD PREFETCHES:       5202 PREFETCH ISSUED TO LOWER LEVEL:     105175  ACCURACY: 4.94604
LLC TIMELY PREFETCHES:       5202 LATE PREFETCHES: 0 DROPPED PREFETCHES: 0
LLC PREFETCHES SAME FILL-ORIGIN LEVEL: 0 DIFFERENT FILL-ORIGIN LEVEL: 0
LLC AVERAGE MISS LATENCY: 150.571 cycles
LLC RQ	ACCESS:    3296701	FORWARD:          0	MERGED:          0	TO_CACHE:    3296694
LLC WQ	ACCESS:     441692	FORWARD:          7	MERGED:          0	TO_CACHE:     441692
LLC PQ	ACCESS:     597281	FORWARD:          0	MERGED:          0	TO_CACHE:     597281

LLC Dense regions hint to LLC: 0

RAW hits: 2694812
Loads Generated: 44852676
Loads sent to L1D: 42157862
Stores Generated: 20271815
Stores sent to L1D: 20271818
Major fault: 0 Minor fault: 6260
Allocated PAGES: 6260
CPU 0 L1D 
Prefetch count 1240962 BOP and RL 

DRAM Statistics
 CHANNEL 0
 RQ ROW_BUFFER_HIT:      70030  ROW_BUFFER_MISS:     272273
 DBUS_CONGESTED:        175
 WQ ROW_BUFFER_HIT:      29433  ROW_BUFFER_MISS:     192436  FULL:          0

 AVG_CONGESTED_CYCLE: 4
 All warmup complete: 2
Channel 0 Bank busy for read cycles: 0
Channel 0 Bank busy for write cycles: 0
Channel 0
Rank 0
0banks busy for read cycles: 396698871
0banks busy for write cycles: 101524
1banks busy for read cycles: 18087732
1banks busy for write cycles: 11838495
2banks busy for read cycles: 9482693
2banks busy for write cycles: 5320513
3banks busy for read cycles: 1036312
3banks busy for write cycles: 1585320
4banks busy for read cycles: 581771
4banks busy for write cycles: 986056
5banks busy for read cycles: 159126
5banks busy for write cycles: 596934
6banks busy for read cycles: 70026
6banks busy for write cycles: 458117
7banks busy for read cycles: 38636
7banks busy for write cycles: 356267
8banks busy for read cycles: 45994
8banks busy for write cycles: 339862

CPU 0 Branch Prediction Accuracy: 99.8245% MPKI: 0.314415 Average ROB Occupancy at Mispredict: 41.4382
Branch types
NOT_BRANCH: 164177126 82.0886%
BRANCH_DIRECT_JUMP: 1771716 0.885858%
BRANCH_INDIRECT: 9488973 4.74449%
BRANCH_CONDITIONAL: 18194015 9.09701%
BRANCH_DIRECT_CALL: 2499396 1.2497%
BRANCH_INDIRECT_CALL: 683762 0.341881%
BRANCH_RETURN: 3184671 1.59234%
BRANCH_OTHER: 0 0%

DRAM PAGES: 1048576
Allocated PAGES: 6260
