
*** ChampSim Multicore Out-of-Order Simulator ***

Warmup Instructions: 50000000
Simulation Instructions: 200000000
Number of CPUs: 1
LLC sets: 2048
LLC ways: 16
Off-chip DRAM Size: 4096 MB Channels: 1 Width: 64-bit Data Rate: 6400 MT/s
CPU 0 runs traces/spec2k17/srv_71.champsimtrace.xz
.xz
BTB has LRU replacement policy
ITLB has LRU replacement policy
DTLB has LRU replacement policy
STLB has LRU replacement policy
L1I has LRU replacement policy
CPU 0 l1d next line prefetcher
L1D has LRU replacement policy
Initialize SRRIP state for L2C
Initialize DRRIP state for LLC
Offsets elements: 
Potential of Offsets elements: 
rewards of Offsets elements: 
Printing Sanity1
offset list size1176
Heartbeat CPU 0 instructions: 10000002 cycles: 2849049 heartbeat IPC: 3.50994 cumulative IPC: 3.50994 (Simulation time: 0 hr 0 min 29 sec) 
Heartbeat CPU 0 instructions: 20000000 cycles: 5691154 heartbeat IPC: 3.51852 cumulative IPC: 3.51423 (Simulation time: 0 hr 1 min 1 sec) 
Offsets elements: 
Potential of Offsets elements: 
rewards of Offsets elements: 0 0 0 0 0 1 0 108 0 205 2 0 1 0 68 0 0 1 0 0 0 2 0 1 0 5 2 3 0 1 0 0 0 0 0 0 1 0 0 0 0 0 1 0 0 2 0 0 0 339 1 0 0 0 0 1 3 0 0 3 0 0 1 0 0 0 0 0 2 0 185 0 1 0 8 3 2 99 0 0 0 0 1 0 1 0 325 1 37 3 0 46 2 1 0 0 0 0 149 4 0 1 212 0 0 0 8 0 0 0 0 0 2 0 2 0 0 0 0 0 1 0 0 0 0 0 162 5 0 332 0 0 0 0 0 0 0 0 0 0 0 0 3 0 3 2 0 0 0 0 24 0 0 0 283 0 0 0 0 0 0 0 0 0 0 0 18 0 123 118 0 1 1 0 0 0 0 1 1 0 0 0 0 0 0 0 0 0 0 1 1 0 90 0 1 2 1 0 0 0 0 0 2 0 0 0 0 228 1 1 0 0 0 0 2 0 0 0 0 1 0 0 0 0 0 0 0 0 2 0 0 0 0 0 0 0 0 0 0 0 0 0 0 1 0 1 0 0 0 0 132 0 0 0 0 0 0 132 0 0 0 52 0 0 0 0 0 9 1 3 0 0 1 0 0 0 1 1 1 40 0 0 0 0 0 0 0 0 0 411 0 1 0 0 1 2 2 0 2 0 0 0 0 4 0 0 0 0 2 0 0 0 0 1 0 0 0 0 1 0 0 0 0 0 0 0 46 291 0 0 0 49 0 0 0 0 2 1 1 0 0 1 0 0 0 0 2 0 0 3 1 289 1 0 0 8 92 0 0 0 0 5 1 2 0 0 0 0 0 0 0 0 0 0 0 0 0 0 0 3 0 0 2 16 28 374 0 0 0 0 4 0 2 50 30 1 1 3 1 3 0 1 311 2 0 0 2 0 0 16 1 0 2 0 0 0 0 1 0 3 0 0 0 0 0 0 0 1 0 0 0 0 0 0 0 0 175 0 0 0 0 0 315 22 99 4 0 0 0 0 0 72 0 2 0 0 304 0 0 2 1 0 0 2 0 0 0 0 0 1 0 0 0 0 0 0 4 0 0 0 0 0 0 0 2 0 0 0 0 2 2 0 0 1 0 0 0 0 0 0 0 5 0 0 0 0 0 0 0 282 11 0 0 0 0 157 0 0 0 0 0 0 1 0 0 0 0 0 1 0 1 54 2 0 0 0 2 248 0 5 276 0 1 0 0 1 0 0 0 0 0 1 1 0 0 0 2 0 0 3 84 0 0 0 1 0 0 0 0 0 0 0 0 0 2 7 1 0 3 2 0 2 0 0 0 1 0 1 0 0 0 0 0 0 0 1 0 0 0 0 0 0 39 270 0 0 0 0 1 0 1 1 0 10 1 50 1 294 1 2 0 4 21 0 0 1 0 0 0 0 0 1 2 0 0 0 2 0 0 0 0 0 0 0 0 292 0 0 0 0 0 0 0 0 85 1 1 221 1 0 0 0 169 1 0 0 3 1 0 1 0 0 0 0 0 52 0 0 0 0 0 0 0 2 0 1 0 0 0 1 0 0 0 3 0 1 0 1 0 0 0 0 0 0 0 53 120 3 0 151 3 0 0 10 0 0 2 1 1 0 4 0 1 0 0 3 0 2 197 518 489 0 0 1 0 0 1 0 1 0 0 1 0 1 1 0 0 0 0 0 0 0 0 0 0 0 0 1 0 0 7 282 5 1 0 0 0 0 1 0 3 0 0 1 1 0 0 1 0 0 2 0 0 0 0 0 247 0 0 0 0 0 0 10 0 0 0 0 0 1 0 0 6 3 0 0 0 0 0 1 69 0 0 0 0 0 0 0 0 0 0 0 0 0 1 0 0 0 1 0 0 2 132 0 1 0 0 0 0 0 2 0 0 2 0 0 0 0 4 0 0 0 0 0 1 0 1 1 0 0 0 0 0 0 1 0 0 0 0 0 0 0 0 1 0 0 2 3 0 0 4 42 0 1 1 0 0 0 2 0 1 0 0 1 0 0 0 1 1 4 0 1 0 0 0 1 0 0 0 0 0 1 0 0 0 0 0 0 1 0 0 0 0 1 2 0 3 0 0 0 0 1 0 0 1 0 1 0 0 0 2 0 0 0 3 0 1 1 0 0 0 0 0 0 0 0 0 4 0 1 0 0 0 0 0 0 3 0 0 0 0 0 0 0 0 2 0 0 0 8 0 0 0 0 0 6 0 0 0 0 2 0 0 0 0 0 3 0 0 0 0 0 0 0 0 0 0 0 1 1 3 1 120 1 0 0 0 0 0 0 1 1 0 0 0 3 0 0 3 0 0 3 0 1 3 2 0 0 0 0 0 1 2 0 0 7 2 258 0 0 187 0 3 0 0 0 0 1 0 43 2 0 1 4 0 0 0 0 0 0 0 3 3 0 0 2 0 0 1 0 0 2 0 76 0 2 0 1 0 0 1 0 0 0 0 0 0 0 0 0 0 240 0 3 0 0 0 0 0 1 0 0 2 0 0 0 3 0 0 0 1 3 0 0 27 6 155 5 4 22 0 0 0 1 40 265 4 0 1 1 0 0 1 0 1 0 0 0 0 0 2 0 0 0 0 29 0 0 0 0 0 2 0 0 0 0 0 0 0 0 0 0 1 0 0 0 
Printing Sanity2
Heartbeat CPU 0 instructions: 30000001 cycles: 8544582 heartbeat IPC: 3.50456 cumulative IPC: 3.511 (Simulation time: 0 hr 1 min 34 sec) 
*** Reached end of trace for Core: 0 Repeating trace: traces/spec2k17/srv_71.champsimtrace.xz
Heartbeat CPU 0 instructions: 40000003 cycles: 11430489 heartbeat IPC: 3.46512 cumulative IPC: 3.49941 (Simulation time: 0 hr 2 min 5 sec) 
Heartbeat CPU 0 instructions: 50000003 cycles: 14320556 heartbeat IPC: 3.46013 cumulative IPC: 3.49148 (Simulation time: 0 hr 2 min 37 sec) 

Warmup complete CPU 0 instructions: 50000003 cycles: 14320556 (Simulation time: 0 hr 2 min 37 sec) 

Heartbeat CPU 0 instructions: 60000000 cycles: 47867228 heartbeat IPC: 0.298092 cumulative IPC: 0.298092 (Simulation time: 0 hr 3 min 37 sec) 
*** Reached end of trace for Core: 0 Repeating trace: traces/spec2k17/srv_71.champsimtrace.xz
Heartbeat CPU 0 instructions: 70000000 cycles: 81327857 heartbeat IPC: 0.298859 cumulative IPC: 0.298475 (Simulation time: 0 hr 4 min 37 sec) 
Heartbeat CPU 0 instructions: 80000002 cycles: 114880597 heartbeat IPC: 0.298038 cumulative IPC: 0.298329 (Simulation time: 0 hr 5 min 35 sec) 
Heartbeat CPU 0 instructions: 90000001 cycles: 148379820 heartbeat IPC: 0.298514 cumulative IPC: 0.298375 (Simulation time: 0 hr 6 min 31 sec) 
*** Reached end of trace for Core: 0 Repeating trace: traces/spec2k17/srv_71.champsimtrace.xz
Heartbeat CPU 0 instructions: 100000003 cycles: 181790844 heartbeat IPC: 0.299302 cumulative IPC: 0.29856 (Simulation time: 0 hr 7 min 29 sec) 
Heartbeat CPU 0 instructions: 110000000 cycles: 215258620 heartbeat IPC: 0.298795 cumulative IPC: 0.298599 (Simulation time: 0 hr 8 min 29 sec) 
Heartbeat CPU 0 instructions: 120000001 cycles: 248788703 heartbeat IPC: 0.29824 cumulative IPC: 0.298548 (Simulation time: 0 hr 9 min 28 sec) 
*** Reached end of trace for Core: 0 Repeating trace: traces/spec2k17/srv_71.champsimtrace.xz
Heartbeat CPU 0 instructions: 130000000 cycles: 282203606 heartbeat IPC: 0.299268 cumulative IPC: 0.298638 (Simulation time: 0 hr 10 min 29 sec) 
Heartbeat CPU 0 instructions: 140000000 cycles: 315655343 heartbeat IPC: 0.298938 cumulative IPC: 0.298671 (Simulation time: 0 hr 11 min 27 sec) 
Heartbeat CPU 0 instructions: 150000001 cycles: 349151325 heartbeat IPC: 0.298543 cumulative IPC: 0.298658 (Simulation time: 0 hr 12 min 27 sec) 
*** Reached end of trace for Core: 0 Repeating trace: traces/spec2k17/srv_71.champsimtrace.xz
Heartbeat CPU 0 instructions: 160000000 cycles: 382552701 heartbeat IPC: 0.299389 cumulative IPC: 0.298725 (Simulation time: 0 hr 13 min 25 sec) 
Heartbeat CPU 0 instructions: 170000000 cycles: 415974621 heartbeat IPC: 0.299205 cumulative IPC: 0.298765 (Simulation time: 0 hr 14 min 24 sec) 
Heartbeat CPU 0 instructions: 180000000 cycles: 449479743 heartbeat IPC: 0.298462 cumulative IPC: 0.298741 (Simulation time: 0 hr 15 min 19 sec) 
*** Reached end of trace for Core: 0 Repeating trace: traces/spec2k17/srv_71.champsimtrace.xz
Heartbeat CPU 0 instructions: 190000003 cycles: 482893945 heartbeat IPC: 0.299274 cumulative IPC: 0.298779 (Simulation time: 0 hr 15 min 59 sec) 
Heartbeat CPU 0 instructions: 200000000 cycles: 516340494 heartbeat IPC: 0.298984 cumulative IPC: 0.298793 (Simulation time: 0 hr 16 min 36 sec) 
Heartbeat CPU 0 instructions: 210000001 cycles: 549843758 heartbeat IPC: 0.298478 cumulative IPC: 0.298773 (Simulation time: 0 hr 17 min 11 sec) 
*** Reached end of trace for Core: 0 Repeating trace: traces/spec2k17/srv_71.champsimtrace.xz
Heartbeat CPU 0 instructions: 220000000 cycles: 583218139 heartbeat IPC: 0.299631 cumulative IPC: 0.298824 (Simulation time: 0 hr 17 min 44 sec) 
Heartbeat CPU 0 instructions: 230000000 cycles: 616635928 heartbeat IPC: 0.299242 cumulative IPC: 0.298847 (Simulation time: 0 hr 18 min 16 sec) 
Heartbeat CPU 0 instructions: 240000003 cycles: 650180512 heartbeat IPC: 0.298111 cumulative IPC: 0.298808 (Simulation time: 0 hr 18 min 48 sec) 
Heartbeat CPU 0 instructions: 250000003 cycles: 683547041 heartbeat IPC: 0.299702 cumulative IPC: 0.298852 (Simulation time: 0 hr 19 min 20 sec) 
Finished CPU 0 instructions: 200000000 cycles: 669226485 cumulative IPC: 0.298852 (Simulation time: 0 hr 19 min 20 sec) 

ChampSim completed all CPUs

Region of Interest Statistics

CPU 0 cumulative IPC: 0.298852 instructions: 200000000 cycles: 669226485
ITLB TOTAL     ACCESS:   35783211  HIT:   33511601  MISS:    2271610  HIT %:    93.6517  MISS %:    6.34826   MPKI: 11.3581
ITLB LOAD TRANSLATION ACCESS:   35783211  HIT:   33511601  MISS:    2271610  HIT %:    93.6517  MISS %:    6.34826   MPKI: 11.3581
ITLB PREFETCH  REQUESTED:          0  ISSUED:          0  USEFUL:          0  USELESS:          0
ITLB USEFUL LOAD PREFETCHES:          0 PREFETCH ISSUED TO LOWER LEVEL:          0  ACCURACY: -nan
ITLB TIMELY PREFETCHES:          0 LATE PREFETCHES: 0 DROPPED PREFETCHES: 0
ITLB PREFETCHES SAME FILL-ORIGIN LEVEL: 0 DIFFERENT FILL-ORIGIN LEVEL: 0
ITLB AVERAGE MISS LATENCY: 9.23118 cycles
ITLB RQ	ACCESS:   42082924	FORWARD:          0	MERGED:    5756910	TO_CACHE:   36326014

DTLB TOTAL     ACCESS:   45945017  HIT:   43886781  MISS:    2058236  HIT %:    95.5202  MISS %:    4.47978   MPKI: 10.2912
DTLB LOAD TRANSLATION ACCESS:   45945017  HIT:   43886781  MISS:    2058236  HIT %:    95.5202  MISS %:    4.47978   MPKI: 10.2912
DTLB PREFETCH  REQUESTED:          0  ISSUED:          0  USEFUL:          0  USELESS:          0
DTLB USEFUL LOAD PREFETCHES:          0 PREFETCH ISSUED TO LOWER LEVEL:          0  ACCURACY: -nan
DTLB TIMELY PREFETCHES:          0 LATE PREFETCHES: 0 DROPPED PREFETCHES: 0
DTLB PREFETCHES SAME FILL-ORIGIN LEVEL: 0 DIFFERENT FILL-ORIGIN LEVEL: 0
DTLB AVERAGE MISS LATENCY: 9.2102 cycles
DTLB RQ	ACCESS:   60733075	FORWARD:          0	MERGED:   14725440	TO_CACHE:   46007635

STLB TOTAL     ACCESS:    6792951  HIT:    6751005  MISS:      41946  HIT %:    99.3825  MISS %:   0.617493   MPKI: 0.20973
STLB LOAD TRANSLATION ACCESS:    4329846  HIT:    4294632  MISS:      35214  HIT %:    99.1867  MISS %:   0.813285   MPKI: 0.17607
STLB TRANSLATION FROM L1D PREFETCHER ACCESS:    2463105  HIT:    2456373  MISS:       6732  HIT %:    99.7267  MISS %:   0.273314   MPKI: 0.03366
STLB PREFETCH  REQUESTED:          0  ISSUED:          0  USEFUL:       5905  USELESS:        826
STLB USEFUL LOAD PREFETCHES:       5905 PREFETCH ISSUED TO LOWER LEVEL:          0  ACCURACY: inf
STLB TIMELY PREFETCHES:       5905 LATE PREFETCHES: 14 DROPPED PREFETCHES: 1264195
STLB PREFETCHES SAME FILL-ORIGIN LEVEL: 0 DIFFERENT FILL-ORIGIN LEVEL: 0
STLB AVERAGE MISS LATENCY: 26.0488 cycles
STLB RQ	ACCESS:    8555704	FORWARD:          0	MERGED:     444900	TO_CACHE:    8110804

STLB Hit, L1D data hit: 0
STLB Hit, L2C data hit: 0
STLB Hit, LLC data hit: 0
STLB Hit, LLC data miss: 0
STLB STLB hints to L2: 0
L1D TOTAL     ACCESS:   61472463  HIT:   53404301  MISS:    8068162  HIT %:    86.8752  MISS %:    13.1248   MPKI: 40.3408
L1D LOAD      ACCESS:   34033231  HIT:   29877580  MISS:    4155651  HIT %:    87.7894  MISS %:    12.2106   MPKI: 20.7783
L1D RFO       ACCESS:   24669231  HIT:   23414726  MISS:    1254505  HIT %:    94.9147  MISS %:     5.0853   MPKI: 6.27252
L1D PREFETCH  ACCESS:    2770001  HIT:     111995  MISS:    2658006  HIT %:    4.04314  MISS %:    95.9569   MPKI: 13.29
AGUS PREFETCH L1 MISS: 0
L1D PREFETCH  REQUESTED:    8543884  ISSUED:    8543884  USEFUL:     523576  USELESS:    2134458
L1D USEFUL LOAD PREFETCHES:     523576 PREFETCH ISSUED TO LOWER LEVEL:    2658012  ACCURACY: 19.698
L1D TIMELY PREFETCHES:     523576 LATE PREFETCHES: 6 DROPPED PREFETCHES: 1410744
L1D PREFETCHES SAME FILL-ORIGIN LEVEL: 2658012 DIFFERENT FILL-ORIGIN LEVEL: 0
L1D AVERAGE MISS LATENCY: 327.162 cycles
L1D RQ	ACCESS:   46538596	FORWARD:          0	MERGED:   12024040	TO_CACHE:   34195602
L1D WQ	ACCESS:   26687093	FORWARD:     318987	MERGED:     149620	TO_CACHE:   26537473
L1D PQ	ACCESS:    4318026	FORWARD:          0	MERGED:      92135	TO_CACHE:    4225858

L1D UNIQUE REGIONS ACCESSED: 0
L1D REGIONS CONFLICTS: 0
L1D Cross Page Prefetch Requests: 4825490
L1D Same Page Prefetch Requests: 0
L1D ROI Sum of L1D PQ occupancy: 90673135
L1D PREFETCHES PUSHED FROM L2C: 0
L1I TOTAL     ACCESS:   40359498  HIT:   28871603  MISS:   11487895  HIT %:    71.5361  MISS %:    28.4639   MPKI: 57.4395
L1I LOAD      ACCESS:   40359498  HIT:   28871603  MISS:   11487895  HIT %:    71.5361  MISS %:    28.4639   MPKI: 57.4395
L1I PREFETCH  REQUESTED:          0  ISSUED:          0  USEFUL:          0  USELESS:          0
L1I USEFUL LOAD PREFETCHES:          0 PREFETCH ISSUED TO LOWER LEVEL:          0  ACCURACY: -nan
L1I TIMELY PREFETCHES:          0 LATE PREFETCHES: 0 DROPPED PREFETCHES: 0
L1I PREFETCHES SAME FILL-ORIGIN LEVEL: 0 DIFFERENT FILL-ORIGIN LEVEL: 0
L1I AVERAGE MISS LATENCY: 16.876 cycles
L1I RQ	ACCESS:   58327600	FORWARD:          0	MERGED:   16244676	TO_CACHE:   42082924

BTB TOTAL     ACCESS:   30381255  HIT:   17587962  MISS:   12793293  HIT %:    57.8908  MISS %:    42.1092   MPKI: 63.9665
BTB BRANCH_DIRECT_JUMP	ACCESS:    1874465  HIT:    1039962  MISS:     834503
BTB BRANCH_INDIRECT	ACCESS:   12070935  HIT:    7181481  MISS:    4889454
BTB BRANCH_CONDITIONAL	ACCESS:    7200933  HIT:    5892738  MISS:    1308195
BTB BRANCH_DIRECT_CALL	ACCESS:    3894489  HIT:    1805612  MISS:    2088877
BTB BRANCH_INDIRECT_CALL	ACCESS:     722993  HIT:     337731  MISS:     385262
BTB BRANCH_RETURN	ACCESS:    4617440  HIT:    1330438  MISS:    3287002
BTB BRANCH_OTHER ACCESS:          0  HIT:          0  MISS:          0

L2C TOTAL     ACCESS:   23989810  HIT:   21786350  MISS:    2203460  HIT %:     90.815  MISS %:    9.18498   MPKI: 11.0173
L2C LOAD      ACCESS:   15643506  HIT:   14113475  MISS:    1530031  HIT %:    90.2194  MISS %:    9.78061   MPKI: 7.65015
L2C DATA LOAD MPKI: 2.32193
L2C INSTRUCTION LOAD MPKI: 5.32822
L2C RFO       ACCESS:    1254505  HIT:    1140980  MISS:     113525  HIT %:    90.9506  MISS %:    9.04939   MPKI: 0.567625
L2C PREFETCH  ACCESS:    2658012  HIT:    2152216  MISS:     505796  HIT %:    80.9709  MISS %:    19.0291   MPKI: 2.52898
AGUS PREFETCH L1 MISS: 0
L2C DATA PREFETCH MPKI: 2.52898
L2C INSTRUCTION PREFETCH MPKI: 0
L2C WRITEBACK ACCESS:    2486593  HIT:    2461474  MISS:      25119  HIT %:    98.9898  MISS %:    1.01018   MPKI: 0.125595
L2C LOAD TRANSLATION ACCESS:      36782  HIT:      29291  MISS:       7491  HIT %:    79.6341  MISS %:    20.3659   MPKI: 0.037455
L2C TRANSLATION FROM L1D PREFETCHER ACCESS:    1910412  HIT:    1888914  MISS:      21498  HIT %:    98.8747  MISS %:    1.12531   MPKI: 0.10749
L2C PREFETCH  REQUESTED:          0  ISSUED:          0  USEFUL:      13787  USELESS:     513609
L2C USEFUL LOAD PREFETCHES:      13787 PREFETCH ISSUED TO LOWER LEVEL:     505796  ACCURACY: 2.7258
L2C TIMELY PREFETCHES:      13787 LATE PREFETCHES: 0 DROPPED PREFETCHES: 0
L2C PREFETCHES SAME FILL-ORIGIN LEVEL: 0 DIFFERENT FILL-ORIGIN LEVEL: 0
L2C AVERAGE MISS LATENCY: 30.9952 cycles
L2C RQ	ACCESS:   18845240	FORWARD:          0	MERGED:          0	TO_CACHE:   18845206
L2C WQ	ACCESS:    2486593	FORWARD:         34	MERGED:          0	TO_CACHE:    2486593
L2C PQ	ACCESS:    2658012	FORWARD:          0	MERGED:          0	TO_CACHE:    2658012

L2C Instructions Evicting Data 535344
L2C Translations Evicting Data 14882
L2C Data Evicting Data 547353
L2C Instructions Evicting Instructions 518632
L2C Translations Evicting Instructions 13528
L2C Data Evicting Instructions 520421
L2C Instructions Evicting Translations 11668
L2C Translations Evicting Translations 579
L2C Data Evicting Translations 15934
L2C Dense regions hint from L2: 0
PSCL5 TOTAL     ACCESS:    1306141  HIT:    1306141  MISS:          0  HIT %:        100  MISS %:          0   MPKI: 0
PSCL5 LOAD TRANSLATION ACCESS:      35200  HIT:      35200  MISS:          0  HIT %:        100  MISS %:          0   MPKI: 0
PSCL5 TRANSLATION FROM L1D PREFETCHER ACCESS:    1270941  HIT:    1270941  MISS:          0  HIT %:        100  MISS %:          0   MPKI: 0
PSCL5 PREFETCH  REQUESTED:          0  ISSUED:          0  USEFUL:          0  USELESS:          0
PSCL5 USEFUL LOAD PREFETCHES:          0 PREFETCH ISSUED TO LOWER LEVEL:          0  ACCURACY: -nan
PSCL5 TIMELY PREFETCHES:          0 LATE PREFETCHES: 0 DROPPED PREFETCHES: 0
PSCL5 PREFETCHES SAME FILL-ORIGIN LEVEL: 0 DIFFERENT FILL-ORIGIN LEVEL: 0

PSCL4 TOTAL     ACCESS:    1030972  HIT:    1030849  MISS:        123  HIT %:    99.9881  MISS %:  0.0119305   MPKI: 0.000615
PSCL4 LOAD TRANSLATION ACCESS:      31713  HIT:      31590  MISS:        123  HIT %:    99.6121  MISS %:   0.387854   MPKI: 0.000615
PSCL4 TRANSLATION FROM L1D PREFETCHER ACCESS:     999259  HIT:     999259  MISS:          0  HIT %:        100  MISS %:          0   MPKI: 0
PSCL4 PREFETCH  REQUESTED:          0  ISSUED:          0  USEFUL:          0  USELESS:          0
PSCL4 USEFUL LOAD PREFETCHES:          0 PREFETCH ISSUED TO LOWER LEVEL:          0  ACCURACY: -nan
PSCL4 TIMELY PREFETCHES:          0 LATE PREFETCHES: 0 DROPPED PREFETCHES: 0
PSCL4 PREFETCHES SAME FILL-ORIGIN LEVEL: 0 DIFFERENT FILL-ORIGIN LEVEL: 0

PSCL3 TOTAL     ACCESS:    1270724  HIT:    1270601  MISS:        123  HIT %:    99.9903  MISS %: 0.00967952   MPKI: 0.000615
PSCL3 LOAD TRANSLATION ACCESS:      33636  HIT:      33513  MISS:        123  HIT %:    99.6343  MISS %:    0.36568   MPKI: 0.000615
PSCL3 TRANSLATION FROM L1D PREFETCHER ACCESS:    1237088  HIT:    1237088  MISS:          0  HIT %:        100  MISS %:          0   MPKI: 0
PSCL3 PREFETCH  REQUESTED:          0  ISSUED:          0  USEFUL:          0  USELESS:          0
PSCL3 USEFUL LOAD PREFETCHES:          0 PREFETCH ISSUED TO LOWER LEVEL:          0  ACCURACY: -nan
PSCL3 TIMELY PREFETCHES:          0 LATE PREFETCHES: 0 DROPPED PREFETCHES: 0
PSCL3 PREFETCHES SAME FILL-ORIGIN LEVEL: 0 DIFFERENT FILL-ORIGIN LEVEL: 0

PSCL2 TOTAL     ACCESS:     704220  HIT:     702680  MISS:       1540  HIT %:    99.7813  MISS %:   0.218682   MPKI: 0.0077
PSCL2 LOAD TRANSLATION ACCESS:      35368  HIT:      33828  MISS:       1540  HIT %:    95.6458  MISS %:    4.35422   MPKI: 0.0077
PSCL2 TRANSLATION FROM L1D PREFETCHER ACCESS:     668852  HIT:     668852  MISS:          0  HIT %:        100  MISS %:          0   MPKI: 0
PSCL2 PREFETCH  REQUESTED:          0  ISSUED:          0  USEFUL:          0  USELESS:          0
PSCL2 USEFUL LOAD PREFETCHES:          0 PREFETCH ISSUED TO LOWER LEVEL:          0  ACCURACY: -nan
PSCL2 TIMELY PREFETCHES:          0 LATE PREFETCHES: 0 DROPPED PREFETCHES: 0
PSCL2 PREFETCHES SAME FILL-ORIGIN LEVEL: 0 DIFFERENT FILL-ORIGIN LEVEL: 0

LLC TOTAL     ACCESS:    2330766  HIT:    2310169  MISS:      20597  HIT %:    99.1163  MISS %:   0.883701   MPKI: 0.102985
LLC LOAD      ACCESS:    1530031  HIT:    1519700  MISS:      10331  HIT %:    99.3248  MISS %:   0.675215   MPKI: 0.051655
LLC RFO       ACCESS:     113525  HIT:     111035  MISS:       2490  HIT %:    97.8067  MISS %:    2.19335   MPKI: 0.01245
LLC PREFETCH  ACCESS:     505796  HIT:     498187  MISS:       7609  HIT %:    98.4956  MISS %:    1.50436   MPKI: 0.038045
AGUS PREFETCH L1 MISS: 0
LLC WRITEBACK ACCESS:     152425  HIT:     152379  MISS:         46  HIT %:    99.9698  MISS %:  0.0301788   MPKI: 0.00023
LLC LOAD TRANSLATION ACCESS:       7491  HIT:       7424  MISS:         67  HIT %:    99.1056  MISS %:   0.894407   MPKI: 0.000335
LLC TRANSLATION FROM L1D PREFETCHER ACCESS:      21498  HIT:      21444  MISS:         54  HIT %:    99.7488  MISS %:   0.251186   MPKI: 0.00027
LLC PREFETCH  REQUESTED:          0  ISSUED:          0  USEFUL:        113  USELESS:       6915
LLC USEFUL LOAD PREFETCHES:        113 PREFETCH ISSUED TO LOWER LEVEL:       7609  ACCURACY: 1.48508
LLC TIMELY PREFETCHES:        113 LATE PREFETCHES: 0 DROPPED PREFETCHES: 0
LLC PREFETCHES SAME FILL-ORIGIN LEVEL: 0 DIFFERENT FILL-ORIGIN LEVEL: 0
LLC AVERAGE MISS LATENCY: 143.021 cycles
LLC RQ	ACCESS:    1672546	FORWARD:          0	MERGED:          0	TO_CACHE:    1672546
LLC WQ	ACCESS:     152425	FORWARD:          0	MERGED:          0	TO_CACHE:     152425
LLC PQ	ACCESS:     505796	FORWARD:          0	MERGED:          0	TO_CACHE:     505796

LLC Dense regions hint to LLC: 0

RAW hits: 1445933
Loads Generated: 47984530
Loads sent to L1D: 46538596
Stores Generated: 26687090
Stores sent to L1D: 26687093
Major fault: 0 Minor fault: 1956
Allocated PAGES: 1956
CPU 0 L1D 
Prefetch count 2969178 BOP and RL 

DRAM Statistics
 CHANNEL 0
 RQ ROW_BUFFER_HIT:       6555  ROW_BUFFER_MISS:      13993
 DBUS_CONGESTED:         16
 WQ ROW_BUFFER_HIT:        246  ROW_BUFFER_MISS:       2682  FULL:          0

 AVG_CONGESTED_CYCLE: 5
 All warmup complete: 2
Channel 0 Bank busy for read cycles: 0
Channel 0 Bank busy for write cycles: 0
Channel 0
Rank 0
0banks busy for read cycles: 667366710
0banks busy for write cycles: 1825
1banks busy for read cycles: 1067448
1banks busy for write cycles: 242480
2banks busy for read cycles: 248588
2banks busy for write cycles: 48278
3banks busy for read cycles: 91915
3banks busy for write cycles: 17342
4banks busy for read cycles: 54171
4banks busy for write cycles: 12242
5banks busy for read cycles: 33754
5banks busy for write cycles: 5365
6banks busy for read cycles: 18318
6banks busy for write cycles: 3770
7banks busy for read cycles: 9112
7banks busy for write cycles: 826
8banks busy for read cycles: 3416
8banks busy for write cycles: 926

CPU 0 Branch Prediction Accuracy: 99.8837% MPKI: 0.20904 Average ROB Occupancy at Mispredict: 30.706
Branch types
NOT_BRANCH: 164064582 82.0323%
BRANCH_DIRECT_JUMP: 1874465 0.937233%
BRANCH_INDIRECT: 12070935 6.03547%
BRANCH_CONDITIONAL: 12755092 6.37755%
BRANCH_DIRECT_CALL: 3894489 1.94724%
BRANCH_INDIRECT_CALL: 722993 0.361496%
BRANCH_RETURN: 4617440 2.30872%
BRANCH_OTHER: 0 0%

DRAM PAGES: 1048576
Allocated PAGES: 1956
