
*** ChampSim Multicore Out-of-Order Simulator ***

Warmup Instructions: 50000000
Simulation Instructions: 200000000
Number of CPUs: 1
LLC sets: 2048
LLC ways: 16
Off-chip DRAM Size: 4096 MB Channels: 1 Width: 64-bit Data Rate: 6400 MT/s
CPU 0 runs traces/spec2k17/srv_13.champsimtrace.xz
.xz
BTB has LRU replacement policy
ITLB has LRU replacement policy
DTLB has LRU replacement policy
STLB has LRU replacement policy
L1I has LRU replacement policy
CPU 0 l1d next line prefetcher
L1D has LRU replacement policy
Initialize SRRIP state for L2C
Initialize DRRIP state for LLC
Offsets elements: 
Potential of Offsets elements: 
rewards of Offsets elements: 
Printing Sanity1
offset list size1564
Heartbeat CPU 0 instructions: 10000002 cycles: 2807126 heartbeat IPC: 3.56236 cumulative IPC: 3.56236 (Simulation time: 0 hr 0 min 34 sec) 
Heartbeat CPU 0 instructions: 20000000 cycles: 5611176 heartbeat IPC: 3.56627 cumulative IPC: 3.56432 (Simulation time: 0 hr 1 min 10 sec) 
Heartbeat CPU 0 instructions: 30000003 cycles: 8417597 heartbeat IPC: 3.56326 cumulative IPC: 3.56396 (Simulation time: 0 hr 1 min 45 sec) 
*** Reached end of trace for Core: 0 Repeating trace: traces/spec2k17/srv_13.champsimtrace.xz
Heartbeat CPU 0 instructions: 40000001 cycles: 11215920 heartbeat IPC: 3.57357 cumulative IPC: 3.56636 (Simulation time: 0 hr 2 min 22 sec) 
Heartbeat CPU 0 instructions: 50000003 cycles: 14020951 heartbeat IPC: 3.56502 cumulative IPC: 3.56609 (Simulation time: 0 hr 3 min 1 sec) 

Warmup complete CPU 0 instructions: 50000003 cycles: 14020951 (Simulation time: 0 hr 3 min 1 sec) 

Offsets elements: 
Potential of Offsets elements: 
rewards of Offsets elements: 0 0 0 0 0 0 0 0 0 1 0 0 246 0 0 0 0 0 0 0 0 0 1 7 2 0 0 0 0 2 0 0 0 0 1 3 0 0 0 0 0 0 1 0 0 0 0 0 138 0 0 0 0 0 0 0 0 0 1 0 33 5 106 0 3 1 0 0 0 0 0 43 0 0 0 1 1 0 1 0 0 0 0 0 0 14 0 0 0 4 0 270 1 0 0 0 0 0 0 0 0 7 0 8 2 0 0 3 0 7 279 2 95 1 0 1 0 2 0 0 0 0 0 0 0 0 47 300 44 3 2 0 0 0 0 0 0 0 0 0 1 0 3 2 2 201 0 0 247 0 0 138 0 1 6 3 0 3 0 0 1 0 0 2 5 0 0 0 0 0 0 1 0 1 0 0 3 0 0 0 0 0 276 0 2 0 0 1 2 0 0 0 4 0 0 570 244 97 0 1 0 0 1 0 0 33 0 0 2 0 3 2 0 0 0 0 0 26 1 0 0 0 0 0 3 10 0 0 0 98 1 0 4 0 0 0 0 1 1 0 70 0 0 0 0 2 0 0 6 1 1 0 0 0 0 0 1 0 0 0 0 0 2 6 0 1 0 0 7 1 2 4 1 14 68 2 0 0 0 0 0 1 4 0 0 0 0 0 0 0 0 1 0 0 0 1 0 1 3 0 0 1 0 0 0 0 0 2 1 0 0 208 0 1 0 1 0 0 1 0 3 0 1 0 0 1 1 4 42 268 0 0 18 18 258 55 0 0 0 2 0 0 0 1 6 1 0 2 0 0 0 0 0 0 0 0 0 0 68 0 34 0 0 0 0 3 0 0 0 0 19 5 0 1 1 0 0 0 0 3 0 0 0 1 1 0 0 0 0 0 6 0 0 1 1 0 3 1 0 0 0 263 0 2 0 4 0 0 0 3 1 0 0 1 0 1 1 0 1 0 0 0 0 0 0 0 0 0 0 0 0 2 0 3 2 0 0 1 0 117 1 2 0 1 0 0 0 0 0 0 0 0 0 2 0 0 0 0 0 0 0 0 0 1 104 0 0 1 0 4 0 1 0 0 1 2 0 0 3 0 0 2 0 0 0 0 0 0 0 0 1 0 0 0 0 0 0 1 4 0 1 0 1 4 0 0 0 3 1 1 0 2 1 0 2 3 2 0 0 0 45 189 6 0 2 3 0 1 0 0 0 4 0 0 0 1 0 0 0 0 0 0 1 0 0 0 3 0 0 0 0 0 2 0 2 4 0 0 0 0 0 0 0 0 0 2 0 5 0 0 0 1 0 1 0 1 0 3 2 0 0 4 1 0 0 0 0 0 1 0 0 0 0 0 0 0 0 0 3 0 0 0 0 0 4 0 0 0 0 0 0 0 0 0 0 0 0 0 0 0 0 0 1 0 0 0 0 0 0 0 0 0 1 0 0 0 0 0 0 0 0 1 0 0 5 2 1 0 0 0 0 0 0 0 0 0 0 0 0 0 0 0 0 2 1 0 0 0 0 0 0 0 0 0 0 0 0 6 0 0 0 0 0 0 0 0 0 0 10 0 0 2 1 0 1 0 0 0 0 0 0 0 1 1 0 4 0 0 0 0 0 0 0 0 0 1 0 0 0 0 0 0 1 0 0 0 0 0 2 80 2 5 0 0 0 0 0 2 0 0 0 0 3 0 2 0 0 0 0 0 1 4 0 2 0 1 0 1 1 0 1 0 1 0 0 0 0 1 0 0 0 1 0 0 0 30 0 0 0 0 5 3 1 0 0 0 0 0 0 5 1 1 1 1 3 0 0 2 4 4 1 1 2 2 0 1 0 0 0 0 0 0 1 0 1 0 0 1 1 2 0 1 0 0 0 0 0 3 0 0 0 0 0 2 0 0 5 3 0 0 0 0 0 0 0 0 0 0 2 19 0 0 2 1 0 0 1 2 0 3 5 1 1 1 0 0 0 0 2 3 0 0 0 0 1 1 0 0 64 0 0 0 0 0 0 0 0 0 0 0 1 2 0 1 6 0 0 0 2 5 1 0 0 0 0 1 0 0 0 0 0 5 0 0 0 4 1 0 0 0 0 0 0 0 0 0 0 0 0 0 92 0 0 0 0 1 1 0 0 0 0 0 0 3 3 2 0 0 0 0 0 1 0 0 0 0 3 0 0 0 0 0 0 17 0 0 0 0 2 0 1 1 2 3 4 0 1 1 0 0 1 2 0 0 15 0 0 3 0 0 0 0 0 0 0 0 0 3 0 0 1 0 0 0 1 0 1 2 0 1 0 0 1 0 0 0 0 0 0 0 3 5 2 0 0 0 0 0 2 0 0 0 0 1 0 0 0 1 0 0 0 0 0 0 2 0 2 8 1 239 2 0 0 0 0 0 0 0 0 0 0 0 0 0 76 39 0 0 1 0 1 0 0 0 0 0 0 0 0 0 1 2 0 0 0 0 0 0 0 0 0 0 0 0 2 0 0 6 0 0 0 2 0 1 219 0 0 0 0 1 3 0 0 0 1 1 0 1 0 0 0 0 2 0 0 2 1 0 0 0 0 0 0 0 0 0 0 3 0 0 187 0 0 0 1 0 4 0 0 0 0 1 0 2 0 0 0 0 20 0 2 0 0 0 2 0 1 1 0 0 0 0 4 2 0 2 2 2 0 0 2 0 0 0 0 0 0 42 212 0 0 0 0 2 0 1 0 0 7 0 0 2 0 1 2 1 1 1 132 3 0 0 0 0 0 0 2 0 2 0 1 2 0 0 0 0 0 0 1 0 3 1 1 1 0 0 0 2 0 37 0 0 0 47 0 1 0 2 0 3 0 0 1 0 0 0 0 0 0 0 0 0 0 0 0 0 2 0 0 0 0 0 1 1 1 1 0 1 0 1 1 0 0 0 4 1 0 0 0 3 0 2 0 0 0 3 0 0 0 0 0 0 6 4 0 0 0 1 0 1 6 0 0 0 1 0 0 0 0 0 0 0 1 0 0 0 0 0 0 0 0 0 3 0 0 0 0 0 0 0 0 0 0 0 0 0 0 0 0 0 0 0 0 1 1 0 1 0 0 0 0 0 0 0 0 0 1 1 2 0 0 1 0 1 1 0 1 0 0 0 0 0 1 0 0 0 1 1 0 0 0 0 1 0 0 0 0 0 0 0 0 2 0 0 0 0 0 4 1 0 3 0 0 0 200 0 0 0 0 0 0 0 0 0 0 0 0 2 0 1 2 0 0 0 1 0 0 0 0 0 0 0 0 1 0 2 0 0 0 0 0 0 1 2 3 0 0 0 0 0 1 0 0 0 0 0 0 0 0 0 0 0 0 0 0 0 0 0 1 0 0 0 0 0 1 0 0 0 2 0 0 1 0 0 4 0 0 0 4 0 1 3 0 0 0 0 0 118 0 0 0 0 6 0 0 0 0 0 0 0 0 0 0 1 0 1 0 0 0 0 0 0 0 0 0 0 0 0 0 0 4 0 2 0 0 0 0 0 2 0 0 0 0 0 0 0 47 0 0 0 0 7 0 0 
Printing Sanity2
Heartbeat CPU 0 instructions: 60000000 cycles: 44405006 heartbeat IPC: 0.32912 cumulative IPC: 0.32912 (Simulation time: 0 hr 3 min 57 sec) 
*** Reached end of trace for Core: 0 Repeating trace: traces/spec2k17/srv_13.champsimtrace.xz
Heartbeat CPU 0 instructions: 70000001 cycles: 73999624 heartbeat IPC: 0.337899 cumulative IPC: 0.333452 (Simulation time: 0 hr 4 min 54 sec) 
Heartbeat CPU 0 instructions: 80000003 cycles: 104463598 heartbeat IPC: 0.328257 cumulative IPC: 0.331702 (Simulation time: 0 hr 5 min 54 sec) 
Heartbeat CPU 0 instructions: 90000001 cycles: 135395554 heartbeat IPC: 0.32329 cumulative IPC: 0.329558 (Simulation time: 0 hr 6 min 53 sec) 
*** Reached end of trace for Core: 0 Repeating trace: traces/spec2k17/srv_13.champsimtrace.xz
Heartbeat CPU 0 instructions: 100000000 cycles: 165237628 heartbeat IPC: 0.335097 cumulative IPC: 0.330651 (Simulation time: 0 hr 7 min 53 sec) 
Heartbeat CPU 0 instructions: 110000000 cycles: 195359616 heartbeat IPC: 0.331983 cumulative IPC: 0.330873 (Simulation time: 0 hr 8 min 50 sec) 
Heartbeat CPU 0 instructions: 120000002 cycles: 226335675 heartbeat IPC: 0.32283 cumulative IPC: 0.329699 (Simulation time: 0 hr 9 min 52 sec) 
*** Reached end of trace for Core: 0 Repeating trace: traces/spec2k17/srv_13.champsimtrace.xz
Heartbeat CPU 0 instructions: 130000001 cycles: 256053802 heartbeat IPC: 0.336495 cumulative IPC: 0.330534 (Simulation time: 0 hr 10 min 50 sec) 
Heartbeat CPU 0 instructions: 140000002 cycles: 286357143 heartbeat IPC: 0.329997 cumulative IPC: 0.330474 (Simulation time: 0 hr 11 min 47 sec) 
Heartbeat CPU 0 instructions: 150000002 cycles: 317136686 heartbeat IPC: 0.324891 cumulative IPC: 0.329907 (Simulation time: 0 hr 12 min 42 sec) 
*** Reached end of trace for Core: 0 Repeating trace: traces/spec2k17/srv_13.champsimtrace.xz
Heartbeat CPU 0 instructions: 160000002 cycles: 346843969 heartbeat IPC: 0.336618 cumulative IPC: 0.330506 (Simulation time: 0 hr 13 min 41 sec) 
Heartbeat CPU 0 instructions: 170000000 cycles: 377238920 heartbeat IPC: 0.329002 cumulative IPC: 0.33038 (Simulation time: 0 hr 14 min 40 sec) 
Heartbeat CPU 0 instructions: 180000003 cycles: 407966520 heartbeat IPC: 0.32544 cumulative IPC: 0.329995 (Simulation time: 0 hr 15 min 39 sec) 
*** Reached end of trace for Core: 0 Repeating trace: traces/spec2k17/srv_13.champsimtrace.xz
Heartbeat CPU 0 instructions: 190000000 cycles: 437823546 heartbeat IPC: 0.334929 cumulative IPC: 0.330342 (Simulation time: 0 hr 16 min 38 sec) 
Heartbeat CPU 0 instructions: 200000001 cycles: 468115895 heartbeat IPC: 0.330116 cumulative IPC: 0.330327 (Simulation time: 0 hr 17 min 36 sec) 
Heartbeat CPU 0 instructions: 210000001 cycles: 498577635 heartbeat IPC: 0.328281 cumulative IPC: 0.330199 (Simulation time: 0 hr 18 min 33 sec) 
*** Reached end of trace for Core: 0 Repeating trace: traces/spec2k17/srv_13.champsimtrace.xz
Heartbeat CPU 0 instructions: 220000000 cycles: 528685815 heartbeat IPC: 0.332136 cumulative IPC: 0.330312 (Simulation time: 0 hr 19 min 29 sec) 
Heartbeat CPU 0 instructions: 230000001 cycles: 558823852 heartbeat IPC: 0.331807 cumulative IPC: 0.330395 (Simulation time: 0 hr 20 min 25 sec) 
Heartbeat CPU 0 instructions: 240000000 cycles: 589313224 heartbeat IPC: 0.327983 cumulative IPC: 0.330267 (Simulation time: 0 hr 21 min 22 sec) 
*** Reached end of trace for Core: 0 Repeating trace: traces/spec2k17/srv_13.champsimtrace.xz
Heartbeat CPU 0 instructions: 250000000 cycles: 619791977 heartbeat IPC: 0.328097 cumulative IPC: 0.330158 (Simulation time: 0 hr 22 min 18 sec) 
Finished CPU 0 instructions: 200000003 cycles: 605771061 cumulative IPC: 0.330158 (Simulation time: 0 hr 22 min 18 sec) 

ChampSim completed all CPUs

Region of Interest Statistics

CPU 0 cumulative IPC: 0.330158 instructions: 200000003 cycles: 605771061
ITLB TOTAL     ACCESS:   34436407  HIT:   32598282  MISS:    1838125  HIT %:    94.6623  MISS %:    5.33774   MPKI: 9.19062
ITLB LOAD TRANSLATION ACCESS:   34436407  HIT:   32598282  MISS:    1838125  HIT %:    94.6623  MISS %:    5.33774   MPKI: 9.19062
ITLB PREFETCH  REQUESTED:          0  ISSUED:          0  USEFUL:          0  USELESS:          0
ITLB USEFUL LOAD PREFETCHES:          0 PREFETCH ISSUED TO LOWER LEVEL:          0  ACCURACY: -nan
ITLB TIMELY PREFETCHES:          0 LATE PREFETCHES: 0 DROPPED PREFETCHES: 0
ITLB PREFETCHES SAME FILL-ORIGIN LEVEL: 0 DIFFERENT FILL-ORIGIN LEVEL: 0
ITLB AVERAGE MISS LATENCY: 9.04362 cycles
ITLB RQ	ACCESS:   40238239	FORWARD:          0	MERGED:    5359145	TO_CACHE:   34879094

DTLB TOTAL     ACCESS:   45327314  HIT:   43533681  MISS:    1793633  HIT %:    96.0429  MISS %:    3.95707   MPKI: 8.96816
DTLB LOAD TRANSLATION ACCESS:   45327314  HIT:   43533681  MISS:    1793633  HIT %:    96.0429  MISS %:    3.95707   MPKI: 8.96816
DTLB PREFETCH  REQUESTED:          0  ISSUED:          0  USEFUL:          0  USELESS:          0
DTLB USEFUL LOAD PREFETCHES:          0 PREFETCH ISSUED TO LOWER LEVEL:          0  ACCURACY: -nan
DTLB TIMELY PREFETCHES:          0 LATE PREFETCHES: 0 DROPPED PREFETCHES: 0
DTLB PREFETCHES SAME FILL-ORIGIN LEVEL: 0 DIFFERENT FILL-ORIGIN LEVEL: 0
DTLB AVERAGE MISS LATENCY: 9.19813 cycles
DTLB RQ	ACCESS:   59719555	FORWARD:          0	MERGED:   14327511	TO_CACHE:   45392044

STLB TOTAL     ACCESS:    6084430  HIT:    6074792  MISS:       9638  HIT %:    99.8416  MISS %:   0.158404   MPKI: 0.04819
STLB LOAD TRANSLATION ACCESS:    3631758  HIT:    3622807  MISS:       8951  HIT %:    99.7535  MISS %:   0.246465   MPKI: 0.044755
STLB TRANSLATION FROM L1D PREFETCHER ACCESS:    2452672  HIT:    2451985  MISS:        687  HIT %:     99.972  MISS %:  0.0280103   MPKI: 0.003435
STLB PREFETCH  REQUESTED:          0  ISSUED:          0  USEFUL:        623  USELESS:         63
STLB USEFUL LOAD PREFETCHES:        623 PREFETCH ISSUED TO LOWER LEVEL:          0  ACCURACY: inf
STLB TIMELY PREFETCHES:        623 LATE PREFETCHES: 15 DROPPED PREFETCHES: 22519
STLB PREFETCHES SAME FILL-ORIGIN LEVEL: 0 DIFFERENT FILL-ORIGIN LEVEL: 0
STLB AVERAGE MISS LATENCY: 80118.4 cycles
STLB RQ	ACCESS:    6289654	FORWARD:          0	MERGED:     179686	TO_CACHE:    6109968

STLB Hit, L1D data hit: 0
STLB Hit, L2C data hit: 0
STLB Hit, LLC data hit: 0
STLB Hit, LLC data miss: 0
STLB STLB hints to L2: 0
L1D TOTAL     ACCESS:   60379617  HIT:   54313791  MISS:    6065826  HIT %:    89.9539  MISS %:    10.0461   MPKI: 30.3291
L1D LOAD      ACCESS:   33461825  HIT:   30764892  MISS:    2696933  HIT %:    91.9403  MISS %:    8.05973   MPKI: 13.4847
L1D RFO       ACCESS:   24400579  HIT:   23289353  MISS:    1111226  HIT %:    95.4459  MISS %:     4.5541   MPKI: 5.55613
L1D PREFETCH  ACCESS:    2517213  HIT:     259546  MISS:    2257667  HIT %:    10.3108  MISS %:    89.6892   MPKI: 11.2883
AGUS PREFETCH L1 MISS: 0
L1D PREFETCH  REQUESTED:    5372269  ISSUED:    5372269  USEFUL:     402429  USELESS:    1855048
L1D USEFUL LOAD PREFETCHES:     402429 PREFETCH ISSUED TO LOWER LEVEL:    2318358  ACCURACY: 17.3584
L1D TIMELY PREFETCHES:     402429 LATE PREFETCHES: 59378 DROPPED PREFETCHES: 26724
L1D PREFETCHES SAME FILL-ORIGIN LEVEL: 2318358 DIFFERENT FILL-ORIGIN LEVEL: 0
L1D AVERAGE MISS LATENCY: 3.27063e+06 cycles
L1D RQ	ACCESS:   46944151	FORWARD:          0	MERGED:   13065788	TO_CACHE:   33583874
L1D WQ	ACCESS:   26311887	FORWARD:     294489	MERGED:     176206	TO_CACHE:   26135681
L1D PQ	ACCESS:    2714373	FORWARD:          0	MERGED:      56477	TO_CACHE:    2657896

L1D UNIQUE REGIONS ACCESSED: 0
L1D REGIONS CONFLICTS: 0
L1D Cross Page Prefetch Requests: 2714373
L1D Same Page Prefetch Requests: 0
L1D ROI Sum of L1D PQ occupancy: 35244512
L1D PREFETCHES PUSHED FROM L2C: 0
L1I TOTAL     ACCESS:   38821146  HIT:   29180307  MISS:    9640839  HIT %:     75.166  MISS %:     24.834   MPKI: 48.2042
L1I LOAD      ACCESS:   38821146  HIT:   29180307  MISS:    9640839  HIT %:     75.166  MISS %:     24.834   MPKI: 48.2042
L1I PREFETCH  REQUESTED:          0  ISSUED:          0  USEFUL:          0  USELESS:          0
L1I USEFUL LOAD PREFETCHES:          0 PREFETCH ISSUED TO LOWER LEVEL:          0  ACCURACY: -nan
L1I TIMELY PREFETCHES:          0 LATE PREFETCHES: 0 DROPPED PREFETCHES: 0
L1I PREFETCHES SAME FILL-ORIGIN LEVEL: 0 DIFFERENT FILL-ORIGIN LEVEL: 0
L1I AVERAGE MISS LATENCY: 17.7198 cycles
L1I RQ	ACCESS:   57803969	FORWARD:          0	MERGED:   17565730	TO_CACHE:   40238239

BTB TOTAL     ACCESS:   30281760  HIT:   18910009  MISS:   11371751  HIT %:    62.4469  MISS %:    37.5531   MPKI: 56.8588
BTB BRANCH_DIRECT_JUMP	ACCESS:    2184471  HIT:    1385849  MISS:     798622
BTB BRANCH_INDIRECT	ACCESS:   11367631  HIT:    7108083  MISS:    4259548
BTB BRANCH_CONDITIONAL	ACCESS:    8713184  HIT:    7563917  MISS:    1149267
BTB BRANCH_DIRECT_CALL	ACCESS:    3386061  HIT:    1522950  MISS:    1863111
BTB BRANCH_INDIRECT_CALL	ACCESS:     622186  HIT:     244573  MISS:     377613
BTB BRANCH_RETURN	ACCESS:    4008227  HIT:    1084637  MISS:    2923590
BTB BRANCH_OTHER ACCESS:          0  HIT:          0  MISS:          0

L2C TOTAL     ACCESS:   17747616  HIT:   15408133  MISS:    2339483  HIT %:     86.818  MISS %:     13.182   MPKI: 11.6974
L2C LOAD      ACCESS:   12278284  HIT:   10708121  MISS:    1570163  HIT %:    87.2119  MISS %:    12.7881   MPKI: 7.85081
L2C DATA LOAD MPKI: 2.01863
L2C INSTRUCTION LOAD MPKI: 5.83218
L2C RFO       ACCESS:    1109913  HIT:     849735  MISS:     260178  HIT %:    76.5587  MISS %:    23.4413   MPKI: 1.30089
L2C PREFETCH  ACCESS:    2318358  HIT:    1867508  MISS:     450850  HIT %:     80.553  MISS %:     19.447   MPKI: 2.25425
AGUS PREFETCH L1 MISS: 0
L2C DATA PREFETCH MPKI: 2.25425
L2C INSTRUCTION PREFETCH MPKI: 0
L2C WRITEBACK ACCESS:    1997610  HIT:    1952497  MISS:      45113  HIT %:    97.7417  MISS %:    2.25835   MPKI: 0.225565
L2C LOAD TRANSLATION ACCESS:       9757  HIT:       2807  MISS:       6950  HIT %:    28.7691  MISS %:    71.2309   MPKI: 0.03475
L2C TRANSLATION FROM L1D PREFETCHER ACCESS:      33694  HIT:      27465  MISS:       6229  HIT %:     81.513  MISS %:     18.487   MPKI: 0.031145
L2C PREFETCH  REQUESTED:          0  ISSUED:          0  USEFUL:      21846  USELESS:     434037
L2C USEFUL LOAD PREFETCHES:      21846 PREFETCH ISSUED TO LOWER LEVEL:     450850  ACCURACY: 4.84551
L2C TIMELY PREFETCHES:      21846 LATE PREFETCHES: 0 DROPPED PREFETCHES: 0
L2C PREFETCHES SAME FILL-ORIGIN LEVEL: 0 DIFFERENT FILL-ORIGIN LEVEL: 0
L2C AVERAGE MISS LATENCY: 33.4563 cycles
L2C RQ	ACCESS:   13431760	FORWARD:          0	MERGED:          0	TO_CACHE:   13431650
L2C WQ	ACCESS:    1997610	FORWARD:        110	MERGED:          0	TO_CACHE:    1997610
L2C PQ	ACCESS:    2318358	FORWARD:          0	MERGED:          0	TO_CACHE:    2318358

L2C Instructions Evicting Data 529816
L2C Translations Evicting Data 8146
L2C Data Evicting Data 600268
L2C Instructions Evicting Instructions 631903
L2C Translations Evicting Instructions 4933
L2C Data Evicting Instructions 506262
L2C Instructions Evicting Translations 4718
L2C Translations Evicting Translations 100
L2C Data Evicting Translations 8224
L2C Dense regions hint from L2: 0
PSCL5 TOTAL     ACCESS:      32157  HIT:      32157  MISS:          0  HIT %:        100  MISS %:          0   MPKI: 0
PSCL5 LOAD TRANSLATION ACCESS:       8936  HIT:       8936  MISS:          0  HIT %:        100  MISS %:          0   MPKI: 0
PSCL5 TRANSLATION FROM L1D PREFETCHER ACCESS:      23221  HIT:      23221  MISS:          0  HIT %:        100  MISS %:          0   MPKI: 0
PSCL5 PREFETCH  REQUESTED:          0  ISSUED:          0  USEFUL:          0  USELESS:          0
PSCL5 USEFUL LOAD PREFETCHES:          0 PREFETCH ISSUED TO LOWER LEVEL:          0  ACCURACY: -nan
PSCL5 TIMELY PREFETCHES:          0 LATE PREFETCHES: 0 DROPPED PREFETCHES: 0
PSCL5 PREFETCHES SAME FILL-ORIGIN LEVEL: 0 DIFFERENT FILL-ORIGIN LEVEL: 0

PSCL4 TOTAL     ACCESS:      27114  HIT:      27084  MISS:         30  HIT %:    99.8894  MISS %:   0.110644   MPKI: 0.00015
PSCL4 LOAD TRANSLATION ACCESS:       8238  HIT:       8208  MISS:         30  HIT %:    99.6358  MISS %:   0.364166   MPKI: 0.00015
PSCL4 TRANSLATION FROM L1D PREFETCHER ACCESS:      18876  HIT:      18876  MISS:          0  HIT %:        100  MISS %:          0   MPKI: 0
PSCL4 PREFETCH  REQUESTED:          0  ISSUED:          0  USEFUL:          0  USELESS:          0
PSCL4 USEFUL LOAD PREFETCHES:          0 PREFETCH ISSUED TO LOWER LEVEL:          0  ACCURACY: -nan
PSCL4 TIMELY PREFETCHES:          0 LATE PREFETCHES: 0 DROPPED PREFETCHES: 0
PSCL4 PREFETCHES SAME FILL-ORIGIN LEVEL: 0 DIFFERENT FILL-ORIGIN LEVEL: 0

PSCL3 TOTAL     ACCESS:      30459  HIT:      30429  MISS:         30  HIT %:    99.9015  MISS %:  0.0984931   MPKI: 0.00015
PSCL3 LOAD TRANSLATION ACCESS:       8625  HIT:       8595  MISS:         30  HIT %:    99.6522  MISS %:   0.347826   MPKI: 0.00015
PSCL3 TRANSLATION FROM L1D PREFETCHER ACCESS:      21834  HIT:      21834  MISS:          0  HIT %:        100  MISS %:          0   MPKI: 0
PSCL3 PREFETCH  REQUESTED:          0  ISSUED:          0  USEFUL:          0  USELESS:          0
PSCL3 USEFUL LOAD PREFETCHES:          0 PREFETCH ISSUED TO LOWER LEVEL:          0  ACCURACY: -nan
PSCL3 TIMELY PREFETCHES:          0 LATE PREFETCHES: 0 DROPPED PREFETCHES: 0
PSCL3 PREFETCHES SAME FILL-ORIGIN LEVEL: 0 DIFFERENT FILL-ORIGIN LEVEL: 0

PSCL2 TOTAL     ACCESS:      23447  HIT:      22663  MISS:        784  HIT %:    96.6563  MISS %:    3.34371   MPKI: 0.00392
PSCL2 LOAD TRANSLATION ACCESS:       8959  HIT:       8175  MISS:        784  HIT %:     91.249  MISS %:    8.75098   MPKI: 0.00392
PSCL2 TRANSLATION FROM L1D PREFETCHER ACCESS:      14488  HIT:      14488  MISS:          0  HIT %:        100  MISS %:          0   MPKI: 0
PSCL2 PREFETCH  REQUESTED:          0  ISSUED:          0  USEFUL:          0  USELESS:          0
PSCL2 USEFUL LOAD PREFETCHES:          0 PREFETCH ISSUED TO LOWER LEVEL:          0  ACCURACY: -nan
PSCL2 TIMELY PREFETCHES:          0 LATE PREFETCHES: 0 DROPPED PREFETCHES: 0
PSCL2 PREFETCHES SAME FILL-ORIGIN LEVEL: 0 DIFFERENT FILL-ORIGIN LEVEL: 0

LLC TOTAL     ACCESS:    2661549  HIT:    2600517  MISS:      61032  HIT %:    97.7069  MISS %:     2.2931   MPKI: 0.30516
LLC LOAD      ACCESS:    1570162  HIT:    1556376  MISS:      13786  HIT %:     99.122  MISS %:   0.877999   MPKI: 0.06893
LLC RFO       ACCESS:     260177  HIT:     234614  MISS:      25563  HIT %:    90.1748  MISS %:    9.82523   MPKI: 0.127815
LLC PREFETCH  ACCESS:     450850  HIT:     429512  MISS:      21338  HIT %:    95.2672  MISS %:    4.73284   MPKI: 0.10669
AGUS PREFETCH L1 MISS: 0
LLC WRITEBACK ACCESS:     367181  HIT:     367017  MISS:        164  HIT %:    99.9553  MISS %:  0.0446646   MPKI: 0.00082
LLC LOAD TRANSLATION ACCESS:       6950  HIT:       6823  MISS:        127  HIT %:    98.1727  MISS %:    1.82734   MPKI: 0.000635
LLC TRANSLATION FROM L1D PREFETCHER ACCESS:       6229  HIT:       6175  MISS:         54  HIT %:    99.1331  MISS %:   0.866913   MPKI: 0.00027
LLC PREFETCH  REQUESTED:          0  ISSUED:          0  USEFUL:        882  USELESS:      15874
LLC USEFUL LOAD PREFETCHES:        882 PREFETCH ISSUED TO LOWER LEVEL:      21338  ACCURACY: 4.13347
LLC TIMELY PREFETCHES:        882 LATE PREFETCHES: 0 DROPPED PREFETCHES: 0
LLC PREFETCHES SAME FILL-ORIGIN LEVEL: 0 DIFFERENT FILL-ORIGIN LEVEL: 0
LLC AVERAGE MISS LATENCY: 154.634 cycles
LLC RQ	ACCESS:    1843520	FORWARD:          0	MERGED:          0	TO_CACHE:    1843518
LLC WQ	ACCESS:     367181	FORWARD:          2	MERGED:          0	TO_CACHE:     367181
LLC PQ	ACCESS:     450850	FORWARD:          0	MERGED:          0	TO_CACHE:     450850

LLC Dense regions hint to LLC: 0

RAW hits: 1398214
Loads Generated: 48342365
Loads sent to L1D: 46944151
Stores Generated: 26311868
Stores sent to L1D: 26311887
Major fault: 0 Minor fault: 1910
Allocated PAGES: 1910
CPU 0 L1D 
Prefetch count 2318358 BOP and RL 

DRAM Statistics
 CHANNEL 0
 RQ ROW_BUFFER_HIT:      18763  ROW_BUFFER_MISS:      42059
 DBUS_CONGESTED:         62
 WQ ROW_BUFFER_HIT:       3309  ROW_BUFFER_MISS:      27426  FULL:          0

 AVG_CONGESTED_CYCLE: 5
 All warmup complete: 2
Channel 0 Bank busy for read cycles: 0
Channel 0 Bank busy for write cycles: 0
Channel 0
Rank 0
0banks busy for read cycles: 600255359
0banks busy for write cycles: 9247
1banks busy for read cycles: 1868889
1banks busy for write cycles: 1071733
2banks busy for read cycles: 759651
2banks busy for write cycles: 313025
3banks busy for read cycles: 289492
3banks busy for write cycles: 160205
4banks busy for read cycles: 187536
4banks busy for write cycles: 105455
5banks busy for read cycles: 137678
5banks busy for write cycles: 90921
6banks busy for read cycles: 105317
6banks busy for write cycles: 64425
7banks busy for read cycles: 70221
7banks busy for write cycles: 67864
8banks busy for read cycles: 55992
8banks busy for write cycles: 158052

CPU 0 Branch Prediction Accuracy: 99.8429% MPKI: 0.27698 Average ROB Occupancy at Mispredict: 53.4655
Branch types
NOT_BRANCH: 164736751 82.3684%
BRANCH_DIRECT_JUMP: 2184471 1.09224%
BRANCH_INDIRECT: 11367631 5.68382%
BRANCH_CONDITIONAL: 13694607 6.8473%
BRANCH_DIRECT_CALL: 3386061 1.69303%
BRANCH_INDIRECT_CALL: 622186 0.311093%
BRANCH_RETURN: 4008227 2.00411%
BRANCH_OTHER: 0 0%

DRAM PAGES: 1048576
Allocated PAGES: 1910
