
*** ChampSim Multicore Out-of-Order Simulator ***

Warmup Instructions: 50000000
Simulation Instructions: 200000000
Number of CPUs: 1
LLC sets: 2048
LLC ways: 16
Off-chip DRAM Size: 4096 MB Channels: 1 Width: 64-bit Data Rate: 6400 MT/s
CPU 0 runs traces/spec2k17/srv_57.champsimtrace.xz
.xz
BTB has LRU replacement policy
ITLB has LRU replacement policy
DTLB has LRU replacement policy
STLB has LRU replacement policy
L1I has LRU replacement policy
CPU 0 l1d next line prefetcher
L1D has LRU replacement policy
Initialize SRRIP state for L2C
Initialize DRRIP state for LLC
Offsets elements: 
Potential of Offsets elements: 
rewards of Offsets elements: 
Printing Sanity1
offset list size1528
Heartbeat CPU 0 instructions: 10000001 cycles: 2832380 heartbeat IPC: 3.5306 cumulative IPC: 3.5306 (Simulation time: 0 hr 0 min 38 sec) 
Heartbeat CPU 0 instructions: 20000001 cycles: 5623398 heartbeat IPC: 3.58292 cumulative IPC: 3.55657 (Simulation time: 0 hr 1 min 16 sec) 
Heartbeat CPU 0 instructions: 30000002 cycles: 8430299 heartbeat IPC: 3.56265 cumulative IPC: 3.55859 (Simulation time: 0 hr 1 min 58 sec) 
*** Reached end of trace for Core: 0 Repeating trace: traces/spec2k17/srv_57.champsimtrace.xz
Heartbeat CPU 0 instructions: 40000002 cycles: 11253090 heartbeat IPC: 3.54259 cumulative IPC: 3.55458 (Simulation time: 0 hr 2 min 42 sec) 
Heartbeat CPU 0 instructions: 50000002 cycles: 14034518 heartbeat IPC: 3.59528 cumulative IPC: 3.56264 (Simulation time: 0 hr 3 min 22 sec) 

Warmup complete CPU 0 instructions: 50000002 cycles: 14034518 (Simulation time: 0 hr 3 min 22 sec) 

Heartbeat CPU 0 instructions: 60000001 cycles: 30502254 heartbeat IPC: 0.607248 cumulative IPC: 0.607248 (Simulation time: 0 hr 4 min 14 sec) 
*** Reached end of trace for Core: 0 Repeating trace: traces/spec2k17/srv_57.champsimtrace.xz
Heartbeat CPU 0 instructions: 70000000 cycles: 46963190 heartbeat IPC: 0.607499 cumulative IPC: 0.607373 (Simulation time: 0 hr 5 min 5 sec) 
Heartbeat CPU 0 instructions: 80000001 cycles: 64072498 heartbeat IPC: 0.584477 cumulative IPC: 0.599545 (Simulation time: 0 hr 5 min 52 sec) 
Heartbeat CPU 0 instructions: 90000000 cycles: 80439072 heartbeat IPC: 0.611001 cumulative IPC: 0.602368 (Simulation time: 0 hr 6 min 46 sec) 
*** Reached end of trace for Core: 0 Repeating trace: traces/spec2k17/srv_57.champsimtrace.xz
Heartbeat CPU 0 instructions: 100000002 cycles: 96625713 heartbeat IPC: 0.617794 cumulative IPC: 0.605391 (Simulation time: 0 hr 7 min 35 sec) 
Heartbeat CPU 0 instructions: 110000000 cycles: 113793566 heartbeat IPC: 0.582484 cumulative IPC: 0.601449 (Simulation time: 0 hr 8 min 22 sec) 
Heartbeat CPU 0 instructions: 120000003 cycles: 130200854 heartbeat IPC: 0.609485 cumulative IPC: 0.602584 (Simulation time: 0 hr 9 min 15 sec) 
*** Reached end of trace for Core: 0 Repeating trace: traces/spec2k17/srv_57.champsimtrace.xz
Heartbeat CPU 0 instructions: 130000003 cycles: 146589439 heartbeat IPC: 0.610181 cumulative IPC: 0.603523 (Simulation time: 0 hr 10 min 9 sec) 
Heartbeat CPU 0 instructions: 140000000 cycles: 163507972 heartbeat IPC: 0.591068 cumulative IPC: 0.602114 (Simulation time: 0 hr 10 min 56 sec) 
Heartbeat CPU 0 instructions: 150000000 cycles: 179838555 heartbeat IPC: 0.612348 cumulative IPC: 0.603122 (Simulation time: 0 hr 11 min 47 sec) 
*** Reached end of trace for Core: 0 Repeating trace: traces/spec2k17/srv_57.champsimtrace.xz
Offsets elements: 
Potential of Offsets elements: 
rewards of Offsets elements: 0 0 0 0 0 0 0 0 0 0 0 0 0 461 0 0 37 0 0 3 0 0 1 0 0 0 0 6 1 0 0 0 0 0 0 0 0 0 0 0 0 0 0 261 0 0 0 1 0 0 261 0 0 0 0 0 0 0 0 5 0 0 0 0 0 40 0 0 0 0 109 0 0 0 0 0 6 0 0 0 0 0 0 0 0 163 7 4 6 8 0 0 0 0 0 0 51 0 42 45 0 0 0 104 71 72 157 0 0 332 0 0 0 0 0 0 277 16 0 0 0 0 7 11 0 90 0 0 47 66 0 7 30 349 19 3 0 0 14 0 0 0 7 0 51 32 0 0 0 0 304 0 0 0 0 5 0 0 3 15 47 19 2 10 0 0 0 0 0 0 0 4 0 0 162 2 0 0 0 0 242 0 0 0 0 0 0 5 0 5 91 0 0 0 0 0 0 0 0 9 32 0 200 5 1 0 0 0 0 0 0 0 0 0 0 0 0 0 58 5 3 166 6 0 0 5 0 0 0 0 58 0 0 0 0 0 0 39 38 0 0 0 0 0 0 0 0 0 4 0 0 0 1 0 18 0 0 0 5 63 0 0 0 0 0 0 0 7 13 60 0 0 1 3 0 0 0 0 0 0 0 0 0 42 61 1 6 17 47 170 15 12 0 0 7 14 1 0 0 10 21 0 1 0 0 0 0 3 0 0 28 11 21 0 0 0 0 0 1 7 0 0 0 0 0 0 0 3 2 0 2 0 2 0 1 12 5 4 7 0 67 10 0 0 0 0 2 0 0 0 0 0 0 1 0 0 0 0 1 0 0 0 206 0 0 0 0 24 6 19 0 0 3 0 0 0 0 0 0 0 0 0 0 0 0 0 0 0 3 0 10 1 0 0 5 18 20 0 0 0 0 0 0 0 0 3 0 13 11 0 0 0 0 1 5 0 0 0 0 0 0 14 0 0 0 0 0 0 0 0 0 0 0 0 0 0 0 0 0 0 0 0 0 54 0 0 3 0 0 6 0 0 0 0 0 0 0 4 0 0 3 0 69 36 0 19 29 0 0 0 0 0 0 0 0 0 0 0 0 0 4 0 446 4 0 0 0 0 0 0 3 0 0 0 18 0 0 0 0 0 0 0 0 0 0 319 4 4 0 1 2 1 0 0 0 0 0 0 0 0 0 0 0 5 0 0 39 0 28 0 0 0 0 17 0 37 4 0 0 0 0 13 0 0 0 0 4 0 26 0 0 0 0 1 0 0 0 0 0 0 0 0 0 0 0 0 34 0 0 0 0 0 0 0 0 0 0 0 0 0 0 0 0 0 0 0 55 0 0 0 12 0 14 0 44 0 0 0 0 0 0 46 0 0 82 0 0 0 9 11 0 60 0 0 0 0 0 0 0 86 0 0 0 12 0 0 0 0 0 1 0 0 2 0 0 0 0 0 0 0 0 0 0 0 0 0 0 0 0 0 0 0 0 0 1 0 0 0 10 0 0 0 0 0 0 0 0 0 0 0 0 0 0 3 13 0 0 45 32 0 247 0 0 0 0 3 0 0 0 0 0 0 0 0 0 5 0 2 1 0 13 14 10 0 0 0 0 0 0 0 3 0 0 0 0 0 0 0 175 2 3 22 13 0 0 0 0 0 1 8 0 0 0 0 0 0 0 0 23 0 0 0 240 43 0 0 0 6 0 0 0 0 0 0 0 0 0 0 0 0 0 0 0 0 0 0 0 0 0 0 0 0 1 0 0 0 0 0 8 1 0 0 0 0 6 0 0 0 0 0 0 0 0 0 0 0 0 0 2 5 0 0 0 0 0 0 0 0 0 0 0 0 0 0 0 6 2 0 0 0 0 0 0 0 0 0 0 0 0 0 0 0 0 0 0 0 0 0 187 0 0 0 0 5 29 95 15 0 0 0 0 0 0 16 0 0 0 8 0 0 0 0 0 0 0 0 0 0 0 1 0 0 25 0 1 0 0 0 0 0 0 0 0 0 0 0 0 0 0 0 0 14 0 1 0 7 0 0 3 0 0 0 0 28 0 0 0 0 0 0 0 0 0 0 6 0 0 0 0 103 22 0 0 0 0 0 0 0 0 0 0 0 0 0 0 0 0 0 0 0 0 0 0 0 0 1 0 0 0 2 0 0 0 51 0 0 0 0 0 0 0 0 0 0 0 0 0 0 0 0 0 0 0 0 0 0 0 0 0 0 0 0 0 0 0 0 6 0 0 0 7 0 0 0 0 0 0 0 0 0 0 0 0 0 0 0 1 0 18 0 18 0 2 2 0 0 0 0 0 0 0 23 0 0 0 0 0 0 0 0 0 22 0 0 0 0 0 0 0 0 0 0 0 0 0 0 0 0 0 0 0 0 0 0 0 0 0 0 0 0 0 0 0 0 0 0 0 0 24 0 1 1 95 0 0 1 0 0 3 0 0 0 0 0 49 0 0 0 0 2 0 0 0 0 0 0 0 8 0 0 0 0 0 10 0 0 0 0 0 0 0 0 0 2 0 0 0 0 0 0 0 0 0 0 0 0 0 0 0 0 0 104 12 1 0 0 0 0 0 0 0 0 0 0 0 0 0 0 9 0 0 78 193 0 0 0 0 0 0 0 0 0 0 0 0 0 0 0 0 0 17 0 0 0 0 0 0 0 0 0 0 13 0 0 0 0 0 0 21 0 0 0 0 0 0 3 16 0 26 17 0 0 0 0 0 0 0 0 0 0 0 0 0 0 0 0 0 0 0 91 0 0 0 0 0 13 89 0 0 0 32 0 0 0 0 0 0 0 0 0 0 0 0 0 0 0 0 0 0 0 0 0 0 0 0 0 0 0 0 0 0 0 0 0 0 0 0 0 0 0 0 0 0 0 0 0 0 0 0 0 0 1 0 0 0 0 0 0 5 0 0 0 0 0 1 0 3 0 0 0 0 134 13 0 0 30 10 0 0 19 0 0 0 0 0 0 0 0 0 0 0 0 0 0 0 0 16 0 23 0 0 0 0 0 0 0 0 0 0 0 0 0 0 0 0 0 0 0 0 0 0 0 0 3 0 0 0 0 0 0 0 0 0 14 17 0 0 0 0 0 0 0 10 0 0 0 0 0 16 0 0 0 0 0 16 0 0 0 0 0 0 0 0 0 0 0 0 0 0 1 0 0 0 0 0 0 0 0 0 0 0 0 0 0 0 35 9 0 0 0 0 0 0 0 0 0 0 0 0 0 0 0 0 0 0 0 0 0 0 0 0 0 0 0 0 0 0 0 0 0 0 0 0 0 0 0 0 0 0 0 0 0 9 0 14 0 0 0 0 0 0 0 0 0 0 0 0 0 0 0 0 0 0 0 0 0 0 0 0 0 0 0 0 16 0 0 0 0 2 0 12 13 0 0 0 0 0 0 0 0 0 0 0 0 0 0 12 0 0 0 0 6 0 0 0 0 132 0 
Printing Sanity2
Heartbeat CPU 0 instructions: 160000001 cycles: 196670287 heartbeat IPC: 0.594116 cumulative IPC: 0.602292 (Simulation time: 0 hr 12 min 39 sec) 
Heartbeat CPU 0 instructions: 170000000 cycles: 213685616 heartbeat IPC: 0.587705 cumulative IPC: 0.601049 (Simulation time: 0 hr 13 min 33 sec) 
Heartbeat CPU 0 instructions: 180000000 cycles: 230489787 heartbeat IPC: 0.59509 cumulative IPC: 0.600586 (Simulation time: 0 hr 14 min 26 sec) 
*** Reached end of trace for Core: 0 Repeating trace: traces/spec2k17/srv_57.champsimtrace.xz
Heartbeat CPU 0 instructions: 190000002 cycles: 247692759 heartbeat IPC: 0.581295 cumulative IPC: 0.599166 (Simulation time: 0 hr 15 min 17 sec) 
Heartbeat CPU 0 instructions: 200000000 cycles: 264675310 heartbeat IPC: 0.58884 cumulative IPC: 0.598466 (Simulation time: 0 hr 16 min 9 sec) 
Heartbeat CPU 0 instructions: 210000001 cycles: 281401550 heartbeat IPC: 0.597863 cumulative IPC: 0.598428 (Simulation time: 0 hr 17 min 1 sec) 
*** Reached end of trace for Core: 0 Repeating trace: traces/spec2k17/srv_57.champsimtrace.xz
Heartbeat CPU 0 instructions: 220000000 cycles: 298725142 heartbeat IPC: 0.577247 cumulative IPC: 0.597139 (Simulation time: 0 hr 17 min 50 sec) 
Heartbeat CPU 0 instructions: 230000000 cycles: 315541752 heartbeat IPC: 0.59465 cumulative IPC: 0.597001 (Simulation time: 0 hr 18 min 39 sec) 
Heartbeat CPU 0 instructions: 240000002 cycles: 332022083 heartbeat IPC: 0.606784 cumulative IPC: 0.597508 (Simulation time: 0 hr 19 min 28 sec) 
*** Reached end of trace for Core: 0 Repeating trace: traces/spec2k17/srv_57.champsimtrace.xz
Heartbeat CPU 0 instructions: 250000000 cycles: 349511365 heartbeat IPC: 0.571779 cumulative IPC: 0.596166 (Simulation time: 0 hr 20 min 6 sec) 
Finished CPU 0 instructions: 200000002 cycles: 335476848 cumulative IPC: 0.596166 (Simulation time: 0 hr 20 min 6 sec) 

ChampSim completed all CPUs

Region of Interest Statistics

CPU 0 cumulative IPC: 0.596166 instructions: 200000002 cycles: 335476848
ITLB TOTAL     ACCESS:   34742711  HIT:   33904538  MISS:     838173  HIT %:    97.5875  MISS %:    2.41251   MPKI: 4.19086
ITLB LOAD TRANSLATION ACCESS:   34742711  HIT:   33904538  MISS:     838173  HIT %:    97.5875  MISS %:    2.41251   MPKI: 4.19086
ITLB PREFETCH  REQUESTED:          0  ISSUED:          0  USEFUL:          0  USELESS:          0
ITLB USEFUL LOAD PREFETCHES:          0 PREFETCH ISSUED TO LOWER LEVEL:          0  ACCURACY: -nan
ITLB TIMELY PREFETCHES:          0 LATE PREFETCHES: 0 DROPPED PREFETCHES: 0
ITLB PREFETCHES SAME FILL-ORIGIN LEVEL: 0 DIFFERENT FILL-ORIGIN LEVEL: 0
ITLB AVERAGE MISS LATENCY: 9.37822 cycles
ITLB RQ	ACCESS:   39591563	FORWARD:          0	MERGED:    4555209	TO_CACHE:   35036354

DTLB TOTAL     ACCESS:   40522562  HIT:   39582559  MISS:     940003  HIT %:    97.6803  MISS %:     2.3197   MPKI: 4.70001
DTLB LOAD TRANSLATION ACCESS:   40522562  HIT:   39582559  MISS:     940003  HIT %:    97.6803  MISS %:     2.3197   MPKI: 4.70001
DTLB PREFETCH  REQUESTED:          0  ISSUED:          0  USEFUL:          0  USELESS:          0
DTLB USEFUL LOAD PREFETCHES:          0 PREFETCH ISSUED TO LOWER LEVEL:          0  ACCURACY: -nan
DTLB TIMELY PREFETCHES:          0 LATE PREFETCHES: 0 DROPPED PREFETCHES: 0
DTLB PREFETCHES SAME FILL-ORIGIN LEVEL: 0 DIFFERENT FILL-ORIGIN LEVEL: 0
DTLB AVERAGE MISS LATENCY: 16.6946 cycles
DTLB RQ	ACCESS:   55797991	FORWARD:          0	MERGED:   15221818	TO_CACHE:   40576173

STLB TOTAL     ACCESS:    2209446  HIT:    2135423  MISS:      74023  HIT %:    96.6497  MISS %:     3.3503   MPKI: 0.370115
STLB LOAD TRANSLATION ACCESS:    1778176  HIT:    1704885  MISS:      73291  HIT %:    95.8783  MISS %:     4.1217   MPKI: 0.366455
STLB TRANSLATION FROM L1D PREFETCHER ACCESS:     431270  HIT:     430538  MISS:        732  HIT %:    99.8303  MISS %:   0.169731   MPKI: 0.00366
STLB PREFETCH  REQUESTED:          0  ISSUED:          0  USEFUL:        534  USELESS:        194
STLB USEFUL LOAD PREFETCHES:        534 PREFETCH ISSUED TO LOWER LEVEL:          0  ACCURACY: inf
STLB TIMELY PREFETCHES:        534 LATE PREFETCHES: 8 DROPPED PREFETCHES: 27713
STLB PREFETCHES SAME FILL-ORIGIN LEVEL: 0 DIFFERENT FILL-ORIGIN LEVEL: 0
STLB AVERAGE MISS LATENCY: 102.295 cycles
STLB RQ	ACCESS:    2294215	FORWARD:          0	MERGED:      56536	TO_CACHE:    2237679

STLB Hit, L1D data hit: 0
STLB Hit, L2C data hit: 0
STLB Hit, LLC data hit: 0
STLB Hit, LLC data miss: 0
STLB STLB hints to L2: 0
L1D TOTAL     ACCESS:   55696840  HIT:   53971174  MISS:    1725666  HIT %:    96.9017  MISS %:    3.09832   MPKI: 8.62833
L1D LOAD      ACCESS:   33574630  HIT:   32571196  MISS:    1003434  HIT %:    97.0113  MISS %:    2.98867   MPKI: 5.01717
L1D RFO       ACCESS:   21650193  HIT:   21303156  MISS:     347037  HIT %:    98.3971  MISS %:    1.60293   MPKI: 1.73518
L1D PREFETCH  ACCESS:     472017  HIT:      96822  MISS:     375195  HIT %:    20.5124  MISS %:    79.4876   MPKI: 1.87597
AGUS PREFETCH L1 MISS: 0
L1D PREFETCH  REQUESTED:    1040725  ISSUED:    1040725  USEFUL:      25260  USELESS:     349819
L1D USEFUL LOAD PREFETCHES:      25260 PREFETCH ISSUED TO LOWER LEVEL:     375323  ACCURACY: 6.7302
L1D TIMELY PREFETCHES:      25260 LATE PREFETCHES: 125 DROPPED PREFETCHES: 30233
L1D PREFETCHES SAME FILL-ORIGIN LEVEL: 375323 DIFFERENT FILL-ORIGIN LEVEL: 0
L1D AVERAGE MISS LATENCY: 20003.3 cycles
L1D RQ	ACCESS:   48179769	FORWARD:          0	MERGED:   14270483	TO_CACHE:   33632445
L1D WQ	ACCESS:   22465122	FORWARD:     276883	MERGED:     299576	TO_CACHE:   22165546
L1D PQ	ACCESS:     524686	FORWARD:          0	MERGED:       8605	TO_CACHE:     516039

L1D UNIQUE REGIONS ACCESSED: 0
L1D REGIONS CONFLICTS: 0
L1D Cross Page Prefetch Requests: 524686
L1D Same Page Prefetch Requests: 0
L1D ROI Sum of L1D PQ occupancy: 8414570
L1D PREFETCHES PUSHED FROM L2C: 0
L1I TOTAL     ACCESS:   39122338  HIT:   36597320  MISS:    2525018  HIT %:    93.5458  MISS %:    6.45416   MPKI: 12.6251
L1I LOAD      ACCESS:   39122338  HIT:   36597320  MISS:    2525018  HIT %:    93.5458  MISS %:    6.45416   MPKI: 12.6251
L1I PREFETCH  REQUESTED:          0  ISSUED:          0  USEFUL:          0  USELESS:          0
L1I USEFUL LOAD PREFETCHES:          0 PREFETCH ISSUED TO LOWER LEVEL:          0  ACCURACY: -nan
L1I TIMELY PREFETCHES:          0 LATE PREFETCHES: 0 DROPPED PREFETCHES: 0
L1I PREFETCHES SAME FILL-ORIGIN LEVEL: 0 DIFFERENT FILL-ORIGIN LEVEL: 0
L1I AVERAGE MISS LATENCY: 18.8182 cycles
L1I RQ	ACCESS:   62217873	FORWARD:          0	MERGED:   22626310	TO_CACHE:   39591563

BTB TOTAL     ACCESS:   32784881  HIT:   29386582  MISS:    3398299  HIT %:    89.6346  MISS %:    10.3654   MPKI: 16.9915
BTB BRANCH_DIRECT_JUMP	ACCESS:    3353840  HIT:    3191984  MISS:     161856
BTB BRANCH_INDIRECT	ACCESS:   13231468  HIT:   11990093  MISS:    1241375
BTB BRANCH_CONDITIONAL	ACCESS:    8791342  HIT:    8583888  MISS:     207454
BTB BRANCH_DIRECT_CALL	ACCESS:    2800344  HIT:    2510637  MISS:     289707
BTB BRANCH_INDIRECT_CALL	ACCESS:     903748  HIT:     779612  MISS:     124136
BTB BRANCH_RETURN	ACCESS:    3704139  HIT:    2330368  MISS:    1373771
BTB BRANCH_OTHER ACCESS:          0  HIT:          0  MISS:          0

L2C TOTAL     ACCESS:    5019194  HIT:    4047836  MISS:     971358  HIT %:    80.6471  MISS %:    19.3529   MPKI: 4.85679
L2C LOAD      ACCESS:    3528307  HIT:    2849346  MISS:     678961  HIT %:    80.7567  MISS %:    19.2433   MPKI: 3.3948
L2C DATA LOAD MPKI: 1.5131
L2C INSTRUCTION LOAD MPKI: 1.8817
L2C RFO       ACCESS:     347031  HIT:     250815  MISS:      96216  HIT %:    72.2745  MISS %:    27.7255   MPKI: 0.48108
L2C PREFETCH  ACCESS:     375323  HIT:     248423  MISS:     126900  HIT %:    66.1891  MISS %:    33.8109   MPKI: 0.6345
AGUS PREFETCH L1 MISS: 0
L2C DATA PREFETCH MPKI: 0.6345
L2C INSTRUCTION PREFETCH MPKI: 0
L2C WRITEBACK ACCESS:     587408  HIT:     574314  MISS:      13094  HIT %:    97.7709  MISS %:    2.22912   MPKI: 0.06547
L2C LOAD TRANSLATION ACCESS:     138816  HIT:      86789  MISS:      52027  HIT %:    62.5209  MISS %:    37.4791   MPKI: 0.260135
L2C TRANSLATION FROM L1D PREFETCHER ACCESS:      42309  HIT:      38149  MISS:       4160  HIT %:    90.1676  MISS %:    9.83242   MPKI: 0.0208
L2C PREFETCH  REQUESTED:          0  ISSUED:          0  USEFUL:       6036  USELESS:     123869
L2C USEFUL LOAD PREFETCHES:       6036 PREFETCH ISSUED TO LOWER LEVEL:     126900  ACCURACY: 4.7565
L2C TIMELY PREFETCHES:       6036 LATE PREFETCHES: 0 DROPPED PREFETCHES: 0
L2C PREFETCHES SAME FILL-ORIGIN LEVEL: 0 DIFFERENT FILL-ORIGIN LEVEL: 0
L2C AVERAGE MISS LATENCY: 67.8576 cycles
L2C RQ	ACCESS:    4056486	FORWARD:          0	MERGED:          0	TO_CACHE:    4056463
L2C WQ	ACCESS:     587408	FORWARD:         23	MERGED:          0	TO_CACHE:     587408
L2C PQ	ACCESS:     375323	FORWARD:          0	MERGED:          0	TO_CACHE:     375323

L2C Instructions Evicting Data 153677
L2C Translations Evicting Data 40934
L2C Data Evicting Data 338073
L2C Instructions Evicting Instructions 212345
L2C Translations Evicting Instructions 8983
L2C Data Evicting Instructions 148060
L2C Instructions Evicting Translations 10318
L2C Translations Evicting Translations 6270
L2C Data Evicting Translations 39604
L2C Dense regions hint from L2: 0
PSCL5 TOTAL     ACCESS:     101736  HIT:     101736  MISS:          0  HIT %:        100  MISS %:          0   MPKI: 0
PSCL5 LOAD TRANSLATION ACCESS:      73283  HIT:      73283  MISS:          0  HIT %:        100  MISS %:          0   MPKI: 0
PSCL5 TRANSLATION FROM L1D PREFETCHER ACCESS:      28453  HIT:      28453  MISS:          0  HIT %:        100  MISS %:          0   MPKI: 0
PSCL5 PREFETCH  REQUESTED:          0  ISSUED:          0  USEFUL:          0  USELESS:          0
PSCL5 USEFUL LOAD PREFETCHES:          0 PREFETCH ISSUED TO LOWER LEVEL:          0  ACCURACY: -nan
PSCL5 TIMELY PREFETCHES:          0 LATE PREFETCHES: 0 DROPPED PREFETCHES: 0
PSCL5 PREFETCHES SAME FILL-ORIGIN LEVEL: 0 DIFFERENT FILL-ORIGIN LEVEL: 0

PSCL4 TOTAL     ACCESS:     100680  HIT:     100553  MISS:        127  HIT %:    99.8739  MISS %:   0.126142   MPKI: 0.000635
PSCL4 LOAD TRANSLATION ACCESS:      72590  HIT:      72463  MISS:        127  HIT %:     99.825  MISS %:   0.174955   MPKI: 0.000635
PSCL4 TRANSLATION FROM L1D PREFETCHER ACCESS:      28090  HIT:      28090  MISS:          0  HIT %:        100  MISS %:          0   MPKI: 0
PSCL4 PREFETCH  REQUESTED:          0  ISSUED:          0  USEFUL:          0  USELESS:          0
PSCL4 USEFUL LOAD PREFETCHES:          0 PREFETCH ISSUED TO LOWER LEVEL:          0  ACCURACY: -nan
PSCL4 TIMELY PREFETCHES:          0 LATE PREFETCHES: 0 DROPPED PREFETCHES: 0
PSCL4 PREFETCHES SAME FILL-ORIGIN LEVEL: 0 DIFFERENT FILL-ORIGIN LEVEL: 0

PSCL3 TOTAL     ACCESS:      92654  HIT:      72132  MISS:      20522  HIT %:    77.8509  MISS %:    22.1491   MPKI: 0.10261
PSCL3 LOAD TRANSLATION ACCESS:      71422  HIT:      50900  MISS:      20522  HIT %:    71.2666  MISS %:    28.7334   MPKI: 0.10261
PSCL3 TRANSLATION FROM L1D PREFETCHER ACCESS:      21232  HIT:      21232  MISS:          0  HIT %:        100  MISS %:          0   MPKI: 0
PSCL3 PREFETCH  REQUESTED:          0  ISSUED:          0  USEFUL:          0  USELESS:          0
PSCL3 USEFUL LOAD PREFETCHES:          0 PREFETCH ISSUED TO LOWER LEVEL:          0  ACCURACY: -nan
PSCL3 TIMELY PREFETCHES:          0 LATE PREFETCHES: 0 DROPPED PREFETCHES: 0
PSCL3 PREFETCHES SAME FILL-ORIGIN LEVEL: 0 DIFFERENT FILL-ORIGIN LEVEL: 0

PSCL2 TOTAL     ACCESS:      92334  HIT:      47410  MISS:      44924  HIT %:    51.3462  MISS %:    48.6538   MPKI: 0.22462
PSCL2 LOAD TRANSLATION ACCESS:      73313  HIT:      28389  MISS:      44924  HIT %:     38.723  MISS %:     61.277   MPKI: 0.22462
PSCL2 TRANSLATION FROM L1D PREFETCHER ACCESS:      19021  HIT:      19021  MISS:          0  HIT %:        100  MISS %:          0   MPKI: 0
PSCL2 PREFETCH  REQUESTED:          0  ISSUED:          0  USEFUL:          0  USELESS:          0
PSCL2 USEFUL LOAD PREFETCHES:          0 PREFETCH ISSUED TO LOWER LEVEL:          0  ACCURACY: -nan
PSCL2 TIMELY PREFETCHES:          0 LATE PREFETCHES: 0 DROPPED PREFETCHES: 0
PSCL2 PREFETCHES SAME FILL-ORIGIN LEVEL: 0 DIFFERENT FILL-ORIGIN LEVEL: 0

LLC TOTAL     ACCESS:    1125643  HIT:     876013  MISS:     249630  HIT %:    77.8233  MISS %:    22.1767   MPKI: 1.24815
LLC LOAD      ACCESS:     678961  HIT:     534466  MISS:     144495  HIT %:    78.7182  MISS %:    21.2818   MPKI: 0.722475
LLC RFO       ACCESS:      96216  HIT:      72802  MISS:      23414  HIT %:    75.6652  MISS %:    24.3348   MPKI: 0.11707
LLC PREFETCH  ACCESS:     126900  HIT:      66834  MISS:      60066  HIT %:    52.6667  MISS %:    47.3333   MPKI: 0.30033
AGUS PREFETCH L1 MISS: 0
LLC WRITEBACK ACCESS:     167379  HIT:     166291  MISS:       1088  HIT %:      99.35  MISS %:   0.650022   MPKI: 0.00544
LLC LOAD TRANSLATION ACCESS:      52027  HIT:      33644  MISS:      18383  HIT %:    64.6664  MISS %:    35.3336   MPKI: 0.091915
LLC TRANSLATION FROM L1D PREFETCHER ACCESS:       4160  HIT:       1976  MISS:       2184  HIT %:       47.5  MISS %:       52.5   MPKI: 0.01092
LLC PREFETCH  REQUESTED:          0  ISSUED:          0  USEFUL:        927  USELESS:      52628
LLC USEFUL LOAD PREFETCHES:        927 PREFETCH ISSUED TO LOWER LEVEL:      60066  ACCURACY: 1.5433
LLC TIMELY PREFETCHES:        927 LATE PREFETCHES: 0 DROPPED PREFETCHES: 0
LLC PREFETCHES SAME FILL-ORIGIN LEVEL: 0 DIFFERENT FILL-ORIGIN LEVEL: 0
LLC AVERAGE MISS LATENCY: 148.883 cycles
LLC RQ	ACCESS:     831364	FORWARD:          0	MERGED:          0	TO_CACHE:     831364
LLC WQ	ACCESS:     167379	FORWARD:          0	MERGED:          0	TO_CACHE:     167379
LLC PQ	ACCESS:     126900	FORWARD:          0	MERGED:          0	TO_CACHE:     126900

LLC Dense regions hint to LLC: 0

RAW hits: 2603521
Loads Generated: 50783293
Loads sent to L1D: 48179769
Stores Generated: 22465114
Stores sent to L1D: 22465122
Major fault: 0 Minor fault: 8932
Allocated PAGES: 8932
CPU 0 L1D 
Prefetch count 375323 BOP and RL 

DRAM Statistics
 CHANNEL 0
 RQ ROW_BUFFER_HIT:     107776  ROW_BUFFER_MISS:     140748
 DBUS_CONGESTED:        237
 WQ ROW_BUFFER_HIT:      12968  ROW_BUFFER_MISS:      47840  FULL:          0

 AVG_CONGESTED_CYCLE: 5
 All warmup complete: 2
Channel 0 Bank busy for read cycles: 0
Channel 0 Bank busy for write cycles: 0
Channel 0
Rank 0
0banks busy for read cycles: 309544086
0banks busy for write cycles: 35229
1banks busy for read cycles: 12834708
1banks busy for write cycles: 5304287
2banks busy for read cycles: 3949213
2banks busy for write cycles: 1467202
3banks busy for read cycles: 890673
3banks busy for write cycles: 432951
4banks busy for read cycles: 391902
4banks busy for write cycles: 146162
5banks busy for read cycles: 122320
5banks busy for write cycles: 61935
6banks busy for read cycles: 51714
6banks busy for write cycles: 43662
7banks busy for read cycles: 48111
7banks busy for write cycles: 43100
8banks busy for read cycles: 33899
8banks busy for write cycles: 75695

CPU 0 Branch Prediction Accuracy: 99.8045% MPKI: 0.370935 Average ROB Occupancy at Mispredict: 33.8357
Branch types
NOT_BRANCH: 162058956 81.0295%
BRANCH_DIRECT_JUMP: 3353840 1.67692%
BRANCH_INDIRECT: 13231468 6.61573%
BRANCH_CONDITIONAL: 13947212 6.97361%
BRANCH_DIRECT_CALL: 2800344 1.40017%
BRANCH_INDIRECT_CALL: 903748 0.451874%
BRANCH_RETURN: 3704139 1.85207%
BRANCH_OTHER: 0 0%

DRAM PAGES: 1048576
Allocated PAGES: 8932
