
*** ChampSim Multicore Out-of-Order Simulator ***

Warmup Instructions: 50000000
Simulation Instructions: 200000000
Number of CPUs: 1
LLC sets: 2048
LLC ways: 16
Off-chip DRAM Size: 4096 MB Channels: 1 Width: 64-bit Data Rate: 6400 MT/s
CPU 0 runs traces/spec2k17/srv_26.champsimtrace.xz
.xz
BTB has LRU replacement policy
ITLB has LRU replacement policy
DTLB has LRU replacement policy
STLB has LRU replacement policy
L1I has LRU replacement policy
CPU 0 l1d next line prefetcher
L1D has LRU replacement policy
Initialize SRRIP state for L2C
Initialize DRRIP state for LLC
Offsets elements: 
Potential of Offsets elements: 
rewards of Offsets elements: 
Printing Sanity1
offset list size1606
Heartbeat CPU 0 instructions: 10000003 cycles: 2819049 heartbeat IPC: 3.5473 cumulative IPC: 3.5473 (Simulation time: 0 hr 0 min 36 sec) 
Heartbeat CPU 0 instructions: 20000000 cycles: 5635312 heartbeat IPC: 3.5508 cumulative IPC: 3.54905 (Simulation time: 0 hr 1 min 13 sec) 
Heartbeat CPU 0 instructions: 30000000 cycles: 8449157 heartbeat IPC: 3.55386 cumulative IPC: 3.55065 (Simulation time: 0 hr 1 min 49 sec) 
*** Reached end of trace for Core: 0 Repeating trace: traces/spec2k17/srv_26.champsimtrace.xz
Heartbeat CPU 0 instructions: 40000003 cycles: 11261671 heartbeat IPC: 3.55554 cumulative IPC: 3.55187 (Simulation time: 0 hr 2 min 24 sec) 
Heartbeat CPU 0 instructions: 50000000 cycles: 14076134 heartbeat IPC: 3.55307 cumulative IPC: 3.55211 (Simulation time: 0 hr 2 min 57 sec) 

Warmup complete CPU 0 instructions: 50000004 cycles: 14076135 (Simulation time: 0 hr 2 min 57 sec) 

Offsets elements: 
Potential of Offsets elements: 
rewards of Offsets elements: 0 0 0 0 2 0 0 0 0 53 2 0 0 0 0 0 0 0 1 0 0 0 4 1 3 0 9 2 0 0 0 0 0 0 1 1 0 0 0 1 0 0 0 0 0 0 3 1 0 0 0 31 0 0 0 0 3 2 0 0 0 0 0 4 0 0 0 0 0 2 0 155 0 1 0 7 1 1 0 0 0 0 0 2 0 0 0 0 0 0 22 0 1 1 1 0 2 0 0 0 0 0 3 5 1 4 0 0 0 241 0 0 2 0 0 0 3 1 0 0 1 0 0 0 0 0 0 94 4 0 114 0 0 0 0 0 0 0 0 1 0 1 0 0 0 1 0 0 0 1 0 30 0 0 0 144 0 1 2 0 0 0 0 0 3 0 0 18 0 123 142 4 0 0 0 1 0 1 2 0 0 3 0 0 0 1 0 0 13 7 0 2 1 0 27 0 0 0 0 0 0 0 0 1 0 0 0 0 2 1 0 0 0 0 0 2 3 0 0 0 0 0 1 0 0 0 0 0 0 0 2 0 0 0 0 0 0 0 0 1 0 0 199 0 0 0 1 0 1 1 0 0 0 1 111 0 0 3 0 0 0 0 0 3 1 0 0 0 0 0 0 13 2 0 2 0 0 0 0 0 2 1 5 0 0 0 0 0 0 0 0 0 0 0 0 0 2 3 6 1 1 0 1 0 0 1 0 0 0 0 0 0 0 0 2 0 0 0 0 0 0 0 0 0 0 0 0 0 37 11 0 0 0 43 0 0 0 5 0 0 0 3 2 0 0 0 1 1 0 0 2 0 0 2 2 414 0 0 0 508 39 0 0 0 0 0 1 2 0 0 0 0 0 0 1 0 0 0 0 0 2 0 0 0 0 0 0 0 0 27 19 4 0 0 0 5 0 1 4 0 1 1 2 1 0 2 1 2 0 0 0 1 1 0 0 17 0 0 1 0 0 0 0 0 0 0 0 67 51 1 0 0 0 1 0 1 1 0 1 5 1 0 0 3 0 0 1 0 0 2 0 0 0 0 0 0 3 0 0 0 0 0 0 2 1 2 0 0 0 0 0 0 0 0 0 0 1 0 0 0 0 0 0 0 0 0 0 0 4 27 0 0 0 0 0 3 2 0 0 0 0 0 1 0 0 0 0 1 1 0 0 0 10 1 0 0 0 2 65 5 4 0 0 0 0 0 1 1 1 0 0 25 0 0 0 1 0 0 0 0 0 0 0 0 1 0 1 0 0 0 0 2 5 0 1 0 0 1 2 0 2 0 3 0 3 0 0 1 0 0 0 0 0 0 0 0 0 0 0 0 0 4 0 1 4 1 0 0 0 0 0 0 0 0 2 0 0 0 0 1 0 0 2 0 0 4 1 0 0 0 0 0 0 0 0 0 2 10 3 2 0 0 0 1 5 0 0 0 1 0 1 1 0 0 0 0 0 0 2 0 0 0 0 94 0 1 58 2 0 0 0 3 0 2 1 3 0 1 1 0 0 1 0 0 0 89 0 0 24 1 2 0 2 0 0 0 3 1 1 2 0 0 1 1 0 0 0 0 0 1 0 0 1 0 0 3 12 4 0 0 0 0 0 0 2 5 4 5 1 5 4 1 2 0 3 2 0 0 0 1 3 0 0 0 0 1 0 0 1 0 0 0 0 0 0 0 0 0 0 0 0 0 2 1 2 3 2 6 5 3 0 0 151 0 1 2 0 4 2 3 0 0 1 0 2 0 2 0 0 1 1 0 0 0 0 1 0 2 1 1 2 0 7 7 0 0 0 0 0 0 0 0 0 2 0 0 0 10 0 2 1 0 0 0 0 0 0 0 0 1 1 1 1 2 0 3 0 0 0 5 1 0 0 0 0 0 0 0 1 0 3 0 2 0 0 1 0 0 0 0 1 3 0 0 2 2 5 0 0 1 0 1 2 0 0 1 1 1 0 0 0 0 0 0 0 0 0 0 0 0 0 17 0 0 0 0 0 0 0 0 0 4 0 0 0 1 0 0 0 1 0 3 0 2 8 2 0 1 0 1 7 0 0 1 2 0 1 0 0 1 0 0 0 0 0 0 0 0 0 0 0 2 0 0 1 0 0 0 0 2 0 1 1 3 0 0 0 0 0 0 0 0 0 0 0 0 0 0 0 0 2 0 0 0 0 0 0 1 0 0 0 0 0 0 0 0 4 0 0 0 7 0 0 0 0 0 0 0 0 0 0 0 0 0 0 0 0 0 0 0 0 0 0 0 0 0 4 0 6 0 0 0 0 0 0 0 0 0 0 0 0 0 0 0 0 0 0 0 0 0 0 1 0 0 0 31 0 0 0 0 0 1 0 2 1 4 0 1 0 0 0 1 0 0 0 0 0 6 0 6 5 0 2 0 0 0 0 0 0 2 0 0 74 1 0 0 1 7 7 0 0 0 3 0 0 0 1 2 1 3 1 1 0 63 1 0 0 3 2 4 6 8 4 0 3 0 0 0 0 45 2 0 0 0 5 0 2 0 0 1 0 1 0 0 0 0 0 0 2 0 0 1 0 0 2 0 0 0 0 1 0 12 1 0 0 5 1 0 1 4 1 1 0 75 0 0 0 0 8 0 1 0 0 1 0 3 0 0 0 0 0 0 0 0 0 0 0 0 0 4 0 0 0 1 0 0 1 0 0 1 1 0 0 0 23 0 0 1 0 0 2 2 0 0 0 0 5 0 0 39 2 0 2 14 1 0 0 0 2 0 2 3 0 0 0 0 0 0 0 0 0 0 0 2 2 0 2 0 0 0 4 1 0 1 0 0 3 0 0 0 1 0 0 0 0 0 0 0 0 0 0 0 0 0 0 1 3 0 0 0 0 0 0 0 0 0 0 4 3 0 0 0 0 0 0 0 1 0 0 0 1 0 0 0 0 0 0 0 0 1 0 0 2 0 0 0 4 0 2 1 0 0 0 2 1 0 0 0 0 54 0 0 2 0 0 0 0 0 0 0 0 0 0 0 0 0 0 0 2 6 0 2 87 2 0 0 0 0 1 2 0 1 50 0 0 0 0 1 1 0 2 0 0 17 0 0 0 4 5 5 2 5 2 5 3 1 0 2 3 0 0 7 0 0 0 0 0 1 1 1 0 0 1 0 0 0 0 0 0 0 0 0 0 2 2 0 0 0 0 0 0 0 0 0 0 0 0 0 0 0 1 0 0 8 0 0 0 0 0 0 2 22 0 0 0 0 0 0 0 0 0 0 0 0 2 0 0 0 0 0 0 0 0 1 0 0 3 1 0 21 0 0 0 0 1 0 0 26 0 5 0 0 4 0 0 0 6 0 0 0 0 0 0 0 1 0 0 0 0 0 0 0 0 0 0 0 0 0 0 0 0 1 0 9 2 0 1 0 0 0 0 0 0 0 1 0 1 0 0 1 0 0 0 1 1 0 1 0 21 0 0 1 1 0 0 0 0 0 7 0 0 0 0 0 0 0 2 0 1 0 2 0 0 0 0 0 0 0 0 0 0 15 0 0 0 0 0 0 1 1 3 0 0 0 0 0 0 0 1 2 0 0 0 0 0 2 0 0 0 1 6 0 0 0 0 0 3 2 0 0 0 0 0 0 0 4 0 0 0 0 0 0 0 0 0 0 
Printing Sanity2
Heartbeat CPU 0 instructions: 60000001 cycles: 46316899 heartbeat IPC: 0.310166 cumulative IPC: 0.310166 (Simulation time: 0 hr 3 min 55 sec) 
*** Reached end of trace for Core: 0 Repeating trace: traces/spec2k17/srv_26.champsimtrace.xz
Heartbeat CPU 0 instructions: 70000001 cycles: 79271487 heartbeat IPC: 0.303448 cumulative IPC: 0.30677 (Simulation time: 0 hr 4 min 54 sec) 
Heartbeat CPU 0 instructions: 80000000 cycles: 112127729 heartbeat IPC: 0.304356 cumulative IPC: 0.305961 (Simulation time: 0 hr 5 min 55 sec) 
Heartbeat CPU 0 instructions: 90000001 cycles: 145021723 heartbeat IPC: 0.304007 cumulative IPC: 0.30547 (Simulation time: 0 hr 6 min 54 sec) 
*** Reached end of trace for Core: 0 Repeating trace: traces/spec2k17/srv_26.champsimtrace.xz
Heartbeat CPU 0 instructions: 100000000 cycles: 177934754 heartbeat IPC: 0.303831 cumulative IPC: 0.305141 (Simulation time: 0 hr 7 min 52 sec) 
Heartbeat CPU 0 instructions: 110000000 cycles: 210792819 heartbeat IPC: 0.304339 cumulative IPC: 0.305007 (Simulation time: 0 hr 8 min 51 sec) 
Heartbeat CPU 0 instructions: 120000001 cycles: 243655402 heartbeat IPC: 0.304297 cumulative IPC: 0.304906 (Simulation time: 0 hr 9 min 52 sec) 
*** Reached end of trace for Core: 0 Repeating trace: traces/spec2k17/srv_26.champsimtrace.xz
Heartbeat CPU 0 instructions: 130000000 cycles: 276570940 heartbeat IPC: 0.303808 cumulative IPC: 0.304768 (Simulation time: 0 hr 10 min 50 sec) 
Heartbeat CPU 0 instructions: 140000001 cycles: 309492651 heartbeat IPC: 0.303751 cumulative IPC: 0.304655 (Simulation time: 0 hr 11 min 49 sec) 
Heartbeat CPU 0 instructions: 150000003 cycles: 342268303 heartbeat IPC: 0.305105 cumulative IPC: 0.3047 (Simulation time: 0 hr 12 min 47 sec) 
*** Reached end of trace for Core: 0 Repeating trace: traces/spec2k17/srv_26.champsimtrace.xz
Heartbeat CPU 0 instructions: 160000000 cycles: 375125715 heartbeat IPC: 0.304345 cumulative IPC: 0.304667 (Simulation time: 0 hr 13 min 46 sec) 
Heartbeat CPU 0 instructions: 170000000 cycles: 407971025 heartbeat IPC: 0.304457 cumulative IPC: 0.30465 (Simulation time: 0 hr 14 min 46 sec) 
Heartbeat CPU 0 instructions: 180000000 cycles: 440845500 heartbeat IPC: 0.304187 cumulative IPC: 0.304614 (Simulation time: 0 hr 15 min 44 sec) 
*** Reached end of trace for Core: 0 Repeating trace: traces/spec2k17/srv_26.champsimtrace.xz
Heartbeat CPU 0 instructions: 190000002 cycles: 473639564 heartbeat IPC: 0.304933 cumulative IPC: 0.304637 (Simulation time: 0 hr 16 min 43 sec) 
Heartbeat CPU 0 instructions: 200000003 cycles: 506492163 heartbeat IPC: 0.30439 cumulative IPC: 0.30462 (Simulation time: 0 hr 17 min 42 sec) 
Heartbeat CPU 0 instructions: 210000002 cycles: 539380389 heartbeat IPC: 0.30406 cumulative IPC: 0.304585 (Simulation time: 0 hr 18 min 41 sec) 
*** Reached end of trace for Core: 0 Repeating trace: traces/spec2k17/srv_26.champsimtrace.xz
Heartbeat CPU 0 instructions: 220000000 cycles: 572166657 heartbeat IPC: 0.305006 cumulative IPC: 0.30461 (Simulation time: 0 hr 19 min 43 sec) 
Heartbeat CPU 0 instructions: 230000000 cycles: 604994537 heartbeat IPC: 0.304619 cumulative IPC: 0.304611 (Simulation time: 0 hr 20 min 42 sec) 
Heartbeat CPU 0 instructions: 240000000 cycles: 637915054 heartbeat IPC: 0.303762 cumulative IPC: 0.304566 (Simulation time: 0 hr 21 min 44 sec) 
*** Reached end of trace for Core: 0 Repeating trace: traces/spec2k17/srv_26.champsimtrace.xz
Heartbeat CPU 0 instructions: 250000000 cycles: 670694554 heartbeat IPC: 0.305069 cumulative IPC: 0.304591 (Simulation time: 0 hr 22 min 45 sec) 
Finished CPU 0 instructions: 200000000 cycles: 656618443 cumulative IPC: 0.304591 (Simulation time: 0 hr 22 min 45 sec) 

ChampSim completed all CPUs

Region of Interest Statistics

CPU 0 cumulative IPC: 0.304591 instructions: 200000000 cycles: 656618443
ITLB TOTAL     ACCESS:   34728393  HIT:   32675280  MISS:    2053113  HIT %:    94.0881  MISS %:    5.91191   MPKI: 10.2656
ITLB LOAD TRANSLATION ACCESS:   34728393  HIT:   32675280  MISS:    2053113  HIT %:    94.0881  MISS %:    5.91191   MPKI: 10.2656
ITLB PREFETCH  REQUESTED:          0  ISSUED:          0  USEFUL:          0  USELESS:          0
ITLB USEFUL LOAD PREFETCHES:          0 PREFETCH ISSUED TO LOWER LEVEL:          0  ACCURACY: -nan
ITLB TIMELY PREFETCHES:          0 LATE PREFETCHES: 0 DROPPED PREFETCHES: 0
ITLB PREFETCHES SAME FILL-ORIGIN LEVEL: 0 DIFFERENT FILL-ORIGIN LEVEL: 0
ITLB AVERAGE MISS LATENCY: 9.06593 cycles
ITLB RQ	ACCESS:   40976568	FORWARD:          0	MERGED:    5757636	TO_CACHE:   35218932

DTLB TOTAL     ACCESS:   46526022  HIT:   44680342  MISS:    1845680  HIT %:     96.033  MISS %:    3.96698   MPKI: 9.2284
DTLB LOAD TRANSLATION ACCESS:   46526022  HIT:   44680342  MISS:    1845680  HIT %:     96.033  MISS %:    3.96698   MPKI: 9.2284
DTLB PREFETCH  REQUESTED:          0  ISSUED:          0  USEFUL:          0  USELESS:          0
DTLB USEFUL LOAD PREFETCHES:          0 PREFETCH ISSUED TO LOWER LEVEL:          0  ACCURACY: -nan
DTLB TIMELY PREFETCHES:          0 LATE PREFETCHES: 0 DROPPED PREFETCHES: 0
DTLB PREFETCHES SAME FILL-ORIGIN LEVEL: 0 DIFFERENT FILL-ORIGIN LEVEL: 0
DTLB AVERAGE MISS LATENCY: 9.15395 cycles
DTLB RQ	ACCESS:   61212510	FORWARD:          0	MERGED:   14622780	TO_CACHE:   46589730

STLB TOTAL     ACCESS:    5738352  HIT:    5726647  MISS:      11705  HIT %:     99.796  MISS %:   0.203978   MPKI: 0.058525
STLB LOAD TRANSLATION ACCESS:    3898793  HIT:    3889144  MISS:       9649  HIT %:    99.7525  MISS %:   0.247487   MPKI: 0.048245
STLB TRANSLATION FROM L1D PREFETCHER ACCESS:    1839559  HIT:    1837503  MISS:       2056  HIT %:    99.8882  MISS %:   0.111766   MPKI: 0.01028
STLB PREFETCH  REQUESTED:          0  ISSUED:          0  USEFUL:       1742  USELESS:        308
STLB USEFUL LOAD PREFETCHES:       1742 PREFETCH ISSUED TO LOWER LEVEL:          0  ACCURACY: inf
STLB TIMELY PREFETCHES:       1742 LATE PREFETCHES: 3 DROPPED PREFETCHES: 987679
STLB PREFETCHES SAME FILL-ORIGIN LEVEL: 0 DIFFERENT FILL-ORIGIN LEVEL: 0
STLB AVERAGE MISS LATENCY: 39.656 cycles
STLB RQ	ACCESS:    6997664	FORWARD:          0	MERGED:     212588	TO_CACHE:    6785076

STLB Hit, L1D data hit: 0
STLB Hit, L2C data hit: 0
STLB Hit, LLC data hit: 0
STLB Hit, LLC data miss: 0
STLB STLB hints to L2: 0
L1D TOTAL     ACCESS:   61100967  HIT:   54937069  MISS:    6163898  HIT %:    89.9119  MISS %:    10.0881   MPKI: 30.8195
L1D LOAD      ACCESS:   34240747  HIT:   31108450  MISS:    3132297  HIT %:    90.8521  MISS %:    9.14786   MPKI: 15.6615
L1D RFO       ACCESS:   24936948  HIT:   23731759  MISS:    1205189  HIT %:    95.1671  MISS %:    4.83295   MPKI: 6.02595
L1D PREFETCH  ACCESS:    1923272  HIT:      96860  MISS:    1826412  HIT %:    5.03621  MISS %:    94.9638   MPKI: 9.13206
AGUS PREFETCH L1 MISS: 0
L1D PREFETCH  REQUESTED:    6282347  ISSUED:    6282347  USEFUL:      39420  USELESS:    1786796
L1D USEFUL LOAD PREFETCHES:      39420 PREFETCH ISSUED TO LOWER LEVEL:    1826414  ACCURACY: 2.15833
L1D TIMELY PREFETCHES:      39420 LATE PREFETCHES: 2 DROPPED PREFETCHES: 1141439
L1D PREFETCHES SAME FILL-ORIGIN LEVEL: 1826414 DIFFERENT FILL-ORIGIN LEVEL: 0
L1D AVERAGE MISS LATENCY: 184.159 cycles
L1D RQ	ACCESS:   47451431	FORWARD:          0	MERGED:   12755534	TO_CACHE:   34390602
L1D WQ	ACCESS:   26994536	FORWARD:     305295	MERGED:     172628	TO_CACHE:   26821908
L1D PQ	ACCESS:    3183476	FORWARD:          0	MERGED:      84605	TO_CACHE:    3098871

L1D UNIQUE REGIONS ACCESSED: 0
L1D REGIONS CONFLICTS: 0
L1D Cross Page Prefetch Requests: 3183476
L1D Same Page Prefetch Requests: 0
L1D ROI Sum of L1D PQ occupancy: 74287279
L1D PREFETCHES PUSHED FROM L2C: 0
L1I TOTAL     ACCESS:   39432741  HIT:   28740948  MISS:   10691793  HIT %:     72.886  MISS %:     27.114   MPKI: 53.459
L1I LOAD      ACCESS:   39432741  HIT:   28740948  MISS:   10691793  HIT %:     72.886  MISS %:     27.114   MPKI: 53.459
L1I PREFETCH  REQUESTED:          0  ISSUED:          0  USEFUL:          0  USELESS:          0
L1I USEFUL LOAD PREFETCHES:          0 PREFETCH ISSUED TO LOWER LEVEL:          0  ACCURACY: -nan
L1I TIMELY PREFETCHES:          0 LATE PREFETCHES: 0 DROPPED PREFETCHES: 0
L1I PREFETCHES SAME FILL-ORIGIN LEVEL: 0 DIFFERENT FILL-ORIGIN LEVEL: 0
L1I AVERAGE MISS LATENCY: 17.6112 cycles
L1I RQ	ACCESS:   58015220	FORWARD:          0	MERGED:   17038652	TO_CACHE:   40976568

BTB TOTAL     ACCESS:   30080361  HIT:   17302648  MISS:   12777713  HIT %:    57.5214  MISS %:    42.4786   MPKI: 63.8886
BTB BRANCH_DIRECT_JUMP	ACCESS:    2022883  HIT:    1132448  MISS:     890435
BTB BRANCH_INDIRECT	ACCESS:   11928564  HIT:    7079070  MISS:    4849494
BTB BRANCH_CONDITIONAL	ACCESS:    7505175  HIT:    6165615  MISS:    1339560
BTB BRANCH_DIRECT_CALL	ACCESS:    3636526  HIT:    1530723  MISS:    2105803
BTB BRANCH_INDIRECT_CALL	ACCESS:     675349  HIT:     268948  MISS:     406401
BTB BRANCH_RETURN	ACCESS:    4311864  HIT:    1125844  MISS:    3186020
BTB BRANCH_OTHER ACCESS:          0  HIT:          0  MISS:          0

L2C TOTAL     ACCESS:   20883895  HIT:   18400453  MISS:    2483442  HIT %:    88.1083  MISS %:    11.8917   MPKI: 12.4172
L2C LOAD      ACCESS:   13824030  HIT:   12113842  MISS:    1710188  HIT %:    87.6289  MISS %:    12.3711   MPKI: 8.55094
L2C DATA LOAD MPKI: 2.28138
L2C INSTRUCTION LOAD MPKI: 6.26956
L2C RFO       ACCESS:    1205109  HIT:     942577  MISS:     262532  HIT %:    78.2151  MISS %:    21.7849   MPKI: 1.31266
L2C PREFETCH  ACCESS:    1826414  HIT:    1412655  MISS:     413759  HIT %:    77.3458  MISS %:    22.6542   MPKI: 2.0688
AGUS PREFETCH L1 MISS: 0
L2C DATA PREFETCH MPKI: 2.0688
L2C INSTRUCTION PREFETCH MPKI: 0
L2C WRITEBACK ACCESS:    2165436  HIT:    2101673  MISS:      63763  HIT %:    97.0554  MISS %:    2.94458   MPKI: 0.318815
L2C LOAD TRANSLATION ACCESS:      10413  HIT:       4164  MISS:       6249  HIT %:    39.9885  MISS %:    60.0115   MPKI: 0.031245
L2C TRANSLATION FROM L1D PREFETCHER ACCESS:    1852493  HIT:    1825542  MISS:      26951  HIT %:    98.5451  MISS %:    1.45485   MPKI: 0.134755
L2C PREFETCH  REQUESTED:          0  ISSUED:          0  USEFUL:      18246  USELESS:     421452
L2C USEFUL LOAD PREFETCHES:      18246 PREFETCH ISSUED TO LOWER LEVEL:     413759  ACCURACY: 4.40981
L2C TIMELY PREFETCHES:      18246 LATE PREFETCHES: 0 DROPPED PREFETCHES: 0
L2C PREFETCHES SAME FILL-ORIGIN LEVEL: 0 DIFFERENT FILL-ORIGIN LEVEL: 0
L2C AVERAGE MISS LATENCY: 31.2439 cycles
L2C RQ	ACCESS:   16892183	FORWARD:          0	MERGED:          0	TO_CACHE:   16892045
L2C WQ	ACCESS:    2165436	FORWARD:        138	MERGED:          0	TO_CACHE:    2165436
L2C PQ	ACCESS:    1826414	FORWARD:          0	MERGED:          0	TO_CACHE:    1826414

L2C Instructions Evicting Data 564658
L2C Translations Evicting Data 19379
L2C Data Evicting Data 579719
L2C Instructions Evicting Instructions 675472
L2C Translations Evicting Instructions 13474
L2C Data Evicting Instructions 534499
L2C Instructions Evicting Translations 13782
L2C Translations Evicting Translations 347
L2C Data Evicting Translations 18349
L2C Dense regions hint from L2: 0
PSCL5 TOTAL     ACCESS:     999384  HIT:     999384  MISS:          0  HIT %:        100  MISS %:          0   MPKI: 0
PSCL5 LOAD TRANSLATION ACCESS:       9646  HIT:       9646  MISS:          0  HIT %:        100  MISS %:          0   MPKI: 0
PSCL5 TRANSLATION FROM L1D PREFETCHER ACCESS:     989738  HIT:     989738  MISS:          0  HIT %:        100  MISS %:          0   MPKI: 0
PSCL5 PREFETCH  REQUESTED:          0  ISSUED:          0  USEFUL:          0  USELESS:          0
PSCL5 USEFUL LOAD PREFETCHES:          0 PREFETCH ISSUED TO LOWER LEVEL:          0  ACCURACY: -nan
PSCL5 TIMELY PREFETCHES:          0 LATE PREFETCHES: 0 DROPPED PREFETCHES: 0
PSCL5 PREFETCHES SAME FILL-ORIGIN LEVEL: 0 DIFFERENT FILL-ORIGIN LEVEL: 0

PSCL4 TOTAL     ACCESS:     597317  HIT:     597214  MISS:        103  HIT %:    99.9828  MISS %:  0.0172438   MPKI: 0.000515
PSCL4 LOAD TRANSLATION ACCESS:       7259  HIT:       7156  MISS:        103  HIT %:    98.5811  MISS %:    1.41893   MPKI: 0.000515
PSCL4 TRANSLATION FROM L1D PREFETCHER ACCESS:     590058  HIT:     590058  MISS:          0  HIT %:        100  MISS %:          0   MPKI: 0
PSCL4 PREFETCH  REQUESTED:          0  ISSUED:          0  USEFUL:          0  USELESS:          0
PSCL4 USEFUL LOAD PREFETCHES:          0 PREFETCH ISSUED TO LOWER LEVEL:          0  ACCURACY: -nan
PSCL4 TIMELY PREFETCHES:          0 LATE PREFETCHES: 0 DROPPED PREFETCHES: 0
PSCL4 PREFETCHES SAME FILL-ORIGIN LEVEL: 0 DIFFERENT FILL-ORIGIN LEVEL: 0

PSCL3 TOTAL     ACCESS:     861826  HIT:     861678  MISS:        148  HIT %:    99.9828  MISS %:  0.0171728   MPKI: 0.00074
PSCL3 LOAD TRANSLATION ACCESS:       8136  HIT:       7988  MISS:        148  HIT %:    98.1809  MISS %:    1.81908   MPKI: 0.00074
PSCL3 TRANSLATION FROM L1D PREFETCHER ACCESS:     853690  HIT:     853690  MISS:          0  HIT %:        100  MISS %:          0   MPKI: 0
PSCL3 PREFETCH  REQUESTED:          0  ISSUED:          0  USEFUL:          0  USELESS:          0
PSCL3 USEFUL LOAD PREFETCHES:          0 PREFETCH ISSUED TO LOWER LEVEL:          0  ACCURACY: -nan
PSCL3 TIMELY PREFETCHES:          0 LATE PREFETCHES: 0 DROPPED PREFETCHES: 0
PSCL3 PREFETCHES SAME FILL-ORIGIN LEVEL: 0 DIFFERENT FILL-ORIGIN LEVEL: 0

PSCL2 TOTAL     ACCESS:     339687  HIT:     339068  MISS:        619  HIT %:    99.8178  MISS %:   0.182227   MPKI: 0.003095
PSCL2 LOAD TRANSLATION ACCESS:       9697  HIT:       9078  MISS:        619  HIT %:    93.6166  MISS %:    6.38342   MPKI: 0.003095
PSCL2 TRANSLATION FROM L1D PREFETCHER ACCESS:     329990  HIT:     329990  MISS:          0  HIT %:        100  MISS %:          0   MPKI: 0
PSCL2 PREFETCH  REQUESTED:          0  ISSUED:          0  USEFUL:          0  USELESS:          0
PSCL2 USEFUL LOAD PREFETCHES:          0 PREFETCH ISSUED TO LOWER LEVEL:          0  ACCURACY: -nan
PSCL2 TIMELY PREFETCHES:          0 LATE PREFETCHES: 0 DROPPED PREFETCHES: 0
PSCL2 PREFETCHES SAME FILL-ORIGIN LEVEL: 0 DIFFERENT FILL-ORIGIN LEVEL: 0

LLC TOTAL     ACCESS:    2785938  HIT:    2752300  MISS:      33638  HIT %:    98.7926  MISS %:    1.20742   MPKI: 0.16819
LLC LOAD      ACCESS:    1710188  HIT:    1701532  MISS:       8656  HIT %:    99.4939  MISS %:   0.506143   MPKI: 0.04328
LLC RFO       ACCESS:     262526  HIT:     250226  MISS:      12300  HIT %:    95.3147  MISS %:    4.68525   MPKI: 0.0615
LLC PREFETCH  ACCESS:     413759  HIT:     401404  MISS:      12355  HIT %:     97.014  MISS %:    2.98604   MPKI: 0.061775
AGUS PREFETCH L1 MISS: 0
LLC WRITEBACK ACCESS:     366265  HIT:     366114  MISS:        151  HIT %:    99.9588  MISS %:   0.041227   MPKI: 0.000755
LLC LOAD TRANSLATION ACCESS:       6249  HIT:       6159  MISS:         90  HIT %:    98.5598  MISS %:    1.44023   MPKI: 0.00045
LLC TRANSLATION FROM L1D PREFETCHER ACCESS:      26951  HIT:      26865  MISS:         86  HIT %:    99.6809  MISS %:   0.319098   MPKI: 0.00043
LLC PREFETCH  REQUESTED:          0  ISSUED:          0  USEFUL:        516  USELESS:       6718
LLC USEFUL LOAD PREFETCHES:        516 PREFETCH ISSUED TO LOWER LEVEL:      12355  ACCURACY: 4.17645
LLC TIMELY PREFETCHES:        516 LATE PREFETCHES: 0 DROPPED PREFETCHES: 0
LLC PREFETCHES SAME FILL-ORIGIN LEVEL: 0 DIFFERENT FILL-ORIGIN LEVEL: 0
LLC AVERAGE MISS LATENCY: 148.676 cycles
LLC RQ	ACCESS:    2005920	FORWARD:          0	MERGED:          0	TO_CACHE:    2005914
LLC WQ	ACCESS:     366265	FORWARD:          6	MERGED:          0	TO_CACHE:     366265
LLC PQ	ACCESS:     413759	FORWARD:          0	MERGED:          0	TO_CACHE:     413759

LLC Dense regions hint to LLC: 0

RAW hits: 1447235
Loads Generated: 48898667
Loads sent to L1D: 47451431
Stores Generated: 26994532
Stores sent to L1D: 26994536
Major fault: 0 Minor fault: 2014
Allocated PAGES: 2014
CPU 0 L1D 
Prefetch count 1826414 BOP and RL 

DRAM Statistics
 CHANNEL 0
 RQ ROW_BUFFER_HIT:      10104  ROW_BUFFER_MISS:      23377
 DBUS_CONGESTED:         40
 WQ ROW_BUFFER_HIT:       1328  ROW_BUFFER_MISS:      13146  FULL:          0

 AVG_CONGESTED_CYCLE: 5
 All warmup complete: 2
Channel 0 Bank busy for read cycles: 0
Channel 0 Bank busy for write cycles: 0
Channel 0
Rank 0
0banks busy for read cycles: 653238325
0banks busy for write cycles: 5501
1banks busy for read cycles: 1501459
1banks busy for write cycles: 661638
2banks busy for read cycles: 350427
2banks busy for write cycles: 153063
3banks busy for read cycles: 169738
3banks busy for write cycles: 82018
4banks busy for read cycles: 105752
4banks busy for write cycles: 60516
5banks busy for read cycles: 63973
5banks busy for write cycles: 42929
6banks busy for read cycles: 40984
6banks busy for write cycles: 33378
7banks busy for read cycles: 26173
7banks busy for write cycles: 34757
8banks busy for read cycles: 16160
8banks busy for write cycles: 31653

CPU 0 Branch Prediction Accuracy: 99.8844% MPKI: 0.20331 Average ROB Occupancy at Mispredict: 32.7954
Branch types
NOT_BRANCH: 164819309 82.4097%
BRANCH_DIRECT_JUMP: 2022883 1.01144%
BRANCH_INDIRECT: 11928564 5.96428%
BRANCH_CONDITIONAL: 12605148 6.30257%
BRANCH_DIRECT_CALL: 3636526 1.81826%
BRANCH_INDIRECT_CALL: 675349 0.337674%
BRANCH_RETURN: 4311864 2.15593%
BRANCH_OTHER: 0 0%

DRAM PAGES: 1048576
Allocated PAGES: 2014
