
*** ChampSim Multicore Out-of-Order Simulator ***

Warmup Instructions: 50000000
Simulation Instructions: 200000000
Number of CPUs: 1
LLC sets: 2048
LLC ways: 16
Off-chip DRAM Size: 4096 MB Channels: 1 Width: 64-bit Data Rate: 6400 MT/s
CPU 0 runs traces/spec2k17/srv_20.champsimtrace.xz
.xz
BTB has LRU replacement policy
ITLB has LRU replacement policy
DTLB has LRU replacement policy
STLB has LRU replacement policy
L1I has LRU replacement policy
CPU 0 l1d next line prefetcher
L1D has LRU replacement policy
Initialize SRRIP state for L2C
Initialize DRRIP state for LLC
Offsets elements: 
Potential of Offsets elements: 
rewards of Offsets elements: 
Printing Sanity1
offset list size1651
Heartbeat CPU 0 instructions: 10000001 cycles: 2823963 heartbeat IPC: 3.54112 cumulative IPC: 3.54112 (Simulation time: 0 hr 0 min 36 sec) 
Heartbeat CPU 0 instructions: 20000003 cycles: 5639186 heartbeat IPC: 3.55212 cumulative IPC: 3.54661 (Simulation time: 0 hr 1 min 12 sec) 
Heartbeat CPU 0 instructions: 30000003 cycles: 8456711 heartbeat IPC: 3.54921 cumulative IPC: 3.54748 (Simulation time: 0 hr 1 min 48 sec) 
*** Reached end of trace for Core: 0 Repeating trace: traces/spec2k17/srv_20.champsimtrace.xz
Heartbeat CPU 0 instructions: 40000000 cycles: 11273993 heartbeat IPC: 3.54952 cumulative IPC: 3.54799 (Simulation time: 0 hr 2 min 25 sec) 
Heartbeat CPU 0 instructions: 50000003 cycles: 14089487 heartbeat IPC: 3.55178 cumulative IPC: 3.54875 (Simulation time: 0 hr 2 min 59 sec) 

Warmup complete CPU 0 instructions: 50000003 cycles: 14089487 (Simulation time: 0 hr 2 min 59 sec) 

Offsets elements: 
Potential of Offsets elements: 
rewards of Offsets elements: 0 0 1 11 0 0 0 0 0 0 1 2 6 6 22 19 2 304 0 67 70 59 4 0 0 0 0 2 24 0 9 23 2 2 4 2 1 79 5 0 74 0 0 149 0 0 0 0 0 0 1 4 0 1 0 0 0 0 0 0 0 0 1 2 2 4 2 2 0 6 2 1 44 2 5 0 0 0 0 3 0 1 1 195 165 0 7 0 0 1 0 8 2 1 0 0 0 1 0 0 0 0 0 1 0 0 0 3 19 1 0 0 0 2 0 0 0 0 0 4 2 4 2 6 12 7 2 0 0 0 159 1 2 0 0 3 0 0 0 0 0 0 0 2 0 0 5 1 57 0 0 1 0 2 0 0 2 1 1 0 0 0 0 5 0 0 0 3 0 0 1 0 1 0 0 3 0 0 0 0 0 0 0 0 0 0 0 2 0 0 0 2 0 0 0 3 0 7 0 4 1 0 3 6 1 0 1 0 0 0 0 0 0 0 0 0 1 4 0 143 2 0 0 0 0 1 0 0 0 1 0 1 2 0 0 1 2 1 54 0 7 1 1 1 24 0 0 2 0 0 0 0 0 0 0 0 11 1 111 117 1 0 0 0 0 0 0 2 0 1 0 0 0 0 0 1 1 0 0 0 20 0 0 2 0 0 0 4 0 0 2 0 1 1 1 0 0 0 3 0 0 1 0 0 3 0 1 0 0 0 0 0 0 4 1 0 0 0 0 0 0 4 0 0 0 1 0 0 1 0 1 0 0 0 0 119 0 0 0 0 0 0 0 0 1 15 0 0 0 0 0 38 0 2 0 2 0 0 0 0 0 11 0 0 0 0 0 0 0 0 0 0 0 0 0 3 2 1 0 0 0 1 0 0 0 0 0 0 0 0 0 0 2 0 0 0 0 1 0 0 0 0 0 0 0 0 43 15 0 0 0 95 0 0 0 0 0 2 3 3 0 2 0 0 0 0 0 1 0 0 0 1 8 0 0 0 9 30 0 0 0 0 0 0 1 0 0 0 0 0 0 0 0 0 0 0 0 0 0 0 0 0 0 0 0 41 22 0 0 0 0 2 0 46 5 1 1 0 5 1 0 0 0 2 32 0 0 0 0 0 0 23 2 3 2 1 2 3 1 0 0 0 0 0 0 0 0 0 1 0 0 0 0 0 0 0 0 3 0 0 4 1 0 25 27 20 0 10 75 66 1 0 0 11 0 2 0 105 0 0 0 0 0 0 0 0 0 0 0 2 0 0 1 3 0 0 0 1 3 0 0 0 0 0 0 3 0 0 0 0 0 0 0 1 0 0 0 0 0 0 0 0 0 0 0 1 0 0 0 0 0 0 0 0 0 0 1 0 0 0 0 4 0 0 0 0 0 7 0 0 1 0 0 0 0 1 0 0 0 1 0 2 0 0 0 0 1 1 0 235 541 0 0 0 0 0 0 0 0 1 0 0 0 0 0 33 0 0 0 0 3 0 1 4 1 0 0 0 1 3 0 0 0 0 0 0 0 0 3 1 2 4 0 2 0 0 0 1 1 0 0 0 0 0 0 0 1 1 2 0 0 0 1 0 3 0 0 0 1 0 0 0 0 0 0 0 111 0 10 9 1 0 3 7 7 0 0 0 1 0 1 1 1 0 5 0 0 1 0 1 1 0 0 0 0 0 0 3 2 52 0 1 1 2 0 0 5 5 0 39 3 0 0 0 0 2 0 0 0 0 0 1 0 0 0 2 1 0 0 0 1 0 2 0 0 0 0 2 0 0 0 1 1 0 0 0 0 0 0 0 2 0 0 1 4 0 0 2 0 5 0 5 2 5 3 0 1 1 0 0 2 0 0 0 0 8 4 2 0 0 4 0 1 1 0 0 1 0 0 1 0 0 0 0 3 0 5 1 0 0 0 2 1 0 0 0 0 0 0 0 0 0 0 0 0 0 0 0 2 0 0 46 0 0 2 2 0 0 0 0 0 0 0 0 0 0 0 0 0 3 0 0 5 1 0 0 0 0 0 0 0 0 0 0 0 0 0 0 0 0 1 0 0 0 2 0 0 0 0 0 0 0 0 0 1 0 0 0 0 0 0 0 3 0 0 0 0 0 2 1 0 2 5 2 0 13 3 138 0 0 0 0 1 0 0 2 0 1 0 0 0 0 0 0 0 0 0 0 0 5 0 1 0 0 1 0 1 0 0 0 0 1 0 0 0 2 0 0 0 0 0 0 0 0 0 2 0 0 0 1 0 0 0 0 0 0 1 0 0 0 0 0 0 0 0 0 0 0 0 1 1 19 0 0 4 0 0 0 1 0 0 1 0 2 0 0 0 1 2 0 2 0 0 0 3 4 1 0 0 0 1 0 0 1 3 0 2 0 0 0 2 0 2 0 0 2 0 0 2 1 0 0 1 0 0 0 0 0 0 0 3 0 0 0 0 0 1 1 1 0 1 0 0 0 0 0 1 0 13 0 0 0 0 0 0 0 0 0 0 0 0 0 0 1 0 0 1 0 3 2 2 1 4 29 0 1 0 2 0 0 6 0 0 11 2 2 0 0 1 1 1 0 0 10 0 0 1 2 0 1 0 0 0 0 0 0 0 1 2 0 1 1 0 0 1 1 1 2 0 0 13 0 0 0 1 0 0 2 0 0 17 1 0 1 5 0 0 1 0 0 0 0 0 0 0 0 1 1 0 0 0 0 31 0 0 0 0 0 0 1 0 2 0 0 0 2 0 3 0 0 2 0 0 0 0 0 0 1 0 0 1 2 1 0 0 0 1 0 0 0 0 0 0 0 0 0 0 0 0 0 0 2 2 0 5 1 4 0 0 0 1 2 0 0 0 1 1 0 0 0 0 2 0 0 0 0 0 0 38 1 2 0 0 0 0 1 1 4 0 0 0 0 0 0 2 2 0 0 0 0 2 0 0 0 3 0 0 4 1 0 0 0 0 0 5 0 0 0 0 0 0 0 2 0 0 8 0 0 0 0 0 3 0 0 2 0 0 0 0 0 0 0 0 0 0 0 0 0 4 0 13 0 0 0 3 0 0 0 0 0 0 0 0 0 0 0 0 0 0 0 0 2 0 0 0 0 2 0 1 0 41 0 1 0 0 0 0 0 2 0 0 0 0 1 0 0 0 0 0 66 2 0 0 0 2 0 3 0 3 0 0 0 0 0 5 2 1 0 3 0 0 0 2 3 0 0 0 0 0 0 0 1 0 0 0 0 0 0 0 0 0 1 2 1 2 0 0 0 0 2 2 0 0 0 0 0 0 0 0 0 0 0 0 0 1 0 1 0 0 0 116 0 0 0 0 0 0 0 0 0 0 1 66 0 0 0 0 0 0 0 0 0 0 1 0 0 0 0 0 0 0 1 2 0 1 0 0 0 0 0 7 1 1 0 0 0 0 1 0 0 0 5 0 1 0 3 0 336 0 0 0 0 0 0 1 0 0 1 0 2 2 0 13 0 3 1 0 0 0 1 0 5 1 1 1 0 0 0 2 0 0 1 2 0 1 3 0 0 0 0 0 0 0 0 0 0 0 0 0 0 2 0 0 0 1 1 0 1 0 0 0 0 0 4 0 0 1 0 0 0 0 0 0 1 0 0 2 0 0 0 0 0 0 0 0 0 3 0 0 0 0 0 0 0 0 0 0 1 0 0 0 0 0 0 0 0 1 0 0 0 1 1 0 0 2 0 0 0 1 4 0 0 0 0 0 0 0 1 0 0 4 
Printing Sanity2
Heartbeat CPU 0 instructions: 60000003 cycles: 46326920 heartbeat IPC: 0.310198 cumulative IPC: 0.310198 (Simulation time: 0 hr 3 min 59 sec) 
*** Reached end of trace for Core: 0 Repeating trace: traces/spec2k17/srv_20.champsimtrace.xz
Heartbeat CPU 0 instructions: 70000003 cycles: 78959217 heartbeat IPC: 0.306445 cumulative IPC: 0.30831 (Simulation time: 0 hr 4 min 57 sec) 
Heartbeat CPU 0 instructions: 80000000 cycles: 111440248 heartbeat IPC: 0.307872 cumulative IPC: 0.308164 (Simulation time: 0 hr 5 min 54 sec) 
Heartbeat CPU 0 instructions: 90000001 cycles: 144006928 heartbeat IPC: 0.307062 cumulative IPC: 0.307888 (Simulation time: 0 hr 6 min 49 sec) 
*** Reached end of trace for Core: 0 Repeating trace: traces/spec2k17/srv_20.champsimtrace.xz
Heartbeat CPU 0 instructions: 100000001 cycles: 176599645 heartbeat IPC: 0.306817 cumulative IPC: 0.307673 (Simulation time: 0 hr 7 min 47 sec) 
Heartbeat CPU 0 instructions: 110000000 cycles: 209155460 heartbeat IPC: 0.307165 cumulative IPC: 0.307588 (Simulation time: 0 hr 8 min 46 sec) 
Heartbeat CPU 0 instructions: 120000000 cycles: 241679587 heartbeat IPC: 0.307464 cumulative IPC: 0.30757 (Simulation time: 0 hr 9 min 44 sec) 
*** Reached end of trace for Core: 0 Repeating trace: traces/spec2k17/srv_20.champsimtrace.xz
Heartbeat CPU 0 instructions: 130000000 cycles: 274247751 heartbeat IPC: 0.307048 cumulative IPC: 0.307505 (Simulation time: 0 hr 10 min 43 sec) 
Heartbeat CPU 0 instructions: 140000000 cycles: 306815702 heartbeat IPC: 0.30705 cumulative IPC: 0.307455 (Simulation time: 0 hr 11 min 43 sec) 
Heartbeat CPU 0 instructions: 150000000 cycles: 339318546 heartbeat IPC: 0.307665 cumulative IPC: 0.307476 (Simulation time: 0 hr 12 min 41 sec) 
*** Reached end of trace for Core: 0 Repeating trace: traces/spec2k17/srv_20.champsimtrace.xz
Heartbeat CPU 0 instructions: 160000003 cycles: 371830250 heartbeat IPC: 0.307582 cumulative IPC: 0.307485 (Simulation time: 0 hr 13 min 40 sec) 
Heartbeat CPU 0 instructions: 170000001 cycles: 404455698 heartbeat IPC: 0.306509 cumulative IPC: 0.307404 (Simulation time: 0 hr 14 min 37 sec) 
Heartbeat CPU 0 instructions: 180000001 cycles: 436820315 heartbeat IPC: 0.308979 cumulative IPC: 0.307524 (Simulation time: 0 hr 15 min 37 sec) 
*** Reached end of trace for Core: 0 Repeating trace: traces/spec2k17/srv_20.champsimtrace.xz
Heartbeat CPU 0 instructions: 190000002 cycles: 469338934 heartbeat IPC: 0.307516 cumulative IPC: 0.307524 (Simulation time: 0 hr 16 min 38 sec) 
Heartbeat CPU 0 instructions: 200000000 cycles: 501964511 heartbeat IPC: 0.306508 cumulative IPC: 0.307456 (Simulation time: 0 hr 17 min 34 sec) 
Heartbeat CPU 0 instructions: 210000002 cycles: 534325812 heartbeat IPC: 0.309011 cumulative IPC: 0.307553 (Simulation time: 0 hr 18 min 34 sec) 
*** Reached end of trace for Core: 0 Repeating trace: traces/spec2k17/srv_20.champsimtrace.xz
Heartbeat CPU 0 instructions: 220000000 cycles: 566863418 heartbeat IPC: 0.307337 cumulative IPC: 0.30754 (Simulation time: 0 hr 19 min 34 sec) 
Heartbeat CPU 0 instructions: 230000000 cycles: 599463271 heartbeat IPC: 0.30675 cumulative IPC: 0.307496 (Simulation time: 0 hr 20 min 30 sec) 
Heartbeat CPU 0 instructions: 240000000 cycles: 631916129 heartbeat IPC: 0.308139 cumulative IPC: 0.30753 (Simulation time: 0 hr 21 min 28 sec) 
*** Reached end of trace for Core: 0 Repeating trace: traces/spec2k17/srv_20.champsimtrace.xz
Heartbeat CPU 0 instructions: 250000002 cycles: 664505340 heartbeat IPC: 0.30685 cumulative IPC: 0.307496 (Simulation time: 0 hr 22 min 31 sec) 
Finished CPU 0 instructions: 200000003 cycles: 650415854 cumulative IPC: 0.307496 (Simulation time: 0 hr 22 min 31 sec) 

ChampSim completed all CPUs

Region of Interest Statistics

CPU 0 cumulative IPC: 0.307496 instructions: 200000003 cycles: 650415854
ITLB TOTAL     ACCESS:   34723116  HIT:   32689432  MISS:    2033684  HIT %:    94.1431  MISS %:    5.85686   MPKI: 10.1684
ITLB LOAD TRANSLATION ACCESS:   34723116  HIT:   32689432  MISS:    2033684  HIT %:    94.1431  MISS %:    5.85686   MPKI: 10.1684
ITLB PREFETCH  REQUESTED:          0  ISSUED:          0  USEFUL:          0  USELESS:          0
ITLB USEFUL LOAD PREFETCHES:          0 PREFETCH ISSUED TO LOWER LEVEL:          0  ACCURACY: -nan
ITLB TIMELY PREFETCHES:          0 LATE PREFETCHES: 0 DROPPED PREFETCHES: 0
ITLB PREFETCHES SAME FILL-ORIGIN LEVEL: 0 DIFFERENT FILL-ORIGIN LEVEL: 0
ITLB AVERAGE MISS LATENCY: 9.06089 cycles
ITLB RQ	ACCESS:   40949679	FORWARD:          0	MERGED:    5741967	TO_CACHE:   35207712

DTLB TOTAL     ACCESS:   46482833  HIT:   44641117  MISS:    1841716  HIT %:    96.0379  MISS %:    3.96214   MPKI: 9.20858
DTLB LOAD TRANSLATION ACCESS:   46482833  HIT:   44641117  MISS:    1841716  HIT %:    96.0379  MISS %:    3.96214   MPKI: 9.20858
DTLB PREFETCH  REQUESTED:          0  ISSUED:          0  USEFUL:          0  USELESS:          0
DTLB USEFUL LOAD PREFETCHES:          0 PREFETCH ISSUED TO LOWER LEVEL:          0  ACCURACY: -nan
DTLB TIMELY PREFETCHES:          0 LATE PREFETCHES: 0 DROPPED PREFETCHES: 0
DTLB PREFETCHES SAME FILL-ORIGIN LEVEL: 0 DIFFERENT FILL-ORIGIN LEVEL: 0
DTLB AVERAGE MISS LATENCY: 9.16076 cycles
DTLB RQ	ACCESS:   61128000	FORWARD:          0	MERGED:   14581442	TO_CACHE:   46546558

STLB TOTAL     ACCESS:    4602449  HIT:    4589851  MISS:      12598  HIT %:    99.7263  MISS %:   0.273724   MPKI: 0.06299
STLB LOAD TRANSLATION ACCESS:    3875400  HIT:    3865693  MISS:       9707  HIT %:    99.7495  MISS %:   0.250477   MPKI: 0.048535
STLB TRANSLATION FROM L1D PREFETCHER ACCESS:     727049  HIT:     724158  MISS:       2891  HIT %:    99.6024  MISS %:   0.397635   MPKI: 0.014455
STLB PREFETCH  REQUESTED:          0  ISSUED:          0  USEFUL:       2401  USELESS:        486
STLB USEFUL LOAD PREFETCHES:       2401 PREFETCH ISSUED TO LOWER LEVEL:          0  ACCURACY: inf
STLB TIMELY PREFETCHES:       2401 LATE PREFETCHES: 0 DROPPED PREFETCHES: 1845412
STLB PREFETCHES SAME FILL-ORIGIN LEVEL: 0 DIFFERENT FILL-ORIGIN LEVEL: 0
STLB AVERAGE MISS LATENCY: 38.439 cycles
STLB RQ	ACCESS:    6778229	FORWARD:          0	MERGED:     209344	TO_CACHE:    6568885

STLB Hit, L1D data hit: 0
STLB Hit, L2C data hit: 0
STLB Hit, LLC data hit: 0
STLB Hit, LLC data miss: 0
STLB STLB hints to L2: 0
L1D TOTAL     ACCESS:   59896520  HIT:   55040946  MISS:    4855574  HIT %:    91.8934  MISS %:     8.1066   MPKI: 24.2779
L1D LOAD      ACCESS:   34195460  HIT:   31217704  MISS:    2977756  HIT %:     91.292  MISS %:    8.70804   MPKI: 14.8888
L1D RFO       ACCESS:   24941145  HIT:   23763149  MISS:    1177996  HIT %:    95.2769  MISS %:     4.7231   MPKI: 5.88998
L1D PREFETCH  ACCESS:     759915  HIT:      60093  MISS:     699822  HIT %:    7.90786  MISS %:    92.0921   MPKI: 3.49911
AGUS PREFETCH L1 MISS: 0
L1D PREFETCH  REQUESTED:    5904977  ISSUED:    5904977  USEFUL:      14999  USELESS:     684715
L1D USEFUL LOAD PREFETCHES:      14999 PREFETCH ISSUED TO LOWER LEVEL:     699822  ACCURACY: 2.14326
L1D TIMELY PREFETCHES:      14999 LATE PREFETCHES: 0 DROPPED PREFETCHES: 2128462
L1D PREFETCHES SAME FILL-ORIGIN LEVEL: 699822 DIFFERENT FILL-ORIGIN LEVEL: 0
L1D AVERAGE MISS LATENCY: 21.0892 cycles
L1D RQ	ACCESS:   47503839	FORWARD:          0	MERGED:   12862534	TO_CACHE:   34342421
L1D WQ	ACCESS:   26961101	FORWARD:     298884	MERGED:     175522	TO_CACHE:   26785579
L1D PQ	ACCESS:    3002148	FORWARD:          0	MERGED:      99319	TO_CACHE:    2902829

L1D UNIQUE REGIONS ACCESSED: 0
L1D REGIONS CONFLICTS: 0
L1D Cross Page Prefetch Requests: 3002148
L1D Same Page Prefetch Requests: 0
L1D ROI Sum of L1D PQ occupancy: 92688557
L1D PREFETCHES PUSHED FROM L2C: 0
L1I TOTAL     ACCESS:   39415882  HIT:   28799377  MISS:   10616505  HIT %:    73.0654  MISS %:    26.9346   MPKI: 53.0825
L1I LOAD      ACCESS:   39415882  HIT:   28799377  MISS:   10616505  HIT %:    73.0654  MISS %:    26.9346   MPKI: 53.0825
L1I PREFETCH  REQUESTED:          0  ISSUED:          0  USEFUL:          0  USELESS:          0
L1I USEFUL LOAD PREFETCHES:          0 PREFETCH ISSUED TO LOWER LEVEL:          0  ACCURACY: -nan
L1I TIMELY PREFETCHES:          0 LATE PREFETCHES: 0 DROPPED PREFETCHES: 0
L1I PREFETCHES SAME FILL-ORIGIN LEVEL: 0 DIFFERENT FILL-ORIGIN LEVEL: 0
L1I AVERAGE MISS LATENCY: 17.3934 cycles
L1I RQ	ACCESS:   57975807	FORWARD:          0	MERGED:   17026128	TO_CACHE:   40949679

BTB TOTAL     ACCESS:   29993993  HIT:   17272552  MISS:   12721441  HIT %:    57.5867  MISS %:    42.4133   MPKI: 63.6072
BTB BRANCH_DIRECT_JUMP	ACCESS:    2025963  HIT:    1135055  MISS:     890908
BTB BRANCH_INDIRECT	ACCESS:   11876540  HIT:    7045664  MISS:    4830876
BTB BRANCH_CONDITIONAL	ACCESS:    7549909  HIT:    6212600  MISS:    1337309
BTB BRANCH_DIRECT_CALL	ACCESS:    3602861  HIT:    1507612  MISS:    2095249
BTB BRANCH_INDIRECT_CALL	ACCESS:     667964  HIT:     262432  MISS:     405532
BTB BRANCH_RETURN	ACCESS:    4270756  HIT:    1109189  MISS:    3161567
BTB BRANCH_OTHER ACCESS:          0  HIT:          0  MISS:          0

L2C TOTAL     ACCESS:   20550511  HIT:   18460831  MISS:    2089680  HIT %:    89.8315  MISS %:    10.1685   MPKI: 10.4484
L2C LOAD      ACCESS:   13594227  HIT:   12014117  MISS:    1580110  HIT %:    88.3766  MISS %:    11.6234   MPKI: 7.90055
L2C DATA LOAD MPKI: 2.05264
L2C INSTRUCTION LOAD MPKI: 5.8479
L2C RFO       ACCESS:    1177996  HIT:     929624  MISS:     248372  HIT %:    78.9157  MISS %:    21.0843   MPKI: 1.24186
L2C PREFETCH  ACCESS:     699818  HIT:     537224  MISS:     162594  HIT %:    76.7662  MISS %:    23.2338   MPKI: 0.81297
AGUS PREFETCH L1 MISS: 0
L2C DATA PREFETCH MPKI: 0.81297
L2C INSTRUCTION PREFETCH MPKI: 0
L2C WRITEBACK ACCESS:    2074236  HIT:    2002914  MISS:      71322  HIT %:    96.5615  MISS %:    3.43847   MPKI: 0.35661
L2C LOAD TRANSLATION ACCESS:      10595  HIT:       4770  MISS:       5825  HIT %:    45.0212  MISS %:    54.9788   MPKI: 0.029125
L2C TRANSLATION FROM L1D PREFETCHER ACCESS:    2993639  HIT:    2972182  MISS:      21457  HIT %:    99.2832  MISS %:   0.716753   MPKI: 0.107285
L2C PREFETCH  REQUESTED:          0  ISSUED:          0  USEFUL:      15114  USELESS:     168384
L2C USEFUL LOAD PREFETCHES:      15114 PREFETCH ISSUED TO LOWER LEVEL:     162594  ACCURACY: 9.29555
L2C TIMELY PREFETCHES:      15114 LATE PREFETCHES: 0 DROPPED PREFETCHES: 0
L2C PREFETCHES SAME FILL-ORIGIN LEVEL: 0 DIFFERENT FILL-ORIGIN LEVEL: 0
L2C AVERAGE MISS LATENCY: 31.3225 cycles
L2C RQ	ACCESS:   17776492	FORWARD:          0	MERGED:          0	TO_CACHE:   17776458
L2C WQ	ACCESS:    2074236	FORWARD:         38	MERGED:          0	TO_CACHE:    2074236
L2C PQ	ACCESS:     699822	FORWARD:          0	MERGED:          0	TO_CACHE:     699818

L2C Instructions Evicting Data 466882
L2C Translations Evicting Data 13782
L2C Data Evicting Data 383911
L2C Instructions Evicting Instructions 690150
L2C Translations Evicting Instructions 13050
L2C Data Evicting Instructions 424313
L2C Instructions Evicting Translations 12549
L2C Translations Evicting Translations 450
L2C Data Evicting Translations 13271
L2C Dense regions hint from L2: 0
PSCL5 TOTAL     ACCESS:    1858010  HIT:    1858010  MISS:          0  HIT %:        100  MISS %:          0   MPKI: 0
PSCL5 LOAD TRANSLATION ACCESS:       9707  HIT:       9707  MISS:          0  HIT %:        100  MISS %:          0   MPKI: 0
PSCL5 TRANSLATION FROM L1D PREFETCHER ACCESS:    1848303  HIT:    1848303  MISS:          0  HIT %:        100  MISS %:          0   MPKI: 0
PSCL5 PREFETCH  REQUESTED:          0  ISSUED:          0  USEFUL:          0  USELESS:          0
PSCL5 USEFUL LOAD PREFETCHES:          0 PREFETCH ISSUED TO LOWER LEVEL:          0  ACCURACY: -nan
PSCL5 TIMELY PREFETCHES:          0 LATE PREFETCHES: 0 DROPPED PREFETCHES: 0
PSCL5 PREFETCHES SAME FILL-ORIGIN LEVEL: 0 DIFFERENT FILL-ORIGIN LEVEL: 0

PSCL4 TOTAL     ACCESS:    1349072  HIT:    1348975  MISS:         97  HIT %:    99.9928  MISS %: 0.00719013   MPKI: 0.000485
PSCL4 LOAD TRANSLATION ACCESS:       8823  HIT:       8726  MISS:         97  HIT %:    98.9006  MISS %:     1.0994   MPKI: 0.000485
PSCL4 TRANSLATION FROM L1D PREFETCHER ACCESS:    1340249  HIT:    1340249  MISS:          0  HIT %:        100  MISS %:          0   MPKI: 0
PSCL4 PREFETCH  REQUESTED:          0  ISSUED:          0  USEFUL:          0  USELESS:          0
PSCL4 USEFUL LOAD PREFETCHES:          0 PREFETCH ISSUED TO LOWER LEVEL:          0  ACCURACY: -nan
PSCL4 TIMELY PREFETCHES:          0 LATE PREFETCHES: 0 DROPPED PREFETCHES: 0
PSCL4 PREFETCHES SAME FILL-ORIGIN LEVEL: 0 DIFFERENT FILL-ORIGIN LEVEL: 0

PSCL3 TOTAL     ACCESS:    1783136  HIT:    1783039  MISS:         97  HIT %:    99.9946  MISS %: 0.00543985   MPKI: 0.000485
PSCL3 LOAD TRANSLATION ACCESS:       9022  HIT:       8925  MISS:         97  HIT %:    98.9249  MISS %:    1.07515   MPKI: 0.000485
PSCL3 TRANSLATION FROM L1D PREFETCHER ACCESS:    1774114  HIT:    1774114  MISS:          0  HIT %:        100  MISS %:          0   MPKI: 0
PSCL3 PREFETCH  REQUESTED:          0  ISSUED:          0  USEFUL:          0  USELESS:          0
PSCL3 USEFUL LOAD PREFETCHES:          0 PREFETCH ISSUED TO LOWER LEVEL:          0  ACCURACY: -nan
PSCL3 TIMELY PREFETCHES:          0 LATE PREFETCHES: 0 DROPPED PREFETCHES: 0
PSCL3 PREFETCHES SAME FILL-ORIGIN LEVEL: 0 DIFFERENT FILL-ORIGIN LEVEL: 0

PSCL2 TOTAL     ACCESS:     791690  HIT:     790907  MISS:        783  HIT %:    99.9011  MISS %:  0.0989023   MPKI: 0.003915
PSCL2 LOAD TRANSLATION ACCESS:       9770  HIT:       8987  MISS:        783  HIT %:    91.9857  MISS %:    8.01433   MPKI: 0.003915
PSCL2 TRANSLATION FROM L1D PREFETCHER ACCESS:     781920  HIT:     781920  MISS:          0  HIT %:        100  MISS %:          0   MPKI: 0
PSCL2 PREFETCH  REQUESTED:          0  ISSUED:          0  USEFUL:          0  USELESS:          0
PSCL2 USEFUL LOAD PREFETCHES:          0 PREFETCH ISSUED TO LOWER LEVEL:          0  ACCURACY: -nan
PSCL2 TIMELY PREFETCHES:          0 LATE PREFETCHES: 0 DROPPED PREFETCHES: 0
PSCL2 PREFETCHES SAME FILL-ORIGIN LEVEL: 0 DIFFERENT FILL-ORIGIN LEVEL: 0

LLC TOTAL     ACCESS:    2359801  HIT:    2327739  MISS:      32062  HIT %:    98.6413  MISS %:    1.35867   MPKI: 0.16031
LLC LOAD      ACCESS:    1580111  HIT:    1569310  MISS:      10801  HIT %:    99.3164  MISS %:    0.68356   MPKI: 0.054005
LLC RFO       ACCESS:     248372  HIT:     235414  MISS:      12958  HIT %:    94.7828  MISS %:    5.21717   MPKI: 0.06479
LLC PREFETCH  ACCESS:     162594  HIT:     154724  MISS:       7870  HIT %:    95.1597  MISS %:    4.84028   MPKI: 0.03935
AGUS PREFETCH L1 MISS: 0
LLC WRITEBACK ACCESS:     341442  HIT:     341262  MISS:        180  HIT %:    99.9473  MISS %:  0.0527176   MPKI: 0.0009
LLC LOAD TRANSLATION ACCESS:       5825  HIT:       5708  MISS:        117  HIT %:    97.9914  MISS %:    2.00858   MPKI: 0.000585
LLC TRANSLATION FROM L1D PREFETCHER ACCESS:      21457  HIT:      21321  MISS:        136  HIT %:    99.3662  MISS %:   0.633826   MPKI: 0.00068
LLC PREFETCH  REQUESTED:          0  ISSUED:          0  USEFUL:        299  USELESS:       3968
LLC USEFUL LOAD PREFETCHES:        299 PREFETCH ISSUED TO LOWER LEVEL:       7870  ACCURACY: 3.79924
LLC TIMELY PREFETCHES:        299 LATE PREFETCHES: 0 DROPPED PREFETCHES: 0
LLC PREFETCHES SAME FILL-ORIGIN LEVEL: 0 DIFFERENT FILL-ORIGIN LEVEL: 0
LLC AVERAGE MISS LATENCY: 152.903 cycles
LLC RQ	ACCESS:    1855765	FORWARD:          0	MERGED:          0	TO_CACHE:    1855765
LLC WQ	ACCESS:     341442	FORWARD:          0	MERGED:          0	TO_CACHE:     341442
LLC PQ	ACCESS:     162594	FORWARD:          0	MERGED:          0	TO_CACHE:     162594

LLC Dense regions hint to LLC: 0

RAW hits: 1434096
Loads Generated: 48937935
Loads sent to L1D: 47503839
Stores Generated: 26961100
Stores sent to L1D: 26961101
Major fault: 0 Minor fault: 1949
Allocated PAGES: 1949
CPU 0 L1D 
Prefetch count 699822 BOP and RL 

DRAM Statistics
 CHANNEL 0
 RQ ROW_BUFFER_HIT:       7161  ROW_BUFFER_MISS:      24716
 DBUS_CONGESTED:         52
 WQ ROW_BUFFER_HIT:       2020  ROW_BUFFER_MISS:      12986  FULL:          0

 AVG_CONGESTED_CYCLE: 5
 All warmup complete: 2
Channel 0 Bank busy for read cycles: 0
Channel 0 Bank busy for write cycles: 0
Channel 0
Rank 0
0banks busy for read cycles: 647041649
0banks busy for write cycles: 5352
1banks busy for read cycles: 1396741
1banks busy for write cycles: 639400
2banks busy for read cycles: 398505
2banks busy for write cycles: 166842
3banks busy for read cycles: 184038
3banks busy for write cycles: 85630
4banks busy for read cycles: 99842
4banks busy for write cycles: 59202
5banks busy for read cycles: 63788
5banks busy for write cycles: 48219
6banks busy for read cycles: 42194
6banks busy for write cycles: 36390
7banks busy for read cycles: 26810
7banks busy for write cycles: 40856
8banks busy for read cycles: 20170
8banks busy for write cycles: 60227

CPU 0 Branch Prediction Accuracy: 99.8849% MPKI: 0.202245 Average ROB Occupancy at Mispredict: 32.1989
Branch types
NOT_BRANCH: 164866932 82.4335%
BRANCH_DIRECT_JUMP: 2025963 1.01298%
BRANCH_INDIRECT: 11876540 5.93827%
BRANCH_CONDITIONAL: 12688704 6.34435%
BRANCH_DIRECT_CALL: 3602861 1.80143%
BRANCH_INDIRECT_CALL: 667964 0.333982%
BRANCH_RETURN: 4270756 2.13538%
BRANCH_OTHER: 0 0%

DRAM PAGES: 1048576
Allocated PAGES: 1949
