
*** ChampSim Multicore Out-of-Order Simulator ***

Warmup Instructions: 50000000
Simulation Instructions: 200000000
Number of CPUs: 1
LLC sets: 2048
LLC ways: 16
Off-chip DRAM Size: 4096 MB Channels: 1 Width: 64-bit Data Rate: 6400 MT/s
CPU 0 runs traces/spec2k17/srv_1.champsimtrace.xz
.xz
BTB has LRU replacement policy
ITLB has LRU replacement policy
DTLB has LRU replacement policy
STLB has LRU replacement policy
L1I has LRU replacement policy
CPU 0 l1d next line prefetcher
L1D has LRU replacement policy
Initialize SRRIP state for L2C
Initialize DRRIP state for LLC
Offsets elements: 
Potential of Offsets elements: 
rewards of Offsets elements: 
Printing Sanity1
offset list size2335
Heartbeat CPU 0 instructions: 10000000 cycles: 4031965 heartbeat IPC: 2.48018 cumulative IPC: 2.48018 (Simulation time: 0 hr 0 min 47 sec) 
Offsets elements: 
Potential of Offsets elements: 
rewards of Offsets elements: 0 217 0 0 0 0 0 0 0 141 0 238 0 0 0 0 10 0 0 32 0 0 0 0 0 0 0 0 0 0 28 205 15 2 0 0 0 0 0 0 0 0 15 0 0 0 0 0 0 0 3 0 0 0 0 308 0 0 0 0 0 0 0 0 0 0 0 0 0 0 0 0 0 0 24 32 0 0 0 480 0 0 0 0 0 0 0 0 0 0 0 0 0 0 0 0 0 0 0 0 0 0 0 0 0 0 0 0 0 363 0 224 0 0 0 0 0 0 0 0 0 0 0 0 0 0 0 0 0 0 0 0 868 288 0 0 0 0 0 0 0 0 0 0 0 0 0 0 0 0 0 0 204 0 0 0 0 0 0 0 0 0 0 0 0 0 0 0 0 0 0 0 0 0 0 0 0 0 0 192 0 0 0 0 0 0 0 0 0 0 0 0 385 0 0 0 0 0 0 0 0 0 0 0 0 0 64 0 0 0 0 0 0 0 0 0 0 0 0 0 0 0 0 0 0 0 0 0 0 0 0 0 0 0 0 0 0 0 0 0 0 0 0 0 0 0 0 0 0 0 0 0 0 0 0 0 0 0 0 0 0 0 0 0 0 0 0 0 0 0 0 0 0 0 0 0 0 0 0 0 0 0 0 0 0 0 0 0 0 0 0 0 0 0 0 0 0 0 0 0 0 0 0 0 0 0 0 0 0 0 0 0 0 0 16 401 0 0 0 0 0 0 0 0 0 0 0 0 0 0 0 0 0 0 0 0 0 0 0 0 0 0 0 0 0 0 0 0 0 0 0 0 0 0 0 0 0 0 0 0 0 0 0 0 0 0 0 0 0 0 0 0 0 0 0 0 0 0 0 0 0 0 0 0 0 0 0 0 0 0 0 0 0 0 0 0 0 0 0 0 0 0 0 0 0 0 0 0 0 0 0 0 0 0 0 0 0 0 0 0 0 0 0 0 0 304 0 0 0 0 0 0 0 0 0 0 0 0 0 0 0 0 0 0 0 0 0 0 0 0 0 0 0 0 0 0 0 0 0 0 0 0 0 0 0 0 0 0 0 0 0 0 0 0 0 0 0 0 0 0 0 0 0 0 0 0 0 0 0 0 0 0 0 0 0 0 0 0 0 0 0 0 0 0 0 0 0 0 0 0 0 0 0 0 0 0 0 0 0 0 0 0 0 0 0 0 0 0 0 0 0 0 0 0 444 0 0 0 0 0 0 0 0 0 0 0 0 0 0 0 0 0 0 0 0 0 0 0 0 0 0 0 0 0 0 0 0 0 0 0 0 0 0 0 237 0 0 0 18 0 0 0 0 0 0 0 0 0 0 0 0 0 0 0 0 0 0 0 0 0 0 0 0 0 0 0 0 0 0 0 0 0 0 0 0 0 0 0 0 0 0 0 0 0 0 0 0 0 0 0 0 0 0 0 0 0 0 0 0 0 0 0 0 0 0 0 0 0 0 0 0 0 0 0 0 0 0 0 0 0 0 0 0 0 0 0 0 0 0 0 0 0 0 0 0 0 0 0 0 0 0 0 0 48 0 0 0 0 0 0 0 0 0 0 0 0 0 0 0 0 244 0 0 0 0 0 0 0 0 0 0 0 0 0 0 0 0 0 0 0 0 0 0 0 0 0 0 0 0 0 0 0 0 0 0 0 0 0 0 0 0 0 0 0 0 0 0 0 0 0 0 0 0 0 0 0 416 79 0 0 0 0 0 0 0 0 0 0 0 0 0 0 0 0 0 0 0 0 0 0 0 0 0 0 0 0 0 0 0 0 171 0 0 0 0 0 0 0 0 0 0 0 0 0 0 0 0 0 0 258 0 0 0 0 0 0 0 0 0 0 0 0 0 0 0 0 0 0 0 0 0 0 0 0 0 0 0 0 0 0 0 0 0 0 0 0 0 0 0 0 0 0 0 0 0 0 0 0 0 0 0 0 0 0 0 0 0 0 0 0 0 0 0 0 0 0 0 0 0 0 0 0 0 0 0 0 0 0 0 0 0 0 0 0 0 0 0 0 0 0 0 0 0 0 0 0 0 73 0 0 0 0 0 0 0 0 0 0 0 0 0 0 0 0 0 0 0 0 0 0 0 0 0 0 0 0 0 0 0 0 0 0 0 0 0 0 0 0 0 0 0 0 0 0 0 0 0 0 0 0 0 0 0 0 0 0 0 0 0 0 0 0 0 0 0 0 0 0 0 0 0 0 0 0 0 0 0 0 0 0 0 0 0 45 0 0 0 0 0 0 0 0 0 0 0 0 0 0 0 0 0 0 0 0 0 0 0 0 0 0 0 0 0 0 0 0 0 0 0 0 0 0 0 0 0 0 164 0 0 0 0 0 18 0 0 0 0 0 0 0 0 0 0 0 0 0 0 0 0 0 0 0 0 0 0 0 0 0 0 0 0 0 0 0 0 0 0 0 0 0 0 0 0 0 0 0 0 0 0 0 0 0 0 0 0 0 0 0 0 0 0 0 0 0 0 0 0 0 0 0 0 0 0 0 0 0 0 0 0 0 0 0 0 0 0 0 0 0 0 0 0 0 0 0 0 0 0 0 0 0 0 0 0 0 0 0 0 0 0 0 0 0 0 0 0 0 0 0 0 0 0 0 0 0 0 0 0 0 0 0 0 0 0 0 0 0 0 0 0 0 0 0 0 0 0 0 0 0 0 0 0 18 0 0 0 0 0 0 0 0 0 0 0 0 0 0 0 0 0 0 0 0 0 0 0 0 0 0 0 0 0 32 0 0 0 0 0 0 0 0 0 0 0 0 0 0 0 0 0 0 0 0 0 0 0 0 0 0 0 0 0 0 0 0 0 0 77 121 0 0 0 0 0 0 0 0 0 0 0 0 0 24 0 0 0 0 0 0 0 0 0 0 0 0 0 0 0 0 0 0 0 0 0 0 0 0 0 0 0 0 0 0 0 0 0 0 0 0 18 0 0 0 0 0 0 0 0 0 0 0 0 0 0 0 0 0 0 0 0 0 0 0 0 0 0 0 0 0 0 0 0 0 0 0 0 0 0 0 0 0 0 0 0 0 0 0 0 0 0 0 0 0 0 0 0 0 0 0 0 0 0 0 0 0 0 0 0 0 18 0 0 0 0 0 104 0 0 0 0 0 0 0 0 0 0 0 0 0 0 0 0 0 0 0 0 0 0 0 0 0 0 0 0 0 48 0 0 0 0 0 0 0 0 0 0 0 0 0 0 0 0 0 0 0 0 0 0 0 0 0 0 0 0 0 0 0 0 0 0 164 0 0 0 0 0 0 0 0 0 0 0 0 0 0 0 0 0 0 0 0 0 0 0 0 0 0 0 0 0 0 0 0 0 0 0 0 0 0 0 0 0 0 0 0 0 0 0 0 0 0 0 0 0 0 0 0 0 0 0 0 0 0 0 0 0 0 0 0 0 0 0 0 0 0 0 0 0 0 0 0 0 0 0 0 0 0 0 0 0 0 0 0 0 0 0 0 0 0 0 0 0 0 0 0 0 0 0 0 0 0 0 0 0 0 0 0 0 28 0 0 0 0 0 0 0 0 0 0 0 0 0 0 0 0 0 0 0 0 0 0 0 0 0 0 0 0 0 0 0 0 0 0 0 0 0 0 0 0 0 0 0 0 171 12 0 0 0 0 0 0 0 0 0 0 0 0 0 0 0 0 0 0 0 0 0 0 0 0 0 0 0 0 0 0 0 0 0 0 0 0 0 0 0 0 0 0 0 0 51 0 0 0 0 0 0 0 0 0 0 0 0 0 0 0 0 210 0 0 0 0 0 0 0 0 0 0 0 0 0 0 0 0 0 0 0 0 0 0 0 0 0 0 0 0 0 0 0 0 0 64 0 0 0 0 0 0 0 0 0 0 0 0 0 0 0 0 0 0 0 0 0 0 0 0 0 0 0 0 0 0 0 0 0 0 0 0 0 0 0 0 0 0 0 0 0 0 0 0 0 0 0 0 0 0 0 0 0 0 0 0 0 0 0 0 0 0 0 0 0 0 0 0 0 0 0 0 0 0 0 0 0 0 0 0 0 0 0 0 0 0 0 0 0 0 0 157 0 0 0 0 0 0 0 0 0 0 0 0 0 0 0 0 0 0 0 0 0 0 0 0 0 0 0 0 0 0 0 186 0 0 0 0 0 0 0 0 0 0 0 0 237 0 0 0 0 0 0 0 0 0 0 0 0 0 0 0 0 0 0 0 0 0 0 0 0 0 0 0 0 0 0 0 0 0 0 0 0 0 0 0 0 0 0 0 0 0 0 0 0 0 0 0 0 0 0 0 0 0 0 0 186 0 0 0 0 0 0 0 0 0 0 0 0 0 0 0 0 0 0 0 0 0 0 0 0 0 0 0 0 0 0 0 0 0 0 0 0 0 0 0 0 0 0 0 0 0 0 0 0 0 0 0 0 0 0 0 0 0 0 0 0 0 0 0 0 0 0 0 0 0 0 0 0 0 0 0 188 0 130 0 0 0 0 0 0 0 0 0 0 0 0 0 0 0 0 0 0 0 0 0 0 0 0 0 0 0 0 0 0 0 0 0 0 0 0 0 0 0 0 0 0 0 0 0 0 0 0 0 0 0 0 0 0 0 0 0 0 0 0 0 0 0 0 0 0 0 0 0 0 0 0 0 94 77 0 0 0 0 0 0 0 0 0 0 0 0 0 9 0 0 0 0 0 0 0 0 0 0 0 0 0 0 0 0 0 0 331 0 0 0 0 0 0 0 0 0 0 0 0 0 0 0 0 0 0 0 0 0 0 0 0 0 0 0 0 0 0 0 0 0 0 0 0 0 0 0 0 0 0 0 0 0 0 0 0 0 0 0 0 0 0 0 0 0 0 0 0 0 0 0 0 0 0 0 0 0 0 0 0 0 0 0 0 0 0 0 0 0 0 0 0 0 0 0 0 0 0 0 0 0 0 0 0 0 0 0 0 0 0 0 0 0 0 0 0 0 0 0 0 0 0 0 0 0 0 0 0 0 0 0 0 0 0 0 0 0 0 0 0 0 0 0 0 0 0 0 0 0 32 0 0 0 0 0 0 0 0 0 0 0 0 0 0 0 0 0 0 0 0 0 0 0 0 0 0 0 0 0 0 0 0 0 0 0 0 0 0 0 0 0 0 0 0 0 0 0 0 0 0 0 0 0 0 0 0 0 0 0 0 0 0 0 0 0 0 0 0 0 0 0 0 0 0 0 0 0 0 0 0 0 0 0 0 0 0 0 0 0 0 0 0 0 0 0 0 
Printing Sanity2
Heartbeat CPU 0 instructions: 20000003 cycles: 7366251 heartbeat IPC: 2.99914 cumulative IPC: 2.71509 (Simulation time: 0 hr 1 min 33 sec) 
Heartbeat CPU 0 instructions: 30000003 cycles: 10161635 heartbeat IPC: 3.57733 cumulative IPC: 2.95228 (Simulation time: 0 hr 2 min 8 sec) 
*** Reached end of trace for Core: 0 Repeating trace: traces/spec2k17/srv_1.champsimtrace.xz
Heartbeat CPU 0 instructions: 40000001 cycles: 14124568 heartbeat IPC: 2.52338 cumulative IPC: 2.83195 (Simulation time: 0 hr 2 min 56 sec) 
Heartbeat CPU 0 instructions: 50000001 cycles: 17618835 heartbeat IPC: 2.86183 cumulative IPC: 2.83787 (Simulation time: 0 hr 3 min 38 sec) 

Warmup complete CPU 0 instructions: 50000001 cycles: 17618835 (Simulation time: 0 hr 3 min 38 sec) 

Heartbeat CPU 0 instructions: 60000000 cycles: 42418889 heartbeat IPC: 0.403225 cumulative IPC: 0.403225 (Simulation time: 0 hr 4 min 36 sec) 
*** Reached end of trace for Core: 0 Repeating trace: traces/spec2k17/srv_1.champsimtrace.xz
Heartbeat CPU 0 instructions: 70000003 cycles: 76238011 heartbeat IPC: 0.295691 cumulative IPC: 0.341185 (Simulation time: 0 hr 5 min 47 sec) 
Heartbeat CPU 0 instructions: 80000001 cycles: 107709612 heartbeat IPC: 0.317747 cumulative IPC: 0.332997 (Simulation time: 0 hr 6 min 56 sec) 
Heartbeat CPU 0 instructions: 90000000 cycles: 132586103 heartbeat IPC: 0.401986 cumulative IPC: 0.347925 (Simulation time: 0 hr 7 min 53 sec) 
*** Reached end of trace for Core: 0 Repeating trace: traces/spec2k17/srv_1.champsimtrace.xz
Heartbeat CPU 0 instructions: 100000000 cycles: 165316034 heartbeat IPC: 0.305531 cumulative IPC: 0.33853 (Simulation time: 0 hr 8 min 59 sec) 
Heartbeat CPU 0 instructions: 110000000 cycles: 197800134 heartbeat IPC: 0.307843 cumulative IPC: 0.332998 (Simulation time: 0 hr 10 min 6 sec) 
Heartbeat CPU 0 instructions: 120000001 cycles: 222600710 heartbeat IPC: 0.403216 cumulative IPC: 0.341494 (Simulation time: 0 hr 11 min 4 sec) 
*** Reached end of trace for Core: 0 Repeating trace: traces/spec2k17/srv_1.champsimtrace.xz
Heartbeat CPU 0 instructions: 130000000 cycles: 254255589 heartbeat IPC: 0.315907 cumulative IPC: 0.338071 (Simulation time: 0 hr 12 min 9 sec) 
Heartbeat CPU 0 instructions: 140000002 cycles: 287768789 heartbeat IPC: 0.29839 cumulative IPC: 0.333148 (Simulation time: 0 hr 13 min 21 sec) 
Heartbeat CPU 0 instructions: 150000002 cycles: 312498827 heartbeat IPC: 0.404367 cumulative IPC: 0.339121 (Simulation time: 0 hr 14 min 16 sec) 
*** Reached end of trace for Core: 0 Repeating trace: traces/spec2k17/srv_1.champsimtrace.xz
Heartbeat CPU 0 instructions: 160000000 cycles: 343108973 heartbeat IPC: 0.326689 cumulative IPC: 0.337952 (Simulation time: 0 hr 15 min 23 sec) 
Heartbeat CPU 0 instructions: 170000000 cycles: 377518585 heartbeat IPC: 0.290616 cumulative IPC: 0.333426 (Simulation time: 0 hr 16 min 36 sec) 
Heartbeat CPU 0 instructions: 180000000 cycles: 402354108 heartbeat IPC: 0.402649 cumulative IPC: 0.337895 (Simulation time: 0 hr 17 min 32 sec) 
*** Reached end of trace for Core: 0 Repeating trace: traces/spec2k17/srv_1.champsimtrace.xz
Heartbeat CPU 0 instructions: 190000001 cycles: 431931895 heartbeat IPC: 0.338092 cumulative IPC: 0.337909 (Simulation time: 0 hr 18 min 34 sec) 
Heartbeat CPU 0 instructions: 200000002 cycles: 467387412 heartbeat IPC: 0.282044 cumulative IPC: 0.333505 (Simulation time: 0 hr 19 min 50 sec) 
Heartbeat CPU 0 instructions: 210000002 cycles: 492176430 heartbeat IPC: 0.403404 cumulative IPC: 0.337156 (Simulation time: 0 hr 20 min 46 sec) 
*** Reached end of trace for Core: 0 Repeating trace: traces/spec2k17/srv_1.champsimtrace.xz
Heartbeat CPU 0 instructions: 220000000 cycles: 520724634 heartbeat IPC: 0.350285 cumulative IPC: 0.337901 (Simulation time: 0 hr 21 min 49 sec) 
Heartbeat CPU 0 instructions: 230000000 cycles: 557570412 heartbeat IPC: 0.271402 cumulative IPC: 0.333363 (Simulation time: 0 hr 23 min 6 sec) 
Heartbeat CPU 0 instructions: 240000000 cycles: 581988207 heartbeat IPC: 0.409537 cumulative IPC: 0.336659 (Simulation time: 0 hr 24 min 6 sec) 
*** Reached end of trace for Core: 0 Repeating trace: traces/spec2k17/srv_1.champsimtrace.xz
Heartbeat CPU 0 instructions: 250000001 cycles: 608859545 heartbeat IPC: 0.372144 cumulative IPC: 0.338272 (Simulation time: 0 hr 25 min 5 sec) 
Finished CPU 0 instructions: 200000000 cycles: 591240710 cumulative IPC: 0.338272 (Simulation time: 0 hr 25 min 5 sec) 

ChampSim completed all CPUs

Region of Interest Statistics

CPU 0 cumulative IPC: 0.338272 instructions: 200000000 cycles: 591240710
ITLB TOTAL     ACCESS:   38215437  HIT:   37665110  MISS:     550327  HIT %:    98.5599  MISS %:    1.44006   MPKI: 2.75163
ITLB LOAD TRANSLATION ACCESS:   38215437  HIT:   37665110  MISS:     550327  HIT %:    98.5599  MISS %:    1.44006   MPKI: 2.75163
ITLB PREFETCH  REQUESTED:          0  ISSUED:          0  USEFUL:          0  USELESS:          0
ITLB USEFUL LOAD PREFETCHES:          0 PREFETCH ISSUED TO LOWER LEVEL:          0  ACCURACY: -nan
ITLB TIMELY PREFETCHES:          0 LATE PREFETCHES: 0 DROPPED PREFETCHES: 0
ITLB PREFETCHES SAME FILL-ORIGIN LEVEL: 0 DIFFERENT FILL-ORIGIN LEVEL: 0
ITLB AVERAGE MISS LATENCY: 16.9699 cycles
ITLB RQ	ACCESS:   43870638	FORWARD:          0	MERGED:    5522208	TO_CACHE:   38348430

DTLB TOTAL     ACCESS:   44032462  HIT:   35341025  MISS:    8691437  HIT %:    80.2613  MISS %:    19.7387   MPKI: 43.4572
DTLB LOAD TRANSLATION ACCESS:   44032462  HIT:   35341025  MISS:    8691437  HIT %:    80.2613  MISS %:    19.7387   MPKI: 43.4572
DTLB PREFETCH  REQUESTED:          0  ISSUED:          0  USEFUL:          0  USELESS:          0
DTLB USEFUL LOAD PREFETCHES:          0 PREFETCH ISSUED TO LOWER LEVEL:          0  ACCURACY: -nan
DTLB TIMELY PREFETCHES:          0 LATE PREFETCHES: 0 DROPPED PREFETCHES: 0
DTLB PREFETCHES SAME FILL-ORIGIN LEVEL: 0 DIFFERENT FILL-ORIGIN LEVEL: 0
DTLB AVERAGE MISS LATENCY: 9.9364 cycles
DTLB RQ	ACCESS:   59165044	FORWARD:          0	MERGED:   14962552	TO_CACHE:   44202492

STLB TOTAL     ACCESS:   12879252  HIT:   12512439  MISS:     366813  HIT %:    97.1519  MISS %:    2.84809   MPKI: 1.83407
STLB LOAD TRANSLATION ACCESS:    9241764  HIT:    8935127  MISS:     306637  HIT %:    96.6821  MISS %:    3.31795   MPKI: 1.53319
STLB TRANSLATION FROM L1D PREFETCHER ACCESS:    3637488  HIT:    3577312  MISS:      60176  HIT %:    98.3457  MISS %:    1.65433   MPKI: 0.30088
STLB PREFETCH  REQUESTED:          0  ISSUED:          0  USEFUL:      52796  USELESS:       7368
STLB USEFUL LOAD PREFETCHES:      52796 PREFETCH ISSUED TO LOWER LEVEL:          0  ACCURACY: inf
STLB TIMELY PREFETCHES:      52796 LATE PREFETCHES: 216 DROPPED PREFETCHES: 3379397
STLB PREFETCHES SAME FILL-ORIGIN LEVEL: 0 DIFFERENT FILL-ORIGIN LEVEL: 0
STLB AVERAGE MISS LATENCY: 38.7446 cycles
STLB RQ	ACCESS:   21278005	FORWARD:          0	MERGED:    4869198	TO_CACHE:   16408807

STLB Hit, L1D data hit: 0
STLB Hit, L2C data hit: 0
STLB Hit, LLC data hit: 0
STLB Hit, LLC data miss: 0
STLB STLB hints to L2: 0
L1D TOTAL     ACCESS:   64857210  HIT:   48427771  MISS:   16429439  HIT %:    74.6683  MISS %:    25.3317   MPKI: 82.1472
L1D LOAD      ACCESS:   41117153  HIT:   29136722  MISS:   11980431  HIT %:    70.8627  MISS %:    29.1373   MPKI: 59.9022
L1D RFO       ACCESS:   17659166  HIT:   17273045  MISS:     386121  HIT %:    97.8135  MISS %:    2.18652   MPKI: 1.9306
L1D PREFETCH  ACCESS:    6080891  HIT:    2018004  MISS:    4062887  HIT %:     33.186  MISS %:     66.814   MPKI: 20.3144
AGUS PREFETCH L1 MISS: 0
L1D PREFETCH  REQUESTED:   24116809  ISSUED:   24115824  USEFUL:      54243  USELESS:    4008666
L1D USEFUL LOAD PREFETCHES:      54243 PREFETCH ISSUED TO LOWER LEVEL:    4063205  ACCURACY: 1.33498
L1D TIMELY PREFETCHES:      54243 LATE PREFETCHES: 311 DROPPED PREFETCHES: 5926387
L1D PREFETCHES SAME FILL-ORIGIN LEVEL: 4063205 DIFFERENT FILL-ORIGIN LEVEL: 0
L1D AVERAGE MISS LATENCY: 5990.32 cycles
L1D RQ	ACCESS:   54117245	FORWARD:          0	MERGED:   12737387	TO_CACHE:   41217287
L1D WQ	ACCESS:   18253453	FORWARD:     162571	MERGED:     305696	TO_CACHE:   17947757
L1D PQ	ACCESS:   12079583	FORWARD:          0	MERGED:      43342	TO_CACHE:   12036241

L1D UNIQUE REGIONS ACCESSED: 0
L1D REGIONS CONFLICTS: 0
L1D Cross Page Prefetch Requests: 14610001
L1D Same Page Prefetch Requests: 0
L1D ROI Sum of L1D PQ occupancy: 280958584
L1D PREFETCHES PUSHED FROM L2C: 0
L1I TOTAL     ACCESS:   42791039  HIT:   39344654  MISS:    3446385  HIT %:     91.946  MISS %:    8.05399   MPKI: 17.2319
L1I LOAD      ACCESS:   42791039  HIT:   39344654  MISS:    3446385  HIT %:     91.946  MISS %:    8.05399   MPKI: 17.2319
L1I PREFETCH  REQUESTED:          0  ISSUED:          0  USEFUL:          0  USELESS:          0
L1I USEFUL LOAD PREFETCHES:          0 PREFETCH ISSUED TO LOWER LEVEL:          0  ACCURACY: -nan
L1I TIMELY PREFETCHES:          0 LATE PREFETCHES: 0 DROPPED PREFETCHES: 0
L1I PREFETCHES SAME FILL-ORIGIN LEVEL: 0 DIFFERENT FILL-ORIGIN LEVEL: 0
L1I AVERAGE MISS LATENCY: 30.343 cycles
L1I RQ	ACCESS:   66224299	FORWARD:          0	MERGED:   22353661	TO_CACHE:   43870638

BTB TOTAL     ACCESS:   33996129  HIT:   29348304  MISS:    4647825  HIT %:    86.3284  MISS %:    13.6716   MPKI: 23.2391
BTB BRANCH_DIRECT_JUMP	ACCESS:    1820121  HIT:    1607789  MISS:     212332
BTB BRANCH_INDIRECT	ACCESS:   19847784  HIT:   17441635  MISS:    2406149
BTB BRANCH_CONDITIONAL	ACCESS:    4748982  HIT:    4420071  MISS:     328911
BTB BRANCH_DIRECT_CALL	ACCESS:    3062626  HIT:    2647973  MISS:     414653
BTB BRANCH_INDIRECT_CALL	ACCESS:     723674  HIT:     676539  MISS:      47135
BTB BRANCH_RETURN	ACCESS:    3792942  HIT:    2554297  MISS:    1238645
BTB BRANCH_OTHER ACCESS:          0  HIT:          0  MISS:          0

L2C TOTAL     ACCESS:   25323818  HIT:   21948919  MISS:    3374899  HIT %:     86.673  MISS %:     13.327   MPKI: 16.8745
L2C LOAD      ACCESS:   15426471  HIT:   12868631  MISS:    2557840  HIT %:    83.4192  MISS %:    16.5808   MPKI: 12.7892
L2C DATA LOAD MPKI: 4.04136
L2C INSTRUCTION LOAD MPKI: 8.74784
L2C RFO       ACCESS:     386107  HIT:     255881  MISS:     130226  HIT %:     66.272  MISS %:     33.728   MPKI: 0.65113
L2C PREFETCH  ACCESS:    4063194  HIT:    3582569  MISS:     480625  HIT %:    88.1713  MISS %:    11.8287   MPKI: 2.40313
AGUS PREFETCH L1 MISS: 0
L2C DATA PREFETCH MPKI: 2.40313
L2C INSTRUCTION PREFETCH MPKI: 0
L2C WRITEBACK ACCESS:     834341  HIT:     797919  MISS:      36422  HIT %:    95.6346  MISS %:    4.36536   MPKI: 0.18211
L2C LOAD TRANSLATION ACCESS:     391080  HIT:     257652  MISS:     133428  HIT %:    65.8822  MISS %:    34.1178   MPKI: 0.66714
L2C TRANSLATION FROM L1D PREFETCHER ACCESS:    4222625  HIT:    4186267  MISS:      36358  HIT %:     99.139  MISS %:   0.861028   MPKI: 0.18179
L2C PREFETCH  REQUESTED:          0  ISSUED:          0  USEFUL:      44883  USELESS:     472066
L2C USEFUL LOAD PREFETCHES:      44883 PREFETCH ISSUED TO LOWER LEVEL:     480625  ACCURACY: 9.33847
L2C TIMELY PREFETCHES:      44883 LATE PREFETCHES: 0 DROPPED PREFETCHES: 0
L2C PREFETCHES SAME FILL-ORIGIN LEVEL: 0 DIFFERENT FILL-ORIGIN LEVEL: 0
L2C AVERAGE MISS LATENCY: 44.2831 cycles
L2C RQ	ACCESS:   20426326	FORWARD:          0	MERGED:          0	TO_CACHE:   20426284
L2C WQ	ACCESS:     834341	FORWARD:         53	MERGED:          0	TO_CACHE:     834341
L2C PQ	ACCESS:    4063205	FORWARD:          0	MERGED:          0	TO_CACHE:    4063194

L2C Instructions Evicting Data 751148
L2C Translations Evicting Data 72402
L2C Data Evicting Data 616427
L2C Instructions Evicting Instructions 910135
L2C Translations Evicting Instructions 87786
L2C Data Evicting Instructions 732927
L2C Instructions Evicting Translations 88284
L2C Translations Evicting Translations 9598
L2C Data Evicting Translations 69770
L2C Dense regions hint from L2: 0
PSCL5 TOTAL     ACCESS:    3746210  HIT:    3746210  MISS:          0  HIT %:        100  MISS %:          0   MPKI: 0
PSCL5 LOAD TRANSLATION ACCESS:     306421  HIT:     306421  MISS:          0  HIT %:        100  MISS %:          0   MPKI: 0
PSCL5 TRANSLATION FROM L1D PREFETCHER ACCESS:    3439789  HIT:    3439789  MISS:          0  HIT %:        100  MISS %:          0   MPKI: 0
PSCL5 PREFETCH  REQUESTED:          0  ISSUED:          0  USEFUL:          0  USELESS:          0
PSCL5 USEFUL LOAD PREFETCHES:          0 PREFETCH ISSUED TO LOWER LEVEL:          0  ACCURACY: -nan
PSCL5 TIMELY PREFETCHES:          0 LATE PREFETCHES: 0 DROPPED PREFETCHES: 0
PSCL5 PREFETCHES SAME FILL-ORIGIN LEVEL: 0 DIFFERENT FILL-ORIGIN LEVEL: 0

PSCL4 TOTAL     ACCESS:    3685125  HIT:    3684155  MISS:        970  HIT %:    99.9737  MISS %:   0.026322   MPKI: 0.00485
PSCL4 LOAD TRANSLATION ACCESS:     294599  HIT:     293629  MISS:        970  HIT %:    99.6707  MISS %:   0.329261   MPKI: 0.00485
PSCL4 TRANSLATION FROM L1D PREFETCHER ACCESS:    3390526  HIT:    3390526  MISS:          0  HIT %:        100  MISS %:          0   MPKI: 0
PSCL4 PREFETCH  REQUESTED:          0  ISSUED:          0  USEFUL:          0  USELESS:          0
PSCL4 USEFUL LOAD PREFETCHES:          0 PREFETCH ISSUED TO LOWER LEVEL:          0  ACCURACY: -nan
PSCL4 TIMELY PREFETCHES:          0 LATE PREFETCHES: 0 DROPPED PREFETCHES: 0
PSCL4 PREFETCHES SAME FILL-ORIGIN LEVEL: 0 DIFFERENT FILL-ORIGIN LEVEL: 0

PSCL3 TOTAL     ACCESS:    3738237  HIT:    3735530  MISS:       2707  HIT %:    99.9276  MISS %:  0.0724138   MPKI: 0.013535
PSCL3 LOAD TRANSLATION ACCESS:     305387  HIT:     302680  MISS:       2707  HIT %:    99.1136  MISS %:   0.886416   MPKI: 0.013535
PSCL3 TRANSLATION FROM L1D PREFETCHER ACCESS:    3432850  HIT:    3432850  MISS:          0  HIT %:        100  MISS %:          0   MPKI: 0
PSCL3 PREFETCH  REQUESTED:          0  ISSUED:          0  USEFUL:          0  USELESS:          0
PSCL3 USEFUL LOAD PREFETCHES:          0 PREFETCH ISSUED TO LOWER LEVEL:          0  ACCURACY: -nan
PSCL3 TIMELY PREFETCHES:          0 LATE PREFETCHES: 0 DROPPED PREFETCHES: 0
PSCL3 PREFETCHES SAME FILL-ORIGIN LEVEL: 0 DIFFERENT FILL-ORIGIN LEVEL: 0

PSCL2 TOTAL     ACCESS:    2977444  HIT:    2887360  MISS:      90084  HIT %:    96.9745  MISS %:    3.02555   MPKI: 0.45042
PSCL2 LOAD TRANSLATION ACCESS:     314604  HIT:     224520  MISS:      90084  HIT %:    71.3659  MISS %:    28.6341   MPKI: 0.45042
PSCL2 TRANSLATION FROM L1D PREFETCHER ACCESS:    2662840  HIT:    2662840  MISS:          0  HIT %:        100  MISS %:          0   MPKI: 0
PSCL2 PREFETCH  REQUESTED:          0  ISSUED:          0  USEFUL:          0  USELESS:          0
PSCL2 USEFUL LOAD PREFETCHES:          0 PREFETCH ISSUED TO LOWER LEVEL:          0  ACCURACY: -nan
PSCL2 TIMELY PREFETCHES:          0 LATE PREFETCHES: 0 DROPPED PREFETCHES: 0
PSCL2 PREFETCHES SAME FILL-ORIGIN LEVEL: 0 DIFFERENT FILL-ORIGIN LEVEL: 0

LLC TOTAL     ACCESS:    3698888  HIT:    3436397  MISS:     262491  HIT %:    92.9035  MISS %:    7.09648   MPKI: 1.31245
LLC LOAD      ACCESS:    2557840  HIT:    2438908  MISS:     118932  HIT %:    95.3503  MISS %:     4.6497   MPKI: 0.59466
LLC RFO       ACCESS:     130226  HIT:     107128  MISS:      23098  HIT %:    82.2631  MISS %:    17.7369   MPKI: 0.11549
LLC PREFETCH  ACCESS:     480621  HIT:     369831  MISS:     110790  HIT %:    76.9486  MISS %:    23.0514   MPKI: 0.55395
AGUS PREFETCH L1 MISS: 0
LLC WRITEBACK ACCESS:     360415  HIT:     356871  MISS:       3544  HIT %:    99.0167  MISS %:   0.983311   MPKI: 0.01772
LLC LOAD TRANSLATION ACCESS:     133428  HIT:     128320  MISS:       5108  HIT %:    96.1717  MISS %:    3.82828   MPKI: 0.02554
LLC TRANSLATION FROM L1D PREFETCHER ACCESS:      36358  HIT:      35339  MISS:       1019  HIT %:    97.1973  MISS %:    2.80268   MPKI: 0.005095
LLC PREFETCH  REQUESTED:          0  ISSUED:          0  USEFUL:      36209  USELESS:      76117
LLC USEFUL LOAD PREFETCHES:      36209 PREFETCH ISSUED TO LOWER LEVEL:     110790  ACCURACY: 32.6826
LLC TIMELY PREFETCHES:      36209 LATE PREFETCHES: 0 DROPPED PREFETCHES: 0
LLC PREFETCHES SAME FILL-ORIGIN LEVEL: 0 DIFFERENT FILL-ORIGIN LEVEL: 0
LLC AVERAGE MISS LATENCY: 187.796 cycles
LLC RQ	ACCESS:    2857852	FORWARD:          0	MERGED:          0	TO_CACHE:    2857852
LLC WQ	ACCESS:     360415	FORWARD:          4	MERGED:          0	TO_CACHE:     360415
LLC PQ	ACCESS:     480625	FORWARD:          0	MERGED:          0	TO_CACHE:     480621

LLC Dense regions hint to LLC: 0

RAW hits: 2264514
Loads Generated: 56381755
Loads sent to L1D: 54117245
Stores Generated: 18253447
Stores sent to L1D: 18253453
Major fault: 0 Minor fault: 4447
Allocated PAGES: 4447
CPU 0 L1D 
Prefetch count 5044356 BOP and RL 

DRAM Statistics
 CHANNEL 0
 RQ ROW_BUFFER_HIT:      52364  ROW_BUFFER_MISS:     206581
 DBUS_CONGESTED:         90
 WQ ROW_BUFFER_HIT:      19776  ROW_BUFFER_MISS:     124108  FULL:          0

 AVG_CONGESTED_CYCLE: 4
 All warmup complete: 2
Channel 0 Bank busy for read cycles: 0
Channel 0 Bank busy for write cycles: 0
Channel 0
Rank 0
0banks busy for read cycles: 547908756
0banks busy for write cycles: 78518
1banks busy for read cycles: 23475118
1banks busy for write cycles: 11128497
2banks busy for read cycles: 3140884
2banks busy for write cycles: 2501908
3banks busy for read cycles: 518811
3banks busy for write cycles: 855325
4banks busy for read cycles: 138771
4banks busy for write cycles: 421980
5banks busy for read cycles: 67314
5banks busy for write cycles: 248922
6banks busy for read cycles: 45247
6banks busy for write cycles: 151511
7banks busy for read cycles: 45532
7banks busy for write cycles: 111226
8banks busy for read cycles: 114521
8banks busy for write cycles: 287870

CPU 0 Branch Prediction Accuracy: 99.8043% MPKI: 0.43045 Average ROB Occupancy at Mispredict: 28.9098
Branch types
NOT_BRANCH: 156016058 78.008%
BRANCH_DIRECT_JUMP: 1820121 0.910061%
BRANCH_INDIRECT: 19847784 9.92389%
BRANCH_CONDITIONAL: 14736604 7.3683%
BRANCH_DIRECT_CALL: 3062626 1.53131%
BRANCH_INDIRECT_CALL: 723674 0.361837%
BRANCH_RETURN: 3792942 1.89647%
BRANCH_OTHER: 0 0%

DRAM PAGES: 1048576
Allocated PAGES: 4447
