
*** ChampSim Multicore Out-of-Order Simulator ***

Warmup Instructions: 50000000
Simulation Instructions: 200000000
Number of CPUs: 1
LLC sets: 2048
LLC ways: 16
Off-chip DRAM Size: 4096 MB Channels: 1 Width: 64-bit Data Rate: 6400 MT/s
CPU 0 runs traces/spec2k17/srv_68.champsimtrace.xz
.xz
BTB has LRU replacement policy
ITLB has LRU replacement policy
DTLB has LRU replacement policy
STLB has LRU replacement policy
L1I has LRU replacement policy
CPU 0 l1d next line prefetcher
L1D has LRU replacement policy
Initialize SRRIP state for L2C
Initialize DRRIP state for LLC
Offsets elements: 
Potential of Offsets elements: 
rewards of Offsets elements: 
Printing Sanity1
offset list size2273
Heartbeat CPU 0 instructions: 10000002 cycles: 2768118 heartbeat IPC: 3.61256 cumulative IPC: 3.61256 (Simulation time: 0 hr 0 min 34 sec) 
Heartbeat CPU 0 instructions: 20000003 cycles: 5532203 heartbeat IPC: 3.61783 cumulative IPC: 3.6152 (Simulation time: 0 hr 1 min 7 sec) 
Heartbeat CPU 0 instructions: 30000003 cycles: 8297098 heartbeat IPC: 3.61677 cumulative IPC: 3.61572 (Simulation time: 0 hr 1 min 42 sec) 
*** Reached end of trace for Core: 0 Repeating trace: traces/spec2k17/srv_68.champsimtrace.xz
Heartbeat CPU 0 instructions: 40000001 cycles: 11058502 heartbeat IPC: 3.62135 cumulative IPC: 3.61713 (Simulation time: 0 hr 2 min 17 sec) 
Heartbeat CPU 0 instructions: 50000000 cycles: 13822160 heartbeat IPC: 3.61839 cumulative IPC: 3.61738 (Simulation time: 0 hr 2 min 51 sec) 

Warmup complete CPU 0 instructions: 50000004 cycles: 13822161 (Simulation time: 0 hr 2 min 51 sec) 

Heartbeat CPU 0 instructions: 60000001 cycles: 36345224 heartbeat IPC: 0.443989 cumulative IPC: 0.443989 (Simulation time: 0 hr 3 min 43 sec) 
*** Reached end of trace for Core: 0 Repeating trace: traces/spec2k17/srv_68.champsimtrace.xz
Heartbeat CPU 0 instructions: 70000003 cycles: 58198927 heartbeat IPC: 0.457588 cumulative IPC: 0.450686 (Simulation time: 0 hr 4 min 37 sec) 
Heartbeat CPU 0 instructions: 80000001 cycles: 80207194 heartbeat IPC: 0.454375 cumulative IPC: 0.451909 (Simulation time: 0 hr 5 min 30 sec) 
Heartbeat CPU 0 instructions: 90000000 cycles: 102890510 heartbeat IPC: 0.440853 cumulative IPC: 0.449093 (Simulation time: 0 hr 6 min 22 sec) 
*** Reached end of trace for Core: 0 Repeating trace: traces/spec2k17/srv_68.champsimtrace.xz
Heartbeat CPU 0 instructions: 100000001 cycles: 124297635 heartbeat IPC: 0.467134 cumulative IPC: 0.452589 (Simulation time: 0 hr 7 min 14 sec) 
Offsets elements: 
Potential of Offsets elements: 
rewards of Offsets elements: 0 0 0 0 0 0 2 0 0 0 0 0 0 0 0 0 0 0 0 0 0 3 0 166 0 0 0 0 0 2 0 0 0 16 0 1 141 3 12 0 0 0 1 3 0 0 0 0 1 4 153 0 0 0 0 0 2 0 0 0 0 0 6 0 0 0 0 0 0 0 0 0 0 0 0 0 9 0 0 0 0 0 0 0 0 0 0 0 2 0 0 0 0 0 100 0 30 0 0 0 0 0 0 180 0 0 0 81 205 0 53 0 0 0 1 0 0 0 0 2 0 0 0 0 0 0 0 0 0 0 0 0 0 0 0 0 0 1 1 0 0 0 0 0 0 0 3 3 0 0 1 0 0 0 0 0 0 0 0 0 0 0 0 0 0 0 0 93 11 11 0 45 0 0 0 0 0 72 6 0 0 0 0 0 0 0 71 0 0 0 0 0 0 0 0 0 0 0 0 0 0 0 0 0 0 0 0 0 0 3 33 0 0 0 0 0 0 0 0 0 1 1 0 0 0 0 0 0 0 0 0 0 0 0 0 0 3 0 0 0 0 0 0 0 0 0 0 0 2 0 85 0 6 0 0 0 0 0 0 0 0 0 0 1 0 0 0 0 0 0 0 0 0 0 0 0 1 0 184 0 0 0 0 0 0 0 0 0 0 0 0 0 0 0 0 0 0 0 0 0 0 0 0 0 0 67 4 0 0 1 0 8 0 0 108 8 31 0 0 3 0 0 0 0 0 2 2 0 2 2 0 1 0 0 0 0 0 0 0 0 0 0 0 0 0 0 0 3 0 0 0 0 0 0 0 0 0 0 0 0 0 0 0 0 0 0 0 0 0 0 0 0 0 0 0 0 0 0 0 4 0 0 0 0 0 0 0 0 0 0 0 0 0 0 0 0 0 0 0 0 0 0 0 0 0 0 0 0 0 0 0 0 0 0 0 0 0 4 0 0 0 0 1 2 0 0 0 0 0 0 0 0 0 1 0 0 0 0 0 0 0 4 3 0 0 0 0 0 0 0 1 5 0 0 9 0 0 1 0 0 0 0 0 0 0 0 0 1 0 0 0 2 2 0 0 0 0 0 0 0 0 0 0 0 0 0 0 0 0 0 1 0 0 0 0 0 0 0 0 0 0 0 0 0 0 0 0 2 0 0 0 0 0 0 0 0 0 0 0 1 0 0 0 0 0 0 0 0 0 0 0 20 0 1 0 0 0 0 0 0 0 0 0 0 0 0 0 0 0 0 0 0 0 0 0 0 0 0 0 1 0 30 1 0 0 0 0 0 0 0 0 0 0 0 0 0 0 0 0 0 2 0 0 2 0 0 7 0 0 0 2 1 0 0 0 0 0 0 0 0 0 0 8 0 70 0 0 0 22 0 0 0 0 0 0 0 0 0 0 0 0 0 0 0 6 53 0 0 0 0 0 0 3 0 0 0 0 0 0 0 0 0 0 0 0 0 2 0 0 0 0 0 0 0 0 0 0 0 0 8 7 0 0 0 0 0 0 0 0 0 0 1 9 0 0 0 0 14 0 0 0 0 0 0 0 0 0 0 0 0 0 0 0 0 0 1 0 19 9 0 20 0 0 0 0 0 0 0 0 0 0 0 0 0 0 0 19 0 0 2 0 0 0 0 0 0 0 0 0 0 0 0 0 0 0 0 0 0 0 25 0 0 0 0 0 0 0 0 0 0 0 0 0 0 0 0 0 0 0 0 0 0 2 0 0 0 0 0 0 1 0 0 0 0 0 0 0 0 0 0 0 0 0 0 0 0 0 0 0 0 0 0 0 59 0 0 95 0 0 0 0 0 0 0 0 0 0 0 0 0 0 0 0 0 0 0 0 0 0 0 7 0 0 0 0 0 0 0 0 0 2 0 0 0 10 0 0 0 1 2 0 0 0 0 0 0 0 0 0 0 0 0 0 0 0 0 0 0 0 0 0 0 0 0 0 0 0 0 0 0 0 0 0 0 0 0 0 0 0 0 0 0 0 0 2 0 0 0 0 0 0 0 0 0 0 0 0 0 0 0 0 0 0 1 0 0 1 0 0 0 0 0 0 0 0 0 0 0 1 0 0 0 0 0 2 0 0 0 0 0 0 0 0 0 1 0 0 0 0 0 0 0 0 0 0 0 9 0 0 0 0 0 0 0 0 0 3 0 0 0 0 0 2 0 0 0 0 0 0 0 0 0 0 0 0 0 0 46 0 0 0 0 0 0 2 0 127 0 0 0 0 0 3 0 0 0 0 0 0 0 0 1 0 3 0 1 0 77 0 0 0 0 0 0 0 0 0 0 0 0 0 0 0 0 0 0 0 0 0 0 0 0 8 0 0 0 0 0 0 35 0 0 0 0 0 0 0 7 8 32 0 0 0 0 0 0 0 0 0 0 0 0 1 0 0 0 0 0 0 0 0 0 0 0 0 0 0 0 0 0 0 0 0 0 0 0 2 0 5 5 0 0 0 0 0 0 0 0 0 0 1 0 0 0 0 7 31 0 0 0 0 0 0 0 0 0 0 48 0 0 0 0 0 0 0 0 0 0 0 0 0 0 0 0 0 0 0 0 0 0 0 0 0 0 2 0 1 0 0 0 0 0 0 0 0 0 0 0 0 0 0 0 0 0 0 0 0 0 0 0 0 0 0 0 0 0 0 0 0 1 0 0 0 0 0 0 0 0 0 0 0 0 0 0 0 0 0 0 0 0 0 0 0 0 0 0 0 0 0 0 0 0 0 0 0 3 1 0 0 0 0 0 0 142 93 0 0 0 0 0 0 0 0 0 0 0 0 0 0 0 0 0 11 0 0 20 307 0 0 0 0 0 0 0 0 0 0 0 0 0 0 0 0 0 0 0 0 0 0 0 0 0 0 0 0 0 0 0 2 0 0 0 0 0 0 0 0 0 0 0 0 0 0 0 0 1 0 0 0 0 0 1 0 0 0 0 0 0 0 0 0 0 0 0 72 0 0 0 0 0 0 0 0 0 0 0 0 0 5 0 8 0 7 28 1 0 0 0 0 0 0 2 3 0 0 0 0 0 0 0 0 0 1 0 0 0 0 0 0 6 15 10 0 0 0 0 29 0 0 0 0 0 0 0 0 0 0 0 0 0 1 0 0 5 0 0 0 3 0 0 0 0 0 0 0 2 0 0 0 0 0 0 0 0 0 0 0 0 4 0 0 0 0 5 2 0 0 0 0 0 0 29 0 0 0 0 0 0 0 2 0 26 48 23 0 0 0 0 0 0 0 4 0 0 0 0 0 0 0 0 0 0 0 2 0 0 0 0 0 0 0 0 3 2 94 0 1 1 30 1 0 0 0 0 0 10 0 0 0 0 0 0 70 6 0 0 0 0 0 0 8 0 0 0 162 0 0 41 0 0 2 2 0 0 0 0 0 0 73 0 0 0 0 0 0 0 0 0 0 0 0 0 3 0 0 0 0 0 0 0 0 0 0 0 0 1 0 0 0 0 0 0 0 0 0 0 0 0 0 0 0 0 0 0 0 0 0 0 0 0 0 0 0 0 0 0 0 0 0 0 0 1 0 1 0 0 4 0 2 0 0 0 0 0 0 0 0 0 0 0 0 0 0 0 3 1 45 17 0 0 0 0 4 0 37 0 0 0 0 0 0 0 0 0 11 0 0 0 0 0 0 0 0 0 4 0 0 0 0 0 0 0 0 0 0 0 0 0 0 0 0 0 0 0 0 0 0 0 0 0 0 0 3 0 0 0 0 0 0 0 0 0 0 0 0 17 0 0 0 0 0 0 0 0 1 1 0 0 0 0 0 0 0 0 0 0 0 0 0 0 0 0 0 0 0 0 0 0 0 0 0 0 0 0 0 0 0 0 0 0 0 0 0 0 0 0 0 0 0 0 0 1 0 0 0 0 1 0 0 5 0 0 0 0 0 0 0 0 0 0 0 0 0 0 0 0 0 0 2 0 0 0 0 0 0 0 0 0 0 0 2 1 0 0 0 0 0 0 0 0 0 0 1 0 0 0 0 0 0 0 0 0 0 0 0 0 0 0 0 0 0 1 0 0 0 12 4 65 2 0 0 0 0 0 1 3 0 0 0 0 0 0 0 0 0 0 0 0 0 0 0 0 0 0 0 0 3 0 0 0 0 0 0 0 0 0 0 0 0 0 0 0 0 0 45 0 0 0 0 0 0 0 0 0 0 0 0 0 0 0 0 0 0 0 0 0 0 0 0 0 0 0 0 0 0 0 0 0 0 0 0 0 0 0 0 0 0 0 0 0 0 0 0 0 0 0 0 0 0 1 0 0 0 0 0 0 0 0 0 0 0 0 0 0 0 2 0 0 0 0 0 0 0 0 0 0 0 2 0 0 0 0 0 0 0 0 0 0 0 0 0 0 0 0 0 9 0 1 0 0 0 0 4 0 0 0 0 0 0 0 0 1 0 0 0 0 0 0 0 0 0 0 5 0 1 0 0 0 0 0 0 0 0 0 0 0 0 0 0 0 8 0 0 0 0 0 0 0 0 0 0 0 0 2 0 0 0 0 0 0 0 0 0 0 2 0 0 0 0 0 0 0 0 13 15 18 8 0 0 0 0 0 0 0 0 0 0 0 0 0 0 0 0 0 0 0 0 0 0 0 0 0 0 0 0 0 0 0 0 0 0 0 0 0 0 0 0 0 0 0 0 0 0 0 0 0 0 0 0 0 0 0 0 0 0 0 0 0 0 0 0 0 0 0 0 0 0 0 0 0 0 0 0 0 0 0 0 0 2 0 0 0 0 0 0 0 0 0 0 0 0 2 0 0 0 0 0 0 1 0 0 1 1 0 0 0 0 0 0 3 0 0 7 0 0 0 0 0 2 0 0 0 0 0 0 0 0 0 0 0 0 0 0 0 0 0 0 0 0 0 0 4 0 0 0 0 0 0 0 0 0 0 0 0 0 0 0 0 0 0 0 0 0 0 0 0 0 0 0 0 0 0 0 0 0 0 2 0 1 1 0 0 0 0 0 0 0 0 0 0 3 0 0 0 0 0 0 2 0 1 0 0 0 0 0 0 0 0 0 3 0 0 0 0 0 0 0 0 0 1 0 1 0 0 0 0 0 7 0 0 0 0 8 0 1 0 0 0 0 0 0 0 0 
Printing Sanity2
Heartbeat CPU 0 instructions: 110000000 cycles: 146625447 heartbeat IPC: 0.447872 cumulative IPC: 0.451796 (Simulation time: 0 hr 8 min 7 sec) 
Heartbeat CPU 0 instructions: 120000001 cycles: 169197520 heartbeat IPC: 0.443025 cumulative IPC: 0.450522 (Simulation time: 0 hr 9 min 0 sec) 
*** Reached end of trace for Core: 0 Repeating trace: traces/spec2k17/srv_68.champsimtrace.xz
Heartbeat CPU 0 instructions: 130000001 cycles: 190561919 heartbeat IPC: 0.468068 cumulative IPC: 0.452643 (Simulation time: 0 hr 9 min 52 sec) 
Heartbeat CPU 0 instructions: 140000000 cycles: 213046276 heartbeat IPC: 0.444754 cumulative IPC: 0.451753 (Simulation time: 0 hr 10 min 43 sec) 
Heartbeat CPU 0 instructions: 150000002 cycles: 235542715 heartbeat IPC: 0.444515 cumulative IPC: 0.451018 (Simulation time: 0 hr 11 min 35 sec) 
*** Reached end of trace for Core: 0 Repeating trace: traces/spec2k17/srv_68.champsimtrace.xz
Heartbeat CPU 0 instructions: 160000001 cycles: 257102468 heartbeat IPC: 0.463827 cumulative IPC: 0.452153 (Simulation time: 0 hr 12 min 31 sec) 
Heartbeat CPU 0 instructions: 170000000 cycles: 279485022 heartbeat IPC: 0.446776 cumulative IPC: 0.4517 (Simulation time: 0 hr 13 min 24 sec) 
Heartbeat CPU 0 instructions: 180000001 cycles: 302020498 heartbeat IPC: 0.443745 cumulative IPC: 0.451078 (Simulation time: 0 hr 14 min 15 sec) 
*** Reached end of trace for Core: 0 Repeating trace: traces/spec2k17/srv_68.champsimtrace.xz
Heartbeat CPU 0 instructions: 190000000 cycles: 323542484 heartbeat IPC: 0.464641 cumulative IPC: 0.452021 (Simulation time: 0 hr 15 min 10 sec) 
Heartbeat CPU 0 instructions: 200000000 cycles: 345662247 heartbeat IPC: 0.452084 cumulative IPC: 0.452025 (Simulation time: 0 hr 16 min 7 sec) 
Heartbeat CPU 0 instructions: 210000000 cycles: 368346112 heartbeat IPC: 0.440842 cumulative IPC: 0.451309 (Simulation time: 0 hr 16 min 58 sec) 
*** Reached end of trace for Core: 0 Repeating trace: traces/spec2k17/srv_68.champsimtrace.xz
Heartbeat CPU 0 instructions: 220000000 cycles: 389699005 heartbeat IPC: 0.468321 cumulative IPC: 0.452276 (Simulation time: 0 hr 17 min 48 sec) 
Heartbeat CPU 0 instructions: 230000001 cycles: 412027880 heartbeat IPC: 0.447851 cumulative IPC: 0.452028 (Simulation time: 0 hr 18 min 44 sec) 
Heartbeat CPU 0 instructions: 240000002 cycles: 434576700 heartbeat IPC: 0.443482 cumulative IPC: 0.45157 (Simulation time: 0 hr 19 min 17 sec) 
*** Reached end of trace for Core: 0 Repeating trace: traces/spec2k17/srv_68.champsimtrace.xz
Heartbeat CPU 0 instructions: 250000002 cycles: 455954061 heartbeat IPC: 0.467785 cumulative IPC: 0.452354 (Simulation time: 0 hr 19 min 49 sec) 
Finished CPU 0 instructions: 200000002 cycles: 442131901 cumulative IPC: 0.452354 (Simulation time: 0 hr 19 min 49 sec) 

ChampSim completed all CPUs

Region of Interest Statistics

CPU 0 cumulative IPC: 0.452354 instructions: 200000002 cycles: 442131901
ITLB TOTAL     ACCESS:   31178030  HIT:   30442318  MISS:     735712  HIT %:    97.6403  MISS %:    2.35971   MPKI: 3.67856
ITLB LOAD TRANSLATION ACCESS:   31178030  HIT:   30442318  MISS:     735712  HIT %:    97.6403  MISS %:    2.35971   MPKI: 3.67856
ITLB PREFETCH  REQUESTED:          0  ISSUED:          0  USEFUL:          0  USELESS:          0
ITLB USEFUL LOAD PREFETCHES:          0 PREFETCH ISSUED TO LOWER LEVEL:          0  ACCURACY: -nan
ITLB TIMELY PREFETCHES:          0 LATE PREFETCHES: 0 DROPPED PREFETCHES: 0
ITLB PREFETCHES SAME FILL-ORIGIN LEVEL: 0 DIFFERENT FILL-ORIGIN LEVEL: 0
ITLB AVERAGE MISS LATENCY: 14.805 cycles
ITLB RQ	ACCESS:   38046469	FORWARD:          0	MERGED:    6688932	TO_CACHE:   31357537

DTLB TOTAL     ACCESS:   36988042  HIT:   34598703  MISS:    2389339  HIT %:    93.5402  MISS %:    6.45976   MPKI: 11.9467
DTLB LOAD TRANSLATION ACCESS:   36988042  HIT:   34598703  MISS:    2389339  HIT %:    93.5402  MISS %:    6.45976   MPKI: 11.9467
DTLB PREFETCH  REQUESTED:          0  ISSUED:          0  USEFUL:          0  USELESS:          0
DTLB USEFUL LOAD PREFETCHES:          0 PREFETCH ISSUED TO LOWER LEVEL:          0  ACCURACY: -nan
DTLB TIMELY PREFETCHES:          0 LATE PREFETCHES: 0 DROPPED PREFETCHES: 0
DTLB PREFETCHES SAME FILL-ORIGIN LEVEL: 0 DIFFERENT FILL-ORIGIN LEVEL: 0
DTLB AVERAGE MISS LATENCY: 14.2653 cycles
DTLB RQ	ACCESS:   47333081	FORWARD:          0	MERGED:   10203124	TO_CACHE:   37129957

STLB TOTAL     ACCESS:    4314849  HIT:    3935336  MISS:     379513  HIT %:    91.2045  MISS %:    8.79551   MPKI: 1.89756
STLB LOAD TRANSLATION ACCESS:    3125050  HIT:    2748402  MISS:     376648  HIT %:    87.9475  MISS %:    12.0525   MPKI: 1.88324
STLB TRANSLATION FROM L1D PREFETCHER ACCESS:    1189799  HIT:    1186934  MISS:       2865  HIT %:    99.7592  MISS %:   0.240797   MPKI: 0.014325
STLB PREFETCH  REQUESTED:          0  ISSUED:          0  USEFUL:       2435  USELESS:        427
STLB USEFUL LOAD PREFETCHES:       2435 PREFETCH ISSUED TO LOWER LEVEL:          0  ACCURACY: inf
STLB TIMELY PREFETCHES:       2435 LATE PREFETCHES: 191 DROPPED PREFETCHES: 6033
STLB PREFETCHES SAME FILL-ORIGIN LEVEL: 0 DIFFERENT FILL-ORIGIN LEVEL: 0
STLB AVERAGE MISS LATENCY: 44.5007 cycles
STLB RQ	ACCESS:    4447546	FORWARD:          0	MERGED:     126162	TO_CACHE:    4321384

STLB Hit, L1D data hit: 0
STLB Hit, L2C data hit: 0
STLB Hit, LLC data hit: 0
STLB Hit, LLC data miss: 0
STLB STLB hints to L2: 0
L1D TOTAL     ACCESS:   48016830  HIT:   44829809  MISS:    3187021  HIT %:    93.3627  MISS %:     6.6373   MPKI: 15.9351
L1D LOAD      ACCESS:   27569870  HIT:   25698823  MISS:    1871047  HIT %:    93.2134  MISS %:    6.78656   MPKI: 9.35523
L1D RFO       ACCESS:   19284353  HIT:   18982015  MISS:     302338  HIT %:    98.4322  MISS %:    1.56779   MPKI: 1.51169
L1D PREFETCH  ACCESS:    1162607  HIT:     148971  MISS:    1013636  HIT %:    12.8135  MISS %:    87.1865   MPKI: 5.06818
AGUS PREFETCH L1 MISS: 0
L1D PREFETCH  REQUESTED:    2663548  ISSUED:    2663548  USEFUL:     287946  USELESS:     725502
L1D USEFUL LOAD PREFETCHES:     287946 PREFETCH ISSUED TO LOWER LEVEL:    1035448  ACCURACY: 27.8088
L1D TIMELY PREFETCHES:     287946 LATE PREFETCHES: 20875 DROPPED PREFETCHES: 6123
L1D PREFETCHES SAME FILL-ORIGIN LEVEL: 1035448 DIFFERENT FILL-ORIGIN LEVEL: 0
L1D AVERAGE MISS LATENCY: 2.05192e+06 cycles
L1D RQ	ACCESS:   42703268	FORWARD:          0	MERGED:   14798941	TO_CACHE:   27674059
L1D WQ	ACCESS:   19969250	FORWARD:     230627	MERGED:     310228	TO_CACHE:   19659022
L1D PQ	ACCESS:    1341051	FORWARD:          0	MERGED:      18195	TO_CACHE:    1322497

L1D UNIQUE REGIONS ACCESSED: 0
L1D REGIONS CONFLICTS: 0
L1D Cross Page Prefetch Requests: 1341051
L1D Same Page Prefetch Requests: 0
L1D ROI Sum of L1D PQ occupancy: 17609493
L1D PREFETCHES PUSHED FROM L2C: 0
L1I TOTAL     ACCESS:   36404232  HIT:   31634161  MISS:    4770071  HIT %:    86.8969  MISS %:    13.1031   MPKI: 23.8504
L1I LOAD      ACCESS:   36404232  HIT:   31634161  MISS:    4770071  HIT %:    86.8969  MISS %:    13.1031   MPKI: 23.8504
L1I PREFETCH  REQUESTED:          0  ISSUED:          0  USEFUL:          0  USELESS:          0
L1I USEFUL LOAD PREFETCHES:          0 PREFETCH ISSUED TO LOWER LEVEL:          0  ACCURACY: -nan
L1I TIMELY PREFETCHES:          0 LATE PREFETCHES: 0 DROPPED PREFETCHES: 0
L1I PREFETCHES SAME FILL-ORIGIN LEVEL: 0 DIFFERENT FILL-ORIGIN LEVEL: 0
L1I AVERAGE MISS LATENCY: 27.6442 cycles
L1I RQ	ACCESS:   56557911	FORWARD:          0	MERGED:   18511442	TO_CACHE:   38046469

BTB TOTAL     ACCESS:   21751551  HIT:   17439369  MISS:    4312182  HIT %:    80.1753  MISS %:    19.8247   MPKI: 21.5609
BTB BRANCH_DIRECT_JUMP	ACCESS:    1714565  HIT:    1465961  MISS:     248604
BTB BRANCH_INDIRECT	ACCESS:    9411853  HIT:    7323167  MISS:    2088686
BTB BRANCH_CONDITIONAL	ACCESS:    4498891  HIT:    4091160  MISS:     407731
BTB BRANCH_DIRECT_CALL	ACCESS:    2431594  HIT:    1968834  MISS:     462760
BTB BRANCH_INDIRECT_CALL	ACCESS:     630486  HIT:     593321  MISS:      37165
BTB BRANCH_RETURN	ACCESS:    3064162  HIT:    1996926  MISS:    1067236
BTB BRANCH_OTHER ACCESS:          0  HIT:          0  MISS:          0

L2C TOTAL     ACCESS:    9457197  HIT:    5619755  MISS:    3837442  HIT %:    59.4231  MISS %:    40.5769   MPKI: 19.1872
L2C LOAD      ACCESS:    6620134  HIT:    3701004  MISS:    2919130  HIT %:    55.9053  MISS %:    44.0947   MPKI: 14.5956
L2C DATA LOAD MPKI: 4.33041
L2C INSTRUCTION LOAD MPKI: 10.2652
L2C RFO       ACCESS:     301377  HIT:     162638  MISS:     138739  HIT %:     53.965  MISS %:     46.035   MPKI: 0.693695
L2C PREFETCH  ACCESS:    1035442  HIT:     501732  MISS:     533710  HIT %:    48.4558  MISS %:    51.5442   MPKI: 2.66855
AGUS PREFETCH L1 MISS: 0
L2C DATA PREFETCH MPKI: 2.66855
L2C INSTRUCTION PREFETCH MPKI: 0
L2C WRITEBACK ACCESS:    1001529  HIT:     955720  MISS:      45809  HIT %:    95.4261  MISS %:    4.57391   MPKI: 0.229045
L2C LOAD TRANSLATION ACCESS:     486218  HIT:     288959  MISS:     197259  HIT %:    59.4299  MISS %:    40.5701   MPKI: 0.986295
L2C TRANSLATION FROM L1D PREFETCHER ACCESS:      12497  HIT:       9702  MISS:       2795  HIT %:    77.6346  MISS %:    22.3654   MPKI: 0.013975
L2C PREFETCH  REQUESTED:          0  ISSUED:          0  USEFUL:      30496  USELESS:     504833
L2C USEFUL LOAD PREFETCHES:      30496 PREFETCH ISSUED TO LOWER LEVEL:     533711  ACCURACY: 5.71395
L2C TIMELY PREFETCHES:      30496 LATE PREFETCHES: 0 DROPPED PREFETCHES: 0
L2C PREFETCHES SAME FILL-ORIGIN LEVEL: 0 DIFFERENT FILL-ORIGIN LEVEL: 0
L2C AVERAGE MISS LATENCY: 43.5727 cycles
L2C RQ	ACCESS:    7420359	FORWARD:          0	MERGED:          0	TO_CACHE:    7420226
L2C WQ	ACCESS:    1001529	FORWARD:        138	MERGED:          0	TO_CACHE:    1001529
L2C PQ	ACCESS:    1035448	FORWARD:          0	MERGED:          0	TO_CACHE:    1035443

L2C Instructions Evicting Data 840361
L2C Translations Evicting Data 83076
L2C Data Evicting Data 641849
L2C Instructions Evicting Instructions 1105236
L2C Translations Evicting Instructions 107434
L2C Data Evicting Instructions 815965
L2C Instructions Evicting Translations 107451
L2C Translations Evicting Translations 9544
L2C Data Evicting Translations 80717
L2C Dense regions hint from L2: 0
PSCL5 TOTAL     ACCESS:     385545  HIT:     385545  MISS:          0  HIT %:        100  MISS %:          0   MPKI: 0
PSCL5 LOAD TRANSLATION ACCESS:     376456  HIT:     376456  MISS:          0  HIT %:        100  MISS %:          0   MPKI: 0
PSCL5 TRANSLATION FROM L1D PREFETCHER ACCESS:       9089  HIT:       9089  MISS:          0  HIT %:        100  MISS %:          0   MPKI: 0
PSCL5 PREFETCH  REQUESTED:          0  ISSUED:          0  USEFUL:          0  USELESS:          0
PSCL5 USEFUL LOAD PREFETCHES:          0 PREFETCH ISSUED TO LOWER LEVEL:          0  ACCURACY: -nan
PSCL5 TIMELY PREFETCHES:          0 LATE PREFETCHES: 0 DROPPED PREFETCHES: 0
PSCL5 PREFETCHES SAME FILL-ORIGIN LEVEL: 0 DIFFERENT FILL-ORIGIN LEVEL: 0

PSCL4 TOTAL     ACCESS:     346919  HIT:     346264  MISS:        655  HIT %:    99.8112  MISS %:   0.188805   MPKI: 0.003275
PSCL4 LOAD TRANSLATION ACCESS:     339314  HIT:     338659  MISS:        655  HIT %:     99.807  MISS %:   0.193037   MPKI: 0.003275
PSCL4 TRANSLATION FROM L1D PREFETCHER ACCESS:       7605  HIT:       7605  MISS:          0  HIT %:        100  MISS %:          0   MPKI: 0
PSCL4 PREFETCH  REQUESTED:          0  ISSUED:          0  USEFUL:          0  USELESS:          0
PSCL4 USEFUL LOAD PREFETCHES:          0 PREFETCH ISSUED TO LOWER LEVEL:          0  ACCURACY: -nan
PSCL4 TIMELY PREFETCHES:          0 LATE PREFETCHES: 0 DROPPED PREFETCHES: 0
PSCL4 PREFETCHES SAME FILL-ORIGIN LEVEL: 0 DIFFERENT FILL-ORIGIN LEVEL: 0

PSCL3 TOTAL     ACCESS:     383693  HIT:     381684  MISS:       2009  HIT %:    99.4764  MISS %:   0.523596   MPKI: 0.010045
PSCL3 LOAD TRANSLATION ACCESS:     374611  HIT:     372602  MISS:       2009  HIT %:    99.4637  MISS %:    0.53629   MPKI: 0.010045
PSCL3 TRANSLATION FROM L1D PREFETCHER ACCESS:       9082  HIT:       9082  MISS:          0  HIT %:        100  MISS %:          0   MPKI: 0
PSCL3 PREFETCH  REQUESTED:          0  ISSUED:          0  USEFUL:          0  USELESS:          0
PSCL3 USEFUL LOAD PREFETCHES:          0 PREFETCH ISSUED TO LOWER LEVEL:          0  ACCURACY: -nan
PSCL3 TIMELY PREFETCHES:          0 LATE PREFETCHES: 0 DROPPED PREFETCHES: 0
PSCL3 PREFETCHES SAME FILL-ORIGIN LEVEL: 0 DIFFERENT FILL-ORIGIN LEVEL: 0

PSCL2 TOTAL     ACCESS:     383056  HIT:     275039  MISS:     108017  HIT %:    71.8013  MISS %:    28.1987   MPKI: 0.540085
PSCL2 LOAD TRANSLATION ACCESS:     377376  HIT:     269359  MISS:     108017  HIT %:    71.3768  MISS %:    28.6232   MPKI: 0.540085
PSCL2 TRANSLATION FROM L1D PREFETCHER ACCESS:       5680  HIT:       5680  MISS:          0  HIT %:        100  MISS %:          0   MPKI: 0
PSCL2 PREFETCH  REQUESTED:          0  ISSUED:          0  USEFUL:          0  USELESS:          0
PSCL2 USEFUL LOAD PREFETCHES:          0 PREFETCH ISSUED TO LOWER LEVEL:          0  ACCURACY: -nan
PSCL2 TIMELY PREFETCHES:          0 LATE PREFETCHES: 0 DROPPED PREFETCHES: 0
PSCL2 PREFETCHES SAME FILL-ORIGIN LEVEL: 0 DIFFERENT FILL-ORIGIN LEVEL: 0

LLC TOTAL     ACCESS:    4257806  HIT:    3915165  MISS:     342641  HIT %:    91.9526  MISS %:    8.04736   MPKI: 1.7132
LLC LOAD      ACCESS:    2919126  HIT:    2735670  MISS:     183456  HIT %:    93.7154  MISS %:    6.28462   MPKI: 0.91728
LLC RFO       ACCESS:     138737  HIT:      91531  MISS:      47206  HIT %:    65.9745  MISS %:    34.0255   MPKI: 0.23603
LLC PREFETCH  ACCESS:     533701  HIT:     435849  MISS:      97852  HIT %:    81.6654  MISS %:    18.3346   MPKI: 0.48926
AGUS PREFETCH L1 MISS: 0
LLC WRITEBACK ACCESS:     466188  HIT:     463421  MISS:       2767  HIT %:    99.4065  MISS %:   0.593537   MPKI: 0.013835
LLC LOAD TRANSLATION ACCESS:     197259  HIT:     186094  MISS:      11165  HIT %:    94.3399  MISS %:    5.66007   MPKI: 0.055825
LLC TRANSLATION FROM L1D PREFETCHER ACCESS:       2795  HIT:       2600  MISS:        195  HIT %:    93.0233  MISS %:    6.97674   MPKI: 0.000975
LLC PREFETCH  REQUESTED:          0  ISSUED:          0  USEFUL:       5321  USELESS:      85282
LLC USEFUL LOAD PREFETCHES:       5321 PREFETCH ISSUED TO LOWER LEVEL:      97852  ACCURACY: 5.4378
LLC TIMELY PREFETCHES:       5321 LATE PREFETCHES: 0 DROPPED PREFETCHES: 0
LLC PREFETCHES SAME FILL-ORIGIN LEVEL: 0 DIFFERENT FILL-ORIGIN LEVEL: 0
LLC AVERAGE MISS LATENCY: 156.016 cycles
LLC RQ	ACCESS:    3257923	FORWARD:          0	MERGED:          0	TO_CACHE:    3257917
LLC WQ	ACCESS:     466188	FORWARD:         16	MERGED:          0	TO_CACHE:     466188
LLC PQ	ACCESS:     533711	FORWARD:          0	MERGED:          0	TO_CACHE:     533701

LLC Dense regions hint to LLC: 0

RAW hits: 3050915
Loads Generated: 45754181
Loads sent to L1D: 42703268
Stores Generated: 19969261
Stores sent to L1D: 19969250
Major fault: 0 Minor fault: 5849
Allocated PAGES: 5849
CPU 0 L1D 
Prefetch count 1035448 BOP and RL 

DRAM Statistics
 CHANNEL 0
 RQ ROW_BUFFER_HIT:      67993  ROW_BUFFER_MISS:     271881
 DBUS_CONGESTED:        107
 WQ ROW_BUFFER_HIT:      28026  ROW_BUFFER_MISS:     194847  FULL:          0

 AVG_CONGESTED_CYCLE: 4
 All warmup complete: 2
Channel 0 Bank busy for read cycles: 0
Channel 0 Bank busy for write cycles: 0
Channel 0
Rank 0
0banks busy for read cycles: 389803444
0banks busy for write cycles: 107397
1banks busy for read cycles: 19048812
1banks busy for write cycles: 12457564
2banks busy for read cycles: 9309604
2banks busy for write cycles: 5731771
3banks busy for read cycles: 1101115
3banks busy for write cycles: 1669090
4banks busy for read cycles: 342212
4banks busy for write cycles: 860512
5banks busy for read cycles: 96525
5banks busy for write cycles: 534552
6banks busy for read cycles: 50241
6banks busy for write cycles: 357815
7banks busy for read cycles: 41441
7banks busy for write cycles: 252373
8banks busy for read cycles: 99095
8banks busy for write cycles: 268339

CPU 0 Branch Prediction Accuracy: 99.7946% MPKI: 0.361505 Average ROB Occupancy at Mispredict: 42.3031
Branch types
NOT_BRANCH: 164798107 82.3991%
BRANCH_DIRECT_JUMP: 1714565 0.857282%
BRANCH_INDIRECT: 9411853 4.70593%
BRANCH_CONDITIONAL: 17949372 8.97469%
BRANCH_DIRECT_CALL: 2431594 1.2158%
BRANCH_INDIRECT_CALL: 630486 0.315243%
BRANCH_RETURN: 3064162 1.53208%
BRANCH_OTHER: 0 0%

DRAM PAGES: 1048576
Allocated PAGES: 5849
