
*** ChampSim Multicore Out-of-Order Simulator ***

Warmup Instructions: 50000000
Simulation Instructions: 200000000
Number of CPUs: 1
LLC sets: 2048
LLC ways: 16
Off-chip DRAM Size: 4096 MB Channels: 1 Width: 64-bit Data Rate: 6400 MT/s
CPU 0 runs traces/spec2k17/srv_33.champsimtrace.xz
.xz
BTB has LRU replacement policy
ITLB has LRU replacement policy
DTLB has LRU replacement policy
STLB has LRU replacement policy
L1I has LRU replacement policy
CPU 0 l1d next line prefetcher
L1D has LRU replacement policy
Initialize SRRIP state for L2C
Initialize DRRIP state for LLC
Offsets elements: 
Potential of Offsets elements: 
rewards of Offsets elements: 
Printing Sanity1
offset list size1026
Heartbeat CPU 0 instructions: 10000001 cycles: 2938126 heartbeat IPC: 3.40353 cumulative IPC: 3.40353 (Simulation time: 0 hr 0 min 41 sec) 
Heartbeat CPU 0 instructions: 20000003 cycles: 5879571 heartbeat IPC: 3.39969 cumulative IPC: 3.40161 (Simulation time: 0 hr 1 min 22 sec) 
Heartbeat CPU 0 instructions: 30000000 cycles: 8815245 heartbeat IPC: 3.40637 cumulative IPC: 3.4032 (Simulation time: 0 hr 2 min 2 sec) 
Offsets elements: 
Potential of Offsets elements: 
rewards of Offsets elements: 0 0 0 0 0 0 0 0 0 0 6 0 0 0 0 0 0 0 0 126 0 0 0 0 0 9 0 0 0 387 0 0 0 0 0 8 0 0 3 5 2 0 0 0 0 0 0 0 0 0 0 0 4 0 487 0 2 5 0 0 0 0 12 11 3 0 0 0 0 0 0 0 0 0 0 0 0 0 0 0 0 0 0 0 0 0 0 0 0 0 0 0 0 0 0 452 406 0 170 0 0 1 0 0 8 0 0 43 0 0 0 0 0 0 0 0 0 0 0 0 0 0 0 0 0 235 0 0 132 150 0 0 0 0 0 0 0 0 0 0 0 0 0 0 0 12 0 0 0 0 0 0 0 0 0 0 0 0 0 0 0 346 0 0 0 0 0 0 0 0 232 0 0 3 0 0 0 0 31 0 0 0 0 0 0 0 0 0 0 0 4 0 0 0 0 0 2 0 0 0 0 0 0 0 0 0 0 0 0 0 0 0 0 0 0 0 0 0 5 0 0 0 0 0 0 0 7 0 0 0 0 0 0 0 6 6 0 0 1 0 0 28 0 0 0 0 0 0 0 0 0 0 0 0 0 0 2 27 0 0 0 12 0 15 0 0 0 0 123 0 14 0 0 0 0 0 0 0 0 0 0 4 0 36 0 13 0 0 0 0 0 0 459 0 0 0 0 5 0 0 2 8 18 0 0 0 0 7 0 0 0 0 5 0 2 0 0 0 0 0 0 0 0 0 0 2 0 0 0 0 0 6 0 0 0 0 0 82 0 0 0 0 0 0 0 0 0 1 0 1 0 0 78 0 19 0 0 0 1 0 0 0 0 0 0 0 0 0 0 0 0 55 25 8 31 0 0 0 0 0 0 0 0 0 1 0 0 0 6 0 142 4 0 0 0 0 21 6 0 0 0 0 0 0 0 0 0 1 0 0 0 0 0 18 0 7 5 7 15 0 57 0 0 0 0 7 0 0 0 0 0 0 0 0 0 0 221 0 43 13 0 0 0 51 97 0 0 0 0 0 0 0 0 0 2 0 0 0 27 0 0 0 0 0 0 0 0 0 0 0 0 0 0 0 0 0 0 0 0 0 0 0 0 26 2 0 1 0 0 0 0 0 0 0 0 0 0 0 5 4 0 0 0 29 79 1 3 0 2 0 0 0 0 1 0 0 0 0 0 0 0 0 0 0 3 0 0 0 23 11 13 0 0 0 0 0 1 0 0 0 0 0 0 0 4 1 0 0 0 0 4 8 0 0 0 0 0 0 0 0 0 0 0 0 0 0 0 0 0 0 11 0 12 0 17 0 0 0 0 224 52 0 0 0 0 0 0 0 4 59 0 0 0 31 90 9 20 0 0 185 0 0 0 0 0 0 0 0 0 0 0 0 0 0 5 0 92 0 9 0 0 0 0 0 0 0 0 0 0 0 0 0 0 0 0 1 0 0 0 0 0 0 0 0 0 0 330 1 0 0 0 0 0 0 0 1 21 2 0 0 0 0 23 0 0 128 101 0 0 0 0 0 0 0 128 1 5 0 138 0 0 58 3 0 29 11 4 0 1 0 0 0 0 0 0 0 0 226 0 45 0 0 1 0 0 0 0 0 20 27 0 0 0 0 0 0 0 0 0 205 0 0 80 0 0 2 10 0 0 0 0 0 0 0 0 0 0 0 0 0 0 0 0 0 0 0 0 0 0 0 0 0 0 34 0 0 230 0 0 0 0 0 0 176 0 0 0 255 359 0 0 0 0 0 0 0 72 0 0 0 0 0 0 25 0 0 0 0 116 0 0 50 0 0 0 0 0 66 166 0 0 0 0 153 0 3 0 0 0 0 0 0 0 1 0 0 0 0 9 0 0 0 0 0 0 0 0 15 0 0 0 0 0 0 0 0 10 0 0 2 0 0 0 0 0 0 0 0 0 0 0 0 0 1 0 0 0 0 0 0 0 0 0 0 5 0 0 0 0 0 0 339 0 0 0 0 0 0 0 2 0 0 5 0 0 0 0 0 0 0 0 0 205 0 0 0 0 0 0 0 0 0 48 0 0 0 61 0 40 0 0 0 106 0 0 0 0 0 0 0 0 0 0 0 0 0 0 29 207 0 0 0 0 0 0 0 0 0 0 0 0 0 0 0 0 0 0 0 0 0 0 0 0 0 0 0 0 0 0 54 0 0 27 0 0 0 0 0 0 1 0 0 0 0 0 1 166 0 0 148 0 0 0 0 0 0 0 0 11 0 0 0 9 0 0 0 0 0 0 0 0 0 0 0 0 0 0 0 0 0 0 0 0 0 0 0 0 5 0 0 0 0 0 0 217 75 
Printing Sanity2
*** Reached end of trace for Core: 0 Repeating trace: traces/spec2k17/srv_33.champsimtrace.xz
Heartbeat CPU 0 instructions: 40000003 cycles: 11753205 heartbeat IPC: 3.40372 cumulative IPC: 3.40333 (Simulation time: 0 hr 2 min 41 sec) 
Heartbeat CPU 0 instructions: 50000002 cycles: 14699105 heartbeat IPC: 3.39455 cumulative IPC: 3.40157 (Simulation time: 0 hr 3 min 19 sec) 

Warmup complete CPU 0 instructions: 50000002 cycles: 14699105 (Simulation time: 0 hr 3 min 19 sec) 

Heartbeat CPU 0 instructions: 60000000 cycles: 34982497 heartbeat IPC: 0.493014 cumulative IPC: 0.493014 (Simulation time: 0 hr 4 min 31 sec) 
*** Reached end of trace for Core: 0 Repeating trace: traces/spec2k17/srv_33.champsimtrace.xz
Heartbeat CPU 0 instructions: 70000000 cycles: 54464135 heartbeat IPC: 0.513304 cumulative IPC: 0.502954 (Simulation time: 0 hr 5 min 40 sec) 
Heartbeat CPU 0 instructions: 80000001 cycles: 73649790 heartbeat IPC: 0.521223 cumulative IPC: 0.5089 (Simulation time: 0 hr 6 min 52 sec) 
Heartbeat CPU 0 instructions: 90000001 cycles: 92868919 heartbeat IPC: 0.520315 cumulative IPC: 0.511706 (Simulation time: 0 hr 8 min 0 sec) 
*** Reached end of trace for Core: 0 Repeating trace: traces/spec2k17/srv_33.champsimtrace.xz
Heartbeat CPU 0 instructions: 100000003 cycles: 112064583 heartbeat IPC: 0.520951 cumulative IPC: 0.513529 (Simulation time: 0 hr 9 min 9 sec) 
Heartbeat CPU 0 instructions: 110000000 cycles: 131206959 heartbeat IPC: 0.522401 cumulative IPC: 0.514987 (Simulation time: 0 hr 10 min 19 sec) 
Heartbeat CPU 0 instructions: 120000000 cycles: 150467384 heartbeat IPC: 0.519199 cumulative IPC: 0.515584 (Simulation time: 0 hr 11 min 24 sec) 
*** Reached end of trace for Core: 0 Repeating trace: traces/spec2k17/srv_33.champsimtrace.xz
Heartbeat CPU 0 instructions: 130000002 cycles: 169646788 heartbeat IPC: 0.521393 cumulative IPC: 0.516303 (Simulation time: 0 hr 12 min 32 sec) 
Heartbeat CPU 0 instructions: 140000000 cycles: 188744999 heartbeat IPC: 0.523609 cumulative IPC: 0.517105 (Simulation time: 0 hr 13 min 38 sec) 
Heartbeat CPU 0 instructions: 150000001 cycles: 207891137 heartbeat IPC: 0.522299 cumulative IPC: 0.51762 (Simulation time: 0 hr 14 min 48 sec) 
Heartbeat CPU 0 instructions: 160000001 cycles: 227069425 heartbeat IPC: 0.521423 cumulative IPC: 0.517963 (Simulation time: 0 hr 15 min 57 sec) 
*** Reached end of trace for Core: 0 Repeating trace: traces/spec2k17/srv_33.champsimtrace.xz
Heartbeat CPU 0 instructions: 170000001 cycles: 246146475 heartbeat IPC: 0.52419 cumulative IPC: 0.518476 (Simulation time: 0 hr 17 min 7 sec) 
Heartbeat CPU 0 instructions: 180000003 cycles: 265337147 heartbeat IPC: 0.521087 cumulative IPC: 0.518676 (Simulation time: 0 hr 18 min 15 sec) 
Heartbeat CPU 0 instructions: 190000002 cycles: 284488795 heartbeat IPC: 0.522148 cumulative IPC: 0.518923 (Simulation time: 0 hr 19 min 24 sec) 
*** Reached end of trace for Core: 0 Repeating trace: traces/spec2k17/srv_33.champsimtrace.xz
Heartbeat CPU 0 instructions: 200000000 cycles: 303608435 heartbeat IPC: 0.523022 cumulative IPC: 0.519194 (Simulation time: 0 hr 20 min 32 sec) 
Heartbeat CPU 0 instructions: 210000001 cycles: 322781940 heartbeat IPC: 0.521553 cumulative IPC: 0.519341 (Simulation time: 0 hr 21 min 43 sec) 
Heartbeat CPU 0 instructions: 220000000 cycles: 341883233 heartbeat IPC: 0.523525 cumulative IPC: 0.519585 (Simulation time: 0 hr 22 min 50 sec) 
*** Reached end of trace for Core: 0 Repeating trace: traces/spec2k17/srv_33.champsimtrace.xz
Heartbeat CPU 0 instructions: 230000000 cycles: 361045531 heartbeat IPC: 0.521858 cumulative IPC: 0.519711 (Simulation time: 0 hr 23 min 58 sec) 
Heartbeat CPU 0 instructions: 240000001 cycles: 380240429 heartbeat IPC: 0.520972 cumulative IPC: 0.519777 (Simulation time: 0 hr 25 min 4 sec) 
Heartbeat CPU 0 instructions: 250000001 cycles: 399365147 heartbeat IPC: 0.522884 cumulative IPC: 0.519931 (Simulation time: 0 hr 26 min 11 sec) 
Finished CPU 0 instructions: 200000003 cycles: 384666043 cumulative IPC: 0.519931 (Simulation time: 0 hr 26 min 11 sec) 

ChampSim completed all CPUs

Region of Interest Statistics

CPU 0 cumulative IPC: 0.519931 instructions: 200000003 cycles: 384666043
ITLB TOTAL     ACCESS:   33767749  HIT:   32224851  MISS:    1542898  HIT %:    95.4309  MISS %:    4.56915   MPKI: 7.71449
ITLB LOAD TRANSLATION ACCESS:   33767749  HIT:   32224851  MISS:    1542898  HIT %:    95.4309  MISS %:    4.56915   MPKI: 7.71449
ITLB PREFETCH  REQUESTED:          0  ISSUED:          0  USEFUL:          0  USELESS:          0
ITLB USEFUL LOAD PREFETCHES:          0 PREFETCH ISSUED TO LOWER LEVEL:          0  ACCURACY: -nan
ITLB TIMELY PREFETCHES:          0 LATE PREFETCHES: 0 DROPPED PREFETCHES: 0
ITLB PREFETCHES SAME FILL-ORIGIN LEVEL: 0 DIFFERENT FILL-ORIGIN LEVEL: 0
ITLB AVERAGE MISS LATENCY: 9.21944 cycles
ITLB RQ	ACCESS:   40675175	FORWARD:          0	MERGED:    6411461	TO_CACHE:   34263714

DTLB TOTAL     ACCESS:   40063171  HIT:   38547129  MISS:    1516042  HIT %:    96.2159  MISS %:    3.78413   MPKI: 7.58021
DTLB LOAD TRANSLATION ACCESS:   40063171  HIT:   38547129  MISS:    1516042  HIT %:    96.2159  MISS %:    3.78413   MPKI: 7.58021
DTLB PREFETCH  REQUESTED:          0  ISSUED:          0  USEFUL:          0  USELESS:          0
DTLB USEFUL LOAD PREFETCHES:          0 PREFETCH ISSUED TO LOWER LEVEL:          0  ACCURACY: -nan
DTLB TIMELY PREFETCHES:          0 LATE PREFETCHES: 0 DROPPED PREFETCHES: 0
DTLB PREFETCHES SAME FILL-ORIGIN LEVEL: 0 DIFFERENT FILL-ORIGIN LEVEL: 0
DTLB AVERAGE MISS LATENCY: 14.1345 cycles
DTLB RQ	ACCESS:   61226023	FORWARD:          0	MERGED:   20767921	TO_CACHE:   40458102

STLB TOTAL     ACCESS:    5230574  HIT:    5156091  MISS:      74483  HIT %:     98.576  MISS %:    1.42399   MPKI: 0.372415
STLB LOAD TRANSLATION ACCESS:    3058940  HIT:    2989312  MISS:      69628  HIT %:    97.7238  MISS %:    2.27621   MPKI: 0.34814
STLB TRANSLATION FROM L1D PREFETCHER ACCESS:    2171634  HIT:    2166779  MISS:       4855  HIT %:    99.7764  MISS %:   0.223564   MPKI: 0.024275
STLB PREFETCH  REQUESTED:          0  ISSUED:          0  USEFUL:       4340  USELESS:        518
STLB USEFUL LOAD PREFETCHES:       4340 PREFETCH ISSUED TO LOWER LEVEL:          0  ACCURACY: inf
STLB TIMELY PREFETCHES:       4340 LATE PREFETCHES: 908 DROPPED PREFETCHES: 10077
STLB PREFETCHES SAME FILL-ORIGIN LEVEL: 0 DIFFERENT FILL-ORIGIN LEVEL: 0
STLB AVERAGE MISS LATENCY: 965659 cycles
STLB RQ	ACCESS:    5838996	FORWARD:          0	MERGED:     592404	TO_CACHE:    5246592

STLB Hit, L1D data hit: 0
STLB Hit, L2C data hit: 0
STLB Hit, LLC data hit: 0
STLB Hit, LLC data miss: 0
STLB STLB hints to L2: 0
L1D TOTAL     ACCESS:   51403025  HIT:   43273679  MISS:    8129346  HIT %:    84.1851  MISS %:    15.8149   MPKI: 40.6467
L1D LOAD      ACCESS:   26862979  HIT:   24243465  MISS:    2619514  HIT %:    90.2486  MISS %:    9.75139   MPKI: 13.0976
L1D RFO       ACCESS:   22412778  HIT:   18756607  MISS:    3656171  HIT %:    83.6871  MISS %:    16.3129   MPKI: 18.2809
L1D PREFETCH  ACCESS:    2127268  HIT:     273607  MISS:    1853661  HIT %:    12.8619  MISS %:    87.1381   MPKI: 9.2683
AGUS PREFETCH L1 MISS: 0
L1D PREFETCH  REQUESTED:    5712250  ISSUED:    5708858  USEFUL:     625280  USELESS:    1228400
L1D USEFUL LOAD PREFETCHES:     625280 PREFETCH ISSUED TO LOWER LEVEL:    2260282  ACCURACY: 27.6638
L1D TIMELY PREFETCHES:     625280 LATE PREFETCHES: 406278 DROPPED PREFETCHES: 15614
L1D PREFETCHES SAME FILL-ORIGIN LEVEL: 2260282 DIFFERENT FILL-ORIGIN LEVEL: 0
L1D AVERAGE MISS LATENCY: 1.03719e+07 cycles
L1D RQ	ACCESS:   45328997	FORWARD:          0	MERGED:   17878272	TO_CACHE:   27175658
L1D WQ	ACCESS:   34247149	FORWARD:     275329	MERGED:     196784	TO_CACHE:   34050365
L1D PQ	ACCESS:    2928802	FORWARD:          0	MERGED:     148484	TO_CACHE:    2780056

L1D UNIQUE REGIONS ACCESSED: 0
L1D REGIONS CONFLICTS: 0
L1D Cross Page Prefetch Requests: 3158647
L1D Same Page Prefetch Requests: 0
L1D ROI Sum of L1D PQ occupancy: 42612014
L1D PREFETCHES PUSHED FROM L2C: 0
L1I TOTAL     ACCESS:   38013605  HIT:   28895470  MISS:    9118135  HIT %:    76.0135  MISS %:    23.9865   MPKI: 45.5907
L1I LOAD      ACCESS:   38013605  HIT:   28895470  MISS:    9118135  HIT %:    76.0135  MISS %:    23.9865   MPKI: 45.5907
L1I PREFETCH  REQUESTED:          0  ISSUED:          0  USEFUL:          0  USELESS:          0
L1I USEFUL LOAD PREFETCHES:          0 PREFETCH ISSUED TO LOWER LEVEL:          0  ACCURACY: -nan
L1I TIMELY PREFETCHES:          0 LATE PREFETCHES: 0 DROPPED PREFETCHES: 0
L1I PREFETCHES SAME FILL-ORIGIN LEVEL: 0 DIFFERENT FILL-ORIGIN LEVEL: 0
L1I AVERAGE MISS LATENCY: 16.5689 cycles
L1I RQ	ACCESS:   58945874	FORWARD:          0	MERGED:   18270699	TO_CACHE:   40675175

BTB TOTAL     ACCESS:   25663217  HIT:   24125509  MISS:    1537708  HIT %:    94.0081  MISS %:    5.99188   MPKI: 7.68854
BTB BRANCH_DIRECT_JUMP	ACCESS:    1661208  HIT:    1651586  MISS:       9622
BTB BRANCH_INDIRECT	ACCESS:    9967593  HIT:    9459764  MISS:     507829
BTB BRANCH_CONDITIONAL	ACCESS:    7198622  HIT:    7185146  MISS:      13476
BTB BRANCH_DIRECT_CALL	ACCESS:    2825210  HIT:    2791882  MISS:      33328
BTB BRANCH_INDIRECT_CALL	ACCESS:     592633  HIT:     481147  MISS:     111486
BTB BRANCH_RETURN	ACCESS:    3417951  HIT:    2555984  MISS:     861967
BTB BRANCH_OTHER ACCESS:          0  HIT:          0  MISS:          0

L2C TOTAL     ACCESS:   21724911  HIT:   14397651  MISS:    7327260  HIT %:    66.2725  MISS %:    33.7275   MPKI: 36.6363
L2C LOAD      ACCESS:   11330994  HIT:    9335936  MISS:    1995058  HIT %:    82.3929  MISS %:    17.6071   MPKI: 9.97529
L2C DATA LOAD MPKI: 6.99381
L2C INSTRUCTION LOAD MPKI: 2.98148
L2C RFO       ACCESS:    3655812  HIT:     137056  MISS:    3518756  HIT %:    3.74899  MISS %:     96.251   MPKI: 17.5938
L2C PREFETCH  ACCESS:    2260277  HIT:     608878  MISS:    1651399  HIT %:    26.9382  MISS %:    73.0618   MPKI: 8.25699
AGUS PREFETCH L1 MISS: 0
L2C DATA PREFETCH MPKI: 8.25699
L2C INSTRUCTION PREFETCH MPKI: 0
L2C WRITEBACK ACCESS:    4381141  HIT:    4261015  MISS:     120126  HIT %:    97.2581  MISS %:    2.74189   MPKI: 0.60063
L2C LOAD TRANSLATION ACCESS:      76764  HIT:      41809  MISS:      34955  HIT %:    54.4643  MISS %:    45.5357   MPKI: 0.174775
L2C TRANSLATION FROM L1D PREFETCHER ACCESS:      19923  HIT:      12957  MISS:       6966  HIT %:    65.0354  MISS %:    34.9646   MPKI: 0.03483
L2C PREFETCH  REQUESTED:          0  ISSUED:          0  USEFUL:      51679  USELESS:    1606484
L2C USEFUL LOAD PREFETCHES:      51679 PREFETCH ISSUED TO LOWER LEVEL:    1651404  ACCURACY: 3.1294
L2C TIMELY PREFETCHES:      51679 LATE PREFETCHES: 0 DROPPED PREFETCHES: 0
L2C PREFETCHES SAME FILL-ORIGIN LEVEL: 0 DIFFERENT FILL-ORIGIN LEVEL: 0
L2C AVERAGE MISS LATENCY: 151.732 cycles
L2C RQ	ACCESS:   15083895	FORWARD:          0	MERGED:          0	TO_CACHE:   15083497
L2C WQ	ACCESS:    4381141	FORWARD:        398	MERGED:          0	TO_CACHE:    4381141
L2C PQ	ACCESS:    2260282	FORWARD:          0	MERGED:          0	TO_CACHE:    2260282

L2C Instructions Evicting Data 546993
L2C Translations Evicting Data 38360
L2C Data Evicting Data 5995873
L2C Instructions Evicting Instructions 46025
L2C Translations Evicting Instructions 3403
L2C Data Evicting Instructions 535115
L2C Instructions Evicting Translations 3278
L2C Translations Evicting Translations 158
L2C Data Evicting Translations 37929
L2C Dense regions hint from L2: 0
PSCL5 TOTAL     ACCESS:      84560  HIT:      84560  MISS:          0  HIT %:        100  MISS %:          0   MPKI: 0
PSCL5 LOAD TRANSLATION ACCESS:      68720  HIT:      68720  MISS:          0  HIT %:        100  MISS %:          0   MPKI: 0
PSCL5 TRANSLATION FROM L1D PREFETCHER ACCESS:      15840  HIT:      15840  MISS:          0  HIT %:        100  MISS %:          0   MPKI: 0
PSCL5 PREFETCH  REQUESTED:          0  ISSUED:          0  USEFUL:          0  USELESS:          0
PSCL5 USEFUL LOAD PREFETCHES:          0 PREFETCH ISSUED TO LOWER LEVEL:          0  ACCURACY: -nan
PSCL5 TIMELY PREFETCHES:          0 LATE PREFETCHES: 0 DROPPED PREFETCHES: 0
PSCL5 PREFETCHES SAME FILL-ORIGIN LEVEL: 0 DIFFERENT FILL-ORIGIN LEVEL: 0

PSCL4 TOTAL     ACCESS:      70945  HIT:      70854  MISS:         91  HIT %:    99.8717  MISS %:   0.128268   MPKI: 0.000455
PSCL4 LOAD TRANSLATION ACCESS:      58835  HIT:      58744  MISS:         91  HIT %:    99.8453  MISS %:    0.15467   MPKI: 0.000455
PSCL4 TRANSLATION FROM L1D PREFETCHER ACCESS:      12110  HIT:      12110  MISS:          0  HIT %:        100  MISS %:          0   MPKI: 0
PSCL4 PREFETCH  REQUESTED:          0  ISSUED:          0  USEFUL:          0  USELESS:          0
PSCL4 USEFUL LOAD PREFETCHES:          0 PREFETCH ISSUED TO LOWER LEVEL:          0  ACCURACY: -nan
PSCL4 TIMELY PREFETCHES:          0 LATE PREFETCHES: 0 DROPPED PREFETCHES: 0
PSCL4 PREFETCHES SAME FILL-ORIGIN LEVEL: 0 DIFFERENT FILL-ORIGIN LEVEL: 0

PSCL3 TOTAL     ACCESS:      84532  HIT:      84350  MISS:        182  HIT %:    99.7847  MISS %:   0.215303   MPKI: 0.00091
PSCL3 LOAD TRANSLATION ACCESS:      68710  HIT:      68528  MISS:        182  HIT %:    99.7351  MISS %:   0.264881   MPKI: 0.00091
PSCL3 TRANSLATION FROM L1D PREFETCHER ACCESS:      15822  HIT:      15822  MISS:          0  HIT %:        100  MISS %:          0   MPKI: 0
PSCL3 PREFETCH  REQUESTED:          0  ISSUED:          0  USEFUL:          0  USELESS:          0
PSCL3 USEFUL LOAD PREFETCHES:          0 PREFETCH ISSUED TO LOWER LEVEL:          0  ACCURACY: -nan
PSCL3 TIMELY PREFETCHES:          0 LATE PREFETCHES: 0 DROPPED PREFETCHES: 0
PSCL3 PREFETCHES SAME FILL-ORIGIN LEVEL: 0 DIFFERENT FILL-ORIGIN LEVEL: 0

PSCL2 TOTAL     ACCESS:      80651  HIT:      72718  MISS:       7933  HIT %:    90.1638  MISS %:    9.83621   MPKI: 0.039665
PSCL2 LOAD TRANSLATION ACCESS:      68876  HIT:      60943  MISS:       7933  HIT %:    88.4822  MISS %:    11.5178   MPKI: 0.039665
PSCL2 TRANSLATION FROM L1D PREFETCHER ACCESS:      11775  HIT:      11775  MISS:          0  HIT %:        100  MISS %:          0   MPKI: 0
PSCL2 PREFETCH  REQUESTED:          0  ISSUED:          0  USEFUL:          0  USELESS:          0
PSCL2 USEFUL LOAD PREFETCHES:          0 PREFETCH ISSUED TO LOWER LEVEL:          0  ACCURACY: -nan
PSCL2 TIMELY PREFETCHES:          0 LATE PREFETCHES: 0 DROPPED PREFETCHES: 0
PSCL2 PREFETCHES SAME FILL-ORIGIN LEVEL: 0 DIFFERENT FILL-ORIGIN LEVEL: 0

LLC TOTAL     ACCESS:   11291164  HIT:    4929618  MISS:    6361546  HIT %:    43.6591  MISS %:    56.3409   MPKI: 31.8077
LLC LOAD      ACCESS:    1995057  HIT:    1489927  MISS:     505130  HIT %:    74.6809  MISS %:    25.3191   MPKI: 2.52565
LLC RFO       ACCESS:    3518737  HIT:     908849  MISS:    2609888  HIT %:    25.8288  MISS %:    74.1712   MPKI: 13.0494
LLC PREFETCH  ACCESS:    1651400  HIT:     808477  MISS:     842923  HIT %:    48.9571  MISS %:    51.0429   MPKI: 4.21461
AGUS PREFETCH L1 MISS: 0
LLC WRITEBACK ACCESS:    4084049  HIT:    1707435  MISS:    2376614  HIT %:    41.8074  MISS %:    58.1926   MPKI: 11.8831
LLC LOAD TRANSLATION ACCESS:      34955  HIT:      10435  MISS:      24520  HIT %:    29.8527  MISS %:    70.1473   MPKI: 0.1226
LLC TRANSLATION FROM L1D PREFETCHER ACCESS:       6966  HIT:       4495  MISS:       2471  HIT %:    64.5277  MISS %:    35.4723   MPKI: 0.012355
LLC PREFETCH  REQUESTED:          0  ISSUED:          0  USEFUL:       3199  USELESS:     845001
LLC USEFUL LOAD PREFETCHES:       3199 PREFETCH ISSUED TO LOWER LEVEL:     842928  ACCURACY: 0.37951
LLC TIMELY PREFETCHES:       3199 LATE PREFETCHES: 0 DROPPED PREFETCHES: 0
LLC PREFETCHES SAME FILL-ORIGIN LEVEL: 0 DIFFERENT FILL-ORIGIN LEVEL: 0
LLC AVERAGE MISS LATENCY: 140.777 cycles
LLC RQ	ACCESS:    5555739	FORWARD:          0	MERGED:          0	TO_CACHE:    5555718
LLC WQ	ACCESS:    4084050	FORWARD:         21	MERGED:          0	TO_CACHE:    4084050
LLC PQ	ACCESS:    1651404	FORWARD:          0	MERGED:          0	TO_CACHE:    1651404

LLC Dense regions hint to LLC: 0

RAW hits: 2398950
Loads Generated: 47727947
Loads sent to L1D: 45328997
Stores Generated: 34247147
Stores sent to L1D: 34247149
Major fault: 0 Minor fault: 8597
Allocated PAGES: 8597
CPU 0 L1D 
Prefetch count 2445836 BOP and RL 

DRAM Statistics
 CHANNEL 0
 RQ ROW_BUFFER_HIT:    1974141  ROW_BUFFER_MISS:    2010308
 DBUS_CONGESTED:       2341
 WQ ROW_BUFFER_HIT:     521803  ROW_BUFFER_MISS:    2175636  FULL:      49859

 AVG_CONGESTED_CYCLE: 3
 All warmup complete: 2
Channel 0 Bank busy for read cycles: 0
Channel 0 Bank busy for write cycles: 0
Channel 0
Rank 0
0banks busy for read cycles: 173758865
0banks busy for write cycles: 249006
1banks busy for read cycles: 25442395
1banks busy for write cycles: 32037606
2banks busy for read cycles: 15577073
2banks busy for write cycles: 14972931
3banks busy for read cycles: 16203856
3banks busy for write cycles: 7414682
4banks busy for read cycles: 7435823
4banks busy for write cycles: 4841447
5banks busy for read cycles: 6799895
5banks busy for write cycles: 3747306
6banks busy for read cycles: 6427289
6banks busy for write cycles: 3579433
7banks busy for read cycles: 6075560
7banks busy for write cycles: 5796440
8banks busy for read cycles: 19731779
8banks busy for write cycles: 34574658

CPU 0 Branch Prediction Accuracy: 99.9491% MPKI: 0.0777 Average ROB Occupancy at Mispredict: 122.355
Branch types
NOT_BRANCH: 169471465 84.7357%
BRANCH_DIRECT_JUMP: 1661208 0.830604%
BRANCH_INDIRECT: 9967593 4.9838%
BRANCH_CONDITIONAL: 12063902 6.03195%
BRANCH_DIRECT_CALL: 2825210 1.4126%
BRANCH_INDIRECT_CALL: 592633 0.296316%
BRANCH_RETURN: 3417951 1.70898%
BRANCH_OTHER: 0 0%

DRAM PAGES: 1048576
Allocated PAGES: 8597
