
*** ChampSim Multicore Out-of-Order Simulator ***

Warmup Instructions: 50000000
Simulation Instructions: 200000000
Number of CPUs: 1
LLC sets: 2048
LLC ways: 16
Off-chip DRAM Size: 4096 MB Channels: 1 Width: 64-bit Data Rate: 6400 MT/s
CPU 0 runs traces/spec2k17/srv_3.champsimtrace.xz
.xz
BTB has LRU replacement policy
ITLB has LRU replacement policy
DTLB has LRU replacement policy
STLB has LRU replacement policy
L1I has LRU replacement policy
CPU 0 l1d next line prefetcher
L1D has LRU replacement policy
Initialize SRRIP state for L2C
Initialize DRRIP state for LLC
Offsets elements: 
Potential of Offsets elements: 
rewards of Offsets elements: 
Printing Sanity1
offset list size2346
Heartbeat CPU 0 instructions: 10000003 cycles: 2769240 heartbeat IPC: 3.6111 cumulative IPC: 3.6111 (Simulation time: 0 hr 0 min 32 sec) 
Heartbeat CPU 0 instructions: 20000001 cycles: 5533516 heartbeat IPC: 3.61758 cumulative IPC: 3.61434 (Simulation time: 0 hr 1 min 8 sec) 
Heartbeat CPU 0 instructions: 30000000 cycles: 8299527 heartbeat IPC: 3.61531 cumulative IPC: 3.61466 (Simulation time: 0 hr 1 min 41 sec) 
*** Reached end of trace for Core: 0 Repeating trace: traces/spec2k17/srv_3.champsimtrace.xz
Heartbeat CPU 0 instructions: 40000003 cycles: 11059180 heartbeat IPC: 3.62365 cumulative IPC: 3.6169 (Simulation time: 0 hr 2 min 15 sec) 
Heartbeat CPU 0 instructions: 50000002 cycles: 13824470 heartbeat IPC: 3.61626 cumulative IPC: 3.61678 (Simulation time: 0 hr 2 min 49 sec) 

Warmup complete CPU 0 instructions: 50000002 cycles: 13824470 (Simulation time: 0 hr 2 min 49 sec) 

Heartbeat CPU 0 instructions: 60000001 cycles: 35639979 heartbeat IPC: 0.458389 cumulative IPC: 0.458389 (Simulation time: 0 hr 3 min 43 sec) 
*** Reached end of trace for Core: 0 Repeating trace: traces/spec2k17/srv_3.champsimtrace.xz
Heartbeat CPU 0 instructions: 70000000 cycles: 57208306 heartbeat IPC: 0.463643 cumulative IPC: 0.461001 (Simulation time: 0 hr 4 min 36 sec) 
Heartbeat CPU 0 instructions: 80000000 cycles: 79523529 heartbeat IPC: 0.448125 cumulative IPC: 0.456628 (Simulation time: 0 hr 5 min 26 sec) 
Heartbeat CPU 0 instructions: 90000000 cycles: 101133493 heartbeat IPC: 0.46275 cumulative IPC: 0.458143 (Simulation time: 0 hr 6 min 19 sec) 
*** Reached end of trace for Core: 0 Repeating trace: traces/spec2k17/srv_3.champsimtrace.xz
Heartbeat CPU 0 instructions: 100000003 cycles: 122817415 heartbeat IPC: 0.461171 cumulative IPC: 0.458745 (Simulation time: 0 hr 7 min 14 sec) 
Offsets elements: 
Potential of Offsets elements: 
rewards of Offsets elements: 0 39 0 0 0 0 0 0 0 208 0 0 168 0 0 0 157 0 0 0 0 0 0 0 0 0 0 2 0 275 0 0 0 173 126 148 13 14 0 13 0 2 0 0 0 71 3 0 0 0 0 0 0 0 0 58 0 0 0 0 0 0 0 0 0 0 0 0 0 0 0 0 0 0 0 0 0 0 0 0 2 0 1 4 24 0 0 0 0 0 0 0 0 0 0 4 0 1 0 0 0 0 0 0 2 1 0 0 0 0 19 0 0 0 0 0 0 14 0 0 0 0 0 1 0 0 0 0 0 2 4 0 0 104 0 18 0 0 47 58 0 0 0 0 0 0 0 0 0 0 30 0 0 0 0 0 4 0 0 0 0 0 16 0 0 0 0 0 0 0 0 0 6 0 0 0 0 0 0 0 0 0 0 0 0 0 0 1 1 1 0 0 0 0 0 0 0 0 0 0 1 0 0 0 0 0 0 0 0 1 0 0 0 0 0 0 0 0 0 0 0 0 1 0 0 136 0 0 0 0 0 0 0 0 0 0 0 2 0 0 2 0 0 0 14 0 0 0 0 0 0 0 0 0 0 0 0 40 1 0 0 0 1 0 0 0 0 2 0 0 0 0 0 0 0 0 0 0 0 0 0 0 0 0 0 0 0 22 0 0 0 0 0 0 0 0 0 0 0 0 0 0 0 0 0 0 0 0 0 0 0 0 0 0 0 0 0 3 0 0 0 0 0 0 0 0 0 0 0 0 1 29 19 0 0 0 0 0 0 0 0 0 0 8 0 1 0 0 2 0 0 0 0 0 0 0 0 68 0 0 0 0 0 0 0 0 0 0 0 0 0 0 0 0 0 0 0 1 0 0 0 0 29 52 0 0 4 0 0 0 0 0 0 56 48 0 0 0 1 2 0 0 0 0 0 0 0 0 0 1 0 0 0 0 0 0 0 0 1 0 0 0 0 0 0 0 0 0 1 0 0 0 38 0 0 0 0 0 0 0 0 0 0 0 0 0 0 0 0 0 0 0 13 0 0 0 1 0 0 0 0 0 0 0 0 0 0 0 93 0 0 0 0 0 0 0 0 3 0 3 0 0 1 0 0 0 0 0 0 0 0 88 0 0 0 0 0 0 3 0 0 0 0 0 0 1 2 0 0 0 0 0 0 0 0 0 0 0 0 0 0 0 0 0 0 119 0 0 0 0 0 0 0 0 0 0 0 0 0 0 0 0 0 0 0 0 0 0 0 0 0 1 90 0 10 1 0 0 0 0 0 0 0 0 0 0 0 0 0 0 0 2 0 0 3 0 0 0 0 0 0 1 0 0 0 0 0 0 0 0 0 0 0 0 5 0 0 40 0 0 0 0 0 0 0 0 0 0 0 0 0 0 0 0 1 0 0 0 0 0 0 0 2 0 0 0 0 0 0 0 0 0 0 0 0 1 0 0 0 0 0 0 0 0 0 0 0 7 0 0 0 0 0 0 0 0 0 0 1 0 0 0 0 1 2 0 0 0 45 112 0 0 0 0 0 0 0 0 0 0 0 0 1 0 0 0 0 0 19 0 0 117 0 0 0 0 0 0 0 0 0 0 0 0 0 0 2 135 24 0 0 0 0 0 0 0 0 0 0 1 0 0 0 0 0 0 0 0 0 0 0 0 0 0 0 0 0 0 0 0 0 0 0 0 0 0 0 0 0 0 0 0 0 0 0 0 0 0 0 0 0 0 0 0 0 0 0 0 0 0 0 0 1 0 0 0 1 0 0 0 0 0 0 0 0 0 34 0 0 0 0 1 0 0 0 30 0 0 0 0 0 0 0 66 0 0 6 0 4 0 0 0 0 0 0 0 0 0 0 0 0 0 0 0 0 0 1 0 0 0 6 0 0 0 0 0 0 0 0 0 0 0 0 0 0 0 0 1 0 0 0 0 0 0 0 0 0 0 0 0 0 118 0 0 0 0 0 0 0 0 0 1 0 0 0 0 0 2 1 0 0 0 0 2 7 9 0 3 0 0 0 0 1 1 0 0 0 0 0 0 5 0 0 0 0 0 0 0 0 0 0 13 0 0 0 9 0 0 0 8 0 0 0 0 0 0 0 0 0 0 0 107 30 0 0 0 0 0 0 0 0 0 0 0 0 0 0 3 0 0 0 44 0 1 0 0 0 0 6 0 0 0 0 2 1 0 1 0 0 0 0 0 0 0 0 1 0 0 0 0 0 0 0 0 1 0 0 0 0 0 0 0 0 0 0 0 0 1 0 0 0 0 0 0 0 28 0 0 15 0 0 0 0 0 0 11 0 22 36 0 0 0 0 13 1 0 0 0 0 0 0 0 0 0 0 0 7 0 0 1 0 6 19 0 0 0 0 0 0 0 0 0 0 2 0 0 0 0 0 0 0 0 0 0 0 0 0 0 0 0 0 0 0 0 22 3 0 0 0 0 0 2 76 0 0 0 0 63 0 0 0 0 0 1 0 0 0 11 0 0 3 0 0 2 0 0 0 0 0 0 0 0 0 0 0 1 0 0 4 0 0 0 0 0 0 2 0 0 0 67 0 0 1 3 0 0 0 0 0 0 0 0 0 0 0 0 1 0 4 0 0 0 0 0 0 0 0 0 0 0 0 0 0 0 0 0 0 0 0 0 0 0 1 0 0 0 3 0 0 2 0 0 0 0 0 0 0 0 5 30 0 0 0 1 0 1 0 0 0 0 0 0 0 0 3 0 0 0 66 0 3 0 0 0 0 0 0 0 0 0 0 0 0 0 0 0 1 41 0 0 0 0 0 0 0 0 0 0 0 0 0 7 2 0 0 0 0 0 0 0 0 0 0 0 0 0 0 0 0 0 0 0 0 0 0 0 0 0 0 0 0 0 2 0 8 0 0 0 0 0 0 0 0 0 0 0 0 0 0 0 0 0 0 1 0 0 0 0 0 0 0 0 0 0 3 3 0 0 0 0 0 0 0 0 0 0 0 0 0 0 0 0 0 0 21 0 0 0 0 0 0 0 0 48 0 0 0 0 0 4 0 0 0 0 0 0 0 0 0 1 0 0 0 0 0 1 0 0 0 0 0 0 0 0 0 1 0 4 0 0 0 0 0 0 0 0 0 0 0 0 0 0 0 0 0 0 0 0 3 0 0 0 5 0 0 0 0 0 0 0 30 14 0 0 0 1 0 0 0 0 0 0 0 0 0 1 0 0 0 0 0 0 0 0 0 0 0 0 1 2 5 0 128 0 0 0 0 0 0 17 4 0 1 0 0 0 0 0 0 0 0 0 0 3 0 2 0 0 0 0 0 0 0 4 27 170 0 0 0 0 0 8 12 3 0 0 106 0 0 0 83 0 0 0 0 0 0 0 0 0 0 0 0 0 0 0 0 1 0 0 0 78 0 0 0 0 1 1 0 0 0 1 0 0 0 0 0 0 0 0 0 0 0 0 0 0 5 0 0 2 0 0 7 0 5 0 0 1 1 0 0 2 0 0 0 0 0 0 0 0 0 0 0 0 0 0 0 0 0 0 0 0 0 0 0 0 0 0 0 0 0 0 0 0 2 0 0 4 4 0 0 0 0 0 1 0 0 0 0 0 0 0 0 0 0 0 0 1 0 0 0 0 0 0 13 0 3 0 0 0 0 3 0 0 0 0 0 0 0 0 0 1 0 0 0 0 0 0 0 0 0 0 0 0 0 0 0 0 0 0 1 0 0 0 0 0 1 2 0 1 0 0 0 0 0 0 0 0 0 0 0 2 0 0 0 2 0 0 0 1 0 0 0 0 0 0 0 0 0 0 0 0 0 0 0 0 0 0 0 0 0 0 0 0 0 0 0 0 0 0 0 0 0 0 0 0 0 1 0 0 0 1 0 0 0 1 1 2 1 0 0 0 0 2 0 0 0 0 0 0 0 0 1 0 0 0 0 0 0 0 0 0 0 0 0 0 0 0 0 0 0 0 3 0 0 0 0 0 4 0 1 0 0 2 0 0 0 12 0 0 2 0 0 4 0 0 0 0 0 0 0 0 0 0 0 0 0 0 0 0 0 0 0 0 1 0 1 0 0 0 0 0 0 0 0 0 0 1 0 0 0 0 0 0 0 0 0 0 0 0 0 0 0 0 0 0 11 0 0 0 0 0 0 0 0 0 1 0 16 0 0 0 0 0 0 0 0 0 0 0 0 0 0 0 0 0 0 0 0 0 0 0 0 0 0 0 0 0 0 0 1 0 0 0 0 0 0 0 0 0 0 0 0 0 0 0 0 0 0 0 0 0 0 0 0 0 0 0 0 0 2 0 0 0 1 0 0 0 0 0 2 0 0 0 0 0 0 0 0 0 0 0 0 0 0 2 0 0 0 0 1 0 0 0 0 0 0 0 0 2 1 0 0 0 0 0 0 8 2 0 0 0 0 0 1 0 0 0 0 0 0 0 2 5 1 0 0 0 0 0 0 0 0 0 0 0 0 0 0 0 0 0 0 0 0 0 1 0 0 0 0 0 0 3 0 0 0 0 0 0 0 0 0 2 0 0 0 0 0 0 0 0 0 0 0 0 0 0 0 10 0 0 0 0 0 64 0 16 1 0 1 0 0 0 0 0 0 0 0 0 0 0 0 0 0 0 0 0 0 0 0 0 2 0 1 0 0 0 0 0 0 0 0 0 0 0 0 0 0 0 0 0 0 0 0 0 0 0 0 0 0 0 0 0 0 0 0 0 0 0 0 0 0 0 0 0 0 0 0 0 0 0 0 0 0 0 0 0 0 5 0 0 3 0 0 0 0 0 0 1 0 0 0 0 0 0 2 0 0 0 0 0 0 0 0 0 1 0 0 0 0 0 0 0 0 0 0 0 0 25 0 0 0 0 0 0 0 10 0 0 0 0 0 0 0 0 0 0 0 0 0 0 0 0 0 0 0 0 0 0 0 1 0 0 0 0 0 2 0 0 0 0 1 1 0 0 0 0 0 0 0 0 0 1 0 0 0 0 0 0 0 0 0 0 0 0 0 0 1 0 0 0 0 0 0 0 0 0 0 0 0 0 0 0 0 0 2 2 0 0 0 0 0 0 0 0 0 0 0 0 0 0 0 0 0 0 0 0 0 20 0 0 0 0 4 0 0 0 0 0 0 0 0 0 0 0 0 0 0 0 0 0 0 0 0 0 0 0 0 0 0 0 0 0 0 0 1 0 0 2 9 6 0 0 0 0 0 0 0 0 0 0 0 0 0 0 0 0 0 0 0 0 0 0 2 0 0 0 1 7 0 0 0 0 0 0 0 0 0 0 0 4 0 0 0 0 
Printing Sanity2
Heartbeat CPU 0 instructions: 110000000 cycles: 144763773 heartbeat IPC: 0.455656 cumulative IPC: 0.458228 (Simulation time: 0 hr 8 min 9 sec) 
Heartbeat CPU 0 instructions: 120000001 cycles: 166928071 heartbeat IPC: 0.451176 cumulative IPC: 0.457207 (Simulation time: 0 hr 9 min 1 sec) 
*** Reached end of trace for Core: 0 Repeating trace: traces/spec2k17/srv_3.champsimtrace.xz
Heartbeat CPU 0 instructions: 130000002 cycles: 188820226 heartbeat IPC: 0.456785 cumulative IPC: 0.457154 (Simulation time: 0 hr 9 min 52 sec) 
Heartbeat CPU 0 instructions: 140000001 cycles: 211094322 heartbeat IPC: 0.448952 cumulative IPC: 0.456228 (Simulation time: 0 hr 10 min 46 sec) 
Heartbeat CPU 0 instructions: 150000000 cycles: 233093896 heartbeat IPC: 0.454554 cumulative IPC: 0.45606 (Simulation time: 0 hr 11 min 42 sec) 
*** Reached end of trace for Core: 0 Repeating trace: traces/spec2k17/srv_3.champsimtrace.xz
Heartbeat CPU 0 instructions: 160000002 cycles: 254936185 heartbeat IPC: 0.457828 cumulative IPC: 0.45622 (Simulation time: 0 hr 12 min 35 sec) 
Heartbeat CPU 0 instructions: 170000003 cycles: 276985963 heartbeat IPC: 0.453519 cumulative IPC: 0.455994 (Simulation time: 0 hr 13 min 25 sec) 
Heartbeat CPU 0 instructions: 180000000 cycles: 298963891 heartbeat IPC: 0.455002 cumulative IPC: 0.455917 (Simulation time: 0 hr 14 min 19 sec) 
*** Reached end of trace for Core: 0 Repeating trace: traces/spec2k17/srv_3.champsimtrace.xz
Heartbeat CPU 0 instructions: 190000002 cycles: 321102557 heartbeat IPC: 0.451698 cumulative IPC: 0.455613 (Simulation time: 0 hr 15 min 12 sec) 
Heartbeat CPU 0 instructions: 200000001 cycles: 342890510 heartbeat IPC: 0.458969 cumulative IPC: 0.455836 (Simulation time: 0 hr 16 min 6 sec) 
Heartbeat CPU 0 instructions: 210000001 cycles: 364860760 heartbeat IPC: 0.455161 cumulative IPC: 0.455793 (Simulation time: 0 hr 17 min 1 sec) 
*** Reached end of trace for Core: 0 Repeating trace: traces/spec2k17/srv_3.champsimtrace.xz
Heartbeat CPU 0 instructions: 220000000 cycles: 387028515 heartbeat IPC: 0.451106 cumulative IPC: 0.455515 (Simulation time: 0 hr 17 min 55 sec) 
Heartbeat CPU 0 instructions: 230000001 cycles: 408828145 heartbeat IPC: 0.458723 cumulative IPC: 0.455692 (Simulation time: 0 hr 18 min 48 sec) 
Heartbeat CPU 0 instructions: 240000000 cycles: 431041228 heartbeat IPC: 0.450185 cumulative IPC: 0.455399 (Simulation time: 0 hr 19 min 41 sec) 
*** Reached end of trace for Core: 0 Repeating trace: traces/spec2k17/srv_3.champsimtrace.xz
Heartbeat CPU 0 instructions: 250000003 cycles: 453012661 heartbeat IPC: 0.455137 cumulative IPC: 0.455386 (Simulation time: 0 hr 20 min 34 sec) 
Finished CPU 0 instructions: 200000001 cycles: 439188191 cumulative IPC: 0.455386 (Simulation time: 0 hr 20 min 34 sec) 

ChampSim completed all CPUs

Region of Interest Statistics

CPU 0 cumulative IPC: 0.455386 instructions: 200000001 cycles: 439188191
ITLB TOTAL     ACCESS:   31553714  HIT:   30783568  MISS:     770146  HIT %:    97.5593  MISS %:    2.44075   MPKI: 3.85073
ITLB LOAD TRANSLATION ACCESS:   31553714  HIT:   30783568  MISS:     770146  HIT %:    97.5593  MISS %:    2.44075   MPKI: 3.85073
ITLB PREFETCH  REQUESTED:          0  ISSUED:          0  USEFUL:          0  USELESS:          0
ITLB USEFUL LOAD PREFETCHES:          0 PREFETCH ISSUED TO LOWER LEVEL:          0  ACCURACY: -nan
ITLB TIMELY PREFETCHES:          0 LATE PREFETCHES: 0 DROPPED PREFETCHES: 0
ITLB PREFETCHES SAME FILL-ORIGIN LEVEL: 0 DIFFERENT FILL-ORIGIN LEVEL: 0
ITLB AVERAGE MISS LATENCY: 13.9966 cycles
ITLB RQ	ACCESS:   38421774	FORWARD:          0	MERGED:    6674050	TO_CACHE:   31747724

DTLB TOTAL     ACCESS:   37142455  HIT:   34761239  MISS:    2381216  HIT %:     93.589  MISS %:    6.41104   MPKI: 11.9061
DTLB LOAD TRANSLATION ACCESS:   37142455  HIT:   34761239  MISS:    2381216  HIT %:     93.589  MISS %:    6.41104   MPKI: 11.9061
DTLB PREFETCH  REQUESTED:          0  ISSUED:          0  USEFUL:          0  USELESS:          0
DTLB USEFUL LOAD PREFETCHES:          0 PREFETCH ISSUED TO LOWER LEVEL:          0  ACCURACY: -nan
DTLB TIMELY PREFETCHES:          0 LATE PREFETCHES: 0 DROPPED PREFETCHES: 0
DTLB PREFETCHES SAME FILL-ORIGIN LEVEL: 0 DIFFERENT FILL-ORIGIN LEVEL: 0
DTLB AVERAGE MISS LATENCY: 14.0613 cycles
DTLB RQ	ACCESS:   47618879	FORWARD:          0	MERGED:   10330560	TO_CACHE:   37288319

STLB TOTAL     ACCESS:    4396221  HIT:    4064099  MISS:     332122  HIT %:    92.4453  MISS %:    7.55472   MPKI: 1.66061
STLB LOAD TRANSLATION ACCESS:    3151362  HIT:    2822190  MISS:     329172  HIT %:    89.5546  MISS %:    10.4454   MPKI: 1.64586
STLB TRANSLATION FROM L1D PREFETCHER ACCESS:    1244859  HIT:    1241909  MISS:       2950  HIT %:     99.763  MISS %:   0.236975   MPKI: 0.01475
STLB PREFETCH  REQUESTED:          0  ISSUED:          0  USEFUL:       2374  USELESS:        573
STLB USEFUL LOAD PREFETCHES:       2374 PREFETCH ISSUED TO LOWER LEVEL:          0  ACCURACY: inf
STLB TIMELY PREFETCHES:       2374 LATE PREFETCHES: 31 DROPPED PREFETCHES: 6815
STLB PREFETCHES SAME FILL-ORIGIN LEVEL: 0 DIFFERENT FILL-ORIGIN LEVEL: 0
STLB AVERAGE MISS LATENCY: 47.9626 cycles
STLB RQ	ACCESS:    4535068	FORWARD:          0	MERGED:     131831	TO_CACHE:    4403237

STLB Hit, L1D data hit: 0
STLB Hit, L2C data hit: 0
STLB Hit, LLC data hit: 0
STLB Hit, LLC data miss: 0
STLB STLB hints to L2: 0
L1D TOTAL     ACCESS:   48333766  HIT:   44992385  MISS:    3341381  HIT %:    93.0869  MISS %:    6.91314   MPKI: 16.7069
L1D LOAD      ACCESS:   27555265  HIT:   25604086  MISS:    1951179  HIT %:     92.919  MISS %:    7.08097   MPKI: 9.75589
L1D RFO       ACCESS:   19558711  HIT:   19231690  MISS:     327021  HIT %:     98.328  MISS %:      1.672   MPKI: 1.6351
L1D PREFETCH  ACCESS:    1219790  HIT:     156609  MISS:    1063181  HIT %:     12.839  MISS %:     87.161   MPKI: 5.3159
AGUS PREFETCH L1 MISS: 0
L1D PREFETCH  REQUESTED:    2788164  ISSUED:    2788164  USEFUL:     291244  USELESS:     771741
L1D USEFUL LOAD PREFETCHES:     291244 PREFETCH ISSUED TO LOWER LEVEL:    1086469  ACCURACY: 26.8065
L1D TIMELY PREFETCHES:     291244 LATE PREFETCHES: 22232 DROPPED PREFETCHES: 6815
L1D PREFETCHES SAME FILL-ORIGIN LEVEL: 1086469 DIFFERENT FILL-ORIGIN LEVEL: 0
L1D AVERAGE MISS LATENCY: 2.0798e+06 cycles
L1D RQ	ACCESS:   42203034	FORWARD:          0	MERGED:   14301159	TO_CACHE:   27665024
L1D WQ	ACCESS:   20247469	FORWARD:     237328	MERGED:     293614	TO_CACHE:   19953855
L1D PQ	ACCESS:    1404458	FORWARD:          0	MERGED:      20275	TO_CACHE:    1383706

L1D UNIQUE REGIONS ACCESSED: 0
L1D REGIONS CONFLICTS: 0
L1D Cross Page Prefetch Requests: 1404458
L1D Same Page Prefetch Requests: 0
L1D ROI Sum of L1D PQ occupancy: 18352811
L1D PREFETCHES PUSHED FROM L2C: 0
L1I TOTAL     ACCESS:   36625059  HIT:   31520497  MISS:    5104562  HIT %:    86.0627  MISS %:    13.9373   MPKI: 25.5228
L1I LOAD      ACCESS:   36625059  HIT:   31520497  MISS:    5104562  HIT %:    86.0627  MISS %:    13.9373   MPKI: 25.5228
L1I PREFETCH  REQUESTED:          0  ISSUED:          0  USEFUL:          0  USELESS:          0
L1I USEFUL LOAD PREFETCHES:          0 PREFETCH ISSUED TO LOWER LEVEL:          0  ACCURACY: -nan
L1I TIMELY PREFETCHES:          0 LATE PREFETCHES: 0 DROPPED PREFETCHES: 0
L1I PREFETCHES SAME FILL-ORIGIN LEVEL: 0 DIFFERENT FILL-ORIGIN LEVEL: 0
L1I AVERAGE MISS LATENCY: 26.1937 cycles
L1I RQ	ACCESS:   57280380	FORWARD:          0	MERGED:   18858606	TO_CACHE:   38421774

BTB TOTAL     ACCESS:   22232128  HIT:   17878921  MISS:    4353207  HIT %:    80.4193  MISS %:    19.5807   MPKI: 21.766
BTB BRANCH_DIRECT_JUMP	ACCESS:    1728930  HIT:    1486091  MISS:     242839
BTB BRANCH_INDIRECT	ACCESS:    9451764  HIT:    7328366  MISS:    2123398
BTB BRANCH_CONDITIONAL	ACCESS:    4727495  HIT:    4325130  MISS:     402365
BTB BRANCH_DIRECT_CALL	ACCESS:    2474151  HIT:    1996074  MISS:     478077
BTB BRANCH_INDIRECT_CALL	ACCESS:     687640  HIT:     649686  MISS:      37954
BTB BRANCH_RETURN	ACCESS:    3162148  HIT:    2093574  MISS:    1068574
BTB BRANCH_OTHER ACCESS:          0  HIT:          0  MISS:          0

L2C TOTAL     ACCESS:    9940599  HIT:    6279409  MISS:    3661190  HIT %:    63.1693  MISS %:    36.8307   MPKI: 18.3059
L2C LOAD      ACCESS:    7033324  HIT:    4263541  MISS:    2769783  HIT %:    60.6191  MISS %:    39.3809   MPKI: 13.8489
L2C DATA LOAD MPKI: 3.96532
L2C INSTRUCTION LOAD MPKI: 9.88359
L2C RFO       ACCESS:     325967  HIT:     184280  MISS:     141687  HIT %:    56.5333  MISS %:    43.4667   MPKI: 0.708435
L2C PREFETCH  ACCESS:    1086462  HIT:     580321  MISS:     506141  HIT %:    53.4138  MISS %:    46.5862   MPKI: 2.5307
AGUS PREFETCH L1 MISS: 0
L2C DATA PREFETCH MPKI: 2.5307
L2C INSTRUCTION PREFETCH MPKI: 0
L2C WRITEBACK ACCESS:    1048135  HIT:    1000469  MISS:      47666  HIT %:    95.4523  MISS %:     4.5477   MPKI: 0.23833
L2C LOAD TRANSLATION ACCESS:     433407  HIT:     240564  MISS:     192843  HIT %:    55.5053  MISS %:    44.4947   MPKI: 0.964215
L2C TRANSLATION FROM L1D PREFETCHER ACCESS:      13304  HIT:      10234  MISS:       3070  HIT %:    76.9242  MISS %:    23.0758   MPKI: 0.01535
L2C PREFETCH  REQUESTED:          0  ISSUED:          0  USEFUL:      29124  USELESS:     478797
L2C USEFUL LOAD PREFETCHES:      29124 PREFETCH ISSUED TO LOWER LEVEL:     506141  ACCURACY: 5.75413
L2C TIMELY PREFETCHES:      29124 LATE PREFETCHES: 0 DROPPED PREFETCHES: 0
L2C PREFETCHES SAME FILL-ORIGIN LEVEL: 0 DIFFERENT FILL-ORIGIN LEVEL: 0
L2C AVERAGE MISS LATENCY: 43.0233 cycles
L2C RQ	ACCESS:    7806190	FORWARD:          0	MERGED:          0	TO_CACHE:    7806004
L2C WQ	ACCESS:    1048135	FORWARD:        192	MERGED:          0	TO_CACHE:    1048135
L2C PQ	ACCESS:    1086469	FORWARD:          0	MERGED:          0	TO_CACHE:    1086463

L2C Instructions Evicting Data 793724
L2C Translations Evicting Data 77386
L2C Data Evicting Data 597373
L2C Instructions Evicting Instructions 1076602
L2C Translations Evicting Instructions 107963
L2C Data Evicting Instructions 766530
L2C Instructions Evicting Translations 106392
L2C Translations Evicting Translations 10564
L2C Data Evicting Translations 76990
L2C Dense regions hint from L2: 0
PSCL5 TOTAL     ACCESS:     338937  HIT:     338937  MISS:          0  HIT %:        100  MISS %:          0   MPKI: 0
PSCL5 LOAD TRANSLATION ACCESS:     329141  HIT:     329141  MISS:          0  HIT %:        100  MISS %:          0   MPKI: 0
PSCL5 TRANSLATION FROM L1D PREFETCHER ACCESS:       9796  HIT:       9796  MISS:          0  HIT %:        100  MISS %:          0   MPKI: 0
PSCL5 PREFETCH  REQUESTED:          0  ISSUED:          0  USEFUL:          0  USELESS:          0
PSCL5 USEFUL LOAD PREFETCHES:          0 PREFETCH ISSUED TO LOWER LEVEL:          0  ACCURACY: -nan
PSCL5 TIMELY PREFETCHES:          0 LATE PREFETCHES: 0 DROPPED PREFETCHES: 0
PSCL5 PREFETCHES SAME FILL-ORIGIN LEVEL: 0 DIFFERENT FILL-ORIGIN LEVEL: 0

PSCL4 TOTAL     ACCESS:     285529  HIT:     285352  MISS:        177  HIT %:     99.938  MISS %:  0.0619902   MPKI: 0.000885
PSCL4 LOAD TRANSLATION ACCESS:     277581  HIT:     277404  MISS:        177  HIT %:    99.9362  MISS %:  0.0637652   MPKI: 0.000885
PSCL4 TRANSLATION FROM L1D PREFETCHER ACCESS:       7948  HIT:       7948  MISS:          0  HIT %:        100  MISS %:          0   MPKI: 0
PSCL4 PREFETCH  REQUESTED:          0  ISSUED:          0  USEFUL:          0  USELESS:          0
PSCL4 USEFUL LOAD PREFETCHES:          0 PREFETCH ISSUED TO LOWER LEVEL:          0  ACCURACY: -nan
PSCL4 TIMELY PREFETCHES:          0 LATE PREFETCHES: 0 DROPPED PREFETCHES: 0
PSCL4 PREFETCHES SAME FILL-ORIGIN LEVEL: 0 DIFFERENT FILL-ORIGIN LEVEL: 0

PSCL3 TOTAL     ACCESS:     338481  HIT:     337951  MISS:        530  HIT %:    99.8434  MISS %:   0.156582   MPKI: 0.00265
PSCL3 LOAD TRANSLATION ACCESS:     328731  HIT:     328201  MISS:        530  HIT %:    99.8388  MISS %:   0.161226   MPKI: 0.00265
PSCL3 TRANSLATION FROM L1D PREFETCHER ACCESS:       9750  HIT:       9750  MISS:          0  HIT %:        100  MISS %:          0   MPKI: 0
PSCL3 PREFETCH  REQUESTED:          0  ISSUED:          0  USEFUL:          0  USELESS:          0
PSCL3 USEFUL LOAD PREFETCHES:          0 PREFETCH ISSUED TO LOWER LEVEL:          0  ACCURACY: -nan
PSCL3 TIMELY PREFETCHES:          0 LATE PREFETCHES: 0 DROPPED PREFETCHES: 0
PSCL3 PREFETCHES SAME FILL-ORIGIN LEVEL: 0 DIFFERENT FILL-ORIGIN LEVEL: 0

PSCL2 TOTAL     ACCESS:     336091  HIT:     231870  MISS:     104221  HIT %:    68.9902  MISS %:    31.0098   MPKI: 0.521105
PSCL2 LOAD TRANSLATION ACCESS:     329789  HIT:     225568  MISS:     104221  HIT %:    68.3977  MISS %:    31.6023   MPKI: 0.521105
PSCL2 TRANSLATION FROM L1D PREFETCHER ACCESS:       6302  HIT:       6302  MISS:          0  HIT %:        100  MISS %:          0   MPKI: 0
PSCL2 PREFETCH  REQUESTED:          0  ISSUED:          0  USEFUL:          0  USELESS:          0
PSCL2 USEFUL LOAD PREFETCHES:          0 PREFETCH ISSUED TO LOWER LEVEL:          0  ACCURACY: -nan
PSCL2 TIMELY PREFETCHES:          0 LATE PREFETCHES: 0 DROPPED PREFETCHES: 0
PSCL2 PREFETCHES SAME FILL-ORIGIN LEVEL: 0 DIFFERENT FILL-ORIGIN LEVEL: 0

LLC TOTAL     ACCESS:    4055822  HIT:    3728311  MISS:     327511  HIT %:    91.9249  MISS %:    8.07508   MPKI: 1.63755
LLC LOAD      ACCESS:    2769779  HIT:    2594606  MISS:     175173  HIT %:    93.6756  MISS %:    6.32444   MPKI: 0.875865
LLC RFO       ACCESS:     141686  HIT:      98397  MISS:      43289  HIT %:    69.4472  MISS %:    30.5528   MPKI: 0.216445
LLC PREFETCH  ACCESS:     506136  HIT:     411358  MISS:      94778  HIT %:    81.2742  MISS %:    18.7258   MPKI: 0.47389
AGUS PREFETCH L1 MISS: 0
LLC WRITEBACK ACCESS:     442308  HIT:     440297  MISS:       2011  HIT %:    99.5453  MISS %:   0.454661   MPKI: 0.010055
LLC LOAD TRANSLATION ACCESS:     192843  HIT:     180700  MISS:      12143  HIT %:    93.7032  MISS %:    6.29683   MPKI: 0.060715
LLC TRANSLATION FROM L1D PREFETCHER ACCESS:       3070  HIT:       2953  MISS:        117  HIT %:    96.1889  MISS %:    3.81107   MPKI: 0.000585
LLC PREFETCH  REQUESTED:          0  ISSUED:          0  USEFUL:       3489  USELESS:      83043
LLC USEFUL LOAD PREFETCHES:       3489 PREFETCH ISSUED TO LOWER LEVEL:      94778  ACCURACY: 3.68123
LLC TIMELY PREFETCHES:       3489 LATE PREFETCHES: 0 DROPPED PREFETCHES: 0
LLC PREFETCHES SAME FILL-ORIGIN LEVEL: 0 DIFFERENT FILL-ORIGIN LEVEL: 0
LLC AVERAGE MISS LATENCY: 149.948 cycles
LLC RQ	ACCESS:    3107384	FORWARD:          0	MERGED:          0	TO_CACHE:    3107379
LLC WQ	ACCESS:     442309	FORWARD:         10	MERGED:          0	TO_CACHE:     442309
LLC PQ	ACCESS:     506141	FORWARD:          0	MERGED:          0	TO_CACHE:     506136

LLC Dense regions hint to LLC: 0

RAW hits: 2733166
Loads Generated: 44936202
Loads sent to L1D: 42203034
Stores Generated: 20247459
Stores sent to L1D: 20247469
Major fault: 0 Minor fault: 6094
Allocated PAGES: 6094
CPU 0 L1D 
Prefetch count 1086469 BOP and RL 

DRAM Statistics
 CHANNEL 0
 RQ ROW_BUFFER_HIT:      68508  ROW_BUFFER_MISS:     256991
 DBUS_CONGESTED:        185
 WQ ROW_BUFFER_HIT:      28893  ROW_BUFFER_MISS:     188173  FULL:          0

 AVG_CONGESTED_CYCLE: 4
 All warmup complete: 2
Channel 0 Bank busy for read cycles: 0
Channel 0 Bank busy for write cycles: 0
Channel 0
Rank 0
0banks busy for read cycles: 390168117
0banks busy for write cycles: 99607
1banks busy for read cycles: 17271383
1banks busy for write cycles: 11259433
2banks busy for read cycles: 8937203
2banks busy for write cycles: 5353480
3banks busy for read cycles: 1242772
3banks busy for write cycles: 1565459
4banks busy for read cycles: 368494
4banks busy for write cycles: 864409
5banks busy for read cycles: 113613
5banks busy for write cycles: 589657
6banks busy for read cycles: 63172
6banks busy for write cycles: 471050
7banks busy for read cycles: 42071
7banks busy for write cycles: 381749
8banks busy for read cycles: 48168
8banks busy for write cycles: 348355

CPU 0 Branch Prediction Accuracy: 99.8437% MPKI: 0.280085 Average ROB Occupancy at Mispredict: 43.024
Branch types
NOT_BRANCH: 164163864 82.0819%
BRANCH_DIRECT_JUMP: 1728930 0.864465%
BRANCH_INDIRECT: 9451764 4.72588%
BRANCH_CONDITIONAL: 18331226 9.16561%
BRANCH_DIRECT_CALL: 2474151 1.23708%
BRANCH_INDIRECT_CALL: 687640 0.34382%
BRANCH_RETURN: 3162148 1.58107%
BRANCH_OTHER: 0 0%

DRAM PAGES: 1048576
Allocated PAGES: 6094
