
*** ChampSim Multicore Out-of-Order Simulator ***

Warmup Instructions: 50000000
Simulation Instructions: 200000000
Number of CPUs: 1
LLC sets: 2048
LLC ways: 16
Off-chip DRAM Size: 4096 MB Channels: 1 Width: 64-bit Data Rate: 6400 MT/s
CPU 0 runs traces/spec2k17/srv_37.champsimtrace.xz
.xz
BTB has LRU replacement policy
ITLB has LRU replacement policy
DTLB has LRU replacement policy
STLB has LRU replacement policy
L1I has LRU replacement policy
CPU 0 l1d next line prefetcher
L1D has LRU replacement policy
Initialize SRRIP state for L2C
Initialize DRRIP state for LLC
Offsets elements: 
Potential of Offsets elements: 
rewards of Offsets elements: 
Printing Sanity1
offset list size740
Heartbeat CPU 0 instructions: 10000003 cycles: 2944549 heartbeat IPC: 3.39611 cumulative IPC: 3.39611 (Simulation time: 0 hr 0 min 38 sec) 
Heartbeat CPU 0 instructions: 20000003 cycles: 5878901 heartbeat IPC: 3.40791 cumulative IPC: 3.402 (Simulation time: 0 hr 1 min 19 sec) 
Offsets elements: 
Potential of Offsets elements: 
rewards of Offsets elements: 0 0 0 117 0 0 0 0 0 0 0 0 0 0 0 0 0 0 0 2 0 502 0 0 0 162 0 0 0 25 30 0 0 0 0 230 0 0 0 394 339 251 216 0 0 0 0 0 0 185 0 0 0 0 0 234 0 161 270 0 346 0 0 0 0 0 0 0 0 196 0 0 0 0 0 28 11 1 6 0 0 499 0 0 2 0 50 0 0 0 0 0 0 0 0 0 0 0 37 227 0 0 0 0 0 0 0 115 0 0 0 0 0 0 0 0 0 0 0 0 35 0 0 0 0 0 0 0 0 0 0 32 0 0 0 0 0 0 0 0 0 0 0 11 0 0 0 0 0 0 0 0 0 0 0 0 0 0 0 0 0 0 0 6 208 0 3 0 0 0 0 0 0 0 0 0 0 0 0 0 0 0 304 0 1 3 0 0 0 0 21 0 0 269 0 0 0 0 0 0 0 0 0 0 0 154 5 0 254 0 0 0 0 101 2 62 0 0 0 0 0 0 0 0 0 0 311 0 0 0 0 0 0 0 17 0 0 0 0 0 0 0 0 0 0 0 0 0 0 0 0 0 0 7 0 0 0 0 0 0 0 0 0 0 0 0 262 149 0 0 0 0 0 0 0 0 10 0 0 2 0 0 0 0 0 0 0 0 0 0 0 0 1 76 0 0 2 0 0 0 0 0 1 0 0 0 0 0 0 0 0 0 0 0 0 0 0 0 2 50 33 0 0 0 0 0 0 0 0 0 0 0 0 0 0 0 40 1 0 0 0 0 18 11 0 0 3 0 0 0 0 0 0 0 0 0 0 0 0 0 0 0 0 0 0 1 2 7 0 0 364 43 0 0 0 0 0 0 0 0 0 3 0 0 0 0 0 3 9 0 1 0 0 0 0 0 0 0 0 0 48 67 0 0 0 0 2 0 24 0 73 0 0 0 0 0 0 0 0 0 0 0 0 0 0 0 60 0 0 0 7 25 63 1 26 0 0 0 0 0 254 0 0 0 0 0 0 0 0 0 0 0 0 0 0 0 0 0 0 0 0 0 0 0 0 0 0 0 0 287 0 0 0 0 0 0 0 0 0 0 0 0 0 173 0 0 2 0 0 0 0 3 0 0 0 0 0 0 0 0 0 0 0 0 0 0 0 0 0 0 0 0 0 0 0 63 0 2 0 0 2 0 21 27 0 0 0 0 0 0 0 0 0 0 0 0 1 0 0 4 1 0 0 2 0 0 5 0 52 0 43 1 0 0 0 0 0 0 16 0 0 0 0 0 1 9 17 0 6 6 0 0 0 0 0 0 331 0 0 0 0 0 1 0 0 7 0 48 0 0 2 0 0 0 101 0 28 0 0 0 0 0 0 0 0 0 0 6 51 0 12 0 3 0 0 0 1 1 148 0 0 0 0 0 0 0 0 0 0 0 0 0 0 5 0 0 4 0 0 144 0 0 0 0 0 0 0 0 0 0 0 0 0 1 40 0 0 0 0 0 0 166 0 0 0 0 0 0 0 0 0 0 0 0 0 0 0 0 0 0 0 0 0 0 0 0 0 0 0 114 0 0 0 0 0 0 0 0 0 0 0 0 0 0 9 0 0 0 0 0 0 0 0 0 0 0 0 0 244 0 0 12 0 39 0 0 0 0 0 0 0 17 0 0 0 0 0 0 0 181 
Printing Sanity2
Heartbeat CPU 0 instructions: 30000000 cycles: 8821096 heartbeat IPC: 3.39882 cumulative IPC: 3.40094 (Simulation time: 0 hr 1 min 59 sec) 
*** Reached end of trace for Core: 0 Repeating trace: traces/spec2k17/srv_37.champsimtrace.xz
Heartbeat CPU 0 instructions: 40000002 cycles: 11766616 heartbeat IPC: 3.39499 cumulative IPC: 3.39945 (Simulation time: 0 hr 2 min 38 sec) 
Heartbeat CPU 0 instructions: 50000000 cycles: 14703947 heartbeat IPC: 3.40445 cumulative IPC: 3.40045 (Simulation time: 0 hr 3 min 19 sec) 

Warmup complete CPU 0 instructions: 50000004 cycles: 14703948 (Simulation time: 0 hr 3 min 19 sec) 

Heartbeat CPU 0 instructions: 60000002 cycles: 35141077 heartbeat IPC: 0.489306 cumulative IPC: 0.489305 (Simulation time: 0 hr 4 min 24 sec) 
*** Reached end of trace for Core: 0 Repeating trace: traces/spec2k17/srv_37.champsimtrace.xz
Heartbeat CPU 0 instructions: 70000003 cycles: 55095193 heartbeat IPC: 0.50115 cumulative IPC: 0.495157 (Simulation time: 0 hr 5 min 35 sec) 
Heartbeat CPU 0 instructions: 80000000 cycles: 75146164 heartbeat IPC: 0.498729 cumulative IPC: 0.496342 (Simulation time: 0 hr 6 min 47 sec) 
Heartbeat CPU 0 instructions: 90000000 cycles: 95489831 heartbeat IPC: 0.491553 cumulative IPC: 0.495136 (Simulation time: 0 hr 7 min 52 sec) 
*** Reached end of trace for Core: 0 Repeating trace: traces/spec2k17/srv_37.champsimtrace.xz
Heartbeat CPU 0 instructions: 100000001 cycles: 115462799 heartbeat IPC: 0.500677 cumulative IPC: 0.496234 (Simulation time: 0 hr 8 min 59 sec) 
Heartbeat CPU 0 instructions: 110000000 cycles: 135464222 heartbeat IPC: 0.499964 cumulative IPC: 0.496852 (Simulation time: 0 hr 10 min 2 sec) 
Heartbeat CPU 0 instructions: 120000001 cycles: 155590635 heartbeat IPC: 0.49686 cumulative IPC: 0.496853 (Simulation time: 0 hr 11 min 12 sec) 
*** Reached end of trace for Core: 0 Repeating trace: traces/spec2k17/srv_37.champsimtrace.xz
Heartbeat CPU 0 instructions: 130000001 cycles: 175778687 heartbeat IPC: 0.495342 cumulative IPC: 0.496664 (Simulation time: 0 hr 12 min 19 sec) 
Heartbeat CPU 0 instructions: 140000003 cycles: 195654640 heartbeat IPC: 0.503121 cumulative IPC: 0.497373 (Simulation time: 0 hr 13 min 26 sec) 
Heartbeat CPU 0 instructions: 150000001 cycles: 215631921 heartbeat IPC: 0.500569 cumulative IPC: 0.497691 (Simulation time: 0 hr 14 min 35 sec) 
Heartbeat CPU 0 instructions: 160000000 cycles: 235980933 heartbeat IPC: 0.491424 cumulative IPC: 0.497114 (Simulation time: 0 hr 15 min 43 sec) 
*** Reached end of trace for Core: 0 Repeating trace: traces/spec2k17/srv_37.champsimtrace.xz
Heartbeat CPU 0 instructions: 170000003 cycles: 255920258 heartbeat IPC: 0.501522 cumulative IPC: 0.497479 (Simulation time: 0 hr 16 min 51 sec) 
Heartbeat CPU 0 instructions: 180000000 cycles: 275926518 heartbeat IPC: 0.499843 cumulative IPC: 0.49766 (Simulation time: 0 hr 18 min 2 sec) 
Heartbeat CPU 0 instructions: 190000002 cycles: 296202935 heartbeat IPC: 0.493184 cumulative IPC: 0.497337 (Simulation time: 0 hr 19 min 10 sec) 
*** Reached end of trace for Core: 0 Repeating trace: traces/spec2k17/srv_37.champsimtrace.xz
Heartbeat CPU 0 instructions: 200000001 cycles: 316152812 heartbeat IPC: 0.501256 cumulative IPC: 0.497597 (Simulation time: 0 hr 20 min 18 sec) 
Heartbeat CPU 0 instructions: 210000002 cycles: 336043664 heartbeat IPC: 0.502744 cumulative IPC: 0.497915 (Simulation time: 0 hr 21 min 30 sec) 
Heartbeat CPU 0 instructions: 220000000 cycles: 356301599 heartbeat IPC: 0.493634 cumulative IPC: 0.497662 (Simulation time: 0 hr 22 min 40 sec) 
*** Reached end of trace for Core: 0 Repeating trace: traces/spec2k17/srv_37.champsimtrace.xz
Heartbeat CPU 0 instructions: 230000000 cycles: 376251869 heartbeat IPC: 0.501246 cumulative IPC: 0.497859 (Simulation time: 0 hr 23 min 47 sec) 
Heartbeat CPU 0 instructions: 240000001 cycles: 396166014 heartbeat IPC: 0.502156 cumulative IPC: 0.498084 (Simulation time: 0 hr 24 min 58 sec) 
Heartbeat CPU 0 instructions: 250000001 cycles: 416374841 heartbeat IPC: 0.494833 cumulative IPC: 0.49792 (Simulation time: 0 hr 26 min 6 sec) 
Finished CPU 0 instructions: 200000002 cycles: 401670898 cumulative IPC: 0.49792 (Simulation time: 0 hr 26 min 6 sec) 

ChampSim completed all CPUs

Region of Interest Statistics

CPU 0 cumulative IPC: 0.49792 instructions: 200000002 cycles: 401670898
ITLB TOTAL     ACCESS:   33795332  HIT:   32262771  MISS:    1532561  HIT %:    95.4652  MISS %:    4.53483   MPKI: 7.6628
ITLB LOAD TRANSLATION ACCESS:   33795332  HIT:   32262771  MISS:    1532561  HIT %:    95.4652  MISS %:    4.53483   MPKI: 7.6628
ITLB PREFETCH  REQUESTED:          0  ISSUED:          0  USEFUL:          0  USELESS:          0
ITLB USEFUL LOAD PREFETCHES:          0 PREFETCH ISSUED TO LOWER LEVEL:          0  ACCURACY: -nan
ITLB TIMELY PREFETCHES:          0 LATE PREFETCHES: 0 DROPPED PREFETCHES: 0
ITLB PREFETCHES SAME FILL-ORIGIN LEVEL: 0 DIFFERENT FILL-ORIGIN LEVEL: 0
ITLB AVERAGE MISS LATENCY: 9.29899 cycles
ITLB RQ	ACCESS:   40664575	FORWARD:          0	MERGED:    6374770	TO_CACHE:   34289805

DTLB TOTAL     ACCESS:   39926938  HIT:   38394101  MISS:    1532837  HIT %:    96.1609  MISS %:     3.8391   MPKI: 7.66418
DTLB LOAD TRANSLATION ACCESS:   39926938  HIT:   38394101  MISS:    1532837  HIT %:    96.1609  MISS %:     3.8391   MPKI: 7.66418
DTLB PREFETCH  REQUESTED:          0  ISSUED:          0  USEFUL:          0  USELESS:          0
DTLB USEFUL LOAD PREFETCHES:          0 PREFETCH ISSUED TO LOWER LEVEL:          0  ACCURACY: -nan
DTLB TIMELY PREFETCHES:          0 LATE PREFETCHES: 0 DROPPED PREFETCHES: 0
DTLB PREFETCHES SAME FILL-ORIGIN LEVEL: 0 DIFFERENT FILL-ORIGIN LEVEL: 0
DTLB AVERAGE MISS LATENCY: 15.2027 cycles
DTLB RQ	ACCESS:   61032900	FORWARD:          0	MERGED:   20710952	TO_CACHE:   40321948

STLB TOTAL     ACCESS:    5482328  HIT:    5400619  MISS:      81709  HIT %:    98.5096  MISS %:    1.49041   MPKI: 0.408545
STLB LOAD TRANSLATION ACCESS:    3065398  HIT:    2984423  MISS:      80975  HIT %:    97.3584  MISS %:    2.64158   MPKI: 0.404875
STLB TRANSLATION FROM L1D PREFETCHER ACCESS:    2416930  HIT:    2416196  MISS:        734  HIT %:    99.9696  MISS %:  0.0303691   MPKI: 0.00367
STLB PREFETCH  REQUESTED:          0  ISSUED:          0  USEFUL:        603  USELESS:        133
STLB USEFUL LOAD PREFETCHES:        603 PREFETCH ISSUED TO LOWER LEVEL:          0  ACCURACY: inf
STLB TIMELY PREFETCHES:        603 LATE PREFETCHES: 7 DROPPED PREFETCHES: 73185
STLB PREFETCHES SAME FILL-ORIGIN LEVEL: 0 DIFFERENT FILL-ORIGIN LEVEL: 0
STLB AVERAGE MISS LATENCY: 123.055 cycles
STLB RQ	ACCESS:    6215104	FORWARD:          0	MERGED:     659541	TO_CACHE:    5555563

STLB Hit, L1D data hit: 0
STLB Hit, L2C data hit: 0
STLB Hit, LLC data hit: 0
STLB Hit, LLC data miss: 0
STLB STLB hints to L2: 0
L1D TOTAL     ACCESS:   50963576  HIT:   43223503  MISS:    7740073  HIT %:    84.8125  MISS %:    15.1875   MPKI: 38.7004
L1D LOAD      ACCESS:   26630684  HIT:   23693269  MISS:    2937415  HIT %:    88.9698  MISS %:    11.0302   MPKI: 14.6871
L1D RFO       ACCESS:   22550736  HIT:   18882637  MISS:    3668099  HIT %:     83.734  MISS %:     16.266   MPKI: 18.3405
L1D PREFETCH  ACCESS:    1782156  HIT:     647597  MISS:    1134559  HIT %:    36.3378  MISS %:    63.6622   MPKI: 5.67279
AGUS PREFETCH L1 MISS: 0
L1D PREFETCH  REQUESTED:    6550681  ISSUED:    6550524  USEFUL:     247129  USELESS:     887435
L1D USEFUL LOAD PREFETCHES:     247129 PREFETCH ISSUED TO LOWER LEVEL:    1171293  ACCURACY: 21.0988
L1D TIMELY PREFETCHES:     247129 LATE PREFETCHES: 31455 DROPPED PREFETCHES: 73185
L1D PREFETCHES SAME FILL-ORIGIN LEVEL: 1171293 DIFFERENT FILL-ORIGIN LEVEL: 0
L1D AVERAGE MISS LATENCY: 1.00955e+06 cycles
L1D RQ	ACCESS:   45149009	FORWARD:          0	MERGED:   17807879	TO_CACHE:   27094246
L1D WQ	ACCESS:   34134601	FORWARD:     250729	MERGED:     195947	TO_CACHE:   33938654
L1D PQ	ACCESS:    3400818	FORWARD:          0	MERGED:     247267	TO_CACHE:    3149706

L1D UNIQUE REGIONS ACCESSED: 0
L1D REGIONS CONFLICTS: 0
L1D Cross Page Prefetch Requests: 3824876
L1D Same Page Prefetch Requests: 0
L1D ROI Sum of L1D PQ occupancy: 45813924
L1D PREFETCHES PUSHED FROM L2C: 0
L1I TOTAL     ACCESS:   38019657  HIT:   28943440  MISS:    9076217  HIT %:    76.1276  MISS %:    23.8724   MPKI: 45.3811
L1I LOAD      ACCESS:   38019657  HIT:   28943440  MISS:    9076217  HIT %:    76.1276  MISS %:    23.8724   MPKI: 45.3811
L1I PREFETCH  REQUESTED:          0  ISSUED:          0  USEFUL:          0  USELESS:          0
L1I USEFUL LOAD PREFETCHES:          0 PREFETCH ISSUED TO LOWER LEVEL:          0  ACCURACY: -nan
L1I TIMELY PREFETCHES:          0 LATE PREFETCHES: 0 DROPPED PREFETCHES: 0
L1I PREFETCHES SAME FILL-ORIGIN LEVEL: 0 DIFFERENT FILL-ORIGIN LEVEL: 0
L1I AVERAGE MISS LATENCY: 17.0095 cycles
L1I RQ	ACCESS:   59005939	FORWARD:          0	MERGED:   18341364	TO_CACHE:   40664575

BTB TOTAL     ACCESS:   25792470  HIT:   24215892  MISS:    1576578  HIT %:    93.8874  MISS %:    6.11255   MPKI: 7.88289
BTB BRANCH_DIRECT_JUMP	ACCESS:    1657270  HIT:    1644420  MISS:      12850
BTB BRANCH_INDIRECT	ACCESS:    9945376  HIT:    9419363  MISS:     526013
BTB BRANCH_CONDITIONAL	ACCESS:    7366898  HIT:    7349104  MISS:      17794
BTB BRANCH_DIRECT_CALL	ACCESS:    2818310  HIT:    2778533  MISS:      39777
BTB BRANCH_INDIRECT_CALL	ACCESS:     593130  HIT:     481549  MISS:     111581
BTB BRANCH_RETURN	ACCESS:    3411486  HIT:    2542923  MISS:     868563
BTB BRANCH_OTHER ACCESS:          0  HIT:          0  MISS:          0

L2C TOTAL     ACCESS:   21393532  HIT:   14221691  MISS:    7171841  HIT %:    66.4766  MISS %:    33.5234   MPKI: 35.8592
L2C LOAD      ACCESS:   11981571  HIT:    9293976  MISS:    2687595  HIT %:    77.5689  MISS %:    22.4311   MPKI: 13.438
L2C DATA LOAD MPKI: 10.4581
L2C INSTRUCTION LOAD MPKI: 2.97992
L2C RFO       ACCESS:    3662803  HIT:     143816  MISS:    3518987  HIT %:    3.92639  MISS %:    96.0736   MPKI: 17.5949
L2C PREFETCH  ACCESS:    1171293  HIT:     408550  MISS:     762743  HIT %:    34.8803  MISS %:    65.1197   MPKI: 3.81371
AGUS PREFETCH L1 MISS: 0
L2C DATA PREFETCH MPKI: 3.81371
L2C INSTRUCTION PREFETCH MPKI: 0
L2C WRITEBACK ACCESS:    4370240  HIT:    4237978  MISS:     132262  HIT %:    96.9736  MISS %:    3.02642   MPKI: 0.66131
L2C LOAD TRANSLATION ACCESS:      94320  HIT:      51121  MISS:      43199  HIT %:    54.1995  MISS %:    45.8005   MPKI: 0.215995
L2C TRANSLATION FROM L1D PREFETCHER ACCESS:     113305  HIT:      86250  MISS:      27055  HIT %:     76.122  MISS %:     23.878   MPKI: 0.135275
L2C PREFETCH  REQUESTED:          0  ISSUED:          0  USEFUL:      48286  USELESS:     742087
L2C USEFUL LOAD PREFETCHES:      48286 PREFETCH ISSUED TO LOWER LEVEL:     762743  ACCURACY: 6.33057
L2C TIMELY PREFETCHES:      48286 LATE PREFETCHES: 0 DROPPED PREFETCHES: 0
L2C PREFETCHES SAME FILL-ORIGIN LEVEL: 0 DIFFERENT FILL-ORIGIN LEVEL: 0
L2C AVERAGE MISS LATENCY: 149.787 cycles
L2C RQ	ACCESS:   15852622	FORWARD:          0	MERGED:          0	TO_CACHE:   15851999
L2C WQ	ACCESS:    4370240	FORWARD:        623	MERGED:          0	TO_CACHE:    4370240
L2C PQ	ACCESS:    1171293	FORWARD:          0	MERGED:          0	TO_CACHE:    1171293

L2C Instructions Evicting Data 548634
L2C Translations Evicting Data 64791
L2C Data Evicting Data 5773200
L2C Instructions Evicting Instructions 42378
L2C Translations Evicting Instructions 5048
L2C Data Evicting Instructions 536169
L2C Instructions Evicting Translations 4972
L2C Translations Evicting Translations 415
L2C Data Evicting Translations 63972
L2C Dense regions hint from L2: 0
PSCL5 TOTAL     ACCESS:     154894  HIT:     154894  MISS:          0  HIT %:        100  MISS %:          0   MPKI: 0
PSCL5 LOAD TRANSLATION ACCESS:      80968  HIT:      80968  MISS:          0  HIT %:        100  MISS %:          0   MPKI: 0
PSCL5 TRANSLATION FROM L1D PREFETCHER ACCESS:      73926  HIT:      73926  MISS:          0  HIT %:        100  MISS %:          0   MPKI: 0
PSCL5 PREFETCH  REQUESTED:          0  ISSUED:          0  USEFUL:          0  USELESS:          0
PSCL5 USEFUL LOAD PREFETCHES:          0 PREFETCH ISSUED TO LOWER LEVEL:          0  ACCURACY: -nan
PSCL5 TIMELY PREFETCHES:          0 LATE PREFETCHES: 0 DROPPED PREFETCHES: 0
PSCL5 PREFETCHES SAME FILL-ORIGIN LEVEL: 0 DIFFERENT FILL-ORIGIN LEVEL: 0

PSCL4 TOTAL     ACCESS:     151576  HIT:     151323  MISS:        253  HIT %:    99.8331  MISS %:   0.166913   MPKI: 0.001265
PSCL4 LOAD TRANSLATION ACCESS:      79071  HIT:      78818  MISS:        253  HIT %:      99.68  MISS %:   0.319966   MPKI: 0.001265
PSCL4 TRANSLATION FROM L1D PREFETCHER ACCESS:      72505  HIT:      72505  MISS:          0  HIT %:        100  MISS %:          0   MPKI: 0
PSCL4 PREFETCH  REQUESTED:          0  ISSUED:          0  USEFUL:          0  USELESS:          0
PSCL4 USEFUL LOAD PREFETCHES:          0 PREFETCH ISSUED TO LOWER LEVEL:          0  ACCURACY: -nan
PSCL4 TIMELY PREFETCHES:          0 LATE PREFETCHES: 0 DROPPED PREFETCHES: 0
PSCL4 PREFETCHES SAME FILL-ORIGIN LEVEL: 0 DIFFERENT FILL-ORIGIN LEVEL: 0

PSCL3 TOTAL     ACCESS:     144142  HIT:     142818  MISS:       1324  HIT %:    99.0815  MISS %:   0.918539   MPKI: 0.00662
PSCL3 LOAD TRANSLATION ACCESS:      75896  HIT:      74572  MISS:       1324  HIT %:    98.2555  MISS %:    1.74449   MPKI: 0.00662
PSCL3 TRANSLATION FROM L1D PREFETCHER ACCESS:      68246  HIT:      68246  MISS:          0  HIT %:        100  MISS %:          0   MPKI: 0
PSCL3 PREFETCH  REQUESTED:          0  ISSUED:          0  USEFUL:          0  USELESS:          0
PSCL3 USEFUL LOAD PREFETCHES:          0 PREFETCH ISSUED TO LOWER LEVEL:          0  ACCURACY: -nan
PSCL3 TIMELY PREFETCHES:          0 LATE PREFETCHES: 0 DROPPED PREFETCHES: 0
PSCL3 PREFETCHES SAME FILL-ORIGIN LEVEL: 0 DIFFERENT FILL-ORIGIN LEVEL: 0

PSCL2 TOTAL     ACCESS:     118047  HIT:     106122  MISS:      11925  HIT %:    89.8981  MISS %:    10.1019   MPKI: 0.059625
PSCL2 LOAD TRANSLATION ACCESS:      81106  HIT:      69181  MISS:      11925  HIT %:     85.297  MISS %:     14.703   MPKI: 0.059625
PSCL2 TRANSLATION FROM L1D PREFETCHER ACCESS:      36941  HIT:      36941  MISS:          0  HIT %:        100  MISS %:          0   MPKI: 0
PSCL2 PREFETCH  REQUESTED:          0  ISSUED:          0  USEFUL:          0  USELESS:          0
PSCL2 USEFUL LOAD PREFETCHES:          0 PREFETCH ISSUED TO LOWER LEVEL:          0  ACCURACY: -nan
PSCL2 TIMELY PREFETCHES:          0 LATE PREFETCHES: 0 DROPPED PREFETCHES: 0
PSCL2 PREFETCHES SAME FILL-ORIGIN LEVEL: 0 DIFFERENT FILL-ORIGIN LEVEL: 0

LLC TOTAL     ACCESS:   11099923  HIT:    4624179  MISS:    6475744  HIT %:    41.6596  MISS %:    58.3404   MPKI: 32.3787
LLC LOAD      ACCESS:    2687592  HIT:    1445396  MISS:    1242196  HIT %:    53.7803  MISS %:    46.2197   MPKI: 6.21098
LLC RFO       ACCESS:    3518934  HIT:     944067  MISS:    2574867  HIT %:    26.8282  MISS %:    73.1718   MPKI: 12.8743
LLC PREFETCH  ACCESS:     762743  HIT:     653898  MISS:     108845  HIT %:    85.7298  MISS %:    14.2702   MPKI: 0.544225
AGUS PREFETCH L1 MISS: 0
LLC WRITEBACK ACCESS:    4060400  HIT:    1545390  MISS:    2515010  HIT %:      38.06  MISS %:      61.94   MPKI: 12.575
LLC LOAD TRANSLATION ACCESS:      43199  HIT:      10291  MISS:      32908  HIT %:    23.8223  MISS %:    76.1777   MPKI: 0.16454
LLC TRANSLATION FROM L1D PREFETCHER ACCESS:      27055  HIT:      25137  MISS:       1918  HIT %:    92.9107  MISS %:    7.08926   MPKI: 0.00959
LLC PREFETCH  REQUESTED:          0  ISSUED:          0  USEFUL:        583  USELESS:     110399
LLC USEFUL LOAD PREFETCHES:        583 PREFETCH ISSUED TO LOWER LEVEL:     108845  ACCURACY: 0.535624
LLC TIMELY PREFETCHES:        583 LATE PREFETCHES: 0 DROPPED PREFETCHES: 0
LLC PREFETCHES SAME FILL-ORIGIN LEVEL: 0 DIFFERENT FILL-ORIGIN LEVEL: 0
LLC AVERAGE MISS LATENCY: 133.275 cycles
LLC RQ	ACCESS:    6276836	FORWARD:          0	MERGED:          0	TO_CACHE:    6276780
LLC WQ	ACCESS:    4060400	FORWARD:         56	MERGED:          0	TO_CACHE:    4060400
LLC PQ	ACCESS:     762743	FORWARD:          0	MERGED:          0	TO_CACHE:     762743

LLC Dense regions hint to LLC: 0

RAW hits: 2443879
Loads Generated: 47592890
Loads sent to L1D: 45149009
Stores Generated: 34134585
Stores sent to L1D: 34134601
Major fault: 0 Minor fault: 9332
Allocated PAGES: 9332
CPU 0 L1D 
Prefetch count 1330228 BOP and RL 

DRAM Statistics
 CHANNEL 0
 RQ ROW_BUFFER_HIT:    1834975  ROW_BUFFER_MISS:    2125471
 DBUS_CONGESTED:       2230
 WQ ROW_BUFFER_HIT:     556278  ROW_BUFFER_MISS:    2106237  FULL:      60116

 AVG_CONGESTED_CYCLE: 3
 All warmup complete: 2
Channel 0 Bank busy for read cycles: 0
Channel 0 Bank busy for write cycles: 0
Channel 0
Rank 0
0banks busy for read cycles: 173902439
0banks busy for write cycles: 255959
1banks busy for read cycles: 33094214
1banks busy for write cycles: 34073385
2banks busy for read cycles: 16886663
2banks busy for write cycles: 14938083
3banks busy for read cycles: 18236590
3banks busy for write cycles: 7658476
4banks busy for read cycles: 9349339
4banks busy for write cycles: 4974087
5banks busy for read cycles: 6711476
5banks busy for write cycles: 4033045
6banks busy for read cycles: 11537712
6banks busy for write cycles: 3997023
7banks busy for read cycles: 4887125
7banks busy for write cycles: 6412083
8banks busy for read cycles: 15155522
8banks busy for write cycles: 35567678

CPU 0 Branch Prediction Accuracy: 99.9446% MPKI: 0.08483 Average ROB Occupancy at Mispredict: 122.122
Branch types
NOT_BRANCH: 169380952 84.6905%
BRANCH_DIRECT_JUMP: 1657270 0.828635%
BRANCH_INDIRECT: 9945376 4.97269%
BRANCH_CONDITIONAL: 12193387 6.09669%
BRANCH_DIRECT_CALL: 2818310 1.40915%
BRANCH_INDIRECT_CALL: 593130 0.296565%
BRANCH_RETURN: 3411486 1.70574%
BRANCH_OTHER: 0 0%

DRAM PAGES: 1048576
Allocated PAGES: 9332
