
*** ChampSim Multicore Out-of-Order Simulator ***

Warmup Instructions: 50000000
Simulation Instructions: 200000000
Number of CPUs: 1
LLC sets: 2048
LLC ways: 16
Off-chip DRAM Size: 4096 MB Channels: 1 Width: 64-bit Data Rate: 6400 MT/s
CPU 0 runs traces/spec2k17/srv_28.champsimtrace.xz
.xz
BTB has LRU replacement policy
ITLB has LRU replacement policy
DTLB has LRU replacement policy
STLB has LRU replacement policy
L1I has LRU replacement policy
CPU 0 l1d next line prefetcher
L1D has LRU replacement policy
Initialize SRRIP state for L2C
Initialize DRRIP state for LLC
Offsets elements: 
Potential of Offsets elements: 
rewards of Offsets elements: 
Printing Sanity1
offset list size2020
Heartbeat CPU 0 instructions: 10000001 cycles: 2807757 heartbeat IPC: 3.56156 cumulative IPC: 3.56156 (Simulation time: 0 hr 0 min 43 sec) 
Heartbeat CPU 0 instructions: 20000001 cycles: 5612651 heartbeat IPC: 3.5652 cumulative IPC: 3.56338 (Simulation time: 0 hr 1 min 26 sec) 
Heartbeat CPU 0 instructions: 30000003 cycles: 8418360 heartbeat IPC: 3.56416 cumulative IPC: 3.56364 (Simulation time: 0 hr 2 min 6 sec) 
*** Reached end of trace for Core: 0 Repeating trace: traces/spec2k17/srv_28.champsimtrace.xz
Heartbeat CPU 0 instructions: 40000003 cycles: 11220417 heartbeat IPC: 3.56881 cumulative IPC: 3.56493 (Simulation time: 0 hr 2 min 48 sec) 
Heartbeat CPU 0 instructions: 50000002 cycles: 14024342 heartbeat IPC: 3.56643 cumulative IPC: 3.56523 (Simulation time: 0 hr 3 min 27 sec) 

Warmup complete CPU 0 instructions: 50000002 cycles: 14024342 (Simulation time: 0 hr 3 min 27 sec) 

Heartbeat CPU 0 instructions: 60000000 cycles: 27977050 heartbeat IPC: 0.716707 cumulative IPC: 0.716707 (Simulation time: 0 hr 4 min 15 sec) 
*** Reached end of trace for Core: 0 Repeating trace: traces/spec2k17/srv_28.champsimtrace.xz
Heartbeat CPU 0 instructions: 70000003 cycles: 42045831 heartbeat IPC: 0.710794 cumulative IPC: 0.713738 (Simulation time: 0 hr 5 min 6 sec) 
Heartbeat CPU 0 instructions: 80000000 cycles: 56027512 heartbeat IPC: 0.715221 cumulative IPC: 0.714232 (Simulation time: 0 hr 5 min 55 sec) 
Heartbeat CPU 0 instructions: 90000001 cycles: 69872534 heartbeat IPC: 0.722281 cumulative IPC: 0.716227 (Simulation time: 0 hr 6 min 41 sec) 
*** Reached end of trace for Core: 0 Repeating trace: traces/spec2k17/srv_28.champsimtrace.xz
Heartbeat CPU 0 instructions: 100000000 cycles: 83972867 heartbeat IPC: 0.709203 cumulative IPC: 0.714811 (Simulation time: 0 hr 7 min 24 sec) 
Heartbeat CPU 0 instructions: 110000000 cycles: 97712403 heartbeat IPC: 0.727827 cumulative IPC: 0.716948 (Simulation time: 0 hr 8 min 10 sec) 
Heartbeat CPU 0 instructions: 120000001 cycles: 111749489 heartbeat IPC: 0.712399 cumulative IPC: 0.716295 (Simulation time: 0 hr 9 min 3 sec) 
*** Reached end of trace for Core: 0 Repeating trace: traces/spec2k17/srv_28.champsimtrace.xz
Heartbeat CPU 0 instructions: 130000000 cycles: 125712050 heartbeat IPC: 0.716201 cumulative IPC: 0.716283 (Simulation time: 0 hr 9 min 52 sec) 
Heartbeat CPU 0 instructions: 140000001 cycles: 139441104 heartbeat IPC: 0.728382 cumulative IPC: 0.717607 (Simulation time: 0 hr 10 min 43 sec) 
Heartbeat CPU 0 instructions: 150000001 cycles: 153613223 heartbeat IPC: 0.705611 cumulative IPC: 0.716389 (Simulation time: 0 hr 11 min 34 sec) 
*** Reached end of trace for Core: 0 Repeating trace: traces/spec2k17/srv_28.champsimtrace.xz
Heartbeat CPU 0 instructions: 160000000 cycles: 167599186 heartbeat IPC: 0.715003 cumulative IPC: 0.716263 (Simulation time: 0 hr 12 min 23 sec) 
Heartbeat CPU 0 instructions: 170000003 cycles: 181298828 heartbeat IPC: 0.729946 cumulative IPC: 0.717384 (Simulation time: 0 hr 13 min 11 sec) 
Heartbeat CPU 0 instructions: 180000001 cycles: 195436695 heartbeat IPC: 0.70732 cumulative IPC: 0.716599 (Simulation time: 0 hr 14 min 2 sec) 
Heartbeat CPU 0 instructions: 190000001 cycles: 209219710 heartbeat IPC: 0.725531 cumulative IPC: 0.71723 (Simulation time: 0 hr 14 min 48 sec) 
*** Reached end of trace for Core: 0 Repeating trace: traces/spec2k17/srv_28.champsimtrace.xz
Heartbeat CPU 0 instructions: 200000000 cycles: 223141241 heartbeat IPC: 0.718312 cumulative IPC: 0.717302 (Simulation time: 0 hr 15 min 36 sec) 
Heartbeat CPU 0 instructions: 210000001 cycles: 237134223 heartbeat IPC: 0.714644 cumulative IPC: 0.717135 (Simulation time: 0 hr 16 min 26 sec) 
Heartbeat CPU 0 instructions: 220000000 cycles: 250975220 heartbeat IPC: 0.722491 cumulative IPC: 0.717448 (Simulation time: 0 hr 17 min 15 sec) 
*** Reached end of trace for Core: 0 Repeating trace: traces/spec2k17/srv_28.champsimtrace.xz
Heartbeat CPU 0 instructions: 230000001 cycles: 264994665 heartbeat IPC: 0.713295 cumulative IPC: 0.717216 (Simulation time: 0 hr 18 min 6 sec) 
Heartbeat CPU 0 instructions: 240000003 cycles: 278933892 heartbeat IPC: 0.7174 cumulative IPC: 0.717226 (Simulation time: 0 hr 18 min 55 sec) 
Heartbeat CPU 0 instructions: 250000001 cycles: 292782551 heartbeat IPC: 0.722091 cumulative IPC: 0.717468 (Simulation time: 0 hr 19 min 44 sec) 
Finished CPU 0 instructions: 200000001 cycles: 278758210 cumulative IPC: 0.717468 (Simulation time: 0 hr 19 min 44 sec) 

ChampSim completed all CPUs

Region of Interest Statistics

CPU 0 cumulative IPC: 0.717468 instructions: 200000001 cycles: 278758210
ITLB TOTAL     ACCESS:   32447558  HIT:   32341625  MISS:     105933  HIT %:    99.6735  MISS %:   0.326474   MPKI: 0.529665
ITLB LOAD TRANSLATION ACCESS:   32447558  HIT:   32341625  MISS:     105933  HIT %:    99.6735  MISS %:   0.326474   MPKI: 0.529665
ITLB PREFETCH  REQUESTED:          0  ISSUED:          0  USEFUL:          0  USELESS:          0
ITLB USEFUL LOAD PREFETCHES:          0 PREFETCH ISSUED TO LOWER LEVEL:          0  ACCURACY: -nan
ITLB TIMELY PREFETCHES:          0 LATE PREFETCHES: 0 DROPPED PREFETCHES: 0
ITLB PREFETCHES SAME FILL-ORIGIN LEVEL: 0 DIFFERENT FILL-ORIGIN LEVEL: 0
ITLB AVERAGE MISS LATENCY: 10.6973 cycles
ITLB RQ	ACCESS:   38246937	FORWARD:          0	MERGED:    5764829	TO_CACHE:   32482108

DTLB TOTAL     ACCESS:   40710309  HIT:   38911762  MISS:    1798547  HIT %:    95.5821  MISS %:    4.41792   MPKI: 8.99273
DTLB LOAD TRANSLATION ACCESS:   40710309  HIT:   38911762  MISS:    1798547  HIT %:    95.5821  MISS %:    4.41792   MPKI: 8.99273
DTLB PREFETCH  REQUESTED:          0  ISSUED:          0  USEFUL:          0  USELESS:          0
DTLB USEFUL LOAD PREFETCHES:          0 PREFETCH ISSUED TO LOWER LEVEL:          0  ACCURACY: -nan
DTLB TIMELY PREFETCHES:          0 LATE PREFETCHES: 0 DROPPED PREFETCHES: 0
DTLB PREFETCHES SAME FILL-ORIGIN LEVEL: 0 DIFFERENT FILL-ORIGIN LEVEL: 0
DTLB AVERAGE MISS LATENCY: 10.7298 cycles
DTLB RQ	ACCESS:   54715273	FORWARD:          0	MERGED:   13803639	TO_CACHE:   40911634

STLB TOTAL     ACCESS:    1904480  HIT:    1817386  MISS:      87094  HIT %:    95.4269  MISS %:    4.57311   MPKI: 0.43547
STLB LOAD TRANSLATION ACCESS:    1904480  HIT:    1817386  MISS:      87094  HIT %:    95.4269  MISS %:    4.57311   MPKI: 0.43547
STLB PREFETCH  REQUESTED:          0  ISSUED:          0  USEFUL:          0  USELESS:          0
STLB USEFUL LOAD PREFETCHES:          0 PREFETCH ISSUED TO LOWER LEVEL:          0  ACCURACY: -nan
STLB TIMELY PREFETCHES:          0 LATE PREFETCHES: 0 DROPPED PREFETCHES: 0
STLB PREFETCHES SAME FILL-ORIGIN LEVEL: 0 DIFFERENT FILL-ORIGIN LEVEL: 0
STLB AVERAGE MISS LATENCY: 37.7294 cycles
STLB RQ	ACCESS:    1904480	FORWARD:          0	MERGED:          0	TO_CACHE:    1904480

STLB Hit, L1D data hit: 0
STLB Hit, L2C data hit: 0
STLB Hit, LLC data hit: 0
STLB Hit, LLC data miss: 0
STLB STLB hints to L2: 0
L1D TOTAL     ACCESS:   54063787  HIT:   53550118  MISS:     513669  HIT %:    99.0499  MISS %:   0.950117   MPKI: 2.56834
L1D LOAD      ACCESS:   30648073  HIT:   30268268  MISS:     379805  HIT %:    98.7608  MISS %:    1.23925   MPKI: 1.89902
L1D RFO       ACCESS:   23415714  HIT:   23281850  MISS:     133864  HIT %:    99.4283  MISS %:   0.571684   MPKI: 0.66932
L1D PREFETCH  REQUESTED:          0  ISSUED:          0  USEFUL:          0  USELESS:          0
L1D USEFUL LOAD PREFETCHES:          0 PREFETCH ISSUED TO LOWER LEVEL:          0  ACCURACY: -nan
L1D TIMELY PREFETCHES:          0 LATE PREFETCHES: 0 DROPPED PREFETCHES: 0
L1D PREFETCHES SAME FILL-ORIGIN LEVEL: 0 DIFFERENT FILL-ORIGIN LEVEL: 0
L1D AVERAGE MISS LATENCY: 122.019 cycles
L1D RQ	ACCESS:   49512343	FORWARD:          0	MERGED:   18602398	TO_CACHE:   30788199
L1D WQ	ACCESS:   24183739	FORWARD:     121746	MERGED:     256665	TO_CACHE:   23927074

L1D UNIQUE REGIONS ACCESSED: 0
L1D REGIONS CONFLICTS: 0
L1D Cross Page Prefetch Requests: 0
L1D Same Page Prefetch Requests: 0
L1D ROI Sum of L1D PQ occupancy: 0
L1D PREFETCHES PUSHED FROM L2C: 0
L1I TOTAL     ACCESS:   38055944  HIT:   37423415  MISS:     632529  HIT %:    98.3379  MISS %:     1.6621   MPKI: 3.16264
L1I LOAD      ACCESS:   38055944  HIT:   37423415  MISS:     632529  HIT %:    98.3379  MISS %:     1.6621   MPKI: 3.16264
L1I PREFETCH  REQUESTED:          0  ISSUED:          0  USEFUL:          0  USELESS:          0
L1I USEFUL LOAD PREFETCHES:          0 PREFETCH ISSUED TO LOWER LEVEL:          0  ACCURACY: -nan
L1I TIMELY PREFETCHES:          0 LATE PREFETCHES: 0 DROPPED PREFETCHES: 0
L1I PREFETCHES SAME FILL-ORIGIN LEVEL: 0 DIFFERENT FILL-ORIGIN LEVEL: 0
L1I AVERAGE MISS LATENCY: 16.5541 cycles
L1I RQ	ACCESS:   60430036	FORWARD:          0	MERGED:   22183099	TO_CACHE:   38246937

BTB TOTAL     ACCESS:   29604974  HIT:   27951083  MISS:    1653891  HIT %:    94.4135  MISS %:    5.58653   MPKI: 8.26945
BTB BRANCH_DIRECT_JUMP	ACCESS:    2284365  HIT:    2283256  MISS:       1109
BTB BRANCH_INDIRECT	ACCESS:   12536315  HIT:   11991074  MISS:     545241
BTB BRANCH_CONDITIONAL	ACCESS:    7228322  HIT:    7226630  MISS:       1692
BTB BRANCH_DIRECT_CALL	ACCESS:    3327463  HIT:    3324379  MISS:       3084
BTB BRANCH_INDIRECT_CALL	ACCESS:     450518  HIT:     257027  MISS:     193491
BTB BRANCH_RETURN	ACCESS:    3777991  HIT:    2868717  MISS:     909274
BTB BRANCH_OTHER ACCESS:          0  HIT:          0  MISS:          0

L2C TOTAL     ACCESS:    1448727  HIT:     938876  MISS:     509851  HIT %:     64.807  MISS %:     35.193   MPKI: 2.54925
L2C LOAD      ACCESS:    1012211  HIT:     657643  MISS:     354568  HIT %:    64.9709  MISS %:    35.0291   MPKI: 1.77284
L2C DATA LOAD MPKI: 1.59139
L2C INSTRUCTION LOAD MPKI: 0.18145
L2C RFO       ACCESS:     133863  HIT:      10012  MISS:     123851  HIT %:    7.47929  MISS %:    92.5207   MPKI: 0.619255
L2C WRITEBACK ACCESS:     177845  HIT:     172304  MISS:       5541  HIT %:    96.8844  MISS %:    3.11563   MPKI: 0.027705
L2C LOAD TRANSLATION ACCESS:     124808  HIT:      98917  MISS:      25891  HIT %:    79.2553  MISS %:    20.7447   MPKI: 0.129455
L2C PREFETCH  REQUESTED:          0  ISSUED:          0  USEFUL:          0  USELESS:          0
L2C USEFUL LOAD PREFETCHES:          0 PREFETCH ISSUED TO LOWER LEVEL:          0  ACCURACY: -nan
L2C TIMELY PREFETCHES:          0 LATE PREFETCHES: 0 DROPPED PREFETCHES: 0
L2C PREFETCHES SAME FILL-ORIGIN LEVEL: 0 DIFFERENT FILL-ORIGIN LEVEL: 0
L2C AVERAGE MISS LATENCY: 113.148 cycles
L2C RQ	ACCESS:    1271006	FORWARD:          0	MERGED:          0	TO_CACHE:    1270882
L2C WQ	ACCESS:     177845	FORWARD:        124	MERGED:          0	TO_CACHE:     177845

L2C Instructions Evicting Data 32551
L2C Translations Evicting Data 22912
L2C Data Evicting Data 387533
L2C Instructions Evicting Instructions 1939
L2C Translations Evicting Instructions 1951
L2C Data Evicting Instructions 32335
L2C Instructions Evicting Translations 1800
L2C Translations Evicting Translations 1028
L2C Data Evicting Translations 22261
L2C Dense regions hint from L2: 0
PSCL5 TOTAL     ACCESS:      87094  HIT:      87094  MISS:          0  HIT %:        100  MISS %:          0   MPKI: 0
PSCL5 LOAD TRANSLATION ACCESS:      87094  HIT:      87094  MISS:          0  HIT %:        100  MISS %:          0   MPKI: 0
PSCL5 PREFETCH  REQUESTED:          0  ISSUED:          0  USEFUL:          0  USELESS:          0
PSCL5 USEFUL LOAD PREFETCHES:          0 PREFETCH ISSUED TO LOWER LEVEL:          0  ACCURACY: -nan
PSCL5 TIMELY PREFETCHES:          0 LATE PREFETCHES: 0 DROPPED PREFETCHES: 0
PSCL5 PREFETCHES SAME FILL-ORIGIN LEVEL: 0 DIFFERENT FILL-ORIGIN LEVEL: 0

PSCL4 TOTAL     ACCESS:      83278  HIT:      83127  MISS:        151  HIT %:    99.8187  MISS %:    0.18132   MPKI: 0.000755
PSCL4 LOAD TRANSLATION ACCESS:      83278  HIT:      83127  MISS:        151  HIT %:    99.8187  MISS %:    0.18132   MPKI: 0.000755
PSCL4 PREFETCH  REQUESTED:          0  ISSUED:          0  USEFUL:          0  USELESS:          0
PSCL4 USEFUL LOAD PREFETCHES:          0 PREFETCH ISSUED TO LOWER LEVEL:          0  ACCURACY: -nan
PSCL4 TIMELY PREFETCHES:          0 LATE PREFETCHES: 0 DROPPED PREFETCHES: 0
PSCL4 PREFETCHES SAME FILL-ORIGIN LEVEL: 0 DIFFERENT FILL-ORIGIN LEVEL: 0

PSCL3 TOTAL     ACCESS:      86701  HIT:      86223  MISS:        478  HIT %:    99.4487  MISS %:    0.55132   MPKI: 0.00239
PSCL3 LOAD TRANSLATION ACCESS:      86701  HIT:      86223  MISS:        478  HIT %:    99.4487  MISS %:    0.55132   MPKI: 0.00239
PSCL3 PREFETCH  REQUESTED:          0  ISSUED:          0  USEFUL:          0  USELESS:          0
PSCL3 USEFUL LOAD PREFETCHES:          0 PREFETCH ISSUED TO LOWER LEVEL:          0  ACCURACY: -nan
PSCL3 TIMELY PREFETCHES:          0 LATE PREFETCHES: 0 DROPPED PREFETCHES: 0
PSCL3 PREFETCHES SAME FILL-ORIGIN LEVEL: 0 DIFFERENT FILL-ORIGIN LEVEL: 0

PSCL2 TOTAL     ACCESS:      87094  HIT:      50009  MISS:      37085  HIT %:    57.4196  MISS %:    42.5804   MPKI: 0.185425
PSCL2 LOAD TRANSLATION ACCESS:      87094  HIT:      50009  MISS:      37085  HIT %:    57.4196  MISS %:    42.5804   MPKI: 0.185425
PSCL2 PREFETCH  REQUESTED:          0  ISSUED:          0  USEFUL:          0  USELESS:          0
PSCL2 USEFUL LOAD PREFETCHES:          0 PREFETCH ISSUED TO LOWER LEVEL:          0  ACCURACY: -nan
PSCL2 TIMELY PREFETCHES:          0 LATE PREFETCHES: 0 DROPPED PREFETCHES: 0
PSCL2 PREFETCHES SAME FILL-ORIGIN LEVEL: 0 DIFFERENT FILL-ORIGIN LEVEL: 0

LLC TOTAL     ACCESS:     663934  HIT:     389601  MISS:     274333  HIT %:    58.6807  MISS %:    41.3193   MPKI: 1.37166
LLC LOAD      ACCESS:     354568  HIT:     128391  MISS:     226177  HIT %:    36.2105  MISS %:    63.7895   MPKI: 1.13088
LLC RFO       ACCESS:     123851  HIT:      79103  MISS:      44748  HIT %:    63.8695  MISS %:    36.1305   MPKI: 0.22374
LLC WRITEBACK ACCESS:     159624  HIT:     158644  MISS:        980  HIT %:    99.3861  MISS %:   0.613943   MPKI: 0.0049
LLC LOAD TRANSLATION ACCESS:      25891  HIT:      23463  MISS:       2428  HIT %:    90.6222  MISS %:    9.37778   MPKI: 0.01214
LLC PREFETCH  REQUESTED:          0  ISSUED:          0  USEFUL:          0  USELESS:          0
LLC USEFUL LOAD PREFETCHES:          0 PREFETCH ISSUED TO LOWER LEVEL:          0  ACCURACY: -nan
LLC TIMELY PREFETCHES:          0 LATE PREFETCHES: 0 DROPPED PREFETCHES: 0
LLC PREFETCHES SAME FILL-ORIGIN LEVEL: 0 DIFFERENT FILL-ORIGIN LEVEL: 0
LLC AVERAGE MISS LATENCY: 155.133 cycles
LLC RQ	ACCESS:     504310	FORWARD:          0	MERGED:          0	TO_CACHE:     504310
LLC WQ	ACCESS:     159624	FORWARD:          0	MERGED:          0	TO_CACHE:     159624

LLC Dense regions hint to LLC: 0

RAW hits: 2384910
Loads Generated: 51897258
Loads sent to L1D: 49512343
Stores Generated: 24183727
Stores sent to L1D: 24183739
Major fault: 0 Minor fault: 6201
Allocated PAGES: 6201
CPU 0 L1D 
Prefetch count 0 BOP and RL 

DRAM Statistics
 CHANNEL 0
 RQ ROW_BUFFER_HIT:      61912  ROW_BUFFER_MISS:     211422
 DBUS_CONGESTED:        310
 WQ ROW_BUFFER_HIT:      11651  ROW_BUFFER_MISS:      45822  FULL:          0

 AVG_CONGESTED_CYCLE: 5
 All warmup complete: 2
Channel 0 Bank busy for read cycles: 0
Channel 0 Bank busy for write cycles: 0
Channel 0
Rank 0
0banks busy for read cycles: 245815223
0banks busy for write cycles: 31022
1banks busy for read cycles: 22535458
1banks busy for write cycles: 5535986
2banks busy for read cycles: 1337872
2banks busy for write cycles: 705022
3banks busy for read cycles: 555188
3banks busy for write cycles: 182402
4banks busy for read cycles: 374138
4banks busy for write cycles: 125359
5banks busy for read cycles: 304048
5banks busy for write cycles: 116452
6banks busy for read cycles: 290184
6banks busy for write cycles: 106723
7banks busy for read cycles: 220719
7banks busy for write cycles: 129617
8banks busy for read cycles: 204338
8banks busy for write cycles: 188460

CPU 0 Branch Prediction Accuracy: 99.7863% MPKI: 0.390065 Average ROB Occupancy at Mispredict: 20.0992
Branch types
NOT_BRANCH: 163487732 81.7439%
BRANCH_DIRECT_JUMP: 2284365 1.14218%
BRANCH_INDIRECT: 12536315 6.26816%
BRANCH_CONDITIONAL: 14135281 7.06764%
BRANCH_DIRECT_CALL: 3327463 1.66373%
BRANCH_INDIRECT_CALL: 450518 0.225259%
BRANCH_RETURN: 3777991 1.889%
BRANCH_OTHER: 0 0%

DRAM PAGES: 1048576
Allocated PAGES: 6201
