
*** ChampSim Multicore Out-of-Order Simulator ***

Warmup Instructions: 50000000
Simulation Instructions: 200000000
Number of CPUs: 1
LLC sets: 2048
LLC ways: 16
Off-chip DRAM Size: 4096 MB Channels: 1 Width: 64-bit Data Rate: 6400 MT/s
CPU 0 runs traces/spec2k17/srv_40.champsimtrace.xz
.xz
BTB has LRU replacement policy
ITLB has LRU replacement policy
DTLB has LRU replacement policy
STLB has LRU replacement policy
L1I has LRU replacement policy
CPU 0 l1d next line prefetcher
L1D has LRU replacement policy
Initialize SRRIP state for L2C
Initialize DRRIP state for LLC
Offsets elements: 
Potential of Offsets elements: 
rewards of Offsets elements: 
Printing Sanity1
offset list size1909
Heartbeat CPU 0 instructions: 10000001 cycles: 2802484 heartbeat IPC: 3.56826 cumulative IPC: 3.56826 (Simulation time: 0 hr 0 min 35 sec) 
Heartbeat CPU 0 instructions: 20000003 cycles: 5824290 heartbeat IPC: 3.30928 cumulative IPC: 3.4339 (Simulation time: 0 hr 1 min 15 sec) 
Heartbeat CPU 0 instructions: 30000002 cycles: 8855559 heartbeat IPC: 3.29895 cumulative IPC: 3.3877 (Simulation time: 0 hr 1 min 55 sec) 
*** Reached end of trace for Core: 0 Repeating trace: traces/spec2k17/srv_40.champsimtrace.xz
Heartbeat CPU 0 instructions: 40000000 cycles: 11666942 heartbeat IPC: 3.55697 cumulative IPC: 3.42849 (Simulation time: 0 hr 2 min 32 sec) 
Heartbeat CPU 0 instructions: 50000003 cycles: 14682012 heartbeat IPC: 3.31667 cumulative IPC: 3.40553 (Simulation time: 0 hr 3 min 8 sec) 

Warmup complete CPU 0 instructions: 50000003 cycles: 14682012 (Simulation time: 0 hr 3 min 8 sec) 

Heartbeat CPU 0 instructions: 60000000 cycles: 28749359 heartbeat IPC: 0.710866 cumulative IPC: 0.710866 (Simulation time: 0 hr 3 min 53 sec) 
*** Reached end of trace for Core: 0 Repeating trace: traces/spec2k17/srv_40.champsimtrace.xz
Heartbeat CPU 0 instructions: 70000003 cycles: 44909092 heartbeat IPC: 0.618822 cumulative IPC: 0.661658 (Simulation time: 0 hr 4 min 42 sec) 
Heartbeat CPU 0 instructions: 80000001 cycles: 60461364 heartbeat IPC: 0.642993 cumulative IPC: 0.655317 (Simulation time: 0 hr 5 min 27 sec) 
Heartbeat CPU 0 instructions: 90000001 cycles: 74502237 heartbeat IPC: 0.712206 cumulative IPC: 0.66867 (Simulation time: 0 hr 6 min 11 sec) 
*** Reached end of trace for Core: 0 Repeating trace: traces/spec2k17/srv_40.champsimtrace.xz
Heartbeat CPU 0 instructions: 100000002 cycles: 90783805 heartbeat IPC: 0.614192 cumulative IPC: 0.657015 (Simulation time: 0 hr 7 min 0 sec) 
Heartbeat CPU 0 instructions: 110000000 cycles: 106102890 heartbeat IPC: 0.65278 cumulative IPC: 0.656305 (Simulation time: 0 hr 7 min 42 sec) 
Heartbeat CPU 0 instructions: 120000001 cycles: 120152930 heartbeat IPC: 0.711742 cumulative IPC: 0.66369 (Simulation time: 0 hr 8 min 25 sec) 
*** Reached end of trace for Core: 0 Repeating trace: traces/spec2k17/srv_40.champsimtrace.xz
Heartbeat CPU 0 instructions: 130000003 cycles: 136561957 heartbeat IPC: 0.609421 cumulative IPC: 0.656384 (Simulation time: 0 hr 9 min 16 sec) 
Heartbeat CPU 0 instructions: 140000003 cycles: 151751289 heartbeat IPC: 0.658357 cumulative IPC: 0.656602 (Simulation time: 0 hr 10 min 2 sec) 
Heartbeat CPU 0 instructions: 150000000 cycles: 165776096 heartbeat IPC: 0.713022 cumulative IPC: 0.661839 (Simulation time: 0 hr 10 min 45 sec) 
Offsets elements: 
Potential of Offsets elements: 
rewards of Offsets elements: 0 0 0 0 0 0 12 0 0 0 257 0 0 128 197 245 0 57 11 0 0 0 0 1 51 56 1 2 0 0 0 0 0 0 0 0 0 0 0 0 22 0 0 149 0 0 189 0 0 0 0 0 0 0 2 0 0 0 0 0 0 0 0 0 1 2 3 0 8 12 0 0 0 0 0 0 0 0 0 0 0 266 0 0 0 0 0 0 0 0 387 105 0 0 0 0 0 344 0 0 0 2 0 0 0 1 76 40 0 147 85 1 0 0 0 0 1 0 0 90 0 0 8 259 333 161 296 0 0 0 324 0 0 0 173 0 0 0 0 0 0 0 0 0 0 0 0 228 0 0 0 0 0 0 0 0 0 0 0 0 0 0 0 0 0 0 0 0 0 0 0 0 0 80 0 0 0 59 97 2 0 0 0 10 0 0 0 0 338 0 0 0 4 1 2 21 77 0 0 0 0 0 320 0 0 0 0 0 240 0 0 178 0 159 0 3 0 0 0 0 0 0 0 0 0 0 0 0 0 3 0 0 0 0 359 0 101 343 100 4 9 0 0 94 0 0 0 0 2 0 0 0 0 0 0 0 288 200 8 0 0 0 0 0 353 0 4 0 336 1 0 294 290 291 2 3 0 0 0 0 0 0 0 0 0 0 258 231 0 110 0 0 0 0 0 13 6 0 0 0 0 0 0 54 58 3 0 0 1 0 0 0 0 0 0 0 0 0 0 0 0 119 0 0 0 0 0 0 134 0 0 0 1 6 0 0 0 81 0 0 0 0 0 0 0 0 0 0 48 45 1 3 0 0 332 287 336 334 32 258 0 0 1 0 0 3 313 0 254 250 89 94 0 0 1 143 2 0 0 79 5 5 0 1 0 0 0 0 0 7 8 5 3 6 0 0 0 0 0 0 0 126 0 0 0 2 0 0 0 2 5 134 20 42 2 105 0 16 0 5 0 0 0 0 44 5 0 0 19 1 0 0 0 0 0 3 0 0 0 0 0 0 0 0 0 0 0 0 0 0 0 11 5 118 28 0 7 0 0 2 9 0 0 0 0 0 0 0 0 0 0 0 0 0 0 0 0 0 0 0 0 0 0 0 311 112 0 0 343 309 0 1 0 12 0 0 207 0 0 1 0 0 268 1 0 1 0 1 0 145 0 0 0 0 0 0 0 1 52 1 0 0 0 0 0 0 0 0 0 2 0 0 0 1 2 0 0 0 0 0 0 0 0 0 0 0 0 0 0 0 0 0 0 6 2 0 241 0 0 0 0 0 0 0 0 0 0 0 0 0 0 0 0 0 0 256 0 0 0 0 6 0 0 2 0 154 2 0 2 2 3 35 0 0 2 0 0 0 0 2 0 0 2 0 0 0 0 0 0 0 0 0 187 0 0 0 0 2 0 0 0 0 0 0 0 0 0 0 0 0 0 0 0 0 0 0 0 0 0 1 0 0 1 1 0 0 0 0 0 0 0 2 0 0 0 0 0 0 0 0 0 0 0 0 0 0 0 0 0 259 59 0 0 0 0 0 0 0 0 0 0 0 0 0 0 0 0 0 0 0 0 0 0 0 0 0 307 0 0 0 0 0 0 0 0 0 0 0 3 0 0 0 0 0 0 0 0 0 0 0 0 0 1 0 0 74 0 67 0 0 0 156 0 0 0 0 0 0 0 1 0 2 40 39 4 0 0 0 0 0 0 218 0 2 1 0 0 0 0 298 0 0 0 0 0 0 0 0 0 0 0 0 0 1 0 0 0 0 0 0 1 0 0 0 2 0 28 2 0 0 0 0 0 0 0 0 0 0 10 28 0 0 0 0 0 0 0 0 59 3 0 0 0 0 0 0 0 0 0 0 0 0 1 0 0 0 0 0 0 0 0 0 0 0 0 0 1 0 0 0 0 0 0 0 0 0 0 0 0 0 0 0 39 4 0 11 0 0 0 0 0 0 0 0 257 234 0 0 0 1 181 0 0 0 0 1 0 0 67 0 1 0 325 225 0 0 0 340 0 0 53 3 1 0 0 0 272 75 0 0 0 0 0 0 0 0 0 0 264 0 0 0 0 0 0 0 0 0 0 0 0 0 272 0 283 1 0 71 0 0 0 0 230 0 0 0 0 0 0 0 0 0 0 0 0 0 0 0 0 0 0 0 233 291 0 0 0 0 0 0 0 0 23 2 3 0 0 0 0 0 0 0 0 0 0 0 0 0 0 0 0 0 0 0 0 0 0 1 1 0 0 0 0 0 2 0 0 0 0 0 0 0 0 144 0 312 0 0 0 0 0 0 0 0 0 0 0 0 0 0 1 0 3 1 2 1 0 0 0 0 2 0 0 0 0 0 0 0 0 0 0 0 0 0 0 0 0 0 0 0 0 0 0 2 0 0 0 0 58 0 0 0 0 295 0 0 0 0 0 0 0 0 0 0 0 0 0 0 0 0 0 0 0 0 0 0 0 45 0 0 0 0 154 0 0 0 0 0 0 276 0 0 0 0 29 0 0 0 0 0 241 0 0 28 0 0 0 85 0 0 0 0 0 0 0 0 0 0 0 2 0 0 0 0 0 0 0 1 0 0 0 0 0 0 0 0 0 0 0 0 0 0 42 0 0 0 0 0 0 0 0 0 0 0 10 0 0 0 0 0 0 30 18 0 0 0 15 5 0 0 0 0 0 0 0 0 0 0 0 0 0 2 0 0 3 0 19 0 0 0 0 23 88 0 0 0 0 0 0 0 0 0 12 0 0 0 0 5 0 0 41 0 0 0 0 0 0 0 0 1 0 0 0 0 569 0 229 0 0 0 2 5 0 0 1 0 0 0 6 0 0 0 0 0 0 0 0 0 1 96 99 0 1 0 1 0 0 0 0 0 14 1 0 0 0 0 0 0 0 0 0 0 0 0 0 0 0 0 0 0 1 0 0 0 0 0 0 0 0 0 0 0 0 0 0 0 0 0 0 0 0 0 0 0 0 0 0 0 0 0 0 0 0 0 0 0 0 0 0 0 1 0 0 0 3 0 0 82 0 0 0 0 0 0 0 0 0 0 0 0 0 0 0 0 0 0 0 0 0 0 0 0 0 0 0 0 0 0 0 0 0 0 0 1 0 0 26 0 0 0 0 0 0 0 0 0 0 0 0 0 0 0 0 0 0 0 0 0 0 0 0 0 0 0 0 0 0 0 0 0 0 0 0 0 0 0 0 0 0 0 0 0 0 0 21 0 0 0 0 0 0 0 0 157 0 0 0 0 0 0 0 0 0 0 0 0 0 0 0 0 0 0 0 0 0 0 0 0 0 0 0 0 0 0 0 0 0 0 0 0 213 0 0 0 0 0 0 0 0 0 0 2 0 0 0 0 0 0 0 3 3 0 0 0 0 0 0 0 0 0 0 0 0 0 0 0 0 0 1 0 0 0 0 0 0 0 0 0 32 0 0 0 45 0 0 0 0 0 193 0 0 0 218 66 0 0 0 23 0 0 0 0 0 0 0 0 0 0 0 0 0 0 0 0 0 11 0 0 0 0 0 0 0 0 0 0 0 0 1 0 0 0 0 0 0 0 0 1 0 0 0 0 0 0 0 0 0 0 0 0 0 0 0 0 0 0 0 0 0 0 0 0 0 0 3 0 0 0 0 0 2 0 0 0 1 0 0 0 0 0 33 0 0 0 0 0 315 0 0 0 0 0 1 0 0 0 0 0 0 0 2 5 2 0 0 0 0 0 0 0 0 0 0 0 0 0 0 1 1 0 0 0 0 0 0 0 0 0 0 0 0 0 0 0 0 0 166 0 0 0 0 0 0 0 0 2 64 0 0 0 0 0 0 0 1 0 0 0 0 0 64 0 0 0 163 1 0 0 0 0 290 0 8 0 0 2 0 0 0 0 0 0 3 1 78 0 0 0 0 0 0 0 0 0 0 0 0 0 0 0 0 0 0 0 0 0 0 0 0 0 0 0 0 0 0 0 0 0 0 0 0 0 0 0 0 0 0 0 0 0 0 3 0 0 0 0 0 0 0 0 0 0 50 49 54 0 0 0 0 0 0 0 0 0 0 3 0 0 0 0 0 0 0 0 0 0 30 0 0 1 0 0 0 0 0 0 0 2 0 0 0 0 0 0 0 0 2 0 0 0 0 0 0 0 0 0 0 0 0 0 3 0 2 0 0 0 0 0 0 0 0 0 0 0 0 0 0 0 0 0 0 0 0 0 0 0 0 0 0 1 0 0 0 0 0 0 0 0 0 0 0 0 214 0 0 0 0 0 0 2 0 0 0 0 2 0 0 0 132 0 0 0 0 0 0 0 0 0 0 
Printing Sanity2
*** Reached end of trace for Core: 0 Repeating trace: traces/spec2k17/srv_40.champsimtrace.xz
Heartbeat CPU 0 instructions: 160000001 cycles: 182301169 heartbeat IPC: 0.605141 cumulative IPC: 0.65625 (Simulation time: 0 hr 11 min 30 sec) 
Heartbeat CPU 0 instructions: 170000000 cycles: 196987881 heartbeat IPC: 0.680888 cumulative IPC: 0.658234 (Simulation time: 0 hr 12 min 16 sec) 
Heartbeat CPU 0 instructions: 180000003 cycles: 210476342 heartbeat IPC: 0.741375 cumulative IPC: 0.663962 (Simulation time: 0 hr 12 min 59 sec) 
*** Reached end of trace for Core: 0 Repeating trace: traces/spec2k17/srv_40.champsimtrace.xz
Heartbeat CPU 0 instructions: 190000001 cycles: 227105037 heartbeat IPC: 0.60137 cumulative IPC: 0.659062 (Simulation time: 0 hr 13 min 47 sec) 
Heartbeat CPU 0 instructions: 200000002 cycles: 241664111 heartbeat IPC: 0.686857 cumulative IPC: 0.660845 (Simulation time: 0 hr 14 min 29 sec) 
Heartbeat CPU 0 instructions: 210000000 cycles: 255181900 heartbeat IPC: 0.739766 cumulative IPC: 0.665281 (Simulation time: 0 hr 15 min 12 sec) 
*** Reached end of trace for Core: 0 Repeating trace: traces/spec2k17/srv_40.champsimtrace.xz
Heartbeat CPU 0 instructions: 220000000 cycles: 271980004 heartbeat IPC: 0.595305 cumulative IPC: 0.660712 (Simulation time: 0 hr 16 min 1 sec) 
Heartbeat CPU 0 instructions: 230000000 cycles: 286331677 heartbeat IPC: 0.696783 cumulative IPC: 0.662618 (Simulation time: 0 hr 16 min 46 sec) 
Heartbeat CPU 0 instructions: 240000000 cycles: 299830091 heartbeat IPC: 0.740828 cumulative IPC: 0.66632 (Simulation time: 0 hr 17 min 30 sec) 
*** Reached end of trace for Core: 0 Repeating trace: traces/spec2k17/srv_40.champsimtrace.xz
Heartbeat CPU 0 instructions: 250000002 cycles: 316378573 heartbeat IPC: 0.604285 cumulative IPC: 0.662918 (Simulation time: 0 hr 18 min 16 sec) 
Finished CPU 0 instructions: 200000003 cycles: 301696562 cumulative IPC: 0.662918 (Simulation time: 0 hr 18 min 16 sec) 

ChampSim completed all CPUs

Region of Interest Statistics

CPU 0 cumulative IPC: 0.662918 instructions: 200000003 cycles: 301696562
ITLB TOTAL     ACCESS:   29005786  HIT:   28740295  MISS:     265491  HIT %:    99.0847  MISS %:   0.915304   MPKI: 1.32745
ITLB LOAD TRANSLATION ACCESS:   29005786  HIT:   28740295  MISS:     265491  HIT %:    99.0847  MISS %:   0.915304   MPKI: 1.32745
ITLB PREFETCH  REQUESTED:          0  ISSUED:          0  USEFUL:          0  USELESS:          0
ITLB USEFUL LOAD PREFETCHES:          0 PREFETCH ISSUED TO LOWER LEVEL:          0  ACCURACY: -nan
ITLB TIMELY PREFETCHES:          0 LATE PREFETCHES: 0 DROPPED PREFETCHES: 0
ITLB PREFETCHES SAME FILL-ORIGIN LEVEL: 0 DIFFERENT FILL-ORIGIN LEVEL: 0
ITLB AVERAGE MISS LATENCY: 11.4609 cycles
ITLB RQ	ACCESS:   37697380	FORWARD:          0	MERGED:    8597695	TO_CACHE:   29099685

DTLB TOTAL     ACCESS:   36752359  HIT:   36437846  MISS:     314513  HIT %:    99.1442  MISS %:   0.855763   MPKI: 1.57256
DTLB LOAD TRANSLATION ACCESS:   36752359  HIT:   36437846  MISS:     314513  HIT %:    99.1442  MISS %:   0.855763   MPKI: 1.57256
DTLB PREFETCH  REQUESTED:          0  ISSUED:          0  USEFUL:          0  USELESS:          0
DTLB USEFUL LOAD PREFETCHES:          0 PREFETCH ISSUED TO LOWER LEVEL:          0  ACCURACY: -nan
DTLB TIMELY PREFETCHES:          0 LATE PREFETCHES: 0 DROPPED PREFETCHES: 0
DTLB PREFETCHES SAME FILL-ORIGIN LEVEL: 0 DIFFERENT FILL-ORIGIN LEVEL: 0
DTLB AVERAGE MISS LATENCY: 21.9155 cycles
DTLB RQ	ACCESS:   54964652	FORWARD:          0	MERGED:   18104005	TO_CACHE:   36860647

STLB TOTAL     ACCESS:    1030286  HIT:     982265  MISS:      48021  HIT %:    95.3391  MISS %:    4.66094   MPKI: 0.240105
STLB LOAD TRANSLATION ACCESS:     580004  HIT:     535772  MISS:      44232  HIT %:    92.3738  MISS %:    7.62615   MPKI: 0.22116
STLB TRANSLATION FROM L1D PREFETCHER ACCESS:     450282  HIT:     446493  MISS:       3789  HIT %:    99.1585  MISS %:   0.841473   MPKI: 0.018945
STLB PREFETCH  REQUESTED:          0  ISSUED:          0  USEFUL:       3723  USELESS:         65
STLB USEFUL LOAD PREFETCHES:       3723 PREFETCH ISSUED TO LOWER LEVEL:          0  ACCURACY: inf
STLB TIMELY PREFETCHES:       3723 LATE PREFETCHES: 213 DROPPED PREFETCHES: 8792
STLB PREFETCHES SAME FILL-ORIGIN LEVEL: 0 DIFFERENT FILL-ORIGIN LEVEL: 0
STLB AVERAGE MISS LATENCY: 641620 cycles
STLB RQ	ACCESS:    1118241	FORWARD:          0	MERGED:      76665	TO_CACHE:    1041576

STLB Hit, L1D data hit: 0
STLB Hit, L2C data hit: 0
STLB Hit, LLC data hit: 0
STLB Hit, LLC data miss: 0
STLB STLB hints to L2: 0
L1D TOTAL     ACCESS:   52241627  HIT:   49525096  MISS:    2716531  HIT %:    94.8001  MISS %:    5.19994   MPKI: 13.5827
L1D LOAD      ACCESS:   42987974  HIT:   41820390  MISS:    1167584  HIT %:    97.2839  MISS %:    2.71607   MPKI: 5.83792
L1D RFO       ACCESS:    8756660  HIT:    7642472  MISS:    1114188  HIT %:    87.2761  MISS %:    12.7239   MPKI: 5.57094
L1D PREFETCH  ACCESS:     496993  HIT:      62234  MISS:     434759  HIT %:    12.5221  MISS %:    87.4779   MPKI: 2.17379
AGUS PREFETCH L1 MISS: 0
L1D PREFETCH  REQUESTED:    1091052  ISSUED:    1090581  USEFUL:     166661  USELESS:     267900
L1D USEFUL LOAD PREFETCHES:     166661 PREFETCH ISSUED TO LOWER LEVEL:     455378  ACCURACY: 36.5984
L1D TIMELY PREFETCHES:     166661 LATE PREFETCHES: 20513 DROPPED PREFETCHES: 9803
L1D PREFETCHES SAME FILL-ORIGIN LEVEL: 455378 DIFFERENT FILL-ORIGIN LEVEL: 0
L1D AVERAGE MISS LATENCY: 1.8636e+06 cycles
L1D RQ	ACCESS:   49888281	FORWARD:          0	MERGED:    6727680	TO_CACHE:   43042426
L1D WQ	ACCESS:   12021205	FORWARD:     118181	MERGED:      98979	TO_CACHE:   11922226
L1D PQ	ACCESS:     552344	FORWARD:          0	MERGED:      14101	TO_CACHE:     538237

L1D UNIQUE REGIONS ACCESSED: 0
L1D REGIONS CONFLICTS: 0
L1D Cross Page Prefetch Requests: 552344
L1D Same Page Prefetch Requests: 0
L1D ROI Sum of L1D PQ occupancy: 17973004
L1D PREFETCHES PUSHED FROM L2C: 0
L1I TOTAL     ACCESS:   37355863  HIT:   36087441  MISS:    1268422  HIT %:    96.6045  MISS %:    3.39551   MPKI: 6.34211
L1I LOAD      ACCESS:   37355863  HIT:   36087441  MISS:    1268422  HIT %:    96.6045  MISS %:    3.39551   MPKI: 6.34211
L1I PREFETCH  REQUESTED:          0  ISSUED:          0  USEFUL:          0  USELESS:          0
L1I USEFUL LOAD PREFETCHES:          0 PREFETCH ISSUED TO LOWER LEVEL:          0  ACCURACY: -nan
L1I TIMELY PREFETCHES:          0 LATE PREFETCHES: 0 DROPPED PREFETCHES: 0
L1I PREFETCHES SAME FILL-ORIGIN LEVEL: 0 DIFFERENT FILL-ORIGIN LEVEL: 0
L1I AVERAGE MISS LATENCY: 27.5709 cycles
L1I RQ	ACCESS:   53183083	FORWARD:          0	MERGED:   15485703	TO_CACHE:   37697380

BTB TOTAL     ACCESS:   13141803  HIT:   12087753  MISS:    1054050  HIT %:    91.9794  MISS %:    8.02059   MPKI: 5.27025
BTB BRANCH_DIRECT_JUMP	ACCESS:    1417012  HIT:    1361700  MISS:      55312
BTB BRANCH_INDIRECT	ACCESS:    4725378  HIT:    4385115  MISS:     340263
BTB BRANCH_CONDITIONAL	ACCESS:    4838904  HIT:    4776129  MISS:      62775
BTB BRANCH_DIRECT_CALL	ACCESS:     958453  HIT:     856614  MISS:     101839
BTB BRANCH_INDIRECT_CALL	ACCESS:     121813  HIT:      97196  MISS:      24617
BTB BRANCH_RETURN	ACCESS:    1080243  HIT:     610999  MISS:     469244
BTB BRANCH_OTHER ACCESS:          0  HIT:          0  MISS:          0

L2C TOTAL     ACCESS:    5372137  HIT:    3420061  MISS:    1952076  HIT %:     63.663  MISS %:     36.337   MPKI: 9.76038
L2C LOAD      ACCESS:    2415491  HIT:    1677449  MISS:     738042  HIT %:    69.4455  MISS %:    30.5545   MPKI: 3.69021
L2C DATA LOAD MPKI: 2.41
L2C INSTRUCTION LOAD MPKI: 1.2802
L2C RFO       ACCESS:    1113933  HIT:     140653  MISS:     973280  HIT %:    12.6267  MISS %:    87.3733   MPKI: 4.8664
L2C PREFETCH  ACCESS:     455376  HIT:     254612  MISS:     200764  HIT %:    55.9125  MISS %:    44.0875   MPKI: 1.00382
AGUS PREFETCH L1 MISS: 0
L2C DATA PREFETCH MPKI: 1.00382
L2C INSTRUCTION PREFETCH MPKI: 0
L2C WRITEBACK ACCESS:    1313327  HIT:    1297529  MISS:      15798  HIT %:    98.7971  MISS %:     1.2029   MPKI: 0.07899
L2C LOAD TRANSLATION ACCESS:      56395  HIT:      34100  MISS:      22295  HIT %:    60.4664  MISS %:    39.5336   MPKI: 0.111475
L2C TRANSLATION FROM L1D PREFETCHER ACCESS:      17615  HIT:      15718  MISS:       1897  HIT %:    89.2308  MISS %:    10.7692   MPKI: 0.009485
L2C PREFETCH  REQUESTED:          0  ISSUED:          0  USEFUL:      11250  USELESS:     189813
L2C USEFUL LOAD PREFETCHES:      11250 PREFETCH ISSUED TO LOWER LEVEL:     200764  ACCURACY: 5.60359
L2C TIMELY PREFETCHES:      11250 LATE PREFETCHES: 0 DROPPED PREFETCHES: 0
L2C PREFETCHES SAME FILL-ORIGIN LEVEL: 0 DIFFERENT FILL-ORIGIN LEVEL: 0
L2C AVERAGE MISS LATENCY: 266.195 cycles
L2C RQ	ACCESS:    3603585	FORWARD:          0	MERGED:          0	TO_CACHE:    3603434
L2C WQ	ACCESS:    1313327	FORWARD:        153	MERGED:          0	TO_CACHE:    1313327
L2C PQ	ACCESS:     455378	FORWARD:          0	MERGED:          0	TO_CACHE:     455376

L2C Instructions Evicting Data 144224
L2C Translations Evicting Data 16496
L2C Data Evicting Data 1501881
L2C Instructions Evicting Instructions 104138
L2C Translations Evicting Instructions 7021
L2C Data Evicting Instructions 138900
L2C Instructions Evicting Translations 7679
L2C Translations Evicting Translations 675
L2C Data Evicting Translations 15264
L2C Dense regions hint from L2: 0
PSCL5 TOTAL     ACCESS:      56813  HIT:      56813  MISS:          0  HIT %:        100  MISS %:          0   MPKI: 0
PSCL5 LOAD TRANSLATION ACCESS:      44019  HIT:      44019  MISS:          0  HIT %:        100  MISS %:          0   MPKI: 0
PSCL5 TRANSLATION FROM L1D PREFETCHER ACCESS:      12794  HIT:      12794  MISS:          0  HIT %:        100  MISS %:          0   MPKI: 0
PSCL5 PREFETCH  REQUESTED:          0  ISSUED:          0  USEFUL:          0  USELESS:          0
PSCL5 USEFUL LOAD PREFETCHES:          0 PREFETCH ISSUED TO LOWER LEVEL:          0  ACCURACY: -nan
PSCL5 TIMELY PREFETCHES:          0 LATE PREFETCHES: 0 DROPPED PREFETCHES: 0
PSCL5 PREFETCHES SAME FILL-ORIGIN LEVEL: 0 DIFFERENT FILL-ORIGIN LEVEL: 0

PSCL4 TOTAL     ACCESS:      56491  HIT:      56366  MISS:        125  HIT %:    99.7787  MISS %:   0.221274   MPKI: 0.000625
PSCL4 LOAD TRANSLATION ACCESS:      43778  HIT:      43653  MISS:        125  HIT %:    99.7145  MISS %:   0.285532   MPKI: 0.000625
PSCL4 TRANSLATION FROM L1D PREFETCHER ACCESS:      12713  HIT:      12713  MISS:          0  HIT %:        100  MISS %:          0   MPKI: 0
PSCL4 PREFETCH  REQUESTED:          0  ISSUED:          0  USEFUL:          0  USELESS:          0
PSCL4 USEFUL LOAD PREFETCHES:          0 PREFETCH ISSUED TO LOWER LEVEL:          0  ACCURACY: -nan
PSCL4 TIMELY PREFETCHES:          0 LATE PREFETCHES: 0 DROPPED PREFETCHES: 0
PSCL4 PREFETCHES SAME FILL-ORIGIN LEVEL: 0 DIFFERENT FILL-ORIGIN LEVEL: 0

PSCL3 TOTAL     ACCESS:      46610  HIT:      43295  MISS:       3315  HIT %:    92.8878  MISS %:    7.11221   MPKI: 0.016575
PSCL3 LOAD TRANSLATION ACCESS:      37922  HIT:      34607  MISS:       3315  HIT %:    91.2584  MISS %:    8.74163   MPKI: 0.016575
PSCL3 TRANSLATION FROM L1D PREFETCHER ACCESS:       8688  HIT:       8688  MISS:          0  HIT %:        100  MISS %:          0   MPKI: 0
PSCL3 PREFETCH  REQUESTED:          0  ISSUED:          0  USEFUL:          0  USELESS:          0
PSCL3 USEFUL LOAD PREFETCHES:          0 PREFETCH ISSUED TO LOWER LEVEL:          0  ACCURACY: -nan
PSCL3 TIMELY PREFETCHES:          0 LATE PREFETCHES: 0 DROPPED PREFETCHES: 0
PSCL3 PREFETCHES SAME FILL-ORIGIN LEVEL: 0 DIFFERENT FILL-ORIGIN LEVEL: 0

PSCL2 TOTAL     ACCESS:      53378  HIT:      44232  MISS:       9146  HIT %:    82.8656  MISS %:    17.1344   MPKI: 0.04573
PSCL2 LOAD TRANSLATION ACCESS:      44168  HIT:      35022  MISS:       9146  HIT %:    79.2927  MISS %:    20.7073   MPKI: 0.04573
PSCL2 TRANSLATION FROM L1D PREFETCHER ACCESS:       9210  HIT:       9210  MISS:          0  HIT %:        100  MISS %:          0   MPKI: 0
PSCL2 PREFETCH  REQUESTED:          0  ISSUED:          0  USEFUL:          0  USELESS:          0
PSCL2 USEFUL LOAD PREFETCHES:          0 PREFETCH ISSUED TO LOWER LEVEL:          0  ACCURACY: -nan
PSCL2 TIMELY PREFETCHES:          0 LATE PREFETCHES: 0 DROPPED PREFETCHES: 0
PSCL2 PREFETCHES SAME FILL-ORIGIN LEVEL: 0 DIFFERENT FILL-ORIGIN LEVEL: 0

LLC TOTAL     ACCESS:    2976300  HIT:    1356760  MISS:    1619540  HIT %:    45.5855  MISS %:    54.4145   MPKI: 8.0977
LLC LOAD      ACCESS:     738042  HIT:     267948  MISS:     470094  HIT %:    36.3053  MISS %:    63.6947   MPKI: 2.35047
LLC RFO       ACCESS:     973280  HIT:      21112  MISS:     952168  HIT %:    2.16916  MISS %:    97.8308   MPKI: 4.76084
LLC PREFETCH  ACCESS:     200764  HIT:      38683  MISS:     162081  HIT %:    19.2679  MISS %:    80.7321   MPKI: 0.810405
AGUS PREFETCH L1 MISS: 0
LLC WRITEBACK ACCESS:    1040022  HIT:    1019281  MISS:      20741  HIT %:    98.0057  MISS %:    1.99428   MPKI: 0.103705
LLC LOAD TRANSLATION ACCESS:      22295  HIT:       8688  MISS:      13607  HIT %:    38.9684  MISS %:    61.0316   MPKI: 0.068035
LLC TRANSLATION FROM L1D PREFETCHER ACCESS:       1897  HIT:       1048  MISS:        849  HIT %:    55.2451  MISS %:    44.7549   MPKI: 0.004245
LLC PREFETCH  REQUESTED:          0  ISSUED:          0  USEFUL:       2704  USELESS:     153364
LLC USEFUL LOAD PREFETCHES:       2704 PREFETCH ISSUED TO LOWER LEVEL:     162081  ACCURACY: 1.6683
LLC TIMELY PREFETCHES:       2704 LATE PREFETCHES: 0 DROPPED PREFETCHES: 0
LLC PREFETCHES SAME FILL-ORIGIN LEVEL: 0 DIFFERENT FILL-ORIGIN LEVEL: 0
LLC AVERAGE MISS LATENCY: 284.985 cycles
LLC RQ	ACCESS:    1735514	FORWARD:          0	MERGED:          0	TO_CACHE:    1735514
LLC WQ	ACCESS:    1040022	FORWARD:          0	MERGED:          0	TO_CACHE:    1040022
LLC PQ	ACCESS:     200764	FORWARD:          0	MERGED:          0	TO_CACHE:     200764

LLC Dense regions hint to LLC: 0

RAW hits: 910193
Loads Generated: 50798474
Loads sent to L1D: 49888281
Stores Generated: 12021212
Stores sent to L1D: 12021205
Major fault: 0 Minor fault: 6461
Allocated PAGES: 6461
CPU 0 L1D 
Prefetch count 455378 BOP and RL 

DRAM Statistics
 CHANNEL 0
 RQ ROW_BUFFER_HIT:     645395  ROW_BUFFER_MISS:     953403
 DBUS_CONGESTED:        527
 WQ ROW_BUFFER_HIT:     210029  ROW_BUFFER_MISS:     799242  FULL:          0

 AVG_CONGESTED_CYCLE: 3
 All warmup complete: 2
Channel 0 Bank busy for read cycles: 0
Channel 0 Bank busy for write cycles: 0
Channel 0
Rank 0
0banks busy for read cycles: 222276245
0banks busy for write cycles: 49046
1banks busy for read cycles: 18673705
1banks busy for write cycles: 7312182
2banks busy for read cycles: 5597179
2banks busy for write cycles: 3196975
3banks busy for read cycles: 1525787
3banks busy for write cycles: 1877635
4banks busy for read cycles: 1529962
4banks busy for write cycles: 1223806
5banks busy for read cycles: 948806
5banks busy for write cycles: 907436
6banks busy for read cycles: 1611456
6banks busy for write cycles: 814991
7banks busy for read cycles: 2108264
7banks busy for write cycles: 1634998
8banks busy for read cycles: 13558886
8banks busy for write cycles: 16849204

CPU 0 Branch Prediction Accuracy: 99.6381% MPKI: 0.27243 Average ROB Occupancy at Mispredict: 48.269
Branch types
NOT_BRANCH: 184943706 92.4719%
BRANCH_DIRECT_JUMP: 1417012 0.708506%
BRANCH_INDIRECT: 4725378 2.36269%
BRANCH_CONDITIONAL: 6753214 3.37661%
BRANCH_DIRECT_CALL: 958453 0.479226%
BRANCH_INDIRECT_CALL: 121813 0.0609065%
BRANCH_RETURN: 1080243 0.540121%
BRANCH_OTHER: 0 0%

DRAM PAGES: 1048576
Allocated PAGES: 6461
