
*** ChampSim Multicore Out-of-Order Simulator ***

Warmup Instructions: 50000000
Simulation Instructions: 200000000
Number of CPUs: 1
LLC sets: 2048
LLC ways: 16
Off-chip DRAM Size: 4096 MB Channels: 1 Width: 64-bit Data Rate: 6400 MT/s
CPU 0 runs traces/spec2k17/client_008.champsimtrace.xz
.xz
BTB has LRU replacement policy
ITLB has LRU replacement policy
DTLB has LRU replacement policy
STLB has LRU replacement policy
L1I has LRU replacement policy
IP Table Entries: 1024
CSPT Entries: 128
RR_ENTRIES: 32
RST_ENTRIES: 8
L1D has LRU replacement policy
Initialize SRRIP state for L2C
Initialize DRRIP state for LLC
Heartbeat CPU 0 instructions: 10000000 cycles: 2914048 heartbeat IPC: 3.43165 cumulative IPC: 3.43165 (Simulation time: 0 hr 1 min 3 sec) 
Heartbeat CPU 0 instructions: 20000001 cycles: 5848618 heartbeat IPC: 3.40765 cumulative IPC: 3.41961 (Simulation time: 0 hr 2 min 3 sec) 
Heartbeat CPU 0 instructions: 30000001 cycles: 8758105 heartbeat IPC: 3.43703 cumulative IPC: 3.4254 (Simulation time: 0 hr 3 min 5 sec) 
Heartbeat CPU 0 instructions: 40000003 cycles: 11694572 heartbeat IPC: 3.40545 cumulative IPC: 3.42039 (Simulation time: 0 hr 4 min 2 sec) 
Heartbeat CPU 0 instructions: 50000002 cycles: 14627199 heartbeat IPC: 3.40991 cumulative IPC: 3.41829 (Simulation time: 0 hr 5 min 3 sec) 

Warmup complete CPU 0 instructions: 50000002 cycles: 14627199 (Simulation time: 0 hr 5 min 3 sec) 

Heartbeat CPU 0 instructions: 60000000 cycles: 35388632 heartbeat IPC: 0.481662 cumulative IPC: 0.481662 (Simulation time: 0 hr 5 min 56 sec) 
Heartbeat CPU 0 instructions: 70000000 cycles: 56091912 heartbeat IPC: 0.483015 cumulative IPC: 0.482338 (Simulation time: 0 hr 6 min 50 sec) 
Heartbeat CPU 0 instructions: 80000000 cycles: 77095216 heartbeat IPC: 0.476116 cumulative IPC: 0.480246 (Simulation time: 0 hr 7 min 41 sec) 
Heartbeat CPU 0 instructions: 90000003 cycles: 106022989 heartbeat IPC: 0.345689 cumulative IPC: 0.437657 (Simulation time: 0 hr 8 min 38 sec) 
Heartbeat CPU 0 instructions: 100000001 cycles: 121818051 heartbeat IPC: 0.633109 cumulative IPC: 0.466458 (Simulation time: 0 hr 9 min 28 sec) 
*** Reached end of trace for Core: 0 Repeating trace: traces/spec2k17/client_008.champsimtrace.xz
Heartbeat CPU 0 instructions: 110000000 cycles: 143006296 heartbeat IPC: 0.47196 cumulative IPC: 0.467366 (Simulation time: 0 hr 10 min 20 sec) 
Heartbeat CPU 0 instructions: 120000001 cycles: 164965333 heartbeat IPC: 0.455393 cumulative IPC: 0.465617 (Simulation time: 0 hr 11 min 8 sec) 
Heartbeat CPU 0 instructions: 130000000 cycles: 188082325 heartbeat IPC: 0.432582 cumulative IPC: 0.461214 (Simulation time: 0 hr 11 min 59 sec) 
Heartbeat CPU 0 instructions: 140000002 cycles: 210056853 heartbeat IPC: 0.455072 cumulative IPC: 0.460524 (Simulation time: 0 hr 12 min 50 sec) 
Heartbeat CPU 0 instructions: 150000001 cycles: 233016351 heartbeat IPC: 0.43555 cumulative IPC: 0.457898 (Simulation time: 0 hr 13 min 45 sec) 
Heartbeat CPU 0 instructions: 160000000 cycles: 254527780 heartbeat IPC: 0.464869 cumulative IPC: 0.458523 (Simulation time: 0 hr 14 min 36 sec) 
Heartbeat CPU 0 instructions: 170000000 cycles: 275041276 heartbeat IPC: 0.487484 cumulative IPC: 0.460805 (Simulation time: 0 hr 15 min 31 sec) 
Heartbeat CPU 0 instructions: 180000000 cycles: 294104761 heartbeat IPC: 0.524563 cumulative IPC: 0.465154 (Simulation time: 0 hr 16 min 28 sec) 
Heartbeat CPU 0 instructions: 190000001 cycles: 323837298 heartbeat IPC: 0.336332 cumulative IPC: 0.452767 (Simulation time: 0 hr 17 min 23 sec) 
Heartbeat CPU 0 instructions: 200000000 cycles: 342482957 heartbeat IPC: 0.536318 cumulative IPC: 0.457518 (Simulation time: 0 hr 18 min 14 sec) 
*** Reached end of trace for Core: 0 Repeating trace: traces/spec2k17/client_008.champsimtrace.xz
Heartbeat CPU 0 instructions: 210000001 cycles: 360534217 heartbeat IPC: 0.553978 cumulative IPC: 0.462552 (Simulation time: 0 hr 19 min 11 sec) 
Heartbeat CPU 0 instructions: 220000000 cycles: 383045703 heartbeat IPC: 0.444218 cumulative IPC: 0.461432 (Simulation time: 0 hr 20 min 4 sec) 
Heartbeat CPU 0 instructions: 230000003 cycles: 405563811 heartbeat IPC: 0.444087 cumulative IPC: 0.460433 (Simulation time: 0 hr 20 min 57 sec) 
Heartbeat CPU 0 instructions: 240000002 cycles: 427862570 heartbeat IPC: 0.448455 cumulative IPC: 0.459786 (Simulation time: 0 hr 21 min 49 sec) 
Heartbeat CPU 0 instructions: 250000002 cycles: 450552577 heartbeat IPC: 0.440723 cumulative IPC: 0.458794 (Simulation time: 0 hr 22 min 49 sec) 
Finished CPU 0 instructions: 200000000 cycles: 435925378 cumulative IPC: 0.458794 (Simulation time: 0 hr 22 min 49 sec) 

ChampSim completed all CPUs

Region of Interest Statistics

CPU 0 cumulative IPC: 0.458794 instructions: 200000000 cycles: 435925378
ITLB TOTAL     ACCESS:   33954311  HIT:   32955029  MISS:     999282  HIT %:     97.057  MISS %:    2.94302   MPKI: 4.99641
ITLB LOAD TRANSLATION ACCESS:   33954311  HIT:   32955029  MISS:     999282  HIT %:     97.057  MISS %:    2.94302   MPKI: 4.99641
ITLB PREFETCH  REQUESTED:          0  ISSUED:          0  USEFUL:          0  USELESS:          0
ITLB USEFUL LOAD PREFETCHES:          0 PREFETCH ISSUED TO LOWER LEVEL:          0  ACCURACY: -nan
ITLB TIMELY PREFETCHES:          0 LATE PREFETCHES: 0 DROPPED PREFETCHES: 0
ITLB PREFETCHES SAME FILL-ORIGIN LEVEL: 0 DIFFERENT FILL-ORIGIN LEVEL: 0
ITLB AVERAGE MISS LATENCY: 9.5141 cycles
ITLB RQ	ACCESS:   38138182	FORWARD:          0	MERGED:    3935006	TO_CACHE:   34203176

DTLB TOTAL     ACCESS:   44579327  HIT:   41533131  MISS:    3046196  HIT %:    93.1668  MISS %:     6.8332   MPKI: 15.231
DTLB LOAD TRANSLATION ACCESS:   44579327  HIT:   41533131  MISS:    3046196  HIT %:    93.1668  MISS %:     6.8332   MPKI: 15.231
DTLB PREFETCH  REQUESTED:          0  ISSUED:          0  USEFUL:          0  USELESS:          0
DTLB USEFUL LOAD PREFETCHES:          0 PREFETCH ISSUED TO LOWER LEVEL:          0  ACCURACY: -nan
DTLB TIMELY PREFETCHES:          0 LATE PREFETCHES: 0 DROPPED PREFETCHES: 0
DTLB PREFETCHES SAME FILL-ORIGIN LEVEL: 0 DIFFERENT FILL-ORIGIN LEVEL: 0
DTLB AVERAGE MISS LATENCY: 9.493 cycles
DTLB RQ	ACCESS:   54752730	FORWARD:          0	MERGED:   10084166	TO_CACHE:   44668564

STLB TOTAL     ACCESS:    8118920  HIT:    8087821  MISS:      31099  HIT %:     99.617  MISS %:   0.383044   MPKI: 0.155495
STLB LOAD TRANSLATION ACCESS:    4045478  HIT:    4014379  MISS:      31099  HIT %:    99.2313  MISS %:   0.768735   MPKI: 0.155495
STLB TRANSLATION FROM L1D PREFETCHER ACCESS:    4073442  HIT:    4073442  MISS:          0  HIT %:        100  MISS %:          0   MPKI: 0
STLB PREFETCH  REQUESTED:          0  ISSUED:          0  USEFUL:          0  USELESS:          0
STLB USEFUL LOAD PREFETCHES:          0 PREFETCH ISSUED TO LOWER LEVEL:          0  ACCURACY: -nan
STLB TIMELY PREFETCHES:          0 LATE PREFETCHES: 0 DROPPED PREFETCHES: 0
STLB PREFETCHES SAME FILL-ORIGIN LEVEL: 0 DIFFERENT FILL-ORIGIN LEVEL: 0
STLB AVERAGE MISS LATENCY: 62.0818 cycles
STLB RQ	ACCESS:    9329582	FORWARD:          0	MERGED:    1210662	TO_CACHE:    8118920

STLB Hit, L1D data hit: 0
STLB Hit, L2C data hit: 0
STLB Hit, LLC data hit: 0
STLB Hit, LLC data miss: 0
STLB STLB hints to L2: 0
L1D TOTAL     ACCESS:   58721932  HIT:   53069719  MISS:    5652213  HIT %:    90.3746  MISS %:    9.62539   MPKI: 28.2611
L1D LOAD      ACCESS:   37886936  HIT:   34223869  MISS:    3663067  HIT %:    90.3316  MISS %:    9.66842   MPKI: 18.3153
L1D RFO       ACCESS:   15776741  HIT:   15468277  MISS:     308464  HIT %:    98.0448  MISS %:    1.95518   MPKI: 1.54232
L1D PREFETCH  ACCESS:    5058255  HIT:    3377573  MISS:    1680682  HIT %:    66.7735  MISS %:    33.2265   MPKI: 8.40341
AGUS PREFETCH L1 MISS: 0
L1D PREFETCH  REQUESTED:   10569517  ISSUED:   10569510  USEFUL:     380713  USELESS:    1299991
L1D USEFUL LOAD PREFETCHES:     380713 PREFETCH ISSUED TO LOWER LEVEL:    1716111  ACCURACY: 22.1846
L1D TIMELY PREFETCHES:     380713 LATE PREFETCHES: 31813 DROPPED PREFETCHES: 0
L1D PREFETCHES SAME FILL-ORIGIN LEVEL: 1716111 DIFFERENT FILL-ORIGIN LEVEL: 0
L1D AVERAGE MISS LATENCY: 1.34102e+06 cycles
L1D RQ	ACCESS:   56733100	FORWARD:          0	MERGED:   18378253	TO_CACHE:   38100020
L1D WQ	ACCESS:   17136260	FORWARD:     256129	MERGED:     483550	TO_CACHE:   16652710
L1D PQ	ACCESS:    5285406	FORWARD:          0	MERGED:          0	TO_CACHE:    5284104

L1D UNIQUE REGIONS ACCESSED: 0
L1D REGIONS CONFLICTS: 0
L1D Cross Page Prefetch Requests: 0
L1D Same Page Prefetch Requests: 6243119
L1D ROI Sum of L1D PQ occupancy: 68261117
L1D PREFETCHES PUSHED FROM L2C: 0
L1I TOTAL     ACCESS:   37104161  HIT:   32806288  MISS:    4297873  HIT %:    88.4167  MISS %:    11.5833   MPKI: 21.4894
L1I LOAD      ACCESS:   37104161  HIT:   32806288  MISS:    4297873  HIT %:    88.4167  MISS %:    11.5833   MPKI: 21.4894
L1I PREFETCH  REQUESTED:          0  ISSUED:          0  USEFUL:          0  USELESS:          0
L1I USEFUL LOAD PREFETCHES:          0 PREFETCH ISSUED TO LOWER LEVEL:          0  ACCURACY: -nan
L1I TIMELY PREFETCHES:          0 LATE PREFETCHES: 0 DROPPED PREFETCHES: 0
L1I PREFETCHES SAME FILL-ORIGIN LEVEL: 0 DIFFERENT FILL-ORIGIN LEVEL: 0
L1I AVERAGE MISS LATENCY: 18.1685 cycles
L1I RQ	ACCESS:   62287690	FORWARD:          0	MERGED:   24149508	TO_CACHE:   38138182

BTB TOTAL     ACCESS:   36528429  HIT:   31583049  MISS:    4945380  HIT %:    86.4616  MISS %:    13.5384   MPKI: 24.7269
BTB BRANCH_DIRECT_JUMP	ACCESS:    2061309  HIT:    1966278  MISS:      95031
BTB BRANCH_INDIRECT	ACCESS:   13234606  HIT:   11716494  MISS:    1518112
BTB BRANCH_CONDITIONAL	ACCESS:   12402841  HIT:   12111408  MISS:     291433
BTB BRANCH_DIRECT_CALL	ACCESS:    1759418  HIT:    1715408  MISS:      44010
BTB BRANCH_INDIRECT_CALL	ACCESS:    2655183  HIT:    2016702  MISS:     638481
BTB BRANCH_RETURN	ACCESS:    4415072  HIT:    2056759  MISS:    2358313
BTB BRANCH_OTHER ACCESS:          0  HIT:          0  MISS:          0

L2C TOTAL     ACCESS:   10514107  HIT:    8928253  MISS:    1585854  HIT %:    84.9169  MISS %:    15.0831   MPKI: 7.92927
L2C LOAD      ACCESS:    7929113  HIT:    7145494  MISS:     783619  HIT %:    90.1172  MISS %:    9.88281   MPKI: 3.9181
L2C DATA LOAD MPKI: 2.37701
L2C INSTRUCTION LOAD MPKI: 1.54109
L2C RFO       ACCESS:     304800  HIT:      92800  MISS:     212000  HIT %:    30.4462  MISS %:    69.5538   MPKI: 1.06
L2C PREFETCH  ACCESS:    1716104  HIT:    1146882  MISS:     569222  HIT %:    66.8306  MISS %:    33.1694   MPKI: 2.84611
AGUS PREFETCH L1 MISS: 0
L2C DATA PREFETCH MPKI: 2.84611
L2C INSTRUCTION PREFETCH MPKI: 0
L2C WRITEBACK ACCESS:     531399  HIT:     523641  MISS:       7758  HIT %:    98.5401  MISS %:    1.45992   MPKI: 0.03879
L2C LOAD TRANSLATION ACCESS:      32691  HIT:      19436  MISS:      13255  HIT %:    59.4537  MISS %:    40.5463   MPKI: 0.066275
L2C PREFETCH  REQUESTED:          0  ISSUED:          0  USEFUL:      38262  USELESS:     530871
L2C USEFUL LOAD PREFETCHES:      38262 PREFETCH ISSUED TO LOWER LEVEL:     569222  ACCURACY: 6.72181
L2C TIMELY PREFETCHES:      38262 LATE PREFETCHES: 0 DROPPED PREFETCHES: 0
L2C PREFETCHES SAME FILL-ORIGIN LEVEL: 0 DIFFERENT FILL-ORIGIN LEVEL: 0
L2C AVERAGE MISS LATENCY: 80.5744 cycles
L2C RQ	ACCESS:    8266667	FORWARD:          0	MERGED:          0	TO_CACHE:    8266605
L2C WQ	ACCESS:     531399	FORWARD:         69	MERGED:          0	TO_CACHE:     531399
L2C PQ	ACCESS:    1716111	FORWARD:          0	MERGED:          0	TO_CACHE:    1716104

L2C Instructions Evicting Data 204367
L2C Translations Evicting Data 9196
L2C Data Evicting Data 1044830
L2C Instructions Evicting Instructions 99904
L2C Translations Evicting Instructions 3843
L2C Data Evicting Instructions 202763
L2C Instructions Evicting Translations 3947
L2C Translations Evicting Translations 216
L2C Data Evicting Translations 9030
L2C Dense regions hint from L2: 0
PSCL5 TOTAL     ACCESS:      31099  HIT:      31099  MISS:          0  HIT %:        100  MISS %:          0   MPKI: 0
PSCL5 LOAD TRANSLATION ACCESS:      31099  HIT:      31099  MISS:          0  HIT %:        100  MISS %:          0   MPKI: 0
PSCL5 PREFETCH  REQUESTED:          0  ISSUED:          0  USEFUL:          0  USELESS:          0
PSCL5 USEFUL LOAD PREFETCHES:          0 PREFETCH ISSUED TO LOWER LEVEL:          0  ACCURACY: -nan
PSCL5 TIMELY PREFETCHES:          0 LATE PREFETCHES: 0 DROPPED PREFETCHES: 0
PSCL5 PREFETCHES SAME FILL-ORIGIN LEVEL: 0 DIFFERENT FILL-ORIGIN LEVEL: 0

PSCL4 TOTAL     ACCESS:      31099  HIT:      31099  MISS:          0  HIT %:        100  MISS %:          0   MPKI: 0
PSCL4 LOAD TRANSLATION ACCESS:      31099  HIT:      31099  MISS:          0  HIT %:        100  MISS %:          0   MPKI: 0
PSCL4 PREFETCH  REQUESTED:          0  ISSUED:          0  USEFUL:          0  USELESS:          0
PSCL4 USEFUL LOAD PREFETCHES:          0 PREFETCH ISSUED TO LOWER LEVEL:          0  ACCURACY: -nan
PSCL4 TIMELY PREFETCHES:          0 LATE PREFETCHES: 0 DROPPED PREFETCHES: 0
PSCL4 PREFETCHES SAME FILL-ORIGIN LEVEL: 0 DIFFERENT FILL-ORIGIN LEVEL: 0

PSCL3 TOTAL     ACCESS:      31003  HIT:      30963  MISS:         40  HIT %:     99.871  MISS %:    0.12902   MPKI: 0.0002
PSCL3 LOAD TRANSLATION ACCESS:      31003  HIT:      30963  MISS:         40  HIT %:     99.871  MISS %:    0.12902   MPKI: 0.0002
PSCL3 PREFETCH  REQUESTED:          0  ISSUED:          0  USEFUL:          0  USELESS:          0
PSCL3 USEFUL LOAD PREFETCHES:          0 PREFETCH ISSUED TO LOWER LEVEL:          0  ACCURACY: -nan
PSCL3 TIMELY PREFETCHES:          0 LATE PREFETCHES: 0 DROPPED PREFETCHES: 0
PSCL3 PREFETCHES SAME FILL-ORIGIN LEVEL: 0 DIFFERENT FILL-ORIGIN LEVEL: 0

PSCL2 TOTAL     ACCESS:      31099  HIT:      29540  MISS:       1559  HIT %:     94.987  MISS %:    5.01302   MPKI: 0.007795
PSCL2 LOAD TRANSLATION ACCESS:      31099  HIT:      29540  MISS:       1559  HIT %:     94.987  MISS %:    5.01302   MPKI: 0.007795
PSCL2 PREFETCH  REQUESTED:          0  ISSUED:          0  USEFUL:          0  USELESS:          0
PSCL2 USEFUL LOAD PREFETCHES:          0 PREFETCH ISSUED TO LOWER LEVEL:          0  ACCURACY: -nan
PSCL2 TIMELY PREFETCHES:          0 LATE PREFETCHES: 0 DROPPED PREFETCHES: 0
PSCL2 PREFETCHES SAME FILL-ORIGIN LEVEL: 0 DIFFERENT FILL-ORIGIN LEVEL: 0

LLC TOTAL     ACCESS:    1911130  HIT:    1352108  MISS:     559022  HIT %:    70.7491  MISS %:    29.2509   MPKI: 2.79511
LLC LOAD      ACCESS:     783618  HIT:     644913  MISS:     138705  HIT %:    82.2994  MISS %:    17.7006   MPKI: 0.693525
LLC RFO       ACCESS:     212000  HIT:      15663  MISS:     196337  HIT %:    7.38821  MISS %:    92.6118   MPKI: 0.981685
LLC PREFETCH  ACCESS:     569222  HIT:     361297  MISS:     207925  HIT %:    63.4721  MISS %:    36.5279   MPKI: 1.03963
AGUS PREFETCH L1 MISS: 0
LLC WRITEBACK ACCESS:     333035  HIT:     320918  MISS:      12117  HIT %:    96.3616  MISS %:    3.63836   MPKI: 0.060585
LLC LOAD TRANSLATION ACCESS:      13255  HIT:       9317  MISS:       3938  HIT %:    70.2905  MISS %:    29.7095   MPKI: 0.01969
LLC PREFETCH  REQUESTED:          0  ISSUED:          0  USEFUL:      22841  USELESS:     184987
LLC USEFUL LOAD PREFETCHES:      22841 PREFETCH ISSUED TO LOWER LEVEL:     207925  ACCURACY: 10.9852
LLC TIMELY PREFETCHES:      22841 LATE PREFETCHES: 0 DROPPED PREFETCHES: 0
LLC PREFETCHES SAME FILL-ORIGIN LEVEL: 0 DIFFERENT FILL-ORIGIN LEVEL: 0
LLC AVERAGE MISS LATENCY: 143.811 cycles
LLC RQ	ACCESS:    1008874	FORWARD:          0	MERGED:          0	TO_CACHE:    1008873
LLC WQ	ACCESS:     333035	FORWARD:          1	MERGED:          0	TO_CACHE:     333035
LLC PQ	ACCESS:     569222	FORWARD:          0	MERGED:          0	TO_CACHE:     569222

LLC Dense regions hint to LLC: 0

RAW hits: 3360448
Loads Generated: 60093550
Loads sent to L1D: 56733100
Stores Generated: 17136254
Stores sent to L1D: 17136260
Major fault: 0 Minor fault: 5379
Allocated PAGES: 5379

stream: 
stream:times selected: 8240332
stream:pref_filled: 1400397
stream:pref_useful: 229332
stream:pref_late: 15990
stream:misses: 325500
stream:misses_by_poll: 0

CS: 
CS:times selected: 638922
CS:pref_filled: 206570
CS:pref_useful: 146523
CS:pref_late: 10897
CS:misses: 48564
CS:misses_by_poll: 486

CPLX: 
CPLX:times selected: 7499393
CPLX:pref_filled: 421123
CPLX:pref_useful: 58154
CPLX:pref_late: 2269
CPLX:misses: 957648
CPLX:misses_by_poll: 649

NL_L1: 
NL:times selected: 51913
NL:pref_filled: 13335
NL:pref_useful: 5376
NL:pref_late: 133
NL:misses: 8363
NL:misses_by_poll: 0

total selections: 16430560
total_filled: 1680682
total_useful: 380713
total_late: 33753
total_polluted: 1135
total_misses_after_warmup: 3876152
conflicts: 8586395
Degree Incremented Times: 0
Degree Decremented Times: 436788

L1 IP Table Write Accesses: 27789054
L1 IP Table Read Accesses: 19202659
L1 RST Write Accesses: 6959445
L1 RST Read Accesses: 13918890
L1 CSPT Write Accesses: 6959445
L1 CSPT Read Accesses: 13239548
L1 RR Filter Tag Write Accesses: 5285413
L1 RR Filter Tag Read Accesses: 273493184
L1 IP Table Tag Write Accesses: 38100021
L1 IP Table Tag Read Accesses: 38100021
L1 RST Tag Write Accesses: 0
L1 RST Tag Read Accesses: 63517841
L1 RR Filter Write Accesses: 0
L1 RR Filter Read Accesses: 9848355
test: 4053428

DRAM Statistics
 CHANNEL 0
 RQ ROW_BUFFER_HIT:     152649  ROW_BUFFER_MISS:     394243
 DBUS_CONGESTED:        501
 WQ ROW_BUFFER_HIT:      49173  ROW_BUFFER_MISS:     222877  FULL:          0

 AVG_CONGESTED_CYCLE: 4
 All warmup complete: 2
Channel 0 Bank busy for read cycles: 0
Channel 0 Bank busy for write cycles: 0
Channel 0
Rank 0
0banks busy for read cycles: 359248428
0banks busy for write cycles: 127535
1banks busy for read cycles: 36900677
1banks busy for write cycles: 17643941
2banks busy for read cycles: 8467851
2banks busy for write cycles: 5283921
3banks busy for read cycles: 2171282
3banks busy for write cycles: 2078412
4banks busy for read cycles: 599737
4banks busy for write cycles: 944636
5banks busy for read cycles: 215598
5banks busy for write cycles: 513475
6banks busy for read cycles: 124835
6banks busy for write cycles: 319578
7banks busy for read cycles: 107332
7banks busy for write cycles: 297614
8banks busy for read cycles: 184041
8banks busy for write cycles: 696486

CPU 0 Branch Prediction Accuracy: 99.1917% MPKI: 1.85351 Average ROB Occupancy at Mispredict: 20.2725
Branch types
NOT_BRANCH: 154137311 77.0687%
BRANCH_DIRECT_JUMP: 2061309 1.03065%
BRANCH_INDIRECT: 13234606 6.6173%
BRANCH_CONDITIONAL: 21736759 10.8684%
BRANCH_DIRECT_CALL: 1759418 0.879709%
BRANCH_INDIRECT_CALL: 2655183 1.32759%
BRANCH_RETURN: 4415072 2.20754%
BRANCH_OTHER: 0 0%

DRAM PAGES: 1048576
Allocated PAGES: 5379
