
*** ChampSim Multicore Out-of-Order Simulator ***

Warmup Instructions: 50000000
Simulation Instructions: 200000000
Number of CPUs: 1
LLC sets: 2048
LLC ways: 16
Off-chip DRAM Size: 4096 MB Channels: 1 Width: 64-bit Data Rate: 6400 MT/s
CPU 0 runs traces/spec2k17/server_003.champsimtrace.xz
.xz
BTB has LRU replacement policy
ITLB has LRU replacement policy
DTLB has LRU replacement policy
STLB has LRU replacement policy
L1I has LRU replacement policy
IP Table Entries: 1024
CSPT Entries: 128
RR_ENTRIES: 32
RST_ENTRIES: 8
L1D has LRU replacement policy
Initialize SRRIP state for L2C
Initialize DRRIP state for LLC
Heartbeat CPU 0 instructions: 10000001 cycles: 2787869 heartbeat IPC: 3.58697 cumulative IPC: 3.58697 (Simulation time: 0 hr 0 min 49 sec) 
Heartbeat CPU 0 instructions: 20000000 cycles: 5602643 heartbeat IPC: 3.55268 cumulative IPC: 3.56974 (Simulation time: 0 hr 1 min 44 sec) 
Heartbeat CPU 0 instructions: 30000000 cycles: 8382808 heartbeat IPC: 3.59691 cumulative IPC: 3.57875 (Simulation time: 0 hr 2 min 32 sec) 
Heartbeat CPU 0 instructions: 40000001 cycles: 11195840 heartbeat IPC: 3.55488 cumulative IPC: 3.57276 (Simulation time: 0 hr 3 min 23 sec) 
Heartbeat CPU 0 instructions: 50000002 cycles: 14141292 heartbeat IPC: 3.39507 cumulative IPC: 3.53574 (Simulation time: 0 hr 4 min 30 sec) 

Warmup complete CPU 0 instructions: 50000002 cycles: 14141292 (Simulation time: 0 hr 4 min 30 sec) 

Heartbeat CPU 0 instructions: 60000000 cycles: 44506610 heartbeat IPC: 0.329323 cumulative IPC: 0.329323 (Simulation time: 0 hr 5 min 27 sec) 
Heartbeat CPU 0 instructions: 70000001 cycles: 70387372 heartbeat IPC: 0.386387 cumulative IPC: 0.35558 (Simulation time: 0 hr 6 min 18 sec) 
Heartbeat CPU 0 instructions: 80000003 cycles: 98629575 heartbeat IPC: 0.35408 cumulative IPC: 0.355079 (Simulation time: 0 hr 7 min 13 sec) 
Heartbeat CPU 0 instructions: 90000000 cycles: 125848614 heartbeat IPC: 0.36739 cumulative IPC: 0.358079 (Simulation time: 0 hr 8 min 12 sec) 
Heartbeat CPU 0 instructions: 100000000 cycles: 153331672 heartbeat IPC: 0.363861 cumulative IPC: 0.35922 (Simulation time: 0 hr 9 min 1 sec) 
*** Reached end of trace for Core: 0 Repeating trace: traces/spec2k17/server_003.champsimtrace.xz
Heartbeat CPU 0 instructions: 110000000 cycles: 178728608 heartbeat IPC: 0.393748 cumulative IPC: 0.364548 (Simulation time: 0 hr 9 min 51 sec) 
Heartbeat CPU 0 instructions: 120000002 cycles: 208072287 heartbeat IPC: 0.340789 cumulative IPC: 0.360953 (Simulation time: 0 hr 10 min 54 sec) 
Heartbeat CPU 0 instructions: 130000001 cycles: 232674169 heartbeat IPC: 0.406473 cumulative IPC: 0.366078 (Simulation time: 0 hr 11 min 43 sec) 
Heartbeat CPU 0 instructions: 140000000 cycles: 259192476 heartbeat IPC: 0.377098 cumulative IPC: 0.36727 (Simulation time: 0 hr 12 min 35 sec) 
Heartbeat CPU 0 instructions: 150000002 cycles: 286213398 heartbeat IPC: 0.370084 cumulative IPC: 0.36755 (Simulation time: 0 hr 13 min 31 sec) 
Heartbeat CPU 0 instructions: 160000001 cycles: 316258557 heartbeat IPC: 0.332832 cumulative IPC: 0.364097 (Simulation time: 0 hr 14 min 33 sec) 
Heartbeat CPU 0 instructions: 170000001 cycles: 341794157 heartbeat IPC: 0.39161 cumulative IPC: 0.366241 (Simulation time: 0 hr 15 min 26 sec) 
Heartbeat CPU 0 instructions: 180000000 cycles: 370502121 heartbeat IPC: 0.348335 cumulative IPC: 0.364799 (Simulation time: 0 hr 16 min 19 sec) 
Heartbeat CPU 0 instructions: 190000002 cycles: 397532354 heartbeat IPC: 0.369956 cumulative IPC: 0.365162 (Simulation time: 0 hr 17 min 22 sec) 
Heartbeat CPU 0 instructions: 200000003 cycles: 424900076 heartbeat IPC: 0.365394 cumulative IPC: 0.365178 (Simulation time: 0 hr 18 min 17 sec) 
*** Reached end of trace for Core: 0 Repeating trace: traces/spec2k17/server_003.champsimtrace.xz
Heartbeat CPU 0 instructions: 210000003 cycles: 450717524 heartbeat IPC: 0.387335 cumulative IPC: 0.366488 (Simulation time: 0 hr 19 min 11 sec) 
Heartbeat CPU 0 instructions: 220000000 cycles: 477764789 heartbeat IPC: 0.369723 cumulative IPC: 0.366677 (Simulation time: 0 hr 20 min 7 sec) 
Heartbeat CPU 0 instructions: 230000001 cycles: 504623559 heartbeat IPC: 0.372318 cumulative IPC: 0.366986 (Simulation time: 0 hr 21 min 4 sec) 
Heartbeat CPU 0 instructions: 240000002 cycles: 529096652 heartbeat IPC: 0.408612 cumulative IPC: 0.368964 (Simulation time: 0 hr 21 min 58 sec) 
Heartbeat CPU 0 instructions: 250000000 cycles: 557975221 heartbeat IPC: 0.346277 cumulative IPC: 0.367759 (Simulation time: 0 hr 22 min 54 sec) 
Finished CPU 0 instructions: 200000002 cycles: 543833930 cumulative IPC: 0.367759 (Simulation time: 0 hr 22 min 54 sec) 

ChampSim completed all CPUs

Region of Interest Statistics

CPU 0 cumulative IPC: 0.367759 instructions: 200000002 cycles: 543833930
ITLB TOTAL     ACCESS:   33480592  HIT:   32855619  MISS:     624973  HIT %:    98.1333  MISS %:    1.86667   MPKI: 3.12486
ITLB LOAD TRANSLATION ACCESS:   33480592  HIT:   32855619  MISS:     624973  HIT %:    98.1333  MISS %:    1.86667   MPKI: 3.12486
ITLB PREFETCH  REQUESTED:          0  ISSUED:          0  USEFUL:          0  USELESS:          0
ITLB USEFUL LOAD PREFETCHES:          0 PREFETCH ISSUED TO LOWER LEVEL:          0  ACCURACY: -nan
ITLB TIMELY PREFETCHES:          0 LATE PREFETCHES: 0 DROPPED PREFETCHES: 0
ITLB PREFETCHES SAME FILL-ORIGIN LEVEL: 0 DIFFERENT FILL-ORIGIN LEVEL: 0
ITLB AVERAGE MISS LATENCY: 15.9332 cycles
ITLB RQ	ACCESS:   39699892	FORWARD:          0	MERGED:    6066761	TO_CACHE:   33633131

DTLB TOTAL     ACCESS:   41873890  HIT:   40008970  MISS:    1864920  HIT %:    95.5463  MISS %:    4.45366   MPKI: 9.3246
DTLB LOAD TRANSLATION ACCESS:   41873890  HIT:   40008970  MISS:    1864920  HIT %:    95.5463  MISS %:    4.45366   MPKI: 9.3246
DTLB PREFETCH  REQUESTED:          0  ISSUED:          0  USEFUL:          0  USELESS:          0
DTLB USEFUL LOAD PREFETCHES:          0 PREFETCH ISSUED TO LOWER LEVEL:          0  ACCURACY: -nan
DTLB TIMELY PREFETCHES:          0 LATE PREFETCHES: 0 DROPPED PREFETCHES: 0
DTLB PREFETCHES SAME FILL-ORIGIN LEVEL: 0 DIFFERENT FILL-ORIGIN LEVEL: 0
DTLB AVERAGE MISS LATENCY: 14.9474 cycles
DTLB RQ	ACCESS:   52615661	FORWARD:          0	MERGED:   10634583	TO_CACHE:   41981078

STLB TOTAL     ACCESS:    5259899  HIT:    4930677  MISS:     329222  HIT %:    93.7409  MISS %:    6.25909   MPKI: 1.64611
STLB LOAD TRANSLATION ACCESS:    2489893  HIT:    2160671  MISS:     329222  HIT %:    86.7777  MISS %:    13.2223   MPKI: 1.64611
STLB TRANSLATION FROM L1D PREFETCHER ACCESS:    2770006  HIT:    2770006  MISS:          0  HIT %:        100  MISS %:          0   MPKI: 0
STLB PREFETCH  REQUESTED:          0  ISSUED:          0  USEFUL:          0  USELESS:          0
STLB USEFUL LOAD PREFETCHES:          0 PREFETCH ISSUED TO LOWER LEVEL:          0  ACCURACY: -nan
STLB TIMELY PREFETCHES:          0 LATE PREFETCHES: 0 DROPPED PREFETCHES: 0
STLB PREFETCHES SAME FILL-ORIGIN LEVEL: 0 DIFFERENT FILL-ORIGIN LEVEL: 0
STLB AVERAGE MISS LATENCY: 46.7001 cycles
STLB RQ	ACCESS:    5865545	FORWARD:          0	MERGED:     605646	TO_CACHE:    5259899

STLB Hit, L1D data hit: 0
STLB Hit, L2C data hit: 0
STLB Hit, LLC data hit: 0
STLB Hit, LLC data miss: 0
STLB STLB hints to L2: 0
L1D TOTAL     ACCESS:   55134909  HIT:   51434594  MISS:    3700315  HIT %:    93.2886  MISS %:    6.71138   MPKI: 18.5016
L1D LOAD      ACCESS:   33286815  HIT:   31161889  MISS:    2124926  HIT %:    93.6163  MISS %:    6.38369   MPKI: 10.6246
L1D RFO       ACCESS:   18604507  HIT:   18150811  MISS:     453696  HIT %:    97.5614  MISS %:    2.43863   MPKI: 2.26848
L1D PREFETCH  ACCESS:    3243587  HIT:    2121894  MISS:    1121693  HIT %:    65.4181  MISS %:    34.5819   MPKI: 5.60846
AGUS PREFETCH L1 MISS: 0
L1D PREFETCH  REQUESTED:    6753095  ISSUED:    6752607  USEFUL:     346189  USELESS:     775486
L1D USEFUL LOAD PREFETCHES:     346189 PREFETCH ISSUED TO LOWER LEVEL:    1159451  ACCURACY: 29.858
L1D TIMELY PREFETCHES:     346189 LATE PREFETCHES: 34776 DROPPED PREFETCHES: 0
L1D PREFETCHES SAME FILL-ORIGIN LEVEL: 1159451 DIFFERENT FILL-ORIGIN LEVEL: 0
L1D AVERAGE MISS LATENCY: 2.96518e+06 cycles
L1D RQ	ACCESS:   48994515	FORWARD:          0	MERGED:   15342377	TO_CACHE:   33419890
L1D WQ	ACCESS:   19494845	FORWARD:     233551	MERGED:     299074	TO_CACHE:   19195771
L1D PQ	ACCESS:    3376955	FORWARD:          0	MERGED:          0	TO_CACHE:    3375652

L1D UNIQUE REGIONS ACCESSED: 0
L1D REGIONS CONFLICTS: 0
L1D Cross Page Prefetch Requests: 0
L1D Same Page Prefetch Requests: 4078504
L1D ROI Sum of L1D PQ occupancy: 43944825
L1D PREFETCHES PUSHED FROM L2C: 0
L1I TOTAL     ACCESS:   38639977  HIT:   34798650  MISS:    3841327  HIT %:    90.0587  MISS %:    9.94133   MPKI: 19.2066
L1I LOAD      ACCESS:   38639977  HIT:   34798650  MISS:    3841327  HIT %:    90.0587  MISS %:    9.94133   MPKI: 19.2066
L1I PREFETCH  REQUESTED:          0  ISSUED:          0  USEFUL:          0  USELESS:          0
L1I USEFUL LOAD PREFETCHES:          0 PREFETCH ISSUED TO LOWER LEVEL:          0  ACCURACY: -nan
L1I TIMELY PREFETCHES:          0 LATE PREFETCHES: 0 DROPPED PREFETCHES: 0
L1I PREFETCHES SAME FILL-ORIGIN LEVEL: 0 DIFFERENT FILL-ORIGIN LEVEL: 0
L1I AVERAGE MISS LATENCY: 33.0753 cycles
L1I RQ	ACCESS:   59616581	FORWARD:          0	MERGED:   19916689	TO_CACHE:   39699892

BTB TOTAL     ACCESS:   28423781  HIT:   23262113  MISS:    5161668  HIT %:    81.8403  MISS %:    18.1597   MPKI: 25.8083
BTB BRANCH_DIRECT_JUMP	ACCESS:    1949370  HIT:    1719105  MISS:     230265
BTB BRANCH_INDIRECT	ACCESS:   10330683  HIT:    8220220  MISS:    2110463
BTB BRANCH_CONDITIONAL	ACCESS:    8250333  HIT:    7882120  MISS:     368213
BTB BRANCH_DIRECT_CALL	ACCESS:    2536633  HIT:    2099013  MISS:     437620
BTB BRANCH_INDIRECT_CALL	ACCESS:    1403932  HIT:     934159  MISS:     469773
BTB BRANCH_RETURN	ACCESS:    3952830  HIT:    2407496  MISS:    1545334
BTB BRANCH_OTHER ACCESS:          0  HIT:          0  MISS:          0

L2C TOTAL     ACCESS:    8986963  HIT:    5421179  MISS:    3565784  HIT %:    60.3227  MISS %:    39.6773   MPKI: 17.8289
L2C LOAD      ACCESS:    5931415  HIT:    3390158  MISS:    2541257  HIT %:     57.156  MISS %:     42.844   MPKI: 12.7063
L2C DATA LOAD MPKI: 4.5206
L2C INSTRUCTION LOAD MPKI: 8.18568
L2C RFO       ACCESS:     450710  HIT:     181669  MISS:     269041  HIT %:    40.3073  MISS %:    59.6927   MPKI: 1.3452
L2C PREFETCH  ACCESS:    1159429  HIT:     600987  MISS:     558442  HIT %:    51.8347  MISS %:    48.1653   MPKI: 2.79221
AGUS PREFETCH L1 MISS: 0
L2C DATA PREFETCH MPKI: 2.79221
L2C INSTRUCTION PREFETCH MPKI: 0
L2C WRITEBACK ACCESS:    1034744  HIT:     997634  MISS:      37110  HIT %:    96.4136  MISS %:    3.58639   MPKI: 0.18555
L2C LOAD TRANSLATION ACCESS:     410665  HIT:     250731  MISS:     159934  HIT %:    61.0549  MISS %:    38.9451   MPKI: 0.79967
L2C PREFETCH  REQUESTED:          0  ISSUED:          0  USEFUL:      41965  USELESS:     516652
L2C USEFUL LOAD PREFETCHES:      41965 PREFETCH ISSUED TO LOWER LEVEL:     558442  ACCURACY: 7.51466
L2C TIMELY PREFETCHES:      41965 LATE PREFETCHES: 0 DROPPED PREFETCHES: 0
L2C PREFETCHES SAME FILL-ORIGIN LEVEL: 0 DIFFERENT FILL-ORIGIN LEVEL: 0
L2C AVERAGE MISS LATENCY: 62.2982 cycles
L2C RQ	ACCESS:    6792857	FORWARD:          0	MERGED:          0	TO_CACHE:    6792790
L2C WQ	ACCESS:    1034744	FORWARD:         88	MERGED:          0	TO_CACHE:    1034744
L2C PQ	ACCESS:    1159451	FORWARD:          0	MERGED:          0	TO_CACHE:    1159430

L2C Instructions Evicting Data 766664
L2C Translations Evicting Data 76461
L2C Data Evicting Data 906586
L2C Instructions Evicting Instructions 794624
L2C Translations Evicting Instructions 76411
L2C Data Evicting Instructions 749755
L2C Instructions Evicting Translations 75849
L2C Translations Evicting Translations 7062
L2C Data Evicting Translations 75262
L2C Dense regions hint from L2: 0
PSCL5 TOTAL     ACCESS:     329222  HIT:     329222  MISS:          0  HIT %:        100  MISS %:          0   MPKI: 0
PSCL5 LOAD TRANSLATION ACCESS:     329222  HIT:     329222  MISS:          0  HIT %:        100  MISS %:          0   MPKI: 0
PSCL5 PREFETCH  REQUESTED:          0  ISSUED:          0  USEFUL:          0  USELESS:          0
PSCL5 USEFUL LOAD PREFETCHES:          0 PREFETCH ISSUED TO LOWER LEVEL:          0  ACCURACY: -nan
PSCL5 TIMELY PREFETCHES:          0 LATE PREFETCHES: 0 DROPPED PREFETCHES: 0
PSCL5 PREFETCHES SAME FILL-ORIGIN LEVEL: 0 DIFFERENT FILL-ORIGIN LEVEL: 0

PSCL4 TOTAL     ACCESS:     318931  HIT:     318151  MISS:        780  HIT %:    99.7554  MISS %:   0.244567   MPKI: 0.0039
PSCL4 LOAD TRANSLATION ACCESS:     318931  HIT:     318151  MISS:        780  HIT %:    99.7554  MISS %:   0.244567   MPKI: 0.0039
PSCL4 PREFETCH  REQUESTED:          0  ISSUED:          0  USEFUL:          0  USELESS:          0
PSCL4 USEFUL LOAD PREFETCHES:          0 PREFETCH ISSUED TO LOWER LEVEL:          0  ACCURACY: -nan
PSCL4 TIMELY PREFETCHES:          0 LATE PREFETCHES: 0 DROPPED PREFETCHES: 0
PSCL4 PREFETCHES SAME FILL-ORIGIN LEVEL: 0 DIFFERENT FILL-ORIGIN LEVEL: 0

PSCL3 TOTAL     ACCESS:     327390  HIT:     325188  MISS:       2202  HIT %:    99.3274  MISS %:   0.672592   MPKI: 0.01101
PSCL3 LOAD TRANSLATION ACCESS:     327390  HIT:     325188  MISS:       2202  HIT %:    99.3274  MISS %:   0.672592   MPKI: 0.01101
PSCL3 PREFETCH  REQUESTED:          0  ISSUED:          0  USEFUL:          0  USELESS:          0
PSCL3 USEFUL LOAD PREFETCHES:          0 PREFETCH ISSUED TO LOWER LEVEL:          0  ACCURACY: -nan
PSCL3 TIMELY PREFETCHES:          0 LATE PREFETCHES: 0 DROPPED PREFETCHES: 0
PSCL3 PREFETCHES SAME FILL-ORIGIN LEVEL: 0 DIFFERENT FILL-ORIGIN LEVEL: 0

PSCL2 TOTAL     ACCESS:     329222  HIT:     250740  MISS:      78482  HIT %:    76.1614  MISS %:    23.8386   MPKI: 0.39241
PSCL2 LOAD TRANSLATION ACCESS:     329222  HIT:     250740  MISS:      78482  HIT %:    76.1614  MISS %:    23.8386   MPKI: 0.39241
PSCL2 PREFETCH  REQUESTED:          0  ISSUED:          0  USEFUL:          0  USELESS:          0
PSCL2 USEFUL LOAD PREFETCHES:          0 PREFETCH ISSUED TO LOWER LEVEL:          0  ACCURACY: -nan
PSCL2 TIMELY PREFETCHES:          0 LATE PREFETCHES: 0 DROPPED PREFETCHES: 0
PSCL2 PREFETCHES SAME FILL-ORIGIN LEVEL: 0 DIFFERENT FILL-ORIGIN LEVEL: 0

LLC TOTAL     ACCESS:    4064777  HIT:    3334998  MISS:     729779  HIT %:    82.0463  MISS %:    17.9537   MPKI: 3.64889
LLC LOAD      ACCESS:    2541256  HIT:    2186240  MISS:     355016  HIT %:    86.0299  MISS %:    13.9701   MPKI: 1.77508
LLC RFO       ACCESS:     269040  HIT:     106510  MISS:     162530  HIT %:    39.5889  MISS %:    60.4111   MPKI: 0.81265
LLC PREFETCH  ACCESS:     558438  HIT:     383756  MISS:     174682  HIT %:    68.7195  MISS %:    31.2805   MPKI: 0.87341
AGUS PREFETCH L1 MISS: 0
LLC WRITEBACK ACCESS:     536109  HIT:     514038  MISS:      22071  HIT %:    95.8831  MISS %:    4.11689   MPKI: 0.110355
LLC LOAD TRANSLATION ACCESS:     159934  HIT:     144454  MISS:      15480  HIT %:     90.321  MISS %:    9.67899   MPKI: 0.0774
LLC PREFETCH  REQUESTED:          0  ISSUED:          0  USEFUL:      19219  USELESS:     154243
LLC USEFUL LOAD PREFETCHES:      19219 PREFETCH ISSUED TO LOWER LEVEL:     174682  ACCURACY: 11.0023
LLC TIMELY PREFETCHES:      19219 LATE PREFETCHES: 0 DROPPED PREFETCHES: 0
LLC PREFETCHES SAME FILL-ORIGIN LEVEL: 0 DIFFERENT FILL-ORIGIN LEVEL: 0
LLC AVERAGE MISS LATENCY: 159.207 cycles
LLC RQ	ACCESS:    2970232	FORWARD:          0	MERGED:          0	TO_CACHE:    2970230
LLC WQ	ACCESS:     536109	FORWARD:          6	MERGED:          0	TO_CACHE:     536109
LLC PQ	ACCESS:     558442	FORWARD:          0	MERGED:          0	TO_CACHE:     558438

LLC Dense regions hint to LLC: 0

RAW hits: 2622462
Loads Generated: 51616976
Loads sent to L1D: 48994515
Stores Generated: 19494840
Stores sent to L1D: 19494845
Major fault: 0 Minor fault: 8068
Allocated PAGES: 8068

stream: 
stream:times selected: 7107182
stream:pref_filled: 947263
stream:pref_useful: 290071
stream:pref_late: 25062
stream:misses: 156094
stream:misses_by_poll: 0

CS: 
CS:times selected: 281895
CS:pref_filled: 125819
CS:pref_useful: 83714
CS:pref_late: 4866
CS:misses: 19690
CS:misses_by_poll: 198

CPLX: 
CPLX:times selected: 6766831
CPLX:pref_filled: 292012
CPLX:pref_useful: 53657
CPLX:pref_late: 3802
CPLX:misses: 659418
CPLX:misses_by_poll: 400

NL_L1: 
NL:times selected: 75505
NL:pref_filled: 12921
NL:pref_useful: 3721
NL:pref_late: 290
NL:misses: 10331
NL:misses_by_poll: 0

total selections: 14231413
total_filled: 1121693
total_useful: 346189
total_late: 37833
total_polluted: 598
total_misses_after_warmup: 2258002
conflicts: 5768915
Degree Incremented Times: 18185
Degree Decremented Times: 491670

L1 IP Table Write Accesses: 25666433
L1 IP Table Read Accesses: 19897518
L1 RST Write Accesses: 5933581
L1 RST Read Accesses: 11867162
L1 CSPT Write Accesses: 5933581
L1 CSPT Read Accesses: 11597593
L1 RR Filter Tag Write Accesses: 3377443
L1 RR Filter Tag Read Accesses: 198306672
L1 IP Table Tag Write Accesses: 33419891
L1 IP Table Tag Read Accesses: 33419891
L1 RST Tag Write Accesses: 0
L1 RST Tag Read Accesses: 55000252
L1 RR Filter Write Accesses: 0
L1 RR Filter Read Accesses: 7314653
test: 2850113

DRAM Statistics
 CHANNEL 0
 RQ ROW_BUFFER_HIT:     164875  ROW_BUFFER_MISS:     542826
 DBUS_CONGESTED:        324
 WQ ROW_BUFFER_HIT:      65662  ROW_BUFFER_MISS:     247965  FULL:          0

 AVG_CONGESTED_CYCLE: 4
 All warmup complete: 2
Channel 0 Bank busy for read cycles: 0
Channel 0 Bank busy for write cycles: 0
Channel 0
Rank 0
0banks busy for read cycles: 439290228
0banks busy for write cycles: 161388
1banks busy for read cycles: 55222233
1banks busy for write cycles: 24300831
2banks busy for read cycles: 9779346
2banks busy for write cycles: 6325902
3banks busy for read cycles: 1877543
3banks busy for write cycles: 2359712
4banks busy for read cycles: 565463
4banks busy for write cycles: 1047778
5banks busy for read cycles: 234095
5banks busy for write cycles: 549106
6banks busy for read cycles: 177662
6banks busy for write cycles: 322072
7banks busy for read cycles: 193086
7banks busy for write cycles: 255550
8banks busy for read cycles: 451592
8banks busy for write cycles: 720344

CPU 0 Branch Prediction Accuracy: 97.3038% MPKI: 5.17532 Average ROB Occupancy at Mispredict: 12.7653
Branch types
NOT_BRANCH: 161610434 80.8052%
BRANCH_DIRECT_JUMP: 1949370 0.974685%
BRANCH_INDIRECT: 10330683 5.16534%
BRANCH_CONDITIONAL: 18215849 9.10792%
BRANCH_DIRECT_CALL: 2536633 1.26832%
BRANCH_INDIRECT_CALL: 1403932 0.701966%
BRANCH_RETURN: 3952830 1.97641%
BRANCH_OTHER: 0 0%

DRAM PAGES: 1048576
Allocated PAGES: 8068
