
*** ChampSim Multicore Out-of-Order Simulator ***

Warmup Instructions: 50000000
Simulation Instructions: 200000000
Number of CPUs: 1
LLC sets: 2048
LLC ways: 16
Off-chip DRAM Size: 4096 MB Channels: 1 Width: 64-bit Data Rate: 6400 MT/s
CPU 0 runs traces/spec2k17/server_018.champsimtrace.xz
.xz
BTB has LRU replacement policy
ITLB has LRU replacement policy
DTLB has LRU replacement policy
STLB has LRU replacement policy
L1I has LRU replacement policy
IP Table Entries: 1024
CSPT Entries: 128
RR_ENTRIES: 32
RST_ENTRIES: 8
L1D has LRU replacement policy
Initialize SRRIP state for L2C
Initialize DRRIP state for LLC
Heartbeat CPU 0 instructions: 10000001 cycles: 2938554 heartbeat IPC: 3.40303 cumulative IPC: 3.40303 (Simulation time: 0 hr 0 min 56 sec) 
Heartbeat CPU 0 instructions: 20000000 cycles: 5875760 heartbeat IPC: 3.4046 cumulative IPC: 3.40382 (Simulation time: 0 hr 1 min 46 sec) 
Heartbeat CPU 0 instructions: 30000000 cycles: 8794401 heartbeat IPC: 3.42625 cumulative IPC: 3.41126 (Simulation time: 0 hr 2 min 37 sec) 
Heartbeat CPU 0 instructions: 40000001 cycles: 11656740 heartbeat IPC: 3.49365 cumulative IPC: 3.43149 (Simulation time: 0 hr 3 min 21 sec) 
Heartbeat CPU 0 instructions: 50000001 cycles: 14591310 heartbeat IPC: 3.40765 cumulative IPC: 3.4267 (Simulation time: 0 hr 4 min 19 sec) 

Warmup complete CPU 0 instructions: 50000001 cycles: 14591310 (Simulation time: 0 hr 4 min 19 sec) 

Heartbeat CPU 0 instructions: 60000001 cycles: 36102811 heartbeat IPC: 0.464868 cumulative IPC: 0.464868 (Simulation time: 0 hr 5 min 22 sec) 
Heartbeat CPU 0 instructions: 70000001 cycles: 57328225 heartbeat IPC: 0.471133 cumulative IPC: 0.467979 (Simulation time: 0 hr 6 min 35 sec) 
Heartbeat CPU 0 instructions: 80000002 cycles: 78643737 heartbeat IPC: 0.469142 cumulative IPC: 0.468366 (Simulation time: 0 hr 7 min 46 sec) 
Heartbeat CPU 0 instructions: 90000000 cycles: 100051824 heartbeat IPC: 0.467113 cumulative IPC: 0.468052 (Simulation time: 0 hr 8 min 53 sec) 
Heartbeat CPU 0 instructions: 100000001 cycles: 120514417 heartbeat IPC: 0.488697 cumulative IPC: 0.472041 (Simulation time: 0 hr 10 min 3 sec) 
*** Reached end of trace for Core: 0 Repeating trace: traces/spec2k17/server_018.champsimtrace.xz
Heartbeat CPU 0 instructions: 110000000 cycles: 140579580 heartbeat IPC: 0.498376 cumulative IPC: 0.476235 (Simulation time: 0 hr 11 min 9 sec) 
Heartbeat CPU 0 instructions: 120000000 cycles: 160672779 heartbeat IPC: 0.497681 cumulative IPC: 0.479185 (Simulation time: 0 hr 12 min 20 sec) 
Heartbeat CPU 0 instructions: 130000000 cycles: 180739176 heartbeat IPC: 0.498346 cumulative IPC: 0.481499 (Simulation time: 0 hr 13 min 24 sec) 
Heartbeat CPU 0 instructions: 140000003 cycles: 206581384 heartbeat IPC: 0.386964 cumulative IPC: 0.468774 (Simulation time: 0 hr 14 min 37 sec) 
Heartbeat CPU 0 instructions: 150000001 cycles: 231792993 heartbeat IPC: 0.396643 cumulative IPC: 0.460402 (Simulation time: 0 hr 15 min 50 sec) 
Heartbeat CPU 0 instructions: 160000001 cycles: 253080585 heartbeat IPC: 0.469757 cumulative IPC: 0.461237 (Simulation time: 0 hr 16 min 57 sec) 
Heartbeat CPU 0 instructions: 170000000 cycles: 274337782 heartbeat IPC: 0.470429 cumulative IPC: 0.461989 (Simulation time: 0 hr 18 min 6 sec) 
Heartbeat CPU 0 instructions: 180000000 cycles: 295397523 heartbeat IPC: 0.47484 cumulative IPC: 0.462953 (Simulation time: 0 hr 19 min 15 sec) 
Heartbeat CPU 0 instructions: 190000001 cycles: 316683326 heartbeat IPC: 0.469797 cumulative IPC: 0.463435 (Simulation time: 0 hr 20 min 22 sec) 
Heartbeat CPU 0 instructions: 200000001 cycles: 337343126 heartbeat IPC: 0.484032 cumulative IPC: 0.464753 (Simulation time: 0 hr 21 min 35 sec) 
Heartbeat CPU 0 instructions: 210000001 cycles: 357410724 heartbeat IPC: 0.498316 cumulative IPC: 0.466718 (Simulation time: 0 hr 22 min 38 sec) 
*** Reached end of trace for Core: 0 Repeating trace: traces/spec2k17/server_018.champsimtrace.xz
Heartbeat CPU 0 instructions: 220000000 cycles: 377444344 heartbeat IPC: 0.499161 cumulative IPC: 0.468509 (Simulation time: 0 hr 23 min 43 sec) 
Heartbeat CPU 0 instructions: 230000003 cycles: 397491390 heartbeat IPC: 0.498827 cumulative IPC: 0.470097 (Simulation time: 0 hr 24 min 49 sec) 
Heartbeat CPU 0 instructions: 240000000 cycles: 417558015 heartbeat IPC: 0.49834 cumulative IPC: 0.471503 (Simulation time: 0 hr 26 min 0 sec) 
Heartbeat CPU 0 instructions: 250000002 cycles: 446241578 heartbeat IPC: 0.348632 cumulative IPC: 0.463338 (Simulation time: 0 hr 27 min 3 sec) 
Finished CPU 0 instructions: 200000001 cycles: 431650268 cumulative IPC: 0.463338 (Simulation time: 0 hr 27 min 3 sec) 

ChampSim completed all CPUs

Region of Interest Statistics

CPU 0 cumulative IPC: 0.463338 instructions: 200000001 cycles: 431650268
ITLB TOTAL     ACCESS:   33566961  HIT:   32150931  MISS:    1416030  HIT %:    95.7815  MISS %:    4.21852   MPKI: 7.08015
ITLB LOAD TRANSLATION ACCESS:   33566961  HIT:   32150931  MISS:    1416030  HIT %:    95.7815  MISS %:    4.21852   MPKI: 7.08015
ITLB PREFETCH  REQUESTED:          0  ISSUED:          0  USEFUL:          0  USELESS:          0
ITLB USEFUL LOAD PREFETCHES:          0 PREFETCH ISSUED TO LOWER LEVEL:          0  ACCURACY: -nan
ITLB TIMELY PREFETCHES:          0 LATE PREFETCHES: 0 DROPPED PREFETCHES: 0
ITLB PREFETCHES SAME FILL-ORIGIN LEVEL: 0 DIFFERENT FILL-ORIGIN LEVEL: 0
ITLB AVERAGE MISS LATENCY: 9.40995 cycles
ITLB RQ	ACCESS:   40211939	FORWARD:          0	MERGED:    6188737	TO_CACHE:   34023202

DTLB TOTAL     ACCESS:   38811561  HIT:   37205097  MISS:    1606464  HIT %:    95.8609  MISS %:    4.13914   MPKI: 8.03232
DTLB LOAD TRANSLATION ACCESS:   38811561  HIT:   37205097  MISS:    1606464  HIT %:    95.8609  MISS %:    4.13914   MPKI: 8.03232
DTLB PREFETCH  REQUESTED:          0  ISSUED:          0  USEFUL:          0  USELESS:          0
DTLB USEFUL LOAD PREFETCHES:          0 PREFETCH ISSUED TO LOWER LEVEL:          0  ACCURACY: -nan
DTLB TIMELY PREFETCHES:          0 LATE PREFETCHES: 0 DROPPED PREFETCHES: 0
DTLB PREFETCHES SAME FILL-ORIGIN LEVEL: 0 DIFFERENT FILL-ORIGIN LEVEL: 0
DTLB AVERAGE MISS LATENCY: 17.5354 cycles
DTLB RQ	ACCESS:   58647537	FORWARD:          0	MERGED:   19449009	TO_CACHE:   39198528

STLB TOTAL     ACCESS:    5765103  HIT:    5618024  MISS:     147079  HIT %:    97.4488  MISS %:    2.55119   MPKI: 0.735395
STLB LOAD TRANSLATION ACCESS:    3022494  HIT:    2875415  MISS:     147079  HIT %:    95.1339  MISS %:    4.86615   MPKI: 0.735395
STLB TRANSLATION FROM L1D PREFETCHER ACCESS:    2742609  HIT:    2742609  MISS:          0  HIT %:        100  MISS %:          0   MPKI: 0
STLB PREFETCH  REQUESTED:          0  ISSUED:          0  USEFUL:          0  USELESS:          0
STLB USEFUL LOAD PREFETCHES:          0 PREFETCH ISSUED TO LOWER LEVEL:          0  ACCURACY: -nan
STLB TIMELY PREFETCHES:          0 LATE PREFETCHES: 0 DROPPED PREFETCHES: 0
STLB PREFETCHES SAME FILL-ORIGIN LEVEL: 0 DIFFERENT FILL-ORIGIN LEVEL: 0
STLB AVERAGE MISS LATENCY: 96.9941 cycles
STLB RQ	ACCESS:    6683580	FORWARD:          0	MERGED:     918477	TO_CACHE:    5765103

STLB Hit, L1D data hit: 0
STLB Hit, L2C data hit: 0
STLB Hit, LLC data hit: 0
STLB Hit, LLC data miss: 0
STLB STLB hints to L2: 0
L1D TOTAL     ACCESS:   50116853  HIT:   42805653  MISS:    7311200  HIT %:    85.4117  MISS %:    14.5883   MPKI: 36.556
L1D LOAD      ACCESS:   26061458  HIT:   23256324  MISS:    2805134  HIT %:    89.2365  MISS %:    10.7635   MPKI: 14.0257
L1D RFO       ACCESS:   21283866  HIT:   17884196  MISS:    3399670  HIT %:     84.027  MISS %:     15.973   MPKI: 16.9983
L1D PREFETCH  ACCESS:    2771529  HIT:    1665133  MISS:    1106396  HIT %:    60.0799  MISS %:    39.9201   MPKI: 5.53198
AGUS PREFETCH L1 MISS: 0
L1D PREFETCH  REQUESTED:    7333699  ISSUED:    7323074  USEFUL:     460550  USELESS:     645914
L1D USEFUL LOAD PREFETCHES:     460550 PREFETCH ISSUED TO LOWER LEVEL:    1691173  ACCURACY: 27.2326
L1D TIMELY PREFETCHES:     460550 LATE PREFETCHES: 583265 DROPPED PREFETCHES: 0
L1D PREFETCHES SAME FILL-ORIGIN LEVEL: 1691173 DIFFERENT FILL-ORIGIN LEVEL: 0
L1D AVERAGE MISS LATENCY: 1.79073e+07 cycles
L1D RQ	ACCESS:   44286580	FORWARD:          0	MERGED:   17624525	TO_CACHE:   26394779
L1D WQ	ACCESS:   32470506	FORWARD:     268178	MERGED:     217748	TO_CACHE:   32252758
L1D PQ	ACCESS:    3661988	FORWARD:          0	MERGED:          0	TO_CACHE:    3661086

L1D UNIQUE REGIONS ACCESSED: 0
L1D REGIONS CONFLICTS: 0
L1D Cross Page Prefetch Requests: 0
L1D Same Page Prefetch Requests: 4581536
L1D ROI Sum of L1D PQ occupancy: 55974929
L1D PREFETCHES PUSHED FROM L2C: 0
L1I TOTAL     ACCESS:   37738999  HIT:   29281050  MISS:    8457949  HIT %:    77.5883  MISS %:    22.4117   MPKI: 42.2897
L1I LOAD      ACCESS:   37738999  HIT:   29281050  MISS:    8457949  HIT %:    77.5883  MISS %:    22.4117   MPKI: 42.2897
L1I PREFETCH  REQUESTED:          0  ISSUED:          0  USEFUL:          0  USELESS:          0
L1I USEFUL LOAD PREFETCHES:          0 PREFETCH ISSUED TO LOWER LEVEL:          0  ACCURACY: -nan
L1I TIMELY PREFETCHES:          0 LATE PREFETCHES: 0 DROPPED PREFETCHES: 0
L1I PREFETCHES SAME FILL-ORIGIN LEVEL: 0 DIFFERENT FILL-ORIGIN LEVEL: 0
L1I AVERAGE MISS LATENCY: 16.8256 cycles
L1I RQ	ACCESS:   58380690	FORWARD:          0	MERGED:   18168751	TO_CACHE:   40211939

BTB TOTAL     ACCESS:   25716640  HIT:   24056116  MISS:    1660524  HIT %:     93.543  MISS %:      6.457   MPKI: 8.30262
BTB BRANCH_DIRECT_JUMP	ACCESS:    1725252  HIT:    1715409  MISS:       9843
BTB BRANCH_INDIRECT	ACCESS:    9825521  HIT:    9169771  MISS:     655750
BTB BRANCH_CONDITIONAL	ACCESS:    7516536  HIT:    7503101  MISS:      13435
BTB BRANCH_DIRECT_CALL	ACCESS:    2628848  HIT:    2596392  MISS:      32456
BTB BRANCH_INDIRECT_CALL	ACCESS:     695837  HIT:     593013  MISS:     102824
BTB BRANCH_RETURN	ACCESS:    3324646  HIT:    2478430  MISS:     846216
BTB BRANCH_OTHER ACCESS:          0  HIT:          0  MISS:          0

L2C TOTAL     ACCESS:   20168764  HIT:   13173056  MISS:    6995708  HIT %:    65.3141  MISS %:    34.6859   MPKI: 34.9785
L2C LOAD      ACCESS:   10679589  HIT:    8574854  MISS:    2104735  HIT %:     80.292  MISS %:     19.708   MPKI: 10.5237
L2C DATA LOAD MPKI: 7.81235
L2C INSTRUCTION LOAD MPKI: 2.71132
L2C RFO       ACCESS:    3398137  HIT:     131526  MISS:    3266611  HIT %:    3.87053  MISS %:    96.1295   MPKI: 16.3331
L2C PREFETCH  ACCESS:    1691166  HIT:     292593  MISS:    1398573  HIT %:    17.3013  MISS %:    82.6987   MPKI: 6.99286
AGUS PREFETCH L1 MISS: 0
L2C DATA PREFETCH MPKI: 6.99286
L2C INSTRUCTION PREFETCH MPKI: 0
L2C WRITEBACK ACCESS:    4225044  HIT:    4094310  MISS:     130734  HIT %:    96.9057  MISS %:    3.09426   MPKI: 0.65367
L2C LOAD TRANSLATION ACCESS:     174828  HIT:      79773  MISS:      95055  HIT %:    45.6294  MISS %:    54.3706   MPKI: 0.475275
L2C PREFETCH  REQUESTED:          0  ISSUED:          0  USEFUL:      28158  USELESS:    1370975
L2C USEFUL LOAD PREFETCHES:      28158 PREFETCH ISSUED TO LOWER LEVEL:    1398573  ACCURACY: 2.01334
L2C TIMELY PREFETCHES:      28158 LATE PREFETCHES: 0 DROPPED PREFETCHES: 0
L2C PREFETCHES SAME FILL-ORIGIN LEVEL: 0 DIFFERENT FILL-ORIGIN LEVEL: 0
L2C AVERAGE MISS LATENCY: 181.952 cycles
L2C RQ	ACCESS:   14252805	FORWARD:          0	MERGED:          0	TO_CACHE:   14252555
L2C WQ	ACCESS:    4225044	FORWARD:        257	MERGED:          0	TO_CACHE:    4225044
L2C PQ	ACCESS:    1691173	FORWARD:          0	MERGED:          0	TO_CACHE:    1691166

L2C Instructions Evicting Data 493213
L2C Translations Evicting Data 86422
L2C Data Evicting Data 5659605
L2C Instructions Evicting Instructions 41587
L2C Translations Evicting Instructions 7314
L2C Data Evicting Instructions 483013
L2C Instructions Evicting Translations 7465
L2C Translations Evicting Translations 1319
L2C Data Evicting Translations 85036
L2C Dense regions hint from L2: 0
PSCL5 TOTAL     ACCESS:     147079  HIT:     147079  MISS:          0  HIT %:        100  MISS %:          0   MPKI: 0
PSCL5 LOAD TRANSLATION ACCESS:     147079  HIT:     147079  MISS:          0  HIT %:        100  MISS %:          0   MPKI: 0
PSCL5 PREFETCH  REQUESTED:          0  ISSUED:          0  USEFUL:          0  USELESS:          0
PSCL5 USEFUL LOAD PREFETCHES:          0 PREFETCH ISSUED TO LOWER LEVEL:          0  ACCURACY: -nan
PSCL5 TIMELY PREFETCHES:          0 LATE PREFETCHES: 0 DROPPED PREFETCHES: 0
PSCL5 PREFETCHES SAME FILL-ORIGIN LEVEL: 0 DIFFERENT FILL-ORIGIN LEVEL: 0

PSCL4 TOTAL     ACCESS:     140869  HIT:     140488  MISS:        381  HIT %:    99.7295  MISS %:   0.270464   MPKI: 0.001905
PSCL4 LOAD TRANSLATION ACCESS:     140869  HIT:     140488  MISS:        381  HIT %:    99.7295  MISS %:   0.270464   MPKI: 0.001905
PSCL4 PREFETCH  REQUESTED:          0  ISSUED:          0  USEFUL:          0  USELESS:          0
PSCL4 USEFUL LOAD PREFETCHES:          0 PREFETCH ISSUED TO LOWER LEVEL:          0  ACCURACY: -nan
PSCL4 TIMELY PREFETCHES:          0 LATE PREFETCHES: 0 DROPPED PREFETCHES: 0
PSCL4 PREFETCHES SAME FILL-ORIGIN LEVEL: 0 DIFFERENT FILL-ORIGIN LEVEL: 0

PSCL3 TOTAL     ACCESS:     146993  HIT:     146604  MISS:        389  HIT %:    99.7354  MISS %:   0.264638   MPKI: 0.001945
PSCL3 LOAD TRANSLATION ACCESS:     146993  HIT:     146604  MISS:        389  HIT %:    99.7354  MISS %:   0.264638   MPKI: 0.001945
PSCL3 PREFETCH  REQUESTED:          0  ISSUED:          0  USEFUL:          0  USELESS:          0
PSCL3 USEFUL LOAD PREFETCHES:          0 PREFETCH ISSUED TO LOWER LEVEL:          0  ACCURACY: -nan
PSCL3 TIMELY PREFETCHES:          0 LATE PREFETCHES: 0 DROPPED PREFETCHES: 0
PSCL3 PREFETCHES SAME FILL-ORIGIN LEVEL: 0 DIFFERENT FILL-ORIGIN LEVEL: 0

PSCL2 TOTAL     ACCESS:     147079  HIT:     120072  MISS:      27007  HIT %:    81.6378  MISS %:    18.3622   MPKI: 0.135035
PSCL2 LOAD TRANSLATION ACCESS:     147079  HIT:     120072  MISS:      27007  HIT %:    81.6378  MISS %:    18.3622   MPKI: 0.135035
PSCL2 PREFETCH  REQUESTED:          0  ISSUED:          0  USEFUL:          0  USELESS:          0
PSCL2 USEFUL LOAD PREFETCHES:          0 PREFETCH ISSUED TO LOWER LEVEL:          0  ACCURACY: -nan
PSCL2 TIMELY PREFETCHES:          0 LATE PREFETCHES: 0 DROPPED PREFETCHES: 0
PSCL2 PREFETCHES SAME FILL-ORIGIN LEVEL: 0 DIFFERENT FILL-ORIGIN LEVEL: 0

LLC TOTAL     ACCESS:   10804503  HIT:    4998351  MISS:    5806152  HIT %:    46.2617  MISS %:    53.7383   MPKI: 29.0308
LLC LOAD      ACCESS:    2104732  HIT:    1419292  MISS:     685440  HIT %:    67.4334  MISS %:    32.5666   MPKI: 3.4272
LLC RFO       ACCESS:    3266596  HIT:     712250  MISS:    2554346  HIT %:     21.804  MISS %:     78.196   MPKI: 12.7717
LLC PREFETCH  ACCESS:    1398573  HIT:     265921  MISS:    1132652  HIT %:    19.0137  MISS %:    80.9863   MPKI: 5.66326
AGUS PREFETCH L1 MISS: 0
LLC WRITEBACK ACCESS:    3939547  HIT:    2538049  MISS:    1401498  HIT %:    64.4249  MISS %:    35.5751   MPKI: 7.00749
LLC LOAD TRANSLATION ACCESS:      95055  HIT:      62839  MISS:      32216  HIT %:     66.108  MISS %:     33.892   MPKI: 0.16108
LLC PREFETCH  REQUESTED:          0  ISSUED:          0  USEFUL:      12568  USELESS:    1125623
LLC USEFUL LOAD PREFETCHES:      12568 PREFETCH ISSUED TO LOWER LEVEL:    1132652  ACCURACY: 1.10961
LLC TIMELY PREFETCHES:      12568 LATE PREFETCHES: 0 DROPPED PREFETCHES: 0
LLC PREFETCHES SAME FILL-ORIGIN LEVEL: 0 DIFFERENT FILL-ORIGIN LEVEL: 0
LLC AVERAGE MISS LATENCY: 183.325 cycles
LLC RQ	ACCESS:    5466401	FORWARD:          0	MERGED:          0	TO_CACHE:    5466383
LLC WQ	ACCESS:    3939547	FORWARD:         18	MERGED:          0	TO_CACHE:    3939547
LLC PQ	ACCESS:    1398573	FORWARD:          0	MERGED:          0	TO_CACHE:    1398573

LLC Dense regions hint to LLC: 0

RAW hits: 2563818
Loads Generated: 46850398
Loads sent to L1D: 44286580
Stores Generated: 32470479
Stores sent to L1D: 32470506
Major fault: 0 Minor fault: 22612
Allocated PAGES: 22612

stream: 
stream:times selected: 6187546
stream:pref_filled: 692074
stream:pref_useful: 100371
stream:pref_late: 36805
stream:misses: 194065
stream:misses_by_poll: 0

CS: 
CS:times selected: 3488191
CS:pref_filled: 685113
CS:pref_useful: 632318
CS:pref_late: 516908
CS:misses: 770518
CS:misses_by_poll: 1071

CPLX: 
CPLX:times selected: 2642244
CPLX:pref_filled: 221238
CPLX:pref_useful: 26747
CPLX:pref_late: 4272
CPLX:misses: 660018
CPLX:misses_by_poll: 224

NL_L1: 
NL:times selected: 13625
NL:pref_filled: 5216
NL:pref_useful: 88
NL:pref_late: 40
NL:misses: 6232
NL:misses_by_poll: 0

total selections: 12331606
total_filled: 1106396
total_useful: 460550
total_late: 594686
total_polluted: 1295
total_misses_after_warmup: 3138453
conflicts: 7934232
Degree Incremented Times: 83235
Degree Decremented Times: 369495

L1 IP Table Write Accesses: 17396024
L1 IP Table Read Accesses: 9461792
L1 RST Write Accesses: 5116047
L1 RST Read Accesses: 10232094
L1 CSPT Write Accesses: 5116047
L1 CSPT Read Accesses: 7192685
L1 RR Filter Tag Write Accesses: 3672613
L1 RR Filter Tag Read Accesses: 450483491
L1 IP Table Tag Write Accesses: 26394777
L1 IP Table Tag Read Accesses: 26394777
L1 RST Tag Write Accesses: 0
L1 RST Tag Read Accesses: 47196287
L1 RR Filter Write Accesses: 0
L1 RR Filter Read Accesses: 14619487
test: 1215057

DRAM Statistics
 CHANNEL 0
 RQ ROW_BUFFER_HIT:    1705933  ROW_BUFFER_MISS:    2698227
 DBUS_CONGESTED:       1556
 WQ ROW_BUFFER_HIT:     619731  ROW_BUFFER_MISS:    2246295  FULL:      34795

 AVG_CONGESTED_CYCLE: 4
 All warmup complete: 2
Channel 0 Bank busy for read cycles: 0
Channel 0 Bank busy for write cycles: 0
Channel 0
Rank 0
0banks busy for read cycles: 162864228
0banks busy for write cycles: 234464
1banks busy for read cycles: 54196507
1banks busy for write cycles: 33186395
2banks busy for read cycles: 29004305
2banks busy for write cycles: 15515232
3banks busy for read cycles: 19092784
3banks busy for write cycles: 9039531
4banks busy for read cycles: 6609588
4banks busy for write cycles: 6161136
5banks busy for read cycles: 4948442
5banks busy for write cycles: 4609595
6banks busy for read cycles: 5706384
6banks busy for write cycles: 3859858
7banks busy for read cycles: 8618230
7banks busy for write cycles: 6056859
8banks busy for read cycles: 23233763
8banks busy for write cycles: 38712968

CPU 0 Branch Prediction Accuracy: 99.9405% MPKI: 0.09271 Average ROB Occupancy at Mispredict: 110.13
Branch types
NOT_BRANCH: 168823570 84.4118%
BRANCH_DIRECT_JUMP: 1725252 0.862626%
BRANCH_INDIRECT: 9825521 4.91276%
BRANCH_CONDITIONAL: 12976222 6.48811%
BRANCH_DIRECT_CALL: 2628848 1.31442%
BRANCH_INDIRECT_CALL: 695837 0.347918%
BRANCH_RETURN: 3324646 1.66232%
BRANCH_OTHER: 0 0%

DRAM PAGES: 1048576
Allocated PAGES: 22612
