
*** ChampSim Multicore Out-of-Order Simulator ***

Warmup Instructions: 50000000
Simulation Instructions: 200000000
Number of CPUs: 1
LLC sets: 2048
LLC ways: 16
Off-chip DRAM Size: 4096 MB Channels: 1 Width: 64-bit Data Rate: 6400 MT/s
CPU 0 runs traces/spec2k17/server_028.champsimtrace.xz
.xz
BTB has LRU replacement policy
ITLB has LRU replacement policy
DTLB has LRU replacement policy
STLB has LRU replacement policy
L1I has LRU replacement policy
IP Table Entries: 1024
CSPT Entries: 128
RR_ENTRIES: 32
RST_ENTRIES: 8
L1D has LRU replacement policy
Initialize SRRIP state for L2C
Initialize DRRIP state for LLC
Heartbeat CPU 0 instructions: 10000001 cycles: 2851353 heartbeat IPC: 3.50711 cumulative IPC: 3.50711 (Simulation time: 0 hr 0 min 43 sec) 
Heartbeat CPU 0 instructions: 20000002 cycles: 5691932 heartbeat IPC: 3.52041 cumulative IPC: 3.51375 (Simulation time: 0 hr 1 min 30 sec) 
Heartbeat CPU 0 instructions: 30000002 cycles: 8531733 heartbeat IPC: 3.52137 cumulative IPC: 3.51628 (Simulation time: 0 hr 2 min 18 sec) 
Heartbeat CPU 0 instructions: 40000001 cycles: 11374336 heartbeat IPC: 3.5179 cumulative IPC: 3.51669 (Simulation time: 0 hr 3 min 5 sec) 
Heartbeat CPU 0 instructions: 50000003 cycles: 14217541 heartbeat IPC: 3.51716 cumulative IPC: 3.51678 (Simulation time: 0 hr 3 min 51 sec) 

Warmup complete CPU 0 instructions: 50000003 cycles: 14217541 (Simulation time: 0 hr 3 min 51 sec) 

Heartbeat CPU 0 instructions: 60000000 cycles: 46863262 heartbeat IPC: 0.306319 cumulative IPC: 0.306319 (Simulation time: 0 hr 4 min 52 sec) 
Heartbeat CPU 0 instructions: 70000000 cycles: 79573692 heartbeat IPC: 0.305713 cumulative IPC: 0.306016 (Simulation time: 0 hr 5 min 43 sec) 
Heartbeat CPU 0 instructions: 80000000 cycles: 112332120 heartbeat IPC: 0.305265 cumulative IPC: 0.305765 (Simulation time: 0 hr 6 min 40 sec) 
*** Reached end of trace for Core: 0 Repeating trace: traces/spec2k17/server_028.champsimtrace.xz
Heartbeat CPU 0 instructions: 90000001 cycles: 144790172 heartbeat IPC: 0.30809 cumulative IPC: 0.306343 (Simulation time: 0 hr 7 min 38 sec) 
Heartbeat CPU 0 instructions: 100000001 cycles: 177217161 heartbeat IPC: 0.308385 cumulative IPC: 0.306749 (Simulation time: 0 hr 8 min 37 sec) 
Heartbeat CPU 0 instructions: 110000000 cycles: 209933774 heartbeat IPC: 0.305655 cumulative IPC: 0.306566 (Simulation time: 0 hr 9 min 30 sec) 
Heartbeat CPU 0 instructions: 120000003 cycles: 242446590 heartbeat IPC: 0.307571 cumulative IPC: 0.306709 (Simulation time: 0 hr 10 min 31 sec) 
Heartbeat CPU 0 instructions: 130000001 cycles: 275158052 heartbeat IPC: 0.305703 cumulative IPC: 0.306583 (Simulation time: 0 hr 11 min 26 sec) 
Heartbeat CPU 0 instructions: 140000001 cycles: 307823993 heartbeat IPC: 0.306129 cumulative IPC: 0.306533 (Simulation time: 0 hr 12 min 20 sec) 
Heartbeat CPU 0 instructions: 150000002 cycles: 340356404 heartbeat IPC: 0.307386 cumulative IPC: 0.306618 (Simulation time: 0 hr 13 min 21 sec) 
Heartbeat CPU 0 instructions: 160000000 cycles: 373063926 heartbeat IPC: 0.30574 cumulative IPC: 0.306538 (Simulation time: 0 hr 14 min 17 sec) 
Heartbeat CPU 0 instructions: 170000001 cycles: 405416418 heartbeat IPC: 0.309095 cumulative IPC: 0.306749 (Simulation time: 0 hr 15 min 14 sec) 
*** Reached end of trace for Core: 0 Repeating trace: traces/spec2k17/server_028.champsimtrace.xz
Heartbeat CPU 0 instructions: 180000002 cycles: 437962566 heartbeat IPC: 0.307256 cumulative IPC: 0.306788 (Simulation time: 0 hr 16 min 5 sec) 
Heartbeat CPU 0 instructions: 190000000 cycles: 470454649 heartbeat IPC: 0.307767 cumulative IPC: 0.306858 (Simulation time: 0 hr 17 min 1 sec) 
Heartbeat CPU 0 instructions: 200000001 cycles: 502973711 heartbeat IPC: 0.307512 cumulative IPC: 0.306901 (Simulation time: 0 hr 17 min 59 sec) 
Heartbeat CPU 0 instructions: 210000002 cycles: 535644390 heartbeat IPC: 0.306085 cumulative IPC: 0.30685 (Simulation time: 0 hr 18 min 59 sec) 
Heartbeat CPU 0 instructions: 220000000 cycles: 568338666 heartbeat IPC: 0.305864 cumulative IPC: 0.306792 (Simulation time: 0 hr 19 min 53 sec) 
Heartbeat CPU 0 instructions: 230000000 cycles: 600845814 heartbeat IPC: 0.307625 cumulative IPC: 0.306838 (Simulation time: 0 hr 20 min 46 sec) 
Heartbeat CPU 0 instructions: 240000000 cycles: 633402512 heartbeat IPC: 0.307156 cumulative IPC: 0.306855 (Simulation time: 0 hr 21 min 47 sec) 
Heartbeat CPU 0 instructions: 250000000 cycles: 666063781 heartbeat IPC: 0.306173 cumulative IPC: 0.306821 (Simulation time: 0 hr 22 min 40 sec) 
Finished CPU 0 instructions: 200000003 cycles: 651846251 cumulative IPC: 0.306821 (Simulation time: 0 hr 22 min 40 sec) 

ChampSim completed all CPUs

Region of Interest Statistics

CPU 0 cumulative IPC: 0.306821 instructions: 200000003 cycles: 651846251
ITLB TOTAL     ACCESS:   35614210  HIT:   33425003  MISS:    2189207  HIT %:     93.853  MISS %:      6.147   MPKI: 10.946
ITLB LOAD TRANSLATION ACCESS:   35614210  HIT:   33425003  MISS:    2189207  HIT %:     93.853  MISS %:      6.147   MPKI: 10.946
ITLB PREFETCH  REQUESTED:          0  ISSUED:          0  USEFUL:          0  USELESS:          0
ITLB USEFUL LOAD PREFETCHES:          0 PREFETCH ISSUED TO LOWER LEVEL:          0  ACCURACY: -nan
ITLB TIMELY PREFETCHES:          0 LATE PREFETCHES: 0 DROPPED PREFETCHES: 0
ITLB PREFETCHES SAME FILL-ORIGIN LEVEL: 0 DIFFERENT FILL-ORIGIN LEVEL: 0
ITLB AVERAGE MISS LATENCY: 9.31503 cycles
ITLB RQ	ACCESS:   41788874	FORWARD:          0	MERGED:    5650139	TO_CACHE:   36138735

DTLB TOTAL     ACCESS:   45078745  HIT:   42996571  MISS:    2082174  HIT %:     95.381  MISS %:    4.61897   MPKI: 10.4109
DTLB LOAD TRANSLATION ACCESS:   45078745  HIT:   42996571  MISS:    2082174  HIT %:     95.381  MISS %:    4.61897   MPKI: 10.4109
DTLB PREFETCH  REQUESTED:          0  ISSUED:          0  USEFUL:          0  USELESS:          0
DTLB USEFUL LOAD PREFETCHES:          0 PREFETCH ISSUED TO LOWER LEVEL:          0  ACCURACY: -nan
DTLB TIMELY PREFETCHES:          0 LATE PREFETCHES: 0 DROPPED PREFETCHES: 0
DTLB PREFETCHES SAME FILL-ORIGIN LEVEL: 0 DIFFERENT FILL-ORIGIN LEVEL: 0
DTLB AVERAGE MISS LATENCY: 10.9011 cycles
DTLB RQ	ACCESS:   59684142	FORWARD:          0	MERGED:   14549485	TO_CACHE:   45134657

STLB TOTAL     ACCESS:    6732497  HIT:    6654399  MISS:      78098  HIT %:      98.84  MISS %:    1.16002   MPKI: 0.39049
STLB LOAD TRANSLATION ACCESS:    4271381  HIT:    4193283  MISS:      78098  HIT %:    98.1716  MISS %:     1.8284   MPKI: 0.39049
STLB TRANSLATION FROM L1D PREFETCHER ACCESS:    2461116  HIT:    2461116  MISS:          0  HIT %:        100  MISS %:          0   MPKI: 0
STLB PREFETCH  REQUESTED:          0  ISSUED:          0  USEFUL:          0  USELESS:          0
STLB USEFUL LOAD PREFETCHES:          0 PREFETCH ISSUED TO LOWER LEVEL:          0  ACCURACY: -nan
STLB TIMELY PREFETCHES:          0 LATE PREFETCHES: 0 DROPPED PREFETCHES: 0
STLB PREFETCHES SAME FILL-ORIGIN LEVEL: 0 DIFFERENT FILL-ORIGIN LEVEL: 0
STLB AVERAGE MISS LATENCY: 59.1537 cycles
STLB RQ	ACCESS:    8367131	FORWARD:          0	MERGED:    1634634	TO_CACHE:    6732497

STLB Hit, L1D data hit: 0
STLB Hit, L2C data hit: 0
STLB Hit, LLC data hit: 0
STLB Hit, LLC data miss: 0
STLB STLB hints to L2: 0
L1D TOTAL     ACCESS:   61696062  HIT:   54792646  MISS:    6903416  HIT %:    88.8106  MISS %:    11.1894   MPKI: 34.5171
L1D LOAD      ACCESS:   33479865  HIT:   29939055  MISS:    3540810  HIT %:    89.4241  MISS %:    10.5759   MPKI: 17.704
L1D RFO       ACCESS:   24428199  HIT:   23288781  MISS:    1139418  HIT %:    95.3356  MISS %:    4.66436   MPKI: 5.69709
L1D PREFETCH  ACCESS:    3787998  HIT:    1564810  MISS:    2223188  HIT %:    41.3097  MISS %:    58.6903   MPKI: 11.1159
AGUS PREFETCH L1 MISS: 0
L1D PREFETCH  REQUESTED:    8193854  ISSUED:    8193847  USEFUL:    1022267  USELESS:    1200879
L1D USEFUL LOAD PREFETCHES:    1022267 PREFETCH ISSUED TO LOWER LEVEL:    2426484  ACCURACY: 42.1296
L1D TIMELY PREFETCHES:    1022267 LATE PREFETCHES: 200931 DROPPED PREFETCHES: 0
L1D PREFETCHES SAME FILL-ORIGIN LEVEL: 2426484 DIFFERENT FILL-ORIGIN LEVEL: 0
L1D AVERAGE MISS LATENCY: 1.00225e+07 cycles
L1D RQ	ACCESS:   46052559	FORWARD:          0	MERGED:   12124394	TO_CACHE:   33611918
L1D WQ	ACCESS:   26217180	FORWARD:     318594	MERGED:     144956	TO_CACHE:   26072224
L1D PQ	ACCESS:    4098097	FORWARD:          0	MERGED:          0	TO_CACHE:    4095750

L1D UNIQUE REGIONS ACCESSED: 0
L1D REGIONS CONFLICTS: 0
L1D Cross Page Prefetch Requests: 0
L1D Same Page Prefetch Requests: 5085074
L1D ROI Sum of L1D PQ occupancy: 52637905
L1D PREFETCHES PUSHED FROM L2C: 0
L1I TOTAL     ACCESS:   40148495  HIT:   29064795  MISS:   11083700  HIT %:    72.3932  MISS %:    27.6068   MPKI: 55.4185
L1I LOAD      ACCESS:   40148495  HIT:   29064795  MISS:   11083700  HIT %:    72.3932  MISS %:    27.6068   MPKI: 55.4185
L1I PREFETCH  REQUESTED:          0  ISSUED:          0  USEFUL:          0  USELESS:          0
L1I USEFUL LOAD PREFETCHES:          0 PREFETCH ISSUED TO LOWER LEVEL:          0  ACCURACY: -nan
L1I TIMELY PREFETCHES:          0 LATE PREFETCHES: 0 DROPPED PREFETCHES: 0
L1I PREFETCHES SAME FILL-ORIGIN LEVEL: 0 DIFFERENT FILL-ORIGIN LEVEL: 0
L1I AVERAGE MISS LATENCY: 16.056 cycles
L1I RQ	ACCESS:   58382127	FORWARD:          0	MERGED:   16593253	TO_CACHE:   41788874

BTB TOTAL     ACCESS:   30542458  HIT:   18336623  MISS:   12205835  HIT %:    60.0365  MISS %:    39.9635   MPKI: 61.0292
BTB BRANCH_DIRECT_JUMP	ACCESS:    2010403  HIT:    1225655  MISS:     784748
BTB BRANCH_INDIRECT	ACCESS:   11931802  HIT:    7220486  MISS:    4711316
BTB BRANCH_CONDITIONAL	ACCESS:    7548039  HIT:    6326083  MISS:    1221956
BTB BRANCH_DIRECT_CALL	ACCESS:    3806012  HIT:    1828717  MISS:    1977295
BTB BRANCH_INDIRECT_CALL	ACCESS:     720088  HIT:     358904  MISS:     361184
BTB BRANCH_RETURN	ACCESS:    4526114  HIT:    1376778  MISS:    3149336
BTB BRANCH_OTHER ACCESS:          0  HIT:          0  MISS:          0

L2C TOTAL     ACCESS:   20419545  HIT:   18729418  MISS:    1690127  HIT %:     91.723  MISS %:    8.27701   MPKI: 8.45063
L2C LOAD      ACCESS:   14423573  HIT:   13403682  MISS:    1019891  HIT %:     92.929  MISS %:      7.071   MPKI: 5.09945
L2C DATA LOAD MPKI: 1.5571
L2C INSTRUCTION LOAD MPKI: 3.54235
L2C RFO       ACCESS:    1137053  HIT:    1056830  MISS:      80223  HIT %:    92.9447  MISS %:    7.05534   MPKI: 0.401115
L2C PREFETCH  ACCESS:    2425653  HIT:    1901918  MISS:     523735  HIT %:    78.4085  MISS %:    21.5915   MPKI: 2.61867
AGUS PREFETCH L1 MISS: 0
L2C DATA PREFETCH MPKI: 2.61867
L2C INSTRUCTION PREFETCH MPKI: 0
L2C WRITEBACK ACCESS:    2321289  HIT:    2301504  MISS:      19785  HIT %:    99.1477  MISS %:   0.852328   MPKI: 0.098925
L2C LOAD TRANSLATION ACCESS:     111977  HIT:      65484  MISS:      46493  HIT %:    58.4799  MISS %:    41.5201   MPKI: 0.232465
L2C PREFETCH  REQUESTED:          0  ISSUED:          0  USEFUL:       9128  USELESS:     515147
L2C USEFUL LOAD PREFETCHES:       9128 PREFETCH ISSUED TO LOWER LEVEL:     523735  ACCURACY: 1.74287
L2C TIMELY PREFETCHES:       9128 LATE PREFETCHES: 0 DROPPED PREFETCHES: 0
L2C PREFETCHES SAME FILL-ORIGIN LEVEL: 0 DIFFERENT FILL-ORIGIN LEVEL: 0
L2C AVERAGE MISS LATENCY: 50.1243 cycles
L2C RQ	ACCESS:   15672608	FORWARD:          0	MERGED:          0	TO_CACHE:   15672603
L2C WQ	ACCESS:    2321289	FORWARD:        836	MERGED:          0	TO_CACHE:    2321289
L2C PQ	ACCESS:    2426484	FORWARD:          0	MERGED:          0	TO_CACHE:    2425653

L2C Instructions Evicting Data 289795
L2C Translations Evicting Data 33910
L2C Data Evicting Data 604643
L2C Instructions Evicting Instructions 408609
L2C Translations Evicting Instructions 9935
L2C Data Evicting Instructions 277100
L2C Instructions Evicting Translations 10067
L2C Translations Evicting Translations 2648
L2C Data Evicting Translations 33635
L2C Dense regions hint from L2: 0
PSCL5 TOTAL     ACCESS:      78098  HIT:      78098  MISS:          0  HIT %:        100  MISS %:          0   MPKI: 0
PSCL5 LOAD TRANSLATION ACCESS:      78098  HIT:      78098  MISS:          0  HIT %:        100  MISS %:          0   MPKI: 0
PSCL5 PREFETCH  REQUESTED:          0  ISSUED:          0  USEFUL:          0  USELESS:          0
PSCL5 USEFUL LOAD PREFETCHES:          0 PREFETCH ISSUED TO LOWER LEVEL:          0  ACCURACY: -nan
PSCL5 TIMELY PREFETCHES:          0 LATE PREFETCHES: 0 DROPPED PREFETCHES: 0
PSCL5 PREFETCHES SAME FILL-ORIGIN LEVEL: 0 DIFFERENT FILL-ORIGIN LEVEL: 0

PSCL4 TOTAL     ACCESS:      76237  HIT:      75508  MISS:        729  HIT %:    99.0438  MISS %:   0.956229   MPKI: 0.003645
PSCL4 LOAD TRANSLATION ACCESS:      76237  HIT:      75508  MISS:        729  HIT %:    99.0438  MISS %:   0.956229   MPKI: 0.003645
PSCL4 PREFETCH  REQUESTED:          0  ISSUED:          0  USEFUL:          0  USELESS:          0
PSCL4 USEFUL LOAD PREFETCHES:          0 PREFETCH ISSUED TO LOWER LEVEL:          0  ACCURACY: -nan
PSCL4 TIMELY PREFETCHES:          0 LATE PREFETCHES: 0 DROPPED PREFETCHES: 0
PSCL4 PREFETCHES SAME FILL-ORIGIN LEVEL: 0 DIFFERENT FILL-ORIGIN LEVEL: 0

PSCL3 TOTAL     ACCESS:      77827  HIT:      77098  MISS:        729  HIT %:    99.0633  MISS %:   0.936693   MPKI: 0.003645
PSCL3 LOAD TRANSLATION ACCESS:      77827  HIT:      77098  MISS:        729  HIT %:    99.0633  MISS %:   0.936693   MPKI: 0.003645
PSCL3 PREFETCH  REQUESTED:          0  ISSUED:          0  USEFUL:          0  USELESS:          0
PSCL3 USEFUL LOAD PREFETCHES:          0 PREFETCH ISSUED TO LOWER LEVEL:          0  ACCURACY: -nan
PSCL3 TIMELY PREFETCHES:          0 LATE PREFETCHES: 0 DROPPED PREFETCHES: 0
PSCL3 PREFETCHES SAME FILL-ORIGIN LEVEL: 0 DIFFERENT FILL-ORIGIN LEVEL: 0

PSCL2 TOTAL     ACCESS:      78098  HIT:      45677  MISS:      32421  HIT %:    58.4868  MISS %:    41.5132   MPKI: 0.162105
PSCL2 LOAD TRANSLATION ACCESS:      78098  HIT:      45677  MISS:      32421  HIT %:    58.4868  MISS %:    41.5132   MPKI: 0.162105
PSCL2 PREFETCH  REQUESTED:          0  ISSUED:          0  USEFUL:          0  USELESS:          0
PSCL2 USEFUL LOAD PREFETCHES:          0 PREFETCH ISSUED TO LOWER LEVEL:          0  ACCURACY: -nan
PSCL2 TIMELY PREFETCHES:          0 LATE PREFETCHES: 0 DROPPED PREFETCHES: 0
PSCL2 PREFETCHES SAME FILL-ORIGIN LEVEL: 0 DIFFERENT FILL-ORIGIN LEVEL: 0

LLC TOTAL     ACCESS:    1783795  HIT:    1547651  MISS:     236144  HIT %:    86.7617  MISS %:    13.2383   MPKI: 1.18072
LLC LOAD      ACCESS:    1019891  HIT:     948375  MISS:      71516  HIT %:    92.9879  MISS %:    7.01212   MPKI: 0.35758
LLC RFO       ACCESS:      80220  HIT:      71374  MISS:       8846  HIT %:    88.9728  MISS %:    11.0272   MPKI: 0.04423
LLC PREFETCH  ACCESS:     523735  HIT:     376031  MISS:     147704  HIT %:     71.798  MISS %:     28.202   MPKI: 0.73852
AGUS PREFETCH L1 MISS: 0
LLC WRITEBACK ACCESS:     113456  HIT:     112447  MISS:       1009  HIT %:    99.1107  MISS %:   0.889332   MPKI: 0.005045
LLC LOAD TRANSLATION ACCESS:      46493  HIT:      39424  MISS:       7069  HIT %:    84.7956  MISS %:    15.2044   MPKI: 0.035345
LLC PREFETCH  REQUESTED:          0  ISSUED:          0  USEFUL:       4669  USELESS:     144316
LLC USEFUL LOAD PREFETCHES:       4669 PREFETCH ISSUED TO LOWER LEVEL:     147704  ACCURACY: 3.16105
LLC TIMELY PREFETCHES:       4669 LATE PREFETCHES: 0 DROPPED PREFETCHES: 0
LLC PREFETCHES SAME FILL-ORIGIN LEVEL: 0 DIFFERENT FILL-ORIGIN LEVEL: 0
LLC AVERAGE MISS LATENCY: 146.473 cycles
LLC RQ	ACCESS:    1146607	FORWARD:          0	MERGED:          0	TO_CACHE:    1146604
LLC WQ	ACCESS:     113456	FORWARD:          3	MERGED:          0	TO_CACHE:     113456
LLC PQ	ACCESS:     523735	FORWARD:          0	MERGED:          0	TO_CACHE:     523735

LLC Dense regions hint to LLC: 0

RAW hits: 1431705
Loads Generated: 47484266
Loads sent to L1D: 46052559
Stores Generated: 26217178
Stores sent to L1D: 26217180
Major fault: 0 Minor fault: 6256
Allocated PAGES: 6256

stream: 
stream:times selected: 5069049
stream:pref_filled: 695829
stream:pref_useful: 153532
stream:pref_late: 102732
stream:misses: 72962
stream:misses_by_poll: 0

CS: 
CS:times selected: 605778
CS:pref_filled: 416533
CS:pref_useful: 353160
CS:pref_late: 32846
CS:misses: 96861
CS:misses_by_poll: 315

CPLX: 
CPLX:times selected: 4441738
CPLX:pref_filled: 1713595
CPLX:pref_useful: 809590
CPLX:pref_late: 32052
CPLX:misses: 548733
CPLX:misses_by_poll: 3229

NL_L1: 
NL:times selected: 11197
NL:pref_filled: 4604
NL:pref_useful: 265
NL:pref_late: 91
NL:misses: 1074
NL:misses_by_poll: 2

total selections: 10127762
total_filled: 2223188
total_useful: 1022267
total_late: 212658
total_polluted: 3546
total_misses_after_warmup: 3672863
conflicts: 11843757
Degree Incremented Times: 118337
Degree Decremented Times: 313177

L1 IP Table Write Accesses: 20701496
L1 IP Table Read Accesses: 8857739
L1 RST Write Accesses: 4044159
L1 RST Read Accesses: 8088318
L1 CSPT Write Accesses: 4044159
L1 CSPT Read Accesses: 13652115
L1 RR Filter Tag Write Accesses: 4098104
L1 RR Filter Tag Read Accesses: 283054265
L1 IP Table Tag Write Accesses: 33611918
L1 IP Table Tag Read Accesses: 33611918
L1 RST Tag Write Accesses: 0
L1 RST Tag Read Accesses: 31913966
L1 RR Filter Write Accesses: 0
L1 RR Filter Read Accesses: 9946042
test: 1034285

DRAM Statistics
 CHANNEL 0
 RQ ROW_BUFFER_HIT:      73693  ROW_BUFFER_MISS:     161442
 DBUS_CONGESTED:        122
 WQ ROW_BUFFER_HIT:       2420  ROW_BUFFER_MISS:      10175  FULL:          0

 AVG_CONGESTED_CYCLE: 4
 All warmup complete: 2
Channel 0 Bank busy for read cycles: 0
Channel 0 Bank busy for write cycles: 0
Channel 0
Rank 0
0banks busy for read cycles: 634899431
0banks busy for write cycles: 8270
1banks busy for read cycles: 8264212
1banks busy for write cycles: 1465474
2banks busy for read cycles: 3478846
2banks busy for write cycles: 378034
3banks busy for read cycles: 1602397
3banks busy for write cycles: 130671
4banks busy for read cycles: 784927
4banks busy for write cycles: 39327
5banks busy for read cycles: 325641
5banks busy for write cycles: 15367
6banks busy for read cycles: 160261
6banks busy for write cycles: 4797
7banks busy for read cycles: 147477
7banks busy for write cycles: 870
8banks busy for read cycles: 138895
8banks busy for write cycles: 1355

CPU 0 Branch Prediction Accuracy: 99.7758% MPKI: 0.40526 Average ROB Occupancy at Mispredict: 43.9393
Branch types
NOT_BRANCH: 163841120 81.9206%
BRANCH_DIRECT_JUMP: 2010403 1.0052%
BRANCH_INDIRECT: 11931802 5.9659%
BRANCH_CONDITIONAL: 13164452 6.58223%
BRANCH_DIRECT_CALL: 3806012 1.90301%
BRANCH_INDIRECT_CALL: 720088 0.360044%
BRANCH_RETURN: 4526114 2.26306%
BRANCH_OTHER: 0 0%

DRAM PAGES: 1048576
Allocated PAGES: 6256
