
*** ChampSim Multicore Out-of-Order Simulator ***

Warmup Instructions: 50000000
Simulation Instructions: 200000000
Number of CPUs: 1
LLC sets: 2048
LLC ways: 16
Off-chip DRAM Size: 4096 MB Channels: 1 Width: 64-bit Data Rate: 6400 MT/s
CPU 0 runs traces/spec2k17/server_002.champsimtrace.xz
.xz
BTB has LRU replacement policy
ITLB has LRU replacement policy
DTLB has LRU replacement policy
STLB has LRU replacement policy
L1I has LRU replacement policy
IP Table Entries: 1024
CSPT Entries: 128
RR_ENTRIES: 32
RST_ENTRIES: 8
L1D has LRU replacement policy
Initialize SRRIP state for L2C
Initialize DRRIP state for LLC
Heartbeat CPU 0 instructions: 10000000 cycles: 2661206 heartbeat IPC: 3.75769 cumulative IPC: 3.75769 (Simulation time: 0 hr 0 min 47 sec) 
Heartbeat CPU 0 instructions: 20000002 cycles: 5356667 heartbeat IPC: 3.70994 cumulative IPC: 3.73367 (Simulation time: 0 hr 1 min 39 sec) 
Heartbeat CPU 0 instructions: 30000002 cycles: 8017133 heartbeat IPC: 3.75874 cumulative IPC: 3.74199 (Simulation time: 0 hr 2 min 29 sec) 
Heartbeat CPU 0 instructions: 40000002 cycles: 10678591 heartbeat IPC: 3.75734 cumulative IPC: 3.74581 (Simulation time: 0 hr 3 min 24 sec) 
Heartbeat CPU 0 instructions: 50000002 cycles: 13339341 heartbeat IPC: 3.75834 cumulative IPC: 3.74831 (Simulation time: 0 hr 4 min 15 sec) 

Warmup complete CPU 0 instructions: 50000002 cycles: 13339341 (Simulation time: 0 hr 4 min 15 sec) 

Heartbeat CPU 0 instructions: 60000002 cycles: 28329660 heartbeat IPC: 0.667097 cumulative IPC: 0.667097 (Simulation time: 0 hr 5 min 0 sec) 
Heartbeat CPU 0 instructions: 70000001 cycles: 43233417 heartbeat IPC: 0.670972 cumulative IPC: 0.669029 (Simulation time: 0 hr 5 min 43 sec) 
Heartbeat CPU 0 instructions: 80000002 cycles: 58154860 heartbeat IPC: 0.670177 cumulative IPC: 0.669411 (Simulation time: 0 hr 6 min 29 sec) 
Heartbeat CPU 0 instructions: 90000001 cycles: 73090052 heartbeat IPC: 0.669559 cumulative IPC: 0.669448 (Simulation time: 0 hr 7 min 16 sec) 
Heartbeat CPU 0 instructions: 100000002 cycles: 88035169 heartbeat IPC: 0.669115 cumulative IPC: 0.669381 (Simulation time: 0 hr 8 min 7 sec) 
Heartbeat CPU 0 instructions: 110000000 cycles: 102970089 heartbeat IPC: 0.669572 cumulative IPC: 0.669413 (Simulation time: 0 hr 8 min 59 sec) 
Heartbeat CPU 0 instructions: 120000000 cycles: 117924212 heartbeat IPC: 0.668712 cumulative IPC: 0.669313 (Simulation time: 0 hr 9 min 47 sec) 
*** Reached end of trace for Core: 0 Repeating trace: traces/spec2k17/server_002.champsimtrace.xz
Heartbeat CPU 0 instructions: 130000003 cycles: 132714604 heartbeat IPC: 0.676115 cumulative IPC: 0.670156 (Simulation time: 0 hr 10 min 32 sec) 
Heartbeat CPU 0 instructions: 140000002 cycles: 149096978 heartbeat IPC: 0.610412 cumulative IPC: 0.662946 (Simulation time: 0 hr 11 min 23 sec) 
Heartbeat CPU 0 instructions: 150000000 cycles: 164018611 heartbeat IPC: 0.670168 cumulative IPC: 0.663661 (Simulation time: 0 hr 12 min 10 sec) 
Heartbeat CPU 0 instructions: 160000000 cycles: 179214452 heartbeat IPC: 0.658075 cumulative IPC: 0.66315 (Simulation time: 0 hr 13 min 1 sec) 
Heartbeat CPU 0 instructions: 170000003 cycles: 194170589 heartbeat IPC: 0.668622 cumulative IPC: 0.663602 (Simulation time: 0 hr 13 min 48 sec) 
Heartbeat CPU 0 instructions: 180000001 cycles: 209111300 heartbeat IPC: 0.669312 cumulative IPC: 0.664038 (Simulation time: 0 hr 14 min 35 sec) 
Heartbeat CPU 0 instructions: 190000001 cycles: 224039838 heartbeat IPC: 0.669858 cumulative IPC: 0.66445 (Simulation time: 0 hr 15 min 24 sec) 
Heartbeat CPU 0 instructions: 200000001 cycles: 238955065 heartbeat IPC: 0.670456 cumulative IPC: 0.664847 (Simulation time: 0 hr 16 min 10 sec) 
Heartbeat CPU 0 instructions: 210000003 cycles: 253875182 heartbeat IPC: 0.670236 cumulative IPC: 0.665182 (Simulation time: 0 hr 16 min 57 sec) 
Heartbeat CPU 0 instructions: 220000000 cycles: 268830781 heartbeat IPC: 0.668646 cumulative IPC: 0.665384 (Simulation time: 0 hr 17 min 46 sec) 
Heartbeat CPU 0 instructions: 230000000 cycles: 283774884 heartbeat IPC: 0.66916 cumulative IPC: 0.665593 (Simulation time: 0 hr 18 min 33 sec) 
Heartbeat CPU 0 instructions: 240000002 cycles: 298720661 heartbeat IPC: 0.669085 cumulative IPC: 0.665776 (Simulation time: 0 hr 19 min 24 sec) 
*** Reached end of trace for Core: 0 Repeating trace: traces/spec2k17/server_002.champsimtrace.xz
Heartbeat CPU 0 instructions: 250000000 cycles: 313690342 heartbeat IPC: 0.668017 cumulative IPC: 0.665888 (Simulation time: 0 hr 20 min 1 sec) 
Finished CPU 0 instructions: 200000002 cycles: 300351003 cumulative IPC: 0.665888 (Simulation time: 0 hr 20 min 1 sec) 

ChampSim completed all CPUs

Region of Interest Statistics

CPU 0 cumulative IPC: 0.665888 instructions: 200000002 cycles: 300351003
ITLB TOTAL     ACCESS:   34082615  HIT:   33093816  MISS:     988799  HIT %:    97.0988  MISS %:    2.90118   MPKI: 4.94399
ITLB LOAD TRANSLATION ACCESS:   34082615  HIT:   33093816  MISS:     988799  HIT %:    97.0988  MISS %:    2.90118   MPKI: 4.94399
ITLB PREFETCH  REQUESTED:          0  ISSUED:          0  USEFUL:          0  USELESS:          0
ITLB USEFUL LOAD PREFETCHES:          0 PREFETCH ISSUED TO LOWER LEVEL:          0  ACCURACY: -nan
ITLB TIMELY PREFETCHES:          0 LATE PREFETCHES: 0 DROPPED PREFETCHES: 0
ITLB PREFETCHES SAME FILL-ORIGIN LEVEL: 0 DIFFERENT FILL-ORIGIN LEVEL: 0
ITLB AVERAGE MISS LATENCY: 9.03147 cycles
ITLB RQ	ACCESS:   38889436	FORWARD:          0	MERGED:    4660864	TO_CACHE:   34228572

DTLB TOTAL     ACCESS:   39013622  HIT:   38094723  MISS:     918899  HIT %:    97.6447  MISS %:    2.35533   MPKI: 4.59449
DTLB LOAD TRANSLATION ACCESS:   39013622  HIT:   38094723  MISS:     918899  HIT %:    97.6447  MISS %:    2.35533   MPKI: 4.59449
DTLB PREFETCH  REQUESTED:          0  ISSUED:          0  USEFUL:          0  USELESS:          0
DTLB USEFUL LOAD PREFETCHES:          0 PREFETCH ISSUED TO LOWER LEVEL:          0  ACCURACY: -nan
DTLB TIMELY PREFETCHES:          0 LATE PREFETCHES: 0 DROPPED PREFETCHES: 0
DTLB PREFETCHES SAME FILL-ORIGIN LEVEL: 0 DIFFERENT FILL-ORIGIN LEVEL: 0
DTLB AVERAGE MISS LATENCY: 9.16742 cycles
DTLB RQ	ACCESS:   57613788	FORWARD:          0	MERGED:   18514172	TO_CACHE:   39099616

STLB TOTAL     ACCESS:    5563529  HIT:    5562141  MISS:       1388  HIT %:    99.9751  MISS %:  0.0249482   MPKI: 0.00694
STLB LOAD TRANSLATION ACCESS:    1907698  HIT:    1906310  MISS:       1388  HIT %:    99.9272  MISS %:  0.0727578   MPKI: 0.00694
STLB TRANSLATION FROM L1D PREFETCHER ACCESS:    3655831  HIT:    3655831  MISS:          0  HIT %:        100  MISS %:          0   MPKI: 0
STLB PREFETCH  REQUESTED:          0  ISSUED:          0  USEFUL:          0  USELESS:          0
STLB USEFUL LOAD PREFETCHES:          0 PREFETCH ISSUED TO LOWER LEVEL:          0  ACCURACY: -nan
STLB TIMELY PREFETCHES:          0 LATE PREFETCHES: 0 DROPPED PREFETCHES: 0
STLB PREFETCHES SAME FILL-ORIGIN LEVEL: 0 DIFFERENT FILL-ORIGIN LEVEL: 0
STLB AVERAGE MISS LATENCY: 129.231 cycles
STLB RQ	ACCESS:    7162957	FORWARD:          0	MERGED:    1599428	TO_CACHE:    5563529

STLB Hit, L1D data hit: 0
STLB Hit, L2C data hit: 0
STLB Hit, LLC data hit: 0
STLB Hit, LLC data miss: 0
STLB STLB hints to L2: 0
L1D TOTAL     ACCESS:   62791166  HIT:   62707375  MISS:      83791  HIT %:    99.8666  MISS %:   0.133444   MPKI: 0.418955
L1D LOAD      ACCESS:   25975340  HIT:   25945258  MISS:      30082  HIT %:    99.8842  MISS %:    0.11581   MPKI: 0.15041
L1D RFO       ACCESS:   31575060  HIT:   31539992  MISS:      35068  HIT %:    99.8889  MISS %:   0.111062   MPKI: 0.17534
L1D PREFETCH  ACCESS:    5240766  HIT:    5222125  MISS:      18641  HIT %:    99.6443  MISS %:   0.355692   MPKI: 0.093205
AGUS PREFETCH L1 MISS: 0
L1D PREFETCH  REQUESTED:   10510944  ISSUED:   10510920  USEFUL:       6010  USELESS:      12720
L1D USEFUL LOAD PREFETCHES:       6010 PREFETCH ISSUED TO LOWER LEVEL:      25155  ACCURACY: 23.8919
L1D TIMELY PREFETCHES:       6010 LATE PREFETCHES: 6503 DROPPED PREFETCHES: 0
L1D PREFETCHES SAME FILL-ORIGIN LEVEL: 25155 DIFFERENT FILL-ORIGIN LEVEL: 0
L1D AVERAGE MISS LATENCY: 1.23217e+07 cycles
L1D RQ	ACCESS:   44305682	FORWARD:          0	MERGED:   17906704	TO_CACHE:   25977349
L1D WQ	ACCESS:   31931576	FORWARD:     422031	MERGED:     295137	TO_CACHE:   31636439
L1D PQ	ACCESS:    5255661	FORWARD:          0	MERGED:          0	TO_CACHE:    5255259

L1D UNIQUE REGIONS ACCESSED: 0
L1D REGIONS CONFLICTS: 0
L1D Cross Page Prefetch Requests: 0
L1D Same Page Prefetch Requests: 6523335
L1D ROI Sum of L1D PQ occupancy: 70305868
L1D PREFETCHES PUSHED FROM L2C: 0
L1I TOTAL     ACCESS:   37964608  HIT:   35021394  MISS:    2943214  HIT %:    92.2475  MISS %:    7.75252   MPKI: 14.7161
L1I LOAD      ACCESS:   37964608  HIT:   35021394  MISS:    2943214  HIT %:    92.2475  MISS %:    7.75252   MPKI: 14.7161
L1I PREFETCH  REQUESTED:          0  ISSUED:          0  USEFUL:          0  USELESS:          0
L1I USEFUL LOAD PREFETCHES:          0 PREFETCH ISSUED TO LOWER LEVEL:          0  ACCURACY: -nan
L1I TIMELY PREFETCHES:          0 LATE PREFETCHES: 0 DROPPED PREFETCHES: 0
L1I PREFETCHES SAME FILL-ORIGIN LEVEL: 0 DIFFERENT FILL-ORIGIN LEVEL: 0
L1I AVERAGE MISS LATENCY: 14.4392 cycles
L1I RQ	ACCESS:   58517941	FORWARD:          0	MERGED:   19628505	TO_CACHE:   38889436

BTB TOTAL     ACCESS:   27373726  HIT:   24469526  MISS:    2904200  HIT %:    89.3906  MISS %:    10.6094   MPKI: 14.521
BTB BRANCH_DIRECT_JUMP	ACCESS:    1709698  HIT:    1678160  MISS:      31538
BTB BRANCH_INDIRECT	ACCESS:   11565575  HIT:   10530298  MISS:    1035277
BTB BRANCH_CONDITIONAL	ACCESS:    4591094  HIT:    4588736  MISS:       2358
BTB BRANCH_DIRECT_CALL	ACCESS:    4331725  HIT:    4266076  MISS:      65649
BTB BRANCH_INDIRECT_CALL	ACCESS:     421962  HIT:     358275  MISS:      63687
BTB BRANCH_RETURN	ACCESS:    4753672  HIT:    3047981  MISS:    1705691
BTB BRANCH_OTHER ACCESS:          0  HIT:          0  MISS:          0

L2C TOTAL     ACCESS:    3071457  HIT:    2987447  MISS:      84010  HIT %:    97.2648  MISS %:    2.73518   MPKI: 0.42005
L2C LOAD      ACCESS:    2966793  HIT:    2937054  MISS:      29739  HIT %:    98.9976  MISS %:     1.0024   MPKI: 0.148695
L2C DATA LOAD MPKI: 0.082265
L2C INSTRUCTION LOAD MPKI: 0.06643
L2C RFO       ACCESS:      35057  HIT:       1849  MISS:      33208  HIT %:    5.27427  MISS %:    94.7257   MPKI: 0.16604
L2C PREFETCH  ACCESS:      25155  HIT:       5681  MISS:      19474  HIT %:     22.584  MISS %:     77.416   MPKI: 0.09737
AGUS PREFETCH L1 MISS: 0
L2C DATA PREFETCH MPKI: 0.09737
L2C INSTRUCTION PREFETCH MPKI: 0
L2C WRITEBACK ACCESS:      42872  HIT:      42102  MISS:        770  HIT %:     98.204  MISS %:    1.79604   MPKI: 0.00385
L2C LOAD TRANSLATION ACCESS:       1580  HIT:        761  MISS:        819  HIT %:    48.1646  MISS %:    51.8354   MPKI: 0.004095
L2C PREFETCH  REQUESTED:          0  ISSUED:          0  USEFUL:        497  USELESS:      18680
L2C USEFUL LOAD PREFETCHES:        497 PREFETCH ISSUED TO LOWER LEVEL:      19474  ACCURACY: 2.55212
L2C TIMELY PREFETCHES:        497 LATE PREFETCHES: 0 DROPPED PREFETCHES: 0
L2C PREFETCHES SAME FILL-ORIGIN LEVEL: 0 DIFFERENT FILL-ORIGIN LEVEL: 0
L2C AVERAGE MISS LATENCY: 215.164 cycles
L2C RQ	ACCESS:    3003430	FORWARD:          0	MERGED:          0	TO_CACHE:    3003430
L2C WQ	ACCESS:      42872	FORWARD:          0	MERGED:          0	TO_CACHE:      42872
L2C PQ	ACCESS:      25155	FORWARD:          0	MERGED:          0	TO_CACHE:      25155

L2C Instructions Evicting Data 11325
L2C Translations Evicting Data 686
L2C Data Evicting Data 57221
L2C Instructions Evicting Instructions 1830
L2C Translations Evicting Instructions 119
L2C Data Evicting Instructions 11167
L2C Instructions Evicting Translations 131
L2C Translations Evicting Translations 14
L2C Data Evicting Translations 747
L2C Dense regions hint from L2: 0
PSCL5 TOTAL     ACCESS:       1388  HIT:       1388  MISS:          0  HIT %:        100  MISS %:          0   MPKI: 0
PSCL5 LOAD TRANSLATION ACCESS:       1388  HIT:       1388  MISS:          0  HIT %:        100  MISS %:          0   MPKI: 0
PSCL5 PREFETCH  REQUESTED:          0  ISSUED:          0  USEFUL:          0  USELESS:          0
PSCL5 USEFUL LOAD PREFETCHES:          0 PREFETCH ISSUED TO LOWER LEVEL:          0  ACCURACY: -nan
PSCL5 TIMELY PREFETCHES:          0 LATE PREFETCHES: 0 DROPPED PREFETCHES: 0
PSCL5 PREFETCHES SAME FILL-ORIGIN LEVEL: 0 DIFFERENT FILL-ORIGIN LEVEL: 0

PSCL4 TOTAL     ACCESS:        862  HIT:        852  MISS:         10  HIT %:    98.8399  MISS %:    1.16009   MPKI: 5e-05
PSCL4 LOAD TRANSLATION ACCESS:        862  HIT:        852  MISS:         10  HIT %:    98.8399  MISS %:    1.16009   MPKI: 5e-05
PSCL4 PREFETCH  REQUESTED:          0  ISSUED:          0  USEFUL:          0  USELESS:          0
PSCL4 USEFUL LOAD PREFETCHES:          0 PREFETCH ISSUED TO LOWER LEVEL:          0  ACCURACY: -nan
PSCL4 TIMELY PREFETCHES:          0 LATE PREFETCHES: 0 DROPPED PREFETCHES: 0
PSCL4 PREFETCHES SAME FILL-ORIGIN LEVEL: 0 DIFFERENT FILL-ORIGIN LEVEL: 0

PSCL3 TOTAL     ACCESS:       1330  HIT:       1320  MISS:         10  HIT %:    99.2481  MISS %:    0.75188   MPKI: 5e-05
PSCL3 LOAD TRANSLATION ACCESS:       1330  HIT:       1320  MISS:         10  HIT %:    99.2481  MISS %:    0.75188   MPKI: 5e-05
PSCL3 PREFETCH  REQUESTED:          0  ISSUED:          0  USEFUL:          0  USELESS:          0
PSCL3 USEFUL LOAD PREFETCHES:          0 PREFETCH ISSUED TO LOWER LEVEL:          0  ACCURACY: -nan
PSCL3 TIMELY PREFETCHES:          0 LATE PREFETCHES: 0 DROPPED PREFETCHES: 0
PSCL3 PREFETCHES SAME FILL-ORIGIN LEVEL: 0 DIFFERENT FILL-ORIGIN LEVEL: 0

PSCL2 TOTAL     ACCESS:       1388  HIT:       1216  MISS:        172  HIT %:    87.6081  MISS %:    12.3919   MPKI: 0.00086
PSCL2 LOAD TRANSLATION ACCESS:       1388  HIT:       1216  MISS:        172  HIT %:    87.6081  MISS %:    12.3919   MPKI: 0.00086
PSCL2 PREFETCH  REQUESTED:          0  ISSUED:          0  USEFUL:          0  USELESS:          0
PSCL2 USEFUL LOAD PREFETCHES:          0 PREFETCH ISSUED TO LOWER LEVEL:          0  ACCURACY: -nan
PSCL2 TIMELY PREFETCHES:          0 LATE PREFETCHES: 0 DROPPED PREFETCHES: 0
PSCL2 PREFETCHES SAME FILL-ORIGIN LEVEL: 0 DIFFERENT FILL-ORIGIN LEVEL: 0

LLC TOTAL     ACCESS:     121479  HIT:      62571  MISS:      58908  HIT %:    51.5077  MISS %:    48.4923   MPKI: 0.29454
LLC LOAD      ACCESS:      29739  HIT:      11842  MISS:      17897  HIT %:    39.8198  MISS %:    60.1802   MPKI: 0.089485
LLC RFO       ACCESS:      33208  HIT:       8110  MISS:      25098  HIT %:    24.4218  MISS %:    75.5782   MPKI: 0.12549
LLC PREFETCH  ACCESS:      19474  HIT:       4498  MISS:      14976  HIT %:    23.0975  MISS %:    76.9025   MPKI: 0.07488
AGUS PREFETCH L1 MISS: 0
LLC WRITEBACK ACCESS:      38239  HIT:      37827  MISS:        412  HIT %:    98.9226  MISS %:    1.07743   MPKI: 0.00206
LLC LOAD TRANSLATION ACCESS:        819  HIT:        294  MISS:        525  HIT %:    35.8974  MISS %:    64.1026   MPKI: 0.002625
LLC PREFETCH  REQUESTED:          0  ISSUED:          0  USEFUL:        893  USELESS:      13964
LLC USEFUL LOAD PREFETCHES:        893 PREFETCH ISSUED TO LOWER LEVEL:      14976  ACCURACY: 5.96287
LLC TIMELY PREFETCHES:        893 LATE PREFETCHES: 0 DROPPED PREFETCHES: 0
LLC PREFETCHES SAME FILL-ORIGIN LEVEL: 0 DIFFERENT FILL-ORIGIN LEVEL: 0
LLC AVERAGE MISS LATENCY: 264.439 cycles
LLC RQ	ACCESS:      63766	FORWARD:          0	MERGED:          0	TO_CACHE:      63766
LLC WQ	ACCESS:      38239	FORWARD:          0	MERGED:          0	TO_CACHE:      38239
LLC PQ	ACCESS:      19474	FORWARD:          0	MERGED:          0	TO_CACHE:      19474

LLC Dense regions hint to LLC: 0

RAW hits: 3793283
Loads Generated: 48098966
Loads sent to L1D: 44305682
Stores Generated: 31931560
Stores sent to L1D: 31931576
Major fault: 0 Minor fault: 2002
Allocated PAGES: 2002

stream: 
stream:times selected: 7086086
stream:pref_filled: 18291
stream:pref_useful: 4905
stream:pref_late: 529
stream:misses: 2700
stream:misses_by_poll: 0

CS: 
CS:times selected: 2839430
CS:pref_filled: 16974
CS:pref_useful: 16411
CS:pref_late: 6545
CS:misses: 14689
CS:misses_by_poll: 13

CPLX: 
CPLX:times selected: 4245682
CPLX:pref_filled: 12405
CPLX:pref_useful: 1146
CPLX:pref_late: 42
CPLX:misses: 8336
CPLX:misses_by_poll: 11

NL_L1: 
NL:times selected: 72112
NL:pref_filled: 201
NL:pref_useful: 22
NL:pref_late: 0
NL:misses: 204
NL:misses_by_poll: 0

total selections: 14243310
total_filled: 18641
total_useful: 6010
total_late: 7260
total_polluted: 24
total_misses_after_warmup: 32091
conflicts: 6489735
Degree Incremented Times: 2339
Degree Decremented Times: 174137

L1 IP Table Write Accesses: 16305355
L1 IP Table Read Accesses: 9815620
L1 RST Write Accesses: 5826228
L1 RST Read Accesses: 11652456
L1 CSPT Write Accesses: 5826228
L1 CSPT Read Accesses: 9201175
L1 RR Filter Tag Write Accesses: 5255685
L1 RR Filter Tag Read Accesses: 468460456
L1 IP Table Tag Write Accesses: 25977349
L1 IP Table Tag Read Accesses: 25977349
L1 RST Tag Write Accesses: 0
L1 RST Tag Read Accesses: 49830639
L1 RR Filter Write Accesses: 0
L1 RR Filter Read Accesses: 15357798
test: 2575141

DRAM Statistics
 CHANNEL 0
 RQ ROW_BUFFER_HIT:      24695  ROW_BUFFER_MISS:      33801
 DBUS_CONGESTED:         17
 WQ ROW_BUFFER_HIT:       8061  ROW_BUFFER_MISS:      23911  FULL:          0

 AVG_CONGESTED_CYCLE: 4
 All warmup complete: 2
Channel 0 Bank busy for read cycles: 0
Channel 0 Bank busy for write cycles: 0
Channel 0
Rank 0
0banks busy for read cycles: 296332166
0banks busy for write cycles: 3381
1banks busy for read cycles: 1261107
1banks busy for write cycles: 516318
2banks busy for read cycles: 380595
2banks busy for write cycles: 269423
3banks busy for read cycles: 167890
3banks busy for write cycles: 150861
4banks busy for read cycles: 96165
4banks busy for write cycles: 97154
5banks busy for read cycles: 61666
5banks busy for write cycles: 68749
6banks busy for read cycles: 71339
6banks busy for write cycles: 62313
7banks busy for read cycles: 99543
7banks busy for write cycles: 83210
8banks busy for read cycles: 268519
8banks busy for write cycles: 360605

CPU 0 Branch Prediction Accuracy: 99.8625% MPKI: 0.21409 Average ROB Occupancy at Mispredict: 14.9485
Branch types
NOT_BRANCH: 168868804 84.4344%
BRANCH_DIRECT_JUMP: 1709698 0.854849%
BRANCH_INDIRECT: 11565575 5.78279%
BRANCH_CONDITIONAL: 8348252 4.17413%
BRANCH_DIRECT_CALL: 4331725 2.16586%
BRANCH_INDIRECT_CALL: 421962 0.210981%
BRANCH_RETURN: 4753672 2.37684%
BRANCH_OTHER: 0 0%

DRAM PAGES: 1048576
Allocated PAGES: 2002
