
*** ChampSim Multicore Out-of-Order Simulator ***

Warmup Instructions: 50000000
Simulation Instructions: 200000000
Number of CPUs: 1
LLC sets: 2048
LLC ways: 16
Off-chip DRAM Size: 4096 MB Channels: 1 Width: 64-bit Data Rate: 6400 MT/s
CPU 0 runs traces/spec2k17/srv_27.champsimtrace.xz
.xz
BTB has LRU replacement policy
ITLB has LRU replacement policy
DTLB has LRU replacement policy
STLB has LRU replacement policy
L1I has LRU replacement policy
IP Table Entries: 1024
CSPT Entries: 128
RR_ENTRIES: 32
RST_ENTRIES: 8
L1D has LRU replacement policy
Initialize SRRIP state for L2C
Initialize DRRIP state for LLC
Heartbeat CPU 0 instructions: 10000001 cycles: 2808962 heartbeat IPC: 3.56003 cumulative IPC: 3.56003 (Simulation time: 0 hr 0 min 48 sec) 
Heartbeat CPU 0 instructions: 20000002 cycles: 5614413 heartbeat IPC: 3.56449 cumulative IPC: 3.56226 (Simulation time: 0 hr 1 min 41 sec) 
Heartbeat CPU 0 instructions: 30000001 cycles: 8421356 heartbeat IPC: 3.56259 cumulative IPC: 3.56237 (Simulation time: 0 hr 2 min 43 sec) 
*** Reached end of trace for Core: 0 Repeating trace: traces/spec2k17/srv_27.champsimtrace.xz
Heartbeat CPU 0 instructions: 40000001 cycles: 11226254 heartbeat IPC: 3.56519 cumulative IPC: 3.56308 (Simulation time: 0 hr 3 min 34 sec) 
Heartbeat CPU 0 instructions: 50000000 cycles: 14031223 heartbeat IPC: 3.5651 cumulative IPC: 3.56348 (Simulation time: 0 hr 4 min 26 sec) 

Warmup complete CPU 0 instructions: 50000004 cycles: 14031224 (Simulation time: 0 hr 4 min 26 sec) 

Heartbeat CPU 0 instructions: 60000002 cycles: 27829427 heartbeat IPC: 0.724732 cumulative IPC: 0.724732 (Simulation time: 0 hr 5 min 12 sec) 
*** Reached end of trace for Core: 0 Repeating trace: traces/spec2k17/srv_27.champsimtrace.xz
Heartbeat CPU 0 instructions: 70000003 cycles: 41785481 heartbeat IPC: 0.716535 cumulative IPC: 0.72061 (Simulation time: 0 hr 5 min 55 sec) 
Heartbeat CPU 0 instructions: 80000000 cycles: 55666030 heartbeat IPC: 0.720432 cumulative IPC: 0.720551 (Simulation time: 0 hr 6 min 47 sec) 
Heartbeat CPU 0 instructions: 90000000 cycles: 69372939 heartbeat IPC: 0.729559 cumulative IPC: 0.722782 (Simulation time: 0 hr 7 min 32 sec) 
*** Reached end of trace for Core: 0 Repeating trace: traces/spec2k17/srv_27.champsimtrace.xz
Heartbeat CPU 0 instructions: 100000000 cycles: 83340777 heartbeat IPC: 0.71593 cumulative IPC: 0.721401 (Simulation time: 0 hr 8 min 20 sec) 
Heartbeat CPU 0 instructions: 110000000 cycles: 97139041 heartbeat IPC: 0.724729 cumulative IPC: 0.721954 (Simulation time: 0 hr 9 min 5 sec) 
Heartbeat CPU 0 instructions: 120000000 cycles: 110877383 heartbeat IPC: 0.72789 cumulative IPC: 0.722796 (Simulation time: 0 hr 9 min 51 sec) 
*** Reached end of trace for Core: 0 Repeating trace: traces/spec2k17/srv_27.champsimtrace.xz
Heartbeat CPU 0 instructions: 130000001 cycles: 124872678 heartbeat IPC: 0.714526 cumulative IPC: 0.721752 (Simulation time: 0 hr 10 min 37 sec) 
Heartbeat CPU 0 instructions: 140000001 cycles: 138348680 heartbeat IPC: 0.74206 cumulative IPC: 0.723953 (Simulation time: 0 hr 11 min 24 sec) 
Heartbeat CPU 0 instructions: 150000001 cycles: 152353047 heartbeat IPC: 0.714063 cumulative IPC: 0.722952 (Simulation time: 0 hr 12 min 10 sec) 
*** Reached end of trace for Core: 0 Repeating trace: traces/spec2k17/srv_27.champsimtrace.xz
Heartbeat CPU 0 instructions: 160000002 cycles: 166261805 heartbeat IPC: 0.718972 cumulative IPC: 0.722588 (Simulation time: 0 hr 12 min 58 sec) 
Heartbeat CPU 0 instructions: 170000001 cycles: 179837799 heartbeat IPC: 0.736594 cumulative IPC: 0.723735 (Simulation time: 0 hr 13 min 45 sec) 
Heartbeat CPU 0 instructions: 180000001 cycles: 193789008 heartbeat IPC: 0.716784 cumulative IPC: 0.723195 (Simulation time: 0 hr 14 min 34 sec) 
Heartbeat CPU 0 instructions: 190000002 cycles: 207549118 heartbeat IPC: 0.726738 cumulative IPC: 0.723447 (Simulation time: 0 hr 15 min 23 sec) 
*** Reached end of trace for Core: 0 Repeating trace: traces/spec2k17/srv_27.champsimtrace.xz
Heartbeat CPU 0 instructions: 200000003 cycles: 220826707 heartbeat IPC: 0.753149 cumulative IPC: 0.725354 (Simulation time: 0 hr 16 min 10 sec) 
Heartbeat CPU 0 instructions: 210000002 cycles: 234314180 heartbeat IPC: 0.741429 cumulative IPC: 0.726339 (Simulation time: 0 hr 16 min 56 sec) 
Heartbeat CPU 0 instructions: 220000000 cycles: 247778052 heartbeat IPC: 0.742728 cumulative IPC: 0.727283 (Simulation time: 0 hr 17 min 42 sec) 
*** Reached end of trace for Core: 0 Repeating trace: traces/spec2k17/srv_27.champsimtrace.xz
Heartbeat CPU 0 instructions: 230000001 cycles: 261381902 heartbeat IPC: 0.735086 cumulative IPC: 0.727712 (Simulation time: 0 hr 18 min 30 sec) 
Heartbeat CPU 0 instructions: 240000003 cycles: 274690072 heartbeat IPC: 0.751418 cumulative IPC: 0.728922 (Simulation time: 0 hr 19 min 18 sec) 
Heartbeat CPU 0 instructions: 250000000 cycles: 288287543 heartbeat IPC: 0.735431 cumulative IPC: 0.729245 (Simulation time: 0 hr 20 min 5 sec) 
Finished CPU 0 instructions: 200000002 cycles: 274256339 cumulative IPC: 0.729245 (Simulation time: 0 hr 20 min 5 sec) 

ChampSim completed all CPUs

Region of Interest Statistics

CPU 0 cumulative IPC: 0.729245 instructions: 200000002 cycles: 274256339
ITLB TOTAL     ACCESS:   32431067  HIT:   32328773  MISS:     102294  HIT %:    99.6846  MISS %:    0.31542   MPKI: 0.51147
ITLB LOAD TRANSLATION ACCESS:   32431067  HIT:   32328773  MISS:     102294  HIT %:    99.6846  MISS %:    0.31542   MPKI: 0.51147
ITLB PREFETCH  REQUESTED:          0  ISSUED:          0  USEFUL:          0  USELESS:          0
ITLB USEFUL LOAD PREFETCHES:          0 PREFETCH ISSUED TO LOWER LEVEL:          0  ACCURACY: -nan
ITLB TIMELY PREFETCHES:          0 LATE PREFETCHES: 0 DROPPED PREFETCHES: 0
ITLB PREFETCHES SAME FILL-ORIGIN LEVEL: 0 DIFFERENT FILL-ORIGIN LEVEL: 0
ITLB AVERAGE MISS LATENCY: 10.64 cycles
ITLB RQ	ACCESS:   38228542	FORWARD:          0	MERGED:    5763953	TO_CACHE:   32464589

DTLB TOTAL     ACCESS:   40750217  HIT:   38970412  MISS:    1779805  HIT %:    95.6324  MISS %:     4.3676   MPKI: 8.89902
DTLB LOAD TRANSLATION ACCESS:   40750217  HIT:   38970412  MISS:    1779805  HIT %:    95.6324  MISS %:     4.3676   MPKI: 8.89902
DTLB PREFETCH  REQUESTED:          0  ISSUED:          0  USEFUL:          0  USELESS:          0
DTLB USEFUL LOAD PREFETCHES:          0 PREFETCH ISSUED TO LOWER LEVEL:          0  ACCURACY: -nan
DTLB TIMELY PREFETCHES:          0 LATE PREFETCHES: 0 DROPPED PREFETCHES: 0
DTLB PREFETCHES SAME FILL-ORIGIN LEVEL: 0 DIFFERENT FILL-ORIGIN LEVEL: 0
DTLB AVERAGE MISS LATENCY: 10.7653 cycles
DTLB RQ	ACCESS:   54716343	FORWARD:          0	MERGED:   13765452	TO_CACHE:   40950891

STLB TOTAL     ACCESS:    5005571  HIT:    4920008  MISS:      85563  HIT %:    98.2906  MISS %:    1.70936   MPKI: 0.427815
STLB LOAD TRANSLATION ACCESS:    1882099  HIT:    1796550  MISS:      85549  HIT %:    95.4546  MISS %:     4.5454   MPKI: 0.427745
STLB TRANSLATION FROM L1D PREFETCHER ACCESS:    3123472  HIT:    3123458  MISS:         14  HIT %:    99.9996  MISS %: 0.000448219   MPKI: 7e-05
STLB PREFETCH  REQUESTED:          0  ISSUED:          0  USEFUL:         12  USELESS:          3
STLB USEFUL LOAD PREFETCHES:         12 PREFETCH ISSUED TO LOWER LEVEL:          0  ACCURACY: inf
STLB TIMELY PREFETCHES:         12 LATE PREFETCHES: 0 DROPPED PREFETCHES: 0
STLB PREFETCHES SAME FILL-ORIGIN LEVEL: 0 DIFFERENT FILL-ORIGIN LEVEL: 0
STLB AVERAGE MISS LATENCY: 38.6383 cycles
STLB RQ	ACCESS:    6034852	FORWARD:          0	MERGED:    1029281	TO_CACHE:    5005571

STLB Hit, L1D data hit: 0
STLB Hit, L2C data hit: 0
STLB Hit, LLC data hit: 0
STLB Hit, LLC data miss: 0
STLB STLB hints to L2: 0
L1D TOTAL     ACCESS:   58239803  HIT:   57595931  MISS:     643872  HIT %:    98.8944  MISS %:    1.10555   MPKI: 3.21936
L1D LOAD      ACCESS:   30750390  HIT:   30431099  MISS:     319291  HIT %:    98.9617  MISS %:    1.03833   MPKI: 1.59645
L1D RFO       ACCESS:   23400379  HIT:   23286413  MISS:     113966  HIT %:     99.513  MISS %:   0.487026   MPKI: 0.56983
L1D PREFETCH  ACCESS:    4089034  HIT:    3878419  MISS:     210615  HIT %:    94.8493  MISS %:    5.15073   MPKI: 1.05307
AGUS PREFETCH L1 MISS: 0
L1D PREFETCH  REQUESTED:    8308261  ISSUED:    8306788  USEFUL:      46535  USELESS:     164097
L1D USEFUL LOAD PREFETCHES:      46535 PREFETCH ISSUED TO LOWER LEVEL:     243927  ACCURACY: 19.0774
L1D TIMELY PREFETCHES:      46535 LATE PREFETCHES: 33258 DROPPED PREFETCHES: 0
L1D PREFETCHES SAME FILL-ORIGIN LEVEL: 243927 DIFFERENT FILL-ORIGIN LEVEL: 0
L1D AVERAGE MISS LATENCY: 7.85332e+06 cycles
L1D RQ	ACCESS:   49495823	FORWARD:          0	MERGED:   18528961	TO_CACHE:   30846283
L1D WQ	ACCESS:   24124410	FORWARD:     121861	MERGED:     254350	TO_CACHE:   23870060
L1D PQ	ACCESS:    4154035	FORWARD:          0	MERGED:          0	TO_CACHE:    4152753

L1D UNIQUE REGIONS ACCESSED: 0
L1D REGIONS CONFLICTS: 0
L1D Cross Page Prefetch Requests: 0
L1D Same Page Prefetch Requests: 5116335
L1D ROI Sum of L1D PQ occupancy: 53749727
L1D PREFETCHES PUSHED FROM L2C: 0
L1I TOTAL     ACCESS:   38044206  HIT:   37436745  MISS:     607461  HIT %:    98.4033  MISS %:    1.59672   MPKI: 3.0373
L1I LOAD      ACCESS:   38044206  HIT:   37436745  MISS:     607461  HIT %:    98.4033  MISS %:    1.59672   MPKI: 3.0373
L1I PREFETCH  REQUESTED:          0  ISSUED:          0  USEFUL:          0  USELESS:          0
L1I USEFUL LOAD PREFETCHES:          0 PREFETCH ISSUED TO LOWER LEVEL:          0  ACCURACY: -nan
L1I TIMELY PREFETCHES:          0 LATE PREFETCHES: 0 DROPPED PREFETCHES: 0
L1I PREFETCHES SAME FILL-ORIGIN LEVEL: 0 DIFFERENT FILL-ORIGIN LEVEL: 0
L1I AVERAGE MISS LATENCY: 16.698 cycles
L1I RQ	ACCESS:   60442665	FORWARD:          0	MERGED:   22214123	TO_CACHE:   38228542

BTB TOTAL     ACCESS:   29347733  HIT:   27692669  MISS:    1655064  HIT %:    94.3605  MISS %:     5.6395   MPKI: 8.27532
BTB BRANCH_DIRECT_JUMP	ACCESS:    2290071  HIT:    2288950  MISS:       1121
BTB BRANCH_INDIRECT	ACCESS:   12563222  HIT:   12018859  MISS:     544363
BTB BRANCH_CONDITIONAL	ACCESS:    6926945  HIT:    6925297  MISS:       1648
BTB BRANCH_DIRECT_CALL	ACCESS:    3333321  HIT:    3330170  MISS:       3151
BTB BRANCH_INDIRECT_CALL	ACCESS:     450445  HIT:     256847  MISS:     193598
BTB BRANCH_RETURN	ACCESS:    3783729  HIT:    2872546  MISS:     911183
BTB BRANCH_OTHER ACCESS:          0  HIT:          0  MISS:          0

L2C TOTAL     ACCESS:    1531902  HIT:     904686  MISS:     627216  HIT %:    59.0564  MISS %:    40.9436   MPKI: 3.13608
L2C LOAD      ACCESS:     893471  HIT:     615350  MISS:     278121  HIT %:    68.8718  MISS %:    31.1282   MPKI: 1.3906
L2C DATA LOAD MPKI: 1.20502
L2C INSTRUCTION LOAD MPKI: 0.18558
L2C RFO       ACCESS:     113907  HIT:       8886  MISS:     105021  HIT %:     7.8011  MISS %:    92.1989   MPKI: 0.525105
L2C PREFETCH  ACCESS:     243927  HIT:      32766  MISS:     211161  HIT %:    13.4327  MISS %:    86.5673   MPKI: 1.0558
AGUS PREFETCH L1 MISS: 0
L2C DATA PREFETCH MPKI: 1.0558
L2C INSTRUCTION PREFETCH MPKI: 0
L2C WRITEBACK ACCESS:     157676  HIT:     153263  MISS:       4413  HIT %:    97.2012  MISS %:    2.79878   MPKI: 0.022065
L2C LOAD TRANSLATION ACCESS:     122899  HIT:      94407  MISS:      28492  HIT %:    76.8167  MISS %:    23.1833   MPKI: 0.14246
L2C TRANSLATION FROM L1D PREFETCHER ACCESS:         22  HIT:         14  MISS:          8  HIT %:    63.6364  MISS %:    36.3636   MPKI: 4e-05
L2C PREFETCH  REQUESTED:          0  ISSUED:          0  USEFUL:       3550  USELESS:     207128
L2C USEFUL LOAD PREFETCHES:       3550 PREFETCH ISSUED TO LOWER LEVEL:     211161  ACCURACY: 1.68118
L2C TIMELY PREFETCHES:       3550 LATE PREFETCHES: 0 DROPPED PREFETCHES: 0
L2C PREFETCHES SAME FILL-ORIGIN LEVEL: 0 DIFFERENT FILL-ORIGIN LEVEL: 0
L2C AVERAGE MISS LATENCY: 115.469 cycles
L2C RQ	ACCESS:    1130327	FORWARD:          0	MERGED:          0	TO_CACHE:    1130299
L2C WQ	ACCESS:     157676	FORWARD:         28	MERGED:          0	TO_CACHE:     157676
L2C PQ	ACCESS:     243927	FORWARD:          0	MERGED:          0	TO_CACHE:     243927

L2C Instructions Evicting Data 33812
L2C Translations Evicting Data 25347
L2C Data Evicting Data 498331
L2C Instructions Evicting Instructions 1683
L2C Translations Evicting Instructions 1739
L2C Data Evicting Instructions 33924
L2C Instructions Evicting Translations 1621
L2C Translations Evicting Translations 1414
L2C Data Evicting Translations 24932
L2C Dense regions hint from L2: 0
PSCL5 TOTAL     ACCESS:      85563  HIT:      85563  MISS:          0  HIT %:        100  MISS %:          0   MPKI: 0
PSCL5 LOAD TRANSLATION ACCESS:      85549  HIT:      85549  MISS:          0  HIT %:        100  MISS %:          0   MPKI: 0
PSCL5 TRANSLATION FROM L1D PREFETCHER ACCESS:         14  HIT:         14  MISS:          0  HIT %:        100  MISS %:          0   MPKI: 0
PSCL5 PREFETCH  REQUESTED:          0  ISSUED:          0  USEFUL:          0  USELESS:          0
PSCL5 USEFUL LOAD PREFETCHES:          0 PREFETCH ISSUED TO LOWER LEVEL:          0  ACCURACY: -nan
PSCL5 TIMELY PREFETCHES:          0 LATE PREFETCHES: 0 DROPPED PREFETCHES: 0
PSCL5 PREFETCHES SAME FILL-ORIGIN LEVEL: 0 DIFFERENT FILL-ORIGIN LEVEL: 0

PSCL4 TOTAL     ACCESS:      83643  HIT:      83541  MISS:        102  HIT %:    99.8781  MISS %:   0.121947   MPKI: 0.00051
PSCL4 LOAD TRANSLATION ACCESS:      83629  HIT:      83527  MISS:        102  HIT %:     99.878  MISS %:   0.121967   MPKI: 0.00051
PSCL4 TRANSLATION FROM L1D PREFETCHER ACCESS:         14  HIT:         14  MISS:          0  HIT %:        100  MISS %:          0   MPKI: 0
PSCL4 PREFETCH  REQUESTED:          0  ISSUED:          0  USEFUL:          0  USELESS:          0
PSCL4 USEFUL LOAD PREFETCHES:          0 PREFETCH ISSUED TO LOWER LEVEL:          0  ACCURACY: -nan
PSCL4 TIMELY PREFETCHES:          0 LATE PREFETCHES: 0 DROPPED PREFETCHES: 0
PSCL4 PREFETCHES SAME FILL-ORIGIN LEVEL: 0 DIFFERENT FILL-ORIGIN LEVEL: 0

PSCL3 TOTAL     ACCESS:      85343  HIT:      84966  MISS:        377  HIT %:    99.5583  MISS %:   0.441747   MPKI: 0.001885
PSCL3 LOAD TRANSLATION ACCESS:      85329  HIT:      84952  MISS:        377  HIT %:    99.5582  MISS %:   0.441819   MPKI: 0.001885
PSCL3 TRANSLATION FROM L1D PREFETCHER ACCESS:         14  HIT:         14  MISS:          0  HIT %:        100  MISS %:          0   MPKI: 0
PSCL3 PREFETCH  REQUESTED:          0  ISSUED:          0  USEFUL:          0  USELESS:          0
PSCL3 USEFUL LOAD PREFETCHES:          0 PREFETCH ISSUED TO LOWER LEVEL:          0  ACCURACY: -nan
PSCL3 TIMELY PREFETCHES:          0 LATE PREFETCHES: 0 DROPPED PREFETCHES: 0
PSCL3 PREFETCHES SAME FILL-ORIGIN LEVEL: 0 DIFFERENT FILL-ORIGIN LEVEL: 0

PSCL2 TOTAL     ACCESS:      85563  HIT:      48684  MISS:      36879  HIT %:    56.8984  MISS %:    43.1016   MPKI: 0.184395
PSCL2 LOAD TRANSLATION ACCESS:      85557  HIT:      48678  MISS:      36879  HIT %:    56.8954  MISS %:    43.1046   MPKI: 0.184395
PSCL2 TRANSLATION FROM L1D PREFETCHER ACCESS:          6  HIT:          6  MISS:          0  HIT %:        100  MISS %:          0   MPKI: 0
PSCL2 PREFETCH  REQUESTED:          0  ISSUED:          0  USEFUL:          0  USELESS:          0
PSCL2 USEFUL LOAD PREFETCHES:          0 PREFETCH ISSUED TO LOWER LEVEL:          0  ACCURACY: -nan
PSCL2 TIMELY PREFETCHES:          0 LATE PREFETCHES: 0 DROPPED PREFETCHES: 0
PSCL2 PREFETCHES SAME FILL-ORIGIN LEVEL: 0 DIFFERENT FILL-ORIGIN LEVEL: 0

LLC TOTAL     ACCESS:     763223  HIT:     412863  MISS:     350360  HIT %:    54.0947  MISS %:    45.9053   MPKI: 1.7518
LLC LOAD      ACCESS:     278121  HIT:     122502  MISS:     155619  HIT %:    44.0463  MISS %:    55.9537   MPKI: 0.778095
LLC RFO       ACCESS:     105021  HIT:      67353  MISS:      37668  HIT %:    64.1329  MISS %:    35.8671   MPKI: 0.18834
LLC PREFETCH  ACCESS:     211160  HIT:      63097  MISS:     148063  HIT %:    29.8811  MISS %:    70.1189   MPKI: 0.740315
AGUS PREFETCH L1 MISS: 0
LLC WRITEBACK ACCESS:     140421  HIT:     133698  MISS:       6723  HIT %:    95.2123  MISS %:    4.78775   MPKI: 0.033615
LLC LOAD TRANSLATION ACCESS:      28492  HIT:      26207  MISS:       2285  HIT %:    91.9802  MISS %:     8.0198   MPKI: 0.011425
LLC TRANSLATION FROM L1D PREFETCHER ACCESS:          8  HIT:          6  MISS:          2  HIT %:         75  MISS %:         25   MPKI: 1e-05
LLC PREFETCH  REQUESTED:          0  ISSUED:          0  USEFUL:       2405  USELESS:     146892
LLC USEFUL LOAD PREFETCHES:       2405 PREFETCH ISSUED TO LOWER LEVEL:     148063  ACCURACY: 1.62431
LLC TIMELY PREFETCHES:       2405 LATE PREFETCHES: 0 DROPPED PREFETCHES: 0
LLC PREFETCHES SAME FILL-ORIGIN LEVEL: 0 DIFFERENT FILL-ORIGIN LEVEL: 0
LLC AVERAGE MISS LATENCY: 153.379 cycles
LLC RQ	ACCESS:     411642	FORWARD:          0	MERGED:          0	TO_CACHE:     411642
LLC WQ	ACCESS:     140421	FORWARD:          1	MERGED:          0	TO_CACHE:     140421
LLC PQ	ACCESS:     211161	FORWARD:          0	MERGED:          0	TO_CACHE:     211160

LLC Dense regions hint to LLC: 0

RAW hits: 2367129
Loads Generated: 51862954
Loads sent to L1D: 49495823
Stores Generated: 24124397
Stores sent to L1D: 24124410
Major fault: 0 Minor fault: 6082
Allocated PAGES: 6082

stream: 
stream:times selected: 7394539
stream:pref_filled: 148566
stream:pref_useful: 15286
stream:pref_late: 4503
stream:misses: 22766
stream:misses_by_poll: 0

CS: 
CS:times selected: 4048533
CS:pref_filled: 60592
CS:pref_useful: 48652
CS:pref_late: 26440
CS:misses: 51575
CS:misses_by_poll: 51

CPLX: 
CPLX:times selected: 3341691
CPLX:pref_filled: 53132
CPLX:pref_useful: 3611
CPLX:pref_late: 1066
CPLX:misses: 124091
CPLX:misses_by_poll: 107

NL_L1: 
NL:times selected: 14777
NL:pref_filled: 483
NL:pref_useful: 43
NL:pref_late: 21
NL:misses: 1704
NL:misses_by_poll: 0

total selections: 14799540
total_filled: 210615
total_useful: 46535
total_late: 35084
total_polluted: 158
total_misses_after_warmup: 415183
conflicts: 4527302
Degree Incremented Times: 323293
Degree Decremented Times: 358319

L1 IP Table Write Accesses: 23568077
L1 IP Table Read Accesses: 19040775
L1 RST Write Accesses: 5923378
L1 RST Read Accesses: 11846756
L1 CSPT Write Accesses: 5923378
L1 CSPT Read Accesses: 8636895
L1 RR Filter Tag Write Accesses: 4155508
L1 RR Filter Tag Read Accesses: 542940743
L1 IP Table Tag Write Accesses: 30846282
L1 IP Table Tag Read Accesses: 30846282
L1 RST Tag Write Accesses: 0
L1 RST Tag Read Accesses: 65090719
L1 RR Filter Write Accesses: 0
L1 RR Filter Read Accesses: 17858983
test: 517309

DRAM Statistics
 CHANNEL 0
 RQ ROW_BUFFER_HIT:      69998  ROW_BUFFER_MISS:     273600
 DBUS_CONGESTED:        216
 WQ ROW_BUFFER_HIT:       7443  ROW_BUFFER_MISS:      40427  FULL:          0

 AVG_CONGESTED_CYCLE: 5
 All warmup complete: 2
Channel 0 Bank busy for read cycles: 0
Channel 0 Bank busy for write cycles: 0
Channel 0
Rank 0
0banks busy for read cycles: 242937955
0banks busy for write cycles: 27014
1banks busy for read cycles: 12862285
1banks busy for write cycles: 4291695
2banks busy for read cycles: 9225470
2banks busy for write cycles: 1031404
3banks busy for read cycles: 2109316
3banks busy for write cycles: 238819
4banks busy for read cycles: 334888
4banks busy for write cycles: 86881
5banks busy for read cycles: 220871
5banks busy for write cycles: 56695
6banks busy for read cycles: 202613
6banks busy for write cycles: 56200
7banks busy for read cycles: 195937
7banks busy for write cycles: 59157
8banks busy for read cycles: 233683
8banks busy for write cycles: 85457

CPU 0 Branch Prediction Accuracy: 99.7868% MPKI: 0.389745 Average ROB Occupancy at Mispredict: 19.3177
Branch types
NOT_BRANCH: 163431817 81.7159%
BRANCH_DIRECT_JUMP: 2290071 1.14504%
BRANCH_INDIRECT: 12563222 6.28161%
BRANCH_CONDITIONAL: 14147089 7.07354%
BRANCH_DIRECT_CALL: 3333321 1.66666%
BRANCH_INDIRECT_CALL: 450445 0.225222%
BRANCH_RETURN: 3783729 1.89186%
BRANCH_OTHER: 0 0%

DRAM PAGES: 1048576
Allocated PAGES: 6082
