
*** ChampSim Multicore Out-of-Order Simulator ***

Warmup Instructions: 50000000
Simulation Instructions: 200000000
Number of CPUs: 1
LLC sets: 2048
LLC ways: 16
Off-chip DRAM Size: 4096 MB Channels: 1 Width: 64-bit Data Rate: 6400 MT/s
CPU 0 runs traces/spec2k17/srv_26.champsimtrace.xz
.xz
BTB has LRU replacement policy
ITLB has LRU replacement policy
DTLB has LRU replacement policy
STLB has LRU replacement policy
L1I has LRU replacement policy
IP Table Entries: 1024
CSPT Entries: 128
RR_ENTRIES: 32
RST_ENTRIES: 8
L1D has LRU replacement policy
Initialize SRRIP state for L2C
Initialize DRRIP state for LLC
Heartbeat CPU 0 instructions: 10000003 cycles: 2824210 heartbeat IPC: 3.54081 cumulative IPC: 3.54081 (Simulation time: 0 hr 0 min 49 sec) 
Heartbeat CPU 0 instructions: 20000000 cycles: 5645153 heartbeat IPC: 3.54491 cumulative IPC: 3.54286 (Simulation time: 0 hr 1 min 38 sec) 
Heartbeat CPU 0 instructions: 30000000 cycles: 8463994 heartbeat IPC: 3.54756 cumulative IPC: 3.54443 (Simulation time: 0 hr 2 min 27 sec) 
*** Reached end of trace for Core: 0 Repeating trace: traces/spec2k17/srv_26.champsimtrace.xz
Heartbeat CPU 0 instructions: 40000003 cycles: 11281356 heartbeat IPC: 3.54942 cumulative IPC: 3.54567 (Simulation time: 0 hr 3 min 17 sec) 
Heartbeat CPU 0 instructions: 50000000 cycles: 14100905 heartbeat IPC: 3.54667 cumulative IPC: 3.54587 (Simulation time: 0 hr 4 min 8 sec) 

Warmup complete CPU 0 instructions: 50000004 cycles: 14100906 (Simulation time: 0 hr 4 min 8 sec) 

Heartbeat CPU 0 instructions: 60000001 cycles: 46316573 heartbeat IPC: 0.310408 cumulative IPC: 0.310408 (Simulation time: 0 hr 5 min 9 sec) 
*** Reached end of trace for Core: 0 Repeating trace: traces/spec2k17/srv_26.champsimtrace.xz
Heartbeat CPU 0 instructions: 70000001 cycles: 78665946 heartbeat IPC: 0.309125 cumulative IPC: 0.309765 (Simulation time: 0 hr 6 min 5 sec) 
Heartbeat CPU 0 instructions: 80000000 cycles: 110879185 heartbeat IPC: 0.310431 cumulative IPC: 0.309987 (Simulation time: 0 hr 7 min 1 sec) 
Heartbeat CPU 0 instructions: 90000002 cycles: 143137121 heartbeat IPC: 0.310001 cumulative IPC: 0.30999 (Simulation time: 0 hr 8 min 3 sec) 
*** Reached end of trace for Core: 0 Repeating trace: traces/spec2k17/srv_26.champsimtrace.xz
Heartbeat CPU 0 instructions: 100000000 cycles: 175427511 heartbeat IPC: 0.30969 cumulative IPC: 0.30993 (Simulation time: 0 hr 8 min 57 sec) 
Heartbeat CPU 0 instructions: 110000000 cycles: 207645694 heartbeat IPC: 0.310384 cumulative IPC: 0.310006 (Simulation time: 0 hr 9 min 59 sec) 
Heartbeat CPU 0 instructions: 120000001 cycles: 239872602 heartbeat IPC: 0.3103 cumulative IPC: 0.310048 (Simulation time: 0 hr 10 min 59 sec) 
*** Reached end of trace for Core: 0 Repeating trace: traces/spec2k17/srv_26.champsimtrace.xz
Heartbeat CPU 0 instructions: 130000000 cycles: 272174134 heartbeat IPC: 0.309583 cumulative IPC: 0.30999 (Simulation time: 0 hr 11 min 53 sec) 
Heartbeat CPU 0 instructions: 140000001 cycles: 304468919 heartbeat IPC: 0.309648 cumulative IPC: 0.309951 (Simulation time: 0 hr 12 min 56 sec) 
Heartbeat CPU 0 instructions: 150000003 cycles: 336615091 heartbeat IPC: 0.311079 cumulative IPC: 0.310064 (Simulation time: 0 hr 13 min 51 sec) 
*** Reached end of trace for Core: 0 Repeating trace: traces/spec2k17/srv_26.champsimtrace.xz
Heartbeat CPU 0 instructions: 160000000 cycles: 368870182 heartbeat IPC: 0.310028 cumulative IPC: 0.310061 (Simulation time: 0 hr 14 min 47 sec) 
Heartbeat CPU 0 instructions: 170000000 cycles: 401081248 heartbeat IPC: 0.310452 cumulative IPC: 0.310093 (Simulation time: 0 hr 15 min 48 sec) 
Heartbeat CPU 0 instructions: 180000000 cycles: 433319018 heartbeat IPC: 0.310195 cumulative IPC: 0.310101 (Simulation time: 0 hr 16 min 42 sec) 
*** Reached end of trace for Core: 0 Repeating trace: traces/spec2k17/srv_26.champsimtrace.xz
Heartbeat CPU 0 instructions: 190000002 cycles: 465507497 heartbeat IPC: 0.31067 cumulative IPC: 0.310142 (Simulation time: 0 hr 17 min 40 sec) 
Heartbeat CPU 0 instructions: 200000003 cycles: 497734473 heartbeat IPC: 0.310299 cumulative IPC: 0.310152 (Simulation time: 0 hr 18 min 39 sec) 
Heartbeat CPU 0 instructions: 210000003 cycles: 529983601 heartbeat IPC: 0.310086 cumulative IPC: 0.310148 (Simulation time: 0 hr 19 min 34 sec) 
*** Reached end of trace for Core: 0 Repeating trace: traces/spec2k17/srv_26.champsimtrace.xz
Heartbeat CPU 0 instructions: 220000000 cycles: 562171381 heartbeat IPC: 0.310677 cumulative IPC: 0.310179 (Simulation time: 0 hr 20 min 29 sec) 
Heartbeat CPU 0 instructions: 230000000 cycles: 594384559 heartbeat IPC: 0.310432 cumulative IPC: 0.310193 (Simulation time: 0 hr 21 min 31 sec) 
Heartbeat CPU 0 instructions: 240000000 cycles: 626657682 heartbeat IPC: 0.309855 cumulative IPC: 0.310175 (Simulation time: 0 hr 22 min 27 sec) 
*** Reached end of trace for Core: 0 Repeating trace: traces/spec2k17/srv_26.champsimtrace.xz
Heartbeat CPU 0 instructions: 250000000 cycles: 658827683 heartbeat IPC: 0.310849 cumulative IPC: 0.310209 (Simulation time: 0 hr 23 min 19 sec) 
Finished CPU 0 instructions: 200000000 cycles: 644726801 cumulative IPC: 0.310209 (Simulation time: 0 hr 23 min 19 sec) 

ChampSim completed all CPUs

Region of Interest Statistics

CPU 0 cumulative IPC: 0.310209 instructions: 200000000 cycles: 644726801
ITLB TOTAL     ACCESS:   34709941  HIT:   32656828  MISS:    2053113  HIT %:    94.0849  MISS %:    5.91506   MPKI: 10.2656
ITLB LOAD TRANSLATION ACCESS:   34709941  HIT:   32656828  MISS:    2053113  HIT %:    94.0849  MISS %:    5.91506   MPKI: 10.2656
ITLB PREFETCH  REQUESTED:          0  ISSUED:          0  USEFUL:          0  USELESS:          0
ITLB USEFUL LOAD PREFETCHES:          0 PREFETCH ISSUED TO LOWER LEVEL:          0  ACCURACY: -nan
ITLB TIMELY PREFETCHES:          0 LATE PREFETCHES: 0 DROPPED PREFETCHES: 0
ITLB PREFETCHES SAME FILL-ORIGIN LEVEL: 0 DIFFERENT FILL-ORIGIN LEVEL: 0
ITLB AVERAGE MISS LATENCY: 9.05186 cycles
ITLB RQ	ACCESS:   40961384	FORWARD:          0	MERGED:    5761371	TO_CACHE:   35200013

DTLB TOTAL     ACCESS:   46520098  HIT:   44674338  MISS:    1845760  HIT %:    96.0323  MISS %:    3.96766   MPKI: 9.2288
DTLB LOAD TRANSLATION ACCESS:   46520098  HIT:   44674338  MISS:    1845760  HIT %:    96.0323  MISS %:    3.96766   MPKI: 9.2288
DTLB PREFETCH  REQUESTED:          0  ISSUED:          0  USEFUL:          0  USELESS:          0
DTLB USEFUL LOAD PREFETCHES:          0 PREFETCH ISSUED TO LOWER LEVEL:          0  ACCURACY: -nan
DTLB TIMELY PREFETCHES:          0 LATE PREFETCHES: 0 DROPPED PREFETCHES: 0
DTLB PREFETCHES SAME FILL-ORIGIN LEVEL: 0 DIFFERENT FILL-ORIGIN LEVEL: 0
DTLB AVERAGE MISS LATENCY: 9.18584 cycles
DTLB RQ	ACCESS:   61205695	FORWARD:          0	MERGED:   14621380	TO_CACHE:   46584315

STLB TOTAL     ACCESS:    5889884  HIT:    5880007  MISS:       9877  HIT %:    99.8323  MISS %:   0.167694   MPKI: 0.049385
STLB LOAD TRANSLATION ACCESS:    3898873  HIT:    3888996  MISS:       9877  HIT %:    99.7467  MISS %:    0.25333   MPKI: 0.049385
STLB TRANSLATION FROM L1D PREFETCHER ACCESS:    1991011  HIT:    1991011  MISS:          0  HIT %:        100  MISS %:          0   MPKI: 0
STLB PREFETCH  REQUESTED:          0  ISSUED:          0  USEFUL:          0  USELESS:          0
STLB USEFUL LOAD PREFETCHES:          0 PREFETCH ISSUED TO LOWER LEVEL:          0  ACCURACY: -nan
STLB TIMELY PREFETCHES:          0 LATE PREFETCHES: 0 DROPPED PREFETCHES: 0
STLB PREFETCHES SAME FILL-ORIGIN LEVEL: 0 DIFFERENT FILL-ORIGIN LEVEL: 0
STLB AVERAGE MISS LATENCY: 43.1979 cycles
STLB RQ	ACCESS:    6437899	FORWARD:          0	MERGED:     548015	TO_CACHE:    5889884

STLB Hit, L1D data hit: 0
STLB Hit, L2C data hit: 0
STLB Hit, LLC data hit: 0
STLB Hit, LLC data miss: 0
STLB STLB hints to L2: 0
L1D TOTAL     ACCESS:   61758200  HIT:   57117043  MISS:    4641157  HIT %:     92.485  MISS %:    7.51505   MPKI: 23.2058
L1D LOAD      ACCESS:   34271445  HIT:   31463531  MISS:    2807914  HIT %:    91.8068  MISS %:    8.19316   MPKI: 14.0396
L1D RFO       ACCESS:   25109872  HIT:   23981229  MISS:    1128643  HIT %:    95.5052  MISS %:    4.49482   MPKI: 5.64321
L1D PREFETCH  ACCESS:    2376883  HIT:    1672283  MISS:     704600  HIT %:    70.3561  MISS %:    29.6439   MPKI: 3.523
AGUS PREFETCH L1 MISS: 0
L1D PREFETCH  REQUESTED:    5079541  ISSUED:    5079541  USEFUL:     185535  USELESS:     519055
L1D USEFUL LOAD PREFETCHES:     185535 PREFETCH ISSUED TO LOWER LEVEL:     811088  ACCURACY: 22.8748
L1D TIMELY PREFETCHES:     185535 LATE PREFETCHES: 104460 DROPPED PREFETCHES: 0
L1D PREFETCHES SAME FILL-ORIGIN LEVEL: 811088 DIFFERENT FILL-ORIGIN LEVEL: 0
L1D AVERAGE MISS LATENCY: 7.73261e+06 cycles
L1D RQ	ACCESS:   47452784	FORWARD:          0	MERGED:   12766358	TO_CACHE:   34379316
L1D WQ	ACCESS:   26994536	FORWARD:     308599	MERGED:     168157	TO_CACHE:   26826379
L1D PQ	ACCESS:    2540515	FORWARD:          0	MERGED:          0	TO_CACHE:    2539026

L1D UNIQUE REGIONS ACCESSED: 0
L1D REGIONS CONFLICTS: 0
L1D Cross Page Prefetch Requests: 0
L1D Same Page Prefetch Requests: 3129559
L1D ROI Sum of L1D PQ occupancy: 32428826
L1D PREFETCHES PUSHED FROM L2C: 0
L1I TOTAL     ACCESS:   39432148  HIT:   28740356  MISS:   10691792  HIT %:    72.8856  MISS %:    27.1144   MPKI: 53.459
L1I LOAD      ACCESS:   39432148  HIT:   28740356  MISS:   10691792  HIT %:    72.8856  MISS %:    27.1144   MPKI: 53.459
L1I PREFETCH  REQUESTED:          0  ISSUED:          0  USEFUL:          0  USELESS:          0
L1I USEFUL LOAD PREFETCHES:          0 PREFETCH ISSUED TO LOWER LEVEL:          0  ACCURACY: -nan
L1I TIMELY PREFETCHES:          0 LATE PREFETCHES: 0 DROPPED PREFETCHES: 0
L1I PREFETCHES SAME FILL-ORIGIN LEVEL: 0 DIFFERENT FILL-ORIGIN LEVEL: 0
L1I AVERAGE MISS LATENCY: 16.6348 cycles
L1I RQ	ACCESS:   57996940	FORWARD:          0	MERGED:   17035556	TO_CACHE:   40961384

BTB TOTAL     ACCESS:   30080361  HIT:   17302648  MISS:   12777713  HIT %:    57.5214  MISS %:    42.4786   MPKI: 63.8886
BTB BRANCH_DIRECT_JUMP	ACCESS:    2022883  HIT:    1132448  MISS:     890435
BTB BRANCH_INDIRECT	ACCESS:   11928564  HIT:    7079070  MISS:    4849494
BTB BRANCH_CONDITIONAL	ACCESS:    7505175  HIT:    6165615  MISS:    1339560
BTB BRANCH_DIRECT_CALL	ACCESS:    3636526  HIT:    1530723  MISS:    2105803
BTB BRANCH_INDIRECT_CALL	ACCESS:     675349  HIT:     268948  MISS:     406401
BTB BRANCH_RETURN	ACCESS:    4311864  HIT:    1125844  MISS:    3186020
BTB BRANCH_OTHER ACCESS:          0  HIT:          0  MISS:          0

L2C TOTAL     ACCESS:   17405913  HIT:   15705214  MISS:    1700699  HIT %:    90.2292  MISS %:    9.77081   MPKI: 8.50349
L2C LOAD      ACCESS:   13395231  HIT:   12172242  MISS:    1222989  HIT %:      90.87  MISS %:    9.13003   MPKI: 6.11494
L2C DATA LOAD MPKI: 1.57884
L2C INSTRUCTION LOAD MPKI: 4.53611
L2C RFO       ACCESS:    1126615  HIT:     933381  MISS:     193234  HIT %:    82.8483  MISS %:    17.1517   MPKI: 0.96617
L2C PREFETCH  ACCESS:     811048  HIT:     588881  MISS:     222167  HIT %:    72.6074  MISS %:    27.3926   MPKI: 1.11084
AGUS PREFETCH L1 MISS: 0
L2C DATA PREFETCH MPKI: 1.11084
L2C INSTRUCTION PREFETCH MPKI: 0
L2C WRITEBACK ACCESS:    2062432  HIT:    2007096  MISS:      55336  HIT %:     97.317  MISS %:    2.68305   MPKI: 0.27668
L2C LOAD TRANSLATION ACCESS:      10587  HIT:       3614  MISS:       6973  HIT %:    34.1362  MISS %:    65.8638   MPKI: 0.034865
L2C PREFETCH  REQUESTED:          0  ISSUED:          0  USEFUL:       6744  USELESS:     215255
L2C USEFUL LOAD PREFETCHES:       6744 PREFETCH ISSUED TO LOWER LEVEL:     222167  ACCURACY: 3.03555
L2C TIMELY PREFETCHES:       6744 LATE PREFETCHES: 0 DROPPED PREFETCHES: 0
L2C PREFETCHES SAME FILL-ORIGIN LEVEL: 0 DIFFERENT FILL-ORIGIN LEVEL: 0
L2C AVERAGE MISS LATENCY: 31.2202 cycles
L2C RQ	ACCESS:   14532449	FORWARD:          0	MERGED:          0	TO_CACHE:   14532433
L2C WQ	ACCESS:    2062432	FORWARD:         56	MERGED:          0	TO_CACHE:    2062432
L2C PQ	ACCESS:     811088	FORWARD:          0	MERGED:          0	TO_CACHE:     811048

L2C Instructions Evicting Data 385638
L2C Translations Evicting Data 4869
L2C Data Evicting Data 369151
L2C Instructions Evicting Instructions 519721
L2C Translations Evicting Instructions 2030
L2C Data Evicting Instructions 357044
L2C Instructions Evicting Translations 1862
L2C Translations Evicting Translations 74
L2C Data Evicting Translations 4974
L2C Dense regions hint from L2: 0
PSCL5 TOTAL     ACCESS:       9877  HIT:       9877  MISS:          0  HIT %:        100  MISS %:          0   MPKI: 0
PSCL5 LOAD TRANSLATION ACCESS:       9877  HIT:       9877  MISS:          0  HIT %:        100  MISS %:          0   MPKI: 0
PSCL5 PREFETCH  REQUESTED:          0  ISSUED:          0  USEFUL:          0  USELESS:          0
PSCL5 USEFUL LOAD PREFETCHES:          0 PREFETCH ISSUED TO LOWER LEVEL:          0  ACCURACY: -nan
PSCL5 TIMELY PREFETCHES:          0 LATE PREFETCHES: 0 DROPPED PREFETCHES: 0
PSCL5 PREFETCHES SAME FILL-ORIGIN LEVEL: 0 DIFFERENT FILL-ORIGIN LEVEL: 0

PSCL4 TOTAL     ACCESS:       9342  HIT:       9267  MISS:         75  HIT %:    99.1972  MISS %:   0.802826   MPKI: 0.000375
PSCL4 LOAD TRANSLATION ACCESS:       9342  HIT:       9267  MISS:         75  HIT %:    99.1972  MISS %:   0.802826   MPKI: 0.000375
PSCL4 PREFETCH  REQUESTED:          0  ISSUED:          0  USEFUL:          0  USELESS:          0
PSCL4 USEFUL LOAD PREFETCHES:          0 PREFETCH ISSUED TO LOWER LEVEL:          0  ACCURACY: -nan
PSCL4 TIMELY PREFETCHES:          0 LATE PREFETCHES: 0 DROPPED PREFETCHES: 0
PSCL4 PREFETCHES SAME FILL-ORIGIN LEVEL: 0 DIFFERENT FILL-ORIGIN LEVEL: 0

PSCL3 TOTAL     ACCESS:       9493  HIT:       9382  MISS:        111  HIT %:    98.8307  MISS %:    1.16928   MPKI: 0.000555
PSCL3 LOAD TRANSLATION ACCESS:       9493  HIT:       9382  MISS:        111  HIT %:    98.8307  MISS %:    1.16928   MPKI: 0.000555
PSCL3 PREFETCH  REQUESTED:          0  ISSUED:          0  USEFUL:          0  USELESS:          0
PSCL3 USEFUL LOAD PREFETCHES:          0 PREFETCH ISSUED TO LOWER LEVEL:          0  ACCURACY: -nan
PSCL3 TIMELY PREFETCHES:          0 LATE PREFETCHES: 0 DROPPED PREFETCHES: 0
PSCL3 PREFETCHES SAME FILL-ORIGIN LEVEL: 0 DIFFERENT FILL-ORIGIN LEVEL: 0

PSCL2 TOTAL     ACCESS:       9877  HIT:       9353  MISS:        524  HIT %:    94.6947  MISS %:    5.30525   MPKI: 0.00262
PSCL2 LOAD TRANSLATION ACCESS:       9877  HIT:       9353  MISS:        524  HIT %:    94.6947  MISS %:    5.30525   MPKI: 0.00262
PSCL2 PREFETCH  REQUESTED:          0  ISSUED:          0  USEFUL:          0  USELESS:          0
PSCL2 USEFUL LOAD PREFETCHES:          0 PREFETCH ISSUED TO LOWER LEVEL:          0  ACCURACY: -nan
PSCL2 TIMELY PREFETCHES:          0 LATE PREFETCHES: 0 DROPPED PREFETCHES: 0
PSCL2 PREFETCHES SAME FILL-ORIGIN LEVEL: 0 DIFFERENT FILL-ORIGIN LEVEL: 0

LLC TOTAL     ACCESS:    1923718  HIT:    1898063  MISS:      25655  HIT %:    98.6664  MISS %:    1.33362   MPKI: 0.128275
LLC LOAD      ACCESS:    1222989  HIT:    1216894  MISS:       6095  HIT %:    99.5016  MISS %:   0.498369   MPKI: 0.030475
LLC RFO       ACCESS:     193232  HIT:     183579  MISS:       9653  HIT %:    95.0045  MISS %:    4.99555   MPKI: 0.048265
LLC PREFETCH  ACCESS:     222167  HIT:     212540  MISS:       9627  HIT %:    95.6668  MISS %:    4.33323   MPKI: 0.048135
AGUS PREFETCH L1 MISS: 0
LLC WRITEBACK ACCESS:     278357  HIT:     278195  MISS:        162  HIT %:    99.9418  MISS %:  0.0581986   MPKI: 0.00081
LLC LOAD TRANSLATION ACCESS:       6973  HIT:       6855  MISS:        118  HIT %:    98.3078  MISS %:    1.69224   MPKI: 0.00059
LLC PREFETCH  REQUESTED:          0  ISSUED:          0  USEFUL:       1645  USELESS:       8303
LLC USEFUL LOAD PREFETCHES:       1645 PREFETCH ISSUED TO LOWER LEVEL:       9627  ACCURACY: 17.0874
LLC TIMELY PREFETCHES:       1645 LATE PREFETCHES: 0 DROPPED PREFETCHES: 0
LLC PREFETCHES SAME FILL-ORIGIN LEVEL: 0 DIFFERENT FILL-ORIGIN LEVEL: 0
LLC AVERAGE MISS LATENCY: 145.577 cycles
LLC RQ	ACCESS:    1423196	FORWARD:          0	MERGED:          0	TO_CACHE:    1423194
LLC WQ	ACCESS:     278357	FORWARD:          2	MERGED:          0	TO_CACHE:     278357
LLC PQ	ACCESS:     222167	FORWARD:          0	MERGED:          0	TO_CACHE:     222167

LLC Dense regions hint to LLC: 0

RAW hits: 1445882
Loads Generated: 48898666
Loads sent to L1D: 47452784
Stores Generated: 26994528
Stores sent to L1D: 26994536
Major fault: 0 Minor fault: 2014
Allocated PAGES: 2014

stream: 
stream:times selected: 4837036
stream:pref_filled: 605297
stream:pref_useful: 120972
stream:pref_late: 56590
stream:misses: 35065
stream:misses_by_poll: 0

CS: 
CS:times selected: 495510
CS:pref_filled: 181875
CS:pref_useful: 105345
CS:pref_late: 23375
CS:misses: 74264
CS:misses_by_poll: 34

CPLX: 
CPLX:times selected: 4329930
CPLX:pref_filled: 108116
CPLX:pref_useful: 21078
CPLX:pref_late: 3893
CPLX:misses: 331184
CPLX:misses_by_poll: 2

NL_L1: 
NL:times selected: 23562
NL:pref_filled: 3600
NL:pref_useful: 771
NL:pref_late: 17
NL:misses: 709
NL:misses_by_poll: 0

total selections: 9686038
total_filled: 704600
total_useful: 185535
total_late: 110352
total_polluted: 36
total_misses_after_warmup: 2915786
conflicts: 11749612
Degree Incremented Times: 0
Degree Decremented Times: 544111

L1 IP Table Write Accesses: 21506432
L1 IP Table Read Accesses: 9756820
L1 RST Write Accesses: 3929146
L1 RST Read Accesses: 7858292
L1 CSPT Write Accesses: 3929146
L1 CSPT Read Accesses: 7443635
L1 RR Filter Tag Write Accesses: 2540515
L1 RR Filter Tag Read Accesses: 161736977
L1 IP Table Tag Write Accesses: 34379317
L1 IP Table Tag Read Accesses: 34379317
L1 RST Tag Write Accesses: 0
L1 RST Tag Read Accesses: 33224351
L1 RR Filter Write Accesses: 0
L1 RR Filter Read Accesses: 5926188
test: 894868

DRAM Statistics
 CHANNEL 0
 RQ ROW_BUFFER_HIT:       7030  ROW_BUFFER_MISS:      18458
 DBUS_CONGESTED:         27
 WQ ROW_BUFFER_HIT:       1171  ROW_BUFFER_MISS:       9747  FULL:          0

 AVG_CONGESTED_CYCLE: 6
 All warmup complete: 2
Channel 0 Bank busy for read cycles: 0
Channel 0 Bank busy for write cycles: 0
Channel 0
Rank 0
0banks busy for read cycles: 641788417
0banks busy for write cycles: 5031
1banks busy for read cycles: 1406272
1banks busy for write cycles: 641752
2banks busy for read cycles: 283394
2banks busy for write cycles: 129187
3banks busy for read cycles: 123269
3banks busy for write cycles: 53715
4banks busy for read cycles: 70180
4banks busy for write cycles: 40484
5banks busy for read cycles: 42291
5banks busy for write cycles: 29188
6banks busy for read cycles: 24532
6banks busy for write cycles: 21549
7banks busy for read cycles: 12437
7banks busy for write cycles: 18295
8banks busy for read cycles: 6403
8banks busy for write cycles: 30406

CPU 0 Branch Prediction Accuracy: 99.8844% MPKI: 0.20331 Average ROB Occupancy at Mispredict: 32.4409
Branch types
NOT_BRANCH: 164819303 82.4097%
BRANCH_DIRECT_JUMP: 2022883 1.01144%
BRANCH_INDIRECT: 11928564 5.96428%
BRANCH_CONDITIONAL: 12605148 6.30257%
BRANCH_DIRECT_CALL: 3636526 1.81826%
BRANCH_INDIRECT_CALL: 675349 0.337674%
BRANCH_RETURN: 4311864 2.15593%
BRANCH_OTHER: 0 0%

DRAM PAGES: 1048576
Allocated PAGES: 2014
