
*** ChampSim Multicore Out-of-Order Simulator ***

Warmup Instructions: 50000000
Simulation Instructions: 200000000
Number of CPUs: 1
LLC sets: 2048
LLC ways: 16
Off-chip DRAM Size: 4096 MB Channels: 1 Width: 64-bit Data Rate: 6400 MT/s
CPU 0 runs traces/spec2k17/srv_33.champsimtrace.xz
.xz
BTB has LRU replacement policy
ITLB has LRU replacement policy
DTLB has LRU replacement policy
STLB has LRU replacement policy
L1I has LRU replacement policy
IP Table Entries: 1024
CSPT Entries: 128
RR_ENTRIES: 32
RST_ENTRIES: 8
L1D has LRU replacement policy
Initialize SRRIP state for L2C
Initialize DRRIP state for LLC
Heartbeat CPU 0 instructions: 10000001 cycles: 2939383 heartbeat IPC: 3.40207 cumulative IPC: 3.40207 (Simulation time: 0 hr 0 min 58 sec) 
Heartbeat CPU 0 instructions: 20000003 cycles: 5881693 heartbeat IPC: 3.39869 cumulative IPC: 3.40038 (Simulation time: 0 hr 1 min 48 sec) 
Heartbeat CPU 0 instructions: 30000000 cycles: 8818295 heartbeat IPC: 3.4053 cumulative IPC: 3.40202 (Simulation time: 0 hr 2 min 40 sec) 
*** Reached end of trace for Core: 0 Repeating trace: traces/spec2k17/srv_33.champsimtrace.xz
Heartbeat CPU 0 instructions: 40000002 cycles: 11755733 heartbeat IPC: 3.40433 cumulative IPC: 3.4026 (Simulation time: 0 hr 3 min 42 sec) 
Heartbeat CPU 0 instructions: 50000002 cycles: 14700495 heartbeat IPC: 3.39586 cumulative IPC: 3.40125 (Simulation time: 0 hr 4 min 31 sec) 

Warmup complete CPU 0 instructions: 50000002 cycles: 14700495 (Simulation time: 0 hr 4 min 31 sec) 

Heartbeat CPU 0 instructions: 60000000 cycles: 33847320 heartbeat IPC: 0.52228 cumulative IPC: 0.52228 (Simulation time: 0 hr 5 min 49 sec) 
*** Reached end of trace for Core: 0 Repeating trace: traces/spec2k17/srv_33.champsimtrace.xz
Heartbeat CPU 0 instructions: 70000000 cycles: 52936903 heartbeat IPC: 0.523846 cumulative IPC: 0.523062 (Simulation time: 0 hr 6 min 56 sec) 
Heartbeat CPU 0 instructions: 80000000 cycles: 71972450 heartbeat IPC: 0.525333 cumulative IPC: 0.523817 (Simulation time: 0 hr 8 min 3 sec) 
Heartbeat CPU 0 instructions: 90000001 cycles: 91042418 heartbeat IPC: 0.524385 cumulative IPC: 0.523959 (Simulation time: 0 hr 9 min 12 sec) 
*** Reached end of trace for Core: 0 Repeating trace: traces/spec2k17/srv_33.champsimtrace.xz
Heartbeat CPU 0 instructions: 100000000 cycles: 110102110 heartbeat IPC: 0.524667 cumulative IPC: 0.5241 (Simulation time: 0 hr 10 min 15 sec) 
Heartbeat CPU 0 instructions: 110000000 cycles: 129088500 heartbeat IPC: 0.526693 cumulative IPC: 0.524531 (Simulation time: 0 hr 11 min 26 sec) 
Heartbeat CPU 0 instructions: 120000000 cycles: 148209452 heartbeat IPC: 0.522987 cumulative IPC: 0.524309 (Simulation time: 0 hr 12 min 30 sec) 
*** Reached end of trace for Core: 0 Repeating trace: traces/spec2k17/srv_33.champsimtrace.xz
Heartbeat CPU 0 instructions: 130000002 cycles: 167234401 heartbeat IPC: 0.525626 cumulative IPC: 0.524474 (Simulation time: 0 hr 13 min 36 sec) 
Heartbeat CPU 0 instructions: 140000000 cycles: 186207408 heartbeat IPC: 0.527065 cumulative IPC: 0.52476 (Simulation time: 0 hr 14 min 46 sec) 
Heartbeat CPU 0 instructions: 150000001 cycles: 205221278 heartbeat IPC: 0.525932 cumulative IPC: 0.524877 (Simulation time: 0 hr 15 min 49 sec) 
Heartbeat CPU 0 instructions: 160000001 cycles: 224240892 heartbeat IPC: 0.525773 cumulative IPC: 0.524958 (Simulation time: 0 hr 17 min 2 sec) 
*** Reached end of trace for Core: 0 Repeating trace: traces/spec2k17/srv_33.champsimtrace.xz
Heartbeat CPU 0 instructions: 170000001 cycles: 243215592 heartbeat IPC: 0.527018 cumulative IPC: 0.525129 (Simulation time: 0 hr 18 min 5 sec) 
Heartbeat CPU 0 instructions: 180000003 cycles: 262311228 heartbeat IPC: 0.52368 cumulative IPC: 0.525018 (Simulation time: 0 hr 19 min 19 sec) 
Heartbeat CPU 0 instructions: 190000002 cycles: 281292541 heartbeat IPC: 0.526834 cumulative IPC: 0.525147 (Simulation time: 0 hr 20 min 23 sec) 
*** Reached end of trace for Core: 0 Repeating trace: traces/spec2k17/srv_33.champsimtrace.xz
Heartbeat CPU 0 instructions: 200000000 cycles: 300280622 heartbeat IPC: 0.526646 cumulative IPC: 0.525247 (Simulation time: 0 hr 21 min 30 sec) 
Heartbeat CPU 0 instructions: 210000001 cycles: 319315719 heartbeat IPC: 0.525345 cumulative IPC: 0.525253 (Simulation time: 0 hr 22 min 32 sec) 
Heartbeat CPU 0 instructions: 220000000 cycles: 338227686 heartbeat IPC: 0.528766 cumulative IPC: 0.525458 (Simulation time: 0 hr 23 min 41 sec) 
*** Reached end of trace for Core: 0 Repeating trace: traces/spec2k17/srv_33.champsimtrace.xz
Heartbeat CPU 0 instructions: 230000000 cycles: 357233065 heartbeat IPC: 0.526167 cumulative IPC: 0.525497 (Simulation time: 0 hr 24 min 42 sec) 
Heartbeat CPU 0 instructions: 240000001 cycles: 376290420 heartbeat IPC: 0.524732 cumulative IPC: 0.525457 (Simulation time: 0 hr 25 min 54 sec) 
Heartbeat CPU 0 instructions: 250000002 cycles: 395247656 heartbeat IPC: 0.527503 cumulative IPC: 0.525559 (Simulation time: 0 hr 26 min 55 sec) 
Finished CPU 0 instructions: 200000000 cycles: 380547161 cumulative IPC: 0.525559 (Simulation time: 0 hr 26 min 55 sec) 

ChampSim completed all CPUs

Region of Interest Statistics

CPU 0 cumulative IPC: 0.525559 instructions: 200000000 cycles: 380547161
ITLB TOTAL     ACCESS:   33761734  HIT:   32218836  MISS:    1542898  HIT %:      95.43  MISS %:    4.56996   MPKI: 7.71449
ITLB LOAD TRANSLATION ACCESS:   33761734  HIT:   32218836  MISS:    1542898  HIT %:      95.43  MISS %:    4.56996   MPKI: 7.71449
ITLB PREFETCH  REQUESTED:          0  ISSUED:          0  USEFUL:          0  USELESS:          0
ITLB USEFUL LOAD PREFETCHES:          0 PREFETCH ISSUED TO LOWER LEVEL:          0  ACCURACY: -nan
ITLB TIMELY PREFETCHES:          0 LATE PREFETCHES: 0 DROPPED PREFETCHES: 0
ITLB PREFETCHES SAME FILL-ORIGIN LEVEL: 0 DIFFERENT FILL-ORIGIN LEVEL: 0
ITLB AVERAGE MISS LATENCY: 9.22512 cycles
ITLB RQ	ACCESS:   40670841	FORWARD:          0	MERGED:    6412835	TO_CACHE:   34258006

DTLB TOTAL     ACCESS:   40111913  HIT:   38595804  MISS:    1516109  HIT %:    96.2203  MISS %:     3.7797   MPKI: 7.58054
DTLB LOAD TRANSLATION ACCESS:   40111913  HIT:   38595804  MISS:    1516109  HIT %:    96.2203  MISS %:     3.7797   MPKI: 7.58054
DTLB PREFETCH  REQUESTED:          0  ISSUED:          0  USEFUL:          0  USELESS:          0
DTLB USEFUL LOAD PREFETCHES:          0 PREFETCH ISSUED TO LOWER LEVEL:          0  ACCURACY: -nan
DTLB TIMELY PREFETCHES:          0 LATE PREFETCHES: 0 DROPPED PREFETCHES: 0
DTLB PREFETCHES SAME FILL-ORIGIN LEVEL: 0 DIFFERENT FILL-ORIGIN LEVEL: 0
DTLB AVERAGE MISS LATENCY: 14.413 cycles
DTLB RQ	ACCESS:   61192995	FORWARD:          0	MERGED:   20672760	TO_CACHE:   40520235

STLB TOTAL     ACCESS:    5725882  HIT:    5652325  MISS:      73557  HIT %:    98.7154  MISS %:    1.28464   MPKI: 0.367785
STLB LOAD TRANSLATION ACCESS:    3059007  HIT:    2985450  MISS:      73557  HIT %:    97.5954  MISS %:     2.4046   MPKI: 0.367785
STLB TRANSLATION FROM L1D PREFETCHER ACCESS:    2666875  HIT:    2666875  MISS:          0  HIT %:        100  MISS %:          0   MPKI: 0
STLB PREFETCH  REQUESTED:          0  ISSUED:          0  USEFUL:          0  USELESS:          0
STLB USEFUL LOAD PREFETCHES:          0 PREFETCH ISSUED TO LOWER LEVEL:          0  ACCURACY: -nan
STLB TIMELY PREFETCHES:          0 LATE PREFETCHES: 0 DROPPED PREFETCHES: 0
STLB PREFETCHES SAME FILL-ORIGIN LEVEL: 0 DIFFERENT FILL-ORIGIN LEVEL: 0
STLB AVERAGE MISS LATENCY: 115.97 cycles
STLB RQ	ACCESS:    6636134	FORWARD:          0	MERGED:     910252	TO_CACHE:    5725882

STLB Hit, L1D data hit: 0
STLB Hit, L2C data hit: 0
STLB Hit, LLC data hit: 0
STLB Hit, LLC data miss: 0
STLB STLB hints to L2: 0
L1D TOTAL     ACCESS:   51702159  HIT:   44382502  MISS:    7319657  HIT %:    85.8426  MISS %:    14.1574   MPKI: 36.5983
L1D LOAD      ACCESS:   26807650  HIT:   24108846  MISS:    2698804  HIT %:    89.9327  MISS %:    10.0673   MPKI: 13.494
L1D RFO       ACCESS:   22233876  HIT:   18539673  MISS:    3694203  HIT %:    83.3848  MISS %:    16.6152   MPKI: 18.471
L1D PREFETCH  ACCESS:    2660633  HIT:    1733983  MISS:     926650  HIT %:    65.1718  MISS %:    34.8282   MPKI: 4.63325
AGUS PREFETCH L1 MISS: 0
L1D PREFETCH  REQUESTED:    7167994  ISSUED:    7154777  USEFUL:     436089  USELESS:     490562
L1D USEFUL LOAD PREFETCHES:     436089 PREFETCH ISSUED TO LOWER LEVEL:    1560510  ACCURACY: 27.9453
L1D TIMELY PREFETCHES:     436089 LATE PREFETCHES: 633128 DROPPED PREFETCHES: 0
L1D PREFETCHES SAME FILL-ORIGIN LEVEL: 1560510 DIFFERENT FILL-ORIGIN LEVEL: 0
L1D AVERAGE MISS LATENCY: 1.77689e+07 cycles
L1D RQ	ACCESS:   45277104	FORWARD:          0	MERGED:   17848542	TO_CACHE:   27145578
L1D WQ	ACCESS:   34247148	FORWARD:     283507	MERGED:     199731	TO_CACHE:   34047417
L1D PQ	ACCESS:    3577650	FORWARD:          0	MERGED:          0	TO_CACHE:    3577127

L1D UNIQUE REGIONS ACCESSED: 0
L1D REGIONS CONFLICTS: 0
L1D Cross Page Prefetch Requests: 0
L1D Same Page Prefetch Requests: 4445520
L1D ROI Sum of L1D PQ occupancy: 53532806
L1D PREFETCHES PUSHED FROM L2C: 0
L1I TOTAL     ACCESS:   38010964  HIT:   28892829  MISS:    9118135  HIT %:    76.0118  MISS %:    23.9882   MPKI: 45.5907
L1I LOAD      ACCESS:   38010964  HIT:   28892829  MISS:    9118135  HIT %:    76.0118  MISS %:    23.9882   MPKI: 45.5907
L1I PREFETCH  REQUESTED:          0  ISSUED:          0  USEFUL:          0  USELESS:          0
L1I USEFUL LOAD PREFETCHES:          0 PREFETCH ISSUED TO LOWER LEVEL:          0  ACCURACY: -nan
L1I TIMELY PREFETCHES:          0 LATE PREFETCHES: 0 DROPPED PREFETCHES: 0
L1I PREFETCHES SAME FILL-ORIGIN LEVEL: 0 DIFFERENT FILL-ORIGIN LEVEL: 0
L1I AVERAGE MISS LATENCY: 16.5264 cycles
L1I RQ	ACCESS:   58937752	FORWARD:          0	MERGED:   18266911	TO_CACHE:   40670841

BTB TOTAL     ACCESS:   25663217  HIT:   24125509  MISS:    1537708  HIT %:    94.0081  MISS %:    5.99188   MPKI: 7.68854
BTB BRANCH_DIRECT_JUMP	ACCESS:    1661208  HIT:    1651586  MISS:       9622
BTB BRANCH_INDIRECT	ACCESS:    9967593  HIT:    9459764  MISS:     507829
BTB BRANCH_CONDITIONAL	ACCESS:    7198622  HIT:    7185146  MISS:      13476
BTB BRANCH_DIRECT_CALL	ACCESS:    2825210  HIT:    2791882  MISS:      33328
BTB BRANCH_INDIRECT_CALL	ACCESS:     592633  HIT:     481147  MISS:     111486
BTB BRANCH_RETURN	ACCESS:    3417951  HIT:    2555984  MISS:     861967
BTB BRANCH_OTHER ACCESS:          0  HIT:          0  MISS:          0

L2C TOTAL     ACCESS:   20884140  HIT:   13974134  MISS:    6910006  HIT %:    66.9127  MISS %:    33.0873   MPKI: 34.55
L2C LOAD      ACCESS:   11183637  HIT:    9232852  MISS:    1950785  HIT %:    82.5568  MISS %:    17.4432   MPKI: 9.75393
L2C DATA LOAD MPKI: 6.90534
L2C INSTRUCTION LOAD MPKI: 2.84858
L2C RFO       ACCESS:    3693467  HIT:     156553  MISS:    3536914  HIT %:    4.23865  MISS %:    95.7614   MPKI: 17.6846
L2C PREFETCH  ACCESS:    1560503  HIT:     300551  MISS:    1259952  HIT %:    19.2599  MISS %:    80.7401   MPKI: 6.29976
AGUS PREFETCH L1 MISS: 0
L2C DATA PREFETCH MPKI: 6.29976
L2C INSTRUCTION PREFETCH MPKI: 0
L2C WRITEBACK ACCESS:    4364904  HIT:    4239016  MISS:     125888  HIT %:    97.1159  MISS %:     2.8841   MPKI: 0.62944
L2C LOAD TRANSLATION ACCESS:      81629  HIT:      45162  MISS:      36467  HIT %:    55.3259  MISS %:    44.6741   MPKI: 0.182335
L2C PREFETCH  REQUESTED:          0  ISSUED:          0  USEFUL:      22056  USELESS:    1238026
L2C USEFUL LOAD PREFETCHES:      22056 PREFETCH ISSUED TO LOWER LEVEL:    1259953  ACCURACY: 1.75054
L2C TIMELY PREFETCHES:      22056 LATE PREFETCHES: 0 DROPPED PREFETCHES: 0
L2C PREFETCHES SAME FILL-ORIGIN LEVEL: 0 DIFFERENT FILL-ORIGIN LEVEL: 0
L2C AVERAGE MISS LATENCY: 156.641 cycles
L2C RQ	ACCESS:   14958911	FORWARD:          0	MERGED:          0	TO_CACHE:   14958733
L2C WQ	ACCESS:    4364904	FORWARD:        184	MERGED:          0	TO_CACHE:    4364904
L2C PQ	ACCESS:    1560510	FORWARD:          0	MERGED:          0	TO_CACHE:    1560504

L2C Instructions Evicting Data 522682
L2C Translations Evicting Data 33346
L2C Data Evicting Data 5635032
L2C Instructions Evicting Instructions 44165
L2C Translations Evicting Instructions 2973
L2C Data Evicting Instructions 509872
L2C Instructions Evicting Translations 2869
L2C Translations Evicting Translations 148
L2C Data Evicting Translations 33031
L2C Dense regions hint from L2: 0
PSCL5 TOTAL     ACCESS:      73557  HIT:      73557  MISS:          0  HIT %:        100  MISS %:          0   MPKI: 0
PSCL5 LOAD TRANSLATION ACCESS:      73557  HIT:      73557  MISS:          0  HIT %:        100  MISS %:          0   MPKI: 0
PSCL5 PREFETCH  REQUESTED:          0  ISSUED:          0  USEFUL:          0  USELESS:          0
PSCL5 USEFUL LOAD PREFETCHES:          0 PREFETCH ISSUED TO LOWER LEVEL:          0  ACCURACY: -nan
PSCL5 TIMELY PREFETCHES:          0 LATE PREFETCHES: 0 DROPPED PREFETCHES: 0
PSCL5 PREFETCHES SAME FILL-ORIGIN LEVEL: 0 DIFFERENT FILL-ORIGIN LEVEL: 0

PSCL4 TOTAL     ACCESS:      63813  HIT:      63719  MISS:         94  HIT %:    99.8527  MISS %:   0.147305   MPKI: 0.00047
PSCL4 LOAD TRANSLATION ACCESS:      63813  HIT:      63719  MISS:         94  HIT %:    99.8527  MISS %:   0.147305   MPKI: 0.00047
PSCL4 PREFETCH  REQUESTED:          0  ISSUED:          0  USEFUL:          0  USELESS:          0
PSCL4 USEFUL LOAD PREFETCHES:          0 PREFETCH ISSUED TO LOWER LEVEL:          0  ACCURACY: -nan
PSCL4 TIMELY PREFETCHES:          0 LATE PREFETCHES: 0 DROPPED PREFETCHES: 0
PSCL4 PREFETCHES SAME FILL-ORIGIN LEVEL: 0 DIFFERENT FILL-ORIGIN LEVEL: 0

PSCL3 TOTAL     ACCESS:      73539  HIT:      73354  MISS:        185  HIT %:    99.7484  MISS %:   0.251567   MPKI: 0.000925
PSCL3 LOAD TRANSLATION ACCESS:      73539  HIT:      73354  MISS:        185  HIT %:    99.7484  MISS %:   0.251567   MPKI: 0.000925
PSCL3 PREFETCH  REQUESTED:          0  ISSUED:          0  USEFUL:          0  USELESS:          0
PSCL3 USEFUL LOAD PREFETCHES:          0 PREFETCH ISSUED TO LOWER LEVEL:          0  ACCURACY: -nan
PSCL3 TIMELY PREFETCHES:          0 LATE PREFETCHES: 0 DROPPED PREFETCHES: 0
PSCL3 PREFETCHES SAME FILL-ORIGIN LEVEL: 0 DIFFERENT FILL-ORIGIN LEVEL: 0

PSCL2 TOTAL     ACCESS:      73557  HIT:      65764  MISS:       7793  HIT %:    89.4055  MISS %:    10.5945   MPKI: 0.038965
PSCL2 LOAD TRANSLATION ACCESS:      73557  HIT:      65764  MISS:       7793  HIT %:    89.4055  MISS %:    10.5945   MPKI: 0.038965
PSCL2 PREFETCH  REQUESTED:          0  ISSUED:          0  USEFUL:          0  USELESS:          0
PSCL2 USEFUL LOAD PREFETCHES:          0 PREFETCH ISSUED TO LOWER LEVEL:          0  ACCURACY: -nan
PSCL2 TIMELY PREFETCHES:          0 LATE PREFETCHES: 0 DROPPED PREFETCHES: 0
PSCL2 PREFETCHES SAME FILL-ORIGIN LEVEL: 0 DIFFERENT FILL-ORIGIN LEVEL: 0

LLC TOTAL     ACCESS:   10833848  HIT:    4404634  MISS:    6429214  HIT %:    40.6562  MISS %:    59.3438   MPKI: 32.1461
LLC LOAD      ACCESS:    1950780  HIT:    1594210  MISS:     356570  HIT %:    81.7217  MISS %:    18.2783   MPKI: 1.78285
LLC RFO       ACCESS:    3536901  HIT:     966830  MISS:    2570071  HIT %:    27.3355  MISS %:    72.6645   MPKI: 12.8504
LLC PREFETCH  ACCESS:    1259950  HIT:     292118  MISS:     967832  HIT %:    23.1849  MISS %:    76.8151   MPKI: 4.83916
AGUS PREFETCH L1 MISS: 0
LLC WRITEBACK ACCESS:    4049750  HIT:    1541419  MISS:    2508331  HIT %:    38.0621  MISS %:    61.9379   MPKI: 12.5417
LLC LOAD TRANSLATION ACCESS:      36467  HIT:      10057  MISS:      26410  HIT %:    27.5784  MISS %:    72.4216   MPKI: 0.13205
LLC PREFETCH  REQUESTED:          0  ISSUED:          0  USEFUL:       2344  USELESS:     970048
LLC USEFUL LOAD PREFETCHES:       2344 PREFETCH ISSUED TO LOWER LEVEL:     967833  ACCURACY: 0.242191
LLC TIMELY PREFETCHES:       2344 LATE PREFETCHES: 0 DROPPED PREFETCHES: 0
LLC PREFETCHES SAME FILL-ORIGIN LEVEL: 0 DIFFERENT FILL-ORIGIN LEVEL: 0
LLC AVERAGE MISS LATENCY: 136.696 cycles
LLC RQ	ACCESS:    5524166	FORWARD:          0	MERGED:          0	TO_CACHE:    5524148
LLC WQ	ACCESS:    4049750	FORWARD:         20	MERGED:          0	TO_CACHE:    4049750
LLC PQ	ACCESS:    1259953	FORWARD:          0	MERGED:          0	TO_CACHE:    1259951

LLC Dense regions hint to LLC: 0

RAW hits: 2450839
Loads Generated: 47727944
Loads sent to L1D: 45277104
Stores Generated: 34247178
Stores sent to L1D: 34247148
Major fault: 0 Minor fault: 8597
Allocated PAGES: 8597

stream: 
stream:times selected: 5996029
stream:pref_filled: 440948
stream:pref_useful: 60420
stream:pref_late: 34989
stream:misses: 123824
stream:misses_by_poll: 0

CS: 
CS:times selected: 3771167
CS:pref_filled: 716424
CS:pref_useful: 661251
CS:pref_late: 559312
CS:misses: 821335
CS:misses_by_poll: 2240

CPLX: 
CPLX:times selected: 2167754
CPLX:pref_filled: 209832
CPLX:pref_useful: 28963
CPLX:pref_late: 4885
CPLX:misses: 430296
CPLX:misses_by_poll: 266

NL_L1: 
NL:times selected: 8480
NL:pref_filled: 2565
NL:pref_useful: 56
NL:pref_late: 34
NL:misses: 2888
NL:misses_by_poll: 0

total selections: 11943430
total_filled: 926650
total_useful: 436089
total_late: 643494
total_polluted: 2506
total_misses_after_warmup: 3036733
conflicts: 8642240
Degree Incremented Times: 72098
Degree Decremented Times: 350621

L1 IP Table Write Accesses: 17377367
L1 IP Table Read Accesses: 8735127
L1 RST Write Accesses: 5034179
L1 RST Read Accesses: 10068358
L1 CSPT Write Accesses: 5034179
L1 CSPT Read Accesses: 6806958
L1 RR Filter Tag Write Accesses: 3590867
L1 RR Filter Tag Read Accesses: 470388814
L1 IP Table Tag Write Accesses: 27145579
L1 IP Table Tag Read Accesses: 27145579
L1 RST Tag Write Accesses: 0
L1 RST Tag Read Accesses: 46589359
L1 RR Filter Write Accesses: 0
L1 RR Filter Read Accesses: 15210814
test: 864060

DRAM Statistics
 CHANNEL 0
 RQ ROW_BUFFER_HIT:    1942516  ROW_BUFFER_MISS:    1977829
 DBUS_CONGESTED:       2656
 WQ ROW_BUFFER_HIT:     536563  ROW_BUFFER_MISS:    2104247  FULL:      84359

 AVG_CONGESTED_CYCLE: 3
 All warmup complete: 2
Channel 0 Bank busy for read cycles: 0
Channel 0 Bank busy for write cycles: 0
Channel 0
Rank 0
0banks busy for read cycles: 170181055
0banks busy for write cycles: 272315
1banks busy for read cycles: 31296252
1banks busy for write cycles: 38009994
2banks busy for read cycles: 12600181
2banks busy for write cycles: 13198664
3banks busy for read cycles: 15035044
3banks busy for write cycles: 5624218
4banks busy for read cycles: 5620730
4banks busy for write cycles: 3479001
5banks busy for read cycles: 4765321
5banks busy for write cycles: 2970893
6banks busy for read cycles: 5597723
6banks busy for write cycles: 3082720
7banks busy for read cycles: 8106955
7banks busy for write cycles: 5903801
8banks busy for read cycles: 20383113
8banks busy for write cycles: 34419182

CPU 0 Branch Prediction Accuracy: 99.9491% MPKI: 0.0777 Average ROB Occupancy at Mispredict: 121.058
Branch types
NOT_BRANCH: 169471465 84.7357%
BRANCH_DIRECT_JUMP: 1661208 0.830604%
BRANCH_INDIRECT: 9967593 4.9838%
BRANCH_CONDITIONAL: 12063902 6.03195%
BRANCH_DIRECT_CALL: 2825210 1.41261%
BRANCH_INDIRECT_CALL: 592633 0.296316%
BRANCH_RETURN: 3417951 1.70898%
BRANCH_OTHER: 0 0%

DRAM PAGES: 1048576
Allocated PAGES: 8597
