
*** ChampSim Multicore Out-of-Order Simulator ***

Warmup Instructions: 50000000
Simulation Instructions: 200000000
Number of CPUs: 1
LLC sets: 2048
LLC ways: 16
Off-chip DRAM Size: 4096 MB Channels: 1 Width: 64-bit Data Rate: 6400 MT/s
CPU 0 runs traces/spec2k17/srv_11.champsimtrace.xz
.xz
BTB has LRU replacement policy
ITLB has LRU replacement policy
DTLB has LRU replacement policy
STLB has LRU replacement policy
L1I has LRU replacement policy
IP Table Entries: 1024
CSPT Entries: 128
RR_ENTRIES: 32
RST_ENTRIES: 8
L1D has LRU replacement policy
Initialize SRRIP state for L2C
Initialize DRRIP state for LLC
Heartbeat CPU 0 instructions: 10000000 cycles: 3336577 heartbeat IPC: 2.99708 cumulative IPC: 2.99708 (Simulation time: 0 hr 0 min 57 sec) 
Heartbeat CPU 0 instructions: 20000002 cycles: 7806746 heartbeat IPC: 2.23705 cumulative IPC: 2.56189 (Simulation time: 0 hr 2 min 20 sec) 
Heartbeat CPU 0 instructions: 30000001 cycles: 10581932 heartbeat IPC: 3.60336 cumulative IPC: 2.83502 (Simulation time: 0 hr 3 min 7 sec) 
*** Reached end of trace for Core: 0 Repeating trace: traces/spec2k17/srv_11.champsimtrace.xz
Heartbeat CPU 0 instructions: 40000001 cycles: 13747165 heartbeat IPC: 3.15933 cumulative IPC: 2.90969 (Simulation time: 0 hr 4 min 2 sec) 
Heartbeat CPU 0 instructions: 50000000 cycles: 18385481 heartbeat IPC: 2.15595 cumulative IPC: 2.71954 (Simulation time: 0 hr 5 min 34 sec) 

Warmup complete CPU 0 instructions: 50000004 cycles: 18385482 (Simulation time: 0 hr 5 min 34 sec) 

Heartbeat CPU 0 instructions: 60000003 cycles: 42137985 heartbeat IPC: 0.421008 cumulative IPC: 0.421008 (Simulation time: 0 hr 6 min 31 sec) 
*** Reached end of trace for Core: 0 Repeating trace: traces/spec2k17/srv_11.champsimtrace.xz
Heartbeat CPU 0 instructions: 70000000 cycles: 66132955 heartbeat IPC: 0.416754 cumulative IPC: 0.41887 (Simulation time: 0 hr 7 min 23 sec) 
Heartbeat CPU 0 instructions: 80000001 cycles: 105853140 heartbeat IPC: 0.251761 cumulative IPC: 0.342984 (Simulation time: 0 hr 8 min 49 sec) 
Heartbeat CPU 0 instructions: 90000003 cycles: 130577313 heartbeat IPC: 0.404463 cumulative IPC: 0.356532 (Simulation time: 0 hr 9 min 41 sec) 
*** Reached end of trace for Core: 0 Repeating trace: traces/spec2k17/srv_11.champsimtrace.xz
Heartbeat CPU 0 instructions: 100000003 cycles: 154162065 heartbeat IPC: 0.424003 cumulative IPC: 0.368252 (Simulation time: 0 hr 10 min 36 sec) 
Heartbeat CPU 0 instructions: 110000000 cycles: 192939466 heartbeat IPC: 0.257882 cumulative IPC: 0.343733 (Simulation time: 0 hr 12 min 0 sec) 
Heartbeat CPU 0 instructions: 120000000 cycles: 218789246 heartbeat IPC: 0.38685 cumulative IPC: 0.349295 (Simulation time: 0 hr 12 min 59 sec) 
*** Reached end of trace for Core: 0 Repeating trace: traces/spec2k17/srv_11.champsimtrace.xz
Heartbeat CPU 0 instructions: 130000002 cycles: 242340642 heartbeat IPC: 0.424603 cumulative IPC: 0.357214 (Simulation time: 0 hr 13 min 48 sec) 
Heartbeat CPU 0 instructions: 140000002 cycles: 279934911 heartbeat IPC: 0.265998 cumulative IPC: 0.344103 (Simulation time: 0 hr 15 min 9 sec) 
Heartbeat CPU 0 instructions: 150000002 cycles: 306716799 heartbeat IPC: 0.373387 cumulative IPC: 0.346823 (Simulation time: 0 hr 16 min 13 sec) 
*** Reached end of trace for Core: 0 Repeating trace: traces/spec2k17/srv_11.champsimtrace.xz
Heartbeat CPU 0 instructions: 160000003 cycles: 330439998 heartbeat IPC: 0.421528 cumulative IPC: 0.352502 (Simulation time: 0 hr 17 min 1 sec) 
Heartbeat CPU 0 instructions: 170000000 cycles: 366898565 heartbeat IPC: 0.274284 cumulative IPC: 0.34432 (Simulation time: 0 hr 18 min 24 sec) 
Heartbeat CPU 0 instructions: 180000001 cycles: 394799377 heartbeat IPC: 0.358413 cumulative IPC: 0.345365 (Simulation time: 0 hr 19 min 23 sec) 
*** Reached end of trace for Core: 0 Repeating trace: traces/spec2k17/srv_11.champsimtrace.xz
Heartbeat CPU 0 instructions: 190000003 cycles: 418329955 heartbeat IPC: 0.424979 cumulative IPC: 0.350049 (Simulation time: 0 hr 20 min 12 sec) 
Heartbeat CPU 0 instructions: 200000000 cycles: 453816232 heartbeat IPC: 0.281799 cumulative IPC: 0.344486 (Simulation time: 0 hr 21 min 27 sec) 
Heartbeat CPU 0 instructions: 210000001 cycles: 482811919 heartbeat IPC: 0.344879 cumulative IPC: 0.344511 (Simulation time: 0 hr 22 min 35 sec) 
*** Reached end of trace for Core: 0 Repeating trace: traces/spec2k17/srv_11.champsimtrace.xz
Heartbeat CPU 0 instructions: 220000000 cycles: 506388835 heartbeat IPC: 0.424144 cumulative IPC: 0.348358 (Simulation time: 0 hr 23 min 31 sec) 
Heartbeat CPU 0 instructions: 230000000 cycles: 540678871 heartbeat IPC: 0.29163 cumulative IPC: 0.344634 (Simulation time: 0 hr 24 min 40 sec) 
Heartbeat CPU 0 instructions: 240000002 cycles: 570826965 heartbeat IPC: 0.331696 cumulative IPC: 0.343928 (Simulation time: 0 hr 25 min 46 sec) 
*** Reached end of trace for Core: 0 Repeating trace: traces/spec2k17/srv_11.champsimtrace.xz
Heartbeat CPU 0 instructions: 250000000 cycles: 594376185 heartbeat IPC: 0.424642 cumulative IPC: 0.347228 (Simulation time: 0 hr 26 min 37 sec) 
Finished CPU 0 instructions: 200000000 cycles: 575990704 cumulative IPC: 0.347228 (Simulation time: 0 hr 26 min 37 sec) 

ChampSim completed all CPUs

Region of Interest Statistics

CPU 0 cumulative IPC: 0.347228 instructions: 200000000 cycles: 575990704
ITLB TOTAL     ACCESS:   37989664  HIT:   37450187  MISS:     539477  HIT %:    98.5799  MISS %:    1.42006   MPKI: 2.69739
ITLB LOAD TRANSLATION ACCESS:   37989664  HIT:   37450187  MISS:     539477  HIT %:    98.5799  MISS %:    1.42006   MPKI: 2.69739
ITLB PREFETCH  REQUESTED:          0  ISSUED:          0  USEFUL:          0  USELESS:          0
ITLB USEFUL LOAD PREFETCHES:          0 PREFETCH ISSUED TO LOWER LEVEL:          0  ACCURACY: -nan
ITLB TIMELY PREFETCHES:          0 LATE PREFETCHES: 0 DROPPED PREFETCHES: 0
ITLB PREFETCHES SAME FILL-ORIGIN LEVEL: 0 DIFFERENT FILL-ORIGIN LEVEL: 0
ITLB AVERAGE MISS LATENCY: 16.1088 cycles
ITLB RQ	ACCESS:   43892373	FORWARD:          0	MERGED:    5774072	TO_CACHE:   38118301

DTLB TOTAL     ACCESS:   43957182  HIT:   34970801  MISS:    8986381  HIT %:    79.5565  MISS %:    20.4435   MPKI: 44.9319
DTLB LOAD TRANSLATION ACCESS:   43957182  HIT:   34970801  MISS:    8986381  HIT %:    79.5565  MISS %:    20.4435   MPKI: 44.9319
DTLB PREFETCH  REQUESTED:          0  ISSUED:          0  USEFUL:          0  USELESS:          0
DTLB USEFUL LOAD PREFETCHES:          0 PREFETCH ISSUED TO LOWER LEVEL:          0  ACCURACY: -nan
DTLB TIMELY PREFETCHES:          0 LATE PREFETCHES: 0 DROPPED PREFETCHES: 0
DTLB PREFETCHES SAME FILL-ORIGIN LEVEL: 0 DIFFERENT FILL-ORIGIN LEVEL: 0
DTLB AVERAGE MISS LATENCY: 10.0134 cycles
DTLB RQ	ACCESS:   59036576	FORWARD:          0	MERGED:   14870282	TO_CACHE:   44166294

STLB TOTAL     ACCESS:   19231240  HIT:   18917250  MISS:     313990  HIT %:    98.3673  MISS %:    1.63271   MPKI: 1.56995
STLB LOAD TRANSLATION ACCESS:    9525858  HIT:    9211868  MISS:     313990  HIT %:    96.7038  MISS %:    3.29619   MPKI: 1.56995
STLB TRANSLATION FROM L1D PREFETCHER ACCESS:    9705382  HIT:    9705382  MISS:          0  HIT %:        100  MISS %:          0   MPKI: 0
STLB PREFETCH  REQUESTED:          0  ISSUED:          0  USEFUL:          0  USELESS:          0
STLB USEFUL LOAD PREFETCHES:          0 PREFETCH ISSUED TO LOWER LEVEL:          0  ACCURACY: -nan
STLB TIMELY PREFETCHES:          0 LATE PREFETCHES: 0 DROPPED PREFETCHES: 0
STLB PREFETCHES SAME FILL-ORIGIN LEVEL: 0 DIFFERENT FILL-ORIGIN LEVEL: 0
STLB AVERAGE MISS LATENCY: 41.0054 cycles
STLB RQ	ACCESS:   29416423	FORWARD:          0	MERGED:   10185183	TO_CACHE:   19231240

STLB Hit, L1D data hit: 0
STLB Hit, L2C data hit: 0
STLB Hit, LLC data hit: 0
STLB Hit, LLC data miss: 0
STLB STLB hints to L2: 0
L1D TOTAL     ACCESS:   77980722  HIT:   54589223  MISS:   23391499  HIT %:    70.0035  MISS %:    29.9965   MPKI: 116.957
L1D LOAD      ACCESS:   41112052  HIT:   29483668  MISS:   11628384  HIT %:    71.7154  MISS %:    28.2846   MPKI: 58.1419
L1D RFO       ACCESS:   17315392  HIT:   16837419  MISS:     477973  HIT %:    97.2396  MISS %:    2.76039   MPKI: 2.38986
L1D PREFETCH  ACCESS:   19553278  HIT:    8268136  MISS:   11285142  HIT %:    42.2852  MISS %:    57.7148   MPKI: 56.4257
AGUS PREFETCH L1 MISS: 0
L1D PREFETCH  REQUESTED:   39782052  ISSUED:   39781594  USEFUL:     971847  USELESS:   10313353
L1D USEFUL LOAD PREFETCHES:     971847 PREFETCH ISSUED TO LOWER LEVEL:   11508483  ACCURACY: 8.44461
L1D TIMELY PREFETCHES:     971847 LATE PREFETCHES: 222497 DROPPED PREFETCHES: 0
L1D PREFETCHES SAME FILL-ORIGIN LEVEL: 11508483 DIFFERENT FILL-ORIGIN LEVEL: 0
L1D AVERAGE MISS LATENCY: 2.96625e+06 cycles
L1D RQ	ACCESS:   54048722	FORWARD:          0	MERGED:   12678966	TO_CACHE:   41202486
L1D WQ	ACCESS:   18064452	FORWARD:     167734	MERGED:     230362	TO_CACHE:   17834090
L1D PQ	ACCESS:   19891029	FORWARD:          0	MERGED:          0	TO_CACHE:   19890565

L1D UNIQUE REGIONS ACCESSED: 0
L1D REGIONS CONFLICTS: 0
L1D Cross Page Prefetch Requests: 0
L1D Same Page Prefetch Requests: 26414809
L1D ROI Sum of L1D PQ occupancy: 259846163
L1D PREFETCHES PUSHED FROM L2C: 0
L1I TOTAL     ACCESS:   42777102  HIT:   39354960  MISS:    3422142  HIT %:    92.0001  MISS %:    7.99994   MPKI: 17.1107
L1I LOAD      ACCESS:   42777102  HIT:   39354960  MISS:    3422142  HIT %:    92.0001  MISS %:    7.99994   MPKI: 17.1107
L1I PREFETCH  REQUESTED:          0  ISSUED:          0  USEFUL:          0  USELESS:          0
L1I USEFUL LOAD PREFETCHES:          0 PREFETCH ISSUED TO LOWER LEVEL:          0  ACCURACY: -nan
L1I TIMELY PREFETCHES:          0 LATE PREFETCHES: 0 DROPPED PREFETCHES: 0
L1I PREFETCHES SAME FILL-ORIGIN LEVEL: 0 DIFFERENT FILL-ORIGIN LEVEL: 0
L1I AVERAGE MISS LATENCY: 28.7987 cycles
L1I RQ	ACCESS:   65987123	FORWARD:          0	MERGED:   22094750	TO_CACHE:   43892373

BTB TOTAL     ACCESS:   33562541  HIT:   29061291  MISS:    4501250  HIT %:    86.5885  MISS %:    13.4115   MPKI: 22.5063
BTB BRANCH_DIRECT_JUMP	ACCESS:    1685269  HIT:    1483558  MISS:     201711
BTB BRANCH_INDIRECT	ACCESS:   19828017  HIT:   17476348  MISS:    2351669
BTB BRANCH_CONDITIONAL	ACCESS:    4608066  HIT:    4287796  MISS:     320270
BTB BRANCH_DIRECT_CALL	ACCESS:    2993939  HIT:    2599188  MISS:     394751
BTB BRANCH_INDIRECT_CALL	ACCESS:     724221  HIT:     681906  MISS:      42315
BTB BRANCH_RETURN	ACCESS:    3723029  HIT:    2532495  MISS:    1190534
BTB BRANCH_OTHER ACCESS:          0  HIT:          0  MISS:          0

L2C TOTAL     ACCESS:   28143493  HIT:   25223015  MISS:    2920478  HIT %:    89.6229  MISS %:    10.3771   MPKI: 14.6024
L2C LOAD      ACCESS:   14827966  HIT:   12505674  MISS:    2322292  HIT %:    84.3384  MISS %:    15.6616   MPKI: 11.6115
L2C DATA LOAD MPKI: 3.66045
L2C INSTRUCTION LOAD MPKI: 7.95101
L2C RFO       ACCESS:     477129  HIT:     355887  MISS:     121242  HIT %:    74.5893  MISS %:    25.4107   MPKI: 0.60621
L2C PREFETCH  ACCESS:   11508483  HIT:   11223056  MISS:     285427  HIT %:    97.5199  MISS %:    2.48014   MPKI: 1.42714
AGUS PREFETCH L1 MISS: 0
L2C DATA PREFETCH MPKI: 1.42714
L2C INSTRUCTION PREFETCH MPKI: 0
L2C WRITEBACK ACCESS:     931712  HIT:     895869  MISS:      35843  HIT %:     96.153  MISS %:      3.847   MPKI: 0.179215
L2C LOAD TRANSLATION ACCESS:     398203  HIT:     242529  MISS:     155674  HIT %:    60.9059  MISS %:    39.0941   MPKI: 0.77837
L2C PREFETCH  REQUESTED:          0  ISSUED:          0  USEFUL:       9010  USELESS:     277385
L2C USEFUL LOAD PREFETCHES:       9010 PREFETCH ISSUED TO LOWER LEVEL:     285427  ACCURACY: 3.15667
L2C TIMELY PREFETCHES:       9010 LATE PREFETCHES: 0 DROPPED PREFETCHES: 0
L2C PREFETCHES SAME FILL-ORIGIN LEVEL: 0 DIFFERENT FILL-ORIGIN LEVEL: 0
L2C AVERAGE MISS LATENCY: 43.3177 cycles
L2C RQ	ACCESS:   15703361	FORWARD:          0	MERGED:          0	TO_CACHE:   15703298
L2C WQ	ACCESS:     931712	FORWARD:         63	MERGED:          0	TO_CACHE:     931712
L2C PQ	ACCESS:   11508483	FORWARD:          0	MERGED:          0	TO_CACHE:   11508483

L2C Instructions Evicting Data 636909
L2C Translations Evicting Data 62853
L2C Data Evicting Data 462792
L2C Instructions Evicting Instructions 867987
L2C Translations Evicting Instructions 85446
L2C Data Evicting Instructions 615283
L2C Instructions Evicting Translations 85307
L2C Translations Evicting Translations 7375
L2C Data Evicting Translations 60683
L2C Dense regions hint from L2: 0
PSCL5 TOTAL     ACCESS:     313990  HIT:     313990  MISS:          0  HIT %:        100  MISS %:          0   MPKI: 0
PSCL5 LOAD TRANSLATION ACCESS:     313990  HIT:     313990  MISS:          0  HIT %:        100  MISS %:          0   MPKI: 0
PSCL5 PREFETCH  REQUESTED:          0  ISSUED:          0  USEFUL:          0  USELESS:          0
PSCL5 USEFUL LOAD PREFETCHES:          0 PREFETCH ISSUED TO LOWER LEVEL:          0  ACCURACY: -nan
PSCL5 TIMELY PREFETCHES:          0 LATE PREFETCHES: 0 DROPPED PREFETCHES: 0
PSCL5 PREFETCHES SAME FILL-ORIGIN LEVEL: 0 DIFFERENT FILL-ORIGIN LEVEL: 0

PSCL4 TOTAL     ACCESS:     293247  HIT:     292503  MISS:        744  HIT %:    99.7463  MISS %:   0.253711   MPKI: 0.00372
PSCL4 LOAD TRANSLATION ACCESS:     293247  HIT:     292503  MISS:        744  HIT %:    99.7463  MISS %:   0.253711   MPKI: 0.00372
PSCL4 PREFETCH  REQUESTED:          0  ISSUED:          0  USEFUL:          0  USELESS:          0
PSCL4 USEFUL LOAD PREFETCHES:          0 PREFETCH ISSUED TO LOWER LEVEL:          0  ACCURACY: -nan
PSCL4 TIMELY PREFETCHES:          0 LATE PREFETCHES: 0 DROPPED PREFETCHES: 0
PSCL4 PREFETCHES SAME FILL-ORIGIN LEVEL: 0 DIFFERENT FILL-ORIGIN LEVEL: 0

PSCL3 TOTAL     ACCESS:     311395  HIT:     308962  MISS:       2433  HIT %:    99.2187  MISS %:   0.781323   MPKI: 0.012165
PSCL3 LOAD TRANSLATION ACCESS:     311395  HIT:     308962  MISS:       2433  HIT %:    99.2187  MISS %:   0.781323   MPKI: 0.012165
PSCL3 PREFETCH  REQUESTED:          0  ISSUED:          0  USEFUL:          0  USELESS:          0
PSCL3 USEFUL LOAD PREFETCHES:          0 PREFETCH ISSUED TO LOWER LEVEL:          0  ACCURACY: -nan
PSCL3 TIMELY PREFETCHES:          0 LATE PREFETCHES: 0 DROPPED PREFETCHES: 0
PSCL3 PREFETCHES SAME FILL-ORIGIN LEVEL: 0 DIFFERENT FILL-ORIGIN LEVEL: 0

PSCL2 TOTAL     ACCESS:     313990  HIT:     232954  MISS:      81036  HIT %:    74.1915  MISS %:    25.8085   MPKI: 0.40518
PSCL2 LOAD TRANSLATION ACCESS:     313990  HIT:     232954  MISS:      81036  HIT %:    74.1915  MISS %:    25.8085   MPKI: 0.40518
PSCL2 PREFETCH  REQUESTED:          0  ISSUED:          0  USEFUL:          0  USELESS:          0
PSCL2 USEFUL LOAD PREFETCHES:          0 PREFETCH ISSUED TO LOWER LEVEL:          0  ACCURACY: -nan
PSCL2 TIMELY PREFETCHES:          0 LATE PREFETCHES: 0 DROPPED PREFETCHES: 0
PSCL2 PREFETCHES SAME FILL-ORIGIN LEVEL: 0 DIFFERENT FILL-ORIGIN LEVEL: 0

LLC TOTAL     ACCESS:    3227405  HIT:    2980415  MISS:     246990  HIT %:    92.3471  MISS %:     7.6529   MPKI: 1.23495
LLC LOAD      ACCESS:    2322292  HIT:    2172359  MISS:     149933  HIT %:    93.5437  MISS %:    6.45625   MPKI: 0.749665
LLC RFO       ACCESS:     121242  HIT:      88062  MISS:      33180  HIT %:    72.6332  MISS %:    27.3668   MPKI: 0.1659
LLC PREFETCH  ACCESS:     285427  HIT:     228992  MISS:      56435  HIT %:    80.2279  MISS %:    19.7721   MPKI: 0.282175
AGUS PREFETCH L1 MISS: 0
LLC WRITEBACK ACCESS:     342770  HIT:     339646  MISS:       3124  HIT %:    99.0886  MISS %:   0.911398   MPKI: 0.01562
LLC LOAD TRANSLATION ACCESS:     155674  HIT:     151356  MISS:       4318  HIT %:    97.2263  MISS %:    2.77375   MPKI: 0.02159
LLC PREFETCH  REQUESTED:          0  ISSUED:          0  USEFUL:       2621  USELESS:      54812
LLC USEFUL LOAD PREFETCHES:       2621 PREFETCH ISSUED TO LOWER LEVEL:      56435  ACCURACY: 4.64428
LLC TIMELY PREFETCHES:       2621 LATE PREFETCHES: 0 DROPPED PREFETCHES: 0
LLC PREFETCHES SAME FILL-ORIGIN LEVEL: 0 DIFFERENT FILL-ORIGIN LEVEL: 0
LLC AVERAGE MISS LATENCY: 161.819 cycles
LLC RQ	ACCESS:    2599208	FORWARD:          0	MERGED:          0	TO_CACHE:    2599208
LLC WQ	ACCESS:     342770	FORWARD:          0	MERGED:          0	TO_CACHE:     342770
LLC PQ	ACCESS:     285427	FORWARD:          0	MERGED:          0	TO_CACHE:     285427

LLC Dense regions hint to LLC: 0

RAW hits: 2244096
Loads Generated: 56292824
Loads sent to L1D: 54048722
Stores Generated: 18064423
Stores sent to L1D: 18064452
Major fault: 0 Minor fault: 4241
Allocated PAGES: 4241

stream: 
stream:times selected: 19083282
stream:pref_filled: 9682357
stream:pref_useful: 222028
stream:pref_late: 63300
stream:misses: 7158840
stream:misses_by_poll: 0

CS: 
CS:times selected: 4677440
CS:pref_filled: 1997318
CS:pref_useful: 284931
CS:pref_late: 36928
CS:misses: 297877
CS:misses_by_poll: 0

CPLX: 
CPLX:times selected: 17605366
CPLX:pref_filled: 3089617
CPLX:pref_useful: 561333
CPLX:pref_late: 97715
CPLX:misses: 5904095
CPLX:misses_by_poll: 29

NL_L1: 
NL:times selected: 42119
NL:pref_filled: 1420
NL:pref_useful: 319
NL:pref_late: 29
NL:misses: 534
NL:misses_by_poll: 0

total selections: 41408207
total_filled: 11285142
total_useful: 971847
total_late: 398917
total_polluted: 29
total_misses_after_warmup: 11718817
conflicts: 4625169
Degree Incremented Times: 160
Degree Decremented Times: 637186

L1 IP Table Write Accesses: 34346804
L1 IP Table Read Accesses: 29721635
L1 RST Write Accesses: 14511202
L1 RST Read Accesses: 29022404
L1 CSPT Write Accesses: 14511202
L1 CSPT Read Accesses: 27922427
L1 RR Filter Tag Write Accesses: 19891487
L1 RR Filter Tag Read Accesses: 803599212
L1 IP Table Tag Write Accesses: 41202485
L1 IP Table Tag Read Accesses: 41202485
L1 RST Tag Write Accesses: 0
L1 RST Tag Read Accesses: 125568825
L1 RR Filter Write Accesses: 0
L1 RR Filter Read Accesses: 25636038
test: 10204392

DRAM Statistics
 CHANNEL 0
 RQ ROW_BUFFER_HIT:      56795  ROW_BUFFER_MISS:     187071
 DBUS_CONGESTED:        142
 WQ ROW_BUFFER_HIT:      18750  ROW_BUFFER_MISS:     126446  FULL:          0

 AVG_CONGESTED_CYCLE: 4
 All warmup complete: 2
Channel 0 Bank busy for read cycles: 0
Channel 0 Bank busy for write cycles: 0
Channel 0
Rank 0
0banks busy for read cycles: 536579069
0banks busy for write cycles: 80308
1banks busy for read cycles: 19496467
1banks busy for write cycles: 11075939
2banks busy for read cycles: 2996252
2banks busy for write cycles: 2360372
3banks busy for read cycles: 645532
3banks busy for write cycles: 799878
4banks busy for read cycles: 268488
4banks busy for write cycles: 398357
5banks busy for read cycles: 103413
5banks busy for write cycles: 253639
6banks busy for read cycles: 69011
6banks busy for write cycles: 188299
7banks busy for read cycles: 54005
7banks busy for write cycles: 143570
8banks busy for read cycles: 146070
8banks busy for write cycles: 332036

CPU 0 Branch Prediction Accuracy: 99.8224% MPKI: 0.38789 Average ROB Occupancy at Mispredict: 27.9678
Branch types
NOT_BRANCH: 156307769 78.1539%
BRANCH_DIRECT_JUMP: 1685269 0.842634%
BRANCH_INDIRECT: 19828017 9.91401%
BRANCH_CONDITIONAL: 14737479 7.36874%
BRANCH_DIRECT_CALL: 2993939 1.49697%
BRANCH_INDIRECT_CALL: 724221 0.362111%
BRANCH_RETURN: 3723029 1.86151%
BRANCH_OTHER: 0 0%

DRAM PAGES: 1048576
Allocated PAGES: 4241
