
*** ChampSim Multicore Out-of-Order Simulator ***

Warmup Instructions: 50000000
Simulation Instructions: 200000000
Number of CPUs: 1
LLC sets: 2048
LLC ways: 16
Off-chip DRAM Size: 4096 MB Channels: 1 Width: 64-bit Data Rate: 6400 MT/s
CPU 0 runs traces/spec2k17/srv_59.champsimtrace.xz
.xz
BTB has LRU replacement policy
ITLB has LRU replacement policy
DTLB has LRU replacement policy
STLB has LRU replacement policy
L1I has LRU replacement policy
IP Table Entries: 1024
CSPT Entries: 128
RR_ENTRIES: 32
RST_ENTRIES: 8
L1D has LRU replacement policy
Initialize SRRIP state for L2C
Initialize DRRIP state for LLC
Heartbeat CPU 0 instructions: 10000001 cycles: 2964646 heartbeat IPC: 3.37308 cumulative IPC: 3.37308 (Simulation time: 0 hr 1 min 0 sec) 
Heartbeat CPU 0 instructions: 20000003 cycles: 5797549 heartbeat IPC: 3.52995 cumulative IPC: 3.44973 (Simulation time: 0 hr 1 min 59 sec) 
Heartbeat CPU 0 instructions: 30000002 cycles: 8587960 heartbeat IPC: 3.5837 cumulative IPC: 3.49326 (Simulation time: 0 hr 2 min 50 sec) 
*** Reached end of trace for Core: 0 Repeating trace: traces/spec2k17/srv_59.champsimtrace.xz
Heartbeat CPU 0 instructions: 40000000 cycles: 11528893 heartbeat IPC: 3.40028 cumulative IPC: 3.46954 (Simulation time: 0 hr 3 min 54 sec) 
Heartbeat CPU 0 instructions: 50000002 cycles: 14389237 heartbeat IPC: 3.49608 cumulative IPC: 3.47482 (Simulation time: 0 hr 4 min 52 sec) 

Warmup complete CPU 0 instructions: 50000002 cycles: 14389237 (Simulation time: 0 hr 4 min 52 sec) 

Heartbeat CPU 0 instructions: 60000001 cycles: 33273935 heartbeat IPC: 0.529529 cumulative IPC: 0.529529 (Simulation time: 0 hr 5 min 43 sec) 
*** Reached end of trace for Core: 0 Repeating trace: traces/spec2k17/srv_59.champsimtrace.xz
Heartbeat CPU 0 instructions: 70000002 cycles: 47165966 heartbeat IPC: 0.719837 cumulative IPC: 0.610189 (Simulation time: 0 hr 6 min 33 sec) 
Heartbeat CPU 0 instructions: 80000001 cycles: 63100831 heartbeat IPC: 0.627555 cumulative IPC: 0.61587 (Simulation time: 0 hr 7 min 20 sec) 
Heartbeat CPU 0 instructions: 90000000 cycles: 81743697 heartbeat IPC: 0.536398 cumulative IPC: 0.593873 (Simulation time: 0 hr 8 min 4 sec) 
*** Reached end of trace for Core: 0 Repeating trace: traces/spec2k17/srv_59.champsimtrace.xz
Heartbeat CPU 0 instructions: 100000001 cycles: 96754009 heartbeat IPC: 0.666209 cumulative IPC: 0.607056 (Simulation time: 0 hr 8 min 53 sec) 
Heartbeat CPU 0 instructions: 110000000 cycles: 111639629 heartbeat IPC: 0.671789 cumulative IPC: 0.616964 (Simulation time: 0 hr 9 min 46 sec) 
Heartbeat CPU 0 instructions: 120000000 cycles: 130512566 heartbeat IPC: 0.529859 cumulative IPC: 0.602807 (Simulation time: 0 hr 10 min 40 sec) 
*** Reached end of trace for Core: 0 Repeating trace: traces/spec2k17/srv_59.champsimtrace.xz
Heartbeat CPU 0 instructions: 130000001 cycles: 146334627 heartbeat IPC: 0.632029 cumulative IPC: 0.606311 (Simulation time: 0 hr 11 min 27 sec) 
Heartbeat CPU 0 instructions: 140000003 cycles: 160342147 heartbeat IPC: 0.713902 cumulative IPC: 0.616637 (Simulation time: 0 hr 12 min 12 sec) 
Heartbeat CPU 0 instructions: 150000003 cycles: 179021740 heartbeat IPC: 0.535344 cumulative IPC: 0.607413 (Simulation time: 0 hr 13 min 2 sec) 
*** Reached end of trace for Core: 0 Repeating trace: traces/spec2k17/srv_59.champsimtrace.xz
Heartbeat CPU 0 instructions: 160000000 cycles: 195902962 heartbeat IPC: 0.592374 cumulative IPC: 0.606015 (Simulation time: 0 hr 13 min 59 sec) 
Heartbeat CPU 0 instructions: 170000000 cycles: 208789995 heartbeat IPC: 0.775974 cumulative IPC: 0.617282 (Simulation time: 0 hr 14 min 49 sec) 
Heartbeat CPU 0 instructions: 180000000 cycles: 227610605 heartbeat IPC: 0.531332 cumulative IPC: 0.609695 (Simulation time: 0 hr 15 min 38 sec) 
*** Reached end of trace for Core: 0 Repeating trace: traces/spec2k17/srv_59.champsimtrace.xz
Heartbeat CPU 0 instructions: 190000000 cycles: 245451842 heartbeat IPC: 0.560499 cumulative IPC: 0.605896 (Simulation time: 0 hr 16 min 24 sec) 
Heartbeat CPU 0 instructions: 200000000 cycles: 257297681 heartbeat IPC: 0.844178 cumulative IPC: 0.617517 (Simulation time: 0 hr 17 min 11 sec) 
Heartbeat CPU 0 instructions: 210000002 cycles: 276141717 heartbeat IPC: 0.530672 cumulative IPC: 0.611265 (Simulation time: 0 hr 18 min 4 sec) 
*** Reached end of trace for Core: 0 Repeating trace: traces/spec2k17/srv_59.champsimtrace.xz
Heartbeat CPU 0 instructions: 220000000 cycles: 294810381 heartbeat IPC: 0.535657 cumulative IPC: 0.606231 (Simulation time: 0 hr 18 min 50 sec) 
Heartbeat CPU 0 instructions: 230000003 cycles: 305911205 heartbeat IPC: 0.900834 cumulative IPC: 0.617449 (Simulation time: 0 hr 19 min 42 sec) 
Heartbeat CPU 0 instructions: 240000000 cycles: 324637300 heartbeat IPC: 0.534014 cumulative IPC: 0.612413 (Simulation time: 0 hr 20 min 32 sec) 
*** Reached end of trace for Core: 0 Repeating trace: traces/spec2k17/srv_59.champsimtrace.xz
Heartbeat CPU 0 instructions: 250000001 cycles: 343253105 heartbeat IPC: 0.537178 cumulative IPC: 0.608154 (Simulation time: 0 hr 21 min 21 sec) 
Finished CPU 0 instructions: 200000001 cycles: 328863869 cumulative IPC: 0.608154 (Simulation time: 0 hr 21 min 21 sec) 

ChampSim completed all CPUs

Region of Interest Statistics

CPU 0 cumulative IPC: 0.608154 instructions: 200000001 cycles: 328863869
ITLB TOTAL     ACCESS:   36235004  HIT:   35633586  MISS:     601418  HIT %:    98.3402  MISS %:    1.65977   MPKI: 3.00709
ITLB LOAD TRANSLATION ACCESS:   36235004  HIT:   35633586  MISS:     601418  HIT %:    98.3402  MISS %:    1.65977   MPKI: 3.00709
ITLB PREFETCH  REQUESTED:          0  ISSUED:          0  USEFUL:          0  USELESS:          0
ITLB USEFUL LOAD PREFETCHES:          0 PREFETCH ISSUED TO LOWER LEVEL:          0  ACCURACY: -nan
ITLB TIMELY PREFETCHES:          0 LATE PREFETCHES: 0 DROPPED PREFETCHES: 0
ITLB PREFETCHES SAME FILL-ORIGIN LEVEL: 0 DIFFERENT FILL-ORIGIN LEVEL: 0
ITLB AVERAGE MISS LATENCY: 9.0269 cycles
ITLB RQ	ACCESS:   40783360	FORWARD:          0	MERGED:    4357750	TO_CACHE:   36425610

DTLB TOTAL     ACCESS:   42645706  HIT:   41940430  MISS:     705276  HIT %:    98.3462  MISS %:     1.6538   MPKI: 3.52638
DTLB LOAD TRANSLATION ACCESS:   42645706  HIT:   41940430  MISS:     705276  HIT %:    98.3462  MISS %:     1.6538   MPKI: 3.52638
DTLB PREFETCH  REQUESTED:          0  ISSUED:          0  USEFUL:          0  USELESS:          0
DTLB USEFUL LOAD PREFETCHES:          0 PREFETCH ISSUED TO LOWER LEVEL:          0  ACCURACY: -nan
DTLB TIMELY PREFETCHES:          0 LATE PREFETCHES: 0 DROPPED PREFETCHES: 0
DTLB PREFETCHES SAME FILL-ORIGIN LEVEL: 0 DIFFERENT FILL-ORIGIN LEVEL: 0
DTLB AVERAGE MISS LATENCY: 9.05424 cycles
DTLB RQ	ACCESS:   58419775	FORWARD:          0	MERGED:   15742956	TO_CACHE:   42676819

STLB TOTAL     ACCESS:    4053202  HIT:    4052482  MISS:        720  HIT %:    99.9822  MISS %:  0.0177637   MPKI: 0.0036
STLB LOAD TRANSLATION ACCESS:    1306694  HIT:    1305974  MISS:        720  HIT %:    99.9449  MISS %:  0.0551009   MPKI: 0.0036
STLB TRANSLATION FROM L1D PREFETCHER ACCESS:    2746508  HIT:    2746508  MISS:          0  HIT %:        100  MISS %:          0   MPKI: 0
STLB PREFETCH  REQUESTED:          0  ISSUED:          0  USEFUL:          0  USELESS:          0
STLB USEFUL LOAD PREFETCHES:          0 PREFETCH ISSUED TO LOWER LEVEL:          0  ACCURACY: -nan
STLB TIMELY PREFETCHES:          0 LATE PREFETCHES: 0 DROPPED PREFETCHES: 0
STLB PREFETCHES SAME FILL-ORIGIN LEVEL: 0 DIFFERENT FILL-ORIGIN LEVEL: 0
STLB AVERAGE MISS LATENCY: 68.2292 cycles
STLB RQ	ACCESS:    6809372	FORWARD:          0	MERGED:    2756170	TO_CACHE:    4053202

STLB Hit, L1D data hit: 0
STLB Hit, L2C data hit: 0
STLB Hit, LLC data hit: 0
STLB Hit, LLC data miss: 0
STLB STLB hints to L2: 0
L1D TOTAL     ACCESS:   63479816  HIT:   62067863  MISS:    1411953  HIT %:    97.7757  MISS %:    2.22426   MPKI: 7.05976
L1D LOAD      ACCESS:   37333823  HIT:   36585480  MISS:     748343  HIT %:    97.9955  MISS %:    2.00446   MPKI: 3.74171
L1D RFO       ACCESS:   20721962  HIT:   20433907  MISS:     288055  HIT %:    98.6099  MISS %:     1.3901   MPKI: 1.44027
L1D PREFETCH  ACCESS:    5424031  HIT:    5048476  MISS:     375555  HIT %:    93.0761  MISS %:    6.92391   MPKI: 1.87777
AGUS PREFETCH L1 MISS: 0
L1D PREFETCH  REQUESTED:   11006342  ISSUED:   11005963  USEFUL:     105122  USELESS:     270395
L1D USEFUL LOAD PREFETCHES:     105122 PREFETCH ISSUED TO LOWER LEVEL:     407152  ACCURACY: 25.8189
L1D TIMELY PREFETCHES:     105122 LATE PREFETCHES: 26998 DROPPED PREFETCHES: 0
L1D PREFETCHES SAME FILL-ORIGIN LEVEL: 407152 DIFFERENT FILL-ORIGIN LEVEL: 0
L1D AVERAGE MISS LATENCY: 4.03381e+06 cycles
L1D RQ	ACCESS:   52193045	FORWARD:          0	MERGED:   14610867	TO_CACHE:   37361191
L1D WQ	ACCESS:   21284228	FORWARD:     221594	MERGED:     225644	TO_CACHE:   21058584
L1D PQ	ACCESS:    5503285	FORWARD:          0	MERGED:          0	TO_CACHE:    5502678

L1D UNIQUE REGIONS ACCESSED: 0
L1D REGIONS CONFLICTS: 0
L1D Cross Page Prefetch Requests: 0
L1D Same Page Prefetch Requests: 6935418
L1D ROI Sum of L1D PQ occupancy: 70215656
L1D PREFETCHES PUSHED FROM L2C: 0
L1I TOTAL     ACCESS:   40386500  HIT:   38144377  MISS:    2242123  HIT %:    94.4483  MISS %:    5.55166   MPKI: 11.2106
L1I LOAD      ACCESS:   40386500  HIT:   38144377  MISS:    2242123  HIT %:    94.4483  MISS %:    5.55166   MPKI: 11.2106
L1I PREFETCH  REQUESTED:          0  ISSUED:          0  USEFUL:          0  USELESS:          0
L1I USEFUL LOAD PREFETCHES:          0 PREFETCH ISSUED TO LOWER LEVEL:          0  ACCURACY: -nan
L1I TIMELY PREFETCHES:          0 LATE PREFETCHES: 0 DROPPED PREFETCHES: 0
L1I PREFETCHES SAME FILL-ORIGIN LEVEL: 0 DIFFERENT FILL-ORIGIN LEVEL: 0
L1I AVERAGE MISS LATENCY: 18.931 cycles
L1I RQ	ACCESS:   63567632	FORWARD:          0	MERGED:   22784272	TO_CACHE:   40783360

BTB TOTAL     ACCESS:   34458808  HIT:   30772869  MISS:    3685939  HIT %:    89.3033  MISS %:    10.6967   MPKI: 18.4297
BTB BRANCH_DIRECT_JUMP	ACCESS:    3454569  HIT:    3286605  MISS:     167964
BTB BRANCH_INDIRECT	ACCESS:   13788070  HIT:   12683447  MISS:    1104623
BTB BRANCH_CONDITIONAL	ACCESS:    7883610  HIT:    7670723  MISS:     212887
BTB BRANCH_DIRECT_CALL	ACCESS:    2450864  HIT:    2153290  MISS:     297574
BTB BRANCH_INDIRECT_CALL	ACCESS:    2215440  HIT:    1977201  MISS:     238239
BTB BRANCH_RETURN	ACCESS:    4666255  HIT:    3001603  MISS:    1664652
BTB BRANCH_OTHER ACCESS:          0  HIT:          0  MISS:          0

L2C TOTAL     ACCESS:    4184513  HIT:    3515858  MISS:     668655  HIT %:    84.0207  MISS %:    15.9793   MPKI: 3.34327
L2C LOAD      ACCESS:    2963371  HIT:    2477693  MISS:     485678  HIT %:    83.6106  MISS %:    16.3894   MPKI: 2.42839
L2C DATA LOAD MPKI: 0.608745
L2C INSTRUCTION LOAD MPKI: 1.81964
L2C RFO       ACCESS:     283456  HIT:     216722  MISS:      66734  HIT %:     76.457  MISS %:     23.543   MPKI: 0.33367
L2C PREFETCH  ACCESS:     407148  HIT:     302276  MISS:     104872  HIT %:    74.2423  MISS %:    25.7577   MPKI: 0.52436
AGUS PREFETCH L1 MISS: 0
L2C DATA PREFETCH MPKI: 0.52436
L2C INSTRUCTION PREFETCH MPKI: 0
L2C WRITEBACK ACCESS:     529461  HIT:     519059  MISS:      10402  HIT %:    98.0354  MISS %:    1.96464   MPKI: 0.05201
L2C LOAD TRANSLATION ACCESS:       1077  HIT:        108  MISS:        969  HIT %:    10.0279  MISS %:    89.9721   MPKI: 0.004845
L2C PREFETCH  REQUESTED:          0  ISSUED:          0  USEFUL:      10597  USELESS:      94328
L2C USEFUL LOAD PREFETCHES:      10597 PREFETCH ISSUED TO LOWER LEVEL:     104872  ACCURACY: 10.1047
L2C TIMELY PREFETCHES:      10597 LATE PREFETCHES: 0 DROPPED PREFETCHES: 0
L2C PREFETCHES SAME FILL-ORIGIN LEVEL: 0 DIFFERENT FILL-ORIGIN LEVEL: 0
L2C AVERAGE MISS LATENCY: 29.8597 cycles
L2C RQ	ACCESS:    3248001	FORWARD:          0	MERGED:          0	TO_CACHE:    3247904
L2C WQ	ACCESS:     529461	FORWARD:        101	MERGED:          0	TO_CACHE:     529461
L2C PQ	ACCESS:     407152	FORWARD:          0	MERGED:          0	TO_CACHE:     407148

L2C Instructions Evicting Data 145237
L2C Translations Evicting Data 614
L2C Data Evicting Data 152162
L2C Instructions Evicting Instructions 218327
L2C Translations Evicting Instructions 344
L2C Data Evicting Instructions 140621
L2C Instructions Evicting Translations 365
L2C Translations Evicting Translations 11
L2C Data Evicting Translations 572
L2C Dense regions hint from L2: 0
PSCL5 TOTAL     ACCESS:        720  HIT:        720  MISS:          0  HIT %:        100  MISS %:          0   MPKI: 0
PSCL5 LOAD TRANSLATION ACCESS:        720  HIT:        720  MISS:          0  HIT %:        100  MISS %:          0   MPKI: 0
PSCL5 PREFETCH  REQUESTED:          0  ISSUED:          0  USEFUL:          0  USELESS:          0
PSCL5 USEFUL LOAD PREFETCHES:          0 PREFETCH ISSUED TO LOWER LEVEL:          0  ACCURACY: -nan
PSCL5 TIMELY PREFETCHES:          0 LATE PREFETCHES: 0 DROPPED PREFETCHES: 0
PSCL5 PREFETCHES SAME FILL-ORIGIN LEVEL: 0 DIFFERENT FILL-ORIGIN LEVEL: 0

PSCL4 TOTAL     ACCESS:        720  HIT:        720  MISS:          0  HIT %:        100  MISS %:          0   MPKI: 0
PSCL4 LOAD TRANSLATION ACCESS:        720  HIT:        720  MISS:          0  HIT %:        100  MISS %:          0   MPKI: 0
PSCL4 PREFETCH  REQUESTED:          0  ISSUED:          0  USEFUL:          0  USELESS:          0
PSCL4 USEFUL LOAD PREFETCHES:          0 PREFETCH ISSUED TO LOWER LEVEL:          0  ACCURACY: -nan
PSCL4 TIMELY PREFETCHES:          0 LATE PREFETCHES: 0 DROPPED PREFETCHES: 0
PSCL4 PREFETCHES SAME FILL-ORIGIN LEVEL: 0 DIFFERENT FILL-ORIGIN LEVEL: 0

PSCL3 TOTAL     ACCESS:        598  HIT:        476  MISS:        122  HIT %:    79.5987  MISS %:    20.4013   MPKI: 0.00061
PSCL3 LOAD TRANSLATION ACCESS:        598  HIT:        476  MISS:        122  HIT %:    79.5987  MISS %:    20.4013   MPKI: 0.00061
PSCL3 PREFETCH  REQUESTED:          0  ISSUED:          0  USEFUL:          0  USELESS:          0
PSCL3 USEFUL LOAD PREFETCHES:          0 PREFETCH ISSUED TO LOWER LEVEL:          0  ACCURACY: -nan
PSCL3 TIMELY PREFETCHES:          0 LATE PREFETCHES: 0 DROPPED PREFETCHES: 0
PSCL3 PREFETCHES SAME FILL-ORIGIN LEVEL: 0 DIFFERENT FILL-ORIGIN LEVEL: 0

PSCL2 TOTAL     ACCESS:        720  HIT:        485  MISS:        235  HIT %:    67.3611  MISS %:    32.6389   MPKI: 0.001175
PSCL2 LOAD TRANSLATION ACCESS:        720  HIT:        485  MISS:        235  HIT %:    67.3611  MISS %:    32.6389   MPKI: 0.001175
PSCL2 PREFETCH  REQUESTED:          0  ISSUED:          0  USEFUL:          0  USELESS:          0
PSCL2 USEFUL LOAD PREFETCHES:          0 PREFETCH ISSUED TO LOWER LEVEL:          0  ACCURACY: -nan
PSCL2 TIMELY PREFETCHES:          0 LATE PREFETCHES: 0 DROPPED PREFETCHES: 0
PSCL2 PREFETCHES SAME FILL-ORIGIN LEVEL: 0 DIFFERENT FILL-ORIGIN LEVEL: 0

LLC TOTAL     ACCESS:     764927  HIT:     763552  MISS:       1375  HIT %:    99.8202  MISS %:   0.179756   MPKI: 0.006875
LLC LOAD      ACCESS:     485678  HIT:     485361  MISS:        317  HIT %:    99.9347  MISS %:  0.0652696   MPKI: 0.001585
LLC RFO       ACCESS:      66734  HIT:      66734  MISS:          0  HIT %:        100  MISS %:          0   MPKI: 0
LLC PREFETCH  ACCESS:     104869  HIT:     103819  MISS:       1050  HIT %:    98.9988  MISS %:    1.00125   MPKI: 0.00525
AGUS PREFETCH L1 MISS: 0
LLC WRITEBACK ACCESS:     106677  HIT:     106677  MISS:          0  HIT %:        100  MISS %:          0   MPKI: 0
LLC LOAD TRANSLATION ACCESS:        969  HIT:        961  MISS:          8  HIT %:    99.1744  MISS %:   0.825593   MPKI: 4e-05
LLC PREFETCH  REQUESTED:          0  ISSUED:          0  USEFUL:       2576  USELESS:        211
LLC USEFUL LOAD PREFETCHES:       2576 PREFETCH ISSUED TO LOWER LEVEL:       1050  ACCURACY: 245.333
LLC TIMELY PREFETCHES:       2576 LATE PREFETCHES: 0 DROPPED PREFETCHES: 0
LLC PREFETCHES SAME FILL-ORIGIN LEVEL: 0 DIFFERENT FILL-ORIGIN LEVEL: 0
LLC AVERAGE MISS LATENCY: 158.764 cycles
LLC RQ	ACCESS:     553381	FORWARD:          0	MERGED:          0	TO_CACHE:     553381
LLC WQ	ACCESS:     106677	FORWARD:          3	MERGED:          0	TO_CACHE:     106677
LLC PQ	ACCESS:     104872	FORWARD:          0	MERGED:          0	TO_CACHE:     104869

LLC Dense regions hint to LLC: 0

RAW hits: 3075144
Loads Generated: 55268192
Loads sent to L1D: 52193045
Stores Generated: 21284217
Stores sent to L1D: 21284228
Major fault: 0 Minor fault: 1240
Allocated PAGES: 1240

stream: 
stream:times selected: 7449870
stream:pref_filled: 208857
stream:pref_useful: 56907
stream:pref_late: 17702
stream:misses: 31848
stream:misses_by_poll: 0

CS: 
CS:times selected: 799890
CS:pref_filled: 45668
CS:pref_useful: 34152
CS:pref_late: 3055
CS:misses: 9303
CS:misses_by_poll: 9

CPLX: 
CPLX:times selected: 6630875
CPLX:pref_filled: 207236
CPLX:pref_useful: 45216
CPLX:pref_late: 6358
CPLX:misses: 159269
CPLX:misses_by_poll: 342

NL_L1: 
NL:times selected: 26115
NL:pref_filled: 2828
NL:pref_useful: 110
NL:pref_late: 107
NL:misses: 972
NL:misses_by_poll: 0

total selections: 14906750
total_filled: 375555
total_useful: 105122
total_late: 28744
total_polluted: 351
total_misses_after_warmup: 775713
conflicts: 6065589
Degree Incremented Times: 177807
Degree Decremented Times: 391115

L1 IP Table Write Accesses: 28358238
L1 IP Table Read Accesses: 22292649
L1 RST Write Accesses: 5942592
L1 RST Read Accesses: 11885184
L1 CSPT Write Accesses: 5942592
L1 CSPT Read Accesses: 11368972
L1 RR Filter Tag Write Accesses: 5503664
L1 RR Filter Tag Read Accesses: 280409889
L1 IP Table Tag Write Accesses: 37361193
L1 IP Table Tag Read Accesses: 37361193
L1 RST Tag Write Accesses: 0
L1 RST Tag Read Accesses: 50143372
L1 RR Filter Write Accesses: 0
L1 RR Filter Read Accesses: 10064262
test: 2513964

DRAM Statistics
 CHANNEL 0
 RQ ROW_BUFFER_HIT:        159  ROW_BUFFER_MISS:       1216
 DBUS_CONGESTED:          0
 WQ ROW_BUFFER_HIT:          0  ROW_BUFFER_MISS:          0  FULL:          0

 AVG_CONGESTED_CYCLE: -
 All warmup complete: 2
Channel 0 Bank busy for read cycles: 0
Channel 0 Bank busy for write cycles: 0
Channel 0
Rank 0
0banks busy for read cycles: 328679705
0banks busy for write cycles: 0
1banks busy for read cycles: 178375
1banks busy for write cycles: 0
2banks busy for read cycles: 5505
2banks busy for write cycles: 0
3banks busy for read cycles: 175
3banks busy for write cycles: 0
4banks busy for read cycles: 110
4banks busy for write cycles: 0
5banks busy for read cycles: 0
5banks busy for write cycles: 0
6banks busy for read cycles: 0
6banks busy for write cycles: 0
7banks busy for read cycles: 0
7banks busy for write cycles: 0
8banks busy for read cycles: 0
8banks busy for write cycles: 0

CPU 0 Branch Prediction Accuracy: 99.8703% MPKI: 0.256795 Average ROB Occupancy at Mispredict: 40.7746
Branch types
NOT_BRANCH: 160404680 80.2023%
BRANCH_DIRECT_JUMP: 3454569 1.72728%
BRANCH_INDIRECT: 13788070 6.89403%
BRANCH_CONDITIONAL: 13020076 6.51004%
BRANCH_DIRECT_CALL: 2450864 1.22543%
BRANCH_INDIRECT_CALL: 2215440 1.10772%
BRANCH_RETURN: 4666255 2.33313%
BRANCH_OTHER: 0 0%

DRAM PAGES: 1048576
Allocated PAGES: 1240
