
*** ChampSim Multicore Out-of-Order Simulator ***

Warmup Instructions: 50000000
Simulation Instructions: 200000000
Number of CPUs: 1
LLC sets: 2048
LLC ways: 16
Off-chip DRAM Size: 4096 MB Channels: 1 Width: 64-bit Data Rate: 6400 MT/s
CPU 0 runs traces/spec2k17/srv_8.champsimtrace.xz
.xz
BTB has LRU replacement policy
ITLB has LRU replacement policy
DTLB has LRU replacement policy
STLB has LRU replacement policy
L1I has LRU replacement policy
IP Table Entries: 1024
CSPT Entries: 128
RR_ENTRIES: 32
RST_ENTRIES: 8
L1D has LRU replacement policy
Initialize SRRIP state for L2C
Initialize DRRIP state for LLC
Heartbeat CPU 0 instructions: 10000001 cycles: 2739162 heartbeat IPC: 3.65075 cumulative IPC: 3.65075 (Simulation time: 0 hr 0 min 49 sec) 
Heartbeat CPU 0 instructions: 20000002 cycles: 5477106 heartbeat IPC: 3.65238 cumulative IPC: 3.65156 (Simulation time: 0 hr 1 min 39 sec) 
Heartbeat CPU 0 instructions: 30000000 cycles: 8203364 heartbeat IPC: 3.66803 cumulative IPC: 3.65704 (Simulation time: 0 hr 2 min 27 sec) 
*** Reached end of trace for Core: 0 Repeating trace: traces/spec2k17/srv_8.champsimtrace.xz
Heartbeat CPU 0 instructions: 40000000 cycles: 10939577 heartbeat IPC: 3.65469 cumulative IPC: 3.65645 (Simulation time: 0 hr 3 min 15 sec) 
Heartbeat CPU 0 instructions: 50000002 cycles: 13674016 heartbeat IPC: 3.65706 cumulative IPC: 3.65657 (Simulation time: 0 hr 4 min 6 sec) 

Warmup complete CPU 0 instructions: 50000002 cycles: 13674016 (Simulation time: 0 hr 4 min 6 sec) 

Heartbeat CPU 0 instructions: 60000000 cycles: 29634585 heartbeat IPC: 0.626544 cumulative IPC: 0.626544 (Simulation time: 0 hr 4 min 59 sec) 
*** Reached end of trace for Core: 0 Repeating trace: traces/spec2k17/srv_8.champsimtrace.xz
Heartbeat CPU 0 instructions: 70000002 cycles: 47581547 heartbeat IPC: 0.557197 cumulative IPC: 0.589839 (Simulation time: 0 hr 5 min 51 sec) 
Heartbeat CPU 0 instructions: 80000001 cycles: 63842437 heartbeat IPC: 0.614972 cumulative IPC: 0.597986 (Simulation time: 0 hr 6 min 40 sec) 
Heartbeat CPU 0 instructions: 90000000 cycles: 79923682 heartbeat IPC: 0.621842 cumulative IPC: 0.603777 (Simulation time: 0 hr 7 min 34 sec) 
*** Reached end of trace for Core: 0 Repeating trace: traces/spec2k17/srv_8.champsimtrace.xz
Heartbeat CPU 0 instructions: 100000000 cycles: 97580940 heartbeat IPC: 0.566339 cumulative IPC: 0.595898 (Simulation time: 0 hr 8 min 33 sec) 
Heartbeat CPU 0 instructions: 110000000 cycles: 114254948 heartbeat IPC: 0.599736 cumulative IPC: 0.596534 (Simulation time: 0 hr 9 min 23 sec) 
Heartbeat CPU 0 instructions: 120000003 cycles: 130235303 heartbeat IPC: 0.625769 cumulative IPC: 0.600542 (Simulation time: 0 hr 10 min 14 sec) 
*** Reached end of trace for Core: 0 Repeating trace: traces/spec2k17/srv_8.champsimtrace.xz
Heartbeat CPU 0 instructions: 130000002 cycles: 147687820 heartbeat IPC: 0.572983 cumulative IPC: 0.596953 (Simulation time: 0 hr 11 min 6 sec) 
Heartbeat CPU 0 instructions: 140000003 cycles: 164490341 heartbeat IPC: 0.595149 cumulative IPC: 0.596752 (Simulation time: 0 hr 12 min 1 sec) 
Heartbeat CPU 0 instructions: 150000000 cycles: 180198035 heartbeat IPC: 0.63663 cumulative IPC: 0.600514 (Simulation time: 0 hr 12 min 51 sec) 
*** Reached end of trace for Core: 0 Repeating trace: traces/spec2k17/srv_8.champsimtrace.xz
Heartbeat CPU 0 instructions: 160000002 cycles: 197598657 heartbeat IPC: 0.574692 cumulative IPC: 0.598071 (Simulation time: 0 hr 13 min 48 sec) 
Heartbeat CPU 0 instructions: 170000002 cycles: 214310780 heartbeat IPC: 0.598368 cumulative IPC: 0.598096 (Simulation time: 0 hr 14 min 40 sec) 
Heartbeat CPU 0 instructions: 180000000 cycles: 230293178 heartbeat IPC: 0.625688 cumulative IPC: 0.600132 (Simulation time: 0 hr 15 min 28 sec) 
*** Reached end of trace for Core: 0 Repeating trace: traces/spec2k17/srv_8.champsimtrace.xz
Heartbeat CPU 0 instructions: 190000000 cycles: 247424436 heartbeat IPC: 0.583728 cumulative IPC: 0.598929 (Simulation time: 0 hr 16 min 21 sec) 
Heartbeat CPU 0 instructions: 200000001 cycles: 264070019 heartbeat IPC: 0.60076 cumulative IPC: 0.599051 (Simulation time: 0 hr 17 min 15 sec) 
Heartbeat CPU 0 instructions: 210000000 cycles: 280203979 heartbeat IPC: 0.619811 cumulative IPC: 0.600308 (Simulation time: 0 hr 18 min 12 sec) 
*** Reached end of trace for Core: 0 Repeating trace: traces/spec2k17/srv_8.champsimtrace.xz
Heartbeat CPU 0 instructions: 220000000 cycles: 297284208 heartbeat IPC: 0.585472 cumulative IPC: 0.599414 (Simulation time: 0 hr 19 min 5 sec) 
Heartbeat CPU 0 instructions: 230000000 cycles: 314001484 heartbeat IPC: 0.598184 cumulative IPC: 0.599346 (Simulation time: 0 hr 19 min 56 sec) 
Heartbeat CPU 0 instructions: 240000003 cycles: 330389072 heartbeat IPC: 0.610218 cumulative IPC: 0.599908 (Simulation time: 0 hr 20 min 47 sec) 
*** Reached end of trace for Core: 0 Repeating trace: traces/spec2k17/srv_8.champsimtrace.xz
Heartbeat CPU 0 instructions: 250000000 cycles: 347285382 heartbeat IPC: 0.591845 cumulative IPC: 0.5995 (Simulation time: 0 hr 21 min 39 sec) 
Finished CPU 0 instructions: 200000002 cycles: 333611367 cumulative IPC: 0.5995 (Simulation time: 0 hr 21 min 39 sec) 

ChampSim completed all CPUs

Region of Interest Statistics

CPU 0 cumulative IPC: 0.5995 instructions: 200000002 cycles: 333611367
ITLB TOTAL     ACCESS:   29939883  HIT:   29481270  MISS:     458613  HIT %:    98.4682  MISS %:    1.53178   MPKI: 2.29306
ITLB LOAD TRANSLATION ACCESS:   29939883  HIT:   29481270  MISS:     458613  HIT %:    98.4682  MISS %:    1.53178   MPKI: 2.29306
ITLB PREFETCH  REQUESTED:          0  ISSUED:          0  USEFUL:          0  USELESS:          0
ITLB USEFUL LOAD PREFETCHES:          0 PREFETCH ISSUED TO LOWER LEVEL:          0  ACCURACY: -nan
ITLB TIMELY PREFETCHES:          0 LATE PREFETCHES: 0 DROPPED PREFETCHES: 0
ITLB PREFETCHES SAME FILL-ORIGIN LEVEL: 0 DIFFERENT FILL-ORIGIN LEVEL: 0
ITLB AVERAGE MISS LATENCY: 13.2746 cycles
ITLB RQ	ACCESS:   36821340	FORWARD:          0	MERGED:    6746205	TO_CACHE:   30075135

DTLB TOTAL     ACCESS:   38111323  HIT:   36754465  MISS:    1356858  HIT %:    96.4398  MISS %:    3.56025   MPKI: 6.78429
DTLB LOAD TRANSLATION ACCESS:   38111323  HIT:   36754465  MISS:    1356858  HIT %:    96.4398  MISS %:    3.56025   MPKI: 6.78429
DTLB PREFETCH  REQUESTED:          0  ISSUED:          0  USEFUL:          0  USELESS:          0
DTLB USEFUL LOAD PREFETCHES:          0 PREFETCH ISSUED TO LOWER LEVEL:          0  ACCURACY: -nan
DTLB TIMELY PREFETCHES:          0 LATE PREFETCHES: 0 DROPPED PREFETCHES: 0
DTLB PREFETCHES SAME FILL-ORIGIN LEVEL: 0 DIFFERENT FILL-ORIGIN LEVEL: 0
DTLB AVERAGE MISS LATENCY: 16.7585 cycles
DTLB RQ	ACCESS:   47738391	FORWARD:          0	MERGED:    9564677	TO_CACHE:   38173714

STLB TOTAL     ACCESS:    3768039  HIT:    3616473  MISS:     151566  HIT %:    95.9776  MISS %:    4.02241   MPKI: 0.75783
STLB LOAD TRANSLATION ACCESS:    1815471  HIT:    1663905  MISS:     151566  HIT %:    91.6514  MISS %:    8.34858   MPKI: 0.75783
STLB TRANSLATION FROM L1D PREFETCHER ACCESS:    1952568  HIT:    1952568  MISS:          0  HIT %:        100  MISS %:          0   MPKI: 0
STLB PREFETCH  REQUESTED:          0  ISSUED:          0  USEFUL:          0  USELESS:          0
STLB USEFUL LOAD PREFETCHES:          0 PREFETCH ISSUED TO LOWER LEVEL:          0  ACCURACY: -nan
STLB TIMELY PREFETCHES:          0 LATE PREFETCHES: 0 DROPPED PREFETCHES: 0
STLB PREFETCHES SAME FILL-ORIGIN LEVEL: 0 DIFFERENT FILL-ORIGIN LEVEL: 0
STLB AVERAGE MISS LATENCY: 82.2375 cycles
STLB RQ	ACCESS:    4463515	FORWARD:          0	MERGED:     695476	TO_CACHE:    3768039

STLB Hit, L1D data hit: 0
STLB Hit, L2C data hit: 0
STLB Hit, LLC data hit: 0
STLB Hit, LLC data miss: 0
STLB STLB hints to L2: 0
L1D TOTAL     ACCESS:   49151874  HIT:   47178165  MISS:    1973709  HIT %:    95.9845  MISS %:    4.01553   MPKI: 9.86854
L1D LOAD      ACCESS:   26836390  HIT:   25983016  MISS:     853374  HIT %:    96.8201  MISS %:    3.17991   MPKI: 4.26687
L1D RFO       ACCESS:   19747334  HIT:   19406994  MISS:     340340  HIT %:    98.2765  MISS %:    1.72347   MPKI: 1.7017
L1D PREFETCH  ACCESS:    2568150  HIT:    1788155  MISS:     779995  HIT %:    69.6281  MISS %:    30.3719   MPKI: 3.89997
AGUS PREFETCH L1 MISS: 0
L1D PREFETCH  REQUESTED:    5298104  ISSUED:    5297345  USEFUL:     498376  USELESS:     281614
L1D USEFUL LOAD PREFETCHES:     498376 PREFETCH ISSUED TO LOWER LEVEL:     818555  ACCURACY: 60.8849
L1D TIMELY PREFETCHES:     498376 LATE PREFETCHES: 37077 DROPPED PREFETCHES: 0
L1D PREFETCHES SAME FILL-ORIGIN LEVEL: 818555 DIFFERENT FILL-ORIGIN LEVEL: 0
L1D AVERAGE MISS LATENCY: 3.53675e+06 cycles
L1D RQ	ACCESS:   42375477	FORWARD:          0	MERGED:   15218849	TO_CACHE:   26958021
L1D WQ	ACCESS:   21041647	FORWARD:     199864	MERGED:     261277	TO_CACHE:   20780370
L1D PQ	ACCESS:    2649301	FORWARD:          0	MERGED:          0	TO_CACHE:    2648044

L1D UNIQUE REGIONS ACCESSED: 0
L1D REGIONS CONFLICTS: 0
L1D Cross Page Prefetch Requests: 0
L1D Same Page Prefetch Requests: 3289546
L1D ROI Sum of L1D PQ occupancy: 35798236
L1D PREFETCHES PUSHED FROM L2C: 0
L1I TOTAL     ACCESS:   35938671  HIT:   33732430  MISS:    2206241  HIT %:    93.8611  MISS %:    6.13891   MPKI: 11.0312
L1I LOAD      ACCESS:   35938671  HIT:   33732430  MISS:    2206241  HIT %:    93.8611  MISS %:    6.13891   MPKI: 11.0312
L1I PREFETCH  REQUESTED:          0  ISSUED:          0  USEFUL:          0  USELESS:          0
L1I USEFUL LOAD PREFETCHES:          0 PREFETCH ISSUED TO LOWER LEVEL:          0  ACCURACY: -nan
L1I TIMELY PREFETCHES:          0 LATE PREFETCHES: 0 DROPPED PREFETCHES: 0
L1I PREFETCHES SAME FILL-ORIGIN LEVEL: 0 DIFFERENT FILL-ORIGIN LEVEL: 0
L1I AVERAGE MISS LATENCY: 25.6677 cycles
L1I RQ	ACCESS:   55123724	FORWARD:          0	MERGED:   18302384	TO_CACHE:   36821340

BTB TOTAL     ACCESS:   19580537  HIT:   17560009  MISS:    2020528  HIT %:    89.6809  MISS %:    10.3191   MPKI: 10.1026
BTB BRANCH_DIRECT_JUMP	ACCESS:    1439768  HIT:    1365109  MISS:      74659
BTB BRANCH_INDIRECT	ACCESS:    8153860  HIT:    7176510  MISS:     977350
BTB BRANCH_CONDITIONAL	ACCESS:    5123996  HIT:    5005744  MISS:     118252
BTB BRANCH_DIRECT_CALL	ACCESS:    2259799  HIT:    2125181  MISS:     134618
BTB BRANCH_INDIRECT_CALL	ACCESS:     171512  HIT:     155340  MISS:      16172
BTB BRANCH_RETURN	ACCESS:    2431602  HIT:    1732125  MISS:     699477
BTB BRANCH_OTHER ACCESS:          0  HIT:          0  MISS:          0

L2C TOTAL     ACCESS:    5187433  HIT:    3116732  MISS:    2070701  HIT %:    60.0824  MISS %:    39.9176   MPKI: 10.3535
L2C LOAD      ACCESS:    3022529  HIT:    1856984  MISS:    1165545  HIT %:    61.4381  MISS %:    38.5619   MPKI: 5.82772
L2C DATA LOAD MPKI: 2.3947
L2C INSTRUCTION LOAD MPKI: 3.43302
L2C RFO       ACCESS:     338855  HIT:      78772  MISS:     260083  HIT %:    23.2465  MISS %:    76.7535   MPKI: 1.30041
L2C PREFETCH  ACCESS:     818555  HIT:     295500  MISS:     523055  HIT %:    36.1002  MISS %:    63.8998   MPKI: 2.61527
AGUS PREFETCH L1 MISS: 0
L2C DATA PREFETCH MPKI: 2.61527
L2C INSTRUCTION PREFETCH MPKI: 0
L2C WRITEBACK ACCESS:     815182  HIT:     792325  MISS:      22857  HIT %:    97.1961  MISS %:    2.80391   MPKI: 0.114285
L2C LOAD TRANSLATION ACCESS:     192312  HIT:      93151  MISS:      99161  HIT %:    48.4374  MISS %:    51.5626   MPKI: 0.495805
L2C PREFETCH  REQUESTED:          0  ISSUED:          0  USEFUL:      30137  USELESS:     492041
L2C USEFUL LOAD PREFETCHES:      30137 PREFETCH ISSUED TO LOWER LEVEL:     523055  ACCURACY: 5.76173
L2C TIMELY PREFETCHES:      30137 LATE PREFETCHES: 0 DROPPED PREFETCHES: 0
L2C PREFETCHES SAME FILL-ORIGIN LEVEL: 0 DIFFERENT FILL-ORIGIN LEVEL: 0
L2C AVERAGE MISS LATENCY: 103.886 cycles
L2C RQ	ACCESS:    3553706	FORWARD:          0	MERGED:          0	TO_CACHE:    3553695
L2C WQ	ACCESS:     815182	FORWARD:         11	MERGED:          0	TO_CACHE:     815182
L2C PQ	ACCESS:     818555	FORWARD:          0	MERGED:          0	TO_CACHE:     818555

L2C Instructions Evicting Data 423386
L2C Translations Evicting Data 61071
L2C Data Evicting Data 785381
L2C Instructions Evicting Instructions 231046
L2C Translations Evicting Instructions 33692
L2C Data Evicting Instructions 415274
L2C Instructions Evicting Translations 32173
L2C Translations Evicting Translations 4398
L2C Data Evicting Translations 61423
L2C Dense regions hint from L2: 0
PSCL5 TOTAL     ACCESS:     151566  HIT:     151566  MISS:          0  HIT %:        100  MISS %:          0   MPKI: 0
PSCL5 LOAD TRANSLATION ACCESS:     151566  HIT:     151566  MISS:          0  HIT %:        100  MISS %:          0   MPKI: 0
PSCL5 PREFETCH  REQUESTED:          0  ISSUED:          0  USEFUL:          0  USELESS:          0
PSCL5 USEFUL LOAD PREFETCHES:          0 PREFETCH ISSUED TO LOWER LEVEL:          0  ACCURACY: -nan
PSCL5 TIMELY PREFETCHES:          0 LATE PREFETCHES: 0 DROPPED PREFETCHES: 0
PSCL5 PREFETCHES SAME FILL-ORIGIN LEVEL: 0 DIFFERENT FILL-ORIGIN LEVEL: 0

PSCL4 TOTAL     ACCESS:     149252  HIT:     148902  MISS:        350  HIT %:    99.7655  MISS %:   0.234503   MPKI: 0.00175
PSCL4 LOAD TRANSLATION ACCESS:     149252  HIT:     148902  MISS:        350  HIT %:    99.7655  MISS %:   0.234503   MPKI: 0.00175
PSCL4 PREFETCH  REQUESTED:          0  ISSUED:          0  USEFUL:          0  USELESS:          0
PSCL4 USEFUL LOAD PREFETCHES:          0 PREFETCH ISSUED TO LOWER LEVEL:          0  ACCURACY: -nan
PSCL4 TIMELY PREFETCHES:          0 LATE PREFETCHES: 0 DROPPED PREFETCHES: 0
PSCL4 PREFETCHES SAME FILL-ORIGIN LEVEL: 0 DIFFERENT FILL-ORIGIN LEVEL: 0

PSCL3 TOTAL     ACCESS:     151230  HIT:     150880  MISS:        350  HIT %:    99.7686  MISS %:   0.231436   MPKI: 0.00175
PSCL3 LOAD TRANSLATION ACCESS:     151230  HIT:     150880  MISS:        350  HIT %:    99.7686  MISS %:   0.231436   MPKI: 0.00175
PSCL3 PREFETCH  REQUESTED:          0  ISSUED:          0  USEFUL:          0  USELESS:          0
PSCL3 USEFUL LOAD PREFETCHES:          0 PREFETCH ISSUED TO LOWER LEVEL:          0  ACCURACY: -nan
PSCL3 TIMELY PREFETCHES:          0 LATE PREFETCHES: 0 DROPPED PREFETCHES: 0
PSCL3 PREFETCHES SAME FILL-ORIGIN LEVEL: 0 DIFFERENT FILL-ORIGIN LEVEL: 0

PSCL2 TOTAL     ACCESS:     151566  HIT:     111520  MISS:      40046  HIT %:    73.5785  MISS %:    26.4215   MPKI: 0.20023
PSCL2 LOAD TRANSLATION ACCESS:     151566  HIT:     111520  MISS:      40046  HIT %:    73.5785  MISS %:    26.4215   MPKI: 0.20023
PSCL2 PREFETCH  REQUESTED:          0  ISSUED:          0  USEFUL:          0  USELESS:          0
PSCL2 USEFUL LOAD PREFETCHES:          0 PREFETCH ISSUED TO LOWER LEVEL:          0  ACCURACY: -nan
PSCL2 TIMELY PREFETCHES:          0 LATE PREFETCHES: 0 DROPPED PREFETCHES: 0
PSCL2 PREFETCHES SAME FILL-ORIGIN LEVEL: 0 DIFFERENT FILL-ORIGIN LEVEL: 0

LLC TOTAL     ACCESS:    2664172  HIT:    1776068  MISS:     888104  HIT %:    66.6649  MISS %:    33.3351   MPKI: 4.44052
LLC LOAD      ACCESS:    1165544  HIT:     927913  MISS:     237631  HIT %:     79.612  MISS %:     20.388   MPKI: 1.18815
LLC RFO       ACCESS:     260083  HIT:      29286  MISS:     230797  HIT %:    11.2603  MISS %:    88.7397   MPKI: 1.15398
LLC PREFETCH  ACCESS:     523054  HIT:     162794  MISS:     360260  HIT %:    31.1237  MISS %:    68.8763   MPKI: 1.8013
AGUS PREFETCH L1 MISS: 0
LLC WRITEBACK ACCESS:     616330  HIT:     585638  MISS:      30692  HIT %:    95.0202  MISS %:     4.9798   MPKI: 0.15346
LLC LOAD TRANSLATION ACCESS:      99161  HIT:      70437  MISS:      28724  HIT %:     71.033  MISS %:     28.967   MPKI: 0.14362
LLC PREFETCH  REQUESTED:          0  ISSUED:          0  USEFUL:      17948  USELESS:     342289
LLC USEFUL LOAD PREFETCHES:      17948 PREFETCH ISSUED TO LOWER LEVEL:     360260  ACCURACY: 4.98196
LLC TIMELY PREFETCHES:      17948 LATE PREFETCHES: 0 DROPPED PREFETCHES: 0
LLC PREFETCHES SAME FILL-ORIGIN LEVEL: 0 DIFFERENT FILL-ORIGIN LEVEL: 0
LLC AVERAGE MISS LATENCY: 173.044 cycles
LLC RQ	ACCESS:    1524788	FORWARD:          0	MERGED:          0	TO_CACHE:    1524787
LLC WQ	ACCESS:     616330	FORWARD:          2	MERGED:          0	TO_CACHE:     616330
LLC PQ	ACCESS:     523055	FORWARD:          0	MERGED:          0	TO_CACHE:     523054

LLC Dense regions hint to LLC: 0

RAW hits: 3265366
Loads Generated: 45640844
Loads sent to L1D: 42375477
Stores Generated: 21041652
Stores sent to L1D: 21041647
Major fault: 0 Minor fault: 7544
Allocated PAGES: 7544

stream: 
stream:times selected: 5564516
stream:pref_filled: 322768
stream:pref_useful: 160117
stream:pref_late: 29230
stream:misses: 43316
stream:misses_by_poll: 0

CS: 
CS:times selected: 932631
CS:pref_filled: 378127
CS:pref_useful: 327912
CS:pref_late: 2795
CS:misses: 31918
CS:misses_by_poll: 612

CPLX: 
CPLX:times selected: 4610806
CPLX:pref_filled: 281540
CPLX:pref_useful: 141959
CPLX:pref_late: 5014
CPLX:misses: 171200
CPLX:misses_by_poll: 503

NL_L1: 
NL:times selected: 46437
NL:pref_filled: 4497
NL:pref_useful: 2490
NL:pref_late: 391
NL:misses: 2519
NL:misses_by_poll: 0

total selections: 11154390
total_filled: 779995
total_useful: 498376
total_late: 39821
total_polluted: 1115
total_misses_after_warmup: 975004
conflicts: 4457989
Degree Incremented Times: 140227
Degree Decremented Times: 2167

L1 IP Table Write Accesses: 20058610
L1 IP Table Read Accesses: 15600621
L1 RST Write Accesses: 4475866
L1 RST Read Accesses: 8951732
L1 CSPT Write Accesses: 4475866
L1 CSPT Read Accesses: 8148591
L1 RR Filter Tag Write Accesses: 2650060
L1 RR Filter Tag Read Accesses: 209168707
L1 IP Table Tag Write Accesses: 26958020
L1 IP Table Tag Read Accesses: 26958020
L1 RST Tag Write Accesses: 0
L1 RST Tag Read Accesses: 41187200
L1 RR Filter Write Accesses: 0
L1 RR Filter Read Accesses: 8443662
test: 1323383

DRAM Statistics
 CHANNEL 0
 RQ ROW_BUFFER_HIT:     246773  ROW_BUFFER_MISS:     610634
 DBUS_CONGESTED:        935
 WQ ROW_BUFFER_HIT:      88530  ROW_BUFFER_MISS:     467082  FULL:          0

 AVG_CONGESTED_CYCLE: 5
 All warmup complete: 2
Channel 0 Bank busy for read cycles: 0
Channel 0 Bank busy for write cycles: 0
Channel 0
Rank 0
0banks busy for read cycles: 215495807
0banks busy for write cycles: 218511
1banks busy for read cycles: 50369256
1banks busy for write cycles: 28390125
2banks busy for read cycles: 12244596
2banks busy for write cycles: 9915021
3banks busy for read cycles: 3137237
3banks busy for write cycles: 4326672
4banks busy for read cycles: 1019460
4banks busy for write cycles: 1987619
5banks busy for read cycles: 232614
5banks busy for write cycles: 907777
6banks busy for read cycles: 147342
6banks busy for write cycles: 495743
7banks busy for read cycles: 236245
7banks busy for write cycles: 498000
8banks busy for read cycles: 1520062
8banks busy for write cycles: 2469281

CPU 0 Branch Prediction Accuracy: 99.7754% MPKI: 0.374465 Average ROB Occupancy at Mispredict: 47.2771
Branch types
NOT_BRANCH: 166657457 83.3287%
BRANCH_DIRECT_JUMP: 1439768 0.719884%
BRANCH_INDIRECT: 8153860 4.07693%
BRANCH_CONDITIONAL: 18885875 9.44294%
BRANCH_DIRECT_CALL: 2259799 1.1299%
BRANCH_INDIRECT_CALL: 171512 0.085756%
BRANCH_RETURN: 2431602 1.2158%
BRANCH_OTHER: 0 0%

DRAM PAGES: 1048576
Allocated PAGES: 7544
