
*** ChampSim Multicore Out-of-Order Simulator ***

Warmup Instructions: 50000000
Simulation Instructions: 200000000
Number of CPUs: 1
LLC sets: 2048
LLC ways: 16
Off-chip DRAM Size: 4096 MB Channels: 1 Width: 64-bit Data Rate: 6400 MT/s
CPU 0 runs traces/spec2k17/srv_15.champsimtrace.xz
.xz
BTB has LRU replacement policy
ITLB has LRU replacement policy
DTLB has LRU replacement policy
STLB has LRU replacement policy
L1I has LRU replacement policy
IP Table Entries: 1024
CSPT Entries: 128
RR_ENTRIES: 32
RST_ENTRIES: 8
L1D has LRU replacement policy
Initialize SRRIP state for L2C
Initialize DRRIP state for LLC
Heartbeat CPU 0 instructions: 10000002 cycles: 2858512 heartbeat IPC: 3.49832 cumulative IPC: 3.49832 (Simulation time: 0 hr 0 min 46 sec) 
Heartbeat CPU 0 instructions: 20000001 cycles: 5706585 heartbeat IPC: 3.51115 cumulative IPC: 3.50472 (Simulation time: 0 hr 1 min 33 sec) 
Heartbeat CPU 0 instructions: 30000000 cycles: 8554557 heartbeat IPC: 3.51127 cumulative IPC: 3.5069 (Simulation time: 0 hr 2 min 19 sec) 
*** Reached end of trace for Core: 0 Repeating trace: traces/spec2k17/srv_15.champsimtrace.xz
Heartbeat CPU 0 instructions: 40000000 cycles: 11406968 heartbeat IPC: 3.50581 cumulative IPC: 3.50663 (Simulation time: 0 hr 3 min 6 sec) 
Heartbeat CPU 0 instructions: 50000001 cycles: 14254928 heartbeat IPC: 3.51129 cumulative IPC: 3.50756 (Simulation time: 0 hr 3 min 53 sec) 

Warmup complete CPU 0 instructions: 50000001 cycles: 14254928 (Simulation time: 0 hr 3 min 53 sec) 

Heartbeat CPU 0 instructions: 60000000 cycles: 46399799 heartbeat IPC: 0.311092 cumulative IPC: 0.311092 (Simulation time: 0 hr 4 min 52 sec) 
*** Reached end of trace for Core: 0 Repeating trace: traces/spec2k17/srv_15.champsimtrace.xz
Heartbeat CPU 0 instructions: 70000000 cycles: 78523935 heartbeat IPC: 0.311292 cumulative IPC: 0.311192 (Simulation time: 0 hr 5 min 46 sec) 
Heartbeat CPU 0 instructions: 80000001 cycles: 110803819 heartbeat IPC: 0.30979 cumulative IPC: 0.310723 (Simulation time: 0 hr 6 min 42 sec) 
Heartbeat CPU 0 instructions: 90000001 cycles: 142727955 heartbeat IPC: 0.313243 cumulative IPC: 0.311349 (Simulation time: 0 hr 7 min 41 sec) 
*** Reached end of trace for Core: 0 Repeating trace: traces/spec2k17/srv_15.champsimtrace.xz
Heartbeat CPU 0 instructions: 100000002 cycles: 175087422 heartbeat IPC: 0.309029 cumulative IPC: 0.310882 (Simulation time: 0 hr 8 min 36 sec) 
Heartbeat CPU 0 instructions: 110000000 cycles: 207238502 heartbeat IPC: 0.311031 cumulative IPC: 0.310907 (Simulation time: 0 hr 9 min 27 sec) 
Heartbeat CPU 0 instructions: 120000001 cycles: 239218166 heartbeat IPC: 0.312699 cumulative IPC: 0.311162 (Simulation time: 0 hr 10 min 27 sec) 
*** Reached end of trace for Core: 0 Repeating trace: traces/spec2k17/srv_15.champsimtrace.xz
Heartbeat CPU 0 instructions: 130000001 cycles: 271565123 heartbeat IPC: 0.309148 cumulative IPC: 0.310909 (Simulation time: 0 hr 11 min 23 sec) 
Heartbeat CPU 0 instructions: 140000000 cycles: 303516274 heartbeat IPC: 0.312978 cumulative IPC: 0.311137 (Simulation time: 0 hr 12 min 17 sec) 
Heartbeat CPU 0 instructions: 150000003 cycles: 335536388 heartbeat IPC: 0.312304 cumulative IPC: 0.311254 (Simulation time: 0 hr 13 min 15 sec) 
*** Reached end of trace for Core: 0 Repeating trace: traces/spec2k17/srv_15.champsimtrace.xz
Heartbeat CPU 0 instructions: 160000000 cycles: 367853621 heartbeat IPC: 0.309432 cumulative IPC: 0.311087 (Simulation time: 0 hr 14 min 16 sec) 
Heartbeat CPU 0 instructions: 170000002 cycles: 399889709 heartbeat IPC: 0.312148 cumulative IPC: 0.311175 (Simulation time: 0 hr 15 min 10 sec) 
Heartbeat CPU 0 instructions: 180000000 cycles: 432035266 heartbeat IPC: 0.311085 cumulative IPC: 0.311168 (Simulation time: 0 hr 16 min 6 sec) 
*** Reached end of trace for Core: 0 Repeating trace: traces/spec2k17/srv_15.champsimtrace.xz
Heartbeat CPU 0 instructions: 190000003 cycles: 464107285 heartbeat IPC: 0.311798 cumulative IPC: 0.311213 (Simulation time: 0 hr 17 min 1 sec) 
Heartbeat CPU 0 instructions: 200000001 cycles: 496291764 heartbeat IPC: 0.310709 cumulative IPC: 0.31118 (Simulation time: 0 hr 17 min 58 sec) 
Heartbeat CPU 0 instructions: 210000001 cycles: 528313344 heartbeat IPC: 0.312289 cumulative IPC: 0.311249 (Simulation time: 0 hr 18 min 55 sec) 
*** Reached end of trace for Core: 0 Repeating trace: traces/spec2k17/srv_15.champsimtrace.xz
Heartbeat CPU 0 instructions: 220000000 cycles: 560304966 heartbeat IPC: 0.312582 cumulative IPC: 0.311327 (Simulation time: 0 hr 19 min 52 sec) 
Heartbeat CPU 0 instructions: 230000001 cycles: 592566436 heartbeat IPC: 0.309967 cumulative IPC: 0.311251 (Simulation time: 0 hr 20 min 48 sec) 
Heartbeat CPU 0 instructions: 240000001 cycles: 624576170 heartbeat IPC: 0.312405 cumulative IPC: 0.311311 (Simulation time: 0 hr 21 min 47 sec) 
Heartbeat CPU 0 instructions: 250000000 cycles: 656609614 heartbeat IPC: 0.312174 cumulative IPC: 0.311354 (Simulation time: 0 hr 22 min 43 sec) 
Finished CPU 0 instructions: 200000000 cycles: 642354687 cumulative IPC: 0.311354 (Simulation time: 0 hr 22 min 43 sec) 

ChampSim completed all CPUs

Region of Interest Statistics

CPU 0 cumulative IPC: 0.311354 instructions: 200000000 cycles: 642354687
ITLB TOTAL     ACCESS:   35726150  HIT:   33471767  MISS:    2254383  HIT %:    93.6898  MISS %:    6.31018   MPKI: 11.2719
ITLB LOAD TRANSLATION ACCESS:   35726150  HIT:   33471767  MISS:    2254383  HIT %:    93.6898  MISS %:    6.31018   MPKI: 11.2719
ITLB PREFETCH  REQUESTED:          0  ISSUED:          0  USEFUL:          0  USELESS:          0
ITLB USEFUL LOAD PREFETCHES:          0 PREFETCH ISSUED TO LOWER LEVEL:          0  ACCURACY: -nan
ITLB TIMELY PREFETCHES:          0 LATE PREFETCHES: 0 DROPPED PREFETCHES: 0
ITLB PREFETCHES SAME FILL-ORIGIN LEVEL: 0 DIFFERENT FILL-ORIGIN LEVEL: 0
ITLB AVERAGE MISS LATENCY: 9.20988 cycles
ITLB RQ	ACCESS:   41964086	FORWARD:          0	MERGED:    5692516	TO_CACHE:   36271570

DTLB TOTAL     ACCESS:   45717812  HIT:   43678916  MISS:    2038896  HIT %:    95.5403  MISS %:    4.45974   MPKI: 10.1945
DTLB LOAD TRANSLATION ACCESS:   45717812  HIT:   43678916  MISS:    2038896  HIT %:    95.5403  MISS %:    4.45974   MPKI: 10.1945
DTLB PREFETCH  REQUESTED:          0  ISSUED:          0  USEFUL:          0  USELESS:          0
DTLB USEFUL LOAD PREFETCHES:          0 PREFETCH ISSUED TO LOWER LEVEL:          0  ACCURACY: -nan
DTLB TIMELY PREFETCHES:          0 LATE PREFETCHES: 0 DROPPED PREFETCHES: 0
DTLB PREFETCHES SAME FILL-ORIGIN LEVEL: 0 DIFFERENT FILL-ORIGIN LEVEL: 0
DTLB AVERAGE MISS LATENCY: 9.23983 cycles
DTLB RQ	ACCESS:   60502396	FORWARD:          0	MERGED:   14722260	TO_CACHE:   45780136

STLB TOTAL     ACCESS:    6579294  HIT:    6550576  MISS:      28718  HIT %:    99.5635  MISS %:   0.436491   MPKI: 0.14359
STLB LOAD TRANSLATION ACCESS:    4293279  HIT:    4264561  MISS:      28718  HIT %:    99.3311  MISS %:   0.668906   MPKI: 0.14359
STLB TRANSLATION FROM L1D PREFETCHER ACCESS:    2286015  HIT:    2286015  MISS:          0  HIT %:        100  MISS %:          0   MPKI: 0
STLB PREFETCH  REQUESTED:          0  ISSUED:          0  USEFUL:          0  USELESS:          0
STLB USEFUL LOAD PREFETCHES:          0 PREFETCH ISSUED TO LOWER LEVEL:          0  ACCURACY: -nan
STLB TIMELY PREFETCHES:          0 LATE PREFETCHES: 0 DROPPED PREFETCHES: 0
STLB PREFETCHES SAME FILL-ORIGIN LEVEL: 0 DIFFERENT FILL-ORIGIN LEVEL: 0
STLB AVERAGE MISS LATENCY: 32.5307 cycles
STLB RQ	ACCESS:    7779047	FORWARD:          0	MERGED:    1199753	TO_CACHE:    6579294

STLB Hit, L1D data hit: 0
STLB Hit, L2C data hit: 0
STLB Hit, LLC data hit: 0
STLB Hit, LLC data miss: 0
STLB STLB hints to L2: 0
L1D TOTAL     ACCESS:   61840420  HIT:   55430508  MISS:    6409912  HIT %:    89.6348  MISS %:    10.3652   MPKI: 32.0496
L1D LOAD      ACCESS:   33952177  HIT:   30417877  MISS:    3534300  HIT %:    89.5904  MISS %:    10.4096   MPKI: 17.6715
L1D RFO       ACCESS:   24763896  HIT:   23595278  MISS:    1168618  HIT %:     95.281  MISS %:    4.71904   MPKI: 5.84309
L1D PREFETCH  ACCESS:    3124347  HIT:    1417353  MISS:    1706994  HIT %:    45.3648  MISS %:    54.6352   MPKI: 8.53497
AGUS PREFETCH L1 MISS: 0
L1D PREFETCH  REQUESTED:    6975264  ISSUED:    6975264  USEFUL:     896766  USELESS:     810237
L1D USEFUL LOAD PREFETCHES:     896766 PREFETCH ISSUED TO LOWER LEVEL:    1957298  ACCURACY: 45.8165
L1D TIMELY PREFETCHES:     896766 LATE PREFETCHES: 247253 DROPPED PREFETCHES: 0
L1D PREFETCHES SAME FILL-ORIGIN LEVEL: 1957298 DIFFERENT FILL-ORIGIN LEVEL: 0
L1D AVERAGE MISS LATENCY: 1.31126e+07 cycles
L1D RQ	ACCESS:   46483918	FORWARD:          0	MERGED:   12097665	TO_CACHE:   34065572
L1D WQ	ACCESS:   26586297	FORWARD:     324409	MERGED:     149473	TO_CACHE:   26436824
L1D PQ	ACCESS:    3489496	FORWARD:          0	MERGED:          0	TO_CACHE:    3485768

L1D UNIQUE REGIONS ACCESSED: 0
L1D REGIONS CONFLICTS: 0
L1D Cross Page Prefetch Requests: 0
L1D Same Page Prefetch Requests: 4300306
L1D ROI Sum of L1D PQ occupancy: 44474506
L1D PREFETCHES PUSHED FROM L2C: 0
L1I TOTAL     ACCESS:   40227966  HIT:   28784088  MISS:   11443878  HIT %:    71.5524  MISS %:    28.4476   MPKI: 57.2194
L1I LOAD      ACCESS:   40227966  HIT:   28784088  MISS:   11443878  HIT %:    71.5524  MISS %:    28.4476   MPKI: 57.2194
L1I PREFETCH  REQUESTED:          0  ISSUED:          0  USEFUL:          0  USELESS:          0
L1I USEFUL LOAD PREFETCHES:          0 PREFETCH ISSUED TO LOWER LEVEL:          0  ACCURACY: -nan
L1I TIMELY PREFETCHES:          0 LATE PREFETCHES: 0 DROPPED PREFETCHES: 0
L1I PREFETCHES SAME FILL-ORIGIN LEVEL: 0 DIFFERENT FILL-ORIGIN LEVEL: 0
L1I AVERAGE MISS LATENCY: 16.0071 cycles
L1I RQ	ACCESS:   58633177	FORWARD:          0	MERGED:   16669091	TO_CACHE:   41964086

BTB TOTAL     ACCESS:   30711823  HIT:   18461258  MISS:   12250565  HIT %:    60.1112  MISS %:    39.8888   MPKI: 61.2528
BTB BRANCH_DIRECT_JUMP	ACCESS:    1879118  HIT:    1082631  MISS:     796487
BTB BRANCH_INDIRECT	ACCESS:   12151414  HIT:    7482074  MISS:    4669340
BTB BRANCH_CONDITIONAL	ACCESS:    7502011  HIT:    6260752  MISS:    1241259
BTB BRANCH_DIRECT_CALL	ACCESS:    3871933  HIT:    1894091  MISS:    1977842
BTB BRANCH_INDIRECT_CALL	ACCESS:     717697  HIT:     351527  MISS:     366170
BTB BRANCH_RETURN	ACCESS:    4589650  HIT:    1390183  MISS:    3199467
BTB BRANCH_OTHER ACCESS:          0  HIT:          0  MISS:          0

L2C TOTAL     ACCESS:   20236418  HIT:   18803737  MISS:    1432681  HIT %:    92.9203  MISS %:    7.07972   MPKI: 7.16341
L2C LOAD      ACCESS:   14730895  HIT:   13741911  MISS:     988984  HIT %:    93.2863  MISS %:    6.71367   MPKI: 4.94492
L2C DATA LOAD MPKI: 1.26763
L2C INSTRUCTION LOAD MPKI: 3.67729
L2C RFO       ACCESS:    1165567  HIT:    1091937  MISS:      73630  HIT %:    93.6829  MISS %:     6.3171   MPKI: 0.36815
L2C PREFETCH  ACCESS:    1957296  HIT:    1624193  MISS:     333103  HIT %:    82.9815  MISS %:    17.0185   MPKI: 1.66552
AGUS PREFETCH L1 MISS: 0
L2C DATA PREFETCH MPKI: 1.66552
L2C INSTRUCTION PREFETCH MPKI: 0
L2C WRITEBACK ACCESS:    2352888  HIT:    2328176  MISS:      24712  HIT %:    98.9497  MISS %:    1.05028   MPKI: 0.12356
L2C LOAD TRANSLATION ACCESS:      29772  HIT:      17520  MISS:      12252  HIT %:    58.8472  MISS %:    41.1528   MPKI: 0.06126
L2C PREFETCH  REQUESTED:          0  ISSUED:          0  USEFUL:       7889  USELESS:     325200
L2C USEFUL LOAD PREFETCHES:       7889 PREFETCH ISSUED TO LOWER LEVEL:     333103  ACCURACY: 2.36834
L2C TIMELY PREFETCHES:       7889 LATE PREFETCHES: 0 DROPPED PREFETCHES: 0
L2C PREFETCHES SAME FILL-ORIGIN LEVEL: 0 DIFFERENT FILL-ORIGIN LEVEL: 0
L2C AVERAGE MISS LATENCY: 30.5769 cycles
L2C RQ	ACCESS:   15926264	FORWARD:          0	MERGED:          0	TO_CACHE:   15926234
L2C WQ	ACCESS:    2352888	FORWARD:         32	MERGED:          0	TO_CACHE:    2352888
L2C PQ	ACCESS:    1957298	FORWARD:          0	MERGED:          0	TO_CACHE:    1957296

L2C Instructions Evicting Data 327506
L2C Translations Evicting Data 6745
L2C Data Evicting Data 341642
L2C Instructions Evicting Instructions 402822
L2C Translations Evicting Instructions 5245
L2C Data Evicting Instructions 311847
L2C Instructions Evicting Translations 5130
L2C Translations Evicting Translations 262
L2C Data Evicting Translations 6770
L2C Dense regions hint from L2: 0
PSCL5 TOTAL     ACCESS:      28718  HIT:      28718  MISS:          0  HIT %:        100  MISS %:          0   MPKI: 0
PSCL5 LOAD TRANSLATION ACCESS:      28718  HIT:      28718  MISS:          0  HIT %:        100  MISS %:          0   MPKI: 0
PSCL5 PREFETCH  REQUESTED:          0  ISSUED:          0  USEFUL:          0  USELESS:          0
PSCL5 USEFUL LOAD PREFETCHES:          0 PREFETCH ISSUED TO LOWER LEVEL:          0  ACCURACY: -nan
PSCL5 TIMELY PREFETCHES:          0 LATE PREFETCHES: 0 DROPPED PREFETCHES: 0
PSCL5 PREFETCHES SAME FILL-ORIGIN LEVEL: 0 DIFFERENT FILL-ORIGIN LEVEL: 0

PSCL4 TOTAL     ACCESS:      25863  HIT:      25785  MISS:         78  HIT %:    99.6984  MISS %:   0.301589   MPKI: 0.00039
PSCL4 LOAD TRANSLATION ACCESS:      25863  HIT:      25785  MISS:         78  HIT %:    99.6984  MISS %:   0.301589   MPKI: 0.00039
PSCL4 PREFETCH  REQUESTED:          0  ISSUED:          0  USEFUL:          0  USELESS:          0
PSCL4 USEFUL LOAD PREFETCHES:          0 PREFETCH ISSUED TO LOWER LEVEL:          0  ACCURACY: -nan
PSCL4 TIMELY PREFETCHES:          0 LATE PREFETCHES: 0 DROPPED PREFETCHES: 0
PSCL4 PREFETCHES SAME FILL-ORIGIN LEVEL: 0 DIFFERENT FILL-ORIGIN LEVEL: 0

PSCL3 TOTAL     ACCESS:      26920  HIT:      26842  MISS:         78  HIT %:    99.7103  MISS %:   0.289747   MPKI: 0.00039
PSCL3 LOAD TRANSLATION ACCESS:      26920  HIT:      26842  MISS:         78  HIT %:    99.7103  MISS %:   0.289747   MPKI: 0.00039
PSCL3 PREFETCH  REQUESTED:          0  ISSUED:          0  USEFUL:          0  USELESS:          0
PSCL3 USEFUL LOAD PREFETCHES:          0 PREFETCH ISSUED TO LOWER LEVEL:          0  ACCURACY: -nan
PSCL3 TIMELY PREFETCHES:          0 LATE PREFETCHES: 0 DROPPED PREFETCHES: 0
PSCL3 PREFETCHES SAME FILL-ORIGIN LEVEL: 0 DIFFERENT FILL-ORIGIN LEVEL: 0

PSCL2 TOTAL     ACCESS:      28718  HIT:      27820  MISS:        898  HIT %:     96.873  MISS %:    3.12696   MPKI: 0.00449
PSCL2 LOAD TRANSLATION ACCESS:      28718  HIT:      27820  MISS:        898  HIT %:     96.873  MISS %:    3.12696   MPKI: 0.00449
PSCL2 PREFETCH  REQUESTED:          0  ISSUED:          0  USEFUL:          0  USELESS:          0
PSCL2 USEFUL LOAD PREFETCHES:          0 PREFETCH ISSUED TO LOWER LEVEL:          0  ACCURACY: -nan
PSCL2 TIMELY PREFETCHES:          0 LATE PREFETCHES: 0 DROPPED PREFETCHES: 0
PSCL2 PREFETCHES SAME FILL-ORIGIN LEVEL: 0 DIFFERENT FILL-ORIGIN LEVEL: 0

LLC TOTAL     ACCESS:    1525847  HIT:    1515394  MISS:      10453  HIT %:    99.3149  MISS %:   0.685062   MPKI: 0.052265
LLC LOAD      ACCESS:     988984  HIT:     986341  MISS:       2643  HIT %:    99.7328  MISS %:   0.267244   MPKI: 0.013215
LLC RFO       ACCESS:      73628  HIT:      72666  MISS:        962  HIT %:    98.6934  MISS %:    1.30657   MPKI: 0.00481
LLC PREFETCH  ACCESS:     333103  HIT:     326372  MISS:       6731  HIT %:    97.9793  MISS %:     2.0207   MPKI: 0.033655
AGUS PREFETCH L1 MISS: 0
LLC WRITEBACK ACCESS:     117880  HIT:     117804  MISS:         76  HIT %:    99.9355  MISS %:  0.0644723   MPKI: 0.00038
LLC LOAD TRANSLATION ACCESS:      12252  HIT:      12211  MISS:         41  HIT %:    99.6654  MISS %:   0.334639   MPKI: 0.000205
LLC PREFETCH  REQUESTED:          0  ISSUED:          0  USEFUL:       1802  USELESS:       4661
LLC USEFUL LOAD PREFETCHES:       1802 PREFETCH ISSUED TO LOWER LEVEL:       6731  ACCURACY: 26.7717
LLC TIMELY PREFETCHES:       1802 LATE PREFETCHES: 0 DROPPED PREFETCHES: 0
LLC PREFETCHES SAME FILL-ORIGIN LEVEL: 0 DIFFERENT FILL-ORIGIN LEVEL: 0
LLC AVERAGE MISS LATENCY: 149.991 cycles
LLC RQ	ACCESS:    1074866	FORWARD:          0	MERGED:          0	TO_CACHE:    1074864
LLC WQ	ACCESS:     117880	FORWARD:          2	MERGED:          0	TO_CACHE:     117880
LLC PQ	ACCESS:     333103	FORWARD:          0	MERGED:          0	TO_CACHE:     333103

LLC Dense regions hint to LLC: 0

RAW hits: 1484989
Loads Generated: 47968907
Loads sent to L1D: 46483918
Stores Generated: 26586297
Stores sent to L1D: 26586297
Major fault: 0 Minor fault: 1825
Allocated PAGES: 1825

stream: 
stream:times selected: 4895087
stream:pref_filled: 622285
stream:pref_useful: 144662
stream:pref_late: 120921
stream:misses: 65331
stream:misses_by_poll: 0

CS: 
CS:times selected: 610835
CS:pref_filled: 415931
CS:pref_useful: 347631
CS:pref_late: 26222
CS:misses: 94729
CS:misses_by_poll: 12

CPLX: 
CPLX:times selected: 4273069
CPLX:pref_filled: 1137065
CPLX:pref_useful: 671445
CPLX:pref_late: 63284
CPLX:misses: 545616
CPLX:misses_by_poll: 432

NL_L1: 
NL:times selected: 11806
NL:pref_filled: 4930
NL:pref_useful: 522
NL:pref_late: 17
NL:misses: 1637
NL:misses_by_poll: 0

total selections: 9790797
total_filled: 1706994
total_useful: 896766
total_late: 256255
total_polluted: 444
total_misses_after_warmup: 3647694
conflicts: 12124162
Degree Incremented Times: 117099
Degree Decremented Times: 333738

L1 IP Table Write Accesses: 20865953
L1 IP Table Read Accesses: 8741791
L1 RST Write Accesses: 3924201
L1 RST Read Accesses: 7848402
L1 CSPT Write Accesses: 3924201
L1 CSPT Read Accesses: 10333082
L1 RR Filter Tag Write Accesses: 3489496
L1 RR Filter Tag Read Accesses: 237823079
L1 IP Table Tag Write Accesses: 34065571
L1 IP Table Tag Read Accesses: 34065571
L1 RST Tag Write Accesses: 0
L1 RST Tag Read Accesses: 37228523
L1 RR Filter Write Accesses: 0
L1 RR Filter Read Accesses: 8346081
test: 915845

DRAM Statistics
 CHANNEL 0
 RQ ROW_BUFFER_HIT:       2175  ROW_BUFFER_MISS:       8202
 DBUS_CONGESTED:          0
 WQ ROW_BUFFER_HIT:         51  ROW_BUFFER_MISS:       1225  FULL:          0

 AVG_CONGESTED_CYCLE: -
 All warmup complete: 2
Channel 0 Bank busy for read cycles: 0
Channel 0 Bank busy for write cycles: 0
Channel 0
Rank 0
0banks busy for read cycles: 641171986
0banks busy for write cycles: 956
1banks busy for read cycles: 843177
1banks busy for write cycles: 128171
2banks busy for read cycles: 115599
2banks busy for write cycles: 14521
3banks busy for read cycles: 35285
3banks busy for write cycles: 6541
4banks busy for read cycles: 19400
4banks busy for write cycles: 1963
5banks busy for read cycles: 10136
5banks busy for write cycles: 1277
6banks busy for read cycles: 3533
6banks busy for write cycles: 713
7banks busy for read cycles: 932
7banks busy for write cycles: 2
8banks busy for read cycles: 353
8banks busy for write cycles: 143

CPU 0 Branch Prediction Accuracy: 99.883% MPKI: 0.21111 Average ROB Occupancy at Mispredict: 27.7744
Branch types
NOT_BRANCH: 163917788 81.9589%
BRANCH_DIRECT_JUMP: 1879118 0.939559%
BRANCH_INDIRECT: 12151414 6.07571%
BRANCH_CONDITIONAL: 12872311 6.43616%
BRANCH_DIRECT_CALL: 3871933 1.93597%
BRANCH_INDIRECT_CALL: 717697 0.358849%
BRANCH_RETURN: 4589650 2.29482%
BRANCH_OTHER: 0 0%

DRAM PAGES: 1048576
Allocated PAGES: 1825
