
*** ChampSim Multicore Out-of-Order Simulator ***

Warmup Instructions: 50000000
Simulation Instructions: 200000000
Number of CPUs: 1
LLC sets: 2048
LLC ways: 16
Off-chip DRAM Size: 4096 MB Channels: 1 Width: 64-bit Data Rate: 6400 MT/s
CPU 0 runs traces/spec2k17/srv_45.champsimtrace.xz
.xz
BTB has LRU replacement policy
ITLB has LRU replacement policy
DTLB has LRU replacement policy
STLB has LRU replacement policy
L1I has LRU replacement policy
IP Table Entries: 1024
CSPT Entries: 128
RR_ENTRIES: 32
RST_ENTRIES: 8
L1D has LRU replacement policy
Initialize SRRIP state for L2C
Initialize DRRIP state for LLC
Heartbeat CPU 0 instructions: 10000003 cycles: 2935519 heartbeat IPC: 3.40655 cumulative IPC: 3.40655 (Simulation time: 0 hr 0 min 54 sec) 
Heartbeat CPU 0 instructions: 20000002 cycles: 5871797 heartbeat IPC: 3.40567 cumulative IPC: 3.40611 (Simulation time: 0 hr 1 min 52 sec) 
Heartbeat CPU 0 instructions: 30000000 cycles: 8803402 heartbeat IPC: 3.4111 cumulative IPC: 3.40777 (Simulation time: 0 hr 2 min 40 sec) 
*** Reached end of trace for Core: 0 Repeating trace: traces/spec2k17/srv_45.champsimtrace.xz
Heartbeat CPU 0 instructions: 40000000 cycles: 11733184 heartbeat IPC: 3.41322 cumulative IPC: 3.40913 (Simulation time: 0 hr 3 min 33 sec) 
Heartbeat CPU 0 instructions: 50000001 cycles: 14665166 heartbeat IPC: 3.41066 cumulative IPC: 3.40944 (Simulation time: 0 hr 4 min 27 sec) 

Warmup complete CPU 0 instructions: 50000001 cycles: 14665166 (Simulation time: 0 hr 4 min 27 sec) 

Heartbeat CPU 0 instructions: 60000000 cycles: 54363339 heartbeat IPC: 0.251901 cumulative IPC: 0.251901 (Simulation time: 0 hr 5 min 28 sec) 
*** Reached end of trace for Core: 0 Repeating trace: traces/spec2k17/srv_45.champsimtrace.xz
Heartbeat CPU 0 instructions: 70000000 cycles: 93948431 heartbeat IPC: 0.25262 cumulative IPC: 0.25226 (Simulation time: 0 hr 6 min 32 sec) 
Heartbeat CPU 0 instructions: 80000001 cycles: 133655169 heartbeat IPC: 0.251846 cumulative IPC: 0.252122 (Simulation time: 0 hr 7 min 36 sec) 
Heartbeat CPU 0 instructions: 90000003 cycles: 173187415 heartbeat IPC: 0.252958 cumulative IPC: 0.252331 (Simulation time: 0 hr 8 min 39 sec) 
*** Reached end of trace for Core: 0 Repeating trace: traces/spec2k17/srv_45.champsimtrace.xz
Heartbeat CPU 0 instructions: 100000003 cycles: 212808216 heartbeat IPC: 0.252393 cumulative IPC: 0.252343 (Simulation time: 0 hr 9 min 40 sec) 
Heartbeat CPU 0 instructions: 110000000 cycles: 252613728 heartbeat IPC: 0.251221 cumulative IPC: 0.252155 (Simulation time: 0 hr 10 min 41 sec) 
Heartbeat CPU 0 instructions: 120000000 cycles: 292063904 heartbeat IPC: 0.253484 cumulative IPC: 0.252344 (Simulation time: 0 hr 11 min 47 sec) 
*** Reached end of trace for Core: 0 Repeating trace: traces/spec2k17/srv_45.champsimtrace.xz
Heartbeat CPU 0 instructions: 130000002 cycles: 331605463 heartbeat IPC: 0.252899 cumulative IPC: 0.252413 (Simulation time: 0 hr 12 min 49 sec) 
Heartbeat CPU 0 instructions: 140000003 cycles: 371156790 heartbeat IPC: 0.252836 cumulative IPC: 0.25246 (Simulation time: 0 hr 13 min 56 sec) 
Heartbeat CPU 0 instructions: 150000000 cycles: 410751466 heartbeat IPC: 0.252559 cumulative IPC: 0.25247 (Simulation time: 0 hr 14 min 59 sec) 
*** Reached end of trace for Core: 0 Repeating trace: traces/spec2k17/srv_45.champsimtrace.xz
Heartbeat CPU 0 instructions: 160000001 cycles: 450151332 heartbeat IPC: 0.253808 cumulative IPC: 0.252591 (Simulation time: 0 hr 16 min 5 sec) 
Heartbeat CPU 0 instructions: 170000001 cycles: 489643648 heartbeat IPC: 0.253214 cumulative IPC: 0.252643 (Simulation time: 0 hr 17 min 3 sec) 
Heartbeat CPU 0 instructions: 180000000 cycles: 529422214 heartbeat IPC: 0.251392 cumulative IPC: 0.252546 (Simulation time: 0 hr 18 min 10 sec) 
*** Reached end of trace for Core: 0 Repeating trace: traces/spec2k17/srv_45.champsimtrace.xz
Heartbeat CPU 0 instructions: 190000001 cycles: 568777004 heartbeat IPC: 0.254099 cumulative IPC: 0.252657 (Simulation time: 0 hr 19 min 14 sec) 
Heartbeat CPU 0 instructions: 200000000 cycles: 608488508 heartbeat IPC: 0.251816 cumulative IPC: 0.2526 (Simulation time: 0 hr 20 min 17 sec) 
Heartbeat CPU 0 instructions: 210000003 cycles: 647946463 heartbeat IPC: 0.253434 cumulative IPC: 0.252652 (Simulation time: 0 hr 21 min 20 sec) 
*** Reached end of trace for Core: 0 Repeating trace: traces/spec2k17/srv_45.champsimtrace.xz
Heartbeat CPU 0 instructions: 220000000 cycles: 687302476 heartbeat IPC: 0.254091 cumulative IPC: 0.252737 (Simulation time: 0 hr 22 min 18 sec) 
Heartbeat CPU 0 instructions: 230000000 cycles: 726978936 heartbeat IPC: 0.252039 cumulative IPC: 0.252698 (Simulation time: 0 hr 23 min 25 sec) 
Heartbeat CPU 0 instructions: 240000000 cycles: 766547492 heartbeat IPC: 0.252726 cumulative IPC: 0.252699 (Simulation time: 0 hr 24 min 24 sec) 
*** Reached end of trace for Core: 0 Repeating trace: traces/spec2k17/srv_45.champsimtrace.xz
Heartbeat CPU 0 instructions: 250000003 cycles: 805823360 heartbeat IPC: 0.254609 cumulative IPC: 0.252794 (Simulation time: 0 hr 25 min 26 sec) 
Finished CPU 0 instructions: 200000002 cycles: 791158194 cumulative IPC: 0.252794 (Simulation time: 0 hr 25 min 26 sec) 

ChampSim completed all CPUs

Region of Interest Statistics

CPU 0 cumulative IPC: 0.252794 instructions: 200000002 cycles: 791158194
ITLB TOTAL     ACCESS:   36321933  HIT:   33574107  MISS:    2747826  HIT %:    92.4348  MISS %:     7.5652   MPKI: 13.7391
ITLB LOAD TRANSLATION ACCESS:   36321933  HIT:   33574107  MISS:    2747826  HIT %:    92.4348  MISS %:     7.5652   MPKI: 13.7391
ITLB PREFETCH  REQUESTED:          0  ISSUED:          0  USEFUL:          0  USELESS:          0
ITLB USEFUL LOAD PREFETCHES:          0 PREFETCH ISSUED TO LOWER LEVEL:          0  ACCURACY: -nan
ITLB TIMELY PREFETCHES:          0 LATE PREFETCHES: 0 DROPPED PREFETCHES: 0
ITLB PREFETCHES SAME FILL-ORIGIN LEVEL: 0 DIFFERENT FILL-ORIGIN LEVEL: 0
ITLB AVERAGE MISS LATENCY: 9.31374 cycles
ITLB RQ	ACCESS:   42979414	FORWARD:          0	MERGED:    5918273	TO_CACHE:   37061141

DTLB TOTAL     ACCESS:   49806282  HIT:   47348731  MISS:    2457551  HIT %:    95.0658  MISS %:    4.93422   MPKI: 12.2878
DTLB LOAD TRANSLATION ACCESS:   49806282  HIT:   47348731  MISS:    2457551  HIT %:    95.0658  MISS %:    4.93422   MPKI: 12.2878
DTLB PREFETCH  REQUESTED:          0  ISSUED:          0  USEFUL:          0  USELESS:          0
DTLB USEFUL LOAD PREFETCHES:          0 PREFETCH ISSUED TO LOWER LEVEL:          0  ACCURACY: -nan
DTLB TIMELY PREFETCHES:          0 LATE PREFETCHES: 0 DROPPED PREFETCHES: 0
DTLB PREFETCHES SAME FILL-ORIGIN LEVEL: 0 DIFFERENT FILL-ORIGIN LEVEL: 0
DTLB AVERAGE MISS LATENCY: 12.2878 cycles
DTLB RQ	ACCESS:   66044184	FORWARD:          0	MERGED:   16094507	TO_CACHE:   49949677

STLB TOTAL     ACCESS:    7033973  HIT:    6925824  MISS:     108149  HIT %:    98.4625  MISS %:    1.53752   MPKI: 0.540745
STLB LOAD TRANSLATION ACCESS:    5205377  HIT:    5097228  MISS:     108149  HIT %:    97.9224  MISS %:    2.07764   MPKI: 0.540745
STLB TRANSLATION FROM L1D PREFETCHER ACCESS:    1828596  HIT:    1828596  MISS:          0  HIT %:        100  MISS %:          0   MPKI: 0
STLB PREFETCH  REQUESTED:          0  ISSUED:          0  USEFUL:          0  USELESS:          0
STLB USEFUL LOAD PREFETCHES:          0 PREFETCH ISSUED TO LOWER LEVEL:          0  ACCURACY: -nan
STLB TIMELY PREFETCHES:          0 LATE PREFETCHES: 0 DROPPED PREFETCHES: 0
STLB PREFETCHES SAME FILL-ORIGIN LEVEL: 0 DIFFERENT FILL-ORIGIN LEVEL: 0
STLB AVERAGE MISS LATENCY: 82.265 cycles
STLB RQ	ACCESS:    7952820	FORWARD:          0	MERGED:     918847	TO_CACHE:    7033973

STLB Hit, L1D data hit: 0
STLB Hit, L2C data hit: 0
STLB Hit, LLC data hit: 0
STLB Hit, LLC data miss: 0
STLB STLB hints to L2: 0
L1D TOTAL     ACCESS:   65939922  HIT:   59661596  MISS:    6278326  HIT %:    90.4787  MISS %:    9.52128   MPKI: 31.3916
L1D LOAD      ACCESS:   39557280  HIT:   35597763  MISS:    3959517  HIT %:    89.9904  MISS %:    10.0096   MPKI: 19.7976
L1D RFO       ACCESS:   23754049  HIT:   22034623  MISS:    1719426  HIT %:    92.7615  MISS %:    7.23845   MPKI: 8.59713
L1D PREFETCH  ACCESS:    2628593  HIT:    2029210  MISS:     599383  HIT %:    77.1976  MISS %:    22.8024   MPKI: 2.99691
AGUS PREFETCH L1 MISS: 0
L1D PREFETCH  REQUESTED:    5498300  ISSUED:    5498287  USEFUL:     143722  USELESS:     455665
L1D USEFUL LOAD PREFETCHES:     143722 PREFETCH ISSUED TO LOWER LEVEL:     657475  ACCURACY: 21.8597
L1D TIMELY PREFETCHES:     143722 LATE PREFETCHES: 54411 DROPPED PREFETCHES: 0
L1D PREFETCHES SAME FILL-ORIGIN LEVEL: 657475 DIFFERENT FILL-ORIGIN LEVEL: 0
L1D AVERAGE MISS LATENCY: 3.8045e+06 cycles
L1D RQ	ACCESS:   50633660	FORWARD:          0	MERGED:   10729265	TO_CACHE:   39727538
L1D WQ	ACCESS:   26484793	FORWARD:     180258	MERGED:     168147	TO_CACHE:   26316646
L1D PQ	ACCESS:    2750844	FORWARD:          0	MERGED:          0	TO_CACHE:    2747443

L1D UNIQUE REGIONS ACCESSED: 0
L1D REGIONS CONFLICTS: 0
L1D Cross Page Prefetch Requests: 0
L1D Same Page Prefetch Requests: 3352000
L1D ROI Sum of L1D PQ occupancy: 35565564
L1D PREFETCHES PUSHED FROM L2C: 0
L1I TOTAL     ACCESS:   41294330  HIT:   28140603  MISS:   13153727  HIT %:    68.1464  MISS %:    31.8536   MPKI: 65.7686
L1I LOAD      ACCESS:   41294330  HIT:   28140603  MISS:   13153727  HIT %:    68.1464  MISS %:    31.8536   MPKI: 65.7686
L1I PREFETCH  REQUESTED:          0  ISSUED:          0  USEFUL:          0  USELESS:          0
L1I USEFUL LOAD PREFETCHES:          0 PREFETCH ISSUED TO LOWER LEVEL:          0  ACCURACY: -nan
L1I TIMELY PREFETCHES:          0 LATE PREFETCHES: 0 DROPPED PREFETCHES: 0
L1I PREFETCHES SAME FILL-ORIGIN LEVEL: 0 DIFFERENT FILL-ORIGIN LEVEL: 0
L1I AVERAGE MISS LATENCY: 16.2599 cycles
L1I RQ	ACCESS:   59959488	FORWARD:          0	MERGED:   16980074	TO_CACHE:   42979414

BTB TOTAL     ACCESS:   31973433  HIT:   16686947  MISS:   15286486  HIT %:      52.19  MISS %:      47.81   MPKI: 76.4324
BTB BRANCH_DIRECT_JUMP	ACCESS:    2345713  HIT:    1227110  MISS:    1118603
BTB BRANCH_INDIRECT	ACCESS:   14157352  HIT:    8110274  MISS:    6047078
BTB BRANCH_CONDITIONAL	ACCESS:    4344280  HIT:    3034534  MISS:    1309746
BTB BRANCH_DIRECT_CALL	ACCESS:    4151171  HIT:    2145079  MISS:    2006092
BTB BRANCH_INDIRECT_CALL	ACCESS:    1411897  HIT:     576080  MISS:     835817
BTB BRANCH_RETURN	ACCESS:    5563020  HIT:    1593870  MISS:    3969150
BTB BRANCH_OTHER ACCESS:          0  HIT:          0  MISS:          0

L2C TOTAL     ACCESS:   22452093  HIT:   19311787  MISS:    3140306  HIT %:    86.0133  MISS %:    13.9867   MPKI: 15.7015
L2C LOAD      ACCESS:   17058690  HIT:   15115933  MISS:    1942757  HIT %:    88.6113  MISS %:    11.3887   MPKI: 9.71378
L2C DATA LOAD MPKI: 5.07458
L2C INSTRUCTION LOAD MPKI: 4.6392
L2C RFO       ACCESS:    1715741  HIT:    1105629  MISS:     610112  HIT %:    64.4403  MISS %:    35.5597   MPKI: 3.05056
L2C PREFETCH  ACCESS:     657440  HIT:     307053  MISS:     350387  HIT %:    46.7043  MISS %:    53.2957   MPKI: 1.75193
AGUS PREFETCH L1 MISS: 0
L2C DATA PREFETCH MPKI: 1.75193
L2C INSTRUCTION PREFETCH MPKI: 0
L2C WRITEBACK ACCESS:    2845254  HIT:    2699038  MISS:     146216  HIT %:    94.8611  MISS %:    5.13894   MPKI: 0.73108
L2C LOAD TRANSLATION ACCESS:     174968  HIT:      84134  MISS:      90834  HIT %:    48.0854  MISS %:    51.9146   MPKI: 0.45417
L2C PREFETCH  REQUESTED:          0  ISSUED:          0  USEFUL:       7256  USELESS:     343177
L2C USEFUL LOAD PREFETCHES:       7256 PREFETCH ISSUED TO LOWER LEVEL:     350387  ACCURACY: 2.07085
L2C TIMELY PREFETCHES:       7256 LATE PREFETCHES: 0 DROPPED PREFETCHES: 0
L2C PREFETCHES SAME FILL-ORIGIN LEVEL: 0 DIFFERENT FILL-ORIGIN LEVEL: 0
L2C AVERAGE MISS LATENCY: 51.6505 cycles
L2C RQ	ACCESS:   18949545	FORWARD:          0	MERGED:          0	TO_CACHE:   18949399
L2C WQ	ACCESS:    2845255	FORWARD:        181	MERGED:          0	TO_CACHE:    2845255
L2C PQ	ACCESS:     657475	FORWARD:          0	MERGED:          0	TO_CACHE:     657440

L2C Instructions Evicting Data 488399
L2C Translations Evicting Data 72669
L2C Data Evicting Data 1469147
L2C Instructions Evicting Instructions 424438
L2C Translations Evicting Instructions 14928
L2C Data Evicting Instructions 436348
L2C Instructions Evicting Translations 15003
L2C Translations Evicting Translations 3237
L2C Data Evicting Translations 69921
L2C Dense regions hint from L2: 0
PSCL5 TOTAL     ACCESS:     108149  HIT:     108149  MISS:          0  HIT %:        100  MISS %:          0   MPKI: 0
PSCL5 LOAD TRANSLATION ACCESS:     108149  HIT:     108149  MISS:          0  HIT %:        100  MISS %:          0   MPKI: 0
PSCL5 PREFETCH  REQUESTED:          0  ISSUED:          0  USEFUL:          0  USELESS:          0
PSCL5 USEFUL LOAD PREFETCHES:          0 PREFETCH ISSUED TO LOWER LEVEL:          0  ACCURACY: -nan
PSCL5 TIMELY PREFETCHES:          0 LATE PREFETCHES: 0 DROPPED PREFETCHES: 0
PSCL5 PREFETCHES SAME FILL-ORIGIN LEVEL: 0 DIFFERENT FILL-ORIGIN LEVEL: 0

PSCL4 TOTAL     ACCESS:     106375  HIT:     105600  MISS:        775  HIT %:    99.2714  MISS %:   0.728555   MPKI: 0.003875
PSCL4 LOAD TRANSLATION ACCESS:     106375  HIT:     105600  MISS:        775  HIT %:    99.2714  MISS %:   0.728555   MPKI: 0.003875
PSCL4 PREFETCH  REQUESTED:          0  ISSUED:          0  USEFUL:          0  USELESS:          0
PSCL4 USEFUL LOAD PREFETCHES:          0 PREFETCH ISSUED TO LOWER LEVEL:          0  ACCURACY: -nan
PSCL4 TIMELY PREFETCHES:          0 LATE PREFETCHES: 0 DROPPED PREFETCHES: 0
PSCL4 PREFETCHES SAME FILL-ORIGIN LEVEL: 0 DIFFERENT FILL-ORIGIN LEVEL: 0

PSCL3 TOTAL     ACCESS:      94715  HIT:      75175  MISS:      19540  HIT %:    79.3697  MISS %:    20.6303   MPKI: 0.0977
PSCL3 LOAD TRANSLATION ACCESS:      94715  HIT:      75175  MISS:      19540  HIT %:    79.3697  MISS %:    20.6303   MPKI: 0.0977
PSCL3 PREFETCH  REQUESTED:          0  ISSUED:          0  USEFUL:          0  USELESS:          0
PSCL3 USEFUL LOAD PREFETCHES:          0 PREFETCH ISSUED TO LOWER LEVEL:          0  ACCURACY: -nan
PSCL3 TIMELY PREFETCHES:          0 LATE PREFETCHES: 0 DROPPED PREFETCHES: 0
PSCL3 PREFETCHES SAME FILL-ORIGIN LEVEL: 0 DIFFERENT FILL-ORIGIN LEVEL: 0

PSCL2 TOTAL     ACCESS:     108149  HIT:      61645  MISS:      46504  HIT %:    57.0001  MISS %:    42.9999   MPKI: 0.23252
PSCL2 LOAD TRANSLATION ACCESS:     108149  HIT:      61645  MISS:      46504  HIT %:    57.0001  MISS %:    42.9999   MPKI: 0.23252
PSCL2 PREFETCH  REQUESTED:          0  ISSUED:          0  USEFUL:          0  USELESS:          0
PSCL2 USEFUL LOAD PREFETCHES:          0 PREFETCH ISSUED TO LOWER LEVEL:          0  ACCURACY: -nan
PSCL2 TIMELY PREFETCHES:          0 LATE PREFETCHES: 0 DROPPED PREFETCHES: 0
PSCL2 PREFETCHES SAME FILL-ORIGIN LEVEL: 0 DIFFERENT FILL-ORIGIN LEVEL: 0

LLC TOTAL     ACCESS:    3981321  HIT:    3617986  MISS:     363335  HIT %:     90.874  MISS %:    9.12599   MPKI: 1.81667
LLC LOAD      ACCESS:    1942753  HIT:    1826465  MISS:     116288  HIT %:    94.0143  MISS %:    5.98573   MPKI: 0.58144
LLC RFO       ACCESS:     610112  HIT:     487498  MISS:     122614  HIT %:     79.903  MISS %:     20.097   MPKI: 0.61307
LLC PREFETCH  ACCESS:     350387  HIT:     249442  MISS:     100945  HIT %:    71.1904  MISS %:    28.8096   MPKI: 0.504725
AGUS PREFETCH L1 MISS: 0
LLC WRITEBACK ACCESS:     987235  HIT:     978887  MISS:       8348  HIT %:    99.1544  MISS %:   0.845594   MPKI: 0.04174
LLC LOAD TRANSLATION ACCESS:      90834  HIT:      75694  MISS:      15140  HIT %:    83.3322  MISS %:    16.6678   MPKI: 0.0757
LLC PREFETCH  REQUESTED:          0  ISSUED:          0  USEFUL:       1588  USELESS:     102330
LLC USEFUL LOAD PREFETCHES:       1588 PREFETCH ISSUED TO LOWER LEVEL:     100945  ACCURACY: 1.57313
LLC TIMELY PREFETCHES:       1588 LATE PREFETCHES: 0 DROPPED PREFETCHES: 0
LLC PREFETCHES SAME FILL-ORIGIN LEVEL: 0 DIFFERENT FILL-ORIGIN LEVEL: 0
LLC AVERAGE MISS LATENCY: 199.197 cycles
LLC RQ	ACCESS:    2643704	FORWARD:          0	MERGED:          0	TO_CACHE:    2643699
LLC WQ	ACCESS:     987235	FORWARD:          5	MERGED:          0	TO_CACHE:     987235
LLC PQ	ACCESS:     350387	FORWARD:          0	MERGED:          0	TO_CACHE:     350387

LLC Dense regions hint to LLC: 0

RAW hits: 1571721
Loads Generated: 52205381
Loads sent to L1D: 50633660
Stores Generated: 26484783
Stores sent to L1D: 26484793
Major fault: 0 Minor fault: 6405
Allocated PAGES: 6405

stream: 
stream:times selected: 4304189
stream:pref_filled: 488222
stream:pref_useful: 97947
stream:pref_late: 14276
stream:misses: 41071
stream:misses_by_poll: 0

CS: 
CS:times selected: 313492
CS:pref_filled: 78802
CS:pref_useful: 66093
CS:pref_late: 31074
CS:misses: 54340
CS:misses_by_poll: 0

CPLX: 
CPLX:times selected: 3956307
CPLX:pref_filled: 182568
CPLX:pref_useful: 28169
CPLX:pref_late: 3472
CPLX:misses: 209895
CPLX:misses_by_poll: 26

NL_L1: 
NL:times selected: 30449
NL:pref_filled: 10681
NL:pref_useful: 669
NL:pref_late: 430
NL:misses: 3829
NL:misses_by_poll: 0

total selections: 8604437
total_filled: 599383
total_useful: 143722
total_late: 57530
total_polluted: 26
total_misses_after_warmup: 4129780
conflicts: 14782215
Degree Incremented Times: 199377
Degree Decremented Times: 487229

L1 IP Table Write Accesses: 23778772
L1 IP Table Read Accesses: 8996557
L1 RST Write Accesses: 3543267
L1 RST Read Accesses: 7086534
L1 CSPT Write Accesses: 3543267
L1 CSPT Read Accesses: 6798019
L1 RR Filter Tag Write Accesses: 2750857
L1 RR Filter Tag Read Accesses: 134798160
L1 IP Table Tag Write Accesses: 39727543
L1 IP Table Tag Read Accesses: 39727543
L1 RST Tag Write Accesses: 0
L1 RST Tag Read Accesses: 29735096
L1 RR Filter Write Accesses: 0
L1 RR Filter Read Accesses: 4868851
test: 995606

DRAM Statistics
 CHANNEL 0
 RQ ROW_BUFFER_HIT:     111217  ROW_BUFFER_MISS:     243769
 DBUS_CONGESTED:        192
 WQ ROW_BUFFER_HIT:      28094  ROW_BUFFER_MISS:     143144  FULL:          0

 AVG_CONGESTED_CYCLE: 4
 All warmup complete: 2
Channel 0 Bank busy for read cycles: 0
Channel 0 Bank busy for write cycles: 0
Channel 0
Rank 0
0banks busy for read cycles: 752658829
0banks busy for write cycles: 62044
1banks busy for read cycles: 17248553
1banks busy for write cycles: 9000619
2banks busy for read cycles: 3798579
2banks busy for write cycles: 2073861
3banks busy for read cycles: 1170401
3banks busy for write cycles: 702050
4banks busy for read cycles: 322112
4banks busy for write cycles: 304507
5banks busy for read cycles: 184445
5banks busy for write cycles: 189026
6banks busy for read cycles: 142622
6banks busy for write cycles: 146769
7banks busy for read cycles: 244566
7banks busy for write cycles: 231250
8banks busy for read cycles: 1154919
8banks busy for write cycles: 1523043

CPU 0 Branch Prediction Accuracy: 99.9107% MPKI: 0.163205 Average ROB Occupancy at Mispredict: 39.227
Branch types
NOT_BRANCH: 163456044 81.728%
BRANCH_DIRECT_JUMP: 2345713 1.17286%
BRANCH_INDIRECT: 14157352 7.07868%
BRANCH_CONDITIONAL: 8914733 4.45737%
BRANCH_DIRECT_CALL: 4151171 2.07559%
BRANCH_INDIRECT_CALL: 1411897 0.705948%
BRANCH_RETURN: 5563020 2.78151%
BRANCH_OTHER: 0 0%

DRAM PAGES: 1048576
Allocated PAGES: 6405
