
*** ChampSim Multicore Out-of-Order Simulator ***

Warmup Instructions: 50000000
Simulation Instructions: 200000000
Number of CPUs: 1
LLC sets: 2048
LLC ways: 16
Off-chip DRAM Size: 4096 MB Channels: 1 Width: 64-bit Data Rate: 6400 MT/s
CPU 0 runs traces/spec2k17/server_021.champsimtrace.xz
.xz
BTB has LRU replacement policy
ITLB has LRU replacement policy
DTLB has LRU replacement policy
STLB has LRU replacement policy
L1I has LRU replacement policy
L1D has LRU replacement policy
Initialize SRRIP state for L2C
Initialize DRRIP state for LLC
Offset table: -6 -5 -4 -3 -2 -1 1 2 3 4 5 6 
Offset table size: 12

Printing Sanity: 1

Round Robin Complete

Offset reward: 272 370 462 508 456 830 1092 532 554 483 371 307 
Offset reward size: 12

Offset count: 1 1 1 1 1 1 1 1 1 1 1 1 
Offset count size: 12

Printing Sanity: 2
n total: 12
Writing in data1.txt 

Writing done! 

Heartbeat CPU 0 instructions: 10000003 cycles: 2974309 heartbeat IPC: 3.36213 cumulative IPC: 3.36213 (Simulation time: 0 hr 0 min 24 sec) 
Heartbeat CPU 0 instructions: 20000002 cycles: 5942794 heartbeat IPC: 3.36872 cumulative IPC: 3.36542 (Simulation time: 0 hr 0 min 48 sec) 
Heartbeat CPU 0 instructions: 30000000 cycles: 8919838 heartbeat IPC: 3.35904 cumulative IPC: 3.36329 (Simulation time: 0 hr 1 min 12 sec) 
Heartbeat CPU 0 instructions: 40000003 cycles: 11889872 heartbeat IPC: 3.36697 cumulative IPC: 3.36421 (Simulation time: 0 hr 1 min 35 sec) 
Heartbeat CPU 0 instructions: 50000000 cycles: 14863575 heartbeat IPC: 3.36281 cumulative IPC: 3.36393 (Simulation time: 0 hr 2 min 0 sec) 

Warmup complete CPU 0 instructions: 50000001 cycles: 14863576 (Simulation time: 0 hr 2 min 0 sec) 

Heartbeat CPU 0 instructions: 60000001 cycles: 35856893 heartbeat IPC: 0.476342 cumulative IPC: 0.476342 (Simulation time: 0 hr 2 min 42 sec) 
Heartbeat CPU 0 instructions: 70000001 cycles: 56511574 heartbeat IPC: 0.484152 cumulative IPC: 0.480215 (Simulation time: 0 hr 3 min 25 sec) 
Heartbeat CPU 0 instructions: 80000001 cycles: 76299347 heartbeat IPC: 0.505363 cumulative IPC: 0.488315 (Simulation time: 0 hr 4 min 6 sec) 
Heartbeat CPU 0 instructions: 90000002 cycles: 95925106 heartbeat IPC: 0.509534 cumulative IPC: 0.493452 (Simulation time: 0 hr 4 min 48 sec) 
Heartbeat CPU 0 instructions: 100000000 cycles: 115547260 heartbeat IPC: 0.509628 cumulative IPC: 0.496605 (Simulation time: 0 hr 5 min 29 sec) 
*** Reached end of trace for Core: 0 Repeating trace: traces/spec2k17/server_021.champsimtrace.xz
Heartbeat CPU 0 instructions: 110000000 cycles: 135242705 heartbeat IPC: 0.507732 cumulative IPC: 0.498425 (Simulation time: 0 hr 6 min 10 sec) 
Heartbeat CPU 0 instructions: 120000003 cycles: 154776504 heartbeat IPC: 0.511933 cumulative IPC: 0.500311 (Simulation time: 0 hr 6 min 52 sec) 
Heartbeat CPU 0 instructions: 130000000 cycles: 174362836 heartbeat IPC: 0.51056 cumulative IPC: 0.50157 (Simulation time: 0 hr 7 min 33 sec) 
Heartbeat CPU 0 instructions: 140000001 cycles: 193882961 heartbeat IPC: 0.512292 cumulative IPC: 0.502739 (Simulation time: 0 hr 8 min 15 sec) 
Heartbeat CPU 0 instructions: 150000003 cycles: 213614355 heartbeat IPC: 0.506807 cumulative IPC: 0.503143 (Simulation time: 0 hr 8 min 57 sec) 
Heartbeat CPU 0 instructions: 160000002 cycles: 233525548 heartbeat IPC: 0.50223 cumulative IPC: 0.50306 (Simulation time: 0 hr 9 min 39 sec) 
Heartbeat CPU 0 instructions: 170000001 cycles: 253125599 heartbeat IPC: 0.510203 cumulative IPC: 0.503647 (Simulation time: 0 hr 10 min 21 sec) 
Heartbeat CPU 0 instructions: 180000000 cycles: 272477353 heartbeat IPC: 0.516749 cumulative IPC: 0.504631 (Simulation time: 0 hr 11 min 2 sec) 
Heartbeat CPU 0 instructions: 190000000 cycles: 291922724 heartbeat IPC: 0.514261 cumulative IPC: 0.505307 (Simulation time: 0 hr 11 min 44 sec) 
Heartbeat CPU 0 instructions: 200000002 cycles: 311508931 heartbeat IPC: 0.510563 cumulative IPC: 0.505654 (Simulation time: 0 hr 12 min 26 sec) 
Heartbeat CPU 0 instructions: 210000000 cycles: 331223052 heartbeat IPC: 0.50725 cumulative IPC: 0.505754 (Simulation time: 0 hr 13 min 8 sec) 
*** Reached end of trace for Core: 0 Repeating trace: traces/spec2k17/server_021.champsimtrace.xz
Heartbeat CPU 0 instructions: 220000000 cycles: 350740244 heartbeat IPC: 0.512369 cumulative IPC: 0.506138 (Simulation time: 0 hr 13 min 49 sec) 
Heartbeat CPU 0 instructions: 230000003 cycles: 370182725 heartbeat IPC: 0.514338 cumulative IPC: 0.506587 (Simulation time: 0 hr 14 min 31 sec) 
Heartbeat CPU 0 instructions: 240000002 cycles: 389412690 heartbeat IPC: 0.520022 cumulative IPC: 0.507277 (Simulation time: 0 hr 15 min 12 sec) 
Heartbeat CPU 0 instructions: 250000000 cycles: 408908105 heartbeat IPC: 0.512941 cumulative IPC: 0.507557 (Simulation time: 0 hr 15 min 54 sec) 
Finished CPU 0 instructions: 200000003 cycles: 394044530 cumulative IPC: 0.507557 (Simulation time: 0 hr 15 min 54 sec) 

ChampSim completed all CPUs

Region of Interest Statistics

CPU 0 cumulative IPC: 0.507557 instructions: 200000003 cycles: 394044530
ITLB TOTAL     ACCESS:   33784802  HIT:   32250541  MISS:    1534261  HIT %:    95.4587  MISS %:    4.54128   MPKI: 7.6713
ITLB LOAD TRANSLATION ACCESS:   33784802  HIT:   32250541  MISS:    1534261  HIT %:    95.4587  MISS %:    4.54128   MPKI: 7.6713
ITLB PREFETCH  REQUESTED:          0  ISSUED:          0  USEFUL:          0  USELESS:          0
ITLB USEFUL LOAD PREFETCHES:          0 PREFETCH ISSUED TO LOWER LEVEL:          0  ACCURACY: -nan
ITLB TIMELY PREFETCHES:          0 LATE PREFETCHES: 0 DROPPED PREFETCHES: 0
ITLB PREFETCHES SAME FILL-ORIGIN LEVEL: 0 DIFFERENT FILL-ORIGIN LEVEL: 0
ITLB AVERAGE MISS LATENCY: 9.2432 cycles
ITLB RQ	ACCESS:   40652279	FORWARD:          0	MERGED:    6373693	TO_CACHE:   34278586

DTLB TOTAL     ACCESS:   40011929  HIT:   38513633  MISS:    1498296  HIT %:    96.2554  MISS %:    3.74462   MPKI: 7.49148
DTLB LOAD TRANSLATION ACCESS:   40011929  HIT:   38513633  MISS:    1498296  HIT %:    96.2554  MISS %:    3.74462   MPKI: 7.49148
DTLB PREFETCH  REQUESTED:          0  ISSUED:          0  USEFUL:          0  USELESS:          0
DTLB USEFUL LOAD PREFETCHES:          0 PREFETCH ISSUED TO LOWER LEVEL:          0  ACCURACY: -nan
DTLB TIMELY PREFETCHES:          0 LATE PREFETCHES: 0 DROPPED PREFETCHES: 0
DTLB PREFETCHES SAME FILL-ORIGIN LEVEL: 0 DIFFERENT FILL-ORIGIN LEVEL: 0
DTLB AVERAGE MISS LATENCY: 14.5707 cycles
DTLB RQ	ACCESS:   61055994	FORWARD:          0	MERGED:   20657470	TO_CACHE:   40398524

STLB TOTAL     ACCESS:   22919081  HIT:   22843392  MISS:      75689  HIT %:    99.6698  MISS %:   0.330244   MPKI: 0.378445
STLB LOAD TRANSLATION ACCESS:    3032557  HIT:    2958822  MISS:      73735  HIT %:    97.5686  MISS %:    2.43145   MPKI: 0.368675
STLB TRANSLATION FROM L1D PREFETCHER ACCESS:   19886524  HIT:   19884570  MISS:       1954  HIT %:    99.9902  MISS %: 0.00982575   MPKI: 0.00977
STLB PREFETCH  REQUESTED:          0  ISSUED:          0  USEFUL:       1660  USELESS:        297
STLB USEFUL LOAD PREFETCHES:       1660 PREFETCH ISSUED TO LOWER LEVEL:          0  ACCURACY: inf
STLB TIMELY PREFETCHES:       1660 LATE PREFETCHES: 529 DROPPED PREFETCHES: 313647
STLB PREFETCHES SAME FILL-ORIGIN LEVEL: 0 DIFFERENT FILL-ORIGIN LEVEL: 0
STLB AVERAGE MISS LATENCY: 433754 cycles
STLB RQ	ACCESS:   28956384	FORWARD:          0	MERGED:    5716770	TO_CACHE:   23239614

STLB Hit, L1D data hit: 0
STLB Hit, L2C data hit: 0
STLB Hit, LLC data hit: 0
STLB Hit, LLC data miss: 0
STLB STLB hints to L2: 0
L1D TOTAL     ACCESS:   73332154  HIT:   65028531  MISS:    8303623  HIT %:    88.6767  MISS %:    11.3233   MPKI: 41.5181
L1D LOAD      ACCESS:   26742117  HIT:   23792187  MISS:    2949930  HIT %:     88.969  MISS %:     11.031   MPKI: 14.7496
L1D RFO       ACCESS:   22528164  HIT:   18889403  MISS:    3638761  HIT %:    83.8479  MISS %:    16.1521   MPKI: 18.1938
L1D PREFETCH  ACCESS:   24061873  HIT:   22346941  MISS:    1714932  HIT %:    92.8728  MISS %:    7.12718   MPKI: 8.57466
AGUS PREFETCH L1 MISS: 0
L1D PREFETCH  REQUESTED:   53071608  ISSUED:   53053827  USEFUL:     440226  USELESS:    1274622
L1D USEFUL LOAD PREFETCHES:     440226 PREFETCH ISSUED TO LOWER LEVEL:    2043910  ACCURACY: 21.5384
L1D TIMELY PREFETCHES:     440226 LATE PREFETCHES: 317757 DROPPED PREFETCHES: 332204
L1D PREFETCHES SAME FILL-ORIGIN LEVEL: 2043910 DIFFERENT FILL-ORIGIN LEVEL: 0
L1D AVERAGE MISS LATENCY: 7.77112e+06 cycles
L1D RQ	ACCESS:   45231572	FORWARD:          0	MERGED:   17832671	TO_CACHE:   27147782
L1D WQ	ACCESS:   34105995	FORWARD:     279734	MERGED:     197783	TO_CACHE:   33908212
L1D PQ	ACCESS:   27130000	FORWARD:          0	MERGED:    1177558	TO_CACHE:   25923827

L1D UNIQUE REGIONS ACCESSED: 0
L1D REGIONS CONFLICTS: 0
L1D Cross Page Prefetch Requests: 888403
L1D Same Page Prefetch Requests: 32572725
L1D ROI Sum of L1D PQ occupancy: 361136023
L1D PREFETCHES PUSHED FROM L2C: 0
L1I TOTAL     ACCESS:   38005998  HIT:   28925770  MISS:    9080228  HIT %:    76.1084  MISS %:    23.8916   MPKI: 45.4011
L1I LOAD      ACCESS:   38005998  HIT:   28925770  MISS:    9080228  HIT %:    76.1084  MISS %:    23.8916   MPKI: 45.4011
L1I PREFETCH  REQUESTED:          0  ISSUED:          0  USEFUL:          0  USELESS:          0
L1I USEFUL LOAD PREFETCHES:          0 PREFETCH ISSUED TO LOWER LEVEL:          0  ACCURACY: -nan
L1I TIMELY PREFETCHES:          0 LATE PREFETCHES: 0 DROPPED PREFETCHES: 0
L1I PREFETCHES SAME FILL-ORIGIN LEVEL: 0 DIFFERENT FILL-ORIGIN LEVEL: 0
L1I AVERAGE MISS LATENCY: 16.6909 cycles
L1I RQ	ACCESS:   59025114	FORWARD:          0	MERGED:   18372835	TO_CACHE:   40652279

BTB TOTAL     ACCESS:   25736961  HIT:   24179944  MISS:    1557017  HIT %:    93.9503  MISS %:    6.04973   MPKI: 7.78508
BTB BRANCH_DIRECT_JUMP	ACCESS:    1656182  HIT:    1646075  MISS:      10107
BTB BRANCH_INDIRECT	ACCESS:    9984753  HIT:    9460939  MISS:     523814
BTB BRANCH_CONDITIONAL	ACCESS:    7260252  HIT:    7246132  MISS:      14120
BTB BRANCH_DIRECT_CALL	ACCESS:    2821015  HIT:    2786715  MISS:      34300
BTB BRANCH_INDIRECT_CALL	ACCESS:     596869  HIT:     485589  MISS:     111280
BTB BRANCH_RETURN	ACCESS:    3417890  HIT:    2554494  MISS:     863396
BTB BRANCH_OTHER ACCESS:          0  HIT:          0  MISS:          0

L2C TOTAL     ACCESS:   22272829  HIT:   15019158  MISS:    7253671  HIT %:    67.4326  MISS %:    32.5674   MPKI: 36.2684
L2C LOAD      ACCESS:   11711897  HIT:    9379349  MISS:    2332548  HIT %:    80.0839  MISS %:    19.9161   MPKI: 11.6627
L2C DATA LOAD MPKI: 8.70198
L2C INSTRUCTION LOAD MPKI: 2.96075
L2C RFO       ACCESS:    3627514  HIT:     136471  MISS:    3491043  HIT %:    3.76211  MISS %:    96.2379   MPKI: 17.4552
L2C PREFETCH  ACCESS:    2043888  HIT:     759656  MISS:    1284232  HIT %:    37.1672  MISS %:    62.8328   MPKI: 6.42116
AGUS PREFETCH L1 MISS: 0
L2C DATA PREFETCH MPKI: 6.42116
L2C INSTRUCTION PREFETCH MPKI: 0
L2C WRITEBACK ACCESS:    4396944  HIT:    4295326  MISS:     101618  HIT %:    97.6889  MISS %:    2.31111   MPKI: 0.50809
L2C LOAD TRANSLATION ACCESS:      78798  HIT:      45912  MISS:      32886  HIT %:    58.2654  MISS %:    41.7346   MPKI: 0.16443
L2C TRANSLATION FROM L1D PREFETCHER ACCESS:     413788  HIT:     402444  MISS:      11344  HIT %:    97.2585  MISS %:     2.7415   MPKI: 0.05672
L2C PREFETCH  REQUESTED:          0  ISSUED:          0  USEFUL:      66962  USELESS:    1227883
L2C USEFUL LOAD PREFETCHES:      66962 PREFETCH ISSUED TO LOWER LEVEL:    1284234  ACCURACY: 5.21416
L2C TIMELY PREFETCHES:      66962 LATE PREFETCHES: 0 DROPPED PREFETCHES: 0
L2C PREFETCHES SAME FILL-ORIGIN LEVEL: 0 DIFFERENT FILL-ORIGIN LEVEL: 0
L2C AVERAGE MISS LATENCY: 154.444 cycles
L2C RQ	ACCESS:   15832530	FORWARD:          0	MERGED:          0	TO_CACHE:   15831998
L2C WQ	ACCESS:    4396944	FORWARD:        552	MERGED:          0	TO_CACHE:    4396944
L2C PQ	ACCESS:    2043910	FORWARD:          0	MERGED:          0	TO_CACHE:    2043890

L2C Instructions Evicting Data 548757
L2C Translations Evicting Data 40453
L2C Data Evicting Data 5936998
L2C Instructions Evicting Instructions 40047
L2C Translations Evicting Instructions 3411
L2C Data Evicting Instructions 538690
L2C Instructions Evicting Translations 3347
L2C Translations Evicting Translations 366
L2C Data Evicting Translations 39984
L2C Dense regions hint from L2: 0
PSCL5 TOTAL     ACCESS:     389336  HIT:     389336  MISS:          0  HIT %:        100  MISS %:          0   MPKI: 0
PSCL5 LOAD TRANSLATION ACCESS:      73206  HIT:      73206  MISS:          0  HIT %:        100  MISS %:          0   MPKI: 0
PSCL5 TRANSLATION FROM L1D PREFETCHER ACCESS:     316130  HIT:     316130  MISS:          0  HIT %:        100  MISS %:          0   MPKI: 0
PSCL5 PREFETCH  REQUESTED:          0  ISSUED:          0  USEFUL:          0  USELESS:          0
PSCL5 USEFUL LOAD PREFETCHES:          0 PREFETCH ISSUED TO LOWER LEVEL:          0  ACCURACY: -nan
PSCL5 TIMELY PREFETCHES:          0 LATE PREFETCHES: 0 DROPPED PREFETCHES: 0
PSCL5 PREFETCHES SAME FILL-ORIGIN LEVEL: 0 DIFFERENT FILL-ORIGIN LEVEL: 0

PSCL4 TOTAL     ACCESS:     381237  HIT:     381062  MISS:        175  HIT %:    99.9541  MISS %:  0.0459032   MPKI: 0.000875
PSCL4 LOAD TRANSLATION ACCESS:      71543  HIT:      71368  MISS:        175  HIT %:    99.7554  MISS %:   0.244608   MPKI: 0.000875
PSCL4 TRANSLATION FROM L1D PREFETCHER ACCESS:     309694  HIT:     309694  MISS:          0  HIT %:        100  MISS %:          0   MPKI: 0
PSCL4 PREFETCH  REQUESTED:          0  ISSUED:          0  USEFUL:          0  USELESS:          0
PSCL4 USEFUL LOAD PREFETCHES:          0 PREFETCH ISSUED TO LOWER LEVEL:          0  ACCURACY: -nan
PSCL4 TIMELY PREFETCHES:          0 LATE PREFETCHES: 0 DROPPED PREFETCHES: 0
PSCL4 PREFETCHES SAME FILL-ORIGIN LEVEL: 0 DIFFERENT FILL-ORIGIN LEVEL: 0

PSCL3 TOTAL     ACCESS:     387281  HIT:     387106  MISS:        175  HIT %:    99.9548  MISS %:  0.0451868   MPKI: 0.000875
PSCL3 LOAD TRANSLATION ACCESS:      72253  HIT:      72078  MISS:        175  HIT %:    99.7578  MISS %:   0.242204   MPKI: 0.000875
PSCL3 TRANSLATION FROM L1D PREFETCHER ACCESS:     315028  HIT:     315028  MISS:          0  HIT %:        100  MISS %:          0   MPKI: 0
PSCL3 PREFETCH  REQUESTED:          0  ISSUED:          0  USEFUL:          0  USELESS:          0
PSCL3 USEFUL LOAD PREFETCHES:          0 PREFETCH ISSUED TO LOWER LEVEL:          0  ACCURACY: -nan
PSCL3 TIMELY PREFETCHES:          0 LATE PREFETCHES: 0 DROPPED PREFETCHES: 0
PSCL3 PREFETCHES SAME FILL-ORIGIN LEVEL: 0 DIFFERENT FILL-ORIGIN LEVEL: 0

PSCL2 TOTAL     ACCESS:     291698  HIT:     286323  MISS:       5375  HIT %:    98.1573  MISS %:    1.84266   MPKI: 0.026875
PSCL2 LOAD TRANSLATION ACCESS:      73300  HIT:      67925  MISS:       5375  HIT %:    92.6671  MISS %:    7.33288   MPKI: 0.026875
PSCL2 TRANSLATION FROM L1D PREFETCHER ACCESS:     218398  HIT:     218398  MISS:          0  HIT %:        100  MISS %:          0   MPKI: 0
PSCL2 PREFETCH  REQUESTED:          0  ISSUED:          0  USEFUL:          0  USELESS:          0
PSCL2 USEFUL LOAD PREFETCHES:          0 PREFETCH ISSUED TO LOWER LEVEL:          0  ACCURACY: -nan
PSCL2 TIMELY PREFETCHES:          0 LATE PREFETCHES: 0 DROPPED PREFETCHES: 0
PSCL2 PREFETCHES SAME FILL-ORIGIN LEVEL: 0 DIFFERENT FILL-ORIGIN LEVEL: 0

LLC TOTAL     ACCESS:   11208269  HIT:    4832683  MISS:    6375586  HIT %:    43.1171  MISS %:    56.8829   MPKI: 31.8779
LLC LOAD      ACCESS:    2332547  HIT:    1390245  MISS:     942302  HIT %:     59.602  MISS %:     40.398   MPKI: 4.71151
LLC RFO       ACCESS:    3491022  HIT:     921688  MISS:    2569334  HIT %:    26.4017  MISS %:    73.5983   MPKI: 12.8467
LLC PREFETCH  ACCESS:    1284230  HIT:     699879  MISS:     584351  HIT %:    54.4979  MISS %:    45.5021   MPKI: 2.92175
AGUS PREFETCH L1 MISS: 0
LLC WRITEBACK ACCESS:    4056240  HIT:    1804918  MISS:    2251322  HIT %:    44.4973  MISS %:    55.5027   MPKI: 11.2566
LLC LOAD TRANSLATION ACCESS:      32886  HIT:      11334  MISS:      21552  HIT %:    34.4645  MISS %:    65.5355   MPKI: 0.10776
LLC TRANSLATION FROM L1D PREFETCHER ACCESS:      11344  HIT:       4619  MISS:       6725  HIT %:    40.7176  MISS %:    59.2824   MPKI: 0.033625
LLC PREFETCH  REQUESTED:          0  ISSUED:          0  USEFUL:       4979  USELESS:     590427
LLC USEFUL LOAD PREFETCHES:       4979 PREFETCH ISSUED TO LOWER LEVEL:     584353  ACCURACY: 0.852053
LLC TIMELY PREFETCHES:       4979 LATE PREFETCHES: 0 DROPPED PREFETCHES: 0
LLC PREFETCHES SAME FILL-ORIGIN LEVEL: 0 DIFFERENT FILL-ORIGIN LEVEL: 0
LLC AVERAGE MISS LATENCY: 141.637 cycles
LLC RQ	ACCESS:    5867821	FORWARD:          0	MERGED:          0	TO_CACHE:    5867799
LLC WQ	ACCESS:    4056241	FORWARD:         24	MERGED:          0	TO_CACHE:    4056241
LLC PQ	ACCESS:    1284234	FORWARD:          0	MERGED:          0	TO_CACHE:    1284232

LLC Dense regions hint to LLC: 0

RAW hits: 2438925
Loads Generated: 47670499
Loads sent to L1D: 45231572
Stores Generated: 34105974
Stores sent to L1D: 34105995
Major fault: 0 Minor fault: 22424
Allocated PAGES: 22424
ucb ended

DRAM Statistics
 CHANNEL 0
 RQ ROW_BUFFER_HIT:    1832919  ROW_BUFFER_MISS:    2290942
 DBUS_CONGESTED:       2095
 WQ ROW_BUFFER_HIT:     590420  ROW_BUFFER_MISS:    2089357  FULL:      42937

 AVG_CONGESTED_CYCLE: 3
 All warmup complete: 2
Channel 0 Bank busy for read cycles: 0
Channel 0 Bank busy for write cycles: 0
Channel 0
Rank 0
0banks busy for read cycles: 159072145
0banks busy for write cycles: 230336
1banks busy for read cycles: 41762116
1banks busy for write cycles: 29666102
2banks busy for read cycles: 21153530
2banks busy for write cycles: 14529512
3banks busy for read cycles: 17381233
3banks busy for write cycles: 7914805
4banks busy for read cycles: 7516870
4banks busy for write cycles: 5111268
5banks busy for read cycles: 5853208
5banks busy for write cycles: 3932585
6banks busy for read cycles: 8260547
6banks busy for write cycles: 3755282
7banks busy for read cycles: 8903080
7banks busy for write cycles: 6294934
8banks busy for read cycles: 16882721
8banks busy for write cycles: 35824257

CPU 0 Branch Prediction Accuracy: 99.9423% MPKI: 0.088365 Average ROB Occupancy at Mispredict: 117.23
Branch types
NOT_BRANCH: 169393845 84.6969%
BRANCH_DIRECT_JUMP: 1656182 0.828091%
BRANCH_INDIRECT: 9984753 4.99238%
BRANCH_CONDITIONAL: 12129382 6.06469%
BRANCH_DIRECT_CALL: 2821015 1.41051%
BRANCH_INDIRECT_CALL: 596869 0.298434%
BRANCH_RETURN: 3417890 1.70894%
BRANCH_OTHER: 0 0%

DRAM PAGES: 1048576
Allocated PAGES: 22424
