
*** ChampSim Multicore Out-of-Order Simulator ***

Warmup Instructions: 50000000
Simulation Instructions: 200000000
Number of CPUs: 1
LLC sets: 2048
LLC ways: 16
Off-chip DRAM Size: 4096 MB Channels: 1 Width: 64-bit Data Rate: 6400 MT/s
CPU 0 runs traces/spec2k17/server_014.champsimtrace.xz
.xz
BTB has LRU replacement policy
ITLB has LRU replacement policy
DTLB has LRU replacement policy
STLB has LRU replacement policy
L1I has LRU replacement policy
L1D has LRU replacement policy
Initialize SRRIP state for L2C
Initialize DRRIP state for LLC
Offset table: -6 -5 -4 -3 -2 -1 1 2 3 4 5 6 
Offset table size: 12

Printing Sanity: 1

Round Robin Complete

Offset reward: 1265 290 516 491 1355 519 516 1563 1022 722 873 837 
Offset reward size: 12

Offset count: 1 1 1 1 1 1 1 1 1 1 1 1 
Offset count size: 12

Printing Sanity: 2
n total: 12
Writing in data1.txt 

Writing done! 

Heartbeat CPU 0 instructions: 10000001 cycles: 2713180 heartbeat IPC: 3.68571 cumulative IPC: 3.68571 (Simulation time: 0 hr 0 min 17 sec) 
Heartbeat CPU 0 instructions: 20000000 cycles: 5468097 heartbeat IPC: 3.62987 cumulative IPC: 3.65758 (Simulation time: 0 hr 0 min 34 sec) 
Heartbeat CPU 0 instructions: 30000001 cycles: 8196458 heartbeat IPC: 3.6652 cumulative IPC: 3.66012 (Simulation time: 0 hr 0 min 51 sec) 
Heartbeat CPU 0 instructions: 40000001 cycles: 10923869 heartbeat IPC: 3.66648 cumulative IPC: 3.66171 (Simulation time: 0 hr 1 min 9 sec) 
Heartbeat CPU 0 instructions: 50000002 cycles: 13650394 heartbeat IPC: 3.66767 cumulative IPC: 3.6629 (Simulation time: 0 hr 1 min 25 sec) 

Warmup complete CPU 0 instructions: 50000002 cycles: 13650394 (Simulation time: 0 hr 1 min 25 sec) 

Heartbeat CPU 0 instructions: 60000003 cycles: 29070861 heartbeat IPC: 0.648489 cumulative IPC: 0.648489 (Simulation time: 0 hr 1 min 56 sec) 
Heartbeat CPU 0 instructions: 70000002 cycles: 44417539 heartbeat IPC: 0.651607 cumulative IPC: 0.650044 (Simulation time: 0 hr 2 min 27 sec) 
*** Reached end of trace for Core: 0 Repeating trace: traces/spec2k17/server_014.champsimtrace.xz
Heartbeat CPU 0 instructions: 80000001 cycles: 60352606 heartbeat IPC: 0.627547 cumulative IPC: 0.642368 (Simulation time: 0 hr 2 min 59 sec) 
Heartbeat CPU 0 instructions: 90000003 cycles: 77631849 heartbeat IPC: 0.578729 cumulative IPC: 0.625181 (Simulation time: 0 hr 3 min 31 sec) 
Heartbeat CPU 0 instructions: 100000000 cycles: 93048343 heartbeat IPC: 0.648656 cumulative IPC: 0.629739 (Simulation time: 0 hr 4 min 2 sec) 
Heartbeat CPU 0 instructions: 110000000 cycles: 108642383 heartbeat IPC: 0.641271 cumulative IPC: 0.631632 (Simulation time: 0 hr 4 min 33 sec) 
Heartbeat CPU 0 instructions: 120000000 cycles: 124012560 heartbeat IPC: 0.650611 cumulative IPC: 0.634275 (Simulation time: 0 hr 5 min 3 sec) 
Heartbeat CPU 0 instructions: 130000002 cycles: 139384172 heartbeat IPC: 0.65055 cumulative IPC: 0.636265 (Simulation time: 0 hr 5 min 34 sec) 
Heartbeat CPU 0 instructions: 140000001 cycles: 154759165 heartbeat IPC: 0.650407 cumulative IPC: 0.637806 (Simulation time: 0 hr 6 min 6 sec) 
Heartbeat CPU 0 instructions: 150000000 cycles: 170114130 heartbeat IPC: 0.651255 cumulative IPC: 0.639126 (Simulation time: 0 hr 6 min 36 sec) 
*** Reached end of trace for Core: 0 Repeating trace: traces/spec2k17/server_014.champsimtrace.xz
Heartbeat CPU 0 instructions: 160000000 cycles: 186087374 heartbeat IPC: 0.626047 cumulative IPC: 0.637914 (Simulation time: 0 hr 7 min 8 sec) 
Heartbeat CPU 0 instructions: 170000002 cycles: 203172898 heartbeat IPC: 0.585291 cumulative IPC: 0.63317 (Simulation time: 0 hr 7 min 40 sec) 
Heartbeat CPU 0 instructions: 180000000 cycles: 218574598 heartbeat IPC: 0.649279 cumulative IPC: 0.634381 (Simulation time: 0 hr 8 min 11 sec) 
Heartbeat CPU 0 instructions: 190000001 cycles: 234154265 heartbeat IPC: 0.641862 cumulative IPC: 0.63491 (Simulation time: 0 hr 8 min 41 sec) 
Heartbeat CPU 0 instructions: 200000000 cycles: 249517296 heartbeat IPC: 0.650913 cumulative IPC: 0.635952 (Simulation time: 0 hr 9 min 12 sec) 
Heartbeat CPU 0 instructions: 210000000 cycles: 264886971 heartbeat IPC: 0.650632 cumulative IPC: 0.63685 (Simulation time: 0 hr 9 min 43 sec) 
Heartbeat CPU 0 instructions: 220000000 cycles: 280259825 heartbeat IPC: 0.650497 cumulative IPC: 0.637637 (Simulation time: 0 hr 10 min 14 sec) 
Heartbeat CPU 0 instructions: 230000003 cycles: 295611240 heartbeat IPC: 0.651406 cumulative IPC: 0.638386 (Simulation time: 0 hr 10 min 45 sec) 
*** Reached end of trace for Core: 0 Repeating trace: traces/spec2k17/server_014.champsimtrace.xz
Heartbeat CPU 0 instructions: 240000000 cycles: 311621713 heartbeat IPC: 0.624591 cumulative IPC: 0.637645 (Simulation time: 0 hr 11 min 16 sec) 
Heartbeat CPU 0 instructions: 250000001 cycles: 328526070 heartbeat IPC: 0.591564 cumulative IPC: 0.635171 (Simulation time: 0 hr 11 min 48 sec) 
Finished CPU 0 instructions: 200000002 cycles: 314875677 cumulative IPC: 0.635171 (Simulation time: 0 hr 11 min 48 sec) 

ChampSim completed all CPUs

Region of Interest Statistics

CPU 0 cumulative IPC: 0.635171 instructions: 200000002 cycles: 314875677
ITLB TOTAL     ACCESS:   33930531  HIT:   32340232  MISS:    1590299  HIT %:    95.3131  MISS %:    4.68693   MPKI: 7.95149
ITLB LOAD TRANSLATION ACCESS:   33930531  HIT:   32340232  MISS:    1590299  HIT %:    95.3131  MISS %:    4.68693   MPKI: 7.95149
ITLB PREFETCH  REQUESTED:          0  ISSUED:          0  USEFUL:          0  USELESS:          0
ITLB USEFUL LOAD PREFETCHES:          0 PREFETCH ISSUED TO LOWER LEVEL:          0  ACCURACY: -nan
ITLB TIMELY PREFETCHES:          0 LATE PREFETCHES: 0 DROPPED PREFETCHES: 0
ITLB PREFETCHES SAME FILL-ORIGIN LEVEL: 0 DIFFERENT FILL-ORIGIN LEVEL: 0
ITLB AVERAGE MISS LATENCY: 9.04805 cycles
ITLB RQ	ACCESS:   39383835	FORWARD:          0	MERGED:    4933085	TO_CACHE:   34450750

DTLB TOTAL     ACCESS:   39455839  HIT:   38777876  MISS:     677963  HIT %:    98.2817  MISS %:    1.71828   MPKI: 3.38981
DTLB LOAD TRANSLATION ACCESS:   39455839  HIT:   38777876  MISS:     677963  HIT %:    98.2817  MISS %:    1.71828   MPKI: 3.38981
DTLB PREFETCH  REQUESTED:          0  ISSUED:          0  USEFUL:          0  USELESS:          0
DTLB USEFUL LOAD PREFETCHES:          0 PREFETCH ISSUED TO LOWER LEVEL:          0  ACCURACY: -nan
DTLB TIMELY PREFETCHES:          0 LATE PREFETCHES: 0 DROPPED PREFETCHES: 0
DTLB PREFETCHES SAME FILL-ORIGIN LEVEL: 0 DIFFERENT FILL-ORIGIN LEVEL: 0
DTLB AVERAGE MISS LATENCY: 9.41215 cycles
DTLB RQ	ACCESS:   59048485	FORWARD:          0	MERGED:   19551872	TO_CACHE:   39496613

STLB TOTAL     ACCESS:   22117812  HIT:   22114247  MISS:       3565  HIT %:    99.9839  MISS %:  0.0161182   MPKI: 0.017825
STLB LOAD TRANSLATION ACCESS:    2268262  HIT:    2264842  MISS:       3420  HIT %:    99.8492  MISS %:   0.150776   MPKI: 0.0171
STLB TRANSLATION FROM L1D PREFETCHER ACCESS:   19849550  HIT:   19849405  MISS:        145  HIT %:    99.9993  MISS %: 0.000730495   MPKI: 0.000725
STLB PREFETCH  REQUESTED:          0  ISSUED:          0  USEFUL:        146  USELESS:          0
STLB USEFUL LOAD PREFETCHES:        146 PREFETCH ISSUED TO LOWER LEVEL:          0  ACCURACY: inf
STLB TIMELY PREFETCHES:        146 LATE PREFETCHES: 31 DROPPED PREFETCHES: 166526
STLB PREFETCHES SAME FILL-ORIGIN LEVEL: 0 DIFFERENT FILL-ORIGIN LEVEL: 0
STLB AVERAGE MISS LATENCY: 1.13817e+06 cycles
STLB RQ	ACCESS:   27978711	FORWARD:          0	MERGED:    5693525	TO_CACHE:   22285186

STLB Hit, L1D data hit: 0
STLB Hit, L2C data hit: 0
STLB Hit, LLC data hit: 0
STLB Hit, LLC data miss: 0
STLB STLB hints to L2: 0
L1D TOTAL     ACCESS:   84362880  HIT:   84050294  MISS:     312586  HIT %:    99.6295  MISS %:   0.370526   MPKI: 1.56293
L1D LOAD      ACCESS:   26941178  HIT:   26816064  MISS:     125114  HIT %:    99.5356  MISS %:   0.464397   MPKI: 0.62557
L1D RFO       ACCESS:   31942220  HIT:   31845992  MISS:      96228  HIT %:    99.6987  MISS %:   0.301256   MPKI: 0.48114
L1D PREFETCH  ACCESS:   25479482  HIT:   25388238  MISS:      91244  HIT %:    99.6419  MISS %:   0.358108   MPKI: 0.45622
AGUS PREFETCH L1 MISS: 0
L1D PREFETCH  REQUESTED:   52657798  ISSUED:   52657568  USEFUL:      13726  USELESS:      77600
L1D USEFUL LOAD PREFETCHES:      13726 PREFETCH ISSUED TO LOWER LEVEL:     100646  ACCURACY: 13.6379
L1D TIMELY PREFETCHES:      13726 LATE PREFETCHES: 9350 DROPPED PREFETCHES: 179360
L1D PREFETCHES SAME FILL-ORIGIN LEVEL: 100646 DIFFERENT FILL-ORIGIN LEVEL: 0
L1D AVERAGE MISS LATENCY: 6.62294e+06 cycles
L1D RQ	ACCESS:   44726227	FORWARD:          0	MERGED:   17394001	TO_CACHE:   26947350
L1D WQ	ACCESS:   32528947	FORWARD:     414588	MERGED:     427812	TO_CACHE:   32101135
L1D PQ	ACCESS:   26947119	FORWARD:          0	MERGED:    1206958	TO_CACHE:   25710449

L1D UNIQUE REGIONS ACCESSED: 0
L1D REGIONS CONFLICTS: 0
L1D Cross Page Prefetch Requests: 1409391
L1D Same Page Prefetch Requests: 32453136
L1D ROI Sum of L1D PQ occupancy: 332571884
L1D PREFETCHES PUSHED FROM L2C: 0
L1I TOTAL     ACCESS:   38021246  HIT:   32318931  MISS:    5702315  HIT %:    85.0023  MISS %:    14.9977   MPKI: 28.5116
L1I LOAD      ACCESS:   38021246  HIT:   32318931  MISS:    5702315  HIT %:    85.0023  MISS %:    14.9977   MPKI: 28.5116
L1I PREFETCH  REQUESTED:          0  ISSUED:          0  USEFUL:          0  USELESS:          0
L1I USEFUL LOAD PREFETCHES:          0 PREFETCH ISSUED TO LOWER LEVEL:          0  ACCURACY: -nan
L1I TIMELY PREFETCHES:          0 LATE PREFETCHES: 0 DROPPED PREFETCHES: 0
L1I PREFETCHES SAME FILL-ORIGIN LEVEL: 0 DIFFERENT FILL-ORIGIN LEVEL: 0
L1I AVERAGE MISS LATENCY: 14.6236 cycles
L1I RQ	ACCESS:   60222469	FORWARD:          0	MERGED:   20838634	TO_CACHE:   39383835

BTB TOTAL     ACCESS:   28030751  HIT:   25492705  MISS:    2538046  HIT %:    90.9455  MISS %:    9.05451   MPKI: 12.6902
BTB BRANCH_DIRECT_JUMP	ACCESS:    1660185  HIT:    1656204  MISS:       3981
BTB BRANCH_INDIRECT	ACCESS:   12451124  HIT:   11582007  MISS:     869117
BTB BRANCH_CONDITIONAL	ACCESS:    4291215  HIT:    4285628  MISS:       5587
BTB BRANCH_DIRECT_CALL	ACCESS:    4358215  HIT:    4347520  MISS:      10695
BTB BRANCH_INDIRECT_CALL	ACCESS:     455923  HIT:     405462  MISS:      50461
BTB BRANCH_RETURN	ACCESS:    4814089  HIT:    3215884  MISS:    1598205
BTB BRANCH_OTHER ACCESS:          0  HIT:          0  MISS:          0

L2C TOTAL     ACCESS:    6348374  HIT:    6132157  MISS:     216217  HIT %:    96.5941  MISS %:    3.40586   MPKI: 1.08108
L2C LOAD      ACCESS:    5818079  HIT:    5733881  MISS:      84198  HIT %:    98.5528  MISS %:    1.44718   MPKI: 0.42099
L2C DATA LOAD MPKI: 0.25047
L2C INSTRUCTION LOAD MPKI: 0.17052
L2C RFO       ACCESS:      96176  HIT:       3767  MISS:      92409  HIT %:    3.91678  MISS %:    96.0832   MPKI: 0.462045
L2C PREFETCH  ACCESS:     100646  HIT:      65421  MISS:      35225  HIT %:    65.0011  MISS %:    34.9989   MPKI: 0.176125
AGUS PREFETCH L1 MISS: 0
L2C DATA PREFETCH MPKI: 0.176125
L2C INSTRUCTION PREFETCH MPKI: 0
L2C WRITEBACK ACCESS:     122733  HIT:     120439  MISS:       2294  HIT %:    98.1309  MISS %:     1.8691   MPKI: 0.01147
L2C LOAD TRANSLATION ACCESS:       3840  HIT:       2006  MISS:       1834  HIT %:    52.2396  MISS %:    47.7604   MPKI: 0.00917
L2C TRANSLATION FROM L1D PREFETCHER ACCESS:     206900  HIT:     206643  MISS:        257  HIT %:    99.8758  MISS %:   0.124215   MPKI: 0.001285
L2C PREFETCH  REQUESTED:          0  ISSUED:          0  USEFUL:       1661  USELESS:      34539
L2C USEFUL LOAD PREFETCHES:       1661 PREFETCH ISSUED TO LOWER LEVEL:      35225  ACCURACY: 4.7154
L2C TIMELY PREFETCHES:       1661 LATE PREFETCHES: 0 DROPPED PREFETCHES: 0
L2C PREFETCHES SAME FILL-ORIGIN LEVEL: 0 DIFFERENT FILL-ORIGIN LEVEL: 0
L2C AVERAGE MISS LATENCY: 199.838 cycles
L2C RQ	ACCESS:    6124995	FORWARD:          0	MERGED:          0	TO_CACHE:    6124995
L2C WQ	ACCESS:     122733	FORWARD:          0	MERGED:          0	TO_CACHE:     122733
L2C PQ	ACCESS:     100646	FORWARD:          0	MERGED:          0	TO_CACHE:     100646

L2C Instructions Evicting Data 28818
L2C Translations Evicting Data 1757
L2C Data Evicting Data 147634
L2C Instructions Evicting Instructions 4896
L2C Translations Evicting Instructions 306
L2C Data Evicting Instructions 28313
L2C Instructions Evicting Translations 390
L2C Translations Evicting Translations 28
L2C Data Evicting Translations 1781
L2C Dense regions hint from L2: 0
PSCL5 TOTAL     ACCESS:     170011  HIT:     170011  MISS:          0  HIT %:        100  MISS %:          0   MPKI: 0
PSCL5 LOAD TRANSLATION ACCESS:       3389  HIT:       3389  MISS:          0  HIT %:        100  MISS %:          0   MPKI: 0
PSCL5 TRANSLATION FROM L1D PREFETCHER ACCESS:     166622  HIT:     166622  MISS:          0  HIT %:        100  MISS %:          0   MPKI: 0
PSCL5 PREFETCH  REQUESTED:          0  ISSUED:          0  USEFUL:          0  USELESS:          0
PSCL5 USEFUL LOAD PREFETCHES:          0 PREFETCH ISSUED TO LOWER LEVEL:          0  ACCURACY: -nan
PSCL5 TIMELY PREFETCHES:          0 LATE PREFETCHES: 0 DROPPED PREFETCHES: 0
PSCL5 PREFETCHES SAME FILL-ORIGIN LEVEL: 0 DIFFERENT FILL-ORIGIN LEVEL: 0

PSCL4 TOTAL     ACCESS:     167340  HIT:     167325  MISS:         15  HIT %:     99.991  MISS %: 0.00896379   MPKI: 7.5e-05
PSCL4 LOAD TRANSLATION ACCESS:       1984  HIT:       1969  MISS:         15  HIT %:     99.244  MISS %:   0.756048   MPKI: 7.5e-05
PSCL4 TRANSLATION FROM L1D PREFETCHER ACCESS:     165356  HIT:     165356  MISS:          0  HIT %:        100  MISS %:          0   MPKI: 0
PSCL4 PREFETCH  REQUESTED:          0  ISSUED:          0  USEFUL:          0  USELESS:          0
PSCL4 USEFUL LOAD PREFETCHES:          0 PREFETCH ISSUED TO LOWER LEVEL:          0  ACCURACY: -nan
PSCL4 TIMELY PREFETCHES:          0 LATE PREFETCHES: 0 DROPPED PREFETCHES: 0
PSCL4 PREFETCHES SAME FILL-ORIGIN LEVEL: 0 DIFFERENT FILL-ORIGIN LEVEL: 0

PSCL3 TOTAL     ACCESS:     168980  HIT:     168965  MISS:         15  HIT %:    99.9911  MISS %: 0.00887679   MPKI: 7.5e-05
PSCL3 LOAD TRANSLATION ACCESS:       3079  HIT:       3064  MISS:         15  HIT %:    99.5128  MISS %:   0.487171   MPKI: 7.5e-05
PSCL3 TRANSLATION FROM L1D PREFETCHER ACCESS:     165901  HIT:     165901  MISS:          0  HIT %:        100  MISS %:          0   MPKI: 0
PSCL3 PREFETCH  REQUESTED:          0  ISSUED:          0  USEFUL:          0  USELESS:          0
PSCL3 USEFUL LOAD PREFETCHES:          0 PREFETCH ISSUED TO LOWER LEVEL:          0  ACCURACY: -nan
PSCL3 TIMELY PREFETCHES:          0 LATE PREFETCHES: 0 DROPPED PREFETCHES: 0
PSCL3 PREFETCHES SAME FILL-ORIGIN LEVEL: 0 DIFFERENT FILL-ORIGIN LEVEL: 0

PSCL2 TOTAL     ACCESS:     130105  HIT:     129676  MISS:        429  HIT %:    99.6703  MISS %:   0.329734   MPKI: 0.002145
PSCL2 LOAD TRANSLATION ACCESS:       3397  HIT:       2968  MISS:        429  HIT %:    87.3712  MISS %:    12.6288   MPKI: 0.002145
PSCL2 TRANSLATION FROM L1D PREFETCHER ACCESS:     126708  HIT:     126708  MISS:          0  HIT %:        100  MISS %:          0   MPKI: 0
PSCL2 PREFETCH  REQUESTED:          0  ISSUED:          0  USEFUL:          0  USELESS:          0
PSCL2 USEFUL LOAD PREFETCHES:          0 PREFETCH ISSUED TO LOWER LEVEL:          0  ACCURACY: -nan
PSCL2 TIMELY PREFETCHES:          0 LATE PREFETCHES: 0 DROPPED PREFETCHES: 0
PSCL2 PREFETCHES SAME FILL-ORIGIN LEVEL: 0 DIFFERENT FILL-ORIGIN LEVEL: 0

LLC TOTAL     ACCESS:     315757  HIT:     167501  MISS:     148256  HIT %:    53.0474  MISS %:    46.9526   MPKI: 0.74128
LLC LOAD      ACCESS:      84198  HIT:      33365  MISS:      50833  HIT %:    39.6268  MISS %:    60.3732   MPKI: 0.254165
LLC RFO       ACCESS:      92409  HIT:      25750  MISS:      66659  HIT %:    27.8653  MISS %:    72.1347   MPKI: 0.333295
LLC PREFETCH  ACCESS:      35225  HIT:      11657  MISS:      23568  HIT %:     33.093  MISS %:     66.907   MPKI: 0.11784
AGUS PREFETCH L1 MISS: 0
LLC WRITEBACK ACCESS:     101834  HIT:      95937  MISS:       5897  HIT %:    94.2092  MISS %:     5.7908   MPKI: 0.029485
LLC LOAD TRANSLATION ACCESS:       1834  HIT:        683  MISS:       1151  HIT %:     37.241  MISS %:     62.759   MPKI: 0.005755
LLC TRANSLATION FROM L1D PREFETCHER ACCESS:        257  HIT:        109  MISS:        148  HIT %:    42.4125  MISS %:    57.5875   MPKI: 0.00074
LLC PREFETCH  REQUESTED:          0  ISSUED:          0  USEFUL:       1644  USELESS:      25136
LLC USEFUL LOAD PREFETCHES:       1644 PREFETCH ISSUED TO LOWER LEVEL:      23568  ACCURACY: 6.97556
LLC TIMELY PREFETCHES:       1644 LATE PREFETCHES: 0 DROPPED PREFETCHES: 0
LLC PREFETCHES SAME FILL-ORIGIN LEVEL: 0 DIFFERENT FILL-ORIGIN LEVEL: 0
LLC AVERAGE MISS LATENCY: 248.133 cycles
LLC RQ	ACCESS:     178698	FORWARD:          0	MERGED:          0	TO_CACHE:     178698
LLC WQ	ACCESS:     101834	FORWARD:          0	MERGED:          0	TO_CACHE:     101834
LLC PQ	ACCESS:      35225	FORWARD:          0	MERGED:          0	TO_CACHE:      35225

LLC Dense regions hint to LLC: 0

RAW hits: 3289168
Loads Generated: 48015396
Loads sent to L1D: 44726227
Stores Generated: 32528949
Stores sent to L1D: 32528947
Major fault: 0 Minor fault: 2022
Allocated PAGES: 2022
ucb ended

DRAM Statistics
 CHANNEL 0
 RQ ROW_BUFFER_HIT:      62693  ROW_BUFFER_MISS:      79663
 DBUS_CONGESTED:         43
 WQ ROW_BUFFER_HIT:      17732  ROW_BUFFER_MISS:      54997  FULL:          0

 AVG_CONGESTED_CYCLE: 5
 All warmup complete: 2
Channel 0 Bank busy for read cycles: 0
Channel 0 Bank busy for write cycles: 0
Channel 0
Rank 0
0banks busy for read cycles: 305666808
0banks busy for write cycles: 6987
1banks busy for read cycles: 2703539
1banks busy for write cycles: 1057875
2banks busy for read cycles: 1179339
2banks busy for write cycles: 641279
3banks busy for read cycles: 316132
3banks busy for write cycles: 373968
4banks busy for read cycles: 170822
4banks busy for write cycles: 227431
5banks busy for read cycles: 142896
5banks busy for write cycles: 133948
6banks busy for read cycles: 180011
6banks busy for write cycles: 101489
7banks busy for read cycles: 264035
7banks busy for write cycles: 182920
8banks busy for read cycles: 645498
8banks busy for write cycles: 880701

CPU 0 Branch Prediction Accuracy: 99.8714% MPKI: 0.20299 Average ROB Occupancy at Mispredict: 16.0636
Branch types
NOT_BRANCH: 168420573 84.2103%
BRANCH_DIRECT_JUMP: 1660185 0.830092%
BRANCH_INDIRECT: 12451124 6.22556%
BRANCH_CONDITIONAL: 7839905 3.91995%
BRANCH_DIRECT_CALL: 4358215 2.17911%
BRANCH_INDIRECT_CALL: 455923 0.227961%
BRANCH_RETURN: 4814089 2.40704%
BRANCH_OTHER: 0 0%

DRAM PAGES: 1048576
Allocated PAGES: 2022
