
*** ChampSim Multicore Out-of-Order Simulator ***

Warmup Instructions: 50000000
Simulation Instructions: 200000000
Number of CPUs: 1
LLC sets: 2048
LLC ways: 16
Off-chip DRAM Size: 4096 MB Channels: 1 Width: 64-bit Data Rate: 6400 MT/s
CPU 0 runs traces/spec2k17/server_019.champsimtrace.xz
.xz
BTB has LRU replacement policy
ITLB has LRU replacement policy
DTLB has LRU replacement policy
STLB has LRU replacement policy
L1I has LRU replacement policy
L1D has LRU replacement policy
Initialize SRRIP state for L2C
Initialize DRRIP state for LLC
Offset table: -6 -5 -4 -3 -2 -1 1 2 3 4 5 6 
Offset table size: 12

Printing Sanity: 1

Round Robin Complete

Offset reward: 882 917 1168 818 963 286 491 633 440 520 260 133 
Offset reward size: 12

Offset count: 1 1 1 1 1 1 1 1 1 1 1 1 
Offset count size: 12

Printing Sanity: 2
n total: 12
Writing in data1.txt 

Writing done! 

Heartbeat CPU 0 instructions: 10000001 cycles: 2976690 heartbeat IPC: 3.35944 cumulative IPC: 3.35944 (Simulation time: 0 hr 0 min 24 sec) 
Heartbeat CPU 0 instructions: 20000002 cycles: 5948859 heartbeat IPC: 3.36455 cumulative IPC: 3.36199 (Simulation time: 0 hr 0 min 48 sec) 
Heartbeat CPU 0 instructions: 30000000 cycles: 8918137 heartbeat IPC: 3.36782 cumulative IPC: 3.36393 (Simulation time: 0 hr 1 min 12 sec) 
Heartbeat CPU 0 instructions: 40000003 cycles: 11892646 heartbeat IPC: 3.3619 cumulative IPC: 3.36342 (Simulation time: 0 hr 1 min 35 sec) 
Heartbeat CPU 0 instructions: 50000000 cycles: 14859486 heartbeat IPC: 3.37059 cumulative IPC: 3.36485 (Simulation time: 0 hr 1 min 59 sec) 

Warmup complete CPU 0 instructions: 50000004 cycles: 14859487 (Simulation time: 0 hr 1 min 59 sec) 

Heartbeat CPU 0 instructions: 60000000 cycles: 38283118 heartbeat IPC: 0.426919 cumulative IPC: 0.426919 (Simulation time: 0 hr 2 min 48 sec) 
Heartbeat CPU 0 instructions: 70000000 cycles: 60007360 heartbeat IPC: 0.460315 cumulative IPC: 0.442989 (Simulation time: 0 hr 3 min 30 sec) 
Heartbeat CPU 0 instructions: 80000000 cycles: 92141545 heartbeat IPC: 0.311195 cumulative IPC: 0.388188 (Simulation time: 0 hr 4 min 16 sec) 
Heartbeat CPU 0 instructions: 90000000 cycles: 114305631 heartbeat IPC: 0.45118 cumulative IPC: 0.402228 (Simulation time: 0 hr 5 min 0 sec) 
Heartbeat CPU 0 instructions: 100000000 cycles: 136250211 heartbeat IPC: 0.455693 cumulative IPC: 0.411893 (Simulation time: 0 hr 5 min 43 sec) 
*** Reached end of trace for Core: 0 Repeating trace: traces/spec2k17/server_019.champsimtrace.xz
Heartbeat CPU 0 instructions: 110000000 cycles: 157347942 heartbeat IPC: 0.473985 cumulative IPC: 0.421087 (Simulation time: 0 hr 6 min 26 sec) 
Heartbeat CPU 0 instructions: 120000003 cycles: 177916497 heartbeat IPC: 0.486179 cumulative IPC: 0.429298 (Simulation time: 0 hr 7 min 9 sec) 
Heartbeat CPU 0 instructions: 130000000 cycles: 199012684 heartbeat IPC: 0.474019 cumulative IPC: 0.434421 (Simulation time: 0 hr 7 min 54 sec) 
Heartbeat CPU 0 instructions: 140000000 cycles: 219340485 heartbeat IPC: 0.491937 cumulative IPC: 0.440139 (Simulation time: 0 hr 8 min 37 sec) 
Heartbeat CPU 0 instructions: 150000003 cycles: 240063357 heartbeat IPC: 0.482559 cumulative IPC: 0.444042 (Simulation time: 0 hr 9 min 21 sec) 
Heartbeat CPU 0 instructions: 160000000 cycles: 260435938 heartbeat IPC: 0.490856 cumulative IPC: 0.447926 (Simulation time: 0 hr 10 min 4 sec) 
Heartbeat CPU 0 instructions: 170000000 cycles: 283404460 heartbeat IPC: 0.435378 cumulative IPC: 0.446853 (Simulation time: 0 hr 10 min 53 sec) 
Heartbeat CPU 0 instructions: 180000000 cycles: 306847688 heartbeat IPC: 0.426562 cumulative IPC: 0.445223 (Simulation time: 0 hr 11 min 36 sec) 
Heartbeat CPU 0 instructions: 190000001 cycles: 336803498 heartbeat IPC: 0.333825 cumulative IPC: 0.434858 (Simulation time: 0 hr 12 min 21 sec) 
Heartbeat CPU 0 instructions: 200000002 cycles: 358933447 heartbeat IPC: 0.451876 cumulative IPC: 0.435953 (Simulation time: 0 hr 13 min 5 sec) 
Heartbeat CPU 0 instructions: 210000000 cycles: 380810294 heartbeat IPC: 0.457104 cumulative IPC: 0.437217 (Simulation time: 0 hr 13 min 49 sec) 
*** Reached end of trace for Core: 0 Repeating trace: traces/spec2k17/server_019.champsimtrace.xz
Heartbeat CPU 0 instructions: 220000000 cycles: 401632979 heartbeat IPC: 0.480245 cumulative IPC: 0.439534 (Simulation time: 0 hr 14 min 33 sec) 
Heartbeat CPU 0 instructions: 230000000 cycles: 422514366 heartbeat IPC: 0.478895 cumulative IPC: 0.44155 (Simulation time: 0 hr 15 min 17 sec) 
Heartbeat CPU 0 instructions: 240000003 cycles: 443061612 heartbeat IPC: 0.486683 cumulative IPC: 0.443716 (Simulation time: 0 hr 16 min 0 sec) 
Heartbeat CPU 0 instructions: 250000000 cycles: 463975235 heartbeat IPC: 0.478157 cumulative IPC: 0.44532 (Simulation time: 0 hr 16 min 44 sec) 
Finished CPU 0 instructions: 200000000 cycles: 449115750 cumulative IPC: 0.44532 (Simulation time: 0 hr 16 min 44 sec) 

ChampSim completed all CPUs

Region of Interest Statistics

CPU 0 cumulative IPC: 0.44532 instructions: 200000000 cycles: 449115750
ITLB TOTAL     ACCESS:   33608764  HIT:   32179200  MISS:    1429564  HIT %:    95.7465  MISS %:    4.25355   MPKI: 7.14782
ITLB LOAD TRANSLATION ACCESS:   33608764  HIT:   32179200  MISS:    1429564  HIT %:    95.7465  MISS %:    4.25355   MPKI: 7.14782
ITLB PREFETCH  REQUESTED:          0  ISSUED:          0  USEFUL:          0  USELESS:          0
ITLB USEFUL LOAD PREFETCHES:          0 PREFETCH ISSUED TO LOWER LEVEL:          0  ACCURACY: -nan
ITLB TIMELY PREFETCHES:          0 LATE PREFETCHES: 0 DROPPED PREFETCHES: 0
ITLB PREFETCHES SAME FILL-ORIGIN LEVEL: 0 DIFFERENT FILL-ORIGIN LEVEL: 0
ITLB AVERAGE MISS LATENCY: 9.43431 cycles
ITLB RQ	ACCESS:   40240491	FORWARD:          0	MERGED:    6171330	TO_CACHE:   34069161

DTLB TOTAL     ACCESS:   38903734  HIT:   37306476  MISS:    1597258  HIT %:    95.8943  MISS %:    4.10567   MPKI: 7.98629
DTLB LOAD TRANSLATION ACCESS:   38903734  HIT:   37306476  MISS:    1597258  HIT %:    95.8943  MISS %:    4.10567   MPKI: 7.98629
DTLB PREFETCH  REQUESTED:          0  ISSUED:          0  USEFUL:          0  USELESS:          0
DTLB USEFUL LOAD PREFETCHES:          0 PREFETCH ISSUED TO LOWER LEVEL:          0  ACCURACY: -nan
DTLB TIMELY PREFETCHES:          0 LATE PREFETCHES: 0 DROPPED PREFETCHES: 0
DTLB PREFETCHES SAME FILL-ORIGIN LEVEL: 0 DIFFERENT FILL-ORIGIN LEVEL: 0
DTLB AVERAGE MISS LATENCY: 19.6072 cycles
DTLB RQ	ACCESS:   58876712	FORWARD:          0	MERGED:   19586899	TO_CACHE:   39289813

STLB TOTAL     ACCESS:   22476570  HIT:   22304773  MISS:     171797  HIT %:    99.2357  MISS %:   0.764338   MPKI: 0.858985
STLB LOAD TRANSLATION ACCESS:    3026822  HIT:    2860223  MISS:     166599  HIT %:    94.4959  MISS %:    5.50409   MPKI: 0.832995
STLB TRANSLATION FROM L1D PREFETCHER ACCESS:   19449748  HIT:   19444550  MISS:       5198  HIT %:    99.9733  MISS %:  0.0267253   MPKI: 0.02599
STLB PREFETCH  REQUESTED:          0  ISSUED:          0  USEFUL:       4532  USELESS:        663
STLB USEFUL LOAD PREFETCHES:       4532 PREFETCH ISSUED TO LOWER LEVEL:          0  ACCURACY: inf
STLB TIMELY PREFETCHES:       4532 LATE PREFETCHES: 685 DROPPED PREFETCHES: 315862
STLB PREFETCHES SAME FILL-ORIGIN LEVEL: 0 DIFFERENT FILL-ORIGIN LEVEL: 0
STLB AVERAGE MISS LATENCY: 355996 cycles
STLB RQ	ACCESS:   28283900	FORWARD:          0	MERGED:    5459399	TO_CACHE:   22824501

STLB Hit, L1D data hit: 0
STLB Hit, L2C data hit: 0
STLB Hit, LLC data hit: 0
STLB Hit, LLC data miss: 0
STLB STLB hints to L2: 0
L1D TOTAL     ACCESS:   71267106  HIT:   62675952  MISS:    8591154  HIT %:    87.9451  MISS %:    12.0549   MPKI: 42.9558
L1D LOAD      ACCESS:   26076015  HIT:   23035374  MISS:    3040641  HIT %:    88.3393  MISS %:    11.6607   MPKI: 15.2032
L1D RFO       ACCESS:   21671525  HIT:   18155631  MISS:    3515894  HIT %:    83.7764  MISS %:    16.2236   MPKI: 17.5795
L1D PREFETCH  ACCESS:   23519566  HIT:   21484947  MISS:    2034619  HIT %:    91.3492  MISS %:    8.65075   MPKI: 10.1731
AGUS PREFETCH L1 MISS: 0
L1D PREFETCH  REQUESTED:   51714611  ISSUED:   51695137  USEFUL:     496064  USELESS:    1538531
L1D USEFUL LOAD PREFETCHES:     496064 PREFETCH ISSUED TO LOWER LEVEL:    2360979  ACCURACY: 21.0109
L1D TIMELY PREFETCHES:     496064 LATE PREFETCHES: 319985 DROPPED PREFETCHES: 399948
L1D PREFETCHES SAME FILL-ORIGIN LEVEL: 2360979 DIFFERENT FILL-ORIGIN LEVEL: 0
L1D AVERAGE MISS LATENCY: 8.59474e+06 cycles
L1D RQ	ACCESS:   44325039	FORWARD:          0	MERGED:   17610721	TO_CACHE:   26457534
L1D WQ	ACCESS:   32636784	FORWARD:     275965	MERGED:     217606	TO_CACHE:   32419178
L1D PQ	ACCESS:   26438060	FORWARD:          0	MERGED:    1161802	TO_CACHE:   25257077

L1D UNIQUE REGIONS ACCESSED: 0
L1D REGIONS CONFLICTS: 0
L1D Cross Page Prefetch Requests: 1002771
L1D Same Page Prefetch Requests: 31763176
L1D ROI Sum of L1D PQ occupancy: 357400509
L1D PREFETCHES PUSHED FROM L2C: 0
L1I TOTAL     ACCESS:   37761373  HIT:   29259946  MISS:    8501427  HIT %:    77.4864  MISS %:    22.5136   MPKI: 42.5071
L1I LOAD      ACCESS:   37761373  HIT:   29259946  MISS:    8501427  HIT %:    77.4864  MISS %:    22.5136   MPKI: 42.5071
L1I PREFETCH  REQUESTED:          0  ISSUED:          0  USEFUL:          0  USELESS:          0
L1I USEFUL LOAD PREFETCHES:          0 PREFETCH ISSUED TO LOWER LEVEL:          0  ACCURACY: -nan
L1I TIMELY PREFETCHES:          0 LATE PREFETCHES: 0 DROPPED PREFETCHES: 0
L1I PREFETCHES SAME FILL-ORIGIN LEVEL: 0 DIFFERENT FILL-ORIGIN LEVEL: 0
L1I AVERAGE MISS LATENCY: 17.0353 cycles
L1I RQ	ACCESS:   58579585	FORWARD:          0	MERGED:   18339094	TO_CACHE:   40240491

BTB TOTAL     ACCESS:   25868833  HIT:   24240387  MISS:    1628446  HIT %:     93.705  MISS %:    6.29501   MPKI: 8.14223
BTB BRANCH_DIRECT_JUMP	ACCESS:    1694760  HIT:    1684405  MISS:      10355
BTB BRANCH_INDIRECT	ACCESS:    9830410  HIT:    9194063  MISS:     636347
BTB BRANCH_CONDITIONAL	ACCESS:    7683208  HIT:    7668728  MISS:      14480
BTB BRANCH_DIRECT_CALL	ACCESS:    2643025  HIT:    2609037  MISS:      33988
BTB BRANCH_INDIRECT_CALL	ACCESS:     687193  HIT:     583910  MISS:     103283
BTB BRANCH_RETURN	ACCESS:    3330237  HIT:    2500244  MISS:     829993
BTB BRANCH_OTHER ACCESS:          0  HIT:          0  MISS:          0

L2C TOTAL     ACCESS:   22194390  HIT:   14707079  MISS:    7487311  HIT %:    66.2648  MISS %:    33.7352   MPKI: 37.4366
L2C LOAD      ACCESS:   11221368  HIT:    8849547  MISS:    2371821  HIT %:    78.8634  MISS %:    21.1366   MPKI: 11.8591
L2C DATA LOAD MPKI: 8.9418
L2C INSTRUCTION LOAD MPKI: 2.9173
L2C RFO       ACCESS:    3509474  HIT:     118832  MISS:    3390642  HIT %:    3.38603  MISS %:     96.614   MPKI: 16.9532
L2C PREFETCH  ACCESS:    2360927  HIT:     843330  MISS:    1517597  HIT %:    35.7203  MISS %:    64.2797   MPKI: 7.58798
AGUS PREFETCH L1 MISS: 0
L2C DATA PREFETCH MPKI: 7.58798
L2C INSTRUCTION PREFETCH MPKI: 0
L2C WRITEBACK ACCESS:    4414196  HIT:    4301194  MISS:     113002  HIT %:      97.44  MISS %:    2.55997   MPKI: 0.56501
L2C LOAD TRANSLATION ACCESS:     224773  HIT:     142938  MISS:      81835  HIT %:    63.5922  MISS %:    36.4078   MPKI: 0.409175
L2C TRANSLATION FROM L1D PREFETCHER ACCESS:     463652  HIT:     451238  MISS:      12414  HIT %:    97.3226  MISS %:    2.67744   MPKI: 0.06207
L2C PREFETCH  REQUESTED:          0  ISSUED:          0  USEFUL:      76528  USELESS:    1454333
L2C USEFUL LOAD PREFETCHES:      76528 PREFETCH ISSUED TO LOWER LEVEL:    1517597  ACCURACY: 5.04271
L2C TIMELY PREFETCHES:      76528 LATE PREFETCHES: 0 DROPPED PREFETCHES: 0
L2C PREFETCHES SAME FILL-ORIGIN LEVEL: 0 DIFFERENT FILL-ORIGIN LEVEL: 0
L2C AVERAGE MISS LATENCY: 189.856 cycles
L2C RQ	ACCESS:   15420028	FORWARD:          0	MERGED:          0	TO_CACHE:   15419267
L2C WQ	ACCESS:    4414196	FORWARD:        813	MERGED:          0	TO_CACHE:    4414196
L2C PQ	ACCESS:    2360979	FORWARD:          0	MERGED:          0	TO_CACHE:    2360927

L2C Instructions Evicting Data 530094
L2C Translations Evicting Data 86519
L2C Data Evicting Data 6090000
L2C Instructions Evicting Instructions 47031
L2C Translations Evicting Instructions 6490
L2C Data Evicting Instructions 521122
L2C Instructions Evicting Translations 6336
L2C Translations Evicting Translations 1240
L2C Data Evicting Translations 85477
L2C Dense regions hint from L2: 0
PSCL5 TOTAL     ACCESS:     487659  HIT:     487659  MISS:          0  HIT %:        100  MISS %:          0   MPKI: 0
PSCL5 LOAD TRANSLATION ACCESS:     165914  HIT:     165914  MISS:          0  HIT %:        100  MISS %:          0   MPKI: 0
PSCL5 TRANSLATION FROM L1D PREFETCHER ACCESS:     321745  HIT:     321745  MISS:          0  HIT %:        100  MISS %:          0   MPKI: 0
PSCL5 PREFETCH  REQUESTED:          0  ISSUED:          0  USEFUL:          0  USELESS:          0
PSCL5 USEFUL LOAD PREFETCHES:          0 PREFETCH ISSUED TO LOWER LEVEL:          0  ACCURACY: -nan
PSCL5 TIMELY PREFETCHES:          0 LATE PREFETCHES: 0 DROPPED PREFETCHES: 0
PSCL5 PREFETCHES SAME FILL-ORIGIN LEVEL: 0 DIFFERENT FILL-ORIGIN LEVEL: 0

PSCL4 TOTAL     ACCESS:     475807  HIT:     475479  MISS:        328  HIT %:    99.9311  MISS %:  0.0689355   MPKI: 0.00164
PSCL4 LOAD TRANSLATION ACCESS:     162425  HIT:     162097  MISS:        328  HIT %:    99.7981  MISS %:   0.201939   MPKI: 0.00164
PSCL4 TRANSLATION FROM L1D PREFETCHER ACCESS:     313382  HIT:     313382  MISS:          0  HIT %:        100  MISS %:          0   MPKI: 0
PSCL4 PREFETCH  REQUESTED:          0  ISSUED:          0  USEFUL:          0  USELESS:          0
PSCL4 USEFUL LOAD PREFETCHES:          0 PREFETCH ISSUED TO LOWER LEVEL:          0  ACCURACY: -nan
PSCL4 TIMELY PREFETCHES:          0 LATE PREFETCHES: 0 DROPPED PREFETCHES: 0
PSCL4 PREFETCHES SAME FILL-ORIGIN LEVEL: 0 DIFFERENT FILL-ORIGIN LEVEL: 0

PSCL3 TOTAL     ACCESS:     473099  HIT:     471525  MISS:       1574  HIT %:    99.6673  MISS %:     0.3327   MPKI: 0.00787
PSCL3 LOAD TRANSLATION ACCESS:     162551  HIT:     160977  MISS:       1574  HIT %:    99.0317  MISS %:   0.968311   MPKI: 0.00787
PSCL3 TRANSLATION FROM L1D PREFETCHER ACCESS:     310548  HIT:     310548  MISS:          0  HIT %:        100  MISS %:          0   MPKI: 0
PSCL3 PREFETCH  REQUESTED:          0  ISSUED:          0  USEFUL:          0  USELESS:          0
PSCL3 USEFUL LOAD PREFETCHES:          0 PREFETCH ISSUED TO LOWER LEVEL:          0  ACCURACY: -nan
PSCL3 TIMELY PREFETCHES:          0 LATE PREFETCHES: 0 DROPPED PREFETCHES: 0
PSCL3 PREFETCHES SAME FILL-ORIGIN LEVEL: 0 DIFFERENT FILL-ORIGIN LEVEL: 0

PSCL2 TOTAL     ACCESS:     348892  HIT:     290729  MISS:      58163  HIT %:    83.3292  MISS %:    16.6708   MPKI: 0.290815
PSCL2 LOAD TRANSLATION ACCESS:     167049  HIT:     108886  MISS:      58163  HIT %:    65.1821  MISS %:    34.8179   MPKI: 0.290815
PSCL2 TRANSLATION FROM L1D PREFETCHER ACCESS:     181843  HIT:     181843  MISS:          0  HIT %:        100  MISS %:          0   MPKI: 0
PSCL2 PREFETCH  REQUESTED:          0  ISSUED:          0  USEFUL:          0  USELESS:          0
PSCL2 USEFUL LOAD PREFETCHES:          0 PREFETCH ISSUED TO LOWER LEVEL:          0  ACCURACY: -nan
PSCL2 TIMELY PREFETCHES:          0 LATE PREFETCHES: 0 DROPPED PREFETCHES: 0
PSCL2 PREFETCHES SAME FILL-ORIGIN LEVEL: 0 DIFFERENT FILL-ORIGIN LEVEL: 0

LLC TOTAL     ACCESS:   11458975  HIT:    5872718  MISS:    5586257  HIT %:    51.2499  MISS %:    48.7501   MPKI: 27.9313
LLC LOAD      ACCESS:    2371820  HIT:    1248799  MISS:    1123021  HIT %:    52.6515  MISS %:    47.3485   MPKI: 5.6151
LLC RFO       ACCESS:    3390626  HIT:     606882  MISS:    2783744  HIT %:    17.8988  MISS %:    82.1012   MPKI: 13.9187
LLC PREFETCH  ACCESS:    1517596  HIT:     707039  MISS:     810557  HIT %:    46.5894  MISS %:    53.4106   MPKI: 4.05279
AGUS PREFETCH L1 MISS: 0
LLC WRITEBACK ACCESS:    4084684  HIT:    3266030  MISS:     818654  HIT %:     79.958  MISS %:     20.042   MPKI: 4.09327
LLC LOAD TRANSLATION ACCESS:      81835  HIT:      36220  MISS:      45615  HIT %:    44.2598  MISS %:    55.7402   MPKI: 0.228075
LLC TRANSLATION FROM L1D PREFETCHER ACCESS:      12414  HIT:       7748  MISS:       4666  HIT %:    62.4134  MISS %:    37.5866   MPKI: 0.02333
LLC PREFETCH  REQUESTED:          0  ISSUED:          0  USEFUL:      26417  USELESS:     791296
LLC USEFUL LOAD PREFETCHES:      26417 PREFETCH ISSUED TO LOWER LEVEL:     810557  ACCURACY: 3.25912
LLC TIMELY PREFETCHES:      26417 LATE PREFETCHES: 0 DROPPED PREFETCHES: 0
LLC PREFETCHES SAME FILL-ORIGIN LEVEL: 0 DIFFERENT FILL-ORIGIN LEVEL: 0
LLC AVERAGE MISS LATENCY: 214.393 cycles
LLC RQ	ACCESS:    5856712	FORWARD:          0	MERGED:          0	TO_CACHE:    5856695
LLC WQ	ACCESS:    4084684	FORWARD:         18	MERGED:          0	TO_CACHE:    4084684
LLC PQ	ACCESS:    1517597	FORWARD:          0	MERGED:          0	TO_CACHE:    1517596

LLC Dense regions hint to LLC: 0

RAW hits: 2473392
Loads Generated: 46798431
Loads sent to L1D: 44325039
Stores Generated: 32636771
Stores sent to L1D: 32636784
Major fault: 0 Minor fault: 25901
Allocated PAGES: 25901
ucb ended

DRAM Statistics
 CHANNEL 0
 RQ ROW_BUFFER_HIT:    1641620  ROW_BUFFER_MISS:    3125545
 DBUS_CONGESTED:       1309
 WQ ROW_BUFFER_HIT:     711505  ROW_BUFFER_MISS:    2438403  FULL:      17041

 AVG_CONGESTED_CYCLE: 3
 All warmup complete: 2
Channel 0 Bank busy for read cycles: 0
Channel 0 Bank busy for write cycles: 0
Channel 0
Rank 0
0banks busy for read cycles: 162358012
0banks busy for write cycles: 183955
1banks busy for read cycles: 53936277
1banks busy for write cycles: 24426313
2banks busy for read cycles: 35538876
2banks busy for write cycles: 14646545
3banks busy for read cycles: 21526207
3banks busy for write cycles: 10114126
4banks busy for read cycles: 9335864
4banks busy for write cycles: 7087958
5banks busy for read cycles: 6266545
5banks busy for write cycles: 4964968
6banks busy for read cycles: 8925089
6banks busy for write cycles: 4039104
7banks busy for read cycles: 9773592
7banks busy for write cycles: 6486307
8banks busy for read cycles: 22961551
8banks busy for write cycles: 46544462

CPU 0 Branch Prediction Accuracy: 99.9365% MPKI: 0.098915 Average ROB Occupancy at Mispredict: 107.827
Branch types
NOT_BRANCH: 168850935 84.4255%
BRANCH_DIRECT_JUMP: 1694760 0.84738%
BRANCH_INDIRECT: 9830410 4.91521%
BRANCH_CONDITIONAL: 12963086 6.48154%
BRANCH_DIRECT_CALL: 2643025 1.32151%
BRANCH_INDIRECT_CALL: 687193 0.343597%
BRANCH_RETURN: 3330237 1.66512%
BRANCH_OTHER: 0 0%

DRAM PAGES: 1048576
Allocated PAGES: 25901
