
*** ChampSim Multicore Out-of-Order Simulator ***

Warmup Instructions: 50000000
Simulation Instructions: 200000000
Number of CPUs: 1
LLC sets: 2048
LLC ways: 16
Off-chip DRAM Size: 4096 MB Channels: 1 Width: 64-bit Data Rate: 6400 MT/s
CPU 0 runs traces/spec2k17/server_009.champsimtrace.xz
.xz
BTB has LRU replacement policy
ITLB has LRU replacement policy
DTLB has LRU replacement policy
STLB has LRU replacement policy
L1I has LRU replacement policy
L1D has LRU replacement policy
Initialize SRRIP state for L2C
Initialize DRRIP state for LLC
Offset table: -6 -5 -4 -3 -2 -1 1 2 3 4 5 6 
Offset table size: 12

Printing Sanity: 1

Round Robin Complete

Offset reward: 331 354 260 749 1081 1917 1109 1282 611 293 227 244 
Offset reward size: 12

Offset count: 1 1 1 1 1 1 1 1 1 1 1 1 
Offset count size: 12

Printing Sanity: 2
n total: 12
Writing in data1.txt 

Writing done! 

Heartbeat CPU 0 instructions: 10000003 cycles: 2811879 heartbeat IPC: 3.55634 cumulative IPC: 3.55634 (Simulation time: 0 hr 0 min 22 sec) 
Heartbeat CPU 0 instructions: 20000001 cycles: 5617286 heartbeat IPC: 3.56454 cumulative IPC: 3.56044 (Simulation time: 0 hr 0 min 42 sec) 
Heartbeat CPU 0 instructions: 30000002 cycles: 8416744 heartbeat IPC: 3.57212 cumulative IPC: 3.56432 (Simulation time: 0 hr 1 min 3 sec) 
Heartbeat CPU 0 instructions: 40000003 cycles: 11224696 heartbeat IPC: 3.56131 cumulative IPC: 3.56357 (Simulation time: 0 hr 1 min 24 sec) 
Heartbeat CPU 0 instructions: 50000003 cycles: 14038675 heartbeat IPC: 3.55369 cumulative IPC: 3.56159 (Simulation time: 0 hr 1 min 46 sec) 

Warmup complete CPU 0 instructions: 50000003 cycles: 14038675 (Simulation time: 0 hr 1 min 46 sec) 

Heartbeat CPU 0 instructions: 60000000 cycles: 42944421 heartbeat IPC: 0.345952 cumulative IPC: 0.345952 (Simulation time: 0 hr 2 min 24 sec) 
Heartbeat CPU 0 instructions: 70000001 cycles: 79765073 heartbeat IPC: 0.271587 cumulative IPC: 0.304292 (Simulation time: 0 hr 3 min 13 sec) 
Heartbeat CPU 0 instructions: 80000001 cycles: 104262055 heartbeat IPC: 0.408214 cumulative IPC: 0.332508 (Simulation time: 0 hr 3 min 46 sec) 
Heartbeat CPU 0 instructions: 90000002 cycles: 127981503 heartbeat IPC: 0.421595 cumulative IPC: 0.351053 (Simulation time: 0 hr 4 min 19 sec) 
Heartbeat CPU 0 instructions: 100000001 cycles: 151702706 heartbeat IPC: 0.421564 cumulative IPC: 0.363203 (Simulation time: 0 hr 4 min 52 sec) 
*** Reached end of trace for Core: 0 Repeating trace: traces/spec2k17/server_009.champsimtrace.xz
Heartbeat CPU 0 instructions: 110000000 cycles: 175168483 heartbeat IPC: 0.426152 cumulative IPC: 0.372371 (Simulation time: 0 hr 5 min 25 sec) 
Heartbeat CPU 0 instructions: 120000000 cycles: 198354090 heartbeat IPC: 0.431302 cumulative IPC: 0.379784 (Simulation time: 0 hr 5 min 59 sec) 
Heartbeat CPU 0 instructions: 130000001 cycles: 222702146 heartbeat IPC: 0.41071 cumulative IPC: 0.383392 (Simulation time: 0 hr 6 min 33 sec) 
Heartbeat CPU 0 instructions: 140000001 cycles: 247006889 heartbeat IPC: 0.411442 cumulative IPC: 0.386319 (Simulation time: 0 hr 7 min 6 sec) 
Heartbeat CPU 0 instructions: 150000001 cycles: 270772154 heartbeat IPC: 0.420782 cumulative IPC: 0.389509 (Simulation time: 0 hr 7 min 39 sec) 
Heartbeat CPU 0 instructions: 160000002 cycles: 295184666 heartbeat IPC: 0.409626 cumulative IPC: 0.391256 (Simulation time: 0 hr 8 min 13 sec) 
Heartbeat CPU 0 instructions: 170000001 cycles: 333817911 heartbeat IPC: 0.258844 cumulative IPC: 0.375259 (Simulation time: 0 hr 9 min 3 sec) 
Heartbeat CPU 0 instructions: 180000001 cycles: 360983702 heartbeat IPC: 0.36811 cumulative IPC: 0.374699 (Simulation time: 0 hr 9 min 40 sec) 
Heartbeat CPU 0 instructions: 190000000 cycles: 384645262 heartbeat IPC: 0.422626 cumulative IPC: 0.377759 (Simulation time: 0 hr 10 min 13 sec) 
Heartbeat CPU 0 instructions: 200000000 cycles: 408830108 heartbeat IPC: 0.413482 cumulative IPC: 0.379947 (Simulation time: 0 hr 10 min 46 sec) 
*** Reached end of trace for Core: 0 Repeating trace: traces/spec2k17/server_009.champsimtrace.xz
Heartbeat CPU 0 instructions: 210000003 cycles: 432169623 heartbeat IPC: 0.428458 cumulative IPC: 0.382655 (Simulation time: 0 hr 11 min 20 sec) 
Heartbeat CPU 0 instructions: 220000000 cycles: 455563966 heartbeat IPC: 0.427454 cumulative IPC: 0.385029 (Simulation time: 0 hr 11 min 53 sec) 
Heartbeat CPU 0 instructions: 230000002 cycles: 479726523 heartbeat IPC: 0.413864 cumulative IPC: 0.386525 (Simulation time: 0 hr 12 min 26 sec) 
Heartbeat CPU 0 instructions: 240000001 cycles: 503732114 heartbeat IPC: 0.41657 cumulative IPC: 0.387998 (Simulation time: 0 hr 13 min 1 sec) 
Heartbeat CPU 0 instructions: 250000000 cycles: 527583853 heartbeat IPC: 0.419257 cumulative IPC: 0.38945 (Simulation time: 0 hr 13 min 37 sec) 
Finished CPU 0 instructions: 200000001 cycles: 513545180 cumulative IPC: 0.38945 (Simulation time: 0 hr 13 min 37 sec) 

ChampSim completed all CPUs

Region of Interest Statistics

CPU 0 cumulative IPC: 0.38945 instructions: 200000001 cycles: 513545180
ITLB TOTAL     ACCESS:   33734049  HIT:   33021727  MISS:     712322  HIT %:    97.8884  MISS %:    2.11158   MPKI: 3.56161
ITLB LOAD TRANSLATION ACCESS:   33734049  HIT:   33021727  MISS:     712322  HIT %:    97.8884  MISS %:    2.11158   MPKI: 3.56161
ITLB PREFETCH  REQUESTED:          0  ISSUED:          0  USEFUL:          0  USELESS:          0
ITLB USEFUL LOAD PREFETCHES:          0 PREFETCH ISSUED TO LOWER LEVEL:          0  ACCURACY: -nan
ITLB TIMELY PREFETCHES:          0 LATE PREFETCHES: 0 DROPPED PREFETCHES: 0
ITLB PREFETCHES SAME FILL-ORIGIN LEVEL: 0 DIFFERENT FILL-ORIGIN LEVEL: 0
ITLB AVERAGE MISS LATENCY: 16.0699 cycles
ITLB RQ	ACCESS:   40244505	FORWARD:          0	MERGED:    6340248	TO_CACHE:   33904257

DTLB TOTAL     ACCESS:   39819438  HIT:   35109834  MISS:    4709604  HIT %:    88.1726  MISS %:    11.8274   MPKI: 23.548
DTLB LOAD TRANSLATION ACCESS:   39819438  HIT:   35109834  MISS:    4709604  HIT %:    88.1726  MISS %:    11.8274   MPKI: 23.548
DTLB PREFETCH  REQUESTED:          0  ISSUED:          0  USEFUL:          0  USELESS:          0
DTLB USEFUL LOAD PREFETCHES:          0 PREFETCH ISSUED TO LOWER LEVEL:          0  ACCURACY: -nan
DTLB TIMELY PREFETCHES:          0 LATE PREFETCHES: 0 DROPPED PREFETCHES: 0
DTLB PREFETCHES SAME FILL-ORIGIN LEVEL: 0 DIFFERENT FILL-ORIGIN LEVEL: 0
DTLB AVERAGE MISS LATENCY: 11.5822 cycles
DTLB RQ	ACCESS:   51789542	FORWARD:          0	MERGED:   11802078	TO_CACHE:   39987464

STLB TOTAL     ACCESS:   30786815  HIT:   30374126  MISS:     412689  HIT %:    98.6595  MISS %:    1.34047   MPKI: 2.06344
STLB LOAD TRANSLATION ACCESS:    5421926  HIT:    5013948  MISS:     407978  HIT %:    92.4754  MISS %:     7.5246   MPKI: 2.03989
STLB TRANSLATION FROM L1D PREFETCHER ACCESS:   25364889  HIT:   25360178  MISS:       4711  HIT %:    99.9814  MISS %:  0.0185729   MPKI: 0.023555
STLB PREFETCH  REQUESTED:          0  ISSUED:          0  USEFUL:       4202  USELESS:        509
STLB USEFUL LOAD PREFETCHES:       4202 PREFETCH ISSUED TO LOWER LEVEL:          0  ACCURACY: inf
STLB TIMELY PREFETCHES:       4202 LATE PREFETCHES: 363 DROPPED PREFETCHES: 716198
STLB PREFETCHES SAME FILL-ORIGIN LEVEL: 0 DIFFERENT FILL-ORIGIN LEVEL: 0
STLB AVERAGE MISS LATENCY: 41.8816 cycles
STLB RQ	ACCESS:   37085370	FORWARD:          0	MERGED:    5581408	TO_CACHE:   31503962

STLB Hit, L1D data hit: 0
STLB Hit, L2C data hit: 0
STLB Hit, LLC data hit: 0
STLB Hit, LLC data miss: 0
STLB STLB hints to L2: 0
L1D TOTAL     ACCESS:   80642346  HIT:   71198712  MISS:    9443634  HIT %:    88.2895  MISS %:    11.7105   MPKI: 47.2182
L1D LOAD      ACCESS:   32430502  HIT:   27051629  MISS:    5378873  HIT %:    83.4142  MISS %:    16.5858   MPKI: 26.8944
L1D RFO       ACCESS:   18894417  HIT:   18558098  MISS:     336319  HIT %:      98.22  MISS %:    1.77999   MPKI: 1.68159
L1D PREFETCH  ACCESS:   29317427  HIT:   25588985  MISS:    3728442  HIT %:    87.2825  MISS %:    12.7175   MPKI: 18.6422
AGUS PREFETCH L1 MISS: 0
L1D PREFETCH  REQUESTED:   64198909  ISSUED:   64198475  USEFUL:     438619  USELESS:    3289785
L1D USEFUL LOAD PREFETCHES:     438619 PREFETCH ISSUED TO LOWER LEVEL:    3766711  ACCURACY: 11.6446
L1D TIMELY PREFETCHES:     438619 LATE PREFETCHES: 36200 DROPPED PREFETCHES: 732686
L1D PREFETCHES SAME FILL-ORIGIN LEVEL: 3766711 DIFFERENT FILL-ORIGIN LEVEL: 0
L1D AVERAGE MISS LATENCY: 1.13617e+06 cycles
L1D RQ	ACCESS:   46270861	FORWARD:          0	MERGED:   13521515	TO_CACHE:   32535461
L1D WQ	ACCESS:   19535803	FORWARD:     251869	MERGED:     281722	TO_CACHE:   19254081
L1D PQ	ACCESS:   32535031	FORWARD:          0	MERGED:     833603	TO_CACHE:   31663444

L1D UNIQUE REGIONS ACCESSED: 0
L1D REGIONS CONFLICTS: 0
L1D Cross Page Prefetch Requests: 1706633
L1D Same Page Prefetch Requests: 37758780
L1D ROI Sum of L1D PQ occupancy: 450548442
L1D PREFETCHES PUSHED FROM L2C: 0
L1I TOTAL     ACCESS:   38792322  HIT:   34305106  MISS:    4487216  HIT %:    88.4327  MISS %:    11.5673   MPKI: 22.4361
L1I LOAD      ACCESS:   38792322  HIT:   34305106  MISS:    4487216  HIT %:    88.4327  MISS %:    11.5673   MPKI: 22.4361
L1I PREFETCH  REQUESTED:          0  ISSUED:          0  USEFUL:          0  USELESS:          0
L1I USEFUL LOAD PREFETCHES:          0 PREFETCH ISSUED TO LOWER LEVEL:          0  ACCURACY: -nan
L1I TIMELY PREFETCHES:          0 LATE PREFETCHES: 0 DROPPED PREFETCHES: 0
L1I PREFETCHES SAME FILL-ORIGIN LEVEL: 0 DIFFERENT FILL-ORIGIN LEVEL: 0
L1I AVERAGE MISS LATENCY: 29.8236 cycles
L1I RQ	ACCESS:   60136735	FORWARD:          0	MERGED:   19892230	TO_CACHE:   40244505

BTB TOTAL     ACCESS:   26457735  HIT:   21644987  MISS:    4812748  HIT %:    81.8097  MISS %:    18.1903   MPKI: 24.0637
BTB BRANCH_DIRECT_JUMP	ACCESS:    1781803  HIT:    1519806  MISS:     261997
BTB BRANCH_INDIRECT	ACCESS:   13089428  HIT:   10736402  MISS:    2353026
BTB BRANCH_CONDITIONAL	ACCESS:    4687165  HIT:    4274227  MISS:     412938
BTB BRANCH_DIRECT_CALL	ACCESS:    2727145  HIT:    2216757  MISS:     510388
BTB BRANCH_INDIRECT_CALL	ACCESS:     716294  HIT:     661956  MISS:      54338
BTB BRANCH_RETURN	ACCESS:    3455900  HIT:    2235839  MISS:    1220061
BTB BRANCH_OTHER ACCESS:          0  HIT:          0  MISS:          0

L2C TOTAL     ACCESS:   16644912  HIT:   12247644  MISS:    4397268  HIT %:    73.5819  MISS %:    26.4181   MPKI: 21.9863
L2C LOAD      ACCESS:    9829730  HIT:    6747213  MISS:    3082517  HIT %:    68.6409  MISS %:    31.3591   MPKI: 15.4126
L2C DATA LOAD MPKI: 4.36767
L2C INSTRUCTION LOAD MPKI: 11.0449
L2C RFO       ACCESS:     334241  HIT:     191829  MISS:     142412  HIT %:    57.3924  MISS %:    42.6076   MPKI: 0.71206
L2C PREFETCH  ACCESS:    3766632  HIT:    2842779  MISS:     923853  HIT %:    75.4727  MISS %:    24.5273   MPKI: 4.61926
AGUS PREFETCH L1 MISS: 0
L2C DATA PREFETCH MPKI: 4.61926
L2C INSTRUCTION PREFETCH MPKI: 0
L2C WRITEBACK ACCESS:    1028121  HIT:     991952  MISS:      36169  HIT %:     96.482  MISS %:    3.51797   MPKI: 0.180845
L2C LOAD TRANSLATION ACCESS:     515984  HIT:     309312  MISS:     206672  HIT %:     59.946  MISS %:     40.054   MPKI: 1.03336
L2C TRANSLATION FROM L1D PREFETCHER ACCESS:    1170204  HIT:    1164559  MISS:       5645  HIT %:    99.5176  MISS %:   0.482395   MPKI: 0.028225
L2C PREFETCH  REQUESTED:          0  ISSUED:          0  USEFUL:      46457  USELESS:     883264
L2C USEFUL LOAD PREFETCHES:      46457 PREFETCH ISSUED TO LOWER LEVEL:     923853  ACCURACY: 5.02861
L2C TIMELY PREFETCHES:      46457 LATE PREFETCHES: 0 DROPPED PREFETCHES: 0
L2C PREFETCHES SAME FILL-ORIGIN LEVEL: 0 DIFFERENT FILL-ORIGIN LEVEL: 0
L2C AVERAGE MISS LATENCY: 42.3123 cycles
L2C RQ	ACCESS:   11850327	FORWARD:          0	MERGED:          0	TO_CACHE:   11850159
L2C WQ	ACCESS:    1028121	FORWARD:        247	MERGED:          0	TO_CACHE:    1028121
L2C PQ	ACCESS:    3766711	FORWARD:          0	MERGED:          0	TO_CACHE:    3766632

L2C Instructions Evicting Data 993027
L2C Translations Evicting Data 95355
L2C Data Evicting Data 872011
L2C Instructions Evicting Instructions 1108282
L2C Translations Evicting Instructions 108516
L2C Data Evicting Instructions 973444
L2C Instructions Evicting Translations 107674
L2C Translations Evicting Translations 8446
L2C Data Evicting Translations 94344
L2C Dense regions hint from L2: 0
PSCL5 TOTAL     ACCESS:    1128919  HIT:    1128919  MISS:          0  HIT %:        100  MISS %:          0   MPKI: 0
PSCL5 LOAD TRANSLATION ACCESS:     407647  HIT:     407647  MISS:          0  HIT %:        100  MISS %:          0   MPKI: 0
PSCL5 TRANSLATION FROM L1D PREFETCHER ACCESS:     721272  HIT:     721272  MISS:          0  HIT %:        100  MISS %:          0   MPKI: 0
PSCL5 PREFETCH  REQUESTED:          0  ISSUED:          0  USEFUL:          0  USELESS:          0
PSCL5 USEFUL LOAD PREFETCHES:          0 PREFETCH ISSUED TO LOWER LEVEL:          0  ACCURACY: -nan
PSCL5 TIMELY PREFETCHES:          0 LATE PREFETCHES: 0 DROPPED PREFETCHES: 0
PSCL5 PREFETCHES SAME FILL-ORIGIN LEVEL: 0 DIFFERENT FILL-ORIGIN LEVEL: 0

PSCL4 TOTAL     ACCESS:    1035170  HIT:    1033971  MISS:       1199  HIT %:    99.8842  MISS %:   0.115826   MPKI: 0.005995
PSCL4 LOAD TRANSLATION ACCESS:     377052  HIT:     375853  MISS:       1199  HIT %:     99.682  MISS %:   0.317993   MPKI: 0.005995
PSCL4 TRANSLATION FROM L1D PREFETCHER ACCESS:     658118  HIT:     658118  MISS:          0  HIT %:        100  MISS %:          0   MPKI: 0
PSCL4 PREFETCH  REQUESTED:          0  ISSUED:          0  USEFUL:          0  USELESS:          0
PSCL4 USEFUL LOAD PREFETCHES:          0 PREFETCH ISSUED TO LOWER LEVEL:          0  ACCURACY: -nan
PSCL4 TIMELY PREFETCHES:          0 LATE PREFETCHES: 0 DROPPED PREFETCHES: 0
PSCL4 PREFETCHES SAME FILL-ORIGIN LEVEL: 0 DIFFERENT FILL-ORIGIN LEVEL: 0

PSCL3 TOTAL     ACCESS:    1118962  HIT:    1115597  MISS:       3365  HIT %:    99.6993  MISS %:   0.300725   MPKI: 0.016825
PSCL3 LOAD TRANSLATION ACCESS:     404500  HIT:     401135  MISS:       3365  HIT %:    99.1681  MISS %:   0.831891   MPKI: 0.016825
PSCL3 TRANSLATION FROM L1D PREFETCHER ACCESS:     714462  HIT:     714462  MISS:          0  HIT %:        100  MISS %:          0   MPKI: 0
PSCL3 PREFETCH  REQUESTED:          0  ISSUED:          0  USEFUL:          0  USELESS:          0
PSCL3 USEFUL LOAD PREFETCHES:          0 PREFETCH ISSUED TO LOWER LEVEL:          0  ACCURACY: -nan
PSCL3 TIMELY PREFETCHES:          0 LATE PREFETCHES: 0 DROPPED PREFETCHES: 0
PSCL3 PREFETCHES SAME FILL-ORIGIN LEVEL: 0 DIFFERENT FILL-ORIGIN LEVEL: 0

PSCL2 TOTAL     ACCESS:     685483  HIT:     580361  MISS:     105122  HIT %:    84.6645  MISS %:    15.3355   MPKI: 0.52561
PSCL2 LOAD TRANSLATION ACCESS:     408830  HIT:     303708  MISS:     105122  HIT %:    74.2871  MISS %:    25.7129   MPKI: 0.52561
PSCL2 TRANSLATION FROM L1D PREFETCHER ACCESS:     276653  HIT:     276653  MISS:          0  HIT %:        100  MISS %:          0   MPKI: 0
PSCL2 PREFETCH  REQUESTED:          0  ISSUED:          0  USEFUL:          0  USELESS:          0
PSCL2 USEFUL LOAD PREFETCHES:          0 PREFETCH ISSUED TO LOWER LEVEL:          0  ACCURACY: -nan
PSCL2 TIMELY PREFETCHES:          0 LATE PREFETCHES: 0 DROPPED PREFETCHES: 0
PSCL2 PREFETCHES SAME FILL-ORIGIN LEVEL: 0 DIFFERENT FILL-ORIGIN LEVEL: 0

LLC TOTAL     ACCESS:    4823093  HIT:    4466312  MISS:     356781  HIT %:    92.6027  MISS %:    7.39735   MPKI: 1.7839
LLC LOAD      ACCESS:    3082516  HIT:    2927482  MISS:     155034  HIT %:    94.9705  MISS %:    5.02946   MPKI: 0.77517
LLC RFO       ACCESS:     142410  HIT:     102613  MISS:      39797  HIT %:    72.0546  MISS %:    27.9454   MPKI: 0.198985
LLC PREFETCH  ACCESS:     923853  HIT:     773472  MISS:     150381  HIT %:    83.7224  MISS %:    16.2776   MPKI: 0.751905
AGUS PREFETCH L1 MISS: 0
LLC WRITEBACK ACCESS:     461997  HIT:     456960  MISS:       5037  HIT %:    98.9097  MISS %:    1.09027   MPKI: 0.025185
LLC LOAD TRANSLATION ACCESS:     206672  HIT:     200480  MISS:       6192  HIT %:    97.0039  MISS %:    2.99605   MPKI: 0.03096
LLC TRANSLATION FROM L1D PREFETCHER ACCESS:       5645  HIT:       5305  MISS:        340  HIT %:     93.977  MISS %:    6.02303   MPKI: 0.0017
LLC PREFETCH  REQUESTED:          0  ISSUED:          0  USEFUL:       9213  USELESS:     142540
LLC USEFUL LOAD PREFETCHES:       9213 PREFETCH ISSUED TO LOWER LEVEL:     150381  ACCURACY: 6.12644
LLC TIMELY PREFETCHES:       9213 LATE PREFETCHES: 0 DROPPED PREFETCHES: 0
LLC PREFETCHES SAME FILL-ORIGIN LEVEL: 0 DIFFERENT FILL-ORIGIN LEVEL: 0
LLC AVERAGE MISS LATENCY: 154.678 cycles
LLC RQ	ACCESS:    3437246	FORWARD:          0	MERGED:          0	TO_CACHE:    3437243
LLC WQ	ACCESS:     461997	FORWARD:          3	MERGED:          0	TO_CACHE:     461997
LLC PQ	ACCESS:     923853	FORWARD:          0	MERGED:          0	TO_CACHE:     923853

LLC Dense regions hint to LLC: 0

RAW hits: 2496279
Loads Generated: 48767141
Loads sent to L1D: 46270861
Stores Generated: 19535794
Stores sent to L1D: 19535803
Major fault: 0 Minor fault: 6724
Allocated PAGES: 6724
ucb ended

DRAM Statistics
 CHANNEL 0
 RQ ROW_BUFFER_HIT:      66565  ROW_BUFFER_MISS:     285178
 DBUS_CONGESTED:         97
 WQ ROW_BUFFER_HIT:      23301  ROW_BUFFER_MISS:     178259  FULL:          0

 AVG_CONGESTED_CYCLE: 4
 All warmup complete: 2
Channel 0 Bank busy for read cycles: 0
Channel 0 Bank busy for write cycles: 0
Channel 0
Rank 0
0banks busy for read cycles: 455670530
0banks busy for write cycles: 116142
1banks busy for read cycles: 27988493
1banks busy for write cycles: 15773746
2banks busy for read cycles: 5611784
2banks busy for write cycles: 3625989
3banks busy for read cycles: 1167434
3banks busy for write cycles: 1234852
4banks busy for read cycles: 402857
4banks busy for write cycles: 637882
5banks busy for read cycles: 129738
5banks busy for write cycles: 377759
6banks busy for read cycles: 54196
6banks busy for write cycles: 248136
7banks busy for read cycles: 36891
7banks busy for write cycles: 182625
8banks busy for read cycles: 71662
8banks busy for write cycles: 214465

CPU 0 Branch Prediction Accuracy: 99.7405% MPKI: 0.500965 Average ROB Occupancy at Mispredict: 25.8492
Branch types
NOT_BRANCH: 161395749 80.6979%
BRANCH_DIRECT_JUMP: 1781803 0.890901%
BRANCH_INDIRECT: 13089428 6.54471%
BRANCH_CONDITIONAL: 16833331 8.41667%
BRANCH_DIRECT_CALL: 2727145 1.36357%
BRANCH_INDIRECT_CALL: 716294 0.358147%
BRANCH_RETURN: 3455900 1.72795%
BRANCH_OTHER: 0 0%

DRAM PAGES: 1048576
Allocated PAGES: 6724
