
*** ChampSim Multicore Out-of-Order Simulator ***

Warmup Instructions: 50000000
Simulation Instructions: 200000000
Number of CPUs: 1
LLC sets: 2048
LLC ways: 16
Off-chip DRAM Size: 4096 MB Channels: 1 Width: 64-bit Data Rate: 6400 MT/s
CPU 0 runs traces/spec2k17/srv_31.champsimtrace.xz
.xz
BTB has LRU replacement policy
ITLB has LRU replacement policy
DTLB has LRU replacement policy
STLB has LRU replacement policy
L1I has LRU replacement policy
L1D has LRU replacement policy
Initialize SRRIP state for L2C
Initialize DRRIP state for LLC
Offset table: -6 -5 -4 -3 -2 -1 1 2 3 4 5 6 
Offset table size: 12

Printing Sanity: 1

Round Robin Complete

Offset reward: 560 487 706 740 737 1456 1661 1122 712 669 439 389 
Offset reward size: 12

Offset count: 1 1 1 1 1 1 1 1 1 1 1 1 
Offset count size: 12

Printing Sanity: 2
n total: 12
Writing in data1.txt 

Writing done! 

Heartbeat CPU 0 instructions: 10000000 cycles: 2814626 heartbeat IPC: 3.55287 cumulative IPC: 3.55287 (Simulation time: 0 hr 0 min 25 sec) 
Heartbeat CPU 0 instructions: 20000002 cycles: 5628462 heartbeat IPC: 3.55387 cumulative IPC: 3.55337 (Simulation time: 0 hr 0 min 51 sec) 
Heartbeat CPU 0 instructions: 30000002 cycles: 8442777 heartbeat IPC: 3.55326 cumulative IPC: 3.55333 (Simulation time: 0 hr 1 min 15 sec) 
*** Reached end of trace for Core: 0 Repeating trace: traces/spec2k17/srv_31.champsimtrace.xz
Heartbeat CPU 0 instructions: 40000000 cycles: 11256513 heartbeat IPC: 3.55399 cumulative IPC: 3.5535 (Simulation time: 0 hr 1 min 40 sec) 
Heartbeat CPU 0 instructions: 50000003 cycles: 14069009 heartbeat IPC: 3.55556 cumulative IPC: 3.55391 (Simulation time: 0 hr 2 min 5 sec) 

Warmup complete CPU 0 instructions: 50000003 cycles: 14069009 (Simulation time: 0 hr 2 min 5 sec) 

Heartbeat CPU 0 instructions: 60000001 cycles: 28045528 heartbeat IPC: 0.715486 cumulative IPC: 0.715486 (Simulation time: 0 hr 2 min 37 sec) 
*** Reached end of trace for Core: 0 Repeating trace: traces/spec2k17/srv_31.champsimtrace.xz
Heartbeat CPU 0 instructions: 70000000 cycles: 41983056 heartbeat IPC: 0.717487 cumulative IPC: 0.716485 (Simulation time: 0 hr 3 min 8 sec) 
Heartbeat CPU 0 instructions: 80000000 cycles: 55697909 heartbeat IPC: 0.729137 cumulative IPC: 0.720653 (Simulation time: 0 hr 3 min 39 sec) 
Heartbeat CPU 0 instructions: 90000001 cycles: 69563907 heartbeat IPC: 0.721189 cumulative IPC: 0.720787 (Simulation time: 0 hr 4 min 10 sec) 
*** Reached end of trace for Core: 0 Repeating trace: traces/spec2k17/srv_31.champsimtrace.xz
Heartbeat CPU 0 instructions: 100000000 cycles: 83332175 heartbeat IPC: 0.726308 cumulative IPC: 0.721884 (Simulation time: 0 hr 4 min 42 sec) 
Heartbeat CPU 0 instructions: 110000000 cycles: 97004602 heartbeat IPC: 0.731399 cumulative IPC: 0.723453 (Simulation time: 0 hr 5 min 14 sec) 
Heartbeat CPU 0 instructions: 120000001 cycles: 111081752 heartbeat IPC: 0.710371 cumulative IPC: 0.721555 (Simulation time: 0 hr 5 min 46 sec) 
*** Reached end of trace for Core: 0 Repeating trace: traces/spec2k17/srv_31.champsimtrace.xz
Heartbeat CPU 0 instructions: 130000000 cycles: 124865518 heartbeat IPC: 0.725491 cumulative IPC: 0.722044 (Simulation time: 0 hr 6 min 17 sec) 
Heartbeat CPU 0 instructions: 140000000 cycles: 138509878 heartbeat IPC: 0.732904 cumulative IPC: 0.723235 (Simulation time: 0 hr 6 min 48 sec) 
Heartbeat CPU 0 instructions: 150000002 cycles: 152582778 heartbeat IPC: 0.710586 cumulative IPC: 0.72195 (Simulation time: 0 hr 7 min 19 sec) 
*** Reached end of trace for Core: 0 Repeating trace: traces/spec2k17/srv_31.champsimtrace.xz
Heartbeat CPU 0 instructions: 160000002 cycles: 166391484 heartbeat IPC: 0.724181 cumulative IPC: 0.722152 (Simulation time: 0 hr 7 min 50 sec) 
Heartbeat CPU 0 instructions: 170000002 cycles: 179997912 heartbeat IPC: 0.734947 cumulative IPC: 0.723201 (Simulation time: 0 hr 8 min 21 sec) 
Heartbeat CPU 0 instructions: 180000002 cycles: 193838469 heartbeat IPC: 0.722514 cumulative IPC: 0.723148 (Simulation time: 0 hr 8 min 53 sec) 
Heartbeat CPU 0 instructions: 190000001 cycles: 207637235 heartbeat IPC: 0.724702 cumulative IPC: 0.723259 (Simulation time: 0 hr 9 min 24 sec) 
*** Reached end of trace for Core: 0 Repeating trace: traces/spec2k17/srv_31.champsimtrace.xz
Heartbeat CPU 0 instructions: 200000003 cycles: 221502209 heartbeat IPC: 0.721242 cumulative IPC: 0.723124 (Simulation time: 0 hr 9 min 55 sec) 
Heartbeat CPU 0 instructions: 210000003 cycles: 235275967 heartbeat IPC: 0.726018 cumulative IPC: 0.723305 (Simulation time: 0 hr 10 min 26 sec) 
Heartbeat CPU 0 instructions: 220000000 cycles: 249072354 heartbeat IPC: 0.724827 cumulative IPC: 0.723394 (Simulation time: 0 hr 10 min 57 sec) 
*** Reached end of trace for Core: 0 Repeating trace: traces/spec2k17/srv_31.champsimtrace.xz
Heartbeat CPU 0 instructions: 230000003 cycles: 262959978 heartbeat IPC: 0.720066 cumulative IPC: 0.723208 (Simulation time: 0 hr 11 min 29 sec) 
Heartbeat CPU 0 instructions: 240000001 cycles: 276659974 heartbeat IPC: 0.729927 cumulative IPC: 0.723559 (Simulation time: 0 hr 12 min 0 sec) 
Heartbeat CPU 0 instructions: 250000003 cycles: 290483530 heartbeat IPC: 0.723403 cumulative IPC: 0.723551 (Simulation time: 0 hr 12 min 32 sec) 
Finished CPU 0 instructions: 200000000 cycles: 276414521 cumulative IPC: 0.723551 (Simulation time: 0 hr 12 min 32 sec) 

ChampSim completed all CPUs

Region of Interest Statistics

CPU 0 cumulative IPC: 0.723551 instructions: 200000000 cycles: 276414521
ITLB TOTAL     ACCESS:   32447818  HIT:   32341114  MISS:     106704  HIT %:    99.6712  MISS %:   0.328848   MPKI: 0.53352
ITLB LOAD TRANSLATION ACCESS:   32447818  HIT:   32341114  MISS:     106704  HIT %:    99.6712  MISS %:   0.328848   MPKI: 0.53352
ITLB PREFETCH  REQUESTED:          0  ISSUED:          0  USEFUL:          0  USELESS:          0
ITLB USEFUL LOAD PREFETCHES:          0 PREFETCH ISSUED TO LOWER LEVEL:          0  ACCURACY: -nan
ITLB TIMELY PREFETCHES:          0 LATE PREFETCHES: 0 DROPPED PREFETCHES: 0
ITLB PREFETCHES SAME FILL-ORIGIN LEVEL: 0 DIFFERENT FILL-ORIGIN LEVEL: 0
ITLB AVERAGE MISS LATENCY: 10.7581 cycles
ITLB RQ	ACCESS:   38246204	FORWARD:          0	MERGED:    5763587	TO_CACHE:   32482617

DTLB TOTAL     ACCESS:   40765658  HIT:   38956713  MISS:    1808945  HIT %:    95.5626  MISS %:    4.43742   MPKI: 9.04472
DTLB LOAD TRANSLATION ACCESS:   40765658  HIT:   38956713  MISS:    1808945  HIT %:    95.5626  MISS %:    4.43742   MPKI: 9.04472
DTLB PREFETCH  REQUESTED:          0  ISSUED:          0  USEFUL:          0  USELESS:          0
DTLB USEFUL LOAD PREFETCHES:          0 PREFETCH ISSUED TO LOWER LEVEL:          0  ACCURACY: -nan
DTLB TIMELY PREFETCHES:          0 LATE PREFETCHES: 0 DROPPED PREFETCHES: 0
DTLB PREFETCHES SAME FILL-ORIGIN LEVEL: 0 DIFFERENT FILL-ORIGIN LEVEL: 0
DTLB AVERAGE MISS LATENCY: 10.7709 cycles
DTLB RQ	ACCESS:   54755222	FORWARD:          0	MERGED:   13789067	TO_CACHE:   40966155

STLB TOTAL     ACCESS:   24411890  HIT:   24324735  MISS:      87155  HIT %:     99.643  MISS %:   0.357019   MPKI: 0.435775
STLB LOAD TRANSLATION ACCESS:    1915649  HIT:    1829968  MISS:      85681  HIT %:    95.5273  MISS %:    4.47269   MPKI: 0.428405
STLB TRANSLATION FROM L1D PREFETCHER ACCESS:   22496241  HIT:   22494767  MISS:       1474  HIT %:    99.9934  MISS %: 0.00655221   MPKI: 0.00737
STLB PREFETCH  REQUESTED:          0  ISSUED:          0  USEFUL:       1160  USELESS:        314
STLB USEFUL LOAD PREFETCHES:       1160 PREFETCH ISSUED TO LOWER LEVEL:          0  ACCURACY: inf
STLB TIMELY PREFETCHES:       1160 LATE PREFETCHES: 75 DROPPED PREFETCHES: 1229213
STLB PREFETCHES SAME FILL-ORIGIN LEVEL: 0 DIFFERENT FILL-ORIGIN LEVEL: 0
STLB AVERAGE MISS LATENCY: 4538.56 cycles
STLB RQ	ACCESS:   30591229	FORWARD:          0	MERGED:    4949992	TO_CACHE:   25641237

STLB Hit, L1D data hit: 0
STLB Hit, L2C data hit: 0
STLB Hit, LLC data hit: 0
STLB Hit, LLC data miss: 0
STLB STLB hints to L2: 0
L1D TOTAL     ACCESS:   81453721  HIT:   80703597  MISS:     750124  HIT %:    99.0791  MISS %:    0.92092   MPKI: 3.75062
L1D LOAD      ACCESS:   30757352  HIT:   30411905  MISS:     345447  HIT %:    98.8769  MISS %:    1.12314   MPKI: 1.72724
L1D RFO       ACCESS:   23430138  HIT:   23308774  MISS:     121364  HIT %:     99.482  MISS %:   0.517982   MPKI: 0.60682
L1D PREFETCH  ACCESS:   27266231  HIT:   26982918  MISS:     283313  HIT %:    98.9609  MISS %:    1.03906   MPKI: 1.41657
AGUS PREFETCH L1 MISS: 0
L1D PREFETCH  REQUESTED:   59522451  ISSUED:   59514907  USEFUL:      49647  USELESS:     233705
L1D USEFUL LOAD PREFETCHES:      49647 PREFETCH ISSUED TO LOWER LEVEL:     308183  ACCURACY: 16.1096
L1D TIMELY PREFETCHES:      49647 LATE PREFETCHES: 24235 DROPPED PREFETCHES: 1229543
L1D PREFETCHES SAME FILL-ORIGIN LEVEL: 308183 DIFFERENT FILL-ORIGIN LEVEL: 0
L1D AVERAGE MISS LATENCY: 5.05264e+06 cycles
L1D RQ	ACCESS:   49500204	FORWARD:          0	MERGED:   18532709	TO_CACHE:   30846872
L1D WQ	ACCESS:   24164282	FORWARD:     215309	MERGED:     255932	TO_CACHE:   23908350
L1D PQ	ACCESS:   30839327	FORWARD:          0	MERGED:    2069061	TO_CACHE:   28675580

L1D UNIQUE REGIONS ACCESSED: 0
L1D REGIONS CONFLICTS: 0
L1D Cross Page Prefetch Requests: 2664969
L1D Same Page Prefetch Requests: 35849095
L1D ROI Sum of L1D PQ occupancy: 455106585
L1D PREFETCHES PUSHED FROM L2C: 0
L1I TOTAL     ACCESS:   38054038  HIT:   37415667  MISS:     638371  HIT %:    98.3225  MISS %:    1.67754   MPKI: 3.19185
L1I LOAD      ACCESS:   38054038  HIT:   37415667  MISS:     638371  HIT %:    98.3225  MISS %:    1.67754   MPKI: 3.19185
L1I PREFETCH  REQUESTED:          0  ISSUED:          0  USEFUL:          0  USELESS:          0
L1I USEFUL LOAD PREFETCHES:          0 PREFETCH ISSUED TO LOWER LEVEL:          0  ACCURACY: -nan
L1I TIMELY PREFETCHES:          0 LATE PREFETCHES: 0 DROPPED PREFETCHES: 0
L1I PREFETCHES SAME FILL-ORIGIN LEVEL: 0 DIFFERENT FILL-ORIGIN LEVEL: 0
L1I AVERAGE MISS LATENCY: 17.3524 cycles
L1I RQ	ACCESS:   60443232	FORWARD:          0	MERGED:   22197028	TO_CACHE:   38246204

BTB TOTAL     ACCESS:   29625893  HIT:   27968825  MISS:    1657068  HIT %:    94.4067  MISS %:    5.59331   MPKI: 8.28534
BTB BRANCH_DIRECT_JUMP	ACCESS:    2289443  HIT:    2287950  MISS:       1493
BTB BRANCH_INDIRECT	ACCESS:   12552908  HIT:   12006835  MISS:     546073
BTB BRANCH_CONDITIONAL	ACCESS:    7216617  HIT:    7214548  MISS:       2069
BTB BRANCH_DIRECT_CALL	ACCESS:    3333261  HIT:    3329718  MISS:       3543
BTB BRANCH_INDIRECT_CALL	ACCESS:     450198  HIT:     257229  MISS:     192969
BTB BRANCH_RETURN	ACCESS:    3783466  HIT:    2872545  MISS:     910921
BTB BRANCH_OTHER ACCESS:          0  HIT:          0  MISS:          0

L2C TOTAL     ACCESS:    3602385  HIT:    2936633  MISS:     665752  HIT %:    81.5191  MISS %:    18.4809   MPKI: 3.32876
L2C LOAD      ACCESS:     959530  HIT:     659007  MISS:     300523  HIT %:    68.6802  MISS %:    31.3198   MPKI: 1.50262
L2C DATA LOAD MPKI: 1.27134
L2C INSTRUCTION LOAD MPKI: 0.23127
L2C RFO       ACCESS:     120710  HIT:      12879  MISS:     107831  HIT %:    10.6694  MISS %:    89.3306   MPKI: 0.539155
L2C PREFETCH  ACCESS:     308183  HIT:      84652  MISS:     223531  HIT %:    27.4681  MISS %:    72.5319   MPKI: 1.11766
AGUS PREFETCH L1 MISS: 0
L2C DATA PREFETCH MPKI: 1.11766
L2C INSTRUCTION PREFETCH MPKI: 0
L2C WRITEBACK ACCESS:     176071  HIT:     171969  MISS:       4102  HIT %:    97.6703  MISS %:    2.32974   MPKI: 0.02051
L2C LOAD TRANSLATION ACCESS:     122293  HIT:      93128  MISS:      29165  HIT %:    76.1515  MISS %:    23.8485   MPKI: 0.145825
L2C TRANSLATION FROM L1D PREFETCHER ACCESS:    1915598  HIT:    1914998  MISS:        600  HIT %:    99.9687  MISS %:  0.0313218   MPKI: 0.003
L2C PREFETCH  REQUESTED:          0  ISSUED:          0  USEFUL:       5802  USELESS:     218417
L2C USEFUL LOAD PREFETCHES:       5802 PREFETCH ISSUED TO LOWER LEVEL:     223531  ACCURACY: 2.59561
L2C TIMELY PREFETCHES:       5802 LATE PREFETCHES: 0 DROPPED PREFETCHES: 0
L2C PREFETCHES SAME FILL-ORIGIN LEVEL: 0 DIFFERENT FILL-ORIGIN LEVEL: 0
L2C AVERAGE MISS LATENCY: 128.07 cycles
L2C RQ	ACCESS:    3118203	FORWARD:          0	MERGED:          0	TO_CACHE:    3118131
L2C WQ	ACCESS:     176071	FORWARD:         72	MERGED:          0	TO_CACHE:     176071
L2C PQ	ACCESS:     308183	FORWARD:          0	MERGED:          0	TO_CACHE:     308183

L2C Instructions Evicting Data 42143
L2C Translations Evicting Data 26093
L2C Data Evicting Data 517779
L2C Instructions Evicting Instructions 2172
L2C Translations Evicting Instructions 2167
L2C Data Evicting Instructions 41908
L2C Instructions Evicting Translations 1939
L2C Translations Evicting Translations 1505
L2C Data Evicting Translations 25944
L2C Dense regions hint from L2: 0
PSCL5 TOTAL     ACCESS:    1316368  HIT:    1316368  MISS:          0  HIT %:        100  MISS %:          0   MPKI: 0
PSCL5 LOAD TRANSLATION ACCESS:      85606  HIT:      85606  MISS:          0  HIT %:        100  MISS %:          0   MPKI: 0
PSCL5 TRANSLATION FROM L1D PREFETCHER ACCESS:    1230762  HIT:    1230762  MISS:          0  HIT %:        100  MISS %:          0   MPKI: 0
PSCL5 PREFETCH  REQUESTED:          0  ISSUED:          0  USEFUL:          0  USELESS:          0
PSCL5 USEFUL LOAD PREFETCHES:          0 PREFETCH ISSUED TO LOWER LEVEL:          0  ACCURACY: -nan
PSCL5 TIMELY PREFETCHES:          0 LATE PREFETCHES: 0 DROPPED PREFETCHES: 0
PSCL5 PREFETCHES SAME FILL-ORIGIN LEVEL: 0 DIFFERENT FILL-ORIGIN LEVEL: 0

PSCL4 TOTAL     ACCESS:    1313836  HIT:    1313688  MISS:        148  HIT %:    99.9887  MISS %:  0.0112647   MPKI: 0.00074
PSCL4 LOAD TRANSLATION ACCESS:      83926  HIT:      83778  MISS:        148  HIT %:    99.8237  MISS %:   0.176346   MPKI: 0.00074
PSCL4 TRANSLATION FROM L1D PREFETCHER ACCESS:    1229910  HIT:    1229910  MISS:          0  HIT %:        100  MISS %:          0   MPKI: 0
PSCL4 PREFETCH  REQUESTED:          0  ISSUED:          0  USEFUL:          0  USELESS:          0
PSCL4 USEFUL LOAD PREFETCHES:          0 PREFETCH ISSUED TO LOWER LEVEL:          0  ACCURACY: -nan
PSCL4 TIMELY PREFETCHES:          0 LATE PREFETCHES: 0 DROPPED PREFETCHES: 0
PSCL4 PREFETCHES SAME FILL-ORIGIN LEVEL: 0 DIFFERENT FILL-ORIGIN LEVEL: 0

PSCL3 TOTAL     ACCESS:    1309669  HIT:    1309114  MISS:        555  HIT %:    99.9576  MISS %:  0.0423771   MPKI: 0.002775
PSCL3 LOAD TRANSLATION ACCESS:      85276  HIT:      84721  MISS:        555  HIT %:    99.3492  MISS %:   0.650828   MPKI: 0.002775
PSCL3 TRANSLATION FROM L1D PREFETCHER ACCESS:    1224393  HIT:    1224393  MISS:          0  HIT %:        100  MISS %:          0   MPKI: 0
PSCL3 PREFETCH  REQUESTED:          0  ISSUED:          0  USEFUL:          0  USELESS:          0
PSCL3 USEFUL LOAD PREFETCHES:          0 PREFETCH ISSUED TO LOWER LEVEL:          0  ACCURACY: -nan
PSCL3 TIMELY PREFETCHES:          0 LATE PREFETCHES: 0 DROPPED PREFETCHES: 0
PSCL3 PREFETCHES SAME FILL-ORIGIN LEVEL: 0 DIFFERENT FILL-ORIGIN LEVEL: 0

PSCL2 TOTAL     ACCESS:     633124  HIT:     597044  MISS:      36080  HIT %:    94.3013  MISS %:    5.69873   MPKI: 0.1804
PSCL2 LOAD TRANSLATION ACCESS:      85702  HIT:      49622  MISS:      36080  HIT %:    57.9006  MISS %:    42.0994   MPKI: 0.1804
PSCL2 TRANSLATION FROM L1D PREFETCHER ACCESS:     547422  HIT:     547422  MISS:          0  HIT %:        100  MISS %:          0   MPKI: 0
PSCL2 PREFETCH  REQUESTED:          0  ISSUED:          0  USEFUL:          0  USELESS:          0
PSCL2 USEFUL LOAD PREFETCHES:          0 PREFETCH ISSUED TO LOWER LEVEL:          0  ACCURACY: -nan
PSCL2 TIMELY PREFETCHES:          0 LATE PREFETCHES: 0 DROPPED PREFETCHES: 0
PSCL2 PREFETCHES SAME FILL-ORIGIN LEVEL: 0 DIFFERENT FILL-ORIGIN LEVEL: 0

LLC TOTAL     ACCESS:     811408  HIT:     397302  MISS:     414106  HIT %:    48.9645  MISS %:    51.0355   MPKI: 2.07053
LLC LOAD      ACCESS:     300523  HIT:     111390  MISS:     189133  HIT %:    37.0654  MISS %:    62.9346   MPKI: 0.945665
LLC RFO       ACCESS:     107831  HIT:      45236  MISS:      62595  HIT %:    41.9508  MISS %:    58.0492   MPKI: 0.312975
LLC PREFETCH  ACCESS:     223529  HIT:      67776  MISS:     155753  HIT %:    30.3209  MISS %:    69.6791   MPKI: 0.778765
AGUS PREFETCH L1 MISS: 0
LLC WRITEBACK ACCESS:     149760  HIT:     146045  MISS:       3715  HIT %:    97.5194  MISS %:    2.48064   MPKI: 0.018575
LLC LOAD TRANSLATION ACCESS:      29165  HIT:      26509  MISS:       2656  HIT %:    90.8932  MISS %:    9.10681   MPKI: 0.01328
LLC TRANSLATION FROM L1D PREFETCHER ACCESS:        600  HIT:        346  MISS:        254  HIT %:    57.6667  MISS %:    42.3333   MPKI: 0.00127
LLC PREFETCH  REQUESTED:          0  ISSUED:          0  USEFUL:       3311  USELESS:     154456
LLC USEFUL LOAD PREFETCHES:       3311 PREFETCH ISSUED TO LOWER LEVEL:     155753  ACCURACY: 2.1258
LLC TIMELY PREFETCHES:       3311 LATE PREFETCHES: 0 DROPPED PREFETCHES: 0
LLC PREFETCHES SAME FILL-ORIGIN LEVEL: 0 DIFFERENT FILL-ORIGIN LEVEL: 0
LLC AVERAGE MISS LATENCY: 157.96 cycles
LLC RQ	ACCESS:     438119	FORWARD:          0	MERGED:          0	TO_CACHE:     438119
LLC WQ	ACCESS:     149760	FORWARD:          2	MERGED:          0	TO_CACHE:     149760
LLC PQ	ACCESS:     223531	FORWARD:          0	MERGED:          0	TO_CACHE:     223529

LLC Dense regions hint to LLC: 0

RAW hits: 2371168
Loads Generated: 51871374
Loads sent to L1D: 49500204
Stores Generated: 24164278
Stores sent to L1D: 24164282
Major fault: 0 Minor fault: 6162
Allocated PAGES: 6162
ucb ended

DRAM Statistics
 CHANNEL 0
 RQ ROW_BUFFER_HIT:      78406  ROW_BUFFER_MISS:     331945
 DBUS_CONGESTED:        417
 WQ ROW_BUFFER_HIT:      15393  ROW_BUFFER_MISS:      67967  FULL:          0

 AVG_CONGESTED_CYCLE: 5
 All warmup complete: 2
Channel 0 Bank busy for read cycles: 0
Channel 0 Bank busy for write cycles: 0
Channel 0
Rank 0
0banks busy for read cycles: 237632205
0banks busy for write cycles: 41538
1banks busy for read cycles: 12369554
1banks busy for write cycles: 6520964
2banks busy for read cycles: 13876587
2banks busy for write cycles: 1808040
3banks busy for read cycles: 1075070
3banks busy for write cycles: 453471
4banks busy for read cycles: 545933
4banks busy for write cycles: 185894
5banks busy for read cycles: 407205
5banks busy for write cycles: 128743
6banks busy for read cycles: 327157
6banks busy for write cycles: 116957
7banks busy for read cycles: 258642
7banks busy for write cycles: 136924
8banks busy for read cycles: 297975
8banks busy for write cycles: 231663

CPU 0 Branch Prediction Accuracy: 99.7859% MPKI: 0.39104 Average ROB Occupancy at Mispredict: 18.9688
Branch types
NOT_BRANCH: 163463153 81.7316%
BRANCH_DIRECT_JUMP: 2289443 1.14472%
BRANCH_INDIRECT: 12552908 6.27645%
BRANCH_CONDITIONAL: 14127333 7.06367%
BRANCH_DIRECT_CALL: 3333261 1.66663%
BRANCH_INDIRECT_CALL: 450198 0.225099%
BRANCH_RETURN: 3783466 1.89173%
BRANCH_OTHER: 0 0%

DRAM PAGES: 1048576
Allocated PAGES: 6162
