
*** ChampSim Multicore Out-of-Order Simulator ***

Warmup Instructions: 50000000
Simulation Instructions: 200000000
Number of CPUs: 1
LLC sets: 2048
LLC ways: 16
Off-chip DRAM Size: 4096 MB Channels: 1 Width: 64-bit Data Rate: 6400 MT/s
CPU 0 runs traces/spec2k17/srv_40.champsimtrace.xz
.xz
BTB has LRU replacement policy
ITLB has LRU replacement policy
DTLB has LRU replacement policy
STLB has LRU replacement policy
L1I has LRU replacement policy
L1D has LRU replacement policy
Initialize SRRIP state for L2C
Initialize DRRIP state for LLC
Offset table: -6 -5 -4 -3 -2 -1 1 2 3 4 5 6 
Offset table size: 12

Printing Sanity: 1

Round Robin Complete

Offset reward: 382 523 505 567 628 1827 942 871 836 763 409 425 
Offset reward size: 12

Offset count: 1 1 1 1 1 1 1 1 1 1 1 1 
Offset count size: 12

Printing Sanity: 2
n total: 12
Writing in data1.txt 

Writing done! 

Heartbeat CPU 0 instructions: 10000001 cycles: 2810853 heartbeat IPC: 3.55764 cumulative IPC: 3.55764 (Simulation time: 0 hr 0 min 23 sec) 
Heartbeat CPU 0 instructions: 20000003 cycles: 5832445 heartbeat IPC: 3.30951 cumulative IPC: 3.42909 (Simulation time: 0 hr 0 min 48 sec) 
Heartbeat CPU 0 instructions: 30000002 cycles: 8863197 heartbeat IPC: 3.29951 cumulative IPC: 3.38478 (Simulation time: 0 hr 1 min 13 sec) 
*** Reached end of trace for Core: 0 Repeating trace: traces/spec2k17/srv_40.champsimtrace.xz
Heartbeat CPU 0 instructions: 40000000 cycles: 11680579 heartbeat IPC: 3.54939 cumulative IPC: 3.42449 (Simulation time: 0 hr 1 min 36 sec) 
Heartbeat CPU 0 instructions: 50000003 cycles: 14696573 heartbeat IPC: 3.31566 cumulative IPC: 3.40215 (Simulation time: 0 hr 2 min 1 sec) 

Warmup complete CPU 0 instructions: 50000003 cycles: 14696573 (Simulation time: 0 hr 2 min 1 sec) 

Heartbeat CPU 0 instructions: 60000000 cycles: 28658376 heartbeat IPC: 0.71624 cumulative IPC: 0.71624 (Simulation time: 0 hr 2 min 29 sec) 
*** Reached end of trace for Core: 0 Repeating trace: traces/spec2k17/srv_40.champsimtrace.xz
Heartbeat CPU 0 instructions: 70000003 cycles: 44736053 heartbeat IPC: 0.621981 cumulative IPC: 0.66579 (Simulation time: 0 hr 3 min 0 sec) 
Heartbeat CPU 0 instructions: 80000001 cycles: 59919017 heartbeat IPC: 0.658633 cumulative IPC: 0.663387 (Simulation time: 0 hr 3 min 28 sec) 
Heartbeat CPU 0 instructions: 90000001 cycles: 73517384 heartbeat IPC: 0.735382 cumulative IPC: 0.680031 (Simulation time: 0 hr 3 min 56 sec) 
*** Reached end of trace for Core: 0 Repeating trace: traces/spec2k17/srv_40.champsimtrace.xz
Heartbeat CPU 0 instructions: 100000002 cycles: 89799623 heartbeat IPC: 0.614166 cumulative IPC: 0.665752 (Simulation time: 0 hr 4 min 27 sec) 
Heartbeat CPU 0 instructions: 110000000 cycles: 104960780 heartbeat IPC: 0.65958 cumulative IPC: 0.664715 (Simulation time: 0 hr 4 min 55 sec) 
Heartbeat CPU 0 instructions: 120000001 cycles: 118846531 heartbeat IPC: 0.720163 cumulative IPC: 0.672108 (Simulation time: 0 hr 5 min 24 sec) 
*** Reached end of trace for Core: 0 Repeating trace: traces/spec2k17/srv_40.champsimtrace.xz
Heartbeat CPU 0 instructions: 130000003 cycles: 135080900 heartbeat IPC: 0.615977 cumulative IPC: 0.664538 (Simulation time: 0 hr 5 min 55 sec) 
Heartbeat CPU 0 instructions: 140000003 cycles: 150093567 heartbeat IPC: 0.666104 cumulative IPC: 0.664712 (Simulation time: 0 hr 6 min 23 sec) 
Heartbeat CPU 0 instructions: 150000000 cycles: 163982779 heartbeat IPC: 0.719983 cumulative IPC: 0.669854 (Simulation time: 0 hr 6 min 51 sec) 
*** Reached end of trace for Core: 0 Repeating trace: traces/spec2k17/srv_40.champsimtrace.xz
Heartbeat CPU 0 instructions: 160000001 cycles: 180461118 heartbeat IPC: 0.606857 cumulative IPC: 0.663592 (Simulation time: 0 hr 7 min 21 sec) 
Heartbeat CPU 0 instructions: 170000000 cycles: 195372538 heartbeat IPC: 0.670627 cumulative IPC: 0.664172 (Simulation time: 0 hr 7 min 50 sec) 
Heartbeat CPU 0 instructions: 180000003 cycles: 209308536 heartbeat IPC: 0.717566 cumulative IPC: 0.667996 (Simulation time: 0 hr 8 min 18 sec) 
*** Reached end of trace for Core: 0 Repeating trace: traces/spec2k17/srv_40.champsimtrace.xz
Heartbeat CPU 0 instructions: 190000001 cycles: 225773523 heartbeat IPC: 0.607349 cumulative IPC: 0.663265 (Simulation time: 0 hr 8 min 49 sec) 
Heartbeat CPU 0 instructions: 200000002 cycles: 240568471 heartbeat IPC: 0.675906 cumulative IPC: 0.664093 (Simulation time: 0 hr 9 min 18 sec) 
Heartbeat CPU 0 instructions: 210000000 cycles: 254527379 heartbeat IPC: 0.716388 cumulative IPC: 0.667137 (Simulation time: 0 hr 9 min 46 sec) 
*** Reached end of trace for Core: 0 Repeating trace: traces/spec2k17/srv_40.champsimtrace.xz
Heartbeat CPU 0 instructions: 220000000 cycles: 271372248 heartbeat IPC: 0.593653 cumulative IPC: 0.662314 (Simulation time: 0 hr 10 min 16 sec) 
Heartbeat CPU 0 instructions: 230000000 cycles: 285949972 heartbeat IPC: 0.685978 cumulative IPC: 0.663586 (Simulation time: 0 hr 10 min 46 sec) 
Heartbeat CPU 0 instructions: 240000000 cycles: 299913191 heartbeat IPC: 0.716167 cumulative IPC: 0.66616 (Simulation time: 0 hr 11 min 14 sec) 
*** Reached end of trace for Core: 0 Repeating trace: traces/spec2k17/srv_40.champsimtrace.xz
Heartbeat CPU 0 instructions: 250000003 cycles: 316455892 heartbeat IPC: 0.604496 cumulative IPC: 0.66278 (Simulation time: 0 hr 11 min 44 sec) 
Finished CPU 0 instructions: 200000000 cycles: 301759319 cumulative IPC: 0.66278 (Simulation time: 0 hr 11 min 44 sec) 

ChampSim completed all CPUs

Region of Interest Statistics

CPU 0 cumulative IPC: 0.66278 instructions: 200000000 cycles: 301759319
ITLB TOTAL     ACCESS:   29012111  HIT:   28746620  MISS:     265491  HIT %:    99.0849  MISS %:   0.915104   MPKI: 1.32746
ITLB LOAD TRANSLATION ACCESS:   29012111  HIT:   28746620  MISS:     265491  HIT %:    99.0849  MISS %:   0.915104   MPKI: 1.32746
ITLB PREFETCH  REQUESTED:          0  ISSUED:          0  USEFUL:          0  USELESS:          0
ITLB USEFUL LOAD PREFETCHES:          0 PREFETCH ISSUED TO LOWER LEVEL:          0  ACCURACY: -nan
ITLB TIMELY PREFETCHES:          0 LATE PREFETCHES: 0 DROPPED PREFETCHES: 0
ITLB PREFETCHES SAME FILL-ORIGIN LEVEL: 0 DIFFERENT FILL-ORIGIN LEVEL: 0
ITLB AVERAGE MISS LATENCY: 11.4979 cycles
ITLB RQ	ACCESS:   37687846	FORWARD:          0	MERGED:    8581977	TO_CACHE:   29105869

DTLB TOTAL     ACCESS:   36826637  HIT:   36512106  MISS:     314531  HIT %:    99.1459  MISS %:   0.854086   MPKI: 1.57265
DTLB LOAD TRANSLATION ACCESS:   36826637  HIT:   36512106  MISS:     314531  HIT %:    99.1459  MISS %:   0.854086   MPKI: 1.57265
DTLB PREFETCH  REQUESTED:          0  ISSUED:          0  USEFUL:          0  USELESS:          0
DTLB USEFUL LOAD PREFETCHES:          0 PREFETCH ISSUED TO LOWER LEVEL:          0  ACCURACY: -nan
DTLB TIMELY PREFETCHES:          0 LATE PREFETCHES: 0 DROPPED PREFETCHES: 0
DTLB PREFETCHES SAME FILL-ORIGIN LEVEL: 0 DIFFERENT FILL-ORIGIN LEVEL: 0
DTLB AVERAGE MISS LATENCY: 21.6323 cycles
DTLB RQ	ACCESS:   54981786	FORWARD:          0	MERGED:   18053420	TO_CACHE:   36928366

STLB TOTAL     ACCESS:   25095778  HIT:   25047937  MISS:      47841  HIT %:    99.8094  MISS %:   0.190634   MPKI: 0.239205
STLB LOAD TRANSLATION ACCESS:     580022  HIT:     535950  MISS:      44072  HIT %:    92.4017  MISS %:    7.59833   MPKI: 0.22036
STLB TRANSLATION FROM L1D PREFETCHER ACCESS:   24515756  HIT:   24511987  MISS:       3769  HIT %:    99.9846  MISS %:  0.0153738   MPKI: 0.018845
STLB PREFETCH  REQUESTED:          0  ISSUED:          0  USEFUL:       3761  USELESS:          9
STLB USEFUL LOAD PREFETCHES:       3761 PREFETCH ISSUED TO LOWER LEVEL:          0  ACCURACY: inf
STLB TIMELY PREFETCHES:       3761 LATE PREFETCHES: 322 DROPPED PREFETCHES: 239678
STLB PREFETCHES SAME FILL-ORIGIN LEVEL: 0 DIFFERENT FILL-ORIGIN LEVEL: 0
STLB AVERAGE MISS LATENCY: 290853 cycles
STLB RQ	ACCESS:   42667249	FORWARD:          0	MERGED:   17329655	TO_CACHE:   25337594

STLB Hit, L1D data hit: 0
STLB Hit, L2C data hit: 0
STLB Hit, LLC data hit: 0
STLB Hit, LLC data miss: 0
STLB STLB hints to L2: 0
L1D TOTAL     ACCESS:   93242302  HIT:   90193574  MISS:    3048728  HIT %:    96.7303  MISS %:    3.26968   MPKI: 15.2436
L1D LOAD      ACCESS:   43007866  HIT:   41844820  MISS:    1163046  HIT %:    97.2957  MISS %:    2.70426   MPKI: 5.81523
L1D RFO       ACCESS:    8894759  HIT:    7801165  MISS:    1093594  HIT %:    87.7052  MISS %:    12.2948   MPKI: 5.46797
L1D PREFETCH  ACCESS:   41339677  HIT:   40547589  MISS:     792088  HIT %:     98.084  MISS %:    1.91605   MPKI: 3.96044
AGUS PREFETCH L1 MISS: 0
L1D PREFETCH  REQUESTED:   85146119  ISSUED:   85133790  USEFUL:     279363  USELESS:     512562
L1D USEFUL LOAD PREFETCHES:     279363 PREFETCH ISSUED TO LOWER LEVEL:     913815  ACCURACY: 30.5711
L1D TIMELY PREFETCHES:     279363 LATE PREFETCHES: 120182 DROPPED PREFETCHES: 243153
L1D PREFETCHES SAME FILL-ORIGIN LEVEL: 913815 DIFFERENT FILL-ORIGIN LEVEL: 0
L1D AVERAGE MISS LATENCY: 6.29004e+06 cycles
L1D RQ	ACCESS:   49905574	FORWARD:          0	MERGED:    6728891	TO_CACHE:   43058890
L1D WQ	ACCESS:   12021205	FORWARD:     124374	MERGED:      98309	TO_CACHE:   11922896
L1D PQ	ACCESS:   43046563	FORWARD:          0	MERGED:     952755	TO_CACHE:   42087227

L1D UNIQUE REGIONS ACCESSED: 0
L1D REGIONS CONFLICTS: 0
L1D Cross Page Prefetch Requests: 1298938
L1D Same Page Prefetch Requests: 51825853
L1D ROI Sum of L1D PQ occupancy: 547843065
L1D PREFETCHES PUSHED FROM L2C: 0
L1I TOTAL     ACCESS:   37346404  HIT:   36077982  MISS:    1268422  HIT %:    96.6036  MISS %:    3.39637   MPKI: 6.34211
L1I LOAD      ACCESS:   37346404  HIT:   36077982  MISS:    1268422  HIT %:    96.6036  MISS %:    3.39637   MPKI: 6.34211
L1I PREFETCH  REQUESTED:          0  ISSUED:          0  USEFUL:          0  USELESS:          0
L1I USEFUL LOAD PREFETCHES:          0 PREFETCH ISSUED TO LOWER LEVEL:          0  ACCURACY: -nan
L1I TIMELY PREFETCHES:          0 LATE PREFETCHES: 0 DROPPED PREFETCHES: 0
L1I PREFETCHES SAME FILL-ORIGIN LEVEL: 0 DIFFERENT FILL-ORIGIN LEVEL: 0
L1I AVERAGE MISS LATENCY: 27.979 cycles
L1I RQ	ACCESS:   53196315	FORWARD:          0	MERGED:   15508469	TO_CACHE:   37687846

BTB TOTAL     ACCESS:   13141774  HIT:   12087725  MISS:    1054049  HIT %:    91.9794  MISS %:     8.0206   MPKI: 5.27025
BTB BRANCH_DIRECT_JUMP	ACCESS:    1417007  HIT:    1361695  MISS:      55312
BTB BRANCH_INDIRECT	ACCESS:    4725365  HIT:    4385102  MISS:     340263
BTB BRANCH_CONDITIONAL	ACCESS:    4838896  HIT:    4776121  MISS:      62775
BTB BRANCH_DIRECT_CALL	ACCESS:     958452  HIT:     856613  MISS:     101839
BTB BRANCH_INDIRECT_CALL	ACCESS:     121813  HIT:      97196  MISS:      24617
BTB BRANCH_RETURN	ACCESS:    1080241  HIT:     610998  MISS:     469243
BTB BRANCH_OTHER ACCESS:          0  HIT:          0  MISS:          0

L2C TOTAL     ACCESS:    5964887  HIT:    3931472  MISS:    2033415  HIT %:    65.9103  MISS %:    34.0897   MPKI: 10.1671
L2C LOAD      ACCESS:    2311251  HIT:    1598142  MISS:     713109  HIT %:    69.1462  MISS %:    30.8538   MPKI: 3.56555
L2C DATA LOAD MPKI: 2.2151
L2C INSTRUCTION LOAD MPKI: 1.35044
L2C RFO       ACCESS:    1091920  HIT:     127357  MISS:     964563  HIT %:    11.6636  MISS %:    88.3364   MPKI: 4.82282
L2C PREFETCH  ACCESS:     913785  HIT:     596538  MISS:     317247  HIT %:    65.2821  MISS %:    34.7179   MPKI: 1.58624
AGUS PREFETCH L1 MISS: 0
L2C DATA PREFETCH MPKI: 1.58624
L2C INSTRUCTION PREFETCH MPKI: 0
L2C WRITEBACK ACCESS:    1339807  HIT:    1326186  MISS:      13621  HIT %:    98.9834  MISS %:    1.01664   MPKI: 0.068105
L2C LOAD TRANSLATION ACCESS:      56175  HIT:      34208  MISS:      21967  HIT %:    60.8954  MISS %:    39.1046   MPKI: 0.109835
L2C TRANSLATION FROM L1D PREFETCHER ACCESS:     251949  HIT:     249041  MISS:       2908  HIT %:    98.8458  MISS %:     1.1542   MPKI: 0.01454
L2C PREFETCH  REQUESTED:          0  ISSUED:          0  USEFUL:      18533  USELESS:     301293
L2C USEFUL LOAD PREFETCHES:      18533 PREFETCH ISSUED TO LOWER LEVEL:     317248  ACCURACY: 5.8418
L2C TIMELY PREFETCHES:      18533 LATE PREFETCHES: 0 DROPPED PREFETCHES: 0
L2C PREFETCHES SAME FILL-ORIGIN LEVEL: 0 DIFFERENT FILL-ORIGIN LEVEL: 0
L2C AVERAGE MISS LATENCY: 250.009 cycles
L2C RQ	ACCESS:    3711460	FORWARD:          0	MERGED:          0	TO_CACHE:    3711295
L2C WQ	ACCESS:    1339807	FORWARD:        194	MERGED:          0	TO_CACHE:    1339807
L2C PQ	ACCESS:     913815	FORWARD:          0	MERGED:          0	TO_CACHE:     913786

L2C Instructions Evicting Data 152906
L2C Translations Evicting Data 16816
L2C Data Evicting Data 1560679
L2C Instructions Evicting Instructions 109432
L2C Translations Evicting Instructions 7380
L2C Data Evicting Instructions 148198
L2C Instructions Evicting Translations 7751
L2C Translations Evicting Translations 679
L2C Data Evicting Translations 15953
L2C Dense regions hint from L2: 0
PSCL5 TOTAL     ACCESS:     287519  HIT:     287519  MISS:          0  HIT %:        100  MISS %:          0   MPKI: 0
PSCL5 LOAD TRANSLATION ACCESS:      43750  HIT:      43750  MISS:          0  HIT %:        100  MISS %:          0   MPKI: 0
PSCL5 TRANSLATION FROM L1D PREFETCHER ACCESS:     243769  HIT:     243769  MISS:          0  HIT %:        100  MISS %:          0   MPKI: 0
PSCL5 PREFETCH  REQUESTED:          0  ISSUED:          0  USEFUL:          0  USELESS:          0
PSCL5 USEFUL LOAD PREFETCHES:          0 PREFETCH ISSUED TO LOWER LEVEL:          0  ACCURACY: -nan
PSCL5 TIMELY PREFETCHES:          0 LATE PREFETCHES: 0 DROPPED PREFETCHES: 0
PSCL5 PREFETCHES SAME FILL-ORIGIN LEVEL: 0 DIFFERENT FILL-ORIGIN LEVEL: 0

PSCL4 TOTAL     ACCESS:     286714  HIT:     286574  MISS:        140  HIT %:    99.9512  MISS %:  0.0488291   MPKI: 0.0007
PSCL4 LOAD TRANSLATION ACCESS:      43265  HIT:      43125  MISS:        140  HIT %:    99.6764  MISS %:   0.323587   MPKI: 0.0007
PSCL4 TRANSLATION FROM L1D PREFETCHER ACCESS:     243449  HIT:     243449  MISS:          0  HIT %:        100  MISS %:          0   MPKI: 0
PSCL4 PREFETCH  REQUESTED:          0  ISSUED:          0  USEFUL:          0  USELESS:          0
PSCL4 USEFUL LOAD PREFETCHES:          0 PREFETCH ISSUED TO LOWER LEVEL:          0  ACCURACY: -nan
PSCL4 TIMELY PREFETCHES:          0 LATE PREFETCHES: 0 DROPPED PREFETCHES: 0
PSCL4 PREFETCHES SAME FILL-ORIGIN LEVEL: 0 DIFFERENT FILL-ORIGIN LEVEL: 0

PSCL3 TOTAL     ACCESS:     272579  HIT:     269249  MISS:       3330  HIT %:    98.7783  MISS %:    1.22166   MPKI: 0.01665
PSCL3 LOAD TRANSLATION ACCESS:      36740  HIT:      33410  MISS:       3330  HIT %:    90.9363  MISS %:    9.06369   MPKI: 0.01665
PSCL3 TRANSLATION FROM L1D PREFETCHER ACCESS:     235839  HIT:     235839  MISS:          0  HIT %:        100  MISS %:          0   MPKI: 0
PSCL3 PREFETCH  REQUESTED:          0  ISSUED:          0  USEFUL:          0  USELESS:          0
PSCL3 USEFUL LOAD PREFETCHES:          0 PREFETCH ISSUED TO LOWER LEVEL:          0  ACCURACY: -nan
PSCL3 TIMELY PREFETCHES:          0 LATE PREFETCHES: 0 DROPPED PREFETCHES: 0
PSCL3 PREFETCHES SAME FILL-ORIGIN LEVEL: 0 DIFFERENT FILL-ORIGIN LEVEL: 0

PSCL2 TOTAL     ACCESS:     277714  HIT:     268619  MISS:       9095  HIT %:     96.725  MISS %:    3.27495   MPKI: 0.045475
PSCL2 LOAD TRANSLATION ACCESS:      43850  HIT:      34755  MISS:       9095  HIT %:    79.2588  MISS %:    20.7412   MPKI: 0.045475
PSCL2 TRANSLATION FROM L1D PREFETCHER ACCESS:     233864  HIT:     233864  MISS:          0  HIT %:        100  MISS %:          0   MPKI: 0
PSCL2 PREFETCH  REQUESTED:          0  ISSUED:          0  USEFUL:          0  USELESS:          0
PSCL2 USEFUL LOAD PREFETCHES:          0 PREFETCH ISSUED TO LOWER LEVEL:          0  ACCURACY: -nan
PSCL2 TIMELY PREFETCHES:          0 LATE PREFETCHES: 0 DROPPED PREFETCHES: 0
PSCL2 PREFETCHES SAME FILL-ORIGIN LEVEL: 0 DIFFERENT FILL-ORIGIN LEVEL: 0

LLC TOTAL     ACCESS:    3061102  HIT:    1418801  MISS:    1642301  HIT %:    46.3494  MISS %:    53.6506   MPKI: 8.21151
LLC LOAD      ACCESS:     713109  HIT:     270473  MISS:     442636  HIT %:    37.9287  MISS %:    62.0713   MPKI: 2.21318
LLC RFO       ACCESS:     964562  HIT:      18376  MISS:     946186  HIT %:    1.90511  MISS %:    98.0949   MPKI: 4.73093
LLC PREFETCH  ACCESS:     317248  HIT:      99981  MISS:     217267  HIT %:    31.5151  MISS %:    68.4849   MPKI: 1.08634
AGUS PREFETCH L1 MISS: 0
LLC WRITEBACK ACCESS:    1041308  HIT:    1020172  MISS:      21136  HIT %:    97.9702  MISS %:    2.02975   MPKI: 0.10568
LLC LOAD TRANSLATION ACCESS:      21967  HIT:       8953  MISS:      13014  HIT %:    40.7566  MISS %:    59.2434   MPKI: 0.06507
LLC TRANSLATION FROM L1D PREFETCHER ACCESS:       2908  HIT:        846  MISS:       2062  HIT %:    29.0922  MISS %:    70.9078   MPKI: 0.01031
LLC PREFETCH  REQUESTED:          0  ISSUED:          0  USEFUL:       5922  USELESS:     214658
LLC USEFUL LOAD PREFETCHES:       5922 PREFETCH ISSUED TO LOWER LEVEL:     217267  ACCURACY: 2.72568
LLC TIMELY PREFETCHES:       5922 LATE PREFETCHES: 0 DROPPED PREFETCHES: 0
LLC PREFETCHES SAME FILL-ORIGIN LEVEL: 0 DIFFERENT FILL-ORIGIN LEVEL: 0
LLC AVERAGE MISS LATENCY: 272.653 cycles
LLC RQ	ACCESS:    1702547	FORWARD:          0	MERGED:          0	TO_CACHE:    1702546
LLC WQ	ACCESS:    1041308	FORWARD:          1	MERGED:          0	TO_CACHE:    1041308
LLC PQ	ACCESS:     317248	FORWARD:          0	MERGED:          0	TO_CACHE:     317248

LLC Dense regions hint to LLC: 0

RAW hits: 892883
Loads Generated: 50798456
Loads sent to L1D: 49905574
Stores Generated: 12021210
Stores sent to L1D: 12021205
Major fault: 0 Minor fault: 6461
Allocated PAGES: 6461
ucb ended

DRAM Statistics
 CHANNEL 0
 RQ ROW_BUFFER_HIT:     558541  ROW_BUFFER_MISS:    1062620
 DBUS_CONGESTED:        544
 WQ ROW_BUFFER_HIT:     189733  ROW_BUFFER_MISS:     818849  FULL:          0

 AVG_CONGESTED_CYCLE: 3
 All warmup complete: 2
Channel 0 Bank busy for read cycles: 0
Channel 0 Bank busy for write cycles: 0
Channel 0
Rank 0
0banks busy for read cycles: 220713664
0banks busy for write cycles: 48873
1banks busy for read cycles: 16643612
1banks busy for write cycles: 6679259
2banks busy for read cycles: 7092481
2banks busy for write cycles: 3343429
3banks busy for read cycles: 2073167
3banks busy for write cycles: 2022491
4banks busy for read cycles: 1689117
4banks busy for write cycles: 1394975
5banks busy for read cycles: 883179
5banks busy for write cycles: 989879
6banks busy for read cycles: 1487802
6banks busy for write cycles: 859596
7banks busy for read cycles: 1814123
7banks busy for write cycles: 1652652
8banks busy for read cycles: 14953731
8banks busy for write cycles: 17417290

CPU 0 Branch Prediction Accuracy: 99.6381% MPKI: 0.27243 Average ROB Occupancy at Mispredict: 46.7008
Branch types
NOT_BRANCH: 184943571 92.4718%
BRANCH_DIRECT_JUMP: 1417007 0.708503%
BRANCH_INDIRECT: 4725365 2.36268%
BRANCH_CONDITIONAL: 6753203 3.3766%
BRANCH_DIRECT_CALL: 958452 0.479226%
BRANCH_INDIRECT_CALL: 121813 0.0609065%
BRANCH_RETURN: 1080241 0.540121%
BRANCH_OTHER: 0 0%

DRAM PAGES: 1048576
Allocated PAGES: 6461
