
*** ChampSim Multicore Out-of-Order Simulator ***

Warmup Instructions: 50000000
Simulation Instructions: 200000000
Number of CPUs: 1
LLC sets: 2048
LLC ways: 16
Off-chip DRAM Size: 4096 MB Channels: 1 Width: 64-bit Data Rate: 6400 MT/s
CPU 0 runs traces/spec2k17/srv_65.champsimtrace.xz
.xz
BTB has LRU replacement policy
ITLB has LRU replacement policy
DTLB has LRU replacement policy
STLB has LRU replacement policy
L1I has LRU replacement policy
L1D has LRU replacement policy
Initialize SRRIP state for L2C
Initialize DRRIP state for LLC
Offset table: -6 -5 -4 -3 -2 -1 1 2 3 4 5 6 
Offset table size: 12

Printing Sanity: 1

Round Robin Complete

Offset reward: 234 379 335 267 554 1320 1608 238 379 190 311 303 
Offset reward size: 12

Offset count: 1 1 1 1 1 1 1 1 1 1 1 1 
Offset count size: 12

Printing Sanity: 2
n total: 12
Writing in data1.txt 

Writing done! 

Heartbeat CPU 0 instructions: 10000003 cycles: 2797376 heartbeat IPC: 3.57478 cumulative IPC: 3.57478 (Simulation time: 0 hr 0 min 22 sec) 
Heartbeat CPU 0 instructions: 20000001 cycles: 5587846 heartbeat IPC: 3.58363 cumulative IPC: 3.5792 (Simulation time: 0 hr 0 min 43 sec) 
Heartbeat CPU 0 instructions: 30000003 cycles: 8368151 heartbeat IPC: 3.59673 cumulative IPC: 3.58502 (Simulation time: 0 hr 1 min 4 sec) 
*** Reached end of trace for Core: 0 Repeating trace: traces/spec2k17/srv_65.champsimtrace.xz
Heartbeat CPU 0 instructions: 40000003 cycles: 11152626 heartbeat IPC: 3.59134 cumulative IPC: 3.5866 (Simulation time: 0 hr 1 min 26 sec) 
Heartbeat CPU 0 instructions: 50000001 cycles: 13941871 heartbeat IPC: 3.5852 cumulative IPC: 3.58632 (Simulation time: 0 hr 1 min 47 sec) 

Warmup complete CPU 0 instructions: 50000001 cycles: 13941871 (Simulation time: 0 hr 1 min 47 sec) 

Heartbeat CPU 0 instructions: 60000003 cycles: 35556151 heartbeat IPC: 0.462657 cumulative IPC: 0.462657 (Simulation time: 0 hr 2 min 20 sec) 
*** Reached end of trace for Core: 0 Repeating trace: traces/spec2k17/srv_65.champsimtrace.xz
Heartbeat CPU 0 instructions: 70000002 cycles: 57449021 heartbeat IPC: 0.45677 cumulative IPC: 0.459695 (Simulation time: 0 hr 2 min 53 sec) 
Heartbeat CPU 0 instructions: 80000003 cycles: 79366006 heartbeat IPC: 0.456267 cumulative IPC: 0.458546 (Simulation time: 0 hr 3 min 27 sec) 
Heartbeat CPU 0 instructions: 90000001 cycles: 101184541 heartbeat IPC: 0.458326 cumulative IPC: 0.458491 (Simulation time: 0 hr 4 min 0 sec) 
*** Reached end of trace for Core: 0 Repeating trace: traces/spec2k17/srv_65.champsimtrace.xz
Heartbeat CPU 0 instructions: 100000002 cycles: 123088351 heartbeat IPC: 0.456542 cumulative IPC: 0.4581 (Simulation time: 0 hr 4 min 33 sec) 
Heartbeat CPU 0 instructions: 110000000 cycles: 144806898 heartbeat IPC: 0.460436 cumulative IPC: 0.458488 (Simulation time: 0 hr 5 min 7 sec) 
Heartbeat CPU 0 instructions: 120000003 cycles: 166705476 heartbeat IPC: 0.456651 cumulative IPC: 0.458224 (Simulation time: 0 hr 5 min 40 sec) 
*** Reached end of trace for Core: 0 Repeating trace: traces/spec2k17/srv_65.champsimtrace.xz
Heartbeat CPU 0 instructions: 130000000 cycles: 188548890 heartbeat IPC: 0.457804 cumulative IPC: 0.458172 (Simulation time: 0 hr 6 min 13 sec) 
Heartbeat CPU 0 instructions: 140000003 cycles: 210331501 heartbeat IPC: 0.459082 cumulative IPC: 0.458273 (Simulation time: 0 hr 6 min 46 sec) 
Heartbeat CPU 0 instructions: 150000001 cycles: 232168592 heartbeat IPC: 0.457936 cumulative IPC: 0.458239 (Simulation time: 0 hr 7 min 19 sec) 
*** Reached end of trace for Core: 0 Repeating trace: traces/spec2k17/srv_65.champsimtrace.xz
Heartbeat CPU 0 instructions: 160000003 cycles: 253906789 heartbeat IPC: 0.46002 cumulative IPC: 0.4584 (Simulation time: 0 hr 7 min 52 sec) 
Heartbeat CPU 0 instructions: 170000002 cycles: 275787333 heartbeat IPC: 0.457027 cumulative IPC: 0.458286 (Simulation time: 0 hr 8 min 25 sec) 
Heartbeat CPU 0 instructions: 180000000 cycles: 297634014 heartbeat IPC: 0.457735 cumulative IPC: 0.458243 (Simulation time: 0 hr 8 min 59 sec) 
*** Reached end of trace for Core: 0 Repeating trace: traces/spec2k17/srv_65.champsimtrace.xz
Heartbeat CPU 0 instructions: 190000003 cycles: 319119290 heartbeat IPC: 0.465435 cumulative IPC: 0.45875 (Simulation time: 0 hr 9 min 32 sec) 
Heartbeat CPU 0 instructions: 200000000 cycles: 341143440 heartbeat IPC: 0.454047 cumulative IPC: 0.458433 (Simulation time: 0 hr 10 min 5 sec) 
Heartbeat CPU 0 instructions: 210000000 cycles: 363055221 heartbeat IPC: 0.456376 cumulative IPC: 0.458304 (Simulation time: 0 hr 10 min 39 sec) 
*** Reached end of trace for Core: 0 Repeating trace: traces/spec2k17/srv_65.champsimtrace.xz
Heartbeat CPU 0 instructions: 220000000 cycles: 384744580 heartbeat IPC: 0.461056 cumulative IPC: 0.458465 (Simulation time: 0 hr 11 min 13 sec) 
Heartbeat CPU 0 instructions: 230000001 cycles: 406791305 heartbeat IPC: 0.453582 cumulative IPC: 0.458191 (Simulation time: 0 hr 11 min 47 sec) 
Heartbeat CPU 0 instructions: 240000000 cycles: 428764344 heartbeat IPC: 0.455103 cumulative IPC: 0.458027 (Simulation time: 0 hr 12 min 20 sec) 
*** Reached end of trace for Core: 0 Repeating trace: traces/spec2k17/srv_65.champsimtrace.xz
Heartbeat CPU 0 instructions: 250000002 cycles: 450344592 heartbeat IPC: 0.463387 cumulative IPC: 0.458292 (Simulation time: 0 hr 12 min 53 sec) 
Finished CPU 0 instructions: 200000001 cycles: 436402721 cumulative IPC: 0.458292 (Simulation time: 0 hr 12 min 53 sec) 

ChampSim completed all CPUs

Region of Interest Statistics

CPU 0 cumulative IPC: 0.458292 instructions: 200000001 cycles: 436402721
ITLB TOTAL     ACCESS:   31223677  HIT:   30420967  MISS:     802710  HIT %:    97.4292  MISS %:    2.57084   MPKI: 4.01355
ITLB LOAD TRANSLATION ACCESS:   31223677  HIT:   30420967  MISS:     802710  HIT %:    97.4292  MISS %:    2.57084   MPKI: 4.01355
ITLB PREFETCH  REQUESTED:          0  ISSUED:          0  USEFUL:          0  USELESS:          0
ITLB USEFUL LOAD PREFETCHES:          0 PREFETCH ISSUED TO LOWER LEVEL:          0  ACCURACY: -nan
ITLB TIMELY PREFETCHES:          0 LATE PREFETCHES: 0 DROPPED PREFETCHES: 0
ITLB PREFETCHES SAME FILL-ORIGIN LEVEL: 0 DIFFERENT FILL-ORIGIN LEVEL: 0
ITLB AVERAGE MISS LATENCY: 13.6557 cycles
ITLB RQ	ACCESS:   38107943	FORWARD:          0	MERGED:    6681422	TO_CACHE:   31426521

DTLB TOTAL     ACCESS:   37132551  HIT:   34783746  MISS:    2348805  HIT %:    93.6745  MISS %:    6.32546   MPKI: 11.744
DTLB LOAD TRANSLATION ACCESS:   37132551  HIT:   34783746  MISS:    2348805  HIT %:    93.6745  MISS %:    6.32546   MPKI: 11.744
DTLB PREFETCH  REQUESTED:          0  ISSUED:          0  USEFUL:          0  USELESS:          0
DTLB USEFUL LOAD PREFETCHES:          0 PREFETCH ISSUED TO LOWER LEVEL:          0  ACCURACY: -nan
DTLB TIMELY PREFETCHES:          0 LATE PREFETCHES: 0 DROPPED PREFETCHES: 0
DTLB PREFETCHES SAME FILL-ORIGIN LEVEL: 0 DIFFERENT FILL-ORIGIN LEVEL: 0
DTLB AVERAGE MISS LATENCY: 14.158 cycles
DTLB RQ	ACCESS:   47542306	FORWARD:          0	MERGED:   10258078	TO_CACHE:   37284228

STLB TOTAL     ACCESS:   25010279  HIT:   24693973  MISS:     316306  HIT %:    98.7353  MISS %:     1.2647   MPKI: 1.58153
STLB LOAD TRANSLATION ACCESS:    3151515  HIT:    2839533  MISS:     311982  HIT %:    90.1006  MISS %:    9.89943   MPKI: 1.55991
STLB TRANSLATION FROM L1D PREFETCHER ACCESS:   21858764  HIT:   21854440  MISS:       4324  HIT %:    99.9802  MISS %:  0.0197815   MPKI: 0.02162
STLB PREFETCH  REQUESTED:          0  ISSUED:          0  USEFUL:       3903  USELESS:        421
STLB USEFUL LOAD PREFETCHES:       3903 PREFETCH ISSUED TO LOWER LEVEL:          0  ACCURACY: inf
STLB TIMELY PREFETCHES:       3903 LATE PREFETCHES: 227 DROPPED PREFETCHES: 849922
STLB PREFETCHES SAME FILL-ORIGIN LEVEL: 0 DIFFERENT FILL-ORIGIN LEVEL: 0
STLB AVERAGE MISS LATENCY: 50.3542 cycles
STLB RQ	ACCESS:   29829143	FORWARD:          0	MERGED:    3968029	TO_CACHE:   25861114

STLB Hit, L1D data hit: 0
STLB Hit, L2C data hit: 0
STLB Hit, LLC data hit: 0
STLB Hit, LLC data miss: 0
STLB STLB hints to L2: 0
L1D TOTAL     ACCESS:   72597470  HIT:   68450172  MISS:    4147298  HIT %:    94.2873  MISS %:    5.71273   MPKI: 20.7365
L1D LOAD      ACCESS:   27546941  HIT:   25510632  MISS:    2036309  HIT %:    92.6079  MISS %:    7.39214   MPKI: 10.1815
L1D RFO       ACCESS:   19553247  HIT:   19255145  MISS:     298102  HIT %:    98.4754  MISS %:    1.52457   MPKI: 1.49051
L1D PREFETCH  ACCESS:   25497282  HIT:   23684395  MISS:    1812887  HIT %:    92.8899  MISS %:    7.11012   MPKI: 9.06443
AGUS PREFETCH L1 MISS: 0
L1D PREFETCH  REQUESTED:   54335324  ISSUED:   54335200  USEFUL:     405981  USELESS:    1406952
L1D USEFUL LOAD PREFETCHES:     405981 PREFETCH ISSUED TO LOWER LEVEL:    1848785  ACCURACY: 21.9593
L1D TIMELY PREFETCHES:     405981 LATE PREFETCHES: 33802 DROPPED PREFETCHES: 871106
L1D PREFETCHES SAME FILL-ORIGIN LEVEL: 1848785 DIFFERENT FILL-ORIGIN LEVEL: 0
L1D AVERAGE MISS LATENCY: 1.90256e+06 cycles
L1D RQ	ACCESS:   42083327	FORWARD:          0	MERGED:   14200618	TO_CACHE:   27657695
L1D WQ	ACCESS:   20212215	FORWARD:     270196	MERGED:     327604	TO_CACHE:   19884611
L1D PQ	ACCESS:   27657572	FORWARD:          0	MERGED:     934762	TO_CACHE:   26677628

L1D UNIQUE REGIONS ACCESSED: 0
L1D REGIONS CONFLICTS: 0
L1D Cross Page Prefetch Requests: 1751784
L1D Same Page Prefetch Requests: 32747837
L1D ROI Sum of L1D PQ occupancy: 401850597
L1D PREFETCHES PUSHED FROM L2C: 0
L1I TOTAL     ACCESS:   36280803  HIT:   31176369  MISS:    5104434  HIT %:    85.9308  MISS %:    14.0692   MPKI: 25.5222
L1I LOAD      ACCESS:   36280803  HIT:   31176369  MISS:    5104434  HIT %:    85.9308  MISS %:    14.0692   MPKI: 25.5222
L1I PREFETCH  REQUESTED:          0  ISSUED:          0  USEFUL:          0  USELESS:          0
L1I USEFUL LOAD PREFETCHES:          0 PREFETCH ISSUED TO LOWER LEVEL:          0  ACCURACY: -nan
L1I TIMELY PREFETCHES:          0 LATE PREFETCHES: 0 DROPPED PREFETCHES: 0
L1I PREFETCHES SAME FILL-ORIGIN LEVEL: 0 DIFFERENT FILL-ORIGIN LEVEL: 0
L1I AVERAGE MISS LATENCY: 26.8213 cycles
L1I RQ	ACCESS:   57186148	FORWARD:          0	MERGED:   19078205	TO_CACHE:   38107943

BTB TOTAL     ACCESS:   22272077  HIT:   18096398  MISS:    4175679  HIT %:    81.2515  MISS %:    18.7485   MPKI: 20.8784
BTB BRANCH_DIRECT_JUMP	ACCESS:    1788227  HIT:    1559566  MISS:     228661
BTB BRANCH_INDIRECT	ACCESS:    9557706  HIT:    7536372  MISS:    2021334
BTB BRANCH_CONDITIONAL	ACCESS:    4545175  HIT:    4171652  MISS:     373523
BTB BRANCH_DIRECT_CALL	ACCESS:    2503115  HIT:    2056656  MISS:     446459
BTB BRANCH_INDIRECT_CALL	ACCESS:     686553  HIT:     645372  MISS:      41181
BTB BRANCH_RETURN	ACCESS:    3191301  HIT:    2126780  MISS:    1064521
BTB BRANCH_OTHER ACCESS:          0  HIT:          0  MISS:          0

L2C TOTAL     ACCESS:   12266871  HIT:    8016501  MISS:    4250370  HIT %:    65.3508  MISS %:    34.6492   MPKI: 21.2518
L2C LOAD      ACCESS:    7106665  HIT:    4168337  MISS:    2938328  HIT %:    58.6539  MISS %:    41.3461   MPKI: 14.6916
L2C DATA LOAD MPKI: 4.0924
L2C INSTRUCTION LOAD MPKI: 10.5992
L2C RFO       ACCESS:     295996  HIT:     169264  MISS:     126732  HIT %:    57.1846  MISS %:    42.8154   MPKI: 0.63366
L2C PREFETCH  ACCESS:    1848595  HIT:     899223  MISS:     949372  HIT %:    48.6436  MISS %:    51.3564   MPKI: 4.74686
AGUS PREFETCH L1 MISS: 0
L2C DATA PREFETCH MPKI: 4.74686
L2C INSTRUCTION PREFETCH MPKI: 0
L2C WRITEBACK ACCESS:    1094378  HIT:    1053951  MISS:      40427  HIT %:    96.3059  MISS %:    3.69406   MPKI: 0.202135
L2C LOAD TRANSLATION ACCESS:     412211  HIT:     225210  MISS:     187001  HIT %:    54.6346  MISS %:    45.3654   MPKI: 0.935005
L2C TRANSLATION FROM L1D PREFETCHER ACCESS:    1509026  HIT:    1500516  MISS:       8510  HIT %:    99.4361  MISS %:    0.56394   MPKI: 0.04255
L2C PREFETCH  REQUESTED:          0  ISSUED:          0  USEFUL:      58208  USELESS:     899755
L2C USEFUL LOAD PREFETCHES:      58208 PREFETCH ISSUED TO LOWER LEVEL:     949372  ACCURACY: 6.13121
L2C TIMELY PREFETCHES:      58208 LATE PREFETCHES: 0 DROPPED PREFETCHES: 0
L2C PREFETCHES SAME FILL-ORIGIN LEVEL: 0 DIFFERENT FILL-ORIGIN LEVEL: 0
L2C AVERAGE MISS LATENCY: 42.1254 cycles
L2C RQ	ACCESS:    9324184	FORWARD:          0	MERGED:          0	TO_CACHE:    9323898
L2C WQ	ACCESS:    1094378	FORWARD:        476	MERGED:          0	TO_CACHE:    1094378
L2C PQ	ACCESS:    1848785	FORWARD:          0	MERGED:          0	TO_CACHE:    1848595

L2C Instructions Evicting Data 967788
L2C Translations Evicting Data 90229
L2C Data Evicting Data 858665
L2C Instructions Evicting Instructions 1056682
L2C Translations Evicting Instructions 96154
L2C Data Evicting Instructions 946465
L2C Instructions Evicting Translations 95377
L2C Translations Evicting Translations 9128
L2C Data Evicting Translations 89455
L2C Dense regions hint from L2: 0
PSCL5 TOTAL     ACCESS:    1166228  HIT:    1166228  MISS:          0  HIT %:        100  MISS %:          0   MPKI: 0
PSCL5 LOAD TRANSLATION ACCESS:     311755  HIT:     311755  MISS:          0  HIT %:        100  MISS %:          0   MPKI: 0
PSCL5 TRANSLATION FROM L1D PREFETCHER ACCESS:     854473  HIT:     854473  MISS:          0  HIT %:        100  MISS %:          0   MPKI: 0
PSCL5 PREFETCH  REQUESTED:          0  ISSUED:          0  USEFUL:          0  USELESS:          0
PSCL5 USEFUL LOAD PREFETCHES:          0 PREFETCH ISSUED TO LOWER LEVEL:          0  ACCURACY: -nan
PSCL5 TIMELY PREFETCHES:          0 LATE PREFETCHES: 0 DROPPED PREFETCHES: 0
PSCL5 PREFETCHES SAME FILL-ORIGIN LEVEL: 0 DIFFERENT FILL-ORIGIN LEVEL: 0

PSCL4 TOTAL     ACCESS:    1098453  HIT:    1096901  MISS:       1552  HIT %:    99.8587  MISS %:    0.14129   MPKI: 0.00776
PSCL4 LOAD TRANSLATION ACCESS:     305197  HIT:     303645  MISS:       1552  HIT %:    99.4915  MISS %:   0.508524   MPKI: 0.00776
PSCL4 TRANSLATION FROM L1D PREFETCHER ACCESS:     793256  HIT:     793256  MISS:          0  HIT %:        100  MISS %:          0   MPKI: 0
PSCL4 PREFETCH  REQUESTED:          0  ISSUED:          0  USEFUL:          0  USELESS:          0
PSCL4 USEFUL LOAD PREFETCHES:          0 PREFETCH ISSUED TO LOWER LEVEL:          0  ACCURACY: -nan
PSCL4 TIMELY PREFETCHES:          0 LATE PREFETCHES: 0 DROPPED PREFETCHES: 0
PSCL4 PREFETCHES SAME FILL-ORIGIN LEVEL: 0 DIFFERENT FILL-ORIGIN LEVEL: 0

PSCL3 TOTAL     ACCESS:    1164079  HIT:    1162527  MISS:       1552  HIT %:    99.8667  MISS %:   0.133324   MPKI: 0.00776
PSCL3 LOAD TRANSLATION ACCESS:     310692  HIT:     309140  MISS:       1552  HIT %:    99.5005  MISS %:    0.49953   MPKI: 0.00776
PSCL3 TRANSLATION FROM L1D PREFETCHER ACCESS:     853387  HIT:     853387  MISS:          0  HIT %:        100  MISS %:          0   MPKI: 0
PSCL3 PREFETCH  REQUESTED:          0  ISSUED:          0  USEFUL:          0  USELESS:          0
PSCL3 USEFUL LOAD PREFETCHES:          0 PREFETCH ISSUED TO LOWER LEVEL:          0  ACCURACY: -nan
PSCL3 TIMELY PREFETCHES:          0 LATE PREFETCHES: 0 DROPPED PREFETCHES: 0
PSCL3 PREFETCHES SAME FILL-ORIGIN LEVEL: 0 DIFFERENT FILL-ORIGIN LEVEL: 0

PSCL2 TOTAL     ACCESS:     512145  HIT:     413520  MISS:      98625  HIT %:    80.7428  MISS %:    19.2572   MPKI: 0.493125
PSCL2 LOAD TRANSLATION ACCESS:     312974  HIT:     214349  MISS:      98625  HIT %:    68.4878  MISS %:    31.5122   MPKI: 0.493125
PSCL2 TRANSLATION FROM L1D PREFETCHER ACCESS:     199171  HIT:     199171  MISS:          0  HIT %:        100  MISS %:          0   MPKI: 0
PSCL2 PREFETCH  REQUESTED:          0  ISSUED:          0  USEFUL:          0  USELESS:          0
PSCL2 USEFUL LOAD PREFETCHES:          0 PREFETCH ISSUED TO LOWER LEVEL:          0  ACCURACY: -nan
PSCL2 TIMELY PREFETCHES:          0 LATE PREFETCHES: 0 DROPPED PREFETCHES: 0
PSCL2 PREFETCHES SAME FILL-ORIGIN LEVEL: 0 DIFFERENT FILL-ORIGIN LEVEL: 0

LLC TOTAL     ACCESS:    4676667  HIT:    4321740  MISS:     354927  HIT %:    92.4107  MISS %:    7.58932   MPKI: 1.77463
LLC LOAD      ACCESS:    2938323  HIT:    2776935  MISS:     161388  HIT %:    94.5075  MISS %:    5.49252   MPKI: 0.80694
LLC RFO       ACCESS:     126732  HIT:      88309  MISS:      38423  HIT %:    69.6817  MISS %:    30.3183   MPKI: 0.192115
LLC PREFETCH  ACCESS:     949372  HIT:     809721  MISS:     139651  HIT %:    85.2902  MISS %:    14.7098   MPKI: 0.698255
AGUS PREFETCH L1 MISS: 0
LLC WRITEBACK ACCESS:     466729  HIT:     464567  MISS:       2162  HIT %:    99.5368  MISS %:   0.463224   MPKI: 0.01081
LLC LOAD TRANSLATION ACCESS:     187001  HIT:     173902  MISS:      13099  HIT %:    92.9952  MISS %:    7.00478   MPKI: 0.065495
LLC TRANSLATION FROM L1D PREFETCHER ACCESS:       8510  HIT:       8306  MISS:        204  HIT %:    97.6028  MISS %:    2.39718   MPKI: 0.00102
LLC PREFETCH  REQUESTED:          0  ISSUED:          0  USEFUL:       5769  USELESS:     134884
LLC USEFUL LOAD PREFETCHES:       5769 PREFETCH ISSUED TO LOWER LEVEL:     139651  ACCURACY: 4.13101
LLC TIMELY PREFETCHES:       5769 LATE PREFETCHES: 0 DROPPED PREFETCHES: 0
LLC PREFETCHES SAME FILL-ORIGIN LEVEL: 0 DIFFERENT FILL-ORIGIN LEVEL: 0
LLC AVERAGE MISS LATENCY: 148.618 cycles
LLC RQ	ACCESS:    3260571	FORWARD:          0	MERGED:          0	TO_CACHE:    3260566
LLC WQ	ACCESS:     466729	FORWARD:          5	MERGED:          0	TO_CACHE:     466729
LLC PQ	ACCESS:     949372	FORWARD:          0	MERGED:          0	TO_CACHE:     949372

LLC Dense regions hint to LLC: 0

RAW hits: 2744068
Loads Generated: 44827397
Loads sent to L1D: 42083327
Stores Generated: 20212209
Stores sent to L1D: 20212215
Major fault: 0 Minor fault: 5727
Allocated PAGES: 5727
ucb ended

DRAM Statistics
 CHANNEL 0
 RQ ROW_BUFFER_HIT:      81093  ROW_BUFFER_MISS:     271672
 DBUS_CONGESTED:        146
 WQ ROW_BUFFER_HIT:      32923  ROW_BUFFER_MISS:     184835  FULL:          0

 AVG_CONGESTED_CYCLE: 4
 All warmup complete: 2
Channel 0 Bank busy for read cycles: 0
Channel 0 Bank busy for write cycles: 0
Channel 0
Rank 0
0banks busy for read cycles: 381194045
0banks busy for write cycles: 105786
1banks busy for read cycles: 24339795
1banks busy for write cycles: 14436768
2banks busy for read cycles: 6142096
2banks busy for write cycles: 3287724
3banks busy for read cycles: 1499251
3banks busy for write cycles: 1340201
4banks busy for read cycles: 474520
4banks busy for write cycles: 915831
5banks busy for read cycles: 141505
5banks busy for write cycles: 722038
6banks busy for read cycles: 65589
6banks busy for write cycles: 632396
7banks busy for read cycles: 40716
7banks busy for write cycles: 545015
8banks busy for read cycles: 50081
8banks busy for write cycles: 469365

CPU 0 Branch Prediction Accuracy: 99.8638% MPKI: 0.244845 Average ROB Occupancy at Mispredict: 51.5447
Branch types
NOT_BRANCH: 164053662 82.0268%
BRANCH_DIRECT_JUMP: 1788227 0.894113%
BRANCH_INDIRECT: 9557706 4.77885%
BRANCH_CONDITIONAL: 18219125 9.10956%
BRANCH_DIRECT_CALL: 2503115 1.25156%
BRANCH_INDIRECT_CALL: 686553 0.343276%
BRANCH_RETURN: 3191301 1.59565%
BRANCH_OTHER: 0 0%

DRAM PAGES: 1048576
Allocated PAGES: 5727
