
*** ChampSim Multicore Out-of-Order Simulator ***

Warmup Instructions: 50000000
Simulation Instructions: 200000000
Number of CPUs: 1
LLC sets: 2048
LLC ways: 16
Off-chip DRAM Size: 4096 MB Channels: 1 Width: 64-bit Data Rate: 6400 MT/s
CPU 0 runs traces/spec2k17/srv_28.champsimtrace.xz
.xz
BTB has LRU replacement policy
ITLB has LRU replacement policy
DTLB has LRU replacement policy
STLB has LRU replacement policy
L1I has LRU replacement policy
L1D has LRU replacement policy
Initialize SRRIP state for L2C
Initialize DRRIP state for LLC
Offset table: -6 -5 -4 -3 -2 -1 1 2 3 4 5 6 
Offset table size: 12

Printing Sanity: 1

Round Robin Complete

Offset reward: 340 523 495 706 672 1443 1825 739 871 913 337 149 
Offset reward size: 12

Offset count: 1 1 1 1 1 1 1 1 1 1 1 1 
Offset count size: 12

Printing Sanity: 2
n total: 12
Writing in data1.txt 

Writing done! 

Heartbeat CPU 0 instructions: 10000001 cycles: 2815139 heartbeat IPC: 3.55222 cumulative IPC: 3.55222 (Simulation time: 0 hr 0 min 25 sec) 
Heartbeat CPU 0 instructions: 20000003 cycles: 5629390 heartbeat IPC: 3.55334 cumulative IPC: 3.55278 (Simulation time: 0 hr 0 min 50 sec) 
Heartbeat CPU 0 instructions: 30000003 cycles: 8441541 heartbeat IPC: 3.556 cumulative IPC: 3.55385 (Simulation time: 0 hr 1 min 15 sec) 
*** Reached end of trace for Core: 0 Repeating trace: traces/spec2k17/srv_28.champsimtrace.xz
Heartbeat CPU 0 instructions: 40000003 cycles: 11253134 heartbeat IPC: 3.5567 cumulative IPC: 3.55457 (Simulation time: 0 hr 1 min 40 sec) 
Heartbeat CPU 0 instructions: 50000002 cycles: 14065845 heartbeat IPC: 3.55529 cumulative IPC: 3.55471 (Simulation time: 0 hr 2 min 4 sec) 

Warmup complete CPU 0 instructions: 50000002 cycles: 14065845 (Simulation time: 0 hr 2 min 4 sec) 

Heartbeat CPU 0 instructions: 60000000 cycles: 27940659 heartbeat IPC: 0.72073 cumulative IPC: 0.72073 (Simulation time: 0 hr 2 min 36 sec) 
*** Reached end of trace for Core: 0 Repeating trace: traces/spec2k17/srv_28.champsimtrace.xz
Heartbeat CPU 0 instructions: 70000003 cycles: 41951567 heartbeat IPC: 0.71373 cumulative IPC: 0.717213 (Simulation time: 0 hr 3 min 7 sec) 
Heartbeat CPU 0 instructions: 80000000 cycles: 55876085 heartbeat IPC: 0.718157 cumulative IPC: 0.717528 (Simulation time: 0 hr 3 min 38 sec) 
Heartbeat CPU 0 instructions: 90000001 cycles: 69634151 heartbeat IPC: 0.726846 cumulative IPC: 0.719835 (Simulation time: 0 hr 4 min 9 sec) 
*** Reached end of trace for Core: 0 Repeating trace: traces/spec2k17/srv_28.champsimtrace.xz
Heartbeat CPU 0 instructions: 100000000 cycles: 83659655 heartbeat IPC: 0.712987 cumulative IPC: 0.718455 (Simulation time: 0 hr 4 min 41 sec) 
Heartbeat CPU 0 instructions: 110000000 cycles: 97321915 heartbeat IPC: 0.731943 cumulative IPC: 0.720668 (Simulation time: 0 hr 5 min 12 sec) 
Heartbeat CPU 0 instructions: 120000001 cycles: 111308435 heartbeat IPC: 0.714974 cumulative IPC: 0.719849 (Simulation time: 0 hr 5 min 43 sec) 
*** Reached end of trace for Core: 0 Repeating trace: traces/spec2k17/srv_28.champsimtrace.xz
Heartbeat CPU 0 instructions: 130000000 cycles: 125193476 heartbeat IPC: 0.720199 cumulative IPC: 0.719893 (Simulation time: 0 hr 6 min 14 sec) 
Heartbeat CPU 0 instructions: 140000001 cycles: 138848222 heartbeat IPC: 0.732346 cumulative IPC: 0.721256 (Simulation time: 0 hr 6 min 45 sec) 
Heartbeat CPU 0 instructions: 150000001 cycles: 152975198 heartbeat IPC: 0.707866 cumulative IPC: 0.719894 (Simulation time: 0 hr 7 min 16 sec) 
*** Reached end of trace for Core: 0 Repeating trace: traces/spec2k17/srv_28.champsimtrace.xz
Heartbeat CPU 0 instructions: 160000000 cycles: 166874021 heartbeat IPC: 0.719485 cumulative IPC: 0.719857 (Simulation time: 0 hr 7 min 47 sec) 
Heartbeat CPU 0 instructions: 170000003 cycles: 180489819 heartbeat IPC: 0.734441 cumulative IPC: 0.72105 (Simulation time: 0 hr 8 min 18 sec) 
Heartbeat CPU 0 instructions: 180000001 cycles: 194571878 heartbeat IPC: 0.710123 cumulative IPC: 0.720198 (Simulation time: 0 hr 8 min 49 sec) 
Heartbeat CPU 0 instructions: 190000001 cycles: 208274773 heartbeat IPC: 0.729773 cumulative IPC: 0.720873 (Simulation time: 0 hr 9 min 20 sec) 
*** Reached end of trace for Core: 0 Repeating trace: traces/spec2k17/srv_28.champsimtrace.xz
Heartbeat CPU 0 instructions: 200000000 cycles: 222144204 heartbeat IPC: 0.72101 cumulative IPC: 0.720882 (Simulation time: 0 hr 9 min 52 sec) 
Heartbeat CPU 0 instructions: 210000001 cycles: 236089611 heartbeat IPC: 0.717082 cumulative IPC: 0.720644 (Simulation time: 0 hr 10 min 23 sec) 
Heartbeat CPU 0 instructions: 220000000 cycles: 249833971 heartbeat IPC: 0.727571 cumulative IPC: 0.721047 (Simulation time: 0 hr 10 min 55 sec) 
*** Reached end of trace for Core: 0 Repeating trace: traces/spec2k17/srv_28.champsimtrace.xz
Heartbeat CPU 0 instructions: 230000001 cycles: 263779411 heartbeat IPC: 0.71708 cumulative IPC: 0.720826 (Simulation time: 0 hr 11 min 26 sec) 
Heartbeat CPU 0 instructions: 240000003 cycles: 277668906 heartbeat IPC: 0.719969 cumulative IPC: 0.720781 (Simulation time: 0 hr 11 min 57 sec) 
Heartbeat CPU 0 instructions: 250000001 cycles: 291360420 heartbeat IPC: 0.730379 cumulative IPC: 0.721255 (Simulation time: 0 hr 12 min 28 sec) 
Finished CPU 0 instructions: 200000001 cycles: 277294576 cumulative IPC: 0.721255 (Simulation time: 0 hr 12 min 28 sec) 

ChampSim completed all CPUs

Region of Interest Statistics

CPU 0 cumulative IPC: 0.721255 instructions: 200000001 cycles: 277294576
ITLB TOTAL     ACCESS:   32448293  HIT:   32342360  MISS:     105933  HIT %:    99.6735  MISS %:   0.326467   MPKI: 0.529665
ITLB LOAD TRANSLATION ACCESS:   32448293  HIT:   32342360  MISS:     105933  HIT %:    99.6735  MISS %:   0.326467   MPKI: 0.529665
ITLB PREFETCH  REQUESTED:          0  ISSUED:          0  USEFUL:          0  USELESS:          0
ITLB USEFUL LOAD PREFETCHES:          0 PREFETCH ISSUED TO LOWER LEVEL:          0  ACCURACY: -nan
ITLB TIMELY PREFETCHES:          0 LATE PREFETCHES: 0 DROPPED PREFETCHES: 0
ITLB PREFETCHES SAME FILL-ORIGIN LEVEL: 0 DIFFERENT FILL-ORIGIN LEVEL: 0
ITLB AVERAGE MISS LATENCY: 10.7799 cycles
ITLB RQ	ACCESS:   38247640	FORWARD:          0	MERGED:    5764847	TO_CACHE:   32482793

DTLB TOTAL     ACCESS:   40740202  HIT:   38941646  MISS:    1798556  HIT %:    95.5853  MISS %:     4.4147   MPKI: 8.99278
DTLB LOAD TRANSLATION ACCESS:   40740202  HIT:   38941646  MISS:    1798556  HIT %:    95.5853  MISS %:     4.4147   MPKI: 8.99278
DTLB PREFETCH  REQUESTED:          0  ISSUED:          0  USEFUL:          0  USELESS:          0
DTLB USEFUL LOAD PREFETCHES:          0 PREFETCH ISSUED TO LOWER LEVEL:          0  ACCURACY: -nan
DTLB TIMELY PREFETCHES:          0 LATE PREFETCHES: 0 DROPPED PREFETCHES: 0
DTLB PREFETCHES SAME FILL-ORIGIN LEVEL: 0 DIFFERENT FILL-ORIGIN LEVEL: 0
DTLB AVERAGE MISS LATENCY: 10.8628 cycles
DTLB RQ	ACCESS:   54745376	FORWARD:          0	MERGED:   13803732	TO_CACHE:   40941644

STLB TOTAL     ACCESS:   24558225  HIT:   24470451  MISS:      87774  HIT %:    99.6426  MISS %:   0.357412   MPKI: 0.43887
STLB LOAD TRANSLATION ACCESS:    1904489  HIT:    1818363  MISS:      86126  HIT %:    95.4777  MISS %:    4.52226   MPKI: 0.43063
STLB TRANSLATION FROM L1D PREFETCHER ACCESS:   22653736  HIT:   22652088  MISS:       1648  HIT %:    99.9927  MISS %: 0.00727474   MPKI: 0.00824
STLB PREFETCH  REQUESTED:          0  ISSUED:          0  USEFUL:       1302  USELESS:        340
STLB USEFUL LOAD PREFETCHES:       1302 PREFETCH ISSUED TO LOWER LEVEL:          0  ACCURACY: inf
STLB TIMELY PREFETCHES:       1302 LATE PREFETCHES: 132 DROPPED PREFETCHES: 1067338
STLB PREFETCHES SAME FILL-ORIGIN LEVEL: 0 DIFFERENT FILL-ORIGIN LEVEL: 0
STLB AVERAGE MISS LATENCY: 40.6968 cycles
STLB RQ	ACCESS:   30622652	FORWARD:          0	MERGED:    4996934	TO_CACHE:   25625718

STLB Hit, L1D data hit: 0
STLB Hit, L2C data hit: 0
STLB Hit, LLC data hit: 0
STLB Hit, LLC data miss: 0
STLB STLB hints to L2: 0
L1D TOTAL     ACCESS:   81575429  HIT:   80803637  MISS:     771792  HIT %:    99.0539  MISS %:   0.946108   MPKI: 3.85896
L1D LOAD      ACCESS:   30712102  HIT:   30344104  MISS:     367998  HIT %:    98.8018  MISS %:    1.19822   MPKI: 1.83999
L1D RFO       ACCESS:   23405597  HIT:   23269438  MISS:     136159  HIT %:    99.4183  MISS %:   0.581737   MPKI: 0.680795
L1D PREFETCH  ACCESS:   27457730  HIT:   27190095  MISS:     267635  HIT %:    99.0253  MISS %:   0.974716   MPKI: 1.33817
AGUS PREFETCH L1 MISS: 0
L1D PREFETCH  REQUESTED:   59534768  ISSUED:   59528448  USEFUL:      42803  USELESS:     224826
L1D USEFUL LOAD PREFETCHES:      42803 PREFETCH ISSUED TO LOWER LEVEL:     294790  ACCURACY: 14.5198
L1D TIMELY PREFETCHES:      42803 LATE PREFETCHES: 26538 DROPPED PREFETCHES: 1067344
L1D PREFETCHES SAME FILL-ORIGIN LEVEL: 294790 DIFFERENT FILL-ORIGIN LEVEL: 0
L1D AVERAGE MISS LATENCY: 5.20534e+06 cycles
L1D RQ	ACCESS:   49528394	FORWARD:          0	MERGED:   18591183	TO_CACHE:   30816601
L1D WQ	ACCESS:   24183739	FORWARD:     210901	MERGED:     254964	TO_CACHE:   23928775
L1D PQ	ACCESS:   30810285	FORWARD:          0	MERGED:    2001831	TO_CACHE:   28718163

L1D UNIQUE REGIONS ACCESSED: 0
L1D REGIONS CONFLICTS: 0
L1D Cross Page Prefetch Requests: 2411440
L1D Same Page Prefetch Requests: 36066956
L1D ROI Sum of L1D PQ occupancy: 443329798
L1D PREFETCHES PUSHED FROM L2C: 0
L1I TOTAL     ACCESS:   38056680  HIT:   37424151  MISS:     632529  HIT %:    98.3379  MISS %:    1.66207   MPKI: 3.16264
L1I LOAD      ACCESS:   38056680  HIT:   37424151  MISS:     632529  HIT %:    98.3379  MISS %:    1.66207   MPKI: 3.16264
L1I PREFETCH  REQUESTED:          0  ISSUED:          0  USEFUL:          0  USELESS:          0
L1I USEFUL LOAD PREFETCHES:          0 PREFETCH ISSUED TO LOWER LEVEL:          0  ACCURACY: -nan
L1I TIMELY PREFETCHES:          0 LATE PREFETCHES: 0 DROPPED PREFETCHES: 0
L1I PREFETCHES SAME FILL-ORIGIN LEVEL: 0 DIFFERENT FILL-ORIGIN LEVEL: 0
L1I AVERAGE MISS LATENCY: 17.1495 cycles
L1I RQ	ACCESS:   60430704	FORWARD:          0	MERGED:   22183064	TO_CACHE:   38247640

BTB TOTAL     ACCESS:   29604974  HIT:   27951083  MISS:    1653891  HIT %:    94.4135  MISS %:    5.58653   MPKI: 8.26945
BTB BRANCH_DIRECT_JUMP	ACCESS:    2284365  HIT:    2283256  MISS:       1109
BTB BRANCH_INDIRECT	ACCESS:   12536315  HIT:   11991074  MISS:     545241
BTB BRANCH_CONDITIONAL	ACCESS:    7228322  HIT:    7226630  MISS:       1692
BTB BRANCH_DIRECT_CALL	ACCESS:    3327463  HIT:    3324379  MISS:       3084
BTB BRANCH_INDIRECT_CALL	ACCESS:     450518  HIT:     257027  MISS:     193491
BTB BRANCH_RETURN	ACCESS:    3777991  HIT:    2868717  MISS:     909274
BTB BRANCH_OTHER ACCESS:          0  HIT:          0  MISS:          0

L2C TOTAL     ACCESS:    3366458  HIT:    2681513  MISS:     684945  HIT %:    79.6538  MISS %:    20.3462   MPKI: 3.42472
L2C LOAD      ACCESS:     973927  HIT:     664003  MISS:     309924  HIT %:    68.1779  MISS %:    31.8221   MPKI: 1.54962
L2C DATA LOAD MPKI: 1.346
L2C INSTRUCTION LOAD MPKI: 0.203615
L2C RFO       ACCESS:     135539  HIT:      14332  MISS:     121207  HIT %:    10.5741  MISS %:    89.4259   MPKI: 0.606035
L2C PREFETCH  ACCESS:     294786  HIT:      75758  MISS:     219028  HIT %:    25.6993  MISS %:    74.3007   MPKI: 1.09514
AGUS PREFETCH L1 MISS: 0
L2C DATA PREFETCH MPKI: 1.09514
L2C INSTRUCTION PREFETCH MPKI: 0
L2C WRITEBACK ACCESS:     190672  HIT:     186441  MISS:       4231  HIT %:     97.781  MISS %:    2.21899   MPKI: 0.021155
L2C LOAD TRANSLATION ACCESS:     123322  HIT:      93407  MISS:      29915  HIT %:    75.7424  MISS %:    24.2576   MPKI: 0.149575
L2C TRANSLATION FROM L1D PREFETCHER ACCESS:    1648212  HIT:    1647572  MISS:        640  HIT %:    99.9612  MISS %:    0.03883   MPKI: 0.0032
L2C PREFETCH  REQUESTED:          0  ISSUED:          0  USEFUL:       5809  USELESS:     214422
L2C USEFUL LOAD PREFETCHES:       5809 PREFETCH ISSUED TO LOWER LEVEL:     219028  ACCURACY: 2.65217
L2C TIMELY PREFETCHES:       5809 LATE PREFETCHES: 0 DROPPED PREFETCHES: 0
L2C PREFETCHES SAME FILL-ORIGIN LEVEL: 0 DIFFERENT FILL-ORIGIN LEVEL: 0
L2C AVERAGE MISS LATENCY: 130.332 cycles
L2C RQ	ACCESS:    2881065	FORWARD:          0	MERGED:          0	TO_CACHE:    2881000
L2C WQ	ACCESS:     190672	FORWARD:         69	MERGED:          0	TO_CACHE:     190672
L2C PQ	ACCESS:     294790	FORWARD:          0	MERGED:          0	TO_CACHE:     294786

L2C Instructions Evicting Data 37266
L2C Translations Evicting Data 27602
L2C Data Evicting Data 545098
L2C Instructions Evicting Instructions 1756
L2C Translations Evicting Instructions 1909
L2C Data Evicting Instructions 37011
L2C Instructions Evicting Translations 1701
L2C Translations Evicting Translations 1044
L2C Data Evicting Translations 27327
L2C Dense regions hint from L2: 0
PSCL5 TOTAL     ACCESS:    1155112  HIT:    1155112  MISS:          0  HIT %:        100  MISS %:          0   MPKI: 0
PSCL5 LOAD TRANSLATION ACCESS:      85994  HIT:      85994  MISS:          0  HIT %:        100  MISS %:          0   MPKI: 0
PSCL5 TRANSLATION FROM L1D PREFETCHER ACCESS:    1069118  HIT:    1069118  MISS:          0  HIT %:        100  MISS %:          0   MPKI: 0
PSCL5 PREFETCH  REQUESTED:          0  ISSUED:          0  USEFUL:          0  USELESS:          0
PSCL5 USEFUL LOAD PREFETCHES:          0 PREFETCH ISSUED TO LOWER LEVEL:          0  ACCURACY: -nan
PSCL5 TIMELY PREFETCHES:          0 LATE PREFETCHES: 0 DROPPED PREFETCHES: 0
PSCL5 PREFETCHES SAME FILL-ORIGIN LEVEL: 0 DIFFERENT FILL-ORIGIN LEVEL: 0

PSCL4 TOTAL     ACCESS:    1150679  HIT:    1150580  MISS:         99  HIT %:    99.9914  MISS %: 0.00860362   MPKI: 0.000495
PSCL4 LOAD TRANSLATION ACCESS:      83982  HIT:      83883  MISS:         99  HIT %:    99.8821  MISS %:   0.117882   MPKI: 0.000495
PSCL4 TRANSLATION FROM L1D PREFETCHER ACCESS:    1066697  HIT:    1066697  MISS:          0  HIT %:        100  MISS %:          0   MPKI: 0
PSCL4 PREFETCH  REQUESTED:          0  ISSUED:          0  USEFUL:          0  USELESS:          0
PSCL4 USEFUL LOAD PREFETCHES:          0 PREFETCH ISSUED TO LOWER LEVEL:          0  ACCURACY: -nan
PSCL4 TIMELY PREFETCHES:          0 LATE PREFETCHES: 0 DROPPED PREFETCHES: 0
PSCL4 PREFETCHES SAME FILL-ORIGIN LEVEL: 0 DIFFERENT FILL-ORIGIN LEVEL: 0

PSCL3 TOTAL     ACCESS:    1148111  HIT:    1147724  MISS:        387  HIT %:    99.9663  MISS %:  0.0337075   MPKI: 0.001935
PSCL3 LOAD TRANSLATION ACCESS:      85672  HIT:      85285  MISS:        387  HIT %:    99.5483  MISS %:   0.451723   MPKI: 0.001935
PSCL3 TRANSLATION FROM L1D PREFETCHER ACCESS:    1062439  HIT:    1062439  MISS:          0  HIT %:        100  MISS %:          0   MPKI: 0
PSCL3 PREFETCH  REQUESTED:          0  ISSUED:          0  USEFUL:          0  USELESS:          0
PSCL3 USEFUL LOAD PREFETCHES:          0 PREFETCH ISSUED TO LOWER LEVEL:          0  ACCURACY: -nan
PSCL3 TIMELY PREFETCHES:          0 LATE PREFETCHES: 0 DROPPED PREFETCHES: 0
PSCL3 PREFETCHES SAME FILL-ORIGIN LEVEL: 0 DIFFERENT FILL-ORIGIN LEVEL: 0

PSCL2 TOTAL     ACCESS:     577841  HIT:     540854  MISS:      36987  HIT %:    93.5991  MISS %:     6.4009   MPKI: 0.184935
PSCL2 LOAD TRANSLATION ACCESS:      86138  HIT:      49151  MISS:      36987  HIT %:    57.0608  MISS %:    42.9392   MPKI: 0.184935
PSCL2 TRANSLATION FROM L1D PREFETCHER ACCESS:     491703  HIT:     491703  MISS:          0  HIT %:        100  MISS %:          0   MPKI: 0
PSCL2 PREFETCH  REQUESTED:          0  ISSUED:          0  USEFUL:          0  USELESS:          0
PSCL2 USEFUL LOAD PREFETCHES:          0 PREFETCH ISSUED TO LOWER LEVEL:          0  ACCURACY: -nan
PSCL2 TIMELY PREFETCHES:          0 LATE PREFETCHES: 0 DROPPED PREFETCHES: 0
PSCL2 PREFETCHES SAME FILL-ORIGIN LEVEL: 0 DIFFERENT FILL-ORIGIN LEVEL: 0

LLC TOTAL     ACCESS:     843109  HIT:     401174  MISS:     441935  HIT %:    47.5827  MISS %:    52.4173   MPKI: 2.20967
LLC LOAD      ACCESS:     309924  HIT:     106353  MISS:     203571  HIT %:    34.3158  MISS %:    65.6842   MPKI: 1.01785
LLC RFO       ACCESS:     121207  HIT:      50834  MISS:      70373  HIT %:    41.9398  MISS %:    58.0602   MPKI: 0.351865
LLC PREFETCH  ACCESS:     219028  HIT:      61473  MISS:     157555  HIT %:    28.0663  MISS %:    71.9337   MPKI: 0.787775
AGUS PREFETCH L1 MISS: 0
LLC WRITEBACK ACCESS:     162395  HIT:     155509  MISS:       6886  HIT %:    95.7597  MISS %:    4.24028   MPKI: 0.03443
LLC LOAD TRANSLATION ACCESS:      29915  HIT:      26625  MISS:       3290  HIT %:    89.0022  MISS %:    10.9978   MPKI: 0.01645
LLC TRANSLATION FROM L1D PREFETCHER ACCESS:        640  HIT:        380  MISS:        260  HIT %:     59.375  MISS %:     40.625   MPKI: 0.0013
LLC PREFETCH  REQUESTED:          0  ISSUED:          0  USEFUL:       3268  USELESS:     156909
LLC USEFUL LOAD PREFETCHES:       3268 PREFETCH ISSUED TO LOWER LEVEL:     157555  ACCURACY: 2.0742
LLC TIMELY PREFETCHES:       3268 LATE PREFETCHES: 0 DROPPED PREFETCHES: 0
LLC PREFETCHES SAME FILL-ORIGIN LEVEL: 0 DIFFERENT FILL-ORIGIN LEVEL: 0
LLC AVERAGE MISS LATENCY: 155.787 cycles
LLC RQ	ACCESS:     461686	FORWARD:          0	MERGED:          0	TO_CACHE:     461686
LLC WQ	ACCESS:     162395	FORWARD:          0	MERGED:          0	TO_CACHE:     162395
LLC PQ	ACCESS:     219028	FORWARD:          0	MERGED:          0	TO_CACHE:     219028

LLC Dense regions hint to LLC: 0

RAW hits: 2368858
Loads Generated: 51897257
Loads sent to L1D: 49528394
Stores Generated: 24183727
Stores sent to L1D: 24183739
Major fault: 0 Minor fault: 6201
Allocated PAGES: 6201
ucb ended

DRAM Statistics
 CHANNEL 0
 RQ ROW_BUFFER_HIT:      89621  ROW_BUFFER_MISS:     345378
 DBUS_CONGESTED:        476
 WQ ROW_BUFFER_HIT:      16768  ROW_BUFFER_MISS:      74152  FULL:          0

 AVG_CONGESTED_CYCLE: 5
 All warmup complete: 2
Channel 0 Bank busy for read cycles: 0
Channel 0 Bank busy for write cycles: 0
Channel 0
Rank 0
0banks busy for read cycles: 236814915
0banks busy for write cycles: 43595
1banks busy for read cycles: 12578977
1banks busy for write cycles: 6826514
2banks busy for read cycles: 14315359
2banks busy for write cycles: 2097797
3banks busy for read cycles: 1153178
3banks busy for write cycles: 525933
4banks busy for read cycles: 591699
4banks busy for write cycles: 200421
5banks busy for read cycles: 442431
5banks busy for write cycles: 135513
6banks busy for read cycles: 384789
6banks busy for write cycles: 136097
7banks busy for read cycles: 289269
7banks busy for write cycles: 156700
8banks busy for read cycles: 340614
8banks busy for write cycles: 260776

CPU 0 Branch Prediction Accuracy: 99.7863% MPKI: 0.390065 Average ROB Occupancy at Mispredict: 19.5894
Branch types
NOT_BRANCH: 163487732 81.7439%
BRANCH_DIRECT_JUMP: 2284365 1.14218%
BRANCH_INDIRECT: 12536315 6.26816%
BRANCH_CONDITIONAL: 14135281 7.06764%
BRANCH_DIRECT_CALL: 3327463 1.66373%
BRANCH_INDIRECT_CALL: 450518 0.225259%
BRANCH_RETURN: 3777991 1.889%
BRANCH_OTHER: 0 0%

DRAM PAGES: 1048576
Allocated PAGES: 6201
