
*** ChampSim Multicore Out-of-Order Simulator ***

Warmup Instructions: 50000000
Simulation Instructions: 200000000
Number of CPUs: 1
LLC sets: 2048
LLC ways: 16
Off-chip DRAM Size: 4096 MB Channels: 1 Width: 64-bit Data Rate: 6400 MT/s
CPU 0 runs traces/spec2k17/srv_17.champsimtrace.xz
.xz
BTB has LRU replacement policy
ITLB has LRU replacement policy
DTLB has LRU replacement policy
STLB has LRU replacement policy
L1I has LRU replacement policy
L1D has LRU replacement policy
Initialize SRRIP state for L2C
Initialize DRRIP state for LLC
Offset table: -6 -5 -4 -3 -2 -1 1 2 3 4 5 6 
Offset table size: 12

Printing Sanity: 1

Round Robin Complete

Offset reward: 102 699 479 2017 1834 1521 1135 2538 2346 840 479 844 
Offset reward size: 12

Offset count: 1 1 1 1 1 1 1 1 1 1 1 1 
Offset count size: 12

Printing Sanity: 2
n total: 12
Writing in data1.txt 

Writing done! 

Heartbeat CPU 0 instructions: 10000001 cycles: 2912518 heartbeat IPC: 3.43346 cumulative IPC: 3.43346 (Simulation time: 0 hr 0 min 20 sec) 
Heartbeat CPU 0 instructions: 20000001 cycles: 5817216 heartbeat IPC: 3.4427 cumulative IPC: 3.43807 (Simulation time: 0 hr 0 min 40 sec) 
Heartbeat CPU 0 instructions: 30000001 cycles: 8720817 heartbeat IPC: 3.444 cumulative IPC: 3.44004 (Simulation time: 0 hr 0 min 59 sec) 
*** Reached end of trace for Core: 0 Repeating trace: traces/spec2k17/srv_17.champsimtrace.xz
Heartbeat CPU 0 instructions: 40000000 cycles: 11624405 heartbeat IPC: 3.44401 cumulative IPC: 3.44104 (Simulation time: 0 hr 1 min 19 sec) 
Heartbeat CPU 0 instructions: 50000000 cycles: 14527005 heartbeat IPC: 3.44519 cumulative IPC: 3.44187 (Simulation time: 0 hr 1 min 39 sec) 

Warmup complete CPU 0 instructions: 50000004 cycles: 14527006 (Simulation time: 0 hr 1 min 39 sec) 

Heartbeat CPU 0 instructions: 60000001 cycles: 48373078 heartbeat IPC: 0.295455 cumulative IPC: 0.295455 (Simulation time: 0 hr 2 min 16 sec) 
*** Reached end of trace for Core: 0 Repeating trace: traces/spec2k17/srv_17.champsimtrace.xz
Heartbeat CPU 0 instructions: 70000000 cycles: 82143532 heartbeat IPC: 0.296117 cumulative IPC: 0.295786 (Simulation time: 0 hr 2 min 53 sec) 
Heartbeat CPU 0 instructions: 80000001 cycles: 115898533 heartbeat IPC: 0.296252 cumulative IPC: 0.295941 (Simulation time: 0 hr 3 min 30 sec) 
Heartbeat CPU 0 instructions: 90000000 cycles: 149650150 heartbeat IPC: 0.296282 cumulative IPC: 0.296026 (Simulation time: 0 hr 4 min 6 sec) 
*** Reached end of trace for Core: 0 Repeating trace: traces/spec2k17/srv_17.champsimtrace.xz
Heartbeat CPU 0 instructions: 100000000 cycles: 183381092 heartbeat IPC: 0.296464 cumulative IPC: 0.296114 (Simulation time: 0 hr 4 min 43 sec) 
Heartbeat CPU 0 instructions: 110000000 cycles: 217100515 heartbeat IPC: 0.296565 cumulative IPC: 0.296189 (Simulation time: 0 hr 5 min 20 sec) 
Heartbeat CPU 0 instructions: 120000002 cycles: 250816726 heartbeat IPC: 0.296593 cumulative IPC: 0.296246 (Simulation time: 0 hr 5 min 56 sec) 
*** Reached end of trace for Core: 0 Repeating trace: traces/spec2k17/srv_17.champsimtrace.xz
Heartbeat CPU 0 instructions: 130000003 cycles: 284516679 heartbeat IPC: 0.296736 cumulative IPC: 0.296308 (Simulation time: 0 hr 6 min 32 sec) 
Heartbeat CPU 0 instructions: 140000003 cycles: 318204509 heartbeat IPC: 0.296843 cumulative IPC: 0.296367 (Simulation time: 0 hr 7 min 9 sec) 
Heartbeat CPU 0 instructions: 150000001 cycles: 351899438 heartbeat IPC: 0.29678 cumulative IPC: 0.296408 (Simulation time: 0 hr 7 min 45 sec) 
*** Reached end of trace for Core: 0 Repeating trace: traces/spec2k17/srv_17.champsimtrace.xz
Heartbeat CPU 0 instructions: 160000001 cycles: 385607177 heartbeat IPC: 0.296668 cumulative IPC: 0.296432 (Simulation time: 0 hr 8 min 21 sec) 
Heartbeat CPU 0 instructions: 170000000 cycles: 419292699 heartbeat IPC: 0.296863 cumulative IPC: 0.296468 (Simulation time: 0 hr 8 min 58 sec) 
Heartbeat CPU 0 instructions: 180000002 cycles: 452958724 heartbeat IPC: 0.297035 cumulative IPC: 0.296511 (Simulation time: 0 hr 9 min 34 sec) 
*** Reached end of trace for Core: 0 Repeating trace: traces/spec2k17/srv_17.champsimtrace.xz
Heartbeat CPU 0 instructions: 190000000 cycles: 486615968 heartbeat IPC: 0.297113 cumulative IPC: 0.296554 (Simulation time: 0 hr 10 min 10 sec) 
Heartbeat CPU 0 instructions: 200000002 cycles: 520274738 heartbeat IPC: 0.297099 cumulative IPC: 0.296591 (Simulation time: 0 hr 10 min 47 sec) 
Heartbeat CPU 0 instructions: 210000002 cycles: 553941860 heartbeat IPC: 0.297026 cumulative IPC: 0.296618 (Simulation time: 0 hr 11 min 23 sec) 
*** Reached end of trace for Core: 0 Repeating trace: traces/spec2k17/srv_17.champsimtrace.xz
Heartbeat CPU 0 instructions: 220000000 cycles: 587611226 heartbeat IPC: 0.297006 cumulative IPC: 0.296641 (Simulation time: 0 hr 12 min 0 sec) 
Heartbeat CPU 0 instructions: 230000000 cycles: 621299441 heartbeat IPC: 0.29684 cumulative IPC: 0.296652 (Simulation time: 0 hr 12 min 37 sec) 
Heartbeat CPU 0 instructions: 240000002 cycles: 654982333 heartbeat IPC: 0.296887 cumulative IPC: 0.296664 (Simulation time: 0 hr 13 min 13 sec) 
Heartbeat CPU 0 instructions: 250000002 cycles: 688680414 heartbeat IPC: 0.296753 cumulative IPC: 0.296668 (Simulation time: 0 hr 13 min 50 sec) 
Finished CPU 0 instructions: 200000002 cycles: 674153409 cumulative IPC: 0.296668 (Simulation time: 0 hr 13 min 50 sec) 

ChampSim completed all CPUs

Region of Interest Statistics

CPU 0 cumulative IPC: 0.296668 instructions: 200000002 cycles: 674153409
ITLB TOTAL     ACCESS:   35396198  HIT:   32980040  MISS:    2416158  HIT %:     93.174  MISS %:    6.82604   MPKI: 12.0808
ITLB LOAD TRANSLATION ACCESS:   35396198  HIT:   32980040  MISS:    2416158  HIT %:     93.174  MISS %:    6.82604   MPKI: 12.0808
ITLB PREFETCH  REQUESTED:          0  ISSUED:          0  USEFUL:          0  USELESS:          0
ITLB USEFUL LOAD PREFETCHES:          0 PREFETCH ISSUED TO LOWER LEVEL:          0  ACCURACY: -nan
ITLB TIMELY PREFETCHES:          0 LATE PREFETCHES: 0 DROPPED PREFETCHES: 0
ITLB PREFETCHES SAME FILL-ORIGIN LEVEL: 0 DIFFERENT FILL-ORIGIN LEVEL: 0
ITLB AVERAGE MISS LATENCY: 9.00725 cycles
ITLB RQ	ACCESS:   41944047	FORWARD:          0	MERGED:    5992557	TO_CACHE:   35951490

DTLB TOTAL     ACCESS:   47262355  HIT:   45296457  MISS:    1965898  HIT %:    95.8405  MISS %:    4.15954   MPKI: 9.82949
DTLB LOAD TRANSLATION ACCESS:   47262355  HIT:   45296457  MISS:    1965898  HIT %:    95.8405  MISS %:    4.15954   MPKI: 9.82949
DTLB PREFETCH  REQUESTED:          0  ISSUED:          0  USEFUL:          0  USELESS:          0
DTLB USEFUL LOAD PREFETCHES:          0 PREFETCH ISSUED TO LOWER LEVEL:          0  ACCURACY: -nan
DTLB TIMELY PREFETCHES:          0 LATE PREFETCHES: 0 DROPPED PREFETCHES: 0
DTLB PREFETCHES SAME FILL-ORIGIN LEVEL: 0 DIFFERENT FILL-ORIGIN LEVEL: 0
DTLB AVERAGE MISS LATENCY: 9.03913 cycles
DTLB RQ	ACCESS:   62485014	FORWARD:          0	MERGED:   15171860	TO_CACHE:   47313154

STLB TOTAL     ACCESS:   33528999  HIT:   33527461  MISS:       1538  HIT %:    99.9954  MISS %: 0.00458707   MPKI: 0.00769
STLB LOAD TRANSLATION ACCESS:    4382056  HIT:    4380569  MISS:       1487  HIT %:    99.9661  MISS %:  0.0339338   MPKI: 0.007435
STLB TRANSLATION FROM L1D PREFETCHER ACCESS:   29146943  HIT:   29146892  MISS:         51  HIT %:    99.9998  MISS %: 0.000174975   MPKI: 0.000255
STLB PREFETCH  REQUESTED:          0  ISSUED:          0  USEFUL:         21  USELESS:         30
STLB USEFUL LOAD PREFETCHES:         21 PREFETCH ISSUED TO LOWER LEVEL:          0  ACCURACY: inf
STLB TIMELY PREFETCHES:         21 LATE PREFETCHES: 0 DROPPED PREFETCHES: 316284
STLB PREFETCHES SAME FILL-ORIGIN LEVEL: 0 DIFFERENT FILL-ORIGIN LEVEL: 0
STLB AVERAGE MISS LATENCY: 34.7568 cycles
STLB RQ	ACCESS:   38099331	FORWARD:          0	MERGED:    4254048	TO_CACHE:   33845283

STLB Hit, L1D data hit: 0
STLB Hit, L2C data hit: 0
STLB Hit, LLC data hit: 0
STLB Hit, LLC data miss: 0
STLB STLB hints to L2: 0
L1D TOTAL     ACCESS:   93883427  HIT:   86130047  MISS:    7753380  HIT %:    91.7415  MISS %:    8.25852   MPKI: 38.7669
L1D LOAD      ACCESS:   34551850  HIT:   31472489  MISS:    3079361  HIT %:    91.0877  MISS %:    8.91229   MPKI: 15.3968
L1D RFO       ACCESS:   26233516  HIT:   25142237  MISS:    1091279  HIT %:    95.8401  MISS %:    4.15987   MPKI: 5.45639
L1D PREFETCH  ACCESS:   33098061  HIT:   29515321  MISS:    3582740  HIT %:    89.1754  MISS %:    10.8246   MPKI: 17.9137
AGUS PREFETCH L1 MISS: 0
L1D PREFETCH  REQUESTED:   68400595  ISSUED:   68400595  USEFUL:     786385  USELESS:    2796400
L1D USEFUL LOAD PREFETCHES:     786385 PREFETCH ISSUED TO LOWER LEVEL:    3647563  ACCURACY: 21.5592
L1D TIMELY PREFETCHES:     786385 LATE PREFETCHES: 61201 DROPPED PREFETCHES: 316284
L1D PREFETCHES SAME FILL-ORIGIN LEVEL: 3647563 DIFFERENT FILL-ORIGIN LEVEL: 0
L1D AVERAGE MISS LATENCY: 2.95284e+06 cycles
L1D RQ	ACCESS:   47132614	FORWARD:          0	MERGED:   12102716	TO_CACHE:   34683319
L1D WQ	ACCESS:   27961654	FORWARD:     383114	MERGED:     159959	TO_CACHE:   27801695
L1D PQ	ACCESS:   34683320	FORWARD:          0	MERGED:     929510	TO_CACHE:   33717275

L1D UNIQUE REGIONS ACCESSED: 0
L1D REGIONS CONFLICTS: 0
L1D Cross Page Prefetch Requests: 855620
L1D Same Page Prefetch Requests: 41409095
L1D ROI Sum of L1D PQ occupancy: 440482504
L1D PREFETCHES PUSHED FROM L2C: 0
L1I TOTAL     ACCESS:   40163528  HIT:   28032450  MISS:   12131078  HIT %:    69.7958  MISS %:    30.2042   MPKI: 60.6554
L1I LOAD      ACCESS:   40163528  HIT:   28032450  MISS:   12131078  HIT %:    69.7958  MISS %:    30.2042   MPKI: 60.6554
L1I PREFETCH  REQUESTED:          0  ISSUED:          0  USEFUL:          0  USELESS:          0
L1I USEFUL LOAD PREFETCHES:          0 PREFETCH ISSUED TO LOWER LEVEL:          0  ACCURACY: -nan
L1I TIMELY PREFETCHES:          0 LATE PREFETCHES: 0 DROPPED PREFETCHES: 0
L1I PREFETCHES SAME FILL-ORIGIN LEVEL: 0 DIFFERENT FILL-ORIGIN LEVEL: 0
L1I AVERAGE MISS LATENCY: 16.0339 cycles
L1I RQ	ACCESS:   58891954	FORWARD:          0	MERGED:   16947907	TO_CACHE:   41944047

BTB TOTAL     ACCESS:   30221998  HIT:   16757522  MISS:   13464476  HIT %:    55.4481  MISS %:    44.5519   MPKI: 67.3224
BTB BRANCH_DIRECT_JUMP	ACCESS:    1952659  HIT:    1081780  MISS:     870879
BTB BRANCH_INDIRECT	ACCESS:   12737378  HIT:    7604711  MISS:    5132667
BTB BRANCH_CONDITIONAL	ACCESS:    5645921  HIT:    4273177  MISS:    1372744
BTB BRANCH_DIRECT_CALL	ACCESS:    4153390  HIT:    1949552  MISS:    2203838
BTB BRANCH_INDIRECT_CALL	ACCESS:     789644  HIT:     387843  MISS:     401801
BTB BRANCH_RETURN	ACCESS:    4943006  HIT:    1460459  MISS:    3482547
BTB BRANCH_OTHER ACCESS:          0  HIT:          0  MISS:          0

L2C TOTAL     ACCESS:   22711557  HIT:   21291206  MISS:    1420351  HIT %:    93.7461  MISS %:    6.25387   MPKI: 7.10175
L2C LOAD      ACCESS:   15149189  HIT:   14155550  MISS:     993639  HIT %:     93.441  MISS %:    6.55902   MPKI: 4.96819
L2C DATA LOAD MPKI: 1.00685
L2C INSTRUCTION LOAD MPKI: 3.96134
L2C RFO       ACCESS:    1087593  HIT:    1056493  MISS:      31100  HIT %:    97.1405  MISS %:    2.85953   MPKI: 0.1555
L2C PREFETCH  ACCESS:    3647474  HIT:    3269681  MISS:     377793  HIT %:    89.6423  MISS %:    10.3577   MPKI: 1.88896
AGUS PREFETCH L1 MISS: 0
L2C DATA PREFETCH MPKI: 1.88896
L2C INSTRUCTION PREFETCH MPKI: 0
L2C WRITEBACK ACCESS:    2489679  HIT:    2475830  MISS:      13849  HIT %:    99.4437  MISS %:   0.556256   MPKI: 0.069245
L2C LOAD TRANSLATION ACCESS:       1488  HIT:        708  MISS:        780  HIT %:    47.5806  MISS %:    52.4194   MPKI: 0.0039
L2C TRANSLATION FROM L1D PREFETCHER ACCESS:     336134  HIT:     332944  MISS:       3190  HIT %:     99.051  MISS %:   0.949026   MPKI: 0.01595
L2C PREFETCH  REQUESTED:          0  ISSUED:          0  USEFUL:       9507  USELESS:     372158
L2C USEFUL LOAD PREFETCHES:       9507 PREFETCH ISSUED TO LOWER LEVEL:     377793  ACCURACY: 2.51646
L2C TIMELY PREFETCHES:       9507 LATE PREFETCHES: 0 DROPPED PREFETCHES: 0
L2C PREFETCHES SAME FILL-ORIGIN LEVEL: 0 DIFFERENT FILL-ORIGIN LEVEL: 0
L2C AVERAGE MISS LATENCY: 29.8503 cycles
L2C RQ	ACCESS:   16574516	FORWARD:          0	MERGED:          0	TO_CACHE:   16574404
L2C WQ	ACCESS:    2489679	FORWARD:        201	MERGED:          0	TO_CACHE:    2489679
L2C PQ	ACCESS:    3647563	FORWARD:          0	MERGED:          0	TO_CACHE:    3647474

L2C Instructions Evicting Data 244383
L2C Translations Evicting Data 3510
L2C Data Evicting Data 371406
L2C Instructions Evicting Instructions 547246
L2C Translations Evicting Instructions 446
L2C Data Evicting Instructions 235542
L2C Instructions Evicting Translations 640
L2C Translations Evicting Translations 14
L2C Data Evicting Translations 3315
L2C Dense regions hint from L2: 0
PSCL5 TOTAL     ACCESS:     317822  HIT:     317822  MISS:          0  HIT %:        100  MISS %:          0   MPKI: 0
PSCL5 LOAD TRANSLATION ACCESS:       1487  HIT:       1487  MISS:          0  HIT %:        100  MISS %:          0   MPKI: 0
PSCL5 TRANSLATION FROM L1D PREFETCHER ACCESS:     316335  HIT:     316335  MISS:          0  HIT %:        100  MISS %:          0   MPKI: 0
PSCL5 PREFETCH  REQUESTED:          0  ISSUED:          0  USEFUL:          0  USELESS:          0
PSCL5 USEFUL LOAD PREFETCHES:          0 PREFETCH ISSUED TO LOWER LEVEL:          0  ACCURACY: -nan
PSCL5 TIMELY PREFETCHES:          0 LATE PREFETCHES: 0 DROPPED PREFETCHES: 0
PSCL5 PREFETCHES SAME FILL-ORIGIN LEVEL: 0 DIFFERENT FILL-ORIGIN LEVEL: 0

PSCL4 TOTAL     ACCESS:     317816  HIT:     317816  MISS:          0  HIT %:        100  MISS %:          0   MPKI: 0
PSCL4 LOAD TRANSLATION ACCESS:       1481  HIT:       1481  MISS:          0  HIT %:        100  MISS %:          0   MPKI: 0
PSCL4 TRANSLATION FROM L1D PREFETCHER ACCESS:     316335  HIT:     316335  MISS:          0  HIT %:        100  MISS %:          0   MPKI: 0
PSCL4 PREFETCH  REQUESTED:          0  ISSUED:          0  USEFUL:          0  USELESS:          0
PSCL4 USEFUL LOAD PREFETCHES:          0 PREFETCH ISSUED TO LOWER LEVEL:          0  ACCURACY: -nan
PSCL4 TIMELY PREFETCHES:          0 LATE PREFETCHES: 0 DROPPED PREFETCHES: 0
PSCL4 PREFETCHES SAME FILL-ORIGIN LEVEL: 0 DIFFERENT FILL-ORIGIN LEVEL: 0

PSCL3 TOTAL     ACCESS:     317816  HIT:     317816  MISS:          0  HIT %:        100  MISS %:          0   MPKI: 0
PSCL3 LOAD TRANSLATION ACCESS:       1481  HIT:       1481  MISS:          0  HIT %:        100  MISS %:          0   MPKI: 0
PSCL3 TRANSLATION FROM L1D PREFETCHER ACCESS:     316335  HIT:     316335  MISS:          0  HIT %:        100  MISS %:          0   MPKI: 0
PSCL3 PREFETCH  REQUESTED:          0  ISSUED:          0  USEFUL:          0  USELESS:          0
PSCL3 USEFUL LOAD PREFETCHES:          0 PREFETCH ISSUED TO LOWER LEVEL:          0  ACCURACY: -nan
PSCL3 TIMELY PREFETCHES:          0 LATE PREFETCHES: 0 DROPPED PREFETCHES: 0
PSCL3 PREFETCHES SAME FILL-ORIGIN LEVEL: 0 DIFFERENT FILL-ORIGIN LEVEL: 0

PSCL2 TOTAL     ACCESS:     298023  HIT:     298022  MISS:          1  HIT %:    99.9997  MISS %: 0.000335545   MPKI: 5e-06
PSCL2 LOAD TRANSLATION ACCESS:       1487  HIT:       1486  MISS:          1  HIT %:    99.9328  MISS %:  0.0672495   MPKI: 5e-06
PSCL2 TRANSLATION FROM L1D PREFETCHER ACCESS:     296536  HIT:     296536  MISS:          0  HIT %:        100  MISS %:          0   MPKI: 0
PSCL2 PREFETCH  REQUESTED:          0  ISSUED:          0  USEFUL:          0  USELESS:          0
PSCL2 USEFUL LOAD PREFETCHES:          0 PREFETCH ISSUED TO LOWER LEVEL:          0  ACCURACY: -nan
PSCL2 TIMELY PREFETCHES:          0 LATE PREFETCHES: 0 DROPPED PREFETCHES: 0
PSCL2 PREFETCHES SAME FILL-ORIGIN LEVEL: 0 DIFFERENT FILL-ORIGIN LEVEL: 0

LLC TOTAL     ACCESS:    1472364  HIT:    1471125  MISS:       1239  HIT %:    99.9158  MISS %:  0.0841504   MPKI: 0.006195
LLC LOAD      ACCESS:     993639  HIT:     993173  MISS:        466  HIT %:    99.9531  MISS %:  0.0468983   MPKI: 0.00233
LLC RFO       ACCESS:      31100  HIT:      31097  MISS:          3  HIT %:    99.9904  MISS %:  0.0096463   MPKI: 1.5e-05
LLC PREFETCH  ACCESS:     377793  HIT:     377025  MISS:        768  HIT %:    99.7967  MISS %:   0.203286   MPKI: 0.00384
AGUS PREFETCH L1 MISS: 0
LLC WRITEBACK ACCESS:      65862  HIT:      65860  MISS:          2  HIT %:     99.997  MISS %: 0.00303665   MPKI: 1e-05
LLC LOAD TRANSLATION ACCESS:        780  HIT:        780  MISS:          0  HIT %:        100  MISS %:          0   MPKI: 0
LLC TRANSLATION FROM L1D PREFETCHER ACCESS:       3190  HIT:       3190  MISS:          0  HIT %:        100  MISS %:          0   MPKI: 0
LLC PREFETCH  REQUESTED:          0  ISSUED:          0  USEFUL:       2200  USELESS:        339
LLC USEFUL LOAD PREFETCHES:       2200 PREFETCH ISSUED TO LOWER LEVEL:        768  ACCURACY: 286.458
LLC TIMELY PREFETCHES:       2200 LATE PREFETCHES: 0 DROPPED PREFETCHES: 0
LLC PREFETCHES SAME FILL-ORIGIN LEVEL: 0 DIFFERENT FILL-ORIGIN LEVEL: 0
LLC AVERAGE MISS LATENCY: 163.684 cycles
LLC RQ	ACCESS:    1028709	FORWARD:          0	MERGED:          0	TO_CACHE:    1028709
LLC WQ	ACCESS:      65862	FORWARD:          0	MERGED:          0	TO_CACHE:      65862
LLC PQ	ACCESS:     377793	FORWARD:          0	MERGED:          0	TO_CACHE:     377793

LLC Dense regions hint to LLC: 0

RAW hits: 1530435
Loads Generated: 48663047
Loads sent to L1D: 47132614
Stores Generated: 27961655
Stores sent to L1D: 27961654
Major fault: 0 Minor fault: 1253
Allocated PAGES: 1253
ucb ended

DRAM Statistics
 CHANNEL 0
 RQ ROW_BUFFER_HIT:         76  ROW_BUFFER_MISS:       1161
 DBUS_CONGESTED:          0
 WQ ROW_BUFFER_HIT:          0  ROW_BUFFER_MISS:          4  FULL:          0

 AVG_CONGESTED_CYCLE: -
 All warmup complete: 2
Channel 0 Bank busy for read cycles: 0
Channel 0 Bank busy for write cycles: 0
Channel 0
Rank 0
0banks busy for read cycles: 673985945
0banks busy for write cycles: 4
1banks busy for read cycles: 156402
1banks busy for write cycles: 600
2banks busy for read cycles: 9829
2banks busy for write cycles: 0
3banks busy for read cycles: 630
3banks busy for write cycles: 0
4banks busy for read cycles: 0
4banks busy for write cycles: 0
5banks busy for read cycles: 0
5banks busy for write cycles: 0
6banks busy for read cycles: 0
6banks busy for write cycles: 0
7banks busy for read cycles: 0
7banks busy for write cycles: 0
8banks busy for read cycles: 0
8banks busy for write cycles: 0

CPU 0 Branch Prediction Accuracy: 99.9103% MPKI: 0.159245 Average ROB Occupancy at Mispredict: 31.6859
Branch types
NOT_BRANCH: 164491946 82.246%
BRANCH_DIRECT_JUMP: 1952659 0.976329%
BRANCH_INDIRECT: 12737378 6.36869%
BRANCH_CONDITIONAL: 10931953 5.46598%
BRANCH_DIRECT_CALL: 4153390 2.07669%
BRANCH_INDIRECT_CALL: 789644 0.394822%
BRANCH_RETURN: 4943006 2.4715%
BRANCH_OTHER: 0 0%

DRAM PAGES: 1048576
Allocated PAGES: 1253
