
*** ChampSim Multicore Out-of-Order Simulator ***

Warmup Instructions: 50000000
Simulation Instructions: 200000000
Number of CPUs: 1
LLC sets: 2048
LLC ways: 16
Off-chip DRAM Size: 4096 MB Channels: 1 Width: 64-bit Data Rate: 6400 MT/s
CPU 0 runs traces/spec2k17/srv_22.champsimtrace.xz
.xz
BTB has LRU replacement policy
ITLB has LRU replacement policy
DTLB has LRU replacement policy
STLB has LRU replacement policy
L1I has LRU replacement policy
L1D has LRU replacement policy
Initialize SRRIP state for L2C
Initialize DRRIP state for LLC
Offset table: -6 -5 -4 -3 -2 -1 1 2 3 4 5 6 
Offset table size: 12

Printing Sanity: 1

Round Robin Complete

Offset reward: 611 866 748 1069 2505 8808 7729 4909 1786 864 422 611 
Offset reward size: 12

Offset count: 1 1 1 1 1 1 1 1 1 1 1 1 
Offset count size: 12

Printing Sanity: 2
n total: 12
Writing in data1.txt 

Writing done! 

Heartbeat CPU 0 instructions: 10000000 cycles: 2864996 heartbeat IPC: 3.49041 cumulative IPC: 3.49041 (Simulation time: 0 hr 0 min 21 sec) 
Heartbeat CPU 0 instructions: 20000000 cycles: 5730708 heartbeat IPC: 3.48953 cumulative IPC: 3.48997 (Simulation time: 0 hr 0 min 42 sec) 
Heartbeat CPU 0 instructions: 30000000 cycles: 8601403 heartbeat IPC: 3.48348 cumulative IPC: 3.4878 (Simulation time: 0 hr 1 min 2 sec) 
*** Reached end of trace for Core: 0 Repeating trace: traces/spec2k17/srv_22.champsimtrace.xz
Heartbeat CPU 0 instructions: 40000003 cycles: 11465110 heartbeat IPC: 3.49198 cumulative IPC: 3.48885 (Simulation time: 0 hr 1 min 23 sec) 
Heartbeat CPU 0 instructions: 50000003 cycles: 14330440 heartbeat IPC: 3.49 cumulative IPC: 3.48908 (Simulation time: 0 hr 1 min 43 sec) 

Warmup complete CPU 0 instructions: 50000003 cycles: 14330440 (Simulation time: 0 hr 1 min 43 sec) 

Heartbeat CPU 0 instructions: 60000000 cycles: 45203929 heartbeat IPC: 0.323902 cumulative IPC: 0.323902 (Simulation time: 0 hr 2 min 19 sec) 
*** Reached end of trace for Core: 0 Repeating trace: traces/spec2k17/srv_22.champsimtrace.xz
Heartbeat CPU 0 instructions: 70000001 cycles: 75515673 heartbeat IPC: 0.329905 cumulative IPC: 0.326876 (Simulation time: 0 hr 2 min 56 sec) 
Heartbeat CPU 0 instructions: 80000001 cycles: 106454806 heartbeat IPC: 0.323215 cumulative IPC: 0.325647 (Simulation time: 0 hr 3 min 31 sec) 
Heartbeat CPU 0 instructions: 90000000 cycles: 136825822 heartbeat IPC: 0.329261 cumulative IPC: 0.326543 (Simulation time: 0 hr 4 min 7 sec) 
*** Reached end of trace for Core: 0 Repeating trace: traces/spec2k17/srv_22.champsimtrace.xz
Heartbeat CPU 0 instructions: 100000002 cycles: 167258677 heartbeat IPC: 0.328592 cumulative IPC: 0.326951 (Simulation time: 0 hr 4 min 43 sec) 
Heartbeat CPU 0 instructions: 110000000 cycles: 198062593 heartbeat IPC: 0.324634 cumulative IPC: 0.326562 (Simulation time: 0 hr 5 min 19 sec) 
Heartbeat CPU 0 instructions: 120000000 cycles: 228480046 heartbeat IPC: 0.328759 cumulative IPC: 0.326874 (Simulation time: 0 hr 5 min 54 sec) 
*** Reached end of trace for Core: 0 Repeating trace: traces/spec2k17/srv_22.champsimtrace.xz
Heartbeat CPU 0 instructions: 130000000 cycles: 259007547 heartbeat IPC: 0.327573 cumulative IPC: 0.326962 (Simulation time: 0 hr 6 min 30 sec) 
Heartbeat CPU 0 instructions: 140000002 cycles: 289652683 heartbeat IPC: 0.326316 cumulative IPC: 0.32689 (Simulation time: 0 hr 7 min 6 sec) 
Heartbeat CPU 0 instructions: 150000003 cycles: 320290325 heartbeat IPC: 0.326396 cumulative IPC: 0.32684 (Simulation time: 0 hr 7 min 41 sec) 
*** Reached end of trace for Core: 0 Repeating trace: traces/spec2k17/srv_22.champsimtrace.xz
Heartbeat CPU 0 instructions: 160000000 cycles: 350994759 heartbeat IPC: 0.325686 cumulative IPC: 0.326735 (Simulation time: 0 hr 8 min 18 sec) 
Heartbeat CPU 0 instructions: 170000001 cycles: 381141329 heartbeat IPC: 0.331713 cumulative IPC: 0.327144 (Simulation time: 0 hr 8 min 53 sec) 
Heartbeat CPU 0 instructions: 180000001 cycles: 412068835 heartbeat IPC: 0.323337 cumulative IPC: 0.326848 (Simulation time: 0 hr 9 min 29 sec) 
*** Reached end of trace for Core: 0 Repeating trace: traces/spec2k17/srv_22.champsimtrace.xz
Heartbeat CPU 0 instructions: 190000003 cycles: 442562694 heartbeat IPC: 0.327935 cumulative IPC: 0.326925 (Simulation time: 0 hr 10 min 5 sec) 
Heartbeat CPU 0 instructions: 200000001 cycles: 472913049 heartbeat IPC: 0.329485 cumulative IPC: 0.327095 (Simulation time: 0 hr 10 min 40 sec) 
Heartbeat CPU 0 instructions: 210000000 cycles: 503618378 heartbeat IPC: 0.325676 cumulative IPC: 0.327006 (Simulation time: 0 hr 11 min 16 sec) 
*** Reached end of trace for Core: 0 Repeating trace: traces/spec2k17/srv_22.champsimtrace.xz
Heartbeat CPU 0 instructions: 220000000 cycles: 534107750 heartbeat IPC: 0.327983 cumulative IPC: 0.327063 (Simulation time: 0 hr 11 min 51 sec) 
Heartbeat CPU 0 instructions: 230000001 cycles: 564165805 heartbeat IPC: 0.33269 cumulative IPC: 0.327371 (Simulation time: 0 hr 12 min 27 sec) 
Heartbeat CPU 0 instructions: 240000001 cycles: 594886386 heartbeat IPC: 0.325515 cumulative IPC: 0.327273 (Simulation time: 0 hr 13 min 2 sec) 
*** Reached end of trace for Core: 0 Repeating trace: traces/spec2k17/srv_22.champsimtrace.xz
Heartbeat CPU 0 instructions: 250000001 cycles: 625308646 heartbeat IPC: 0.328707 cumulative IPC: 0.327344 (Simulation time: 0 hr 13 min 38 sec) 
Finished CPU 0 instructions: 200000000 cycles: 610978218 cumulative IPC: 0.327344 (Simulation time: 0 hr 13 min 38 sec) 

ChampSim completed all CPUs

Region of Interest Statistics

CPU 0 cumulative IPC: 0.327344 instructions: 200000000 cycles: 610978218
ITLB TOTAL     ACCESS:   34481456  HIT:   32625567  MISS:    1855889  HIT %:    94.6177  MISS %:    5.38228   MPKI: 9.27945
ITLB LOAD TRANSLATION ACCESS:   34481456  HIT:   32625567  MISS:    1855889  HIT %:    94.6177  MISS %:    5.38228   MPKI: 9.27945
ITLB PREFETCH  REQUESTED:          0  ISSUED:          0  USEFUL:          0  USELESS:          0
ITLB USEFUL LOAD PREFETCHES:          0 PREFETCH ISSUED TO LOWER LEVEL:          0  ACCURACY: -nan
ITLB TIMELY PREFETCHES:          0 LATE PREFETCHES: 0 DROPPED PREFETCHES: 0
ITLB PREFETCHES SAME FILL-ORIGIN LEVEL: 0 DIFFERENT FILL-ORIGIN LEVEL: 0
ITLB AVERAGE MISS LATENCY: 9.05967 cycles
ITLB RQ	ACCESS:   40307803	FORWARD:          0	MERGED:    5379018	TO_CACHE:   34928785

DTLB TOTAL     ACCESS:   45317226  HIT:   43522537  MISS:    1794689  HIT %:    96.0397  MISS %:    3.96028   MPKI: 8.97344
DTLB LOAD TRANSLATION ACCESS:   45317226  HIT:   43522537  MISS:    1794689  HIT %:    96.0397  MISS %:    3.96028   MPKI: 8.97344
DTLB PREFETCH  REQUESTED:          0  ISSUED:          0  USEFUL:          0  USELESS:          0
DTLB USEFUL LOAD PREFETCHES:          0 PREFETCH ISSUED TO LOWER LEVEL:          0  ACCURACY: -nan
DTLB TIMELY PREFETCHES:          0 LATE PREFETCHES: 0 DROPPED PREFETCHES: 0
DTLB PREFETCHES SAME FILL-ORIGIN LEVEL: 0 DIFFERENT FILL-ORIGIN LEVEL: 0
DTLB AVERAGE MISS LATENCY: 9.24155 cycles
DTLB RQ	ACCESS:   59830390	FORWARD:          0	MERGED:   14448305	TO_CACHE:   45382085

STLB TOTAL     ACCESS:   31566422  HIT:   31556151  MISS:      10271  HIT %:    99.9675  MISS %:  0.0325377   MPKI: 0.051355
STLB LOAD TRANSLATION ACCESS:    3650578  HIT:    3640682  MISS:       9896  HIT %:    99.7289  MISS %:    0.27108   MPKI: 0.04948
STLB TRANSLATION FROM L1D PREFETCHER ACCESS:   27915844  HIT:   27915469  MISS:        375  HIT %:    99.9987  MISS %: 0.00134332   MPKI: 0.001875
STLB PREFETCH  REQUESTED:          0  ISSUED:          0  USEFUL:        363  USELESS:         13
STLB USEFUL LOAD PREFETCHES:        363 PREFETCH ISSUED TO LOWER LEVEL:          0  ACCURACY: inf
STLB TIMELY PREFETCHES:        363 LATE PREFETCHES: 54 DROPPED PREFETCHES: 170053
STLB PREFETCHES SAME FILL-ORIGIN LEVEL: 0 DIFFERENT FILL-ORIGIN LEVEL: 0
STLB AVERAGE MISS LATENCY: 108852 cycles
STLB RQ	ACCESS:   36145184	FORWARD:          0	MERGED:    4403736	TO_CACHE:   31741448

STLB Hit, L1D data hit: 0
STLB Hit, L2C data hit: 0
STLB Hit, LLC data hit: 0
STLB Hit, LLC data miss: 0
STLB STLB hints to L2: 0
L1D TOTAL     ACCESS:   90002239  HIT:   83779160  MISS:    6223079  HIT %:    93.0856  MISS %:    6.91436   MPKI: 31.1154
L1D LOAD      ACCESS:   33573007  HIT:   30842604  MISS:    2730403  HIT %:    91.8673  MISS %:    8.13273   MPKI: 13.652
L1D RFO       ACCESS:   24560630  HIT:   23540712  MISS:    1019918  HIT %:    95.8473  MISS %:    4.15265   MPKI: 5.09959
L1D PREFETCH  ACCESS:   31868602  HIT:   29395844  MISS:    2472758  HIT %:    92.2408  MISS %:    7.75923   MPKI: 12.3638
AGUS PREFETCH L1 MISS: 0
L1D PREFETCH  REQUESTED:   66188724  ISSUED:   66188595  USEFUL:     545993  USELESS:    1926839
L1D USEFUL LOAD PREFETCHES:     545993 PREFETCH ISSUED TO LOWER LEVEL:    2602234  ACCURACY: 20.9817
L1D TIMELY PREFETCHES:     545993 LATE PREFETCHES: 125964 DROPPED PREFETCHES: 184676
L1D PREFETCHES SAME FILL-ORIGIN LEVEL: 2602234 DIFFERENT FILL-ORIGIN LEVEL: 0
L1D AVERAGE MISS LATENCY: 6.60524e+06 cycles
L1D RQ	ACCESS:   46886651	FORWARD:          0	MERGED:   12894096	TO_CACHE:   33694119
L1D WQ	ACCESS:   26309150	FORWARD:     332247	MERGED:     172879	TO_CACHE:   26136271
L1D PQ	ACCESS:   33693989	FORWARD:          0	MERGED:    1165572	TO_CACHE:   32494606

L1D UNIQUE REGIONS ACCESSED: 0
L1D REGIONS CONFLICTS: 0
L1D Cross Page Prefetch Requests: 1112159
L1D Same Page Prefetch Requests: 40065347
L1D ROI Sum of L1D PQ occupancy: 422983736
L1D PREFETCHES PUSHED FROM L2C: 0
L1I TOTAL     ACCESS:   38876422  HIT:   29166164  MISS:    9710258  HIT %:    75.0228  MISS %:    24.9772   MPKI: 48.5513
L1I LOAD      ACCESS:   38876422  HIT:   29166164  MISS:    9710258  HIT %:    75.0228  MISS %:    24.9772   MPKI: 48.5513
L1I PREFETCH  REQUESTED:          0  ISSUED:          0  USEFUL:          0  USELESS:          0
L1I USEFUL LOAD PREFETCHES:          0 PREFETCH ISSUED TO LOWER LEVEL:          0  ACCURACY: -nan
L1I TIMELY PREFETCHES:          0 LATE PREFETCHES: 0 DROPPED PREFETCHES: 0
L1I PREFETCHES SAME FILL-ORIGIN LEVEL: 0 DIFFERENT FILL-ORIGIN LEVEL: 0
L1I AVERAGE MISS LATENCY: 18.0281 cycles
L1I RQ	ACCESS:   57842462	FORWARD:          0	MERGED:   17534659	TO_CACHE:   40307803

BTB TOTAL     ACCESS:   30330112  HIT:   18855293  MISS:   11474819  HIT %:    62.1669  MISS %:    37.8331   MPKI: 57.3741
BTB BRANCH_DIRECT_JUMP	ACCESS:    2183492  HIT:    1381264  MISS:     802228
BTB BRANCH_INDIRECT	ACCESS:   11409987  HIT:    7107186  MISS:    4302801
BTB BRANCH_CONDITIONAL	ACCESS:    8659441  HIT:    7498829  MISS:    1160612
BTB BRANCH_DIRECT_CALL	ACCESS:    3412328  HIT:    1528915  MISS:    1883413
BTB BRANCH_INDIRECT_CALL	ACCESS:     626274  HIT:     246325  MISS:     379949
BTB BRANCH_RETURN	ACCESS:    4038590  HIT:    1092774  MISS:    2945816
BTB BRANCH_OTHER ACCESS:          0  HIT:          0  MISS:          0

L2C TOTAL     ACCESS:   18192511  HIT:   15421957  MISS:    2770554  HIT %:    84.7709  MISS %:    15.2291   MPKI: 13.8528
L2C LOAD      ACCESS:   12314596  HIT:   10618532  MISS:    1696064  HIT %:    86.2272  MISS %:    13.7728   MPKI: 8.48032
L2C DATA LOAD MPKI: 2.14489
L2C INSTRUCTION LOAD MPKI: 6.33542
L2C RFO       ACCESS:    1016396  HIT:     767634  MISS:     248762  HIT %:    75.5251  MISS %:    24.4749   MPKI: 1.24381
L2C PREFETCH  ACCESS:    2601990  HIT:    1841931  MISS:     760059  HIT %:    70.7893  MISS %:    29.2107   MPKI: 3.8003
AGUS PREFETCH L1 MISS: 0
L2C DATA PREFETCH MPKI: 3.8003
L2C INSTRUCTION PREFETCH MPKI: 0
L2C WRITEBACK ACCESS:    2025153  HIT:    1975344  MISS:      49809  HIT %:    97.5405  MISS %:    2.45952   MPKI: 0.249045
L2C LOAD TRANSLATION ACCESS:      10798  HIT:       1777  MISS:       9021  HIT %:    16.4568  MISS %:    83.5432   MPKI: 0.045105
L2C TRANSLATION FROM L1D PREFETCHER ACCESS:     223578  HIT:     216739  MISS:       6839  HIT %:    96.9411  MISS %:    3.05889   MPKI: 0.034195
L2C PREFETCH  REQUESTED:          0  ISSUED:          0  USEFUL:      44032  USELESS:     722883
L2C USEFUL LOAD PREFETCHES:      44032 PREFETCH ISSUED TO LOWER LEVEL:     760059  ACCURACY: 5.79323
L2C TIMELY PREFETCHES:      44032 LATE PREFETCHES: 0 DROPPED PREFETCHES: 0
L2C PREFETCHES SAME FILL-ORIGIN LEVEL: 0 DIFFERENT FILL-ORIGIN LEVEL: 0
L2C AVERAGE MISS LATENCY: 33.1118 cycles
L2C RQ	ACCESS:   13565477	FORWARD:          0	MERGED:          0	TO_CACHE:   13565367
L2C WQ	ACCESS:    2025153	FORWARD:        355	MERGED:          0	TO_CACHE:    2025153
L2C PQ	ACCESS:    2602234	FORWARD:          0	MERGED:          0	TO_CACHE:    2601989

L2C Instructions Evicting Data 600098
L2C Translations Evicting Data 9042
L2C Data Evicting Data 850893
L2C Instructions Evicting Instructions 660345
L2C Translations Evicting Instructions 6687
L2C Data Evicting Instructions 578017
L2C Instructions Evicting Translations 6642
L2C Translations Evicting Translations 131
L2C Data Evicting Translations 8890
L2C Dense regions hint from L2: 0
PSCL5 TOTAL     ACCESS:     180324  HIT:     180324  MISS:          0  HIT %:        100  MISS %:          0   MPKI: 0
PSCL5 LOAD TRANSLATION ACCESS:       9842  HIT:       9842  MISS:          0  HIT %:        100  MISS %:          0   MPKI: 0
PSCL5 TRANSLATION FROM L1D PREFETCHER ACCESS:     170482  HIT:     170482  MISS:          0  HIT %:        100  MISS %:          0   MPKI: 0
PSCL5 PREFETCH  REQUESTED:          0  ISSUED:          0  USEFUL:          0  USELESS:          0
PSCL5 USEFUL LOAD PREFETCHES:          0 PREFETCH ISSUED TO LOWER LEVEL:          0  ACCURACY: -nan
PSCL5 TIMELY PREFETCHES:          0 LATE PREFETCHES: 0 DROPPED PREFETCHES: 0
PSCL5 PREFETCHES SAME FILL-ORIGIN LEVEL: 0 DIFFERENT FILL-ORIGIN LEVEL: 0

PSCL4 TOTAL     ACCESS:     178161  HIT:     178131  MISS:         30  HIT %:    99.9832  MISS %:  0.0168387   MPKI: 0.00015
PSCL4 LOAD TRANSLATION ACCESS:       9795  HIT:       9765  MISS:         30  HIT %:    99.6937  MISS %:   0.306279   MPKI: 0.00015
PSCL4 TRANSLATION FROM L1D PREFETCHER ACCESS:     168366  HIT:     168366  MISS:          0  HIT %:        100  MISS %:          0   MPKI: 0
PSCL4 PREFETCH  REQUESTED:          0  ISSUED:          0  USEFUL:          0  USELESS:          0
PSCL4 USEFUL LOAD PREFETCHES:          0 PREFETCH ISSUED TO LOWER LEVEL:          0  ACCURACY: -nan
PSCL4 TIMELY PREFETCHES:          0 LATE PREFETCHES: 0 DROPPED PREFETCHES: 0
PSCL4 PREFETCHES SAME FILL-ORIGIN LEVEL: 0 DIFFERENT FILL-ORIGIN LEVEL: 0

PSCL3 TOTAL     ACCESS:     179645  HIT:     179615  MISS:         30  HIT %:    99.9833  MISS %:  0.0166996   MPKI: 0.00015
PSCL3 LOAD TRANSLATION ACCESS:       9824  HIT:       9794  MISS:         30  HIT %:    99.6946  MISS %:   0.305375   MPKI: 0.00015
PSCL3 TRANSLATION FROM L1D PREFETCHER ACCESS:     169821  HIT:     169821  MISS:          0  HIT %:        100  MISS %:          0   MPKI: 0
PSCL3 PREFETCH  REQUESTED:          0  ISSUED:          0  USEFUL:          0  USELESS:          0
PSCL3 USEFUL LOAD PREFETCHES:          0 PREFETCH ISSUED TO LOWER LEVEL:          0  ACCURACY: -nan
PSCL3 TIMELY PREFETCHES:          0 LATE PREFETCHES: 0 DROPPED PREFETCHES: 0
PSCL3 PREFETCHES SAME FILL-ORIGIN LEVEL: 0 DIFFERENT FILL-ORIGIN LEVEL: 0

PSCL2 TOTAL     ACCESS:     127911  HIT:     127006  MISS:        905  HIT %:    99.2925  MISS %:   0.707523   MPKI: 0.004525
PSCL2 LOAD TRANSLATION ACCESS:       9851  HIT:       8946  MISS:        905  HIT %:    90.8131  MISS %:    9.18688   MPKI: 0.004525
PSCL2 TRANSLATION FROM L1D PREFETCHER ACCESS:     118060  HIT:     118060  MISS:          0  HIT %:        100  MISS %:          0   MPKI: 0
PSCL2 PREFETCH  REQUESTED:          0  ISSUED:          0  USEFUL:          0  USELESS:          0
PSCL2 USEFUL LOAD PREFETCHES:          0 PREFETCH ISSUED TO LOWER LEVEL:          0  ACCURACY: -nan
PSCL2 TIMELY PREFETCHES:          0 LATE PREFETCHES: 0 DROPPED PREFETCHES: 0
PSCL2 PREFETCHES SAME FILL-ORIGIN LEVEL: 0 DIFFERENT FILL-ORIGIN LEVEL: 0

LLC TOTAL     ACCESS:    3102877  HIT:    3034353  MISS:      68524  HIT %:    97.7916  MISS %:     2.2084   MPKI: 0.34262
LLC LOAD      ACCESS:    1696058  HIT:    1676724  MISS:      19334  HIT %:    98.8601  MISS %:    1.13994   MPKI: 0.09667
LLC RFO       ACCESS:     248760  HIT:     221644  MISS:      27116  HIT %:    89.0995  MISS %:    10.9005   MPKI: 0.13558
LLC PREFETCH  ACCESS:     760056  HIT:     738624  MISS:      21432  HIT %:    97.1802  MISS %:    2.81979   MPKI: 0.10716
AGUS PREFETCH L1 MISS: 0
LLC WRITEBACK ACCESS:     382143  HIT:     381821  MISS:        322  HIT %:    99.9157  MISS %:  0.0842617   MPKI: 0.00161
LLC LOAD TRANSLATION ACCESS:       9021  HIT:       8789  MISS:        232  HIT %:    97.4282  MISS %:    2.57178   MPKI: 0.00116
LLC TRANSLATION FROM L1D PREFETCHER ACCESS:       6839  HIT:       6751  MISS:         88  HIT %:    98.7133  MISS %:    1.28674   MPKI: 0.00044
LLC PREFETCH  REQUESTED:          0  ISSUED:          0  USEFUL:       2727  USELESS:      17631
LLC USEFUL LOAD PREFETCHES:       2727 PREFETCH ISSUED TO LOWER LEVEL:      21432  ACCURACY: 12.724
LLC TIMELY PREFETCHES:       2727 LATE PREFETCHES: 0 DROPPED PREFETCHES: 0
LLC PREFETCHES SAME FILL-ORIGIN LEVEL: 0 DIFFERENT FILL-ORIGIN LEVEL: 0
LLC AVERAGE MISS LATENCY: 147.607 cycles
LLC RQ	ACCESS:    1960685	FORWARD:          0	MERGED:          0	TO_CACHE:    1960677
LLC WQ	ACCESS:     382143	FORWARD:         11	MERGED:          0	TO_CACHE:     382143
LLC PQ	ACCESS:     760059	FORWARD:          0	MERGED:          0	TO_CACHE:     760056

LLC Dense regions hint to LLC: 0

RAW hits: 1402147
Loads Generated: 48288798
Loads sent to L1D: 46886651
Stores Generated: 26309147
Stores sent to L1D: 26309150
Major fault: 0 Minor fault: 1865
Allocated PAGES: 1865
ucb ended

DRAM Statistics
 CHANNEL 0
 RQ ROW_BUFFER_HIT:      20520  ROW_BUFFER_MISS:      47664
 DBUS_CONGESTED:         63
 WQ ROW_BUFFER_HIT:       3031  ROW_BUFFER_MISS:      29498  FULL:          0

 AVG_CONGESTED_CYCLE: 5
 All warmup complete: 2
Channel 0 Bank busy for read cycles: 0
Channel 0 Bank busy for write cycles: 0
Channel 0
Rank 0
0banks busy for read cycles: 604244250
0banks busy for write cycles: 11908
1banks busy for read cycles: 2632470
1banks busy for write cycles: 1418588
2banks busy for read cycles: 805411
2banks busy for write cycles: 387454
3banks busy for read cycles: 273594
3banks busy for write cycles: 183605
4banks busy for read cycles: 180973
4banks busy for write cycles: 112242
5banks busy for read cycles: 137603
5banks busy for write cycles: 90461
6banks busy for read cycles: 107006
6banks busy for write cycles: 72153
7banks busy for read cycles: 83212
7banks busy for write cycles: 63173
8banks busy for read cycles: 60434
8banks busy for write cycles: 113682

CPU 0 Branch Prediction Accuracy: 99.8462% MPKI: 0.271815 Average ROB Occupancy at Mispredict: 55.9582
Branch types
NOT_BRANCH: 164663064 82.3315%
BRANCH_DIRECT_JUMP: 2183492 1.09175%
BRANCH_INDIRECT: 11409987 5.70499%
BRANCH_CONDITIONAL: 13666237 6.83312%
BRANCH_DIRECT_CALL: 3412328 1.70616%
BRANCH_INDIRECT_CALL: 626274 0.313137%
BRANCH_RETURN: 4038590 2.0193%
BRANCH_OTHER: 0 0%

DRAM PAGES: 1048576
Allocated PAGES: 1865
