
*** ChampSim Multicore Out-of-Order Simulator ***

Warmup Instructions: 50000000
Simulation Instructions: 200000000
Number of CPUs: 1
LLC sets: 2048
LLC ways: 16
Off-chip DRAM Size: 4096 MB Channels: 1 Width: 64-bit Data Rate: 6400 MT/s
CPU 0 runs traces/spec2k17/srv_46.champsimtrace.xz
.xz
BTB has LRU replacement policy
ITLB has LRU replacement policy
DTLB has LRU replacement policy
STLB has LRU replacement policy
L1I has LRU replacement policy
L1D has LRU replacement policy
Initialize SRRIP state for L2C
Initialize DRRIP state for LLC
Offset table: -6 -5 -4 -3 -2 -1 1 2 3 4 5 6 
Offset table size: 12

Printing Sanity: 1

Round Robin Complete

Offset reward: 389 283 460 728 1048 1032 761 1017 662 229 394 747 
Offset reward size: 12

Offset count: 1 1 1 1 1 1 1 1 1 1 1 1 
Offset count size: 12

Printing Sanity: 2
n total: 12
Writing in data1.txt 

Writing done! 

Heartbeat CPU 0 instructions: 10000003 cycles: 2985360 heartbeat IPC: 3.34968 cumulative IPC: 3.34968 (Simulation time: 0 hr 0 min 25 sec) 
Heartbeat CPU 0 instructions: 20000003 cycles: 5978395 heartbeat IPC: 3.34109 cumulative IPC: 3.34538 (Simulation time: 0 hr 0 min 49 sec) 
Heartbeat CPU 0 instructions: 30000003 cycles: 8952121 heartbeat IPC: 3.36278 cumulative IPC: 3.35116 (Simulation time: 0 hr 1 min 14 sec) 
*** Reached end of trace for Core: 0 Repeating trace: traces/spec2k17/srv_46.champsimtrace.xz
Heartbeat CPU 0 instructions: 40000000 cycles: 11940828 heartbeat IPC: 3.34593 cumulative IPC: 3.34985 (Simulation time: 0 hr 1 min 39 sec) 
Heartbeat CPU 0 instructions: 50000000 cycles: 14921525 heartbeat IPC: 3.35492 cumulative IPC: 3.35086 (Simulation time: 0 hr 2 min 4 sec) 

Warmup complete CPU 0 instructions: 50000004 cycles: 14921526 (Simulation time: 0 hr 2 min 4 sec) 

Heartbeat CPU 0 instructions: 60000001 cycles: 39483278 heartbeat IPC: 0.407137 cumulative IPC: 0.407137 (Simulation time: 0 hr 2 min 40 sec) 
*** Reached end of trace for Core: 0 Repeating trace: traces/spec2k17/srv_46.champsimtrace.xz
Heartbeat CPU 0 instructions: 70000000 cycles: 63366056 heartbeat IPC: 0.418712 cumulative IPC: 0.412843 (Simulation time: 0 hr 3 min 16 sec) 
Heartbeat CPU 0 instructions: 80000000 cycles: 85803825 heartbeat IPC: 0.445677 cumulative IPC: 0.423237 (Simulation time: 0 hr 3 min 51 sec) 
Heartbeat CPU 0 instructions: 90000003 cycles: 109819040 heartbeat IPC: 0.416403 cumulative IPC: 0.421507 (Simulation time: 0 hr 4 min 27 sec) 
*** Reached end of trace for Core: 0 Repeating trace: traces/spec2k17/srv_46.champsimtrace.xz
Heartbeat CPU 0 instructions: 100000000 cycles: 133224846 heartbeat IPC: 0.427244 cumulative IPC: 0.422642 (Simulation time: 0 hr 5 min 2 sec) 
Heartbeat CPU 0 instructions: 110000000 cycles: 156596904 heartbeat IPC: 0.427861 cumulative IPC: 0.423503 (Simulation time: 0 hr 5 min 37 sec) 
Heartbeat CPU 0 instructions: 120000000 cycles: 179157903 heartbeat IPC: 0.443243 cumulative IPC: 0.426215 (Simulation time: 0 hr 6 min 13 sec) 
*** Reached end of trace for Core: 0 Repeating trace: traces/spec2k17/srv_46.champsimtrace.xz
Heartbeat CPU 0 instructions: 130000001 cycles: 202706487 heartbeat IPC: 0.424654 cumulative IPC: 0.426019 (Simulation time: 0 hr 6 min 48 sec) 
Heartbeat CPU 0 instructions: 140000002 cycles: 226908981 heartbeat IPC: 0.413181 cumulative IPC: 0.424553 (Simulation time: 0 hr 7 min 23 sec) 
Heartbeat CPU 0 instructions: 150000002 cycles: 249817935 heartbeat IPC: 0.436511 cumulative IPC: 0.42572 (Simulation time: 0 hr 7 min 58 sec) 
*** Reached end of trace for Core: 0 Repeating trace: traces/spec2k17/srv_46.champsimtrace.xz
Heartbeat CPU 0 instructions: 160000002 cycles: 272380637 heartbeat IPC: 0.443209 cumulative IPC: 0.427252 (Simulation time: 0 hr 8 min 33 sec) 
Heartbeat CPU 0 instructions: 170000003 cycles: 297237443 heartbeat IPC: 0.402304 cumulative IPC: 0.425056 (Simulation time: 0 hr 9 min 8 sec) 
Heartbeat CPU 0 instructions: 180000001 cycles: 320443683 heartbeat IPC: 0.430918 cumulative IPC: 0.425501 (Simulation time: 0 hr 9 min 44 sec) 
*** Reached end of trace for Core: 0 Repeating trace: traces/spec2k17/srv_46.champsimtrace.xz
Heartbeat CPU 0 instructions: 190000000 cycles: 343086769 heartbeat IPC: 0.441636 cumulative IPC: 0.426614 (Simulation time: 0 hr 10 min 20 sec) 
Heartbeat CPU 0 instructions: 200000003 cycles: 366816445 heartbeat IPC: 0.421413 cumulative IPC: 0.426264 (Simulation time: 0 hr 10 min 55 sec) 
Heartbeat CPU 0 instructions: 210000002 cycles: 390806710 heartbeat IPC: 0.416836 cumulative IPC: 0.425662 (Simulation time: 0 hr 11 min 31 sec) 
*** Reached end of trace for Core: 0 Repeating trace: traces/spec2k17/srv_46.champsimtrace.xz
Heartbeat CPU 0 instructions: 220000000 cycles: 413623158 heartbeat IPC: 0.43828 cumulative IPC: 0.426384 (Simulation time: 0 hr 12 min 6 sec) 
Heartbeat CPU 0 instructions: 230000002 cycles: 435797715 heartbeat IPC: 0.450967 cumulative IPC: 0.427679 (Simulation time: 0 hr 12 min 40 sec) 
Heartbeat CPU 0 instructions: 240000000 cycles: 460402226 heartbeat IPC: 0.406429 cumulative IPC: 0.426506 (Simulation time: 0 hr 13 min 16 sec) 
*** Reached end of trace for Core: 0 Repeating trace: traces/spec2k17/srv_46.champsimtrace.xz
Heartbeat CPU 0 instructions: 250000003 cycles: 484077658 heartbeat IPC: 0.422379 cumulative IPC: 0.426297 (Simulation time: 0 hr 13 min 51 sec) 
Finished CPU 0 instructions: 200000003 cycles: 469156133 cumulative IPC: 0.426297 (Simulation time: 0 hr 13 min 51 sec) 

ChampSim completed all CPUs

Region of Interest Statistics

CPU 0 cumulative IPC: 0.426297 instructions: 200000003 cycles: 469156133
ITLB TOTAL     ACCESS:   34876909  HIT:   33560626  MISS:    1316283  HIT %:    96.2259  MISS %:    3.77408   MPKI: 6.58141
ITLB LOAD TRANSLATION ACCESS:   34876909  HIT:   33560626  MISS:    1316283  HIT %:    96.2259  MISS %:    3.77408   MPKI: 6.58141
ITLB PREFETCH  REQUESTED:          0  ISSUED:          0  USEFUL:          0  USELESS:          0
ITLB USEFUL LOAD PREFETCHES:          0 PREFETCH ISSUED TO LOWER LEVEL:          0  ACCURACY: -nan
ITLB TIMELY PREFETCHES:          0 LATE PREFETCHES: 0 DROPPED PREFETCHES: 0
ITLB PREFETCHES SAME FILL-ORIGIN LEVEL: 0 DIFFERENT FILL-ORIGIN LEVEL: 0
ITLB AVERAGE MISS LATENCY: 9.52147 cycles
ITLB RQ	ACCESS:   40096156	FORWARD:          0	MERGED:    4841903	TO_CACHE:   35254253

DTLB TOTAL     ACCESS:   45232339  HIT:   43995204  MISS:    1237135  HIT %:    97.2649  MISS %:    2.73507   MPKI: 6.18567
DTLB LOAD TRANSLATION ACCESS:   45232339  HIT:   43995204  MISS:    1237135  HIT %:    97.2649  MISS %:    2.73507   MPKI: 6.18567
DTLB PREFETCH  REQUESTED:          0  ISSUED:          0  USEFUL:          0  USELESS:          0
DTLB USEFUL LOAD PREFETCHES:          0 PREFETCH ISSUED TO LOWER LEVEL:          0  ACCURACY: -nan
DTLB TIMELY PREFETCHES:          0 LATE PREFETCHES: 0 DROPPED PREFETCHES: 0
DTLB PREFETCHES SAME FILL-ORIGIN LEVEL: 0 DIFFERENT FILL-ORIGIN LEVEL: 0
DTLB AVERAGE MISS LATENCY: 12.4681 cycles
DTLB RQ	ACCESS:   61886952	FORWARD:          0	MERGED:   16567567	TO_CACHE:   45319385

STLB TOTAL     ACCESS:   31315097  HIT:   31262504  MISS:      52593  HIT %:    99.8321  MISS %:   0.167948   MPKI: 0.262965
STLB LOAD TRANSLATION ACCESS:    2553418  HIT:    2502028  MISS:      51390  HIT %:    97.9874  MISS %:     2.0126   MPKI: 0.25695
STLB TRANSLATION FROM L1D PREFETCHER ACCESS:   28761679  HIT:   28760476  MISS:       1203  HIT %:    99.9958  MISS %: 0.00418265   MPKI: 0.006015
STLB PREFETCH  REQUESTED:          0  ISSUED:          0  USEFUL:       1130  USELESS:         75
STLB USEFUL LOAD PREFETCHES:       1130 PREFETCH ISSUED TO LOWER LEVEL:          0  ACCURACY: inf
STLB TIMELY PREFETCHES:       1130 LATE PREFETCHES: 27 DROPPED PREFETCHES: 58911
STLB PREFETCHES SAME FILL-ORIGIN LEVEL: 0 DIFFERENT FILL-ORIGIN LEVEL: 0
STLB AVERAGE MISS LATENCY: 13603.9 cycles
STLB RQ	ACCESS:   38877892	FORWARD:          0	MERGED:    7503750	TO_CACHE:   31374142

STLB Hit, L1D data hit: 0
STLB Hit, L2C data hit: 0
STLB Hit, LLC data hit: 0
STLB Hit, LLC data miss: 0
STLB STLB hints to L2: 0
L1D TOTAL     ACCESS:   95528975  HIT:   91521824  MISS:    4007151  HIT %:    95.8053  MISS %:     4.1947   MPKI: 20.0358
L1D LOAD      ACCESS:   37589098  HIT:   35919726  MISS:    1669372  HIT %:    95.5589  MISS %:    4.44111   MPKI: 8.34686
L1D RFO       ACCESS:   21959049  HIT:   21154489  MISS:     804560  HIT %:    96.3361  MISS %:    3.66391   MPKI: 4.0228
L1D PREFETCH  ACCESS:   35980828  HIT:   34447609  MISS:    1533219  HIT %:    95.7388  MISS %:    4.26121   MPKI: 7.66609
AGUS PREFETCH L1 MISS: 0
L1D PREFETCH  REQUESTED:   74018987  ISSUED:   74018665  USEFUL:     378524  USELESS:    1154813
L1D USEFUL LOAD PREFETCHES:     378524 PREFETCH ISSUED TO LOWER LEVEL:    1580828  ACCURACY: 23.9447
L1D TIMELY PREFETCHES:     378524 LATE PREFETCHES: 44290 DROPPED PREFETCHES: 59271
L1D PREFETCHES SAME FILL-ORIGIN LEVEL: 1580828 DIFFERENT FILL-ORIGIN LEVEL: 0
L1D AVERAGE MISS LATENCY: 3.1515e+06 cycles
L1D RQ	ACCESS:   54618016	FORWARD:          0	MERGED:   16782458	TO_CACHE:   37694513
L1D WQ	ACCESS:   24630455	FORWARD:     171933	MERGED:     438016	TO_CACHE:   24192439
L1D PQ	ACCESS:   37694191	FORWARD:          0	MERGED:    1338829	TO_CACHE:   36324474

L1D UNIQUE REGIONS ACCESSED: 0
L1D REGIONS CONFLICTS: 0
L1D Cross Page Prefetch Requests: 720720
L1D Same Page Prefetch Requests: 45786312
L1D ROI Sum of L1D PQ occupancy: 467944917
L1D PREFETCHES PUSHED FROM L2C: 0
L1I TOTAL     ACCESS:   39401192  HIT:   34410790  MISS:    4990402  HIT %:    87.3344  MISS %:    12.6656   MPKI: 24.952
L1I LOAD      ACCESS:   39401192  HIT:   34410790  MISS:    4990402  HIT %:    87.3344  MISS %:    12.6656   MPKI: 24.952
L1I PREFETCH  REQUESTED:          0  ISSUED:          0  USEFUL:          0  USELESS:          0
L1I USEFUL LOAD PREFETCHES:          0 PREFETCH ISSUED TO LOWER LEVEL:          0  ACCURACY: -nan
L1I TIMELY PREFETCHES:          0 LATE PREFETCHES: 0 DROPPED PREFETCHES: 0
L1I PREFETCHES SAME FILL-ORIGIN LEVEL: 0 DIFFERENT FILL-ORIGIN LEVEL: 0
L1I AVERAGE MISS LATENCY: 21.2863 cycles
L1I RQ	ACCESS:   60428978	FORWARD:          0	MERGED:   20332822	TO_CACHE:   40096156

BTB TOTAL     ACCESS:   31255806  HIT:   24838532  MISS:    6417274  HIT %:    79.4685  MISS %:    20.5315   MPKI: 32.0864
BTB BRANCH_DIRECT_JUMP	ACCESS:    2533223  HIT:    2107885  MISS:     425338
BTB BRANCH_INDIRECT	ACCESS:   13038564  HIT:   10544316  MISS:    2494248
BTB BRANCH_CONDITIONAL	ACCESS:    7059562  HIT:    6546706  MISS:     512856
BTB BRANCH_DIRECT_CALL	ACCESS:    3018472  HIT:    2245364  MISS:     773108
BTB BRANCH_INDIRECT_CALL	ACCESS:    1293792  HIT:     937788  MISS:     356004
BTB BRANCH_RETURN	ACCESS:    4312193  HIT:    2456473  MISS:    1855720
BTB BRANCH_OTHER ACCESS:          0  HIT:          0  MISS:          0

L2C TOTAL     ACCESS:   10518991  HIT:    7804186  MISS:    2714805  HIT %:    74.1914  MISS %:    25.8086   MPKI: 13.574
L2C LOAD      ACCESS:    6615431  HIT:    4980877  MISS:    1634554  HIT %:    75.2918  MISS %:    24.7082   MPKI: 8.17277
L2C DATA LOAD MPKI: 2.40994
L2C INSTRUCTION LOAD MPKI: 5.76282
L2C RFO       ACCESS:     801217  HIT:     340708  MISS:     460509  HIT %:    42.5238  MISS %:    57.4762   MPKI: 2.30254
L2C PREFETCH  ACCESS:    1580783  HIT:    1072011  MISS:     508772  HIT %:    67.8152  MISS %:    32.1848   MPKI: 2.54386
AGUS PREFETCH L1 MISS: 0
L2C DATA PREFETCH MPKI: 2.54386
L2C INSTRUCTION PREFETCH MPKI: 0
L2C WRITEBACK ACCESS:    1359539  HIT:    1300031  MISS:      59508  HIT %:    95.6229  MISS %:    4.37707   MPKI: 0.29754
L2C LOAD TRANSLATION ACCESS:      79773  HIT:      32491  MISS:      47282  HIT %:    40.7293  MISS %:    59.2707   MPKI: 0.23641
L2C TRANSLATION FROM L1D PREFETCHER ACCESS:      82248  HIT:      78068  MISS:       4180  HIT %:    94.9178  MISS %:    5.08219   MPKI: 0.0209
L2C PREFETCH  REQUESTED:          0  ISSUED:          0  USEFUL:      38198  USELESS:     474742
L2C USEFUL LOAD PREFETCHES:      38198 PREFETCH ISSUED TO LOWER LEVEL:     508771  ACCURACY: 7.5079
L2C TIMELY PREFETCHES:      38198 LATE PREFETCHES: 0 DROPPED PREFETCHES: 0
L2C PREFETCHES SAME FILL-ORIGIN LEVEL: 0 DIFFERENT FILL-ORIGIN LEVEL: 0
L2C AVERAGE MISS LATENCY: 62.3039 cycles
L2C RQ	ACCESS:    7578744	FORWARD:          0	MERGED:          0	TO_CACHE:    7578669
L2C WQ	ACCESS:    1359539	FORWARD:        121	MERGED:          0	TO_CACHE:    1359539
L2C PQ	ACCESS:    1580828	FORWARD:          0	MERGED:          0	TO_CACHE:    1580782

L2C Instructions Evicting Data 595168
L2C Translations Evicting Data 33031
L2C Data Evicting Data 848934
L2C Instructions Evicting Instructions 539574
L2C Translations Evicting Instructions 17230
L2C Data Evicting Instructions 570748
L2C Instructions Evicting Translations 17823
L2C Translations Evicting Translations 1201
L2C Data Evicting Translations 31588
L2C Dense regions hint from L2: 0
PSCL5 TOTAL     ACCESS:     111504  HIT:     111504  MISS:          0  HIT %:        100  MISS %:          0   MPKI: 0
PSCL5 LOAD TRANSLATION ACCESS:      51363  HIT:      51363  MISS:          0  HIT %:        100  MISS %:          0   MPKI: 0
PSCL5 TRANSLATION FROM L1D PREFETCHER ACCESS:      60141  HIT:      60141  MISS:          0  HIT %:        100  MISS %:          0   MPKI: 0
PSCL5 PREFETCH  REQUESTED:          0  ISSUED:          0  USEFUL:          0  USELESS:          0
PSCL5 USEFUL LOAD PREFETCHES:          0 PREFETCH ISSUED TO LOWER LEVEL:          0  ACCURACY: -nan
PSCL5 TIMELY PREFETCHES:          0 LATE PREFETCHES: 0 DROPPED PREFETCHES: 0
PSCL5 PREFETCHES SAME FILL-ORIGIN LEVEL: 0 DIFFERENT FILL-ORIGIN LEVEL: 0

PSCL4 TOTAL     ACCESS:     108954  HIT:     108504  MISS:        450  HIT %:     99.587  MISS %:   0.413018   MPKI: 0.00225
PSCL4 LOAD TRANSLATION ACCESS:      50065  HIT:      49615  MISS:        450  HIT %:    99.1012  MISS %:   0.898832   MPKI: 0.00225
PSCL4 TRANSLATION FROM L1D PREFETCHER ACCESS:      58889  HIT:      58889  MISS:          0  HIT %:        100  MISS %:          0   MPKI: 0
PSCL4 PREFETCH  REQUESTED:          0  ISSUED:          0  USEFUL:          0  USELESS:          0
PSCL4 USEFUL LOAD PREFETCHES:          0 PREFETCH ISSUED TO LOWER LEVEL:          0  ACCURACY: -nan
PSCL4 TIMELY PREFETCHES:          0 LATE PREFETCHES: 0 DROPPED PREFETCHES: 0
PSCL4 PREFETCHES SAME FILL-ORIGIN LEVEL: 0 DIFFERENT FILL-ORIGIN LEVEL: 0

PSCL3 TOTAL     ACCESS:      97251  HIT:      89679  MISS:       7572  HIT %:     92.214  MISS %:    7.78604   MPKI: 0.03786
PSCL3 LOAD TRANSLATION ACCESS:      47545  HIT:      39973  MISS:       7572  HIT %:     84.074  MISS %:     15.926   MPKI: 0.03786
PSCL3 TRANSLATION FROM L1D PREFETCHER ACCESS:      49706  HIT:      49706  MISS:          0  HIT %:        100  MISS %:          0   MPKI: 0
PSCL3 PREFETCH  REQUESTED:          0  ISSUED:          0  USEFUL:          0  USELESS:          0
PSCL3 USEFUL LOAD PREFETCHES:          0 PREFETCH ISSUED TO LOWER LEVEL:          0  ACCURACY: -nan
PSCL3 TIMELY PREFETCHES:          0 LATE PREFETCHES: 0 DROPPED PREFETCHES: 0
PSCL3 PREFETCHES SAME FILL-ORIGIN LEVEL: 0 DIFFERENT FILL-ORIGIN LEVEL: 0

PSCL2 TOTAL     ACCESS:      90453  HIT:      69801  MISS:      20652  HIT %:    77.1683  MISS %:    22.8317   MPKI: 0.10326
PSCL2 LOAD TRANSLATION ACCESS:      51555  HIT:      30903  MISS:      20652  HIT %:    59.9418  MISS %:    40.0582   MPKI: 0.10326
PSCL2 TRANSLATION FROM L1D PREFETCHER ACCESS:      38898  HIT:      38898  MISS:          0  HIT %:        100  MISS %:          0   MPKI: 0
PSCL2 PREFETCH  REQUESTED:          0  ISSUED:          0  USEFUL:          0  USELESS:          0
PSCL2 USEFUL LOAD PREFETCHES:          0 PREFETCH ISSUED TO LOWER LEVEL:          0  ACCURACY: -nan
PSCL2 TIMELY PREFETCHES:          0 LATE PREFETCHES: 0 DROPPED PREFETCHES: 0
PSCL2 PREFETCHES SAME FILL-ORIGIN LEVEL: 0 DIFFERENT FILL-ORIGIN LEVEL: 0

LLC TOTAL     ACCESS:    3283515  HIT:    2738696  MISS:     544819  HIT %:    83.4074  MISS %:    16.5926   MPKI: 2.72409
LLC LOAD      ACCESS:    1634549  HIT:    1453642  MISS:     180907  HIT %:    88.9323  MISS %:    11.0677   MPKI: 0.904535
LLC RFO       ACCESS:     460506  HIT:     269502  MISS:     191004  HIT %:     58.523  MISS %:     41.477   MPKI: 0.95502
LLC PREFETCH  ACCESS:     508763  HIT:     368339  MISS:     140424  HIT %:    72.3989  MISS %:    27.6011   MPKI: 0.70212
AGUS PREFETCH L1 MISS: 0
LLC WRITEBACK ACCESS:     628235  HIT:     608838  MISS:      19397  HIT %:    96.9125  MISS %:    3.08754   MPKI: 0.096985
LLC LOAD TRANSLATION ACCESS:      47282  HIT:      35128  MISS:      12154  HIT %:    74.2947  MISS %:    25.7053   MPKI: 0.06077
LLC TRANSLATION FROM L1D PREFETCHER ACCESS:       4180  HIT:       3247  MISS:        933  HIT %:    77.6794  MISS %:    22.3206   MPKI: 0.004665
LLC PREFETCH  REQUESTED:          0  ISSUED:          0  USEFUL:       7480  USELESS:     137537
LLC USEFUL LOAD PREFETCHES:       7480 PREFETCH ISSUED TO LOWER LEVEL:     140424  ACCURACY: 5.32672
LLC TIMELY PREFETCHES:       7480 LATE PREFETCHES: 0 DROPPED PREFETCHES: 0
LLC PREFETCHES SAME FILL-ORIGIN LEVEL: 0 DIFFERENT FILL-ORIGIN LEVEL: 0
LLC AVERAGE MISS LATENCY: 164.244 cycles
LLC RQ	ACCESS:    2146525	FORWARD:          0	MERGED:          0	TO_CACHE:    2146517
LLC WQ	ACCESS:     628235	FORWARD:         17	MERGED:          0	TO_CACHE:     628235
LLC PQ	ACCESS:     508771	FORWARD:          0	MERGED:          0	TO_CACHE:     508762

LLC Dense regions hint to LLC: 0

RAW hits: 2697454
Loads Generated: 57315469
Loads sent to L1D: 54618016
Stores Generated: 24630464
Stores sent to L1D: 24630455
Major fault: 0 Minor fault: 4769
Allocated PAGES: 4769
ucb ended

DRAM Statistics
 CHANNEL 0
 RQ ROW_BUFFER_HIT:     170655  ROW_BUFFER_MISS:     354765
 DBUS_CONGESTED:        270
 WQ ROW_BUFFER_HIT:      38447  ROW_BUFFER_MISS:     205493  FULL:          0

 AVG_CONGESTED_CYCLE: 4
 All warmup complete: 2
Channel 0 Bank busy for read cycles: 0
Channel 0 Bank busy for write cycles: 0
Channel 0
Rank 0
0banks busy for read cycles: 411971070
0banks busy for write cycles: 96722
1banks busy for read cycles: 21930438
1banks busy for write cycles: 13021424
2banks busy for read cycles: 9336351
2banks busy for write cycles: 4207300
3banks busy for read cycles: 1644300
3banks busy for write cycles: 1419787
4banks busy for read cycles: 558535
4banks busy for write cycles: 673676
5banks busy for read cycles: 233088
5banks busy for write cycles: 371366
6banks busy for read cycles: 246733
6banks busy for write cycles: 252845
7banks busy for read cycles: 242125
7banks busy for write cycles: 262893
8banks busy for read cycles: 1227742
8banks busy for write cycles: 1459739

CPU 0 Branch Prediction Accuracy: 99.7584% MPKI: 0.42388 Average ROB Occupancy at Mispredict: 25.6259
Branch types
NOT_BRANCH: 164908890 82.4544%
BRANCH_DIRECT_JUMP: 2533223 1.26661%
BRANCH_INDIRECT: 13038564 6.51928%
BRANCH_CONDITIONAL: 10894810 5.4474%
BRANCH_DIRECT_CALL: 3018472 1.50924%
BRANCH_INDIRECT_CALL: 1293792 0.646896%
BRANCH_RETURN: 4312193 2.1561%
BRANCH_OTHER: 0 0%

DRAM PAGES: 1048576
Allocated PAGES: 4769
