
*** ChampSim Multicore Out-of-Order Simulator ***

Warmup Instructions: 50000000
Simulation Instructions: 200000000
Number of CPUs: 1
LLC sets: 2048
LLC ways: 16
Off-chip DRAM Size: 4096 MB Channels: 1 Width: 64-bit Data Rate: 6400 MT/s
CPU 0 runs traces/spec2k17/srv_62.champsimtrace.xz
.xz
BTB has LRU replacement policy
ITLB has LRU replacement policy
DTLB has LRU replacement policy
STLB has LRU replacement policy
L1I has LRU replacement policy
L1D has LRU replacement policy
Initialize SRRIP state for L2C
Initialize DRRIP state for LLC
Offset table: -6 -5 -4 -3 -2 -1 1 2 3 4 5 6 
Offset table size: 12

Printing Sanity: 1

Round Robin Complete

Offset reward: 340 370 398 713 805 1962 1691 916 627 424 334 192 
Offset reward size: 12

Offset count: 1 1 1 1 1 1 1 1 1 1 1 1 
Offset count size: 12

Printing Sanity: 2
n total: 12
Writing in data1.txt 

Writing done! 

Heartbeat CPU 0 instructions: 10000003 cycles: 2797160 heartbeat IPC: 3.57506 cumulative IPC: 3.57506 (Simulation time: 0 hr 0 min 21 sec) 
Heartbeat CPU 0 instructions: 20000001 cycles: 5594890 heartbeat IPC: 3.57433 cumulative IPC: 3.57469 (Simulation time: 0 hr 0 min 43 sec) 
Heartbeat CPU 0 instructions: 30000000 cycles: 8395891 heartbeat IPC: 3.57015 cumulative IPC: 3.57318 (Simulation time: 0 hr 1 min 4 sec) 
*** Reached end of trace for Core: 0 Repeating trace: traces/spec2k17/srv_62.champsimtrace.xz
Heartbeat CPU 0 instructions: 40000000 cycles: 11193939 heartbeat IPC: 3.57392 cumulative IPC: 3.57336 (Simulation time: 0 hr 1 min 25 sec) 
Heartbeat CPU 0 instructions: 50000003 cycles: 13992792 heartbeat IPC: 3.57289 cumulative IPC: 3.57327 (Simulation time: 0 hr 1 min 47 sec) 

Warmup complete CPU 0 instructions: 50000003 cycles: 13992792 (Simulation time: 0 hr 1 min 47 sec) 

Heartbeat CPU 0 instructions: 60000001 cycles: 36272737 heartbeat IPC: 0.448834 cumulative IPC: 0.448834 (Simulation time: 0 hr 2 min 20 sec) 
*** Reached end of trace for Core: 0 Repeating trace: traces/spec2k17/srv_62.champsimtrace.xz
Heartbeat CPU 0 instructions: 70000002 cycles: 58850260 heartbeat IPC: 0.442918 cumulative IPC: 0.445857 (Simulation time: 0 hr 2 min 54 sec) 
Heartbeat CPU 0 instructions: 80000000 cycles: 81825851 heartbeat IPC: 0.435244 cumulative IPC: 0.442262 (Simulation time: 0 hr 3 min 28 sec) 
Heartbeat CPU 0 instructions: 90000000 cycles: 104131229 heartbeat IPC: 0.448322 cumulative IPC: 0.443762 (Simulation time: 0 hr 4 min 1 sec) 
*** Reached end of trace for Core: 0 Repeating trace: traces/spec2k17/srv_62.champsimtrace.xz
Heartbeat CPU 0 instructions: 100000001 cycles: 126379300 heartbeat IPC: 0.449477 cumulative IPC: 0.444893 (Simulation time: 0 hr 4 min 34 sec) 
Heartbeat CPU 0 instructions: 110000000 cycles: 149353336 heartbeat IPC: 0.435274 cumulative IPC: 0.443261 (Simulation time: 0 hr 5 min 8 sec) 
Heartbeat CPU 0 instructions: 120000000 cycles: 171849601 heartbeat IPC: 0.444518 cumulative IPC: 0.44344 (Simulation time: 0 hr 5 min 41 sec) 
*** Reached end of trace for Core: 0 Repeating trace: traces/spec2k17/srv_62.champsimtrace.xz
Heartbeat CPU 0 instructions: 130000002 cycles: 193894372 heartbeat IPC: 0.453622 cumulative IPC: 0.444688 (Simulation time: 0 hr 6 min 14 sec) 
Heartbeat CPU 0 instructions: 140000001 cycles: 216748330 heartbeat IPC: 0.437561 cumulative IPC: 0.443884 (Simulation time: 0 hr 6 min 47 sec) 
Heartbeat CPU 0 instructions: 150000000 cycles: 239455595 heartbeat IPC: 0.440388 cumulative IPC: 0.443532 (Simulation time: 0 hr 7 min 21 sec) 
*** Reached end of trace for Core: 0 Repeating trace: traces/spec2k17/srv_62.champsimtrace.xz
Heartbeat CPU 0 instructions: 160000000 cycles: 261252405 heartbeat IPC: 0.458783 cumulative IPC: 0.444877 (Simulation time: 0 hr 7 min 54 sec) 
Heartbeat CPU 0 instructions: 170000001 cycles: 284129856 heartbeat IPC: 0.437112 cumulative IPC: 0.444219 (Simulation time: 0 hr 8 min 27 sec) 
Heartbeat CPU 0 instructions: 180000001 cycles: 307124194 heartbeat IPC: 0.43489 cumulative IPC: 0.443487 (Simulation time: 0 hr 9 min 0 sec) 
*** Reached end of trace for Core: 0 Repeating trace: traces/spec2k17/srv_62.champsimtrace.xz
Heartbeat CPU 0 instructions: 190000000 cycles: 328908360 heartbeat IPC: 0.459049 cumulative IPC: 0.444564 (Simulation time: 0 hr 9 min 34 sec) 
Heartbeat CPU 0 instructions: 200000002 cycles: 351934701 heartbeat IPC: 0.434285 cumulative IPC: 0.443863 (Simulation time: 0 hr 10 min 8 sec) 
Heartbeat CPU 0 instructions: 210000000 cycles: 374600566 heartbeat IPC: 0.441192 cumulative IPC: 0.443695 (Simulation time: 0 hr 10 min 42 sec) 
*** Reached end of trace for Core: 0 Repeating trace: traces/spec2k17/srv_62.champsimtrace.xz
Heartbeat CPU 0 instructions: 220000000 cycles: 396463544 heartbeat IPC: 0.457394 cumulative IPC: 0.444478 (Simulation time: 0 hr 11 min 16 sec) 
Heartbeat CPU 0 instructions: 230000002 cycles: 419486707 heartbeat IPC: 0.434345 cumulative IPC: 0.443903 (Simulation time: 0 hr 11 min 50 sec) 
Heartbeat CPU 0 instructions: 240000002 cycles: 441909098 heartbeat IPC: 0.445983 cumulative IPC: 0.444012 (Simulation time: 0 hr 12 min 23 sec) 
*** Reached end of trace for Core: 0 Repeating trace: traces/spec2k17/srv_62.champsimtrace.xz
Heartbeat CPU 0 instructions: 250000003 cycles: 464111727 heartbeat IPC: 0.450397 cumulative IPC: 0.444327 (Simulation time: 0 hr 12 min 57 sec) 
Finished CPU 0 instructions: 200000000 cycles: 450118935 cumulative IPC: 0.444327 (Simulation time: 0 hr 12 min 57 sec) 

ChampSim completed all CPUs

Region of Interest Statistics

CPU 0 cumulative IPC: 0.444327 instructions: 200000000 cycles: 450118935
ITLB TOTAL     ACCESS:   31571224  HIT:   30796470  MISS:     774754  HIT %:     97.546  MISS %:    2.45399   MPKI: 3.87377
ITLB LOAD TRANSLATION ACCESS:   31571224  HIT:   30796470  MISS:     774754  HIT %:     97.546  MISS %:    2.45399   MPKI: 3.87377
ITLB PREFETCH  REQUESTED:          0  ISSUED:          0  USEFUL:          0  USELESS:          0
ITLB USEFUL LOAD PREFETCHES:          0 PREFETCH ISSUED TO LOWER LEVEL:          0  ACCURACY: -nan
ITLB TIMELY PREFETCHES:          0 LATE PREFETCHES: 0 DROPPED PREFETCHES: 0
ITLB PREFETCHES SAME FILL-ORIGIN LEVEL: 0 DIFFERENT FILL-ORIGIN LEVEL: 0
ITLB AVERAGE MISS LATENCY: 14.1976 cycles
ITLB RQ	ACCESS:   38433853	FORWARD:          0	MERGED:    6668473	TO_CACHE:   31765380

DTLB TOTAL     ACCESS:   37272506  HIT:   34705122  MISS:    2567384  HIT %:    93.1119  MISS %:    6.88814   MPKI: 12.8369
DTLB LOAD TRANSLATION ACCESS:   37272506  HIT:   34705122  MISS:    2567384  HIT %:    93.1119  MISS %:    6.88814   MPKI: 12.8369
DTLB PREFETCH  REQUESTED:          0  ISSUED:          0  USEFUL:          0  USELESS:          0
DTLB USEFUL LOAD PREFETCHES:          0 PREFETCH ISSUED TO LOWER LEVEL:          0  ACCURACY: -nan
DTLB TIMELY PREFETCHES:          0 LATE PREFETCHES: 0 DROPPED PREFETCHES: 0
DTLB PREFETCHES SAME FILL-ORIGIN LEVEL: 0 DIFFERENT FILL-ORIGIN LEVEL: 0
DTLB AVERAGE MISS LATENCY: 13.9903 cycles
DTLB RQ	ACCESS:   47765639	FORWARD:          0	MERGED:   10346307	TO_CACHE:   37419332

STLB TOTAL     ACCESS:   25385603  HIT:   25044013  MISS:     341590  HIT %:    98.6544  MISS %:    1.34561   MPKI: 1.70795
STLB LOAD TRANSLATION ACCESS:    3342138  HIT:    3006103  MISS:     336035  HIT %:    89.9455  MISS %:    10.0545   MPKI: 1.68017
STLB TRANSLATION FROM L1D PREFETCHER ACCESS:   22043465  HIT:   22037910  MISS:       5555  HIT %:    99.9748  MISS %:  0.0252002   MPKI: 0.027775
STLB PREFETCH  REQUESTED:          0  ISSUED:          0  USEFUL:       5070  USELESS:        486
STLB USEFUL LOAD PREFETCHES:       5070 PREFETCH ISSUED TO LOWER LEVEL:          0  ACCURACY: inf
STLB TIMELY PREFETCHES:       5070 LATE PREFETCHES: 191 DROPPED PREFETCHES: 808938
STLB PREFETCHES SAME FILL-ORIGIN LEVEL: 0 DIFFERENT FILL-ORIGIN LEVEL: 0
STLB AVERAGE MISS LATENCY: 49.6656 cycles
STLB RQ	ACCESS:   30162153	FORWARD:          0	MERGED:    3966006	TO_CACHE:   26196147

STLB Hit, L1D data hit: 0
STLB Hit, L2C data hit: 0
STLB Hit, LLC data hit: 0
STLB Hit, LLC data miss: 0
STLB STLB hints to L2: 0
L1D TOTAL     ACCESS:   73032668  HIT:   68790363  MISS:    4242305  HIT %:    94.1912  MISS %:    5.80878   MPKI: 21.2115
L1D LOAD      ACCESS:   27674038  HIT:   25641620  MISS:    2032418  HIT %:    92.6559  MISS %:    7.34413   MPKI: 10.1621
L1D RFO       ACCESS:   19661527  HIT:   19356281  MISS:     305246  HIT %:    98.4475  MISS %:     1.5525   MPKI: 1.52623
L1D PREFETCH  ACCESS:   25697103  HIT:   23792462  MISS:    1904641  HIT %:    92.5881  MISS %:    7.41189   MPKI: 9.52321
AGUS PREFETCH L1 MISS: 0
L1D PREFETCH  REQUESTED:   54595304  ISSUED:   54595037  USEFUL:     416329  USELESS:    1488348
L1D USEFUL LOAD PREFETCHES:     416329 PREFETCH ISSUED TO LOWER LEVEL:    1938012  ACCURACY: 21.4823
L1D TIMELY PREFETCHES:     416329 LATE PREFETCHES: 31320 DROPPED PREFETCHES: 838622
L1D PREFETCHES SAME FILL-ORIGIN LEVEL: 1938012 DIFFERENT FILL-ORIGIN LEVEL: 0
L1D AVERAGE MISS LATENCY: 1.84324e+06 cycles
L1D RQ	ACCESS:   42263726	FORWARD:          0	MERGED:   14246823	TO_CACHE:   27775288
L1D WQ	ACCESS:   20274529	FORWARD:     281015	MERGED:     284178	TO_CACHE:   19990351
L1D PQ	ACCESS:   27775022	FORWARD:          0	MERGED:     915607	TO_CACHE:   26820015

L1D UNIQUE REGIONS ACCESSED: 0
L1D REGIONS CONFLICTS: 0
L1D Cross Page Prefetch Requests: 1902098
L1D Same Page Prefetch Requests: 32739945
L1D ROI Sum of L1D PQ occupancy: 400146275
L1D PREFETCHES PUSHED FROM L2C: 0
L1I TOTAL     ACCESS:   36635217  HIT:   31505938  MISS:    5129279  HIT %:     85.999  MISS %:     14.001   MPKI: 25.6464
L1I LOAD      ACCESS:   36635217  HIT:   31505938  MISS:    5129279  HIT %:     85.999  MISS %:     14.001   MPKI: 25.6464
L1I PREFETCH  REQUESTED:          0  ISSUED:          0  USEFUL:          0  USELESS:          0
L1I USEFUL LOAD PREFETCHES:          0 PREFETCH ISSUED TO LOWER LEVEL:          0  ACCURACY: -nan
L1I TIMELY PREFETCHES:          0 LATE PREFETCHES: 0 DROPPED PREFETCHES: 0
L1I PREFETCHES SAME FILL-ORIGIN LEVEL: 0 DIFFERENT FILL-ORIGIN LEVEL: 0
L1I AVERAGE MISS LATENCY: 27.9175 cycles
L1I RQ	ACCESS:   57304315	FORWARD:          0	MERGED:   18870462	TO_CACHE:   38433853

BTB TOTAL     ACCESS:   22279877  HIT:   17885755  MISS:    4394122  HIT %:    80.2776  MISS %:    19.7224   MPKI: 21.9706
BTB BRANCH_DIRECT_JUMP	ACCESS:    1742964  HIT:    1496507  MISS:     246457
BTB BRANCH_INDIRECT	ACCESS:    9461245  HIT:    7317391  MISS:    2143854
BTB BRANCH_CONDITIONAL	ACCESS:    4743514  HIT:    4337322  MISS:     406192
BTB BRANCH_DIRECT_CALL	ACCESS:    2483118  HIT:    2001034  MISS:     482084
BTB BRANCH_INDIRECT_CALL	ACCESS:     682660  HIT:     643233  MISS:      39427
BTB BRANCH_RETURN	ACCESS:    3166376  HIT:    2090268  MISS:    1076108
BTB BRANCH_OTHER ACCESS:          0  HIT:          0  MISS:          0

L2C TOTAL     ACCESS:   12355144  HIT:    7913405  MISS:    4441739  HIT %:    64.0495  MISS %:    35.9505   MPKI: 22.2087
L2C LOAD      ACCESS:    7130140  HIT:    4107737  MISS:    3022403  HIT %:    57.6109  MISS %:    42.3891   MPKI: 15.112
L2C DATA LOAD MPKI: 4.07966
L2C INSTRUCTION LOAD MPKI: 11.0324
L2C RFO       ACCESS:     303172  HIT:     178070  MISS:     125102  HIT %:    58.7356  MISS %:    41.2644   MPKI: 0.62551
L2C PREFETCH  ACCESS:    1937853  HIT:     887442  MISS:    1050411  HIT %:    45.7951  MISS %:    54.2049   MPKI: 5.25206
AGUS PREFETCH L1 MISS: 0
L2C DATA PREFETCH MPKI: 5.25206
L2C INSTRUCTION PREFETCH MPKI: 0
L2C WRITEBACK ACCESS:    1103764  HIT:    1064742  MISS:      39022  HIT %:    96.4646  MISS %:    3.53536   MPKI: 0.19511
L2C LOAD TRANSLATION ACCESS:     443156  HIT:     246257  MISS:     196899  HIT %:    55.5689  MISS %:    44.4311   MPKI: 0.984495
L2C TRANSLATION FROM L1D PREFETCHER ACCESS:    1437059  HIT:    1429157  MISS:       7902  HIT %:    99.4501  MISS %:   0.549873   MPKI: 0.03951
L2C PREFETCH  REQUESTED:          0  ISSUED:          0  USEFUL:      56902  USELESS:    1001510
L2C USEFUL LOAD PREFETCHES:      56902 PREFETCH ISSUED TO LOWER LEVEL:    1050413  ACCURACY: 5.41711
L2C TIMELY PREFETCHES:      56902 LATE PREFETCHES: 0 DROPPED PREFETCHES: 0
L2C PREFETCHES SAME FILL-ORIGIN LEVEL: 0 DIFFERENT FILL-ORIGIN LEVEL: 0
L2C AVERAGE MISS LATENCY: 43.1985 cycles
L2C RQ	ACCESS:    9313789	FORWARD:          0	MERGED:          0	TO_CACHE:    9313527
L2C WQ	ACCESS:    1103764	FORWARD:        419	MERGED:          0	TO_CACHE:    1103764
L2C PQ	ACCESS:    1938012	FORWARD:          0	MERGED:          0	TO_CACHE:    1937855

L2C Instructions Evicting Data 992658
L2C Translations Evicting Data 93394
L2C Data Evicting Data 926423
L2C Instructions Evicting Instructions 1112282
L2C Translations Evicting Instructions 102145
L2C Data Evicting Instructions 972274
L2C Instructions Evicting Translations 101531
L2C Translations Evicting Translations 9262
L2C Data Evicting Translations 92748
L2C Dense regions hint from L2: 0
PSCL5 TOTAL     ACCESS:    1150528  HIT:    1150528  MISS:          0  HIT %:        100  MISS %:          0   MPKI: 0
PSCL5 LOAD TRANSLATION ACCESS:     335844  HIT:     335844  MISS:          0  HIT %:        100  MISS %:          0   MPKI: 0
PSCL5 TRANSLATION FROM L1D PREFETCHER ACCESS:     814684  HIT:     814684  MISS:          0  HIT %:        100  MISS %:          0   MPKI: 0
PSCL5 PREFETCH  REQUESTED:          0  ISSUED:          0  USEFUL:          0  USELESS:          0
PSCL5 USEFUL LOAD PREFETCHES:          0 PREFETCH ISSUED TO LOWER LEVEL:          0  ACCURACY: -nan
PSCL5 TIMELY PREFETCHES:          0 LATE PREFETCHES: 0 DROPPED PREFETCHES: 0
PSCL5 PREFETCHES SAME FILL-ORIGIN LEVEL: 0 DIFFERENT FILL-ORIGIN LEVEL: 0

PSCL4 TOTAL     ACCESS:    1074346  HIT:    1074038  MISS:        308  HIT %:    99.9713  MISS %:  0.0286686   MPKI: 0.00154
PSCL4 LOAD TRANSLATION ACCESS:     284186  HIT:     283878  MISS:        308  HIT %:    99.8916  MISS %:    0.10838   MPKI: 0.00154
PSCL4 TRANSLATION FROM L1D PREFETCHER ACCESS:     790160  HIT:     790160  MISS:          0  HIT %:        100  MISS %:          0   MPKI: 0
PSCL4 PREFETCH  REQUESTED:          0  ISSUED:          0  USEFUL:          0  USELESS:          0
PSCL4 USEFUL LOAD PREFETCHES:          0 PREFETCH ISSUED TO LOWER LEVEL:          0  ACCURACY: -nan
PSCL4 TIMELY PREFETCHES:          0 LATE PREFETCHES: 0 DROPPED PREFETCHES: 0
PSCL4 PREFETCHES SAME FILL-ORIGIN LEVEL: 0 DIFFERENT FILL-ORIGIN LEVEL: 0

PSCL3 TOTAL     ACCESS:    1148847  HIT:    1147922  MISS:        925  HIT %:    99.9195  MISS %:  0.0805155   MPKI: 0.004625
PSCL3 LOAD TRANSLATION ACCESS:     334781  HIT:     333856  MISS:        925  HIT %:    99.7237  MISS %:     0.2763   MPKI: 0.004625
PSCL3 TRANSLATION FROM L1D PREFETCHER ACCESS:     814066  HIT:     814066  MISS:          0  HIT %:        100  MISS %:          0   MPKI: 0
PSCL3 PREFETCH  REQUESTED:          0  ISSUED:          0  USEFUL:          0  USELESS:          0
PSCL3 USEFUL LOAD PREFETCHES:          0 PREFETCH ISSUED TO LOWER LEVEL:          0  ACCURACY: -nan
PSCL3 TIMELY PREFETCHES:          0 LATE PREFETCHES: 0 DROPPED PREFETCHES: 0
PSCL3 PREFETCHES SAME FILL-ORIGIN LEVEL: 0 DIFFERENT FILL-ORIGIN LEVEL: 0

PSCL2 TOTAL     ACCESS:     529339  HIT:     421829  MISS:     107510  HIT %:    79.6898  MISS %:    20.3102   MPKI: 0.53755
PSCL2 LOAD TRANSLATION ACCESS:     337258  HIT:     229748  MISS:     107510  HIT %:    68.1223  MISS %:    31.8777   MPKI: 0.53755
PSCL2 TRANSLATION FROM L1D PREFETCHER ACCESS:     192081  HIT:     192081  MISS:          0  HIT %:        100  MISS %:          0   MPKI: 0
PSCL2 PREFETCH  REQUESTED:          0  ISSUED:          0  USEFUL:          0  USELESS:          0
PSCL2 USEFUL LOAD PREFETCHES:          0 PREFETCH ISSUED TO LOWER LEVEL:          0  ACCURACY: -nan
PSCL2 TIMELY PREFETCHES:          0 LATE PREFETCHES: 0 DROPPED PREFETCHES: 0
PSCL2 PREFETCHES SAME FILL-ORIGIN LEVEL: 0 DIFFERENT FILL-ORIGIN LEVEL: 0

LLC TOTAL     ACCESS:    4862527  HIT:    4456624  MISS:     405903  HIT %:    91.6524  MISS %:    8.34757   MPKI: 2.02951
LLC LOAD      ACCESS:    3022395  HIT:    2849019  MISS:     173376  HIT %:    94.2636  MISS %:    5.73638   MPKI: 0.86688
LLC RFO       ACCESS:     125102  HIT:      87280  MISS:      37822  HIT %:    69.7671  MISS %:    30.2329   MPKI: 0.18911
LLC PREFETCH  ACCESS:    1050408  HIT:     873812  MISS:     176596  HIT %:    83.1879  MISS %:    16.8121   MPKI: 0.88298
AGUS PREFETCH L1 MISS: 0
LLC WRITEBACK ACCESS:     459821  HIT:     457089  MISS:       2732  HIT %:    99.4059  MISS %:   0.594144   MPKI: 0.01366
LLC LOAD TRANSLATION ACCESS:     196899  HIT:     181824  MISS:      15075  HIT %:    92.3438  MISS %:    7.65621   MPKI: 0.075375
LLC TRANSLATION FROM L1D PREFETCHER ACCESS:       7902  HIT:       7600  MISS:        302  HIT %:    96.1782  MISS %:    3.82182   MPKI: 0.00151
LLC PREFETCH  REQUESTED:          0  ISSUED:          0  USEFUL:       6459  USELESS:     168424
LLC USEFUL LOAD PREFETCHES:       6459 PREFETCH ISSUED TO LOWER LEVEL:     176597  ACCURACY: 3.65748
LLC TIMELY PREFETCHES:       6459 LATE PREFETCHES: 0 DROPPED PREFETCHES: 0
LLC PREFETCHES SAME FILL-ORIGIN LEVEL: 0 DIFFERENT FILL-ORIGIN LEVEL: 0
LLC AVERAGE MISS LATENCY: 147.308 cycles
LLC RQ	ACCESS:    3352306	FORWARD:          0	MERGED:          0	TO_CACHE:    3352298
LLC WQ	ACCESS:     459821	FORWARD:         11	MERGED:          0	TO_CACHE:     459821
LLC PQ	ACCESS:    1050413	FORWARD:          0	MERGED:          0	TO_CACHE:    1050410

LLC Dense regions hint to LLC: 0

RAW hits: 2690751
Loads Generated: 44954476
Loads sent to L1D: 42263726
Stores Generated: 20274528
Stores sent to L1D: 20274529
Major fault: 0 Minor fault: 5946
Allocated PAGES: 5946
ucb ended

DRAM Statistics
 CHANNEL 0
 RQ ROW_BUFFER_HIT:      96870  ROW_BUFFER_MISS:     306301
 DBUS_CONGESTED:        231
 WQ ROW_BUFFER_HIT:      39141  ROW_BUFFER_MISS:     183020  FULL:          0

 AVG_CONGESTED_CYCLE: 4
 All warmup complete: 2
Channel 0 Bank busy for read cycles: 0
Channel 0 Bank busy for write cycles: 0
Channel 0
Rank 0
0banks busy for read cycles: 388208081
0banks busy for write cycles: 109878
1banks busy for read cycles: 28515421
1banks busy for write cycles: 15280604
2banks busy for read cycles: 7052156
2banks busy for write cycles: 3846570
3banks busy for read cycles: 1474655
3banks busy for write cycles: 1661406
4banks busy for read cycles: 521184
4banks busy for write cycles: 1063230
5banks busy for read cycles: 144680
5banks busy for write cycles: 749585
6banks busy for read cycles: 61603
6banks busy for write cycles: 577518
7banks busy for read cycles: 33222
7banks busy for write cycles: 431181
8banks busy for read cycles: 42012
8banks busy for write cycles: 345950

CPU 0 Branch Prediction Accuracy: 99.8413% MPKI: 0.28434 Average ROB Occupancy at Mispredict: 41.9381
Branch types
NOT_BRANCH: 164167920 82.084%
BRANCH_DIRECT_JUMP: 1742964 0.871482%
BRANCH_INDIRECT: 9461245 4.73062%
BRANCH_CONDITIONAL: 18295370 9.14768%
BRANCH_DIRECT_CALL: 2483118 1.24156%
BRANCH_INDIRECT_CALL: 682660 0.34133%
BRANCH_RETURN: 3166376 1.58319%
BRANCH_OTHER: 0 0%

DRAM PAGES: 1048576
Allocated PAGES: 5946
