
*** ChampSim Multicore Out-of-Order Simulator ***

Warmup Instructions: 50000000
Simulation Instructions: 200000000
Number of CPUs: 1
LLC sets: 2048
LLC ways: 16
Off-chip DRAM Size: 4096 MB Channels: 1 Width: 64-bit Data Rate: 6400 MT/s
CPU 0 runs traces/spec2k17/srv_69.champsimtrace.xz
.xz
BTB has LRU replacement policy
ITLB has LRU replacement policy
DTLB has LRU replacement policy
STLB has LRU replacement policy
L1I has LRU replacement policy
L1D has LRU replacement policy
Initialize SRRIP state for L2C
Initialize DRRIP state for LLC
Offset table: -6 -5 -4 -3 -2 -1 1 2 3 4 5 6 
Offset table size: 12

Printing Sanity: 1

Round Robin Complete

Offset reward: 409 332 354 715 934 1999 1508 812 764 325 405 271 
Offset reward size: 12

Offset count: 1 1 1 1 1 1 1 1 1 1 1 1 
Offset count size: 12

Printing Sanity: 2
n total: 12
Writing in data1.txt 

Writing done! 

Heartbeat CPU 0 instructions: 10000001 cycles: 2814317 heartbeat IPC: 3.55326 cumulative IPC: 3.55326 (Simulation time: 0 hr 0 min 21 sec) 
Heartbeat CPU 0 instructions: 20000003 cycles: 5627447 heartbeat IPC: 3.55476 cumulative IPC: 3.55401 (Simulation time: 0 hr 0 min 43 sec) 
Heartbeat CPU 0 instructions: 30000000 cycles: 8427747 heartbeat IPC: 3.57104 cumulative IPC: 3.55967 (Simulation time: 0 hr 1 min 4 sec) 
*** Reached end of trace for Core: 0 Repeating trace: traces/spec2k17/srv_69.champsimtrace.xz
Heartbeat CPU 0 instructions: 40000003 cycles: 11234054 heartbeat IPC: 3.5634 cumulative IPC: 3.5606 (Simulation time: 0 hr 1 min 25 sec) 
Heartbeat CPU 0 instructions: 50000001 cycles: 14046140 heartbeat IPC: 3.55608 cumulative IPC: 3.5597 (Simulation time: 0 hr 1 min 47 sec) 

Warmup complete CPU 0 instructions: 50000001 cycles: 14046140 (Simulation time: 0 hr 1 min 47 sec) 

Heartbeat CPU 0 instructions: 60000000 cycles: 37883206 heartbeat IPC: 0.419515 cumulative IPC: 0.419515 (Simulation time: 0 hr 2 min 20 sec) 
*** Reached end of trace for Core: 0 Repeating trace: traces/spec2k17/srv_69.champsimtrace.xz
Heartbeat CPU 0 instructions: 70000000 cycles: 62005601 heartbeat IPC: 0.414553 cumulative IPC: 0.417019 (Simulation time: 0 hr 2 min 54 sec) 
Heartbeat CPU 0 instructions: 80000000 cycles: 86265881 heartbeat IPC: 0.412196 cumulative IPC: 0.415399 (Simulation time: 0 hr 3 min 28 sec) 
Heartbeat CPU 0 instructions: 90000001 cycles: 110968330 heartbeat IPC: 0.404818 cumulative IPC: 0.412702 (Simulation time: 0 hr 4 min 2 sec) 
*** Reached end of trace for Core: 0 Repeating trace: traces/spec2k17/srv_69.champsimtrace.xz
Heartbeat CPU 0 instructions: 100000000 cycles: 135109619 heartbeat IPC: 0.414228 cumulative IPC: 0.413006 (Simulation time: 0 hr 4 min 36 sec) 
Heartbeat CPU 0 instructions: 110000000 cycles: 158998039 heartbeat IPC: 0.418613 cumulative IPC: 0.41393 (Simulation time: 0 hr 5 min 10 sec) 
Heartbeat CPU 0 instructions: 120000002 cycles: 183847157 heartbeat IPC: 0.402429 cumulative IPC: 0.412247 (Simulation time: 0 hr 5 min 44 sec) 
*** Reached end of trace for Core: 0 Repeating trace: traces/spec2k17/srv_69.champsimtrace.xz
Heartbeat CPU 0 instructions: 130000000 cycles: 207800822 heartbeat IPC: 0.417473 cumulative IPC: 0.412893 (Simulation time: 0 hr 6 min 17 sec) 
Heartbeat CPU 0 instructions: 140000003 cycles: 232392561 heartbeat IPC: 0.406641 cumulative IPC: 0.412189 (Simulation time: 0 hr 6 min 51 sec) 
Heartbeat CPU 0 instructions: 150000000 cycles: 256740677 heartbeat IPC: 0.410709 cumulative IPC: 0.412041 (Simulation time: 0 hr 7 min 25 sec) 
*** Reached end of trace for Core: 0 Repeating trace: traces/spec2k17/srv_69.champsimtrace.xz
Heartbeat CPU 0 instructions: 160000001 cycles: 280631044 heartbeat IPC: 0.418579 cumulative IPC: 0.412627 (Simulation time: 0 hr 7 min 59 sec) 
Heartbeat CPU 0 instructions: 170000000 cycles: 304723958 heartbeat IPC: 0.41506 cumulative IPC: 0.412828 (Simulation time: 0 hr 8 min 32 sec) 
Heartbeat CPU 0 instructions: 180000003 cycles: 329339027 heartbeat IPC: 0.406255 cumulative IPC: 0.412315 (Simulation time: 0 hr 9 min 6 sec) 
*** Reached end of trace for Core: 0 Repeating trace: traces/spec2k17/srv_69.champsimtrace.xz
Heartbeat CPU 0 instructions: 190000000 cycles: 353119387 heartbeat IPC: 0.420515 cumulative IPC: 0.41289 (Simulation time: 0 hr 9 min 39 sec) 
Heartbeat CPU 0 instructions: 200000000 cycles: 377492346 heartbeat IPC: 0.410291 cumulative IPC: 0.412716 (Simulation time: 0 hr 10 min 13 sec) 
Heartbeat CPU 0 instructions: 210000002 cycles: 402007989 heartbeat IPC: 0.407903 cumulative IPC: 0.412412 (Simulation time: 0 hr 10 min 47 sec) 
*** Reached end of trace for Core: 0 Repeating trace: traces/spec2k17/srv_69.champsimtrace.xz
Heartbeat CPU 0 instructions: 220000000 cycles: 425708198 heartbeat IPC: 0.421937 cumulative IPC: 0.41296 (Simulation time: 0 hr 11 min 20 sec) 
Heartbeat CPU 0 instructions: 230000003 cycles: 450236142 heartbeat IPC: 0.407698 cumulative IPC: 0.412664 (Simulation time: 0 hr 11 min 53 sec) 
Heartbeat CPU 0 instructions: 240000000 cycles: 474699139 heartbeat IPC: 0.408781 cumulative IPC: 0.412458 (Simulation time: 0 hr 12 min 26 sec) 
*** Reached end of trace for Core: 0 Repeating trace: traces/spec2k17/srv_69.champsimtrace.xz
Heartbeat CPU 0 instructions: 250000003 cycles: 498218267 heartbeat IPC: 0.425186 cumulative IPC: 0.413076 (Simulation time: 0 hr 12 min 59 sec) 
Finished CPU 0 instructions: 200000002 cycles: 484172127 cumulative IPC: 0.413076 (Simulation time: 0 hr 12 min 59 sec) 

ChampSim completed all CPUs

Region of Interest Statistics

CPU 0 cumulative IPC: 0.413076 instructions: 200000002 cycles: 484172127
ITLB TOTAL     ACCESS:   31682277  HIT:   30866813  MISS:     815464  HIT %:    97.4261  MISS %:    2.57388   MPKI: 4.07732
ITLB LOAD TRANSLATION ACCESS:   31682277  HIT:   30866813  MISS:     815464  HIT %:    97.4261  MISS %:    2.57388   MPKI: 4.07732
ITLB PREFETCH  REQUESTED:          0  ISSUED:          0  USEFUL:          0  USELESS:          0
ITLB USEFUL LOAD PREFETCHES:          0 PREFETCH ISSUED TO LOWER LEVEL:          0  ACCURACY: -nan
ITLB TIMELY PREFETCHES:          0 LATE PREFETCHES: 0 DROPPED PREFETCHES: 0
ITLB PREFETCHES SAME FILL-ORIGIN LEVEL: 0 DIFFERENT FILL-ORIGIN LEVEL: 0
ITLB AVERAGE MISS LATENCY: 16.0812 cycles
ITLB RQ	ACCESS:   38413272	FORWARD:          0	MERGED:    6538946	TO_CACHE:   31874326

DTLB TOTAL     ACCESS:   38046950  HIT:   35584966  MISS:    2461984  HIT %:    93.5291  MISS %:    6.47091   MPKI: 12.3099
DTLB LOAD TRANSLATION ACCESS:   38046950  HIT:   35584966  MISS:    2461984  HIT %:    93.5291  MISS %:    6.47091   MPKI: 12.3099
DTLB PREFETCH  REQUESTED:          0  ISSUED:          0  USEFUL:          0  USELESS:          0
DTLB USEFUL LOAD PREFETCHES:          0 PREFETCH ISSUED TO LOWER LEVEL:          0  ACCURACY: -nan
DTLB TIMELY PREFETCHES:          0 LATE PREFETCHES: 0 DROPPED PREFETCHES: 0
DTLB PREFETCHES SAME FILL-ORIGIN LEVEL: 0 DIFFERENT FILL-ORIGIN LEVEL: 0
DTLB AVERAGE MISS LATENCY: 14.7872 cycles
DTLB RQ	ACCESS:   48446867	FORWARD:          0	MERGED:   10255379	TO_CACHE:   38191488

STLB TOTAL     ACCESS:   26222167  HIT:   25764842  MISS:     457325  HIT %:     98.256  MISS %:    1.74404   MPKI: 2.28662
STLB LOAD TRANSLATION ACCESS:    3277448  HIT:    2826425  MISS:     451023  HIT %:    86.2386  MISS %:    13.7614   MPKI: 2.25511
STLB TRANSLATION FROM L1D PREFETCHER ACCESS:   22944719  HIT:   22938417  MISS:       6302  HIT %:    99.9725  MISS %:   0.027466   MPKI: 0.03151
STLB PREFETCH  REQUESTED:          0  ISSUED:          0  USEFUL:       5491  USELESS:        810
STLB USEFUL LOAD PREFETCHES:       5491 PREFETCH ISSUED TO LOWER LEVEL:          0  ACCURACY: inf
STLB TIMELY PREFETCHES:       5491 LATE PREFETCHES: 322 DROPPED PREFETCHES: 716148
STLB PREFETCHES SAME FILL-ORIGIN LEVEL: 0 DIFFERENT FILL-ORIGIN LEVEL: 0
STLB AVERAGE MISS LATENCY: 44.1045 cycles
STLB RQ	ACCESS:   30874736	FORWARD:          0	MERGED:    3935472	TO_CACHE:   26939264

STLB Hit, L1D data hit: 0
STLB Hit, L2C data hit: 0
STLB Hit, LLC data hit: 0
STLB Hit, LLC data miss: 0
STLB STLB hints to L2: 0
L1D TOTAL     ACCESS:   74511427  HIT:   70343854  MISS:    4167573  HIT %:    94.4068  MISS %:     5.5932   MPKI: 20.8379
L1D LOAD      ACCESS:   28400990  HIT:   26384077  MISS:    2016913  HIT %:    92.8984  MISS %:    7.10156   MPKI: 10.0846
L1D RFO       ACCESS:   19577173  HIT:   19268626  MISS:     308547  HIT %:    98.4239  MISS %:    1.57605   MPKI: 1.54273
L1D PREFETCH  ACCESS:   26533264  HIT:   24691151  MISS:    1842113  HIT %:    93.0573  MISS %:    6.94266   MPKI: 9.21056
AGUS PREFETCH L1 MISS: 0
L1D PREFETCH  REQUESTED:   56111049  ISSUED:   56110841  USEFUL:     400172  USELESS:    1441941
L1D USEFUL LOAD PREFETCHES:     400172 PREFETCH ISSUED TO LOWER LEVEL:    1882106  ACCURACY: 21.2619
L1D TIMELY PREFETCHES:     400172 LATE PREFETCHES: 37456 DROPPED PREFETCHES: 732518
L1D PREFETCHES SAME FILL-ORIGIN LEVEL: 1882106 DIFFERENT FILL-ORIGIN LEVEL: 0
L1D AVERAGE MISS LATENCY: 2.54162e+06 cycles
L1D RQ	ACCESS:   42707652	FORWARD:          0	MERGED:   13976391	TO_CACHE:   28513762
L1D WQ	ACCESS:   20255401	FORWARD:     259838	MERGED:     322296	TO_CACHE:   19933105
L1D PQ	ACCESS:   28513553	FORWARD:          0	MERGED:     873926	TO_CACHE:   27597288

L1D UNIQUE REGIONS ACCESSED: 0
L1D REGIONS CONFLICTS: 0
L1D Cross Page Prefetch Requests: 1624909
L1D Same Page Prefetch Requests: 33907045
L1D ROI Sum of L1D PQ occupancy: 397891797
L1D PREFETCHES PUSHED FROM L2C: 0
L1I TOTAL     ACCESS:   36780403  HIT:   31721640  MISS:    5058763  HIT %:     86.246  MISS %:     13.754   MPKI: 25.2938
L1I LOAD      ACCESS:   36780403  HIT:   31721640  MISS:    5058763  HIT %:     86.246  MISS %:     13.754   MPKI: 25.2938
L1I PREFETCH  REQUESTED:          0  ISSUED:          0  USEFUL:          0  USELESS:          0
L1I USEFUL LOAD PREFETCHES:          0 PREFETCH ISSUED TO LOWER LEVEL:          0  ACCURACY: -nan
L1I TIMELY PREFETCHES:          0 LATE PREFETCHES: 0 DROPPED PREFETCHES: 0
L1I PREFETCHES SAME FILL-ORIGIN LEVEL: 0 DIFFERENT FILL-ORIGIN LEVEL: 0
L1I AVERAGE MISS LATENCY: 29.8317 cycles
L1I RQ	ACCESS:   57429999	FORWARD:          0	MERGED:   19016727	TO_CACHE:   38413272

BTB TOTAL     ACCESS:   23164678  HIT:   18167932  MISS:    4996746  HIT %:    78.4295  MISS %:    21.5705   MPKI: 24.9837
BTB BRANCH_DIRECT_JUMP	ACCESS:    1914726  HIT:    1629531  MISS:     285195
BTB BRANCH_INDIRECT	ACCESS:    9756594  HIT:    7380335  MISS:    2376259
BTB BRANCH_CONDITIONAL	ACCESS:    4774696  HIT:    4326608  MISS:     448088
BTB BRANCH_DIRECT_CALL	ACCESS:    2648257  HIT:    2097355  MISS:     550902
BTB BRANCH_INDIRECT_CALL	ACCESS:     697290  HIT:     631849  MISS:      65441
BTB BRANCH_RETURN	ACCESS:    3373115  HIT:    2102254  MISS:    1270861
BTB BRANCH_OTHER ACCESS:          0  HIT:          0  MISS:          0

L2C TOTAL     ACCESS:   12033991  HIT:    7120234  MISS:    4913757  HIT %:    59.1677  MISS %:    40.8323   MPKI: 24.5688
L2C LOAD      ACCESS:    7038079  HIT:    3668033  MISS:    3370046  HIT %:     52.117  MISS %:     47.883   MPKI: 16.8502
L2C DATA LOAD MPKI: 4.83515
L2C INSTRUCTION LOAD MPKI: 12.0151
L2C RFO       ACCESS:     305996  HIT:     148713  MISS:     157283  HIT %:    48.5997  MISS %:    51.4003   MPKI: 0.786415
L2C PREFETCH  ACCESS:    1881989  HIT:     776030  MISS:    1105959  HIT %:    41.2346  MISS %:    58.7654   MPKI: 5.52979
AGUS PREFETCH L1 MISS: 0
L2C DATA PREFETCH MPKI: 5.52979
L2C INSTRUCTION PREFETCH MPKI: 0
L2C WRITEBACK ACCESS:    1042655  HIT:    1000508  MISS:      42147  HIT %:    95.9577  MISS %:    4.04228   MPKI: 0.210735
L2C LOAD TRANSLATION ACCESS:     570220  HIT:     338675  MISS:     231545  HIT %:    59.3937  MISS %:    40.6063   MPKI: 1.15772
L2C TRANSLATION FROM L1D PREFETCHER ACCESS:    1195052  HIT:    1188275  MISS:       6777  HIT %:    99.4329  MISS %:   0.567088   MPKI: 0.033885
L2C PREFETCH  REQUESTED:          0  ISSUED:          0  USEFUL:      56060  USELESS:    1056418
L2C USEFUL LOAD PREFETCHES:      56060 PREFETCH ISSUED TO LOWER LEVEL:    1105959  ACCURACY: 5.0689
L2C TIMELY PREFETCHES:      56060 LATE PREFETCHES: 0 DROPPED PREFETCHES: 0
L2C PREFETCHES SAME FILL-ORIGIN LEVEL: 0 DIFFERENT FILL-ORIGIN LEVEL: 0
L2C AVERAGE MISS LATENCY: 44.3367 cycles
L2C RQ	ACCESS:    9109502	FORWARD:          0	MERGED:          0	TO_CACHE:    9109347
L2C WQ	ACCESS:    1042655	FORWARD:        272	MERGED:          0	TO_CACHE:    1042655
L2C PQ	ACCESS:    1882106	FORWARD:          0	MERGED:          0	TO_CACHE:    1881989

L2C Instructions Evicting Data 1101950
L2C Translations Evicting Data 108445
L2C Data Evicting Data 1042364
L2C Instructions Evicting Instructions 1181062
L2C Translations Evicting Instructions 119786
L2C Data Evicting Instructions 1081679
L2C Instructions Evicting Translations 120003
L2C Translations Evicting Translations 10091
L2C Data Evicting Translations 106230
L2C Dense regions hint from L2: 0
PSCL5 TOTAL     ACCESS:    1173473  HIT:    1173473  MISS:          0  HIT %:        100  MISS %:          0   MPKI: 0
PSCL5 LOAD TRANSLATION ACCESS:     450701  HIT:     450701  MISS:          0  HIT %:        100  MISS %:          0   MPKI: 0
PSCL5 TRANSLATION FROM L1D PREFETCHER ACCESS:     722772  HIT:     722772  MISS:          0  HIT %:        100  MISS %:          0   MPKI: 0
PSCL5 PREFETCH  REQUESTED:          0  ISSUED:          0  USEFUL:          0  USELESS:          0
PSCL5 USEFUL LOAD PREFETCHES:          0 PREFETCH ISSUED TO LOWER LEVEL:          0  ACCURACY: -nan
PSCL5 TIMELY PREFETCHES:          0 LATE PREFETCHES: 0 DROPPED PREFETCHES: 0
PSCL5 PREFETCHES SAME FILL-ORIGIN LEVEL: 0 DIFFERENT FILL-ORIGIN LEVEL: 0

PSCL4 TOTAL     ACCESS:    1082772  HIT:    1081502  MISS:       1270  HIT %:    99.8827  MISS %:   0.117292   MPKI: 0.00635
PSCL4 LOAD TRANSLATION ACCESS:     417633  HIT:     416363  MISS:       1270  HIT %:    99.6959  MISS %:   0.304095   MPKI: 0.00635
PSCL4 TRANSLATION FROM L1D PREFETCHER ACCESS:     665139  HIT:     665139  MISS:          0  HIT %:        100  MISS %:          0   MPKI: 0
PSCL4 PREFETCH  REQUESTED:          0  ISSUED:          0  USEFUL:          0  USELESS:          0
PSCL4 USEFUL LOAD PREFETCHES:          0 PREFETCH ISSUED TO LOWER LEVEL:          0  ACCURACY: -nan
PSCL4 TIMELY PREFETCHES:          0 LATE PREFETCHES: 0 DROPPED PREFETCHES: 0
PSCL4 PREFETCHES SAME FILL-ORIGIN LEVEL: 0 DIFFERENT FILL-ORIGIN LEVEL: 0

PSCL3 TOTAL     ACCESS:    1161643  HIT:    1157853  MISS:       3790  HIT %:    99.6737  MISS %:   0.326262   MPKI: 0.01895
PSCL3 LOAD TRANSLATION ACCESS:     446940  HIT:     443150  MISS:       3790  HIT %:     99.152  MISS %:   0.847989   MPKI: 0.01895
PSCL3 TRANSLATION FROM L1D PREFETCHER ACCESS:     714703  HIT:     714703  MISS:          0  HIT %:        100  MISS %:          0   MPKI: 0
PSCL3 PREFETCH  REQUESTED:          0  ISSUED:          0  USEFUL:          0  USELESS:          0
PSCL3 USEFUL LOAD PREFETCHES:          0 PREFETCH ISSUED TO LOWER LEVEL:          0  ACCURACY: -nan
PSCL3 TIMELY PREFETCHES:          0 LATE PREFETCHES: 0 DROPPED PREFETCHES: 0
PSCL3 PREFETCHES SAME FILL-ORIGIN LEVEL: 0 DIFFERENT FILL-ORIGIN LEVEL: 0

PSCL2 TOTAL     ACCESS:     706682  HIT:     590513  MISS:     116169  HIT %:    83.5613  MISS %:    16.4387   MPKI: 0.580845
PSCL2 LOAD TRANSLATION ACCESS:     452331  HIT:     336162  MISS:     116169  HIT %:    74.3177  MISS %:    25.6823   MPKI: 0.580845
PSCL2 TRANSLATION FROM L1D PREFETCHER ACCESS:     254351  HIT:     254351  MISS:          0  HIT %:        100  MISS %:          0   MPKI: 0
PSCL2 PREFETCH  REQUESTED:          0  ISSUED:          0  USEFUL:          0  USELESS:          0
PSCL2 USEFUL LOAD PREFETCHES:          0 PREFETCH ISSUED TO LOWER LEVEL:          0  ACCURACY: -nan
PSCL2 TIMELY PREFETCHES:          0 LATE PREFETCHES: 0 DROPPED PREFETCHES: 0
PSCL2 PREFETCHES SAME FILL-ORIGIN LEVEL: 0 DIFFERENT FILL-ORIGIN LEVEL: 0

LLC TOTAL     ACCESS:    5390223  HIT:    4915595  MISS:     474628  HIT %:    91.1947  MISS %:    8.80535   MPKI: 2.37314
LLC LOAD      ACCESS:    3370045  HIT:    3158607  MISS:     211438  HIT %:     93.726  MISS %:    6.27404   MPKI: 1.05719
LLC RFO       ACCESS:     157281  HIT:     108505  MISS:      48776  HIT %:     68.988  MISS %:     31.012   MPKI: 0.24388
LLC PREFETCH  ACCESS:    1105958  HIT:     912378  MISS:     193580  HIT %:    82.4966  MISS %:    17.5034   MPKI: 0.9679
AGUS PREFETCH L1 MISS: 0
LLC WRITEBACK ACCESS:     518617  HIT:     509550  MISS:       9067  HIT %:    98.2517  MISS %:     1.7483   MPKI: 0.045335
LLC LOAD TRANSLATION ACCESS:     231545  HIT:     220091  MISS:      11454  HIT %:    95.0532  MISS %:    4.94677   MPKI: 0.05727
LLC TRANSLATION FROM L1D PREFETCHER ACCESS:       6777  HIT:       6464  MISS:        313  HIT %:    95.3814  MISS %:    4.61856   MPKI: 0.001565
LLC PREFETCH  REQUESTED:          0  ISSUED:          0  USEFUL:      12668  USELESS:     180053
LLC USEFUL LOAD PREFETCHES:      12668 PREFETCH ISSUED TO LOWER LEVEL:     193580  ACCURACY: 6.54406
LLC TIMELY PREFETCHES:      12668 LATE PREFETCHES: 0 DROPPED PREFETCHES: 0
LLC PREFETCHES SAME FILL-ORIGIN LEVEL: 0 DIFFERENT FILL-ORIGIN LEVEL: 0
LLC AVERAGE MISS LATENCY: 151.083 cycles
LLC RQ	ACCESS:    3765651	FORWARD:          0	MERGED:          0	TO_CACHE:    3765648
LLC WQ	ACCESS:     518617	FORWARD:          4	MERGED:          0	TO_CACHE:     518617
LLC PQ	ACCESS:    1105959	FORWARD:          0	MERGED:          0	TO_CACHE:    1105958

LLC Dense regions hint to LLC: 0

RAW hits: 2670460
Loads Generated: 45378116
Loads sent to L1D: 42707652
Stores Generated: 20255404
Stores sent to L1D: 20255401
Major fault: 0 Minor fault: 5460
Allocated PAGES: 5460
ucb ended

DRAM Statistics
 CHANNEL 0
 RQ ROW_BUFFER_HIT:      86661  ROW_BUFFER_MISS:     378900
 DBUS_CONGESTED:        191
 WQ ROW_BUFFER_HIT:      33597  ROW_BUFFER_MISS:     198295  FULL:          0

 AVG_CONGESTED_CYCLE: 4
 All warmup complete: 2
Channel 0 Bank busy for read cycles: 0
Channel 0 Bank busy for write cycles: 0
Channel 0
Rank 0
0banks busy for read cycles: 412106412
0banks busy for write cycles: 125507
1banks busy for read cycles: 35329303
1banks busy for write cycles: 17483665
2banks busy for read cycles: 7951258
2banks busy for write cycles: 4195396
3banks busy for read cycles: 1857261
3banks busy for write cycles: 1685629
4banks busy for read cycles: 669402
4banks busy for write cycles: 929685
5banks busy for read cycles: 192260
5banks busy for write cycles: 576497
6banks busy for read cycles: 63702
6banks busy for write cycles: 392597
7banks busy for read cycles: 24668
7banks busy for write cycles: 306434
8banks busy for read cycles: 21461
8banks busy for write cycles: 260991

CPU 0 Branch Prediction Accuracy: 99.7309% MPKI: 0.485 Average ROB Occupancy at Mispredict: 29.6059
Branch types
NOT_BRANCH: 163956047 81.978%
BRANCH_DIRECT_JUMP: 1914726 0.957363%
BRANCH_INDIRECT: 9756594 4.8783%
BRANCH_CONDITIONAL: 17653768 8.82688%
BRANCH_DIRECT_CALL: 2648257 1.32413%
BRANCH_INDIRECT_CALL: 697290 0.348645%
BRANCH_RETURN: 3373115 1.68656%
BRANCH_OTHER: 0 0%

DRAM PAGES: 1048576
Allocated PAGES: 5460
