
*** ChampSim Multicore Out-of-Order Simulator ***

Warmup Instructions: 50000000
Simulation Instructions: 200000000
Number of CPUs: 1
LLC sets: 2048
LLC ways: 16
Off-chip DRAM Size: 4096 MB Channels: 1 Width: 64-bit Data Rate: 6400 MT/s
CPU 0 runs traces/spec2k17/server_031.champsimtrace.xz
.xz
BTB has LRU replacement policy
ITLB has LRU replacement policy
DTLB has LRU replacement policy
STLB has LRU replacement policy
L1I has LRU replacement policy
L1D has LRU replacement policy
Initialize SRRIP state for L2C
Initialize DRRIP state for LLC
Heartbeat CPU 0 instructions: 10000000 cycles: 2836406 heartbeat IPC: 3.52559 cumulative IPC: 3.52559 (Simulation time: 0 hr 0 min 41 sec) 
Heartbeat CPU 0 instructions: 20000000 cycles: 5666346 heartbeat IPC: 3.53364 cumulative IPC: 3.52961 (Simulation time: 0 hr 1 min 22 sec) 
Heartbeat CPU 0 instructions: 30000002 cycles: 8496142 heartbeat IPC: 3.53382 cumulative IPC: 3.53101 (Simulation time: 0 hr 2 min 1 sec) 
Heartbeat CPU 0 instructions: 40000003 cycles: 11326627 heartbeat IPC: 3.53296 cumulative IPC: 3.5315 (Simulation time: 0 hr 2 min 43 sec) 
Heartbeat CPU 0 instructions: 50000002 cycles: 14158392 heartbeat IPC: 3.53137 cumulative IPC: 3.53147 (Simulation time: 0 hr 3 min 23 sec) 

Warmup complete CPU 0 instructions: 50000002 cycles: 14158392 (Simulation time: 0 hr 3 min 23 sec) 

Heartbeat CPU 0 instructions: 60000003 cycles: 47352657 heartbeat IPC: 0.301257 cumulative IPC: 0.301257 (Simulation time: 0 hr 4 min 32 sec) 
Heartbeat CPU 0 instructions: 70000001 cycles: 80876708 heartbeat IPC: 0.298293 cumulative IPC: 0.299768 (Simulation time: 0 hr 5 min 40 sec) 
Heartbeat CPU 0 instructions: 80000001 cycles: 113267026 heartbeat IPC: 0.308734 cumulative IPC: 0.302698 (Simulation time: 0 hr 6 min 45 sec) 
*** Reached end of trace for Core: 0 Repeating trace: traces/spec2k17/server_031.champsimtrace.xz
Heartbeat CPU 0 instructions: 90000003 cycles: 146436805 heartbeat IPC: 0.301479 cumulative IPC: 0.302393 (Simulation time: 0 hr 7 min 54 sec) 
Heartbeat CPU 0 instructions: 100000000 cycles: 179440553 heartbeat IPC: 0.302996 cumulative IPC: 0.302513 (Simulation time: 0 hr 9 min 2 sec) 
Heartbeat CPU 0 instructions: 110000000 cycles: 212555125 heartbeat IPC: 0.301982 cumulative IPC: 0.302424 (Simulation time: 0 hr 10 min 11 sec) 
Heartbeat CPU 0 instructions: 120000002 cycles: 245051014 heartbeat IPC: 0.307731 cumulative IPC: 0.303171 (Simulation time: 0 hr 11 min 21 sec) 
Heartbeat CPU 0 instructions: 130000000 cycles: 277638746 heartbeat IPC: 0.306864 cumulative IPC: 0.303628 (Simulation time: 0 hr 12 min 28 sec) 
Heartbeat CPU 0 instructions: 140000003 cycles: 309979112 heartbeat IPC: 0.309211 cumulative IPC: 0.304238 (Simulation time: 0 hr 13 min 36 sec) 
Heartbeat CPU 0 instructions: 150000001 cycles: 342838473 heartbeat IPC: 0.304327 cumulative IPC: 0.304247 (Simulation time: 0 hr 14 min 45 sec) 
Heartbeat CPU 0 instructions: 160000000 cycles: 374842381 heartbeat IPC: 0.312462 cumulative IPC: 0.304976 (Simulation time: 0 hr 15 min 56 sec) 
*** Reached end of trace for Core: 0 Repeating trace: traces/spec2k17/server_031.champsimtrace.xz
Heartbeat CPU 0 instructions: 170000003 cycles: 407232919 heartbeat IPC: 0.308732 cumulative IPC: 0.305286 (Simulation time: 0 hr 17 min 8 sec) 
Heartbeat CPU 0 instructions: 180000000 cycles: 439726881 heartbeat IPC: 0.307749 cumulative IPC: 0.305474 (Simulation time: 0 hr 18 min 19 sec) 
Heartbeat CPU 0 instructions: 190000000 cycles: 472337711 heartbeat IPC: 0.306647 cumulative IPC: 0.305557 (Simulation time: 0 hr 19 min 30 sec) 
Heartbeat CPU 0 instructions: 200000001 cycles: 504777486 heartbeat IPC: 0.308264 cumulative IPC: 0.305736 (Simulation time: 0 hr 20 min 45 sec) 
Heartbeat CPU 0 instructions: 210000001 cycles: 537077785 heartbeat IPC: 0.309595 cumulative IPC: 0.305975 (Simulation time: 0 hr 22 min 6 sec) 
Heartbeat CPU 0 instructions: 220000000 cycles: 569436506 heartbeat IPC: 0.309036 cumulative IPC: 0.306153 (Simulation time: 0 hr 23 min 20 sec) 
Heartbeat CPU 0 instructions: 230000000 cycles: 602005991 heartbeat IPC: 0.307036 cumulative IPC: 0.306202 (Simulation time: 0 hr 24 min 33 sec) 
Heartbeat CPU 0 instructions: 240000000 cycles: 634253873 heartbeat IPC: 0.310098 cumulative IPC: 0.306404 (Simulation time: 0 hr 25 min 57 sec) 
*** Reached end of trace for Core: 0 Repeating trace: traces/spec2k17/server_031.champsimtrace.xz
Heartbeat CPU 0 instructions: 250000000 cycles: 666404091 heartbeat IPC: 0.31104 cumulative IPC: 0.306633 (Simulation time: 0 hr 27 min 16 sec) 
Finished CPU 0 instructions: 200000003 cycles: 652245732 cumulative IPC: 0.306633 (Simulation time: 0 hr 27 min 16 sec) 

ChampSim completed all CPUs

Region of Interest Statistics

CPU 0 cumulative IPC: 0.306633 instructions: 200000003 cycles: 652245732
ITLB TOTAL     ACCESS:   35265497  HIT:   33001366  MISS:    2264131  HIT %:    93.5798  MISS %:    6.42024   MPKI: 11.3207
ITLB LOAD TRANSLATION ACCESS:   35265497  HIT:   33001366  MISS:    2264131  HIT %:    93.5798  MISS %:    6.42024   MPKI: 11.3207
ITLB PREFETCH  REQUESTED:          0  ISSUED:          0  USEFUL:          0  USELESS:          0
ITLB USEFUL LOAD PREFETCHES:          0 PREFETCH ISSUED TO LOWER LEVEL:          0  ACCURACY: -nan
ITLB TIMELY PREFETCHES:          0 LATE PREFETCHES: 0 DROPPED PREFETCHES: 0
ITLB PREFETCHES SAME FILL-ORIGIN LEVEL: 0 DIFFERENT FILL-ORIGIN LEVEL: 0
ITLB AVERAGE MISS LATENCY: 9.16497 cycles
ITLB RQ	ACCESS:   41638482	FORWARD:          0	MERGED:    5831069	TO_CACHE:   35807413

DTLB TOTAL     ACCESS:   46158078  HIT:   44013471  MISS:    2144607  HIT %:    95.3538  MISS %:    4.64622   MPKI: 10.723
DTLB LOAD TRANSLATION ACCESS:   46158078  HIT:   44013471  MISS:    2144607  HIT %:    95.3538  MISS %:    4.64622   MPKI: 10.723
DTLB PREFETCH  REQUESTED:          0  ISSUED:          0  USEFUL:          0  USELESS:          0
DTLB USEFUL LOAD PREFETCHES:          0 PREFETCH ISSUED TO LOWER LEVEL:          0  ACCURACY: -nan
DTLB TIMELY PREFETCHES:          0 LATE PREFETCHES: 0 DROPPED PREFETCHES: 0
DTLB PREFETCHES SAME FILL-ORIGIN LEVEL: 0 DIFFERENT FILL-ORIGIN LEVEL: 0
DTLB AVERAGE MISS LATENCY: 9.85812 cycles
DTLB RQ	ACCESS:   60975883	FORWARD:          0	MERGED:   14754987	TO_CACHE:   46220896

STLB TOTAL     ACCESS:   16120899  HIT:   16064469  MISS:      56430  HIT %:      99.65  MISS %:   0.350043   MPKI: 0.28215
STLB LOAD TRANSLATION ACCESS:    4408738  HIT:    4353892  MISS:      54846  HIT %:     98.756  MISS %:    1.24403   MPKI: 0.27423
STLB TRANSLATION FROM L1D PREFETCHER ACCESS:   11712161  HIT:   11710577  MISS:       1584  HIT %:    99.9865  MISS %:  0.0135244   MPKI: 0.00792
STLB PREFETCH  REQUESTED:          0  ISSUED:          0  USEFUL:       1431  USELESS:        151
STLB USEFUL LOAD PREFETCHES:       1431 PREFETCH ISSUED TO LOWER LEVEL:          0  ACCURACY: inf
STLB TIMELY PREFETCHES:       1431 LATE PREFETCHES: 440 DROPPED PREFETCHES: 110045
STLB PREFETCHES SAME FILL-ORIGIN LEVEL: 0 DIFFERENT FILL-ORIGIN LEVEL: 0
STLB AVERAGE MISS LATENCY: 57.8 cycles
STLB RQ	ACCESS:   20271657	FORWARD:          0	MERGED:    4039757	TO_CACHE:   16231900

STLB Hit, L1D data hit: 0
STLB Hit, L2C data hit: 0
STLB Hit, LLC data hit: 0
STLB Hit, LLC data miss: 0
STLB STLB hints to L2: 0
L1D TOTAL     ACCESS:   74178466  HIT:   69229669  MISS:    4948797  HIT %:    93.3285  MISS %:    6.67147   MPKI: 24.744
L1D LOAD      ACCESS:   33963590  HIT:   31531036  MISS:    2432554  HIT %:    92.8378  MISS %:    7.16224   MPKI: 12.1628
L1D RFO       ACCESS:   25235979  HIT:   24118186  MISS:    1117793  HIT %:    95.5706  MISS %:    4.42936   MPKI: 5.58896
L1D PREFETCH  ACCESS:   14978897  HIT:   13580447  MISS:    1398450  HIT %:    90.6639  MISS %:    9.33613   MPKI: 6.99225
AGUS PREFETCH L1 MISS: 0
L1D PREFETCH  REQUESTED:   33412506  ISSUED:   33412236  USEFUL:    1252668  USELESS:     145775
L1D USEFUL LOAD PREFETCHES:    1252668 PREFETCH ISSUED TO LOWER LEVEL:    1818013  ACCURACY: 68.9031
L1D TIMELY PREFETCHES:    1252668 LATE PREFETCHES: 412689 DROPPED PREFETCHES: 127426
L1D PREFETCHES SAME FILL-ORIGIN LEVEL: 1818013 DIFFERENT FILL-ORIGIN LEVEL: 0
L1D AVERAGE MISS LATENCY: 3.50632e+07 cycles
L1D RQ	ACCESS:   46647362	FORWARD:          0	MERGED:   12254052	TO_CACHE:   34068575
L1D WQ	ACCESS:   27052930	FORWARD:     357028	MERGED:     145622	TO_CACHE:   26907308
L1D PQ	ACCESS:   17549318	FORWARD:          0	MERGED:    1654107	TO_CACHE:   15862918

L1D UNIQUE REGIONS ACCESSED: 0
L1D REGIONS CONFLICTS: 0
L1D Cross Page Prefetch Requests: 12733903
L1D Same Page Prefetch Requests: 5121010
L1D ROI Sum of L1D PQ occupancy: 234031918
L1D PREFETCHES PUSHED FROM L2C: 0
L1I TOTAL     ACCESS:   39954398  HIT:   28452953  MISS:   11501445  HIT %:    71.2136  MISS %:    28.7864   MPKI: 57.5072
L1I LOAD      ACCESS:   39954398  HIT:   28452953  MISS:   11501445  HIT %:    71.2136  MISS %:    28.7864   MPKI: 57.5072
L1I PREFETCH  REQUESTED:          0  ISSUED:          0  USEFUL:          0  USELESS:          0
L1I USEFUL LOAD PREFETCHES:          0 PREFETCH ISSUED TO LOWER LEVEL:          0  ACCURACY: -nan
L1I TIMELY PREFETCHES:          0 LATE PREFETCHES: 0 DROPPED PREFETCHES: 0
L1I PREFETCHES SAME FILL-ORIGIN LEVEL: 0 DIFFERENT FILL-ORIGIN LEVEL: 0
L1I AVERAGE MISS LATENCY: 15.6018 cycles
L1I RQ	ACCESS:   58732010	FORWARD:          0	MERGED:   17093528	TO_CACHE:   41638482

BTB TOTAL     ACCESS:   30618908  HIT:   17904735  MISS:   12714173  HIT %:    58.4761  MISS %:    41.5239   MPKI: 63.5709
BTB BRANCH_DIRECT_JUMP	ACCESS:    2097826  HIT:    1276069  MISS:     821757
BTB BRANCH_INDIRECT	ACCESS:   12319460  HIT:    7406288  MISS:    4913172
BTB BRANCH_CONDITIONAL	ACCESS:    6937859  HIT:    5651432  MISS:    1286427
BTB BRANCH_DIRECT_CALL	ACCESS:    3904059  HIT:    1837298  MISS:    2066761
BTB BRANCH_INDIRECT_CALL	ACCESS:     727839  HIT:     354479  MISS:     373360
BTB BRANCH_RETURN	ACCESS:    4631865  HIT:    1379169  MISS:    3252696
BTB BRANCH_OTHER ACCESS:          0  HIT:          0  MISS:          0

L2C TOTAL     ACCESS:   18964442  HIT:   17872225  MISS:    1092217  HIT %:    94.2407  MISS %:    5.75929   MPKI: 5.46108
L2C LOAD      ACCESS:   13521259  HIT:   12690751  MISS:     830508  HIT %:    93.8578  MISS %:    6.14224   MPKI: 4.15254
L2C DATA LOAD MPKI: 1.3355
L2C INSTRUCTION LOAD MPKI: 2.81704
L2C RFO       ACCESS:    1110915  HIT:    1034311  MISS:      76604  HIT %:    93.1044  MISS %:    6.89558   MPKI: 0.38302
L2C PREFETCH  ACCESS:    1818012  HIT:    1713176  MISS:     104836  HIT %:    94.2335  MISS %:    5.76652   MPKI: 0.52418
AGUS PREFETCH L1 MISS: 0
L2C DATA PREFETCH MPKI: 0.52418
L2C INSTRUCTION PREFETCH MPKI: 0
L2C WRITEBACK ACCESS:    2236174  HIT:    2207039  MISS:      29135  HIT %:    98.6971  MISS %:     1.3029   MPKI: 0.145675
L2C LOAD TRANSLATION ACCESS:      82065  HIT:      45605  MISS:      36460  HIT %:    55.5718  MISS %:    44.4282   MPKI: 0.1823
L2C TRANSLATION FROM L1D PREFETCHER ACCESS:     196017  HIT:     181343  MISS:      14674  HIT %:    92.5139  MISS %:    7.48609   MPKI: 0.07337
L2C PREFETCH  REQUESTED:          0  ISSUED:          0  USEFUL:      13187  USELESS:     106259
L2C USEFUL LOAD PREFETCHES:      13187 PREFETCH ISSUED TO LOWER LEVEL:     104836  ACCURACY: 12.5787
L2C TIMELY PREFETCHES:      13187 LATE PREFETCHES: 0 DROPPED PREFETCHES: 0
L2C PREFETCHES SAME FILL-ORIGIN LEVEL: 0 DIFFERENT FILL-ORIGIN LEVEL: 0
L2C AVERAGE MISS LATENCY: 46.2019 cycles
L2C RQ	ACCESS:   14910312	FORWARD:          0	MERGED:          0	TO_CACHE:   14910257
L2C WQ	ACCESS:    2236174	FORWARD:         56	MERGED:          0	TO_CACHE:    2236174
L2C PQ	ACCESS:    1818013	FORWARD:          0	MERGED:          0	TO_CACHE:    1818012

L2C Instructions Evicting Data 183987
L2C Translations Evicting Data 31677
L2C Data Evicting Data 250674
L2C Instructions Evicting Instructions 365350
L2C Translations Evicting Instructions 14640
L2C Data Evicting Instructions 166290
L2C Instructions Evicting Translations 14071
L2C Translations Evicting Translations 4817
L2C Data Evicting Translations 31576
L2C Dense regions hint from L2: 0
PSCL5 TOTAL     ACCESS:     166232  HIT:     166232  MISS:          0  HIT %:        100  MISS %:          0   MPKI: 0
PSCL5 LOAD TRANSLATION ACCESS:      54407  HIT:      54407  MISS:          0  HIT %:        100  MISS %:          0   MPKI: 0
PSCL5 TRANSLATION FROM L1D PREFETCHER ACCESS:     111825  HIT:     111825  MISS:          0  HIT %:        100  MISS %:          0   MPKI: 0
PSCL5 PREFETCH  REQUESTED:          0  ISSUED:          0  USEFUL:          0  USELESS:          0
PSCL5 USEFUL LOAD PREFETCHES:          0 PREFETCH ISSUED TO LOWER LEVEL:          0  ACCURACY: -nan
PSCL5 TIMELY PREFETCHES:          0 LATE PREFETCHES: 0 DROPPED PREFETCHES: 0
PSCL5 PREFETCHES SAME FILL-ORIGIN LEVEL: 0 DIFFERENT FILL-ORIGIN LEVEL: 0

PSCL4 TOTAL     ACCESS:     125996  HIT:     125322  MISS:        674  HIT %:    99.4651  MISS %:   0.534938   MPKI: 0.00337
PSCL4 LOAD TRANSLATION ACCESS:      52748  HIT:      52074  MISS:        674  HIT %:    98.7222  MISS %:    1.27777   MPKI: 0.00337
PSCL4 TRANSLATION FROM L1D PREFETCHER ACCESS:      73248  HIT:      73248  MISS:          0  HIT %:        100  MISS %:          0   MPKI: 0
PSCL4 PREFETCH  REQUESTED:          0  ISSUED:          0  USEFUL:          0  USELESS:          0
PSCL4 USEFUL LOAD PREFETCHES:          0 PREFETCH ISSUED TO LOWER LEVEL:          0  ACCURACY: -nan
PSCL4 TIMELY PREFETCHES:          0 LATE PREFETCHES: 0 DROPPED PREFETCHES: 0
PSCL4 PREFETCHES SAME FILL-ORIGIN LEVEL: 0 DIFFERENT FILL-ORIGIN LEVEL: 0

PSCL3 TOTAL     ACCESS:     146096  HIT:     145419  MISS:        677  HIT %:    99.5366  MISS %:   0.463394   MPKI: 0.003385
PSCL3 LOAD TRANSLATION ACCESS:      54344  HIT:      53667  MISS:        677  HIT %:    98.7542  MISS %:    1.24577   MPKI: 0.003385
PSCL3 TRANSLATION FROM L1D PREFETCHER ACCESS:      91752  HIT:      91752  MISS:          0  HIT %:        100  MISS %:          0   MPKI: 0
PSCL3 PREFETCH  REQUESTED:          0  ISSUED:          0  USEFUL:          0  USELESS:          0
PSCL3 USEFUL LOAD PREFETCHES:          0 PREFETCH ISSUED TO LOWER LEVEL:          0  ACCURACY: -nan
PSCL3 TIMELY PREFETCHES:          0 LATE PREFETCHES: 0 DROPPED PREFETCHES: 0
PSCL3 PREFETCHES SAME FILL-ORIGIN LEVEL: 0 DIFFERENT FILL-ORIGIN LEVEL: 0

PSCL2 TOTAL     ACCESS:      65341  HIT:      37453  MISS:      27888  HIT %:    57.3193  MISS %:    42.6807   MPKI: 0.13944
PSCL2 LOAD TRANSLATION ACCESS:      55805  HIT:      27917  MISS:      27888  HIT %:     50.026  MISS %:     49.974   MPKI: 0.13944
PSCL2 TRANSLATION FROM L1D PREFETCHER ACCESS:       9536  HIT:       9536  MISS:          0  HIT %:        100  MISS %:          0   MPKI: 0
PSCL2 PREFETCH  REQUESTED:          0  ISSUED:          0  USEFUL:          0  USELESS:          0
PSCL2 USEFUL LOAD PREFETCHES:          0 PREFETCH ISSUED TO LOWER LEVEL:          0  ACCURACY: -nan
PSCL2 TIMELY PREFETCHES:          0 LATE PREFETCHES: 0 DROPPED PREFETCHES: 0
PSCL2 PREFETCHES SAME FILL-ORIGIN LEVEL: 0 DIFFERENT FILL-ORIGIN LEVEL: 0

LLC TOTAL     ACCESS:    1171475  HIT:    1037993  MISS:     133482  HIT %:    88.6056  MISS %:    11.3944   MPKI: 0.66741
LLC LOAD      ACCESS:     830507  HIT:     738352  MISS:      92155  HIT %:    88.9038  MISS %:    11.0962   MPKI: 0.460775
LLC RFO       ACCESS:      76604  HIT:      63692  MISS:      12912  HIT %:    83.1445  MISS %:    16.8555   MPKI: 0.06456
LLC PREFETCH  ACCESS:     104836  HIT:      81491  MISS:      23345  HIT %:    77.7319  MISS %:    22.2681   MPKI: 0.116725
AGUS PREFETCH L1 MISS: 0
LLC WRITEBACK ACCESS:     108394  HIT:     107636  MISS:        758  HIT %:    99.3007  MISS %:   0.699301   MPKI: 0.00379
LLC LOAD TRANSLATION ACCESS:      36460  HIT:      33073  MISS:       3387  HIT %:    90.7104  MISS %:    9.28963   MPKI: 0.016935
LLC TRANSLATION FROM L1D PREFETCHER ACCESS:      14674  HIT:      13749  MISS:        925  HIT %:    93.6963  MISS %:    6.30367   MPKI: 0.004625
LLC PREFETCH  REQUESTED:          0  ISSUED:          0  USEFUL:        997  USELESS:      24411
LLC USEFUL LOAD PREFETCHES:        997 PREFETCH ISSUED TO LOWER LEVEL:      23345  ACCURACY: 4.27072
LLC TIMELY PREFETCHES:        997 LATE PREFETCHES: 0 DROPPED PREFETCHES: 0
LLC PREFETCHES SAME FILL-ORIGIN LEVEL: 0 DIFFERENT FILL-ORIGIN LEVEL: 0
LLC AVERAGE MISS LATENCY: 138.964 cycles
LLC RQ	ACCESS:     958246	FORWARD:          0	MERGED:          0	TO_CACHE:     958245
LLC WQ	ACCESS:     108394	FORWARD:          1	MERGED:          0	TO_CACHE:     108394
LLC PQ	ACCESS:     104836	FORWARD:          0	MERGED:          0	TO_CACHE:     104836

LLC Dense regions hint to LLC: 0

RAW hits: 1427993
Loads Generated: 48075355
Loads sent to L1D: 46647362
Stores Generated: 27052894
Stores sent to L1D: 27052930
Major fault: 0 Minor fault: 6261
Allocated PAGES: 6261
Completed 

DRAM Statistics
 CHANNEL 0
 RQ ROW_BUFFER_HIT:      48693  ROW_BUFFER_MISS:      83995
 DBUS_CONGESTED:        163
 WQ ROW_BUFFER_HIT:       2166  ROW_BUFFER_MISS:      11117  FULL:          0

 AVG_CONGESTED_CYCLE: 3
 All warmup complete: 2
Channel 0 Bank busy for read cycles: 0
Channel 0 Bank busy for write cycles: 0
Channel 0
Rank 0
0banks busy for read cycles: 640719272
0banks busy for write cycles: 8095
1banks busy for read cycles: 7794395
1banks busy for write cycles: 1295303
2banks busy for read cycles: 1004518
2banks busy for write cycles: 221968
3banks busy for read cycles: 254919
3banks busy for write cycles: 86486
4banks busy for read cycles: 181323
4banks busy for write cycles: 45949
5banks busy for read cycles: 148904
5banks busy for write cycles: 23216
6banks busy for read cycles: 138407
6banks busy for write cycles: 13448
7banks busy for read cycles: 148109
7banks busy for write cycles: 5553
8banks busy for read cycles: 141784
8banks busy for write cycles: 14084

CPU 0 Branch Prediction Accuracy: 99.767% MPKI: 0.417705 Average ROB Occupancy at Mispredict: 43.4041
Branch types
NOT_BRANCH: 164151436 82.0757%
BRANCH_DIRECT_JUMP: 2097826 1.04891%
BRANCH_INDIRECT: 12319460 6.15973%
BRANCH_CONDITIONAL: 12167282 6.08364%
BRANCH_DIRECT_CALL: 3904059 1.95203%
BRANCH_INDIRECT_CALL: 727839 0.363919%
BRANCH_RETURN: 4631865 2.31593%
BRANCH_OTHER: 0 0%

DRAM PAGES: 1048576
Allocated PAGES: 6261
