
*** ChampSim Multicore Out-of-Order Simulator ***

Warmup Instructions: 50000000
Simulation Instructions: 200000000
Number of CPUs: 1
LLC sets: 2048
LLC ways: 16
Off-chip DRAM Size: 4096 MB Channels: 1 Width: 64-bit Data Rate: 6400 MT/s
CPU 0 runs traces/spec2k17/server_036.champsimtrace.xz
.xz
BTB has LRU replacement policy
ITLB has LRU replacement policy
DTLB has LRU replacement policy
STLB has LRU replacement policy
L1I has LRU replacement policy
L1D has LRU replacement policy
Initialize SRRIP state for L2C
Initialize DRRIP state for LLC
Heartbeat CPU 0 instructions: 10000000 cycles: 2731158 heartbeat IPC: 3.66145 cumulative IPC: 3.66145 (Simulation time: 0 hr 0 min 36 sec) 
Heartbeat CPU 0 instructions: 20000002 cycles: 5466556 heartbeat IPC: 3.65578 cumulative IPC: 3.65861 (Simulation time: 0 hr 1 min 7 sec) 
Heartbeat CPU 0 instructions: 30000002 cycles: 8207607 heartbeat IPC: 3.64824 cumulative IPC: 3.65515 (Simulation time: 0 hr 1 min 38 sec) 
Heartbeat CPU 0 instructions: 40000000 cycles: 10975291 heartbeat IPC: 3.61313 cumulative IPC: 3.64455 (Simulation time: 0 hr 2 min 10 sec) 
Heartbeat CPU 0 instructions: 50000001 cycles: 13721920 heartbeat IPC: 3.64083 cumulative IPC: 3.64381 (Simulation time: 0 hr 2 min 41 sec) 

Warmup complete CPU 0 instructions: 50000001 cycles: 13721920 (Simulation time: 0 hr 2 min 41 sec) 

Heartbeat CPU 0 instructions: 60000003 cycles: 31377774 heartbeat IPC: 0.566384 cumulative IPC: 0.566384 (Simulation time: 0 hr 3 min 34 sec) 
Heartbeat CPU 0 instructions: 70000000 cycles: 48885628 heartbeat IPC: 0.571172 cumulative IPC: 0.568768 (Simulation time: 0 hr 4 min 31 sec) 
Heartbeat CPU 0 instructions: 80000002 cycles: 66392756 heartbeat IPC: 0.571196 cumulative IPC: 0.569575 (Simulation time: 0 hr 5 min 23 sec) 
Heartbeat CPU 0 instructions: 90000000 cycles: 83934361 heartbeat IPC: 0.570073 cumulative IPC: 0.5697 (Simulation time: 0 hr 6 min 17 sec) 
Heartbeat CPU 0 instructions: 100000002 cycles: 101448757 heartbeat IPC: 0.570959 cumulative IPC: 0.569951 (Simulation time: 0 hr 7 min 10 sec) 
Heartbeat CPU 0 instructions: 110000000 cycles: 118960184 heartbeat IPC: 0.571056 cumulative IPC: 0.570135 (Simulation time: 0 hr 8 min 4 sec) 
Heartbeat CPU 0 instructions: 120000000 cycles: 136480889 heartbeat IPC: 0.570753 cumulative IPC: 0.570223 (Simulation time: 0 hr 8 min 57 sec) 
*** Reached end of trace for Core: 0 Repeating trace: traces/spec2k17/server_036.champsimtrace.xz
Heartbeat CPU 0 instructions: 130000003 cycles: 154255229 heartbeat IPC: 0.562609 cumulative IPC: 0.56926 (Simulation time: 0 hr 9 min 51 sec) 
Heartbeat CPU 0 instructions: 140000000 cycles: 171712300 heartbeat IPC: 0.572834 cumulative IPC: 0.569655 (Simulation time: 0 hr 10 min 45 sec) 
Heartbeat CPU 0 instructions: 150000000 cycles: 189176348 heartbeat IPC: 0.572605 cumulative IPC: 0.569949 (Simulation time: 0 hr 11 min 37 sec) 
Heartbeat CPU 0 instructions: 160000001 cycles: 208400321 heartbeat IPC: 0.520184 cumulative IPC: 0.565034 (Simulation time: 0 hr 12 min 34 sec) 
Heartbeat CPU 0 instructions: 170000000 cycles: 225906026 heartbeat IPC: 0.571242 cumulative IPC: 0.565547 (Simulation time: 0 hr 13 min 25 sec) 
Heartbeat CPU 0 instructions: 180000000 cycles: 243506224 heartbeat IPC: 0.568175 cumulative IPC: 0.565748 (Simulation time: 0 hr 14 min 15 sec) 
Heartbeat CPU 0 instructions: 190000003 cycles: 261009246 heartbeat IPC: 0.57133 cumulative IPC: 0.566143 (Simulation time: 0 hr 15 min 5 sec) 
Heartbeat CPU 0 instructions: 200000001 cycles: 278515609 heartbeat IPC: 0.571221 cumulative IPC: 0.566479 (Simulation time: 0 hr 15 min 54 sec) 
Heartbeat CPU 0 instructions: 210000003 cycles: 296049542 heartbeat IPC: 0.570323 cumulative IPC: 0.566718 (Simulation time: 0 hr 16 min 42 sec) 
Heartbeat CPU 0 instructions: 220000000 cycles: 313563916 heartbeat IPC: 0.570959 cumulative IPC: 0.566965 (Simulation time: 0 hr 17 min 31 sec) 
Heartbeat CPU 0 instructions: 230000001 cycles: 331076653 heartbeat IPC: 0.571013 cumulative IPC: 0.567189 (Simulation time: 0 hr 18 min 18 sec) 
Heartbeat CPU 0 instructions: 240000001 cycles: 348597085 heartbeat IPC: 0.570762 cumulative IPC: 0.567376 (Simulation time: 0 hr 19 min 5 sec) 
*** Reached end of trace for Core: 0 Repeating trace: traces/spec2k17/server_036.champsimtrace.xz
Heartbeat CPU 0 instructions: 250000000 cycles: 366343668 heartbeat IPC: 0.563489 cumulative IPC: 0.56718 (Simulation time: 0 hr 19 min 58 sec) 
Finished CPU 0 instructions: 200000000 cycles: 352621751 cumulative IPC: 0.56718 (Simulation time: 0 hr 19 min 58 sec) 

ChampSim completed all CPUs

Region of Interest Statistics

CPU 0 cumulative IPC: 0.56718 instructions: 200000000 cycles: 352621751
ITLB TOTAL     ACCESS:   35588985  HIT:   33741382  MISS:    1847603  HIT %:    94.8085  MISS %:     5.1915   MPKI: 9.23802
ITLB LOAD TRANSLATION ACCESS:   35588985  HIT:   33741382  MISS:    1847603  HIT %:    94.8085  MISS %:     5.1915   MPKI: 9.23802
ITLB PREFETCH  REQUESTED:          0  ISSUED:          0  USEFUL:          0  USELESS:          0
ITLB USEFUL LOAD PREFETCHES:          0 PREFETCH ISSUED TO LOWER LEVEL:          0  ACCURACY: -nan
ITLB TIMELY PREFETCHES:          0 LATE PREFETCHES: 0 DROPPED PREFETCHES: 0
ITLB PREFETCHES SAME FILL-ORIGIN LEVEL: 0 DIFFERENT FILL-ORIGIN LEVEL: 0
ITLB AVERAGE MISS LATENCY: 9.07859 cycles
ITLB RQ	ACCESS:   40689943	FORWARD:          0	MERGED:    4730589	TO_CACHE:   35959354

DTLB TOTAL     ACCESS:   40407962  HIT:   39492969  MISS:     914993  HIT %:    97.7356  MISS %:    2.26439   MPKI: 4.57496
DTLB LOAD TRANSLATION ACCESS:   40407962  HIT:   39492969  MISS:     914993  HIT %:    97.7356  MISS %:    2.26439   MPKI: 4.57496
DTLB PREFETCH  REQUESTED:          0  ISSUED:          0  USEFUL:          0  USELESS:          0
DTLB USEFUL LOAD PREFETCHES:          0 PREFETCH ISSUED TO LOWER LEVEL:          0  ACCURACY: -nan
DTLB TIMELY PREFETCHES:          0 LATE PREFETCHES: 0 DROPPED PREFETCHES: 0
DTLB PREFETCHES SAME FILL-ORIGIN LEVEL: 0 DIFFERENT FILL-ORIGIN LEVEL: 0
DTLB AVERAGE MISS LATENCY: 7.93157 cycles
DTLB RQ	ACCESS:   58684679	FORWARD:          0	MERGED:   18218930	TO_CACHE:   40465749

STLB TOTAL     ACCESS:   18096786  HIT:   18095321  MISS:       1465  HIT %:    99.9919  MISS %: 0.00809536   MPKI: 0.007325
STLB LOAD TRANSLATION ACCESS:    2762596  HIT:    2761164  MISS:       1432  HIT %:    99.9482  MISS %:  0.0518353   MPKI: 0.00716
STLB TRANSLATION FROM L1D PREFETCHER ACCESS:   15334190  HIT:   15334157  MISS:         33  HIT %:    99.9998  MISS %: 0.000215205   MPKI: 0.000165
STLB PREFETCH  REQUESTED:          0  ISSUED:          0  USEFUL:         33  USELESS:          0
STLB USEFUL LOAD PREFETCHES:         33 PREFETCH ISSUED TO LOWER LEVEL:          0  ACCURACY: inf
STLB TIMELY PREFETCHES:         33 LATE PREFETCHES: 13 DROPPED PREFETCHES: 42713
STLB PREFETCHES SAME FILL-ORIGIN LEVEL: 0 DIFFERENT FILL-ORIGIN LEVEL: 0
STLB AVERAGE MISS LATENCY: 133433 cycles
STLB RQ	ACCESS:   25809166	FORWARD:          0	MERGED:    7669577	TO_CACHE:   18139589

STLB Hit, L1D data hit: 0
STLB Hit, L2C data hit: 0
STLB Hit, LLC data hit: 0
STLB Hit, LLC data miss: 0
STLB STLB hints to L2: 0
L1D TOTAL     ACCESS:   81599802  HIT:   81525423  MISS:      74379  HIT %:    99.9088  MISS %:   0.091151   MPKI: 0.371895
L1D LOAD      ACCESS:   30330103  HIT:   30300525  MISS:      29578  HIT %:    99.9025  MISS %:  0.0975203   MPKI: 0.14789
L1D RFO       ACCESS:   28293222  HIT:   28251028  MISS:      42194  HIT %:    99.8509  MISS %:   0.149131   MPKI: 0.21097
L1D PREFETCH  ACCESS:   22976477  HIT:   22973870  MISS:       2607  HIT %:    99.9887  MISS %:  0.0113464   MPKI: 0.013035
AGUS PREFETCH L1 MISS: 0
L1D PREFETCH  REQUESTED:   48923998  ISSUED:   48923956  USEFUL:       1480  USELESS:       1180
L1D USEFUL LOAD PREFETCHES:       1480 PREFETCH ISSUED TO LOWER LEVEL:       4959  ACCURACY: 29.8447
L1D TIMELY PREFETCHES:       1480 LATE PREFETCHES: 2348 DROPPED PREFETCHES: 59504
L1D PREFETCHES SAME FILL-ORIGIN LEVEL: 4959 DIFFERENT FILL-ORIGIN LEVEL: 0
L1D AVERAGE MISS LATENCY: 6.21842e+06 cycles
L1D RQ	ACCESS:   47357741	FORWARD:          0	MERGED:   16678024	TO_CACHE:   30332470
L1D WQ	ACCESS:   28475378	FORWARD:     454690	MERGED:     123169	TO_CACHE:   28352209
L1D PQ	ACCESS:   25877386	FORWARD:          0	MERGED:    2723373	TO_CACHE:   23046570

L1D UNIQUE REGIONS ACCESSED: 0
L1D REGIONS CONFLICTS: 0
L1D Cross Page Prefetch Requests: 17833177
L1D Same Page Prefetch Requests: 10380829
L1D ROI Sum of L1D PQ occupancy: 328472921
L1D PREFETCHES PUSHED FROM L2C: 0
L1I TOTAL     ACCESS:   36326472  HIT:   21991043  MISS:   14335429  HIT %:    60.5372  MISS %:    39.4628   MPKI: 71.6771
L1I LOAD      ACCESS:   36326472  HIT:   21991043  MISS:   14335429  HIT %:    60.5372  MISS %:    39.4628   MPKI: 71.6771
L1I PREFETCH  REQUESTED:          0  ISSUED:          0  USEFUL:          0  USELESS:          0
L1I USEFUL LOAD PREFETCHES:          0 PREFETCH ISSUED TO LOWER LEVEL:          0  ACCURACY: -nan
L1I TIMELY PREFETCHES:          0 LATE PREFETCHES: 0 DROPPED PREFETCHES: 0
L1I PREFETCHES SAME FILL-ORIGIN LEVEL: 0 DIFFERENT FILL-ORIGIN LEVEL: 0
L1I AVERAGE MISS LATENCY: 14.1316 cycles
L1I RQ	ACCESS:   60637706	FORWARD:          0	MERGED:   19947763	TO_CACHE:   40689943

BTB TOTAL     ACCESS:   25908287  HIT:   23514246  MISS:    2394041  HIT %:    90.7596  MISS %:    9.24044   MPKI: 11.9702
BTB BRANCH_DIRECT_JUMP	ACCESS:    1774351  HIT:    1739635  MISS:      34716
BTB BRANCH_INDIRECT	ACCESS:   11507662  HIT:   10680986  MISS:     826676
BTB BRANCH_CONDITIONAL	ACCESS:    4376081  HIT:    4361317  MISS:      14764
BTB BRANCH_DIRECT_CALL	ACCESS:    3347214  HIT:    3281604  MISS:      65610
BTB BRANCH_INDIRECT_CALL	ACCESS:     777882  HIT:     612337  MISS:     165545
BTB BRANCH_RETURN	ACCESS:    4125097  HIT:    2838367  MISS:    1286730
BTB BRANCH_OTHER ACCESS:          0  HIT:          0  MISS:          0

L2C TOTAL     ACCESS:   14504003  HIT:   14431248  MISS:      72755  HIT %:    99.4984  MISS %:    0.50162   MPKI: 0.363775
L2C LOAD      ACCESS:   14362659  HIT:   14329524  MISS:      33135  HIT %:    99.7693  MISS %:   0.230702   MPKI: 0.165675
L2C DATA LOAD MPKI: 0.10237
L2C INSTRUCTION LOAD MPKI: 0.063305
L2C RFO       ACCESS:      42190  HIT:       8897  MISS:      33293  HIT %:    21.0879  MISS %:    78.9121   MPKI: 0.166465
L2C PREFETCH  ACCESS:       4959  HIT:       1190  MISS:       3769  HIT %:    23.9968  MISS %:    76.0032   MPKI: 0.018845
AGUS PREFETCH L1 MISS: 0
L2C DATA PREFETCH MPKI: 0.018845
L2C INSTRUCTION PREFETCH MPKI: 0
L2C WRITEBACK ACCESS:      49286  HIT:      47672  MISS:       1614  HIT %:    96.7252  MISS %:    3.27476   MPKI: 0.00807
L2C LOAD TRANSLATION ACCESS:       1615  HIT:        843  MISS:        772  HIT %:    52.1981  MISS %:    47.8019   MPKI: 0.00386
L2C TRANSLATION FROM L1D PREFETCHER ACCESS:      43294  HIT:      43122  MISS:        172  HIT %:    99.6027  MISS %:   0.397284   MPKI: 0.00086
L2C PREFETCH  REQUESTED:          0  ISSUED:          0  USEFUL:        192  USELESS:       4106
L2C USEFUL LOAD PREFETCHES:        192 PREFETCH ISSUED TO LOWER LEVEL:       3769  ACCURACY: 5.09419
L2C TIMELY PREFETCHES:        192 LATE PREFETCHES: 0 DROPPED PREFETCHES: 0
L2C PREFETCHES SAME FILL-ORIGIN LEVEL: 0 DIFFERENT FILL-ORIGIN LEVEL: 0
L2C AVERAGE MISS LATENCY: 171.053 cycles
L2C RQ	ACCESS:   14449758	FORWARD:          0	MERGED:          0	TO_CACHE:   14449758
L2C WQ	ACCESS:      49286	FORWARD:          0	MERGED:          0	TO_CACHE:      49286
L2C PQ	ACCESS:       4959	FORWARD:          0	MERGED:          0	TO_CACHE:       4959

L2C Instructions Evicting Data 10423
L2C Translations Evicting Data 753
L2C Data Evicting Data 46915
L2C Instructions Evicting Instructions 2060
L2C Translations Evicting Instructions 166
L2C Data Evicting Instructions 9897
L2C Instructions Evicting Translations 178
L2C Translations Evicting Translations 25
L2C Data Evicting Translations 724
L2C Dense regions hint from L2: 0
PSCL5 TOTAL     ACCESS:      44168  HIT:      44168  MISS:          0  HIT %:        100  MISS %:          0   MPKI: 0
PSCL5 LOAD TRANSLATION ACCESS:       1419  HIT:       1419  MISS:          0  HIT %:        100  MISS %:          0   MPKI: 0
PSCL5 TRANSLATION FROM L1D PREFETCHER ACCESS:      42749  HIT:      42749  MISS:          0  HIT %:        100  MISS %:          0   MPKI: 0
PSCL5 PREFETCH  REQUESTED:          0  ISSUED:          0  USEFUL:          0  USELESS:          0
PSCL5 USEFUL LOAD PREFETCHES:          0 PREFETCH ISSUED TO LOWER LEVEL:          0  ACCURACY: -nan
PSCL5 TIMELY PREFETCHES:          0 LATE PREFETCHES: 0 DROPPED PREFETCHES: 0
PSCL5 PREFETCHES SAME FILL-ORIGIN LEVEL: 0 DIFFERENT FILL-ORIGIN LEVEL: 0

PSCL4 TOTAL     ACCESS:      43477  HIT:      43466  MISS:         11  HIT %:    99.9747  MISS %:  0.0253007   MPKI: 5.5e-05
PSCL4 LOAD TRANSLATION ACCESS:       1163  HIT:       1152  MISS:         11  HIT %:    99.0542  MISS %:    0.94583   MPKI: 5.5e-05
PSCL4 TRANSLATION FROM L1D PREFETCHER ACCESS:      42314  HIT:      42314  MISS:          0  HIT %:        100  MISS %:          0   MPKI: 0
PSCL4 PREFETCH  REQUESTED:          0  ISSUED:          0  USEFUL:          0  USELESS:          0
PSCL4 USEFUL LOAD PREFETCHES:          0 PREFETCH ISSUED TO LOWER LEVEL:          0  ACCURACY: -nan
PSCL4 TIMELY PREFETCHES:          0 LATE PREFETCHES: 0 DROPPED PREFETCHES: 0
PSCL4 PREFETCHES SAME FILL-ORIGIN LEVEL: 0 DIFFERENT FILL-ORIGIN LEVEL: 0

PSCL3 TOTAL     ACCESS:      43627  HIT:      43616  MISS:         11  HIT %:    99.9748  MISS %:  0.0252137   MPKI: 5.5e-05
PSCL3 LOAD TRANSLATION ACCESS:       1312  HIT:       1301  MISS:         11  HIT %:    99.1616  MISS %:   0.838415   MPKI: 5.5e-05
PSCL3 TRANSLATION FROM L1D PREFETCHER ACCESS:      42315  HIT:      42315  MISS:          0  HIT %:        100  MISS %:          0   MPKI: 0
PSCL3 PREFETCH  REQUESTED:          0  ISSUED:          0  USEFUL:          0  USELESS:          0
PSCL3 USEFUL LOAD PREFETCHES:          0 PREFETCH ISSUED TO LOWER LEVEL:          0  ACCURACY: -nan
PSCL3 TIMELY PREFETCHES:          0 LATE PREFETCHES: 0 DROPPED PREFETCHES: 0
PSCL3 PREFETCHES SAME FILL-ORIGIN LEVEL: 0 DIFFERENT FILL-ORIGIN LEVEL: 0

PSCL2 TOTAL     ACCESS:      37010  HIT:      36833  MISS:        177  HIT %:    99.5218  MISS %:   0.478249   MPKI: 0.000885
PSCL2 LOAD TRANSLATION ACCESS:       1422  HIT:       1245  MISS:        177  HIT %:    87.5527  MISS %:    12.4473   MPKI: 0.000885
PSCL2 TRANSLATION FROM L1D PREFETCHER ACCESS:      35588  HIT:      35588  MISS:          0  HIT %:        100  MISS %:          0   MPKI: 0
PSCL2 PREFETCH  REQUESTED:          0  ISSUED:          0  USEFUL:          0  USELESS:          0
PSCL2 USEFUL LOAD PREFETCHES:          0 PREFETCH ISSUED TO LOWER LEVEL:          0  ACCURACY: -nan
PSCL2 TIMELY PREFETCHES:          0 LATE PREFETCHES: 0 DROPPED PREFETCHES: 0
PSCL2 PREFETCHES SAME FILL-ORIGIN LEVEL: 0 DIFFERENT FILL-ORIGIN LEVEL: 0

LLC TOTAL     ACCESS:     109274  HIT:      64296  MISS:      44978  HIT %:    58.8392  MISS %:    41.1608   MPKI: 0.22489
LLC LOAD      ACCESS:      33135  HIT:      12502  MISS:      20633  HIT %:    37.7305  MISS %:    62.2695   MPKI: 0.103165
LLC RFO       ACCESS:      33293  HIT:      12606  MISS:      20687  HIT %:    37.8638  MISS %:    62.1362   MPKI: 0.103435
LLC PREFETCH  ACCESS:       3769  HIT:       1052  MISS:       2717  HIT %:    27.9119  MISS %:    72.0881   MPKI: 0.013585
AGUS PREFETCH L1 MISS: 0
LLC WRITEBACK ACCESS:      38133  HIT:      37777  MISS:        356  HIT %:    99.0664  MISS %:   0.933575   MPKI: 0.00178
LLC LOAD TRANSLATION ACCESS:        772  HIT:        274  MISS:        498  HIT %:    35.4922  MISS %:    64.5078   MPKI: 0.00249
LLC TRANSLATION FROM L1D PREFETCHER ACCESS:        172  HIT:         85  MISS:         87  HIT %:    49.4186  MISS %:    50.5814   MPKI: 0.000435
LLC PREFETCH  REQUESTED:          0  ISSUED:          0  USEFUL:        257  USELESS:       4871
LLC USEFUL LOAD PREFETCHES:        257 PREFETCH ISSUED TO LOWER LEVEL:       2717  ACCURACY: 9.45896
LLC TIMELY PREFETCHES:        257 LATE PREFETCHES: 0 DROPPED PREFETCHES: 0
LLC PREFETCHES SAME FILL-ORIGIN LEVEL: 0 DIFFERENT FILL-ORIGIN LEVEL: 0
LLC AVERAGE MISS LATENCY: 229.209 cycles
LLC RQ	ACCESS:      67372	FORWARD:          0	MERGED:          0	TO_CACHE:      67372
LLC WQ	ACCESS:      38133	FORWARD:          0	MERGED:          0	TO_CACHE:      38133
LLC PQ	ACCESS:       3769	FORWARD:          0	MERGED:          0	TO_CACHE:       3769

LLC Dense regions hint to LLC: 0

RAW hits: 2181484
Loads Generated: 49539227
Loads sent to L1D: 47357741
Stores Generated: 28475376
Stores sent to L1D: 28475378
Major fault: 0 Minor fault: 2050
Allocated PAGES: 2050
Completed 

DRAM Statistics
 CHANNEL 0
 RQ ROW_BUFFER_HIT:      17057  ROW_BUFFER_MISS:      27565
 DBUS_CONGESTED:          9
 WQ ROW_BUFFER_HIT:       6499  ROW_BUFFER_MISS:      18521  FULL:          0

 AVG_CONGESTED_CYCLE: 4
 All warmup complete: 2
Channel 0 Bank busy for read cycles: 0
Channel 0 Bank busy for write cycles: 0
Channel 0
Rank 0
0banks busy for read cycles: 348154531
0banks busy for write cycles: 6003
1banks busy for read cycles: 1836723
1banks busy for write cycles: 958263
2banks busy for read cycles: 365367
2banks busy for write cycles: 326398
3banks busy for read cycles: 90375
3banks busy for write cycles: 165940
4banks busy for read cycles: 33582
4banks busy for write cycles: 70611
5banks busy for read cycles: 34770
5banks busy for write cycles: 31876
6banks busy for read cycles: 48449
6banks busy for write cycles: 22012
7banks busy for read cycles: 62325
7banks busy for write cycles: 46021
8banks busy for read cycles: 151099
8banks busy for write cycles: 217407

CPU 0 Branch Prediction Accuracy: 99.9274% MPKI: 0.113335 Average ROB Occupancy at Mispredict: 10.5871
Branch types
NOT_BRANCH: 168787543 84.3938%
BRANCH_DIRECT_JUMP: 1774351 0.887176%
BRANCH_INDIRECT: 11507662 5.75383%
BRANCH_CONDITIONAL: 9680226 4.84011%
BRANCH_DIRECT_CALL: 3347214 1.67361%
BRANCH_INDIRECT_CALL: 777882 0.388941%
BRANCH_RETURN: 4125097 2.06255%
BRANCH_OTHER: 0 0%

DRAM PAGES: 1048576
Allocated PAGES: 2050
