
*** ChampSim Multicore Out-of-Order Simulator ***

Warmup Instructions: 50000000
Simulation Instructions: 200000000
Number of CPUs: 1
LLC sets: 2048
LLC ways: 16
Off-chip DRAM Size: 4096 MB Channels: 1 Width: 64-bit Data Rate: 6400 MT/s
CPU 0 runs traces/spec2k17/server_026.champsimtrace.xz
.xz
BTB has LRU replacement policy
ITLB has LRU replacement policy
DTLB has LRU replacement policy
STLB has LRU replacement policy
L1I has LRU replacement policy
L1D has LRU replacement policy
Initialize SRRIP state for L2C
Initialize DRRIP state for LLC
Heartbeat CPU 0 instructions: 10000003 cycles: 2823286 heartbeat IPC: 3.54197 cumulative IPC: 3.54197 (Simulation time: 0 hr 0 min 43 sec) 
Heartbeat CPU 0 instructions: 20000001 cycles: 5641523 heartbeat IPC: 3.54832 cumulative IPC: 3.54514 (Simulation time: 0 hr 1 min 24 sec) 
Heartbeat CPU 0 instructions: 30000002 cycles: 8458046 heartbeat IPC: 3.55048 cumulative IPC: 3.54692 (Simulation time: 0 hr 2 min 4 sec) 
Heartbeat CPU 0 instructions: 40000001 cycles: 11276099 heartbeat IPC: 3.54855 cumulative IPC: 3.54733 (Simulation time: 0 hr 2 min 43 sec) 
Heartbeat CPU 0 instructions: 50000000 cycles: 14092408 heartbeat IPC: 3.55075 cumulative IPC: 3.54801 (Simulation time: 0 hr 3 min 22 sec) 

Warmup complete CPU 0 instructions: 50000004 cycles: 14092409 (Simulation time: 0 hr 3 min 22 sec) 

Heartbeat CPU 0 instructions: 60000001 cycles: 46203754 heartbeat IPC: 0.311416 cumulative IPC: 0.311416 (Simulation time: 0 hr 4 min 29 sec) 
*** Reached end of trace for Core: 0 Repeating trace: traces/spec2k17/server_026.champsimtrace.xz
Heartbeat CPU 0 instructions: 70000000 cycles: 78184504 heartbeat IPC: 0.312688 cumulative IPC: 0.312051 (Simulation time: 0 hr 5 min 36 sec) 
Heartbeat CPU 0 instructions: 80000000 cycles: 110068577 heartbeat IPC: 0.313636 cumulative IPC: 0.312578 (Simulation time: 0 hr 6 min 41 sec) 
Heartbeat CPU 0 instructions: 90000003 cycles: 142012745 heartbeat IPC: 0.313046 cumulative IPC: 0.312695 (Simulation time: 0 hr 7 min 45 sec) 
Heartbeat CPU 0 instructions: 100000000 cycles: 173996683 heartbeat IPC: 0.312657 cumulative IPC: 0.312687 (Simulation time: 0 hr 8 min 51 sec) 
Heartbeat CPU 0 instructions: 110000000 cycles: 205865460 heartbeat IPC: 0.313787 cumulative IPC: 0.31287 (Simulation time: 0 hr 9 min 57 sec) 
Heartbeat CPU 0 instructions: 120000000 cycles: 237862360 heartbeat IPC: 0.31253 cumulative IPC: 0.312821 (Simulation time: 0 hr 11 min 3 sec) 
*** Reached end of trace for Core: 0 Repeating trace: traces/spec2k17/server_026.champsimtrace.xz
Heartbeat CPU 0 instructions: 130000002 cycles: 269709818 heartbeat IPC: 0.313997 cumulative IPC: 0.312968 (Simulation time: 0 hr 12 min 12 sec) 
Heartbeat CPU 0 instructions: 140000002 cycles: 301518868 heartbeat IPC: 0.314376 cumulative IPC: 0.313124 (Simulation time: 0 hr 13 min 24 sec) 
Heartbeat CPU 0 instructions: 150000000 cycles: 333300522 heartbeat IPC: 0.314647 cumulative IPC: 0.313275 (Simulation time: 0 hr 14 min 37 sec) 
Heartbeat CPU 0 instructions: 160000001 cycles: 365034060 heartbeat IPC: 0.315124 cumulative IPC: 0.313442 (Simulation time: 0 hr 15 min 52 sec) 
Heartbeat CPU 0 instructions: 170000000 cycles: 396802515 heartbeat IPC: 0.314778 cumulative IPC: 0.313553 (Simulation time: 0 hr 17 min 9 sec) 
Heartbeat CPU 0 instructions: 180000003 cycles: 428526445 heartbeat IPC: 0.31522 cumulative IPC: 0.313681 (Simulation time: 0 hr 18 min 28 sec) 
*** Reached end of trace for Core: 0 Repeating trace: traces/spec2k17/server_026.champsimtrace.xz
Heartbeat CPU 0 instructions: 190000000 cycles: 460197004 heartbeat IPC: 0.315751 cumulative IPC: 0.313828 (Simulation time: 0 hr 19 min 45 sec) 
Heartbeat CPU 0 instructions: 200000003 cycles: 491807203 heartbeat IPC: 0.316354 cumulative IPC: 0.313995 (Simulation time: 0 hr 21 min 12 sec) 
Heartbeat CPU 0 instructions: 210000000 cycles: 523446324 heartbeat IPC: 0.316064 cumulative IPC: 0.314123 (Simulation time: 0 hr 22 min 39 sec) 
Heartbeat CPU 0 instructions: 220000000 cycles: 555059111 heartbeat IPC: 0.316328 cumulative IPC: 0.314252 (Simulation time: 0 hr 24 min 6 sec) 
Heartbeat CPU 0 instructions: 230000000 cycles: 586711117 heartbeat IPC: 0.315936 cumulative IPC: 0.314345 (Simulation time: 0 hr 25 min 44 sec) 
Heartbeat CPU 0 instructions: 240000000 cycles: 618237414 heartbeat IPC: 0.317196 cumulative IPC: 0.314494 (Simulation time: 0 hr 27 min 3 sec) 
*** Reached end of trace for Core: 0 Repeating trace: traces/spec2k17/server_026.champsimtrace.xz
Heartbeat CPU 0 instructions: 250000003 cycles: 649804892 heartbeat IPC: 0.316782 cumulative IPC: 0.314608 (Simulation time: 0 hr 28 min 25 sec) 
Finished CPU 0 instructions: 200000003 cycles: 635712484 cumulative IPC: 0.314608 (Simulation time: 0 hr 28 min 25 sec) 

ChampSim completed all CPUs

Region of Interest Statistics

CPU 0 cumulative IPC: 0.314608 instructions: 200000003 cycles: 635712484
ITLB TOTAL     ACCESS:   34748543  HIT:   32737331  MISS:    2011212  HIT %:    94.2121  MISS %:     5.7879   MPKI: 10.0561
ITLB LOAD TRANSLATION ACCESS:   34748543  HIT:   32737331  MISS:    2011212  HIT %:    94.2121  MISS %:     5.7879   MPKI: 10.0561
ITLB PREFETCH  REQUESTED:          0  ISSUED:          0  USEFUL:          0  USELESS:          0
ITLB USEFUL LOAD PREFETCHES:          0 PREFETCH ISSUED TO LOWER LEVEL:          0  ACCURACY: -nan
ITLB TIMELY PREFETCHES:          0 LATE PREFETCHES: 0 DROPPED PREFETCHES: 0
ITLB PREFETCHES SAME FILL-ORIGIN LEVEL: 0 DIFFERENT FILL-ORIGIN LEVEL: 0
ITLB AVERAGE MISS LATENCY: 9.04301 cycles
ITLB RQ	ACCESS:   40931068	FORWARD:          0	MERGED:    5701059	TO_CACHE:   35230009

DTLB TOTAL     ACCESS:   46271082  HIT:   44434712  MISS:    1836370  HIT %:    96.0313  MISS %:    3.96872   MPKI: 9.18185
DTLB LOAD TRANSLATION ACCESS:   46271082  HIT:   44434712  MISS:    1836370  HIT %:    96.0313  MISS %:    3.96872   MPKI: 9.18185
DTLB PREFETCH  REQUESTED:          0  ISSUED:          0  USEFUL:          0  USELESS:          0
DTLB USEFUL LOAD PREFETCHES:          0 PREFETCH ISSUED TO LOWER LEVEL:          0  ACCURACY: -nan
DTLB TIMELY PREFETCHES:          0 LATE PREFETCHES: 0 DROPPED PREFETCHES: 0
DTLB PREFETCHES SAME FILL-ORIGIN LEVEL: 0 DIFFERENT FILL-ORIGIN LEVEL: 0
DTLB AVERAGE MISS LATENCY: 8.95115 cycles
DTLB RQ	ACCESS:   60880155	FORWARD:          0	MERGED:   14543256	TO_CACHE:   46336899

STLB TOTAL     ACCESS:    9697322  HIT:    9689028  MISS:       8294  HIT %:    99.9145  MISS %:  0.0855288   MPKI: 0.04147
STLB LOAD TRANSLATION ACCESS:    3847582  HIT:    3839549  MISS:       8033  HIT %:    99.7912  MISS %:    0.20878   MPKI: 0.040165
STLB TRANSLATION FROM L1D PREFETCHER ACCESS:    5849740  HIT:    5849479  MISS:        261  HIT %:    99.9955  MISS %: 0.00446174   MPKI: 0.001305
STLB PREFETCH  REQUESTED:          0  ISSUED:          0  USEFUL:        182  USELESS:         65
STLB USEFUL LOAD PREFETCHES:        182 PREFETCH ISSUED TO LOWER LEVEL:          0  ACCURACY: inf
STLB TIMELY PREFETCHES:        182 LATE PREFETCHES: 68 DROPPED PREFETCHES: 62159
STLB PREFETCHES SAME FILL-ORIGIN LEVEL: 0 DIFFERENT FILL-ORIGIN LEVEL: 0
STLB AVERAGE MISS LATENCY: 48.086 cycles
STLB RQ	ACCESS:   11840609	FORWARD:          0	MERGED:    2081047	TO_CACHE:    9759562

STLB Hit, L1D data hit: 0
STLB Hit, L2C data hit: 0
STLB Hit, LLC data hit: 0
STLB Hit, LLC data miss: 0
STLB STLB hints to L2: 0
L1D TOTAL     ACCESS:   66552332  HIT:   62327913  MISS:    4224419  HIT %:    93.6525  MISS %:    6.34751   MPKI: 21.1221
L1D LOAD      ACCESS:   34177751  HIT:   31734584  MISS:    2443167  HIT %:    92.8516  MISS %:    7.14841   MPKI: 12.2158
L1D RFO       ACCESS:   24885759  HIT:   23786866  MISS:    1098893  HIT %:    95.5842  MISS %:    4.41575   MPKI: 5.49446
L1D PREFETCH  ACCESS:    7488822  HIT:    6806463  MISS:     682359  HIT %:    90.8883  MISS %:     9.1117   MPKI: 3.41179
AGUS PREFETCH L1 MISS: 0
L1D PREFETCH  REQUESTED:   16877147  ISSUED:   16877023  USEFUL:     575711  USELESS:     106632
L1D USEFUL LOAD PREFETCHES:     575711 PREFETCH ISSUED TO LOWER LEVEL:     945705  ACCURACY: 60.8764
L1D TIMELY PREFETCHES:     575711 LATE PREFETCHES: 261030 DROPPED PREFETCHES: 68737
L1D PREFETCHES SAME FILL-ORIGIN LEVEL: 945705 DIFFERENT FILL-ORIGIN LEVEL: 0
L1D AVERAGE MISS LATENCY: 2.51983e+07 cycles
L1D RQ	ACCESS:   47422173	FORWARD:          0	MERGED:   12842986	TO_CACHE:   34282109
L1D WQ	ACCESS:   26764780	FORWARD:     308746	MERGED:     166734	TO_CACHE:   26598046
L1D PQ	ACCESS:    8883996	FORWARD:          0	MERGED:     879301	TO_CACHE:    7993027

L1D UNIQUE REGIONS ACCESSED: 0
L1D REGIONS CONFLICTS: 0
L1D Cross Page Prefetch Requests: 6202396
L1D Same Page Prefetch Requests: 2952398
L1D ROI Sum of L1D PQ occupancy: 117960808
L1D PREFETCHES PUSHED FROM L2C: 0
L1I TOTAL     ACCESS:   39433405  HIT:   28905665  MISS:   10527740  HIT %:    73.3025  MISS %:    26.6975   MPKI: 52.6387
L1I LOAD      ACCESS:   39433405  HIT:   28905665  MISS:   10527740  HIT %:    73.3025  MISS %:    26.6975   MPKI: 52.6387
L1I PREFETCH  REQUESTED:          0  ISSUED:          0  USEFUL:          0  USELESS:          0
L1I USEFUL LOAD PREFETCHES:          0 PREFETCH ISSUED TO LOWER LEVEL:          0  ACCURACY: -nan
L1I TIMELY PREFETCHES:          0 LATE PREFETCHES: 0 DROPPED PREFETCHES: 0
L1I PREFETCHES SAME FILL-ORIGIN LEVEL: 0 DIFFERENT FILL-ORIGIN LEVEL: 0
L1I AVERAGE MISS LATENCY: 16.5655 cycles
L1I RQ	ACCESS:   57884275	FORWARD:          0	MERGED:   16953207	TO_CACHE:   40931068

BTB TOTAL     ACCESS:   29988876  HIT:   17348499  MISS:   12640377  HIT %:    57.8498  MISS %:    42.1502   MPKI: 63.2019
BTB BRANCH_DIRECT_JUMP	ACCESS:    2009046  HIT:    1127352  MISS:     881694
BTB BRANCH_INDIRECT	ACCESS:   11800645  HIT:    6994352  MISS:    4806293
BTB BRANCH_CONDITIONAL	ACCESS:    7683211  HIT:    6358422  MISS:    1324789
BTB BRANCH_DIRECT_CALL	ACCESS:    3580653  HIT:    1498237  MISS:    2082416
BTB BRANCH_INDIRECT_CALL	ACCESS:     667350  HIT:     263513  MISS:     403837
BTB BRANCH_RETURN	ACCESS:    4247971  HIT:    1106623  MISS:    3141348
BTB BRANCH_OTHER ACCESS:          0  HIT:          0  MISS:          0

L2C TOTAL     ACCESS:   16837291  HIT:   15307839  MISS:    1529452  HIT %:    90.9163  MISS %:    9.08372   MPKI: 7.64726
L2C LOAD      ACCESS:   12709873  HIT:   11580121  MISS:    1129752  HIT %:    91.1112  MISS %:    8.88877   MPKI: 5.64876
L2C DATA LOAD MPKI: 1.31963
L2C INSTRUCTION LOAD MPKI: 4.32912
L2C RFO       ACCESS:    1096570  HIT:     899400  MISS:     197170  HIT %:    82.0194  MISS %:    17.9806   MPKI: 0.98585
L2C PREFETCH  ACCESS:     945553  HIT:     814544  MISS:     131009  HIT %:    86.1447  MISS %:    13.8553   MPKI: 0.655045
AGUS PREFETCH L1 MISS: 0
L2C DATA PREFETCH MPKI: 0.655045
L2C INSTRUCTION PREFETCH MPKI: 0
L2C WRITEBACK ACCESS:    1983314  HIT:    1929443  MISS:      53871  HIT %:    97.2838  MISS %:    2.71621   MPKI: 0.269355
L2C LOAD TRANSLATION ACCESS:       8387  HIT:       2765  MISS:       5622  HIT %:    32.9677  MISS %:    67.0323   MPKI: 0.02811
L2C TRANSLATION FROM L1D PREFETCHER ACCESS:      93594  HIT:      81566  MISS:      12028  HIT %:    87.1487  MISS %:    12.8513   MPKI: 0.06014
L2C PREFETCH  REQUESTED:          0  ISSUED:          0  USEFUL:      17211  USELESS:     125702
L2C USEFUL LOAD PREFETCHES:      17211 PREFETCH ISSUED TO LOWER LEVEL:     131009  ACCURACY: 13.1373
L2C TIMELY PREFETCHES:      17211 LATE PREFETCHES: 0 DROPPED PREFETCHES: 0
L2C PREFETCHES SAME FILL-ORIGIN LEVEL: 0 DIFFERENT FILL-ORIGIN LEVEL: 0
L2C AVERAGE MISS LATENCY: 35.6424 cycles
L2C RQ	ACCESS:   13908435	FORWARD:          0	MERGED:          0	TO_CACHE:   13908424
L2C WQ	ACCESS:    1983314	FORWARD:        163	MERGED:          0	TO_CACHE:    1983314
L2C PQ	ACCESS:     945705	FORWARD:          0	MERGED:          0	TO_CACHE:     945553

L2C Instructions Evicting Data 320904
L2C Translations Evicting Data 9937
L2C Data Evicting Data 292945
L2C Instructions Evicting Instructions 537897
L2C Translations Evicting Instructions 7224
L2C Data Evicting Instructions 289557
L2C Instructions Evicting Translations 7024
L2C Translations Evicting Translations 489
L2C Data Evicting Translations 9604
L2C Dense regions hint from L2: 0
PSCL5 TOTAL     ACCESS:      70142  HIT:      70142  MISS:          0  HIT %:        100  MISS %:          0   MPKI: 0
PSCL5 LOAD TRANSLATION ACCESS:       7965  HIT:       7965  MISS:          0  HIT %:        100  MISS %:          0   MPKI: 0
PSCL5 TRANSLATION FROM L1D PREFETCHER ACCESS:      62177  HIT:      62177  MISS:          0  HIT %:        100  MISS %:          0   MPKI: 0
PSCL5 PREFETCH  REQUESTED:          0  ISSUED:          0  USEFUL:          0  USELESS:          0
PSCL5 USEFUL LOAD PREFETCHES:          0 PREFETCH ISSUED TO LOWER LEVEL:          0  ACCURACY: -nan
PSCL5 TIMELY PREFETCHES:          0 LATE PREFETCHES: 0 DROPPED PREFETCHES: 0
PSCL5 PREFETCHES SAME FILL-ORIGIN LEVEL: 0 DIFFERENT FILL-ORIGIN LEVEL: 0

PSCL4 TOTAL     ACCESS:      59439  HIT:      59419  MISS:         20  HIT %:    99.9664  MISS %:  0.0336479   MPKI: 0.0001
PSCL4 LOAD TRANSLATION ACCESS:       7724  HIT:       7704  MISS:         20  HIT %:    99.7411  MISS %:   0.258933   MPKI: 0.0001
PSCL4 TRANSLATION FROM L1D PREFETCHER ACCESS:      51715  HIT:      51715  MISS:          0  HIT %:        100  MISS %:          0   MPKI: 0
PSCL4 PREFETCH  REQUESTED:          0  ISSUED:          0  USEFUL:          0  USELESS:          0
PSCL4 USEFUL LOAD PREFETCHES:          0 PREFETCH ISSUED TO LOWER LEVEL:          0  ACCURACY: -nan
PSCL4 TIMELY PREFETCHES:          0 LATE PREFETCHES: 0 DROPPED PREFETCHES: 0
PSCL4 PREFETCHES SAME FILL-ORIGIN LEVEL: 0 DIFFERENT FILL-ORIGIN LEVEL: 0

PSCL3 TOTAL     ACCESS:      64438  HIT:      64418  MISS:         20  HIT %:     99.969  MISS %:  0.0310376   MPKI: 0.0001
PSCL3 LOAD TRANSLATION ACCESS:       7860  HIT:       7840  MISS:         20  HIT %:    99.7455  MISS %:   0.254453   MPKI: 0.0001
PSCL3 TRANSLATION FROM L1D PREFETCHER ACCESS:      56578  HIT:      56578  MISS:          0  HIT %:        100  MISS %:          0   MPKI: 0
PSCL3 PREFETCH  REQUESTED:          0  ISSUED:          0  USEFUL:          0  USELESS:          0
PSCL3 USEFUL LOAD PREFETCHES:          0 PREFETCH ISSUED TO LOWER LEVEL:          0  ACCURACY: -nan
PSCL3 TIMELY PREFETCHES:          0 LATE PREFETCHES: 0 DROPPED PREFETCHES: 0
PSCL3 PREFETCHES SAME FILL-ORIGIN LEVEL: 0 DIFFERENT FILL-ORIGIN LEVEL: 0

PSCL2 TOTAL     ACCESS:      24347  HIT:      23948  MISS:        399  HIT %:    98.3612  MISS %:    1.63881   MPKI: 0.001995
PSCL2 LOAD TRANSLATION ACCESS:       7981  HIT:       7582  MISS:        399  HIT %:    95.0006  MISS %:    4.99937   MPKI: 0.001995
PSCL2 TRANSLATION FROM L1D PREFETCHER ACCESS:      16366  HIT:      16366  MISS:          0  HIT %:        100  MISS %:          0   MPKI: 0
PSCL2 PREFETCH  REQUESTED:          0  ISSUED:          0  USEFUL:          0  USELESS:          0
PSCL2 USEFUL LOAD PREFETCHES:          0 PREFETCH ISSUED TO LOWER LEVEL:          0  ACCURACY: -nan
PSCL2 TIMELY PREFETCHES:          0 LATE PREFETCHES: 0 DROPPED PREFETCHES: 0
PSCL2 PREFETCHES SAME FILL-ORIGIN LEVEL: 0 DIFFERENT FILL-ORIGIN LEVEL: 0

LLC TOTAL     ACCESS:    1737403  HIT:    1674541  MISS:      62862  HIT %:    96.3818  MISS %:    3.61816   MPKI: 0.31431
LLC LOAD      ACCESS:    1129751  HIT:    1111475  MISS:      18276  HIT %:    98.3823  MISS %:     1.6177   MPKI: 0.09138
LLC RFO       ACCESS:     197170  HIT:     165701  MISS:      31469  HIT %:    84.0397  MISS %:    15.9603   MPKI: 0.157345
LLC PREFETCH  ACCESS:     131009  HIT:     119099  MISS:      11910  HIT %:     90.909  MISS %:    9.09098   MPKI: 0.05955
AGUS PREFETCH L1 MISS: 0
LLC WRITEBACK ACCESS:     261823  HIT:     261259  MISS:        564  HIT %:    99.7846  MISS %:   0.215413   MPKI: 0.00282
LLC LOAD TRANSLATION ACCESS:       5622  HIT:       5373  MISS:        249  HIT %:     95.571  MISS %:    4.42903   MPKI: 0.001245
LLC TRANSLATION FROM L1D PREFETCHER ACCESS:      12028  HIT:      11634  MISS:        394  HIT %:    96.7243  MISS %:    3.27569   MPKI: 0.00197
LLC PREFETCH  REQUESTED:          0  ISSUED:          0  USEFUL:       2012  USELESS:      10583
LLC USEFUL LOAD PREFETCHES:       2012 PREFETCH ISSUED TO LOWER LEVEL:      11910  ACCURACY: 16.8934
LLC TIMELY PREFETCHES:       2012 LATE PREFETCHES: 0 DROPPED PREFETCHES: 0
LLC PREFETCHES SAME FILL-ORIGIN LEVEL: 0 DIFFERENT FILL-ORIGIN LEVEL: 0
LLC AVERAGE MISS LATENCY: 162.781 cycles
LLC RQ	ACCESS:    1344572	FORWARD:          0	MERGED:          0	TO_CACHE:    1344571
LLC WQ	ACCESS:     261823	FORWARD:          1	MERGED:          0	TO_CACHE:     261823
LLC PQ	ACCESS:     131009	FORWARD:          0	MERGED:          0	TO_CACHE:     131009

LLC Dense regions hint to LLC: 0

RAW hits: 1408449
Loads Generated: 48830622
Loads sent to L1D: 47422173
Stores Generated: 26764751
Stores sent to L1D: 26764780
Major fault: 0 Minor fault: 2264
Allocated PAGES: 2264
Completed 

DRAM Statistics
 CHANNEL 0
 RQ ROW_BUFFER_HIT:      22420  ROW_BUFFER_MISS:      39853
 DBUS_CONGESTED:         47
 WQ ROW_BUFFER_HIT:       3469  ROW_BUFFER_MISS:      29430  FULL:          0

 AVG_CONGESTED_CYCLE: 5
 All warmup complete: 2
Channel 0 Bank busy for read cycles: 0
Channel 0 Bank busy for write cycles: 0
Channel 0
Rank 0
0banks busy for read cycles: 630730216
0banks busy for write cycles: 8156
1banks busy for read cycles: 1796887
1banks busy for write cycles: 1000581
2banks busy for read cycles: 391891
2banks busy for write cycles: 219372
3banks busy for read cycles: 224406
3banks busy for write cycles: 119418
4banks busy for read cycles: 165684
4banks busy for write cycles: 96505
5banks busy for read cycles: 122886
5banks busy for write cycles: 75367
6banks busy for read cycles: 107840
6banks busy for write cycles: 68261
7banks busy for read cycles: 103313
7banks busy for write cycles: 83055
8banks busy for read cycles: 153803
8banks busy for write cycles: 244844

CPU 0 Branch Prediction Accuracy: 99.8683% MPKI: 0.231785 Average ROB Occupancy at Mispredict: 31.7304
Branch types
NOT_BRANCH: 164806500 82.4032%
BRANCH_DIRECT_JUMP: 2009046 1.00452%
BRANCH_INDIRECT: 11800645 5.90032%
BRANCH_CONDITIONAL: 12887718 6.44386%
BRANCH_DIRECT_CALL: 3580653 1.79033%
BRANCH_INDIRECT_CALL: 667350 0.333675%
BRANCH_RETURN: 4247971 2.12399%
BRANCH_OTHER: 0 0%

DRAM PAGES: 1048576
Allocated PAGES: 2264
