
*** ChampSim Multicore Out-of-Order Simulator ***

Warmup Instructions: 50000000
Simulation Instructions: 200000000
Number of CPUs: 1
LLC sets: 2048
LLC ways: 16
Off-chip DRAM Size: 4096 MB Channels: 1 Width: 64-bit Data Rate: 6400 MT/s
CPU 0 runs traces/spec2k17/server_003.champsimtrace.xz
.xz
BTB has LRU replacement policy
ITLB has LRU replacement policy
DTLB has LRU replacement policy
STLB has LRU replacement policy
L1I has LRU replacement policy
L1D has LRU replacement policy
Initialize SRRIP state for L2C
Initialize DRRIP state for LLC
Heartbeat CPU 0 instructions: 10000001 cycles: 2785410 heartbeat IPC: 3.59014 cumulative IPC: 3.59014 (Simulation time: 0 hr 0 min 41 sec) 
Heartbeat CPU 0 instructions: 20000000 cycles: 5597320 heartbeat IPC: 3.5563 cumulative IPC: 3.57314 (Simulation time: 0 hr 1 min 21 sec) 
Heartbeat CPU 0 instructions: 30000000 cycles: 8375639 heartbeat IPC: 3.5993 cumulative IPC: 3.58182 (Simulation time: 0 hr 1 min 56 sec) 
Heartbeat CPU 0 instructions: 40000001 cycles: 11186928 heartbeat IPC: 3.55709 cumulative IPC: 3.5756 (Simulation time: 0 hr 2 min 39 sec) 
Heartbeat CPU 0 instructions: 50000002 cycles: 14132286 heartbeat IPC: 3.39517 cumulative IPC: 3.538 (Simulation time: 0 hr 3 min 25 sec) 

Warmup complete CPU 0 instructions: 50000002 cycles: 14132286 (Simulation time: 0 hr 3 min 25 sec) 

Heartbeat CPU 0 instructions: 60000000 cycles: 44518839 heartbeat IPC: 0.329093 cumulative IPC: 0.329093 (Simulation time: 0 hr 4 min 26 sec) 
Heartbeat CPU 0 instructions: 70000001 cycles: 70485044 heartbeat IPC: 0.385116 cumulative IPC: 0.354907 (Simulation time: 0 hr 5 min 26 sec) 
Heartbeat CPU 0 instructions: 80000003 cycles: 98578144 heartbeat IPC: 0.355959 cumulative IPC: 0.355257 (Simulation time: 0 hr 6 min 26 sec) 
Heartbeat CPU 0 instructions: 90000000 cycles: 125728820 heartbeat IPC: 0.368315 cumulative IPC: 0.358434 (Simulation time: 0 hr 7 min 29 sec) 
Heartbeat CPU 0 instructions: 100000000 cycles: 153108543 heartbeat IPC: 0.365234 cumulative IPC: 0.359774 (Simulation time: 0 hr 8 min 31 sec) 
*** Reached end of trace for Core: 0 Repeating trace: traces/spec2k17/server_003.champsimtrace.xz
Heartbeat CPU 0 instructions: 110000000 cycles: 178380977 heartbeat IPC: 0.395688 cumulative IPC: 0.3653 (Simulation time: 0 hr 9 min 39 sec) 
Heartbeat CPU 0 instructions: 120000002 cycles: 207666012 heartbeat IPC: 0.341471 cumulative IPC: 0.361694 (Simulation time: 0 hr 10 min 49 sec) 
Heartbeat CPU 0 instructions: 130000001 cycles: 232187485 heartbeat IPC: 0.407806 cumulative IPC: 0.36688 (Simulation time: 0 hr 11 min 56 sec) 
Heartbeat CPU 0 instructions: 140000000 cycles: 258663468 heartbeat IPC: 0.377701 cumulative IPC: 0.368051 (Simulation time: 0 hr 13 min 22 sec) 
Heartbeat CPU 0 instructions: 150000002 cycles: 285969650 heartbeat IPC: 0.366218 cumulative IPC: 0.367867 (Simulation time: 0 hr 15 min 34 sec) 
Heartbeat CPU 0 instructions: 160000001 cycles: 315989020 heartbeat IPC: 0.333118 cumulative IPC: 0.364411 (Simulation time: 0 hr 17 min 25 sec) 
Heartbeat CPU 0 instructions: 170000001 cycles: 341654650 heartbeat IPC: 0.389626 cumulative IPC: 0.366387 (Simulation time: 0 hr 19 min 21 sec) 
Heartbeat CPU 0 instructions: 180000000 cycles: 370240395 heartbeat IPC: 0.349825 cumulative IPC: 0.365058 (Simulation time: 0 hr 22 min 33 sec) 
Heartbeat CPU 0 instructions: 190000002 cycles: 397146554 heartbeat IPC: 0.371662 cumulative IPC: 0.365522 (Simulation time: 0 hr 25 min 56 sec) 
Heartbeat CPU 0 instructions: 200000003 cycles: 424431700 heartbeat IPC: 0.3665 cumulative IPC: 0.365587 (Simulation time: 0 hr 29 min 5 sec) 
*** Reached end of trace for Core: 0 Repeating trace: traces/spec2k17/server_003.champsimtrace.xz
Heartbeat CPU 0 instructions: 210000003 cycles: 450156924 heartbeat IPC: 0.388724 cumulative IPC: 0.366952 (Simulation time: 0 hr 31 min 51 sec) 
Heartbeat CPU 0 instructions: 220000000 cycles: 477257621 heartbeat IPC: 0.368994 cumulative IPC: 0.367071 (Simulation time: 0 hr 35 min 34 sec) 
Heartbeat CPU 0 instructions: 230000001 cycles: 503901758 heartbeat IPC: 0.375317 cumulative IPC: 0.36752 (Simulation time: 0 hr 38 min 28 sec) 
Heartbeat CPU 0 instructions: 240000002 cycles: 528300525 heartbeat IPC: 0.409857 cumulative IPC: 0.369529 (Simulation time: 0 hr 39 min 40 sec) 
Heartbeat CPU 0 instructions: 250000002 cycles: 557392765 heartbeat IPC: 0.343734 cumulative IPC: 0.368148 (Simulation time: 0 hr 43 min 7 sec) 
Finished CPU 0 instructions: 200000000 cycles: 543260479 cumulative IPC: 0.368148 (Simulation time: 0 hr 43 min 7 sec) 

ChampSim completed all CPUs

Region of Interest Statistics

CPU 0 cumulative IPC: 0.368148 instructions: 200000000 cycles: 543260479
ITLB TOTAL     ACCESS:   33481976  HIT:   32857003  MISS:     624973  HIT %:    98.1334  MISS %:     1.8666   MPKI: 3.12486
ITLB LOAD TRANSLATION ACCESS:   33481976  HIT:   32857003  MISS:     624973  HIT %:    98.1334  MISS %:     1.8666   MPKI: 3.12486
ITLB PREFETCH  REQUESTED:          0  ISSUED:          0  USEFUL:          0  USELESS:          0
ITLB USEFUL LOAD PREFETCHES:          0 PREFETCH ISSUED TO LOWER LEVEL:          0  ACCURACY: -nan
ITLB TIMELY PREFETCHES:          0 LATE PREFETCHES: 0 DROPPED PREFETCHES: 0
ITLB PREFETCHES SAME FILL-ORIGIN LEVEL: 0 DIFFERENT FILL-ORIGIN LEVEL: 0
ITLB AVERAGE MISS LATENCY: 15.5806 cycles
ITLB RQ	ACCESS:   39701380	FORWARD:          0	MERGED:    6066756	TO_CACHE:   33634624

DTLB TOTAL     ACCESS:   41767347  HIT:   39902489  MISS:    1864858  HIT %:    95.5351  MISS %:    4.46487   MPKI: 9.32429
DTLB LOAD TRANSLATION ACCESS:   41767347  HIT:   39902489  MISS:    1864858  HIT %:    95.5351  MISS %:    4.46487   MPKI: 9.32429
DTLB PREFETCH  REQUESTED:          0  ISSUED:          0  USEFUL:          0  USELESS:          0
DTLB USEFUL LOAD PREFETCHES:          0 PREFETCH ISSUED TO LOWER LEVEL:          0  ACCURACY: -nan
DTLB TIMELY PREFETCHES:          0 LATE PREFETCHES: 0 DROPPED PREFETCHES: 0
DTLB PREFETCHES SAME FILL-ORIGIN LEVEL: 0 DIFFERENT FILL-ORIGIN LEVEL: 0
DTLB AVERAGE MISS LATENCY: 14.4433 cycles
DTLB RQ	ACCESS:   52522272	FORWARD:          0	MERGED:   10646880	TO_CACHE:   41875392

STLB TOTAL     ACCESS:    4676766  HIT:    4346382  MISS:     330384  HIT %:    92.9356  MISS %:    7.06437   MPKI: 1.65192
STLB LOAD TRANSLATION ACCESS:    2489831  HIT:    2160607  MISS:     329224  HIT %:    86.7773  MISS %:    13.2227   MPKI: 1.64612
STLB TRANSLATION FROM L1D PREFETCHER ACCESS:    2186935  HIT:    2185775  MISS:       1160  HIT %:     99.947  MISS %:  0.0530423   MPKI: 0.0058
STLB PREFETCH  REQUESTED:          0  ISSUED:          0  USEFUL:       1026  USELESS:        133
STLB USEFUL LOAD PREFETCHES:       1026 PREFETCH ISSUED TO LOWER LEVEL:          0  ACCURACY: inf
STLB TIMELY PREFETCHES:       1026 LATE PREFETCHES: 142 DROPPED PREFETCHES: 7184
STLB PREFETCHES SAME FILL-ORIGIN LEVEL: 0 DIFFERENT FILL-ORIGIN LEVEL: 0
STLB AVERAGE MISS LATENCY: 44.052 cycles
STLB RQ	ACCESS:    5336770	FORWARD:          0	MERGED:     652656	TO_CACHE:    4684114

STLB Hit, L1D data hit: 0
STLB Hit, L2C data hit: 0
STLB Hit, LLC data hit: 0
STLB Hit, LLC data miss: 0
STLB STLB hints to L2: 0
L1D TOTAL     ACCESS:   54507169  HIT:   51742280  MISS:    2764889  HIT %:    94.9275  MISS %:    5.07252   MPKI: 13.8244
L1D LOAD      ACCESS:   33157123  HIT:   30882704  MISS:    2274419  HIT %:    93.1405  MISS %:    6.85952   MPKI: 11.3721
L1D RFO       ACCESS:   18527007  HIT:   18055501  MISS:     471506  HIT %:     97.455  MISS %:    2.54497   MPKI: 2.35753
L1D PREFETCH  ACCESS:    2823039  HIT:    2804075  MISS:      18964  HIT %:    99.3282  MISS %:   0.671758   MPKI: 0.09482
AGUS PREFETCH L1 MISS: 0
L1D PREFETCH  REQUESTED:    6207939  ISSUED:    6207821  USEFUL:      11474  USELESS:       7490
L1D USEFUL LOAD PREFETCHES:      11474 PREFETCH ISSUED TO LOWER LEVEL:      25275  ACCURACY: 45.3966
L1D TIMELY PREFETCHES:      11474 LATE PREFETCHES: 6238 DROPPED PREFETCHES: 9091
L1D PREFETCHES SAME FILL-ORIGIN LEVEL: 25275 DIFFERENT FILL-ORIGIN LEVEL: 0
L1D AVERAGE MISS LATENCY: 802039 cycles
L1D RQ	ACCESS:   48951935	FORWARD:          0	MERGED:   15386387	TO_CACHE:   33340154
L1D WQ	ACCESS:   19494845	FORWARD:     265027	MERGED:     312727	TO_CACHE:   19182118
L1D PQ	ACCESS:    3360882	FORWARD:          0	MERGED:     474310	TO_CACHE:    2846939

L1D UNIQUE REGIONS ACCESSED: 0
L1D REGIONS CONFLICTS: 0
L1D Cross Page Prefetch Requests: 2611383
L1D Same Page Prefetch Requests: 1121531
L1D ROI Sum of L1D PQ occupancy: 41368552
L1D PREFETCHES PUSHED FROM L2C: 0
L1I TOTAL     ACCESS:   38642208  HIT:   34800881  MISS:    3841327  HIT %:    90.0592  MISS %:    9.94075   MPKI: 19.2066
L1I LOAD      ACCESS:   38642208  HIT:   34800881  MISS:    3841327  HIT %:    90.0592  MISS %:    9.94075   MPKI: 19.2066
L1I PREFETCH  REQUESTED:          0  ISSUED:          0  USEFUL:          0  USELESS:          0
L1I USEFUL LOAD PREFETCHES:          0 PREFETCH ISSUED TO LOWER LEVEL:          0  ACCURACY: -nan
L1I TIMELY PREFETCHES:          0 LATE PREFETCHES: 0 DROPPED PREFETCHES: 0
L1I PREFETCHES SAME FILL-ORIGIN LEVEL: 0 DIFFERENT FILL-ORIGIN LEVEL: 0
L1I AVERAGE MISS LATENCY: 31.4521 cycles
L1I RQ	ACCESS:   59620947	FORWARD:          0	MERGED:   19919567	TO_CACHE:   39701380

BTB TOTAL     ACCESS:   28423782  HIT:   23262114  MISS:    5161668  HIT %:    81.8403  MISS %:    18.1597   MPKI: 25.8083
BTB BRANCH_DIRECT_JUMP	ACCESS:    1949370  HIT:    1719105  MISS:     230265
BTB BRANCH_INDIRECT	ACCESS:   10330683  HIT:    8220220  MISS:    2110463
BTB BRANCH_CONDITIONAL	ACCESS:    8250334  HIT:    7882121  MISS:     368213
BTB BRANCH_DIRECT_CALL	ACCESS:    2536633  HIT:    2099013  MISS:     437620
BTB BRANCH_INDIRECT_CALL	ACCESS:    1403932  HIT:     934159  MISS:     469773
BTB BRANCH_RETURN	ACCESS:    3952830  HIT:    2407496  MISS:    1545334
BTB BRANCH_OTHER ACCESS:          0  HIT:          0  MISS:          0

L2C TOTAL     ACCESS:    8027871  HIT:    4934038  MISS:    3093833  HIT %:    61.4614  MISS %:    38.5386   MPKI: 15.4692
L2C LOAD      ACCESS:    6109480  HIT:    3504489  MISS:    2604991  HIT %:    57.3615  MISS %:    42.6385   MPKI: 13.025
L2C DATA LOAD MPKI: 5.16435
L2C INSTRUCTION LOAD MPKI: 7.8606
L2C RFO       ACCESS:     471425  HIT:     186338  MISS:     285087  HIT %:    39.5265  MISS %:    60.4735   MPKI: 1.42544
L2C PREFETCH  ACCESS:      25272  HIT:      18842  MISS:       6430  HIT %:    74.5568  MISS %:    25.4432   MPKI: 0.03215
AGUS PREFETCH L1 MISS: 0
L2C DATA PREFETCH MPKI: 0.03215
L2C INSTRUCTION PREFETCH MPKI: 0
L2C WRITEBACK ACCESS:     999892  HIT:     957792  MISS:      42100  HIT %:    95.7895  MISS %:    4.21045   MPKI: 0.2105
L2C LOAD TRANSLATION ACCESS:     410344  HIT:     258464  MISS:     151880  HIT %:    62.9872  MISS %:    37.0128   MPKI: 0.7594
L2C TRANSLATION FROM L1D PREFETCHER ACCESS:      11458  HIT:       8113  MISS:       3345  HIT %:    70.8064  MISS %:    29.1936   MPKI: 0.016725
L2C PREFETCH  REQUESTED:          0  ISSUED:          0  USEFUL:       2889  USELESS:       6895
L2C USEFUL LOAD PREFETCHES:       2889 PREFETCH ISSUED TO LOWER LEVEL:       6430  ACCURACY: 44.93
L2C TIMELY PREFETCHES:       2889 LATE PREFETCHES: 0 DROPPED PREFETCHES: 0
L2C PREFETCHES SAME FILL-ORIGIN LEVEL: 0 DIFFERENT FILL-ORIGIN LEVEL: 0
L2C AVERAGE MISS LATENCY: 59.8358 cycles
L2C RQ	ACCESS:    7002744	FORWARD:          0	MERGED:          0	TO_CACHE:    7002708
L2C WQ	ACCESS:     999892	FORWARD:         39	MERGED:          0	TO_CACHE:     999892
L2C PQ	ACCESS:      25275	FORWARD:          0	MERGED:          0	TO_CACHE:      25272

L2C Instructions Evicting Data 662769
L2C Translations Evicting Data 66266
L2C Data Evicting Data 617855
L2C Instructions Evicting Instructions 828819
L2C Translations Evicting Instructions 81269
L2C Data Evicting Instructions 641741
L2C Instructions Evicting Translations 80533
L2C Translations Evicting Translations 7690
L2C Data Evicting Translations 64791
L2C Dense regions hint from L2: 0
PSCL5 TOTAL     ACCESS:     337231  HIT:     337231  MISS:          0  HIT %:        100  MISS %:          0   MPKI: 0
PSCL5 LOAD TRANSLATION ACCESS:     329082  HIT:     329082  MISS:          0  HIT %:        100  MISS %:          0   MPKI: 0
PSCL5 TRANSLATION FROM L1D PREFETCHER ACCESS:       8149  HIT:       8149  MISS:          0  HIT %:        100  MISS %:          0   MPKI: 0
PSCL5 PREFETCH  REQUESTED:          0  ISSUED:          0  USEFUL:          0  USELESS:          0
PSCL5 USEFUL LOAD PREFETCHES:          0 PREFETCH ISSUED TO LOWER LEVEL:          0  ACCURACY: -nan
PSCL5 TIMELY PREFETCHES:          0 LATE PREFETCHES: 0 DROPPED PREFETCHES: 0
PSCL5 PREFETCHES SAME FILL-ORIGIN LEVEL: 0 DIFFERENT FILL-ORIGIN LEVEL: 0

PSCL4 TOTAL     ACCESS:     325753  HIT:     324983  MISS:        770  HIT %:    99.7636  MISS %:   0.236375   MPKI: 0.00385
PSCL4 LOAD TRANSLATION ACCESS:     318249  HIT:     317479  MISS:        770  HIT %:    99.7581  MISS %:   0.241949   MPKI: 0.00385
PSCL4 TRANSLATION FROM L1D PREFETCHER ACCESS:       7504  HIT:       7504  MISS:          0  HIT %:        100  MISS %:          0   MPKI: 0
PSCL4 PREFETCH  REQUESTED:          0  ISSUED:          0  USEFUL:          0  USELESS:          0
PSCL4 USEFUL LOAD PREFETCHES:          0 PREFETCH ISSUED TO LOWER LEVEL:          0  ACCURACY: -nan
PSCL4 TIMELY PREFETCHES:          0 LATE PREFETCHES: 0 DROPPED PREFETCHES: 0
PSCL4 PREFETCHES SAME FILL-ORIGIN LEVEL: 0 DIFFERENT FILL-ORIGIN LEVEL: 0

PSCL3 TOTAL     ACCESS:     333326  HIT:     331142  MISS:       2184  HIT %:    99.3448  MISS %:   0.655214   MPKI: 0.01092
PSCL3 LOAD TRANSLATION ACCESS:     327196  HIT:     325012  MISS:       2184  HIT %:    99.3325  MISS %:    0.66749   MPKI: 0.01092
PSCL3 TRANSLATION FROM L1D PREFETCHER ACCESS:       6130  HIT:       6130  MISS:          0  HIT %:        100  MISS %:          0   MPKI: 0
PSCL3 PREFETCH  REQUESTED:          0  ISSUED:          0  USEFUL:          0  USELESS:          0
PSCL3 USEFUL LOAD PREFETCHES:          0 PREFETCH ISSUED TO LOWER LEVEL:          0  ACCURACY: -nan
PSCL3 TIMELY PREFETCHES:          0 LATE PREFETCHES: 0 DROPPED PREFETCHES: 0
PSCL3 PREFETCHES SAME FILL-ORIGIN LEVEL: 0 DIFFERENT FILL-ORIGIN LEVEL: 0

PSCL2 TOTAL     ACCESS:     330964  HIT:     251855  MISS:      79109  HIT %:    76.0974  MISS %:    23.9026   MPKI: 0.395545
PSCL2 LOAD TRANSLATION ACCESS:     329853  HIT:     250744  MISS:      79109  HIT %:    76.0169  MISS %:    23.9831   MPKI: 0.395545
PSCL2 TRANSLATION FROM L1D PREFETCHER ACCESS:       1111  HIT:       1111  MISS:          0  HIT %:        100  MISS %:          0   MPKI: 0
PSCL2 PREFETCH  REQUESTED:          0  ISSUED:          0  USEFUL:          0  USELESS:          0
PSCL2 USEFUL LOAD PREFETCHES:          0 PREFETCH ISSUED TO LOWER LEVEL:          0  ACCURACY: -nan
PSCL2 TIMELY PREFETCHES:          0 LATE PREFETCHES: 0 DROPPED PREFETCHES: 0
PSCL2 PREFETCHES SAME FILL-ORIGIN LEVEL: 0 DIFFERENT FILL-ORIGIN LEVEL: 0

LLC TOTAL     ACCESS:    3570131  HIT:    3007518  MISS:     562613  HIT %:    84.2411  MISS %:    15.7589   MPKI: 2.81306
LLC LOAD      ACCESS:    2604991  HIT:    2250667  MISS:     354324  HIT %:    86.3983  MISS %:    13.6017   MPKI: 1.77162
LLC RFO       ACCESS:     285086  HIT:     106641  MISS:     178445  HIT %:    37.4066  MISS %:    62.5934   MPKI: 0.892225
LLC PREFETCH  ACCESS:       6430  HIT:       5375  MISS:       1055  HIT %:    83.5925  MISS %:    16.4075   MPKI: 0.005275
AGUS PREFETCH L1 MISS: 0
LLC WRITEBACK ACCESS:     518399  HIT:     501973  MISS:      16426  HIT %:    96.8314  MISS %:     3.1686   MPKI: 0.08213
LLC LOAD TRANSLATION ACCESS:     151880  HIT:     140010  MISS:      11870  HIT %:    92.1846  MISS %:    7.81538   MPKI: 0.05935
LLC TRANSLATION FROM L1D PREFETCHER ACCESS:       3345  HIT:       2852  MISS:        493  HIT %:    85.2616  MISS %:    14.7384   MPKI: 0.002465
LLC PREFETCH  REQUESTED:          0  ISSUED:          0  USEFUL:        446  USELESS:       1102
LLC USEFUL LOAD PREFETCHES:        446 PREFETCH ISSUED TO LOWER LEVEL:       1055  ACCURACY: 42.2749
LLC TIMELY PREFETCHES:        446 LATE PREFETCHES: 0 DROPPED PREFETCHES: 0
LLC PREFETCHES SAME FILL-ORIGIN LEVEL: 0 DIFFERENT FILL-ORIGIN LEVEL: 0
LLC AVERAGE MISS LATENCY: 166.165 cycles
LLC RQ	ACCESS:    3045304	FORWARD:          0	MERGED:          0	TO_CACHE:    3045303
LLC WQ	ACCESS:     518399	FORWARD:          1	MERGED:          0	TO_CACHE:     518399
LLC PQ	ACCESS:       6430	FORWARD:          0	MERGED:          0	TO_CACHE:       6430

LLC Dense regions hint to LLC: 0

RAW hits: 2665042
Loads Generated: 51616979
Loads sent to L1D: 48951935
Stores Generated: 19494838
Stores sent to L1D: 19494845
Major fault: 0 Minor fault: 8068
Allocated PAGES: 8068
Completed 

DRAM Statistics
 CHANNEL 0
 RQ ROW_BUFFER_HIT:     124809  ROW_BUFFER_MISS:     421376
 DBUS_CONGESTED:        245
 WQ ROW_BUFFER_HIT:      63298  ROW_BUFFER_MISS:     240124  FULL:          0

 AVG_CONGESTED_CYCLE: 4
 All warmup complete: 2
Channel 0 Bank busy for read cycles: 0
Channel 0 Bank busy for write cycles: 0
Channel 0
Rank 0
0banks busy for read cycles: 453644047
0banks busy for write cycles: 152872
1banks busy for read cycles: 47227264
1banks busy for write cycles: 23364952
2banks busy for read cycles: 6063936
2banks busy for write cycles: 5989834
3banks busy for read cycles: 787778
3banks busy for write cycles: 2027008
4banks busy for read cycles: 283637
4banks busy for write cycles: 902727
5banks busy for read cycles: 144995
5banks busy for write cycles: 463842
6banks busy for read cycles: 144351
6banks busy for write cycles: 281298
7banks busy for read cycles: 181384
7banks busy for write cycles: 245437
8banks busy for read cycles: 492577
8banks busy for write cycles: 862541

CPU 0 Branch Prediction Accuracy: 97.3038% MPKI: 5.17532 Average ROB Occupancy at Mispredict: 13.2843
Branch types
NOT_BRANCH: 161610441 80.8052%
BRANCH_DIRECT_JUMP: 1949370 0.974685%
BRANCH_INDIRECT: 10330683 5.16534%
BRANCH_CONDITIONAL: 18215850 9.10792%
BRANCH_DIRECT_CALL: 2536633 1.26832%
BRANCH_INDIRECT_CALL: 1403932 0.701966%
BRANCH_RETURN: 3952830 1.97642%
BRANCH_OTHER: 0 0%

DRAM PAGES: 1048576
Allocated PAGES: 8068
