
*** ChampSim Multicore Out-of-Order Simulator ***

Warmup Instructions: 50000000
Simulation Instructions: 200000000
Number of CPUs: 1
LLC sets: 2048
LLC ways: 16
Off-chip DRAM Size: 4096 MB Channels: 1 Width: 64-bit Data Rate: 6400 MT/s
CPU 0 runs traces/spec2k17/server_035.champsimtrace.xz
.xz
BTB has LRU replacement policy
ITLB has LRU replacement policy
DTLB has LRU replacement policy
STLB has LRU replacement policy
L1I has LRU replacement policy
L1D has LRU replacement policy
Initialize SRRIP state for L2C
Initialize DRRIP state for LLC
Heartbeat CPU 0 instructions: 10000003 cycles: 2814876 heartbeat IPC: 3.55256 cumulative IPC: 3.55256 (Simulation time: 0 hr 0 min 36 sec) 
Heartbeat CPU 0 instructions: 20000000 cycles: 5628702 heartbeat IPC: 3.55388 cumulative IPC: 3.55322 (Simulation time: 0 hr 1 min 11 sec) 
Heartbeat CPU 0 instructions: 30000000 cycles: 8444196 heartbeat IPC: 3.55177 cumulative IPC: 3.55274 (Simulation time: 0 hr 1 min 44 sec) 
Heartbeat CPU 0 instructions: 40000003 cycles: 11263326 heartbeat IPC: 3.54719 cumulative IPC: 3.55135 (Simulation time: 0 hr 2 min 17 sec) 
Heartbeat CPU 0 instructions: 50000000 cycles: 14081372 heartbeat IPC: 3.54856 cumulative IPC: 3.55079 (Simulation time: 0 hr 2 min 51 sec) 

Warmup complete CPU 0 instructions: 50000004 cycles: 14081373 (Simulation time: 0 hr 2 min 51 sec) 

Heartbeat CPU 0 instructions: 60000000 cycles: 42580188 heartbeat IPC: 0.350892 cumulative IPC: 0.350892 (Simulation time: 0 hr 3 min 54 sec) 
Heartbeat CPU 0 instructions: 70000001 cycles: 71305060 heartbeat IPC: 0.34813 cumulative IPC: 0.349506 (Simulation time: 0 hr 4 min 59 sec) 
Heartbeat CPU 0 instructions: 80000000 cycles: 99697132 heartbeat IPC: 0.352211 cumulative IPC: 0.350403 (Simulation time: 0 hr 6 min 0 sec) 
Heartbeat CPU 0 instructions: 90000000 cycles: 128585527 heartbeat IPC: 0.34616 cumulative IPC: 0.349332 (Simulation time: 0 hr 7 min 5 sec) 
Heartbeat CPU 0 instructions: 100000000 cycles: 156987652 heartbeat IPC: 0.352086 cumulative IPC: 0.34988 (Simulation time: 0 hr 8 min 12 sec) 
*** Reached end of trace for Core: 0 Repeating trace: traces/spec2k17/server_035.champsimtrace.xz
Heartbeat CPU 0 instructions: 110000000 cycles: 185107074 heartbeat IPC: 0.355626 cumulative IPC: 0.350824 (Simulation time: 0 hr 9 min 18 sec) 
Heartbeat CPU 0 instructions: 120000002 cycles: 213383652 heartbeat IPC: 0.35365 cumulative IPC: 0.351225 (Simulation time: 0 hr 10 min 25 sec) 
Heartbeat CPU 0 instructions: 130000001 cycles: 242048338 heartbeat IPC: 0.348861 cumulative IPC: 0.350928 (Simulation time: 0 hr 11 min 39 sec) 
Heartbeat CPU 0 instructions: 140000000 cycles: 270872535 heartbeat IPC: 0.346931 cumulative IPC: 0.350479 (Simulation time: 0 hr 13 min 2 sec) 
Heartbeat CPU 0 instructions: 150000001 cycles: 299100129 heartbeat IPC: 0.354263 cumulative IPC: 0.350854 (Simulation time: 0 hr 14 min 37 sec) 
Heartbeat CPU 0 instructions: 160000000 cycles: 327666480 heartbeat IPC: 0.350062 cumulative IPC: 0.350782 (Simulation time: 0 hr 16 min 18 sec) 
Heartbeat CPU 0 instructions: 170000000 cycles: 356064943 heartbeat IPC: 0.352132 cumulative IPC: 0.350894 (Simulation time: 0 hr 18 min 19 sec) 
Heartbeat CPU 0 instructions: 180000000 cycles: 384264148 heartbeat IPC: 0.35462 cumulative IPC: 0.351178 (Simulation time: 0 hr 20 min 22 sec) 
Heartbeat CPU 0 instructions: 190000000 cycles: 412978392 heartbeat IPC: 0.348259 cumulative IPC: 0.350968 (Simulation time: 0 hr 22 min 53 sec) 
Heartbeat CPU 0 instructions: 200000000 cycles: 441424195 heartbeat IPC: 0.351546 cumulative IPC: 0.351006 (Simulation time: 0 hr 25 min 40 sec) 
*** Reached end of trace for Core: 0 Repeating trace: traces/spec2k17/server_035.champsimtrace.xz
Heartbeat CPU 0 instructions: 210000000 cycles: 470073257 heartbeat IPC: 0.349052 cumulative IPC: 0.350883 (Simulation time: 0 hr 28 min 6 sec) 
Heartbeat CPU 0 instructions: 220000000 cycles: 497813019 heartbeat IPC: 0.360493 cumulative IPC: 0.351435 (Simulation time: 0 hr 30 min 39 sec) 
Heartbeat CPU 0 instructions: 230000000 cycles: 526507786 heartbeat IPC: 0.348496 cumulative IPC: 0.35127 (Simulation time: 0 hr 33 min 19 sec) 
Heartbeat CPU 0 instructions: 240000002 cycles: 554742680 heartbeat IPC: 0.354172 cumulative IPC: 0.351421 (Simulation time: 0 hr 36 min 31 sec) 
Heartbeat CPU 0 instructions: 250000000 cycles: 583476844 heartbeat IPC: 0.348018 cumulative IPC: 0.35125 (Simulation time: 0 hr 38 min 35 sec) 
Finished CPU 0 instructions: 200000002 cycles: 569395521 cumulative IPC: 0.35125 (Simulation time: 0 hr 38 min 35 sec) 

ChampSim completed all CPUs

Region of Interest Statistics

CPU 0 cumulative IPC: 0.35125 instructions: 200000002 cycles: 569395521
ITLB TOTAL     ACCESS:   35619225  HIT:   33574963  MISS:    2044262  HIT %:    94.2608  MISS %:    5.73921   MPKI: 10.2213
ITLB LOAD TRANSLATION ACCESS:   35619225  HIT:   33574963  MISS:    2044262  HIT %:    94.2608  MISS %:    5.73921   MPKI: 10.2213
ITLB PREFETCH  REQUESTED:          0  ISSUED:          0  USEFUL:          0  USELESS:          0
ITLB USEFUL LOAD PREFETCHES:          0 PREFETCH ISSUED TO LOWER LEVEL:          0  ACCURACY: -nan
ITLB TIMELY PREFETCHES:          0 LATE PREFETCHES: 0 DROPPED PREFETCHES: 0
ITLB PREFETCHES SAME FILL-ORIGIN LEVEL: 0 DIFFERENT FILL-ORIGIN LEVEL: 0
ITLB AVERAGE MISS LATENCY: 9.09633 cycles
ITLB RQ	ACCESS:   41309222	FORWARD:          0	MERGED:    5236725	TO_CACHE:   36072497

DTLB TOTAL     ACCESS:   39292246  HIT:   37569609  MISS:    1722637  HIT %:    95.6158  MISS %:    4.38417   MPKI: 8.61318
DTLB LOAD TRANSLATION ACCESS:   39292246  HIT:   37569609  MISS:    1722637  HIT %:    95.6158  MISS %:    4.38417   MPKI: 8.61318
DTLB PREFETCH  REQUESTED:          0  ISSUED:          0  USEFUL:          0  USELESS:          0
DTLB USEFUL LOAD PREFETCHES:          0 PREFETCH ISSUED TO LOWER LEVEL:          0  ACCURACY: -nan
DTLB TIMELY PREFETCHES:          0 LATE PREFETCHES: 0 DROPPED PREFETCHES: 0
DTLB PREFETCHES SAME FILL-ORIGIN LEVEL: 0 DIFFERENT FILL-ORIGIN LEVEL: 0
DTLB AVERAGE MISS LATENCY: 9.74341 cycles
DTLB RQ	ACCESS:   54925460	FORWARD:          0	MERGED:   15557491	TO_CACHE:   39367969

STLB TOTAL     ACCESS:    9754830  HIT:    9719786  MISS:      35044  HIT %:    99.6408  MISS %:   0.359248   MPKI: 0.17522
STLB LOAD TRANSLATION ACCESS:    3766899  HIT:    3732794  MISS:      34105  HIT %:    99.0946  MISS %:   0.905387   MPKI: 0.170525
STLB TRANSLATION FROM L1D PREFETCHER ACCESS:    5987931  HIT:    5986992  MISS:        939  HIT %:    99.9843  MISS %:  0.0156815   MPKI: 0.004695
STLB PREFETCH  REQUESTED:          0  ISSUED:          0  USEFUL:        407  USELESS:        516
STLB USEFUL LOAD PREFETCHES:        407 PREFETCH ISSUED TO LOWER LEVEL:          0  ACCURACY: inf
STLB TIMELY PREFETCHES:        407 LATE PREFETCHES: 49 DROPPED PREFETCHES: 80338
STLB PREFETCHES SAME FILL-ORIGIN LEVEL: 0 DIFFERENT FILL-ORIGIN LEVEL: 0
STLB AVERAGE MISS LATENCY: 53.7058 cycles
STLB RQ	ACCESS:   12201901	FORWARD:          0	MERGED:    2366655	TO_CACHE:    9835246

STLB Hit, L1D data hit: 0
STLB Hit, L2C data hit: 0
STLB Hit, LLC data hit: 0
STLB Hit, LLC data miss: 0
STLB STLB hints to L2: 0
L1D TOTAL     ACCESS:   62555342  HIT:   59864090  MISS:    2691252  HIT %:    95.6978  MISS %:    4.30219   MPKI: 13.4563
L1D LOAD      ACCESS:   30141743  HIT:   28229888  MISS:    1911855  HIT %:    93.6571  MISS %:    6.34288   MPKI: 9.55927
L1D RFO       ACCESS:   24325447  HIT:   23936304  MISS:     389143  HIT %:    98.4003  MISS %:    1.59974   MPKI: 1.94571
L1D PREFETCH  ACCESS:    8088152  HIT:    7697898  MISS:     390254  HIT %:     95.175  MISS %:    4.82501   MPKI: 1.95127
AGUS PREFETCH L1 MISS: 0
L1D PREFETCH  REQUESTED:   18164874  ISSUED:   18164782  USEFUL:     278594  USELESS:     111657
L1D USEFUL LOAD PREFETCHES:     278594 PREFETCH ISSUED TO LOWER LEVEL:     521596  ACCURACY: 53.4118
L1D TIMELY PREFETCHES:     278594 LATE PREFETCHES: 130543 DROPPED PREFETCHES: 102511
L1D PREFETCHES SAME FILL-ORIGIN LEVEL: 521596 DIFFERENT FILL-ORIGIN LEVEL: 0
L1D AVERAGE MISS LATENCY: 1.76576e+07 cycles
L1D RQ	ACCESS:   43313991	FORWARD:          0	MERGED:   12755122	TO_CACHE:   30222773
L1D WQ	ACCESS:   24970645	FORWARD:     370608	MERGED:     267958	TO_CACHE:   24702687
L1D PQ	ACCESS:    9729780	FORWARD:          0	MERGED:    1260266	TO_CACHE:    8435002

L1D UNIQUE REGIONS ACCESSED: 0
L1D REGIONS CONFLICTS: 0
L1D Cross Page Prefetch Requests: 6738850
L1D Same Page Prefetch Requests: 3646130
L1D ROI Sum of L1D PQ occupancy: 124979891
L1D PREFETCHES PUSHED FROM L2C: 0
L1I TOTAL     ACCESS:   38657314  HIT:   25870897  MISS:   12786417  HIT %:    66.9237  MISS %:    33.0763   MPKI: 63.9321
L1I LOAD      ACCESS:   38657314  HIT:   25870897  MISS:   12786417  HIT %:    66.9237  MISS %:    33.0763   MPKI: 63.9321
L1I PREFETCH  REQUESTED:          0  ISSUED:          0  USEFUL:          0  USELESS:          0
L1I USEFUL LOAD PREFETCHES:          0 PREFETCH ISSUED TO LOWER LEVEL:          0  ACCURACY: -nan
L1I TIMELY PREFETCHES:          0 LATE PREFETCHES: 0 DROPPED PREFETCHES: 0
L1I PREFETCHES SAME FILL-ORIGIN LEVEL: 0 DIFFERENT FILL-ORIGIN LEVEL: 0
L1I AVERAGE MISS LATENCY: 14.363 cycles
L1I RQ	ACCESS:   61008254	FORWARD:          0	MERGED:   19699032	TO_CACHE:   41309222

BTB TOTAL     ACCESS:   31158244  HIT:   22772674  MISS:    8385570  HIT %:    73.0872  MISS %:    26.9128   MPKI: 41.9278
BTB BRANCH_DIRECT_JUMP	ACCESS:    2947352  HIT:    2315063  MISS:     632289
BTB BRANCH_INDIRECT	ACCESS:   13078896  HIT:    9492312  MISS:    3586584
BTB BRANCH_CONDITIONAL	ACCESS:    5413260  HIT:    4750581  MISS:     662679
BTB BRANCH_DIRECT_CALL	ACCESS:    4056169  HIT:    3104099  MISS:     952070
BTB BRANCH_INDIRECT_CALL	ACCESS:     803174  HIT:     456636  MISS:     346538
BTB BRANCH_RETURN	ACCESS:    4859393  HIT:    2653983  MISS:    2205410
BTB BRANCH_OTHER ACCESS:          0  HIT:          0  MISS:          0

L2C TOTAL     ACCESS:   16571124  HIT:   15787934  MISS:     783190  HIT %:    95.2738  MISS %:    4.72623   MPKI: 3.91595
L2C LOAD      ACCESS:   14567534  HIT:   13929351  MISS:     638183  HIT %:    95.6191  MISS %:    4.38086   MPKI: 3.19091
L2C DATA LOAD MPKI: 2.98572
L2C INSTRUCTION LOAD MPKI: 0.20519
L2C RFO       ACCESS:     388344  HIT:     289788  MISS:      98556  HIT %:    74.6215  MISS %:    25.3785   MPKI: 0.49278
L2C PREFETCH  ACCESS:     521591  HIT:     503596  MISS:      17995  HIT %:      96.55  MISS %:    3.45002   MPKI: 0.089975
AGUS PREFETCH L1 MISS: 0
L2C DATA PREFETCH MPKI: 0.089975
L2C INSTRUCTION PREFETCH MPKI: 0
L2C WRITEBACK ACCESS:     931021  HIT:     918810  MISS:      12211  HIT %:    98.6884  MISS %:    1.31157   MPKI: 0.061055
L2C LOAD TRANSLATION ACCESS:      36440  HIT:      22032  MISS:      14408  HIT %:     60.461  MISS %:     39.539   MPKI: 0.07204
L2C TRANSLATION FROM L1D PREFETCHER ACCESS:     126194  HIT:     124357  MISS:       1837  HIT %:    98.5443  MISS %:     1.4557   MPKI: 0.009185
L2C PREFETCH  REQUESTED:          0  ISSUED:          0  USEFUL:       3332  USELESS:      16471
L2C USEFUL LOAD PREFETCHES:       3332 PREFETCH ISSUED TO LOWER LEVEL:      17995  ACCURACY: 18.5163
L2C TIMELY PREFETCHES:       3332 LATE PREFETCHES: 0 DROPPED PREFETCHES: 0
L2C PREFETCHES SAME FILL-ORIGIN LEVEL: 0 DIFFERENT FILL-ORIGIN LEVEL: 0
L2C AVERAGE MISS LATENCY: 154.557 cycles
L2C RQ	ACCESS:   15118709	FORWARD:          0	MERGED:          0	TO_CACHE:   15118514
L2C WQ	ACCESS:     931021	FORWARD:        200	MERGED:          0	TO_CACHE:     931021
L2C PQ	ACCESS:     521596	FORWARD:          0	MERGED:          0	TO_CACHE:     521591

L2C Instructions Evicting Data 29476
L2C Translations Evicting Data 15234
L2C Data Evicting Data 670464
L2C Instructions Evicting Instructions 11086
L2C Translations Evicting Instructions 619
L2C Data Evicting Instructions 28144
L2C Instructions Evicting Translations 476
L2C Translations Evicting Translations 392
L2C Data Evicting Translations 15088
L2C Dense regions hint from L2: 0
PSCL5 TOTAL     ACCESS:     103641  HIT:     103641  MISS:          0  HIT %:        100  MISS %:          0   MPKI: 0
PSCL5 LOAD TRANSLATION ACCESS:      34056  HIT:      34056  MISS:          0  HIT %:        100  MISS %:          0   MPKI: 0
PSCL5 TRANSLATION FROM L1D PREFETCHER ACCESS:      69585  HIT:      69585  MISS:          0  HIT %:        100  MISS %:          0   MPKI: 0
PSCL5 PREFETCH  REQUESTED:          0  ISSUED:          0  USEFUL:          0  USELESS:          0
PSCL5 USEFUL LOAD PREFETCHES:          0 PREFETCH ISSUED TO LOWER LEVEL:          0  ACCURACY: -nan
PSCL5 TIMELY PREFETCHES:          0 LATE PREFETCHES: 0 DROPPED PREFETCHES: 0
PSCL5 PREFETCHES SAME FILL-ORIGIN LEVEL: 0 DIFFERENT FILL-ORIGIN LEVEL: 0

PSCL4 TOTAL     ACCESS:      88809  HIT:      88746  MISS:         63  HIT %:    99.9291  MISS %:  0.0709388   MPKI: 0.000315
PSCL4 LOAD TRANSLATION ACCESS:      32153  HIT:      32090  MISS:         63  HIT %:    99.8041  MISS %:   0.195938   MPKI: 0.000315
PSCL4 TRANSLATION FROM L1D PREFETCHER ACCESS:      56656  HIT:      56656  MISS:          0  HIT %:        100  MISS %:          0   MPKI: 0
PSCL4 PREFETCH  REQUESTED:          0  ISSUED:          0  USEFUL:          0  USELESS:          0
PSCL4 USEFUL LOAD PREFETCHES:          0 PREFETCH ISSUED TO LOWER LEVEL:          0  ACCURACY: -nan
PSCL4 TIMELY PREFETCHES:          0 LATE PREFETCHES: 0 DROPPED PREFETCHES: 0
PSCL4 PREFETCHES SAME FILL-ORIGIN LEVEL: 0 DIFFERENT FILL-ORIGIN LEVEL: 0

PSCL3 TOTAL     ACCESS:      90844  HIT:      90720  MISS:        124  HIT %:    99.8635  MISS %:   0.136498   MPKI: 0.00062
PSCL3 LOAD TRANSLATION ACCESS:      33203  HIT:      33079  MISS:        124  HIT %:    99.6265  MISS %:    0.37346   MPKI: 0.00062
PSCL3 TRANSLATION FROM L1D PREFETCHER ACCESS:      57641  HIT:      57641  MISS:          0  HIT %:        100  MISS %:          0   MPKI: 0
PSCL3 PREFETCH  REQUESTED:          0  ISSUED:          0  USEFUL:          0  USELESS:          0
PSCL3 USEFUL LOAD PREFETCHES:          0 PREFETCH ISSUED TO LOWER LEVEL:          0  ACCURACY: -nan
PSCL3 TIMELY PREFETCHES:          0 LATE PREFETCHES: 0 DROPPED PREFETCHES: 0
PSCL3 PREFETCHES SAME FILL-ORIGIN LEVEL: 0 DIFFERENT FILL-ORIGIN LEVEL: 0

PSCL2 TOTAL     ACCESS:      45379  HIT:      43059  MISS:       2320  HIT %:    94.8875  MISS %:     5.1125   MPKI: 0.0116
PSCL2 LOAD TRANSLATION ACCESS:      34176  HIT:      31856  MISS:       2320  HIT %:    93.2116  MISS %:    6.78839   MPKI: 0.0116
PSCL2 TRANSLATION FROM L1D PREFETCHER ACCESS:      11203  HIT:      11203  MISS:          0  HIT %:        100  MISS %:          0   MPKI: 0
PSCL2 PREFETCH  REQUESTED:          0  ISSUED:          0  USEFUL:          0  USELESS:          0
PSCL2 USEFUL LOAD PREFETCHES:          0 PREFETCH ISSUED TO LOWER LEVEL:          0  ACCURACY: -nan
PSCL2 TIMELY PREFETCHES:          0 LATE PREFETCHES: 0 DROPPED PREFETCHES: 0
PSCL2 PREFETCHES SAME FILL-ORIGIN LEVEL: 0 DIFFERENT FILL-ORIGIN LEVEL: 0

LLC TOTAL     ACCESS:    1127973  HIT:     515717  MISS:     612256  HIT %:    45.7207  MISS %:    54.2793   MPKI: 3.06128
LLC LOAD      ACCESS:     638183  HIT:     111331  MISS:     526852  HIT %:     17.445  MISS %:     82.555   MPKI: 2.63426
LLC RFO       ACCESS:      98556  HIT:      31258  MISS:      67298  HIT %:     31.716  MISS %:     68.284   MPKI: 0.33649
LLC PREFETCH  ACCESS:      17994  HIT:       9813  MISS:       8181  HIT %:    54.5348  MISS %:    45.4652   MPKI: 0.040905
AGUS PREFETCH L1 MISS: 0
LLC WRITEBACK ACCESS:     356995  HIT:     351320  MISS:       5675  HIT %:    98.4103  MISS %:    1.58966   MPKI: 0.028375
LLC LOAD TRANSLATION ACCESS:      14408  HIT:      10987  MISS:       3421  HIT %:    76.2562  MISS %:    23.7438   MPKI: 0.017105
LLC TRANSLATION FROM L1D PREFETCHER ACCESS:       1837  HIT:       1008  MISS:        829  HIT %:    54.8721  MISS %:    45.1279   MPKI: 0.004145
LLC PREFETCH  REQUESTED:          0  ISSUED:          0  USEFUL:       1118  USELESS:       7637
LLC USEFUL LOAD PREFETCHES:       1118 PREFETCH ISSUED TO LOWER LEVEL:       8181  ACCURACY: 13.6658
LLC TIMELY PREFETCHES:       1118 LATE PREFETCHES: 0 DROPPED PREFETCHES: 0
LLC PREFETCHES SAME FILL-ORIGIN LEVEL: 0 DIFFERENT FILL-ORIGIN LEVEL: 0
LLC AVERAGE MISS LATENCY: 159.923 cycles
LLC RQ	ACCESS:     752984	FORWARD:          0	MERGED:          0	TO_CACHE:     752984
LLC WQ	ACCESS:     356995	FORWARD:          1	MERGED:          0	TO_CACHE:     356995
LLC PQ	ACCESS:      17995	FORWARD:          0	MERGED:          0	TO_CACHE:      17994

LLC Dense regions hint to LLC: 0

RAW hits: 2853091
Loads Generated: 46167082
Loads sent to L1D: 43313991
Stores Generated: 24970639
Stores sent to L1D: 24970645
Major fault: 0 Minor fault: 5644
Allocated PAGES: 5644
Completed 

DRAM Statistics
 CHANNEL 0
 RQ ROW_BUFFER_HIT:     107659  ROW_BUFFER_MISS:     498913
 DBUS_CONGESTED:        180
 WQ ROW_BUFFER_HIT:      68619  ROW_BUFFER_MISS:     230934  FULL:          0

 AVG_CONGESTED_CYCLE: 6
 All warmup complete: 2
Channel 0 Bank busy for read cycles: 0
Channel 0 Bank busy for write cycles: 0
Channel 0
Rank 0
0banks busy for read cycles: 475822037
0banks busy for write cycles: 153802
1banks busy for read cycles: 45325654
1banks busy for write cycles: 23067611
2banks busy for read cycles: 9004355
2banks busy for write cycles: 6575780
3banks busy for read cycles: 3067914
3banks busy for write cycles: 2044418
4banks busy for read cycles: 560908
4banks busy for write cycles: 826363
5banks busy for read cycles: 175574
5banks busy for write cycles: 529008
6banks busy for read cycles: 216699
6banks busy for write cycles: 538086
7banks busy for read cycles: 449567
7banks busy for write cycles: 572563
8banks busy for read cycles: 15967
8banks busy for write cycles: 449216

CPU 0 Branch Prediction Accuracy: 99.9574% MPKI: 0.07907 Average ROB Occupancy at Mispredict: 24.0365
Branch types
NOT_BRANCH: 162853528 81.4268%
BRANCH_DIRECT_JUMP: 2947352 1.47368%
BRANCH_INDIRECT: 13078896 6.53945%
BRANCH_CONDITIONAL: 11401391 5.7007%
BRANCH_DIRECT_CALL: 4056169 2.02808%
BRANCH_INDIRECT_CALL: 803174 0.401587%
BRANCH_RETURN: 4859393 2.4297%
BRANCH_OTHER: 0 0%

DRAM PAGES: 1048576
Allocated PAGES: 5644
