
*** ChampSim Multicore Out-of-Order Simulator ***

Warmup Instructions: 50000000
Simulation Instructions: 200000000
Number of CPUs: 1
LLC sets: 2048
LLC ways: 16
Off-chip DRAM Size: 4096 MB Channels: 1 Width: 64-bit Data Rate: 6400 MT/s
CPU 0 runs traces/spec2k17/srv_25.champsimtrace.xz
.xz
BTB has LRU replacement policy
ITLB has LRU replacement policy
DTLB has LRU replacement policy
STLB has LRU replacement policy
L1I has LRU replacement policy
L1D has LRU replacement policy
Initialize SRRIP state for L2C
Initialize DRRIP state for LLC
Heartbeat CPU 0 instructions: 10000003 cycles: 2836775 heartbeat IPC: 3.52513 cumulative IPC: 3.52513 (Simulation time: 0 hr 0 min 45 sec) 
Heartbeat CPU 0 instructions: 20000001 cycles: 5669057 heartbeat IPC: 3.53072 cumulative IPC: 3.52792 (Simulation time: 0 hr 1 min 26 sec) 
Heartbeat CPU 0 instructions: 30000002 cycles: 8497512 heartbeat IPC: 3.5355 cumulative IPC: 3.53045 (Simulation time: 0 hr 2 min 7 sec) 
*** Reached end of trace for Core: 0 Repeating trace: traces/spec2k17/srv_25.champsimtrace.xz
Heartbeat CPU 0 instructions: 40000002 cycles: 11325802 heartbeat IPC: 3.53571 cumulative IPC: 3.53176 (Simulation time: 0 hr 2 min 43 sec) 
Heartbeat CPU 0 instructions: 50000002 cycles: 14158406 heartbeat IPC: 3.53032 cumulative IPC: 3.53147 (Simulation time: 0 hr 3 min 26 sec) 

Warmup complete CPU 0 instructions: 50000002 cycles: 14158406 (Simulation time: 0 hr 3 min 26 sec) 

Heartbeat CPU 0 instructions: 60000002 cycles: 46919689 heartbeat IPC: 0.305238 cumulative IPC: 0.305238 (Simulation time: 0 hr 4 min 32 sec) 
*** Reached end of trace for Core: 0 Repeating trace: traces/spec2k17/srv_25.champsimtrace.xz
Heartbeat CPU 0 instructions: 70000001 cycles: 79659794 heartbeat IPC: 0.305436 cumulative IPC: 0.305337 (Simulation time: 0 hr 5 min 40 sec) 
Heartbeat CPU 0 instructions: 80000003 cycles: 112703291 heartbeat IPC: 0.302631 cumulative IPC: 0.30443 (Simulation time: 0 hr 6 min 45 sec) 
Heartbeat CPU 0 instructions: 90000001 cycles: 145410562 heartbeat IPC: 0.305742 cumulative IPC: 0.304757 (Simulation time: 0 hr 7 min 53 sec) 
*** Reached end of trace for Core: 0 Repeating trace: traces/spec2k17/srv_25.champsimtrace.xz
Heartbeat CPU 0 instructions: 100000002 cycles: 178021526 heartbeat IPC: 0.306645 cumulative IPC: 0.305133 (Simulation time: 0 hr 9 min 1 sec) 
Heartbeat CPU 0 instructions: 110000000 cycles: 210686119 heartbeat IPC: 0.306142 cumulative IPC: 0.3053 (Simulation time: 0 hr 10 min 7 sec) 
Heartbeat CPU 0 instructions: 120000000 cycles: 243001085 heartbeat IPC: 0.309454 cumulative IPC: 0.305887 (Simulation time: 0 hr 11 min 15 sec) 
*** Reached end of trace for Core: 0 Repeating trace: traces/spec2k17/srv_25.champsimtrace.xz
Heartbeat CPU 0 instructions: 130000000 cycles: 275182631 heartbeat IPC: 0.310737 cumulative IPC: 0.306485 (Simulation time: 0 hr 12 min 25 sec) 
Heartbeat CPU 0 instructions: 140000000 cycles: 307469111 heartbeat IPC: 0.309727 cumulative IPC: 0.306842 (Simulation time: 0 hr 13 min 32 sec) 
Heartbeat CPU 0 instructions: 150000000 cycles: 339672231 heartbeat IPC: 0.310529 cumulative IPC: 0.307207 (Simulation time: 0 hr 14 min 39 sec) 
*** Reached end of trace for Core: 0 Repeating trace: traces/spec2k17/srv_25.champsimtrace.xz
Heartbeat CPU 0 instructions: 160000000 cycles: 371728468 heartbeat IPC: 0.311952 cumulative IPC: 0.307632 (Simulation time: 0 hr 15 min 49 sec) 
Heartbeat CPU 0 instructions: 170000003 cycles: 403966616 heartbeat IPC: 0.310192 cumulative IPC: 0.307844 (Simulation time: 0 hr 16 min 56 sec) 
Heartbeat CPU 0 instructions: 180000000 cycles: 436226168 heartbeat IPC: 0.309986 cumulative IPC: 0.308007 (Simulation time: 0 hr 18 min 5 sec) 
*** Reached end of trace for Core: 0 Repeating trace: traces/spec2k17/srv_25.champsimtrace.xz
Heartbeat CPU 0 instructions: 190000001 cycles: 468264743 heartbeat IPC: 0.312124 cumulative IPC: 0.308298 (Simulation time: 0 hr 19 min 15 sec) 
Heartbeat CPU 0 instructions: 200000001 cycles: 500380141 heartbeat IPC: 0.311377 cumulative IPC: 0.308501 (Simulation time: 0 hr 20 min 27 sec) 
Heartbeat CPU 0 instructions: 210000000 cycles: 532724528 heartbeat IPC: 0.309173 cumulative IPC: 0.308543 (Simulation time: 0 hr 21 min 42 sec) 
*** Reached end of trace for Core: 0 Repeating trace: traces/spec2k17/srv_25.champsimtrace.xz
Heartbeat CPU 0 instructions: 220000000 cycles: 564695691 heartbeat IPC: 0.312782 cumulative IPC: 0.308789 (Simulation time: 0 hr 22 min 52 sec) 
Heartbeat CPU 0 instructions: 230000000 cycles: 596807305 heartbeat IPC: 0.311414 cumulative IPC: 0.308934 (Simulation time: 0 hr 24 min 4 sec) 
Heartbeat CPU 0 instructions: 240000003 cycles: 629177541 heartbeat IPC: 0.308926 cumulative IPC: 0.308933 (Simulation time: 0 hr 25 min 10 sec) 
Heartbeat CPU 0 instructions: 250000001 cycles: 661047755 heartbeat IPC: 0.313773 cumulative IPC: 0.309172 (Simulation time: 0 hr 26 min 37 sec) 
Finished CPU 0 instructions: 200000003 cycles: 646889350 cumulative IPC: 0.309172 (Simulation time: 0 hr 26 min 37 sec) 

ChampSim completed all CPUs

Region of Interest Statistics

CPU 0 cumulative IPC: 0.309172 instructions: 200000003 cycles: 646889350
ITLB TOTAL     ACCESS:   35347976  HIT:   33084558  MISS:    2263418  HIT %:    93.5968  MISS %:    6.40325   MPKI: 11.3171
ITLB LOAD TRANSLATION ACCESS:   35347976  HIT:   33084558  MISS:    2263418  HIT %:    93.5968  MISS %:    6.40325   MPKI: 11.3171
ITLB PREFETCH  REQUESTED:          0  ISSUED:          0  USEFUL:          0  USELESS:          0
ITLB USEFUL LOAD PREFETCHES:          0 PREFETCH ISSUED TO LOWER LEVEL:          0  ACCURACY: -nan
ITLB TIMELY PREFETCHES:          0 LATE PREFETCHES: 0 DROPPED PREFETCHES: 0
ITLB PREFETCHES SAME FILL-ORIGIN LEVEL: 0 DIFFERENT FILL-ORIGIN LEVEL: 0
ITLB AVERAGE MISS LATENCY: 9.1822 cycles
ITLB RQ	ACCESS:   41714765	FORWARD:          0	MERGED:    5822941	TO_CACHE:   35891824

DTLB TOTAL     ACCESS:   46057558  HIT:   43899745  MISS:    2157813  HIT %:     95.315  MISS %:    4.68504   MPKI: 10.7891
DTLB LOAD TRANSLATION ACCESS:   46057558  HIT:   43899745  MISS:    2157813  HIT %:     95.315  MISS %:    4.68504   MPKI: 10.7891
DTLB PREFETCH  REQUESTED:          0  ISSUED:          0  USEFUL:          0  USELESS:          0
DTLB USEFUL LOAD PREFETCHES:          0 PREFETCH ISSUED TO LOWER LEVEL:          0  ACCURACY: -nan
DTLB TIMELY PREFETCHES:          0 LATE PREFETCHES: 0 DROPPED PREFETCHES: 0
DTLB PREFETCHES SAME FILL-ORIGIN LEVEL: 0 DIFFERENT FILL-ORIGIN LEVEL: 0
DTLB AVERAGE MISS LATENCY: 9.75788 cycles
DTLB RQ	ACCESS:   60885550	FORWARD:          0	MERGED:   14767758	TO_CACHE:   46117792

STLB TOTAL     ACCESS:   16450288  HIT:   16389153  MISS:      61135  HIT %:    99.6284  MISS %:   0.371635   MPKI: 0.305675
STLB LOAD TRANSLATION ACCESS:    4421230  HIT:    4362441  MISS:      58789  HIT %:    98.6703  MISS %:     1.3297   MPKI: 0.293945
STLB TRANSLATION FROM L1D PREFETCHER ACCESS:   12029058  HIT:   12026712  MISS:       2346  HIT %:    99.9805  MISS %:  0.0195028   MPKI: 0.01173
STLB PREFETCH  REQUESTED:          0  ISSUED:          0  USEFUL:       2131  USELESS:        212
STLB USEFUL LOAD PREFETCHES:       2131 PREFETCH ISSUED TO LOWER LEVEL:          0  ACCURACY: inf
STLB TIMELY PREFETCHES:       2131 LATE PREFETCHES: 427 DROPPED PREFETCHES: 112940
STLB PREFETCHES SAME FILL-ORIGIN LEVEL: 0 DIFFERENT FILL-ORIGIN LEVEL: 0
STLB AVERAGE MISS LATENCY: 52.1373 cycles
STLB RQ	ACCESS:   20750248	FORWARD:          0	MERGED:    4185606	TO_CACHE:   16564642

STLB Hit, L1D data hit: 0
STLB Hit, L2C data hit: 0
STLB Hit, LLC data hit: 0
STLB Hit, LLC data miss: 0
STLB STLB hints to L2: 0
L1D TOTAL     ACCESS:   74493855  HIT:   69384767  MISS:    5109088  HIT %:    93.1416  MISS %:     6.8584   MPKI: 25.5454
L1D LOAD      ACCESS:   33927548  HIT:   31467749  MISS:    2459799  HIT %:    92.7498  MISS %:    7.25015   MPKI: 12.299
L1D RFO       ACCESS:   25196612  HIT:   24062361  MISS:    1134251  HIT %:    95.4984  MISS %:     4.5016   MPKI: 5.67125
L1D PREFETCH  ACCESS:   15369695  HIT:   13854657  MISS:    1515038  HIT %:    90.1427  MISS %:    9.85731   MPKI: 7.57519
AGUS PREFETCH L1 MISS: 0
L1D PREFETCH  REQUESTED:   34381170  ISSUED:   34380814  USEFUL:    1365337  USELESS:     149677
L1D USEFUL LOAD PREFETCHES:    1365337 PREFETCH ISSUED TO LOWER LEVEL:    1990493  ACCURACY: 68.5929
L1D TIMELY PREFETCHES:    1365337 LATE PREFETCHES: 470134 DROPPED PREFETCHES: 130927
L1D PREFETCHES SAME FILL-ORIGIN LEVEL: 1990493 DIFFERENT FILL-ORIGIN LEVEL: 0
L1D AVERAGE MISS LATENCY: 3.77288e+07 cycles
L1D RQ	ACCESS:   46581248	FORWARD:          0	MERGED:   12221051	TO_CACHE:   34031856
L1D WQ	ACCESS:   26999502	FORWARD:     363595	MERGED:     145808	TO_CACHE:   26853694
L1D PQ	ACCESS:   18051796	FORWARD:          0	MERGED:    1687524	TO_CACHE:   16329018

L1D UNIQUE REGIONS ACCESSED: 0
L1D REGIONS CONFLICTS: 0
L1D Cross Page Prefetch Requests: 13072516
L1D Same Page Prefetch Requests: 5311091
L1D ROI Sum of L1D PQ occupancy: 240979308
L1D PREFETCHES PUSHED FROM L2C: 0
L1I TOTAL     ACCESS:   40019140  HIT:   28518386  MISS:   11500754  HIT %:    71.2619  MISS %:    28.7381   MPKI: 57.5038
L1I LOAD      ACCESS:   40019140  HIT:   28518386  MISS:   11500754  HIT %:    71.2619  MISS %:    28.7381   MPKI: 57.5038
L1I PREFETCH  REQUESTED:          0  ISSUED:          0  USEFUL:          0  USELESS:          0
L1I USEFUL LOAD PREFETCHES:          0 PREFETCH ISSUED TO LOWER LEVEL:          0  ACCURACY: -nan
L1I TIMELY PREFETCHES:          0 LATE PREFETCHES: 0 DROPPED PREFETCHES: 0
L1I PREFETCHES SAME FILL-ORIGIN LEVEL: 0 DIFFERENT FILL-ORIGIN LEVEL: 0
L1I AVERAGE MISS LATENCY: 15.6033 cycles
L1I RQ	ACCESS:   58678661	FORWARD:          0	MERGED:   16963896	TO_CACHE:   41714765

BTB TOTAL     ACCESS:   30550565  HIT:   17847955  MISS:   12702610  HIT %:     58.421  MISS %:     41.579   MPKI: 63.513
BTB BRANCH_DIRECT_JUMP	ACCESS:    2073765  HIT:    1256441  MISS:     817324
BTB BRANCH_INDIRECT	ACCESS:   12278071  HIT:    7369228  MISS:    4908843
BTB BRANCH_CONDITIONAL	ACCESS:    6949199  HIT:    5659195  MISS:    1290004
BTB BRANCH_DIRECT_CALL	ACCESS:    3898896  HIT:    1843151  MISS:    2055745
BTB BRANCH_INDIRECT_CALL	ACCESS:     725884  HIT:     351632  MISS:     374252
BTB BRANCH_RETURN	ACCESS:    4624750  HIT:    1368308  MISS:    3256442
BTB BRANCH_OTHER ACCESS:          0  HIT:          0  MISS:          0

L2C TOTAL     ACCESS:   19154162  HIT:   18049970  MISS:    1104192  HIT %:    94.2352  MISS %:    5.76476   MPKI: 5.52096
L2C LOAD      ACCESS:   13490345  HIT:   12646584  MISS:     843761  HIT %:    93.7454  MISS %:    6.25455   MPKI: 4.2188
L2C DATA LOAD MPKI: 1.32603
L2C INSTRUCTION LOAD MPKI: 2.89277
L2C RFO       ACCESS:    1128925  HIT:    1062582  MISS:      66343  HIT %:    94.1233  MISS %:    5.87665   MPKI: 0.331715
L2C PREFETCH  ACCESS:    1990424  HIT:    1880337  MISS:     110087  HIT %:    94.4692  MISS %:    5.53083   MPKI: 0.550435
AGUS PREFETCH L1 MISS: 0
L2C DATA PREFETCH MPKI: 0.550435
L2C INSTRUCTION PREFETCH MPKI: 0
L2C WRITEBACK ACCESS:    2267692  HIT:    2240065  MISS:      27627  HIT %:    98.7817  MISS %:    1.21829   MPKI: 0.138135
L2C LOAD TRANSLATION ACCESS:      87736  HIT:      48181  MISS:      39555  HIT %:    54.9159  MISS %:    45.0841   MPKI: 0.197775
L2C TRANSLATION FROM L1D PREFETCHER ACCESS:     189040  HIT:     172221  MISS:      16819  HIT %:    91.1029  MISS %:    8.89706   MPKI: 0.084095
L2C PREFETCH  REQUESTED:          0  ISSUED:          0  USEFUL:      14941  USELESS:     111972
L2C USEFUL LOAD PREFETCHES:      14941 PREFETCH ISSUED TO LOWER LEVEL:     110087  ACCURACY: 13.572
L2C TIMELY PREFETCHES:      14941 LATE PREFETCHES: 0 DROPPED PREFETCHES: 0
L2C PREFETCHES SAME FILL-ORIGIN LEVEL: 0 DIFFERENT FILL-ORIGIN LEVEL: 0
L2C AVERAGE MISS LATENCY: 35.8659 cycles
L2C RQ	ACCESS:   14896125	FORWARD:          0	MERGED:          0	TO_CACHE:   14896046
L2C WQ	ACCESS:    2267692	FORWARD:        148	MERGED:          0	TO_CACHE:    2267692
L2C PQ	ACCESS:    1990493	FORWARD:          0	MERGED:          0	TO_CACHE:    1990424

L2C Instructions Evicting Data 197622
L2C Translations Evicting Data 34417
L2C Data Evicting Data 228492
L2C Instructions Evicting Instructions 364629
L2C Translations Evicting Instructions 16216
L2C Data Evicting Instructions 179603
L2C Instructions Evicting Translations 16303
L2C Translations Evicting Translations 5741
L2C Data Evicting Translations 33542
L2C Dense regions hint from L2: 0
PSCL5 TOTAL     ACCESS:     173445  HIT:     173445  MISS:          0  HIT %:        100  MISS %:          0   MPKI: 0
PSCL5 LOAD TRANSLATION ACCESS:      58362  HIT:      58362  MISS:          0  HIT %:        100  MISS %:          0   MPKI: 0
PSCL5 TRANSLATION FROM L1D PREFETCHER ACCESS:     115083  HIT:     115083  MISS:          0  HIT %:        100  MISS %:          0   MPKI: 0
PSCL5 PREFETCH  REQUESTED:          0  ISSUED:          0  USEFUL:          0  USELESS:          0
PSCL5 USEFUL LOAD PREFETCHES:          0 PREFETCH ISSUED TO LOWER LEVEL:          0  ACCURACY: -nan
PSCL5 TIMELY PREFETCHES:          0 LATE PREFETCHES: 0 DROPPED PREFETCHES: 0
PSCL5 PREFETCHES SAME FILL-ORIGIN LEVEL: 0 DIFFERENT FILL-ORIGIN LEVEL: 0

PSCL4 TOTAL     ACCESS:     135791  HIT:     135081  MISS:        710  HIT %:    99.4771  MISS %:   0.522862   MPKI: 0.00355
PSCL4 LOAD TRANSLATION ACCESS:      57344  HIT:      56634  MISS:        710  HIT %:    98.7619  MISS %:    1.23814   MPKI: 0.00355
PSCL4 TRANSLATION FROM L1D PREFETCHER ACCESS:      78447  HIT:      78447  MISS:          0  HIT %:        100  MISS %:          0   MPKI: 0
PSCL4 PREFETCH  REQUESTED:          0  ISSUED:          0  USEFUL:          0  USELESS:          0
PSCL4 USEFUL LOAD PREFETCHES:          0 PREFETCH ISSUED TO LOWER LEVEL:          0  ACCURACY: -nan
PSCL4 TIMELY PREFETCHES:          0 LATE PREFETCHES: 0 DROPPED PREFETCHES: 0
PSCL4 PREFETCHES SAME FILL-ORIGIN LEVEL: 0 DIFFERENT FILL-ORIGIN LEVEL: 0

PSCL3 TOTAL     ACCESS:     157591  HIT:     156881  MISS:        710  HIT %:    99.5495  MISS %:   0.450533   MPKI: 0.00355
PSCL3 LOAD TRANSLATION ACCESS:      58294  HIT:      57584  MISS:        710  HIT %:     98.782  MISS %:    1.21796   MPKI: 0.00355
PSCL3 TRANSLATION FROM L1D PREFETCHER ACCESS:      99297  HIT:      99297  MISS:          0  HIT %:        100  MISS %:          0   MPKI: 0
PSCL3 PREFETCH  REQUESTED:          0  ISSUED:          0  USEFUL:          0  USELESS:          0
PSCL3 USEFUL LOAD PREFETCHES:          0 PREFETCH ISSUED TO LOWER LEVEL:          0  ACCURACY: -nan
PSCL3 TIMELY PREFETCHES:          0 LATE PREFETCHES: 0 DROPPED PREFETCHES: 0
PSCL3 PREFETCHES SAME FILL-ORIGIN LEVEL: 0 DIFFERENT FILL-ORIGIN LEVEL: 0

PSCL2 TOTAL     ACCESS:      75427  HIT:      45595  MISS:      29832  HIT %:    60.4492  MISS %:    39.5508   MPKI: 0.14916
PSCL2 LOAD TRANSLATION ACCESS:      60066  HIT:      30234  MISS:      29832  HIT %:    50.3346  MISS %:    49.6654   MPKI: 0.14916
PSCL2 TRANSLATION FROM L1D PREFETCHER ACCESS:      15361  HIT:      15361  MISS:          0  HIT %:        100  MISS %:          0   MPKI: 0
PSCL2 PREFETCH  REQUESTED:          0  ISSUED:          0  USEFUL:          0  USELESS:          0
PSCL2 USEFUL LOAD PREFETCHES:          0 PREFETCH ISSUED TO LOWER LEVEL:          0  ACCURACY: -nan
PSCL2 TIMELY PREFETCHES:          0 LATE PREFETCHES: 0 DROPPED PREFETCHES: 0
PSCL2 PREFETCHES SAME FILL-ORIGIN LEVEL: 0 DIFFERENT FILL-ORIGIN LEVEL: 0

LLC TOTAL     ACCESS:    1176072  HIT:    1124659  MISS:      51413  HIT %:    95.6284  MISS %:    4.37159   MPKI: 0.257065
LLC LOAD      ACCESS:     843761  HIT:     808355  MISS:      35406  HIT %:    95.8038  MISS %:    4.19621   MPKI: 0.17703
LLC RFO       ACCESS:      66343  HIT:      62560  MISS:       3783  HIT %:    94.2978  MISS %:    5.70218   MPKI: 0.018915
LLC PREFETCH  ACCESS:     110087  HIT:     101373  MISS:       8714  HIT %:    92.0844  MISS %:    7.91556   MPKI: 0.04357
AGUS PREFETCH L1 MISS: 0
LLC WRITEBACK ACCESS:      99507  HIT:      99270  MISS:        237  HIT %:    99.7618  MISS %:   0.238174   MPKI: 0.001185
LLC LOAD TRANSLATION ACCESS:      39555  HIT:      37313  MISS:       2242  HIT %:    94.3319  MISS %:    5.66806   MPKI: 0.01121
LLC TRANSLATION FROM L1D PREFETCHER ACCESS:      16819  HIT:      15788  MISS:       1031  HIT %:      93.87  MISS %:    6.12997   MPKI: 0.005155
LLC PREFETCH  REQUESTED:          0  ISSUED:          0  USEFUL:       2103  USELESS:       8607
LLC USEFUL LOAD PREFETCHES:       2103 PREFETCH ISSUED TO LOWER LEVEL:       8714  ACCURACY: 24.1336
LLC TIMELY PREFETCHES:       2103 LATE PREFETCHES: 0 DROPPED PREFETCHES: 0
LLC PREFETCHES SAME FILL-ORIGIN LEVEL: 0 DIFFERENT FILL-ORIGIN LEVEL: 0
LLC AVERAGE MISS LATENCY: 142.092 cycles
LLC RQ	ACCESS:     966478	FORWARD:          0	MERGED:          0	TO_CACHE:     966478
LLC WQ	ACCESS:      99507	FORWARD:          0	MERGED:          0	TO_CACHE:      99507
LLC PQ	ACCESS:     110087	FORWARD:          0	MERGED:          0	TO_CACHE:     110087

LLC Dense regions hint to LLC: 0

RAW hits: 1413260
Loads Generated: 47994507
Loads sent to L1D: 46581248
Stores Generated: 26999505
Stores sent to L1D: 26999502
Major fault: 0 Minor fault: 4375
Allocated PAGES: 4375
Completed 

DRAM Statistics
 CHANNEL 0
 RQ ROW_BUFFER_HIT:      15625  ROW_BUFFER_MISS:      35551
 DBUS_CONGESTED:         24
 WQ ROW_BUFFER_HIT:        417  ROW_BUFFER_MISS:       4231  FULL:          0

 AVG_CONGESTED_CYCLE: 4
 All warmup complete: 2
Channel 0 Bank busy for read cycles: 0
Channel 0 Bank busy for write cycles: 0
Channel 0
Rank 0
0banks busy for read cycles: 641767558
0banks busy for write cycles: 3471
1banks busy for read cycles: 3697818
1banks busy for write cycles: 504776
2banks busy for read cycles: 447040
2banks busy for write cycles: 63494
3banks busy for read cycles: 153379
3banks busy for write cycles: 23671
4banks busy for read cycles: 93825
4banks busy for write cycles: 8717
5banks busy for read cycles: 56859
5banks busy for write cycles: 4144
6banks busy for read cycles: 33765
6banks busy for write cycles: 1499
7banks busy for read cycles: 20667
7banks busy for write cycles: 1501
8banks busy for read cycles: 6905
8banks busy for write cycles: 262

CPU 0 Branch Prediction Accuracy: 99.8132% MPKI: 0.33529 Average ROB Occupancy at Mispredict: 48.7264
Branch types
NOT_BRANCH: 164101728 82.0509%
BRANCH_DIRECT_JUMP: 2073765 1.03688%
BRANCH_INDIRECT: 12278071 6.13904%
BRANCH_CONDITIONAL: 12296955 6.14848%
BRANCH_DIRECT_CALL: 3898896 1.94945%
BRANCH_INDIRECT_CALL: 725884 0.362942%
BRANCH_RETURN: 4624750 2.31237%
BRANCH_OTHER: 0 0%

DRAM PAGES: 1048576
Allocated PAGES: 4375
