
*** ChampSim Multicore Out-of-Order Simulator ***

Warmup Instructions: 50000000
Simulation Instructions: 200000000
Number of CPUs: 1
LLC sets: 2048
LLC ways: 16
Off-chip DRAM Size: 4096 MB Channels: 1 Width: 64-bit Data Rate: 6400 MT/s
CPU 0 runs traces/spec2k17/srv_50.champsimtrace.xz
.xz
BTB has LRU replacement policy
ITLB has LRU replacement policy
DTLB has LRU replacement policy
STLB has LRU replacement policy
L1I has LRU replacement policy
L1D has LRU replacement policy
Initialize SRRIP state for L2C
Initialize DRRIP state for LLC
Heartbeat CPU 0 instructions: 10000003 cycles: 2876196 heartbeat IPC: 3.47682 cumulative IPC: 3.47682 (Simulation time: 0 hr 0 min 47 sec) 
Heartbeat CPU 0 instructions: 20000002 cycles: 5736042 heartbeat IPC: 3.49669 cumulative IPC: 3.48673 (Simulation time: 0 hr 1 min 16 sec) 
Heartbeat CPU 0 instructions: 30000003 cycles: 8565537 heartbeat IPC: 3.5342 cumulative IPC: 3.50241 (Simulation time: 0 hr 1 min 48 sec) 
*** Reached end of trace for Core: 0 Repeating trace: traces/spec2k17/srv_50.champsimtrace.xz
Heartbeat CPU 0 instructions: 40000000 cycles: 11426552 heartbeat IPC: 3.49526 cumulative IPC: 3.50062 (Simulation time: 0 hr 2 min 19 sec) 
Heartbeat CPU 0 instructions: 50000001 cycles: 14288857 heartbeat IPC: 3.49369 cumulative IPC: 3.49923 (Simulation time: 0 hr 2 min 50 sec) 

Warmup complete CPU 0 instructions: 50000001 cycles: 14288857 (Simulation time: 0 hr 2 min 50 sec) 

Heartbeat CPU 0 instructions: 60000002 cycles: 38241233 heartbeat IPC: 0.417495 cumulative IPC: 0.417495 (Simulation time: 0 hr 3 min 35 sec) 
*** Reached end of trace for Core: 0 Repeating trace: traces/spec2k17/srv_50.champsimtrace.xz
Heartbeat CPU 0 instructions: 70000002 cycles: 62887329 heartbeat IPC: 0.405744 cumulative IPC: 0.411536 (Simulation time: 0 hr 4 min 37 sec) 
Heartbeat CPU 0 instructions: 80000000 cycles: 89265650 heartbeat IPC: 0.379099 cumulative IPC: 0.400124 (Simulation time: 0 hr 5 min 40 sec) 
Heartbeat CPU 0 instructions: 90000001 cycles: 113558173 heartbeat IPC: 0.411649 cumulative IPC: 0.402944 (Simulation time: 0 hr 6 min 45 sec) 
*** Reached end of trace for Core: 0 Repeating trace: traces/spec2k17/srv_50.champsimtrace.xz
Heartbeat CPU 0 instructions: 100000002 cycles: 137637773 heartbeat IPC: 0.415289 cumulative IPC: 0.405354 (Simulation time: 0 hr 8 min 23 sec) 
Heartbeat CPU 0 instructions: 110000000 cycles: 164115536 heartbeat IPC: 0.377675 cumulative IPC: 0.400463 (Simulation time: 0 hr 10 min 8 sec) 
Heartbeat CPU 0 instructions: 120000001 cycles: 188304815 heartbeat IPC: 0.413406 cumulative IPC: 0.402262 (Simulation time: 0 hr 12 min 32 sec) 
*** Reached end of trace for Core: 0 Repeating trace: traces/spec2k17/srv_50.champsimtrace.xz
Heartbeat CPU 0 instructions: 130000000 cycles: 212303748 heartbeat IPC: 0.416685 cumulative IPC: 0.40401 (Simulation time: 0 hr 13 min 42 sec) 
Heartbeat CPU 0 instructions: 140000001 cycles: 237717446 heartbeat IPC: 0.393489 cumulative IPC: 0.402813 (Simulation time: 0 hr 14 min 31 sec) 
Heartbeat CPU 0 instructions: 150000003 cycles: 263067007 heartbeat IPC: 0.394484 cumulative IPC: 0.401965 (Simulation time: 0 hr 15 min 13 sec) 
*** Reached end of trace for Core: 0 Repeating trace: traces/spec2k17/srv_50.champsimtrace.xz
Heartbeat CPU 0 instructions: 160000000 cycles: 287004835 heartbeat IPC: 0.417749 cumulative IPC: 0.40335 (Simulation time: 0 hr 16 min 29 sec) 
Heartbeat CPU 0 instructions: 170000002 cycles: 311984707 heartbeat IPC: 0.400322 cumulative IPC: 0.403096 (Simulation time: 0 hr 17 min 36 sec) 
Heartbeat CPU 0 instructions: 180000002 cycles: 337707950 heartbeat IPC: 0.388753 cumulative IPC: 0.401955 (Simulation time: 0 hr 19 min 3 sec) 
*** Reached end of trace for Core: 0 Repeating trace: traces/spec2k17/srv_50.champsimtrace.xz
Heartbeat CPU 0 instructions: 190000001 cycles: 361806381 heartbeat IPC: 0.414965 cumulative IPC: 0.402857 (Simulation time: 0 hr 20 min 27 sec) 
Heartbeat CPU 0 instructions: 200000002 cycles: 387303796 heartbeat IPC: 0.392197 cumulative IPC: 0.402129 (Simulation time: 0 hr 21 min 46 sec) 
Heartbeat CPU 0 instructions: 210000001 cycles: 411565131 heartbeat IPC: 0.412178 cumulative IPC: 0.402742 (Simulation time: 0 hr 22 min 58 sec) 
*** Reached end of trace for Core: 0 Repeating trace: traces/spec2k17/srv_50.champsimtrace.xz
Heartbeat CPU 0 instructions: 220000000 cycles: 435423343 heartbeat IPC: 0.419143 cumulative IPC: 0.403672 (Simulation time: 0 hr 23 min 36 sec) 
Heartbeat CPU 0 instructions: 230000000 cycles: 462026025 heartbeat IPC: 0.375902 cumulative IPC: 0.402022 (Simulation time: 0 hr 24 min 11 sec) 
Heartbeat CPU 0 instructions: 240000000 cycles: 486800958 heartbeat IPC: 0.403634 cumulative IPC: 0.402106 (Simulation time: 0 hr 24 min 43 sec) 
*** Reached end of trace for Core: 0 Repeating trace: traces/spec2k17/srv_50.champsimtrace.xz
Heartbeat CPU 0 instructions: 250000000 cycles: 510153578 heartbeat IPC: 0.428217 cumulative IPC: 0.403336 (Simulation time: 0 hr 25 min 13 sec) 
Finished CPU 0 instructions: 200000003 cycles: 495864722 cumulative IPC: 0.403336 (Simulation time: 0 hr 25 min 13 sec) 

ChampSim completed all CPUs

Region of Interest Statistics

CPU 0 cumulative IPC: 0.403336 instructions: 200000003 cycles: 495864722
ITLB TOTAL     ACCESS:   34011749  HIT:   33052241  MISS:     959508  HIT %:    97.1789  MISS %:    2.82111   MPKI: 4.79754
ITLB LOAD TRANSLATION ACCESS:   34011749  HIT:   33052241  MISS:     959508  HIT %:    97.1789  MISS %:    2.82111   MPKI: 4.79754
ITLB PREFETCH  REQUESTED:          0  ISSUED:          0  USEFUL:          0  USELESS:          0
ITLB USEFUL LOAD PREFETCHES:          0 PREFETCH ISSUED TO LOWER LEVEL:          0  ACCURACY: -nan
ITLB TIMELY PREFETCHES:          0 LATE PREFETCHES: 0 DROPPED PREFETCHES: 0
ITLB PREFETCHES SAME FILL-ORIGIN LEVEL: 0 DIFFERENT FILL-ORIGIN LEVEL: 0
ITLB AVERAGE MISS LATENCY: 10.1151 cycles
ITLB RQ	ACCESS:   39259234	FORWARD:          0	MERGED:    4987863	TO_CACHE:   34271371

DTLB TOTAL     ACCESS:   41591373  HIT:   40586487  MISS:    1004886  HIT %:    97.5839  MISS %:    2.41609   MPKI: 5.02443
DTLB LOAD TRANSLATION ACCESS:   41591373  HIT:   40586487  MISS:    1004886  HIT %:    97.5839  MISS %:    2.41609   MPKI: 5.02443
DTLB PREFETCH  REQUESTED:          0  ISSUED:          0  USEFUL:          0  USELESS:          0
DTLB USEFUL LOAD PREFETCHES:          0 PREFETCH ISSUED TO LOWER LEVEL:          0  ACCURACY: -nan
DTLB TIMELY PREFETCHES:          0 LATE PREFETCHES: 0 DROPPED PREFETCHES: 0
DTLB PREFETCHES SAME FILL-ORIGIN LEVEL: 0 DIFFERENT FILL-ORIGIN LEVEL: 0
DTLB AVERAGE MISS LATENCY: 15.0451 cycles
DTLB RQ	ACCESS:   54449265	FORWARD:          0	MERGED:   12784562	TO_CACHE:   41664703

STLB TOTAL     ACCESS:    3148531  HIT:    3062045  MISS:      86486  HIT %:    97.2531  MISS %:    2.74687   MPKI: 0.43243
STLB LOAD TRANSLATION ACCESS:    1964394  HIT:    1878434  MISS:      85960  HIT %:    95.6241  MISS %:     4.3759   MPKI: 0.4298
STLB TRANSLATION FROM L1D PREFETCHER ACCESS:    1184137  HIT:    1183611  MISS:        526  HIT %:    99.9556  MISS %:  0.0444205   MPKI: 0.00263
STLB PREFETCH  REQUESTED:          0  ISSUED:          0  USEFUL:        494  USELESS:         32
STLB USEFUL LOAD PREFETCHES:        494 PREFETCH ISSUED TO LOWER LEVEL:          0  ACCURACY: inf
STLB TIMELY PREFETCHES:        494 LATE PREFETCHES: 39 DROPPED PREFETCHES: 3682
STLB PREFETCHES SAME FILL-ORIGIN LEVEL: 0 DIFFERENT FILL-ORIGIN LEVEL: 0
STLB AVERAGE MISS LATENCY: 83.1351 cycles
STLB RQ	ACCESS:    3646584	FORWARD:          0	MERGED:     494325	TO_CACHE:    3152259

STLB Hit, L1D data hit: 0
STLB Hit, L2C data hit: 0
STLB Hit, LLC data hit: 0
STLB Hit, LLC data miss: 0
STLB STLB hints to L2: 0
L1D TOTAL     ACCESS:   54893883  HIT:   52229546  MISS:    2664337  HIT %:    95.1464  MISS %:    4.85361   MPKI: 13.3217
L1D LOAD      ACCESS:   34605965  HIT:   32798831  MISS:    1807134  HIT %:     94.778  MISS %:    5.22203   MPKI: 9.03567
L1D RFO       ACCESS:   18652448  HIT:   17821734  MISS:     830714  HIT %:    95.5464  MISS %:    4.45365   MPKI: 4.15357
L1D PREFETCH  ACCESS:    1635470  HIT:    1608981  MISS:      26489  HIT %:    98.3803  MISS %:    1.61966   MPKI: 0.132445
AGUS PREFETCH L1 MISS: 0
L1D PREFETCH  REQUESTED:    3727557  ISSUED:    3727557  USEFUL:      14538  USELESS:      11951
L1D USEFUL LOAD PREFETCHES:      14538 PREFETCH ISSUED TO LOWER LEVEL:      45469  ACCURACY: 31.9734
L1D TIMELY PREFETCHES:      14538 LATE PREFETCHES: 18970 DROPPED PREFETCHES: 8106
L1D PREFETCHES SAME FILL-ORIGIN LEVEL: 45469 DIFFERENT FILL-ORIGIN LEVEL: 0
L1D AVERAGE MISS LATENCY: 2.07367e+06 cycles
L1D RQ	ACCESS:   46207232	FORWARD:          0	MERGED:   11162877	TO_CACHE:   34731441
L1D WQ	ACCESS:   20039997	FORWARD:     313383	MERGED:     322173	TO_CACHE:   19717824
L1D PQ	ACCESS:    2045368	FORWARD:          0	MERGED:     362710	TO_CACHE:    1682189

L1D UNIQUE REGIONS ACCESSED: 0
L1D REGIONS CONFLICTS: 0
L1D Cross Page Prefetch Requests: 1227921
L1D Same Page Prefetch Requests: 1013399
L1D ROI Sum of L1D PQ occupancy: 25299943
L1D PREFETCHES PUSHED FROM L2C: 0
L1I TOTAL     ACCESS:   38481680  HIT:   33373862  MISS:    5107818  HIT %:    86.7266  MISS %:    13.2734   MPKI: 25.5391
L1I LOAD      ACCESS:   38481680  HIT:   33373862  MISS:    5107818  HIT %:    86.7266  MISS %:    13.2734   MPKI: 25.5391
L1I PREFETCH  REQUESTED:          0  ISSUED:          0  USEFUL:          0  USELESS:          0
L1I USEFUL LOAD PREFETCHES:          0 PREFETCH ISSUED TO LOWER LEVEL:          0  ACCURACY: -nan
L1I TIMELY PREFETCHES:          0 LATE PREFETCHES: 0 DROPPED PREFETCHES: 0
L1I PREFETCHES SAME FILL-ORIGIN LEVEL: 0 DIFFERENT FILL-ORIGIN LEVEL: 0
L1I AVERAGE MISS LATENCY: 23.7855 cycles
L1I RQ	ACCESS:   58592167	FORWARD:          0	MERGED:   19332933	TO_CACHE:   39259234

BTB TOTAL     ACCESS:   30370697  HIT:   23500645  MISS:    6870052  HIT %:    77.3793  MISS %:    22.6207   MPKI: 34.3503
BTB BRANCH_DIRECT_JUMP	ACCESS:    3828094  HIT:    3320175  MISS:     507919
BTB BRANCH_INDIRECT	ACCESS:   11538875  HIT:    8901928  MISS:    2636947
BTB BRANCH_CONDITIONAL	ACCESS:    8796378  HIT:    8197618  MISS:     598760
BTB BRANCH_DIRECT_CALL	ACCESS:    2543553  HIT:    1630776  MISS:     912777
BTB BRANCH_INDIRECT_CALL	ACCESS:     560087  HIT:     266833  MISS:     293254
BTB BRANCH_RETURN	ACCESS:    3103710  HIT:    1183315  MISS:    1920395
BTB BRANCH_OTHER ACCESS:          0  HIT:          0  MISS:          0

L2C TOTAL     ACCESS:    9254692  HIT:    6263999  MISS:    2990693  HIT %:    67.6846  MISS %:    32.3154   MPKI: 14.9535
L2C LOAD      ACCESS:    6895977  HIT:    4534702  MISS:    2361275  HIT %:    65.7587  MISS %:    34.2413   MPKI: 11.8064
L2C DATA LOAD MPKI: 3.90438
L2C INSTRUCTION LOAD MPKI: 7.90199
L2C RFO       ACCESS:     830682  HIT:     387092  MISS:     443590  HIT %:    46.5993  MISS %:    53.4007   MPKI: 2.21795
L2C PREFETCH  ACCESS:      45469  HIT:      15250  MISS:      30219  HIT %:    33.5393  MISS %:    66.4607   MPKI: 0.151095
AGUS PREFETCH L1 MISS: 0
L2C DATA PREFETCH MPKI: 0.151095
L2C INSTRUCTION PREFETCH MPKI: 0
L2C WRITEBACK ACCESS:    1336965  HIT:    1261121  MISS:      75844  HIT %:    94.3272  MISS %:    5.67285   MPKI: 0.37922
L2C LOAD TRANSLATION ACCESS:     137610  HIT:      59021  MISS:      78589  HIT %:    42.8901  MISS %:    57.1099   MPKI: 0.392945
L2C TRANSLATION FROM L1D PREFETCHER ACCESS:       7989  HIT:       6813  MISS:       1176  HIT %:    85.2798  MISS %:    14.7202   MPKI: 0.00588
L2C PREFETCH  REQUESTED:          0  ISSUED:          0  USEFUL:       1371  USELESS:      30058
L2C USEFUL LOAD PREFETCHES:       1371 PREFETCH ISSUED TO LOWER LEVEL:      30219  ACCURACY: 4.53688
L2C TIMELY PREFETCHES:       1371 LATE PREFETCHES: 0 DROPPED PREFETCHES: 0
L2C PREFETCHES SAME FILL-ORIGIN LEVEL: 0 DIFFERENT FILL-ORIGIN LEVEL: 0
L2C AVERAGE MISS LATENCY: 62.1736 cycles
L2C RQ	ACCESS:    7872287	FORWARD:          0	MERGED:          0	TO_CACHE:    7872259
L2C WQ	ACCESS:    1336966	FORWARD:         28	MERGED:          0	TO_CACHE:    1336966
L2C PQ	ACCESS:      45469	FORWARD:          0	MERGED:          0	TO_CACHE:      45469

L2C Instructions Evicting Data 598809
L2C Translations Evicting Data 43991
L2C Data Evicting Data 647683
L2C Instructions Evicting Instructions 947511
L2C Translations Evicting Instructions 33148
L2C Data Evicting Instructions 566182
L2C Instructions Evicting Translations 34079
L2C Translations Evicting Translations 2626
L2C Data Evicting Translations 40820
L2C Dense regions hint from L2: 0
PSCL5 TOTAL     ACCESS:      90168  HIT:      90168  MISS:          0  HIT %:        100  MISS %:          0   MPKI: 0
PSCL5 LOAD TRANSLATION ACCESS:      85921  HIT:      85921  MISS:          0  HIT %:        100  MISS %:          0   MPKI: 0
PSCL5 TRANSLATION FROM L1D PREFETCHER ACCESS:       4247  HIT:       4247  MISS:          0  HIT %:        100  MISS %:          0   MPKI: 0
PSCL5 PREFETCH  REQUESTED:          0  ISSUED:          0  USEFUL:          0  USELESS:          0
PSCL5 USEFUL LOAD PREFETCHES:          0 PREFETCH ISSUED TO LOWER LEVEL:          0  ACCURACY: -nan
PSCL5 TIMELY PREFETCHES:          0 LATE PREFETCHES: 0 DROPPED PREFETCHES: 0
PSCL5 PREFETCHES SAME FILL-ORIGIN LEVEL: 0 DIFFERENT FILL-ORIGIN LEVEL: 0

PSCL4 TOTAL     ACCESS:      88198  HIT:      87457  MISS:        741  HIT %:    99.1598  MISS %:   0.840155   MPKI: 0.003705
PSCL4 LOAD TRANSLATION ACCESS:      84016  HIT:      83275  MISS:        741  HIT %:     99.118  MISS %:   0.881975   MPKI: 0.003705
PSCL4 TRANSLATION FROM L1D PREFETCHER ACCESS:       4182  HIT:       4182  MISS:          0  HIT %:        100  MISS %:          0   MPKI: 0
PSCL4 PREFETCH  REQUESTED:          0  ISSUED:          0  USEFUL:          0  USELESS:          0
PSCL4 USEFUL LOAD PREFETCHES:          0 PREFETCH ISSUED TO LOWER LEVEL:          0  ACCURACY: -nan
PSCL4 TIMELY PREFETCHES:          0 LATE PREFETCHES: 0 DROPPED PREFETCHES: 0
PSCL4 PREFETCHES SAME FILL-ORIGIN LEVEL: 0 DIFFERENT FILL-ORIGIN LEVEL: 0

PSCL3 TOTAL     ACCESS:      82927  HIT:      68760  MISS:      14167  HIT %:    82.9163  MISS %:    17.0837   MPKI: 0.070835
PSCL3 LOAD TRANSLATION ACCESS:      80403  HIT:      66236  MISS:      14167  HIT %:      82.38  MISS %:      17.62   MPKI: 0.070835
PSCL3 TRANSLATION FROM L1D PREFETCHER ACCESS:       2524  HIT:       2524  MISS:          0  HIT %:        100  MISS %:          0   MPKI: 0
PSCL3 PREFETCH  REQUESTED:          0  ISSUED:          0  USEFUL:          0  USELESS:          0
PSCL3 USEFUL LOAD PREFETCHES:          0 PREFETCH ISSUED TO LOWER LEVEL:          0  ACCURACY: -nan
PSCL3 TIMELY PREFETCHES:          0 LATE PREFETCHES: 0 DROPPED PREFETCHES: 0
PSCL3 PREFETCHES SAME FILL-ORIGIN LEVEL: 0 DIFFERENT FILL-ORIGIN LEVEL: 0

PSCL2 TOTAL     ACCESS:      88032  HIT:      50791  MISS:      37241  HIT %:    57.6961  MISS %:    42.3039   MPKI: 0.186205
PSCL2 LOAD TRANSLATION ACCESS:      86208  HIT:      48967  MISS:      37241  HIT %:     56.801  MISS %:     43.199   MPKI: 0.186205
PSCL2 TRANSLATION FROM L1D PREFETCHER ACCESS:       1824  HIT:       1824  MISS:          0  HIT %:        100  MISS %:          0   MPKI: 0
PSCL2 PREFETCH  REQUESTED:          0  ISSUED:          0  USEFUL:          0  USELESS:          0
PSCL2 USEFUL LOAD PREFETCHES:          0 PREFETCH ISSUED TO LOWER LEVEL:          0  ACCURACY: -nan
PSCL2 TIMELY PREFETCHES:          0 LATE PREFETCHES: 0 DROPPED PREFETCHES: 0
PSCL2 PREFETCHES SAME FILL-ORIGIN LEVEL: 0 DIFFERENT FILL-ORIGIN LEVEL: 0

LLC TOTAL     ACCESS:    3571102  HIT:    3102530  MISS:     468572  HIT %:    86.8788  MISS %:    13.1212   MPKI: 2.34286
LLC LOAD      ACCESS:    2361274  HIT:    2126400  MISS:     234874  HIT %:    90.0531  MISS %:    9.94692   MPKI: 1.17437
LLC RFO       ACCESS:     443589  HIT:     246784  MISS:     196805  HIT %:    55.6335  MISS %:    44.3665   MPKI: 0.984025
LLC PREFETCH  ACCESS:      30219  HIT:      10466  MISS:      19753  HIT %:    34.6338  MISS %:    65.3662   MPKI: 0.098765
AGUS PREFETCH L1 MISS: 0
LLC WRITEBACK ACCESS:     656255  HIT:     653280  MISS:       2975  HIT %:    99.5467  MISS %:    0.45333   MPKI: 0.014875
LLC LOAD TRANSLATION ACCESS:      78589  HIT:      64652  MISS:      13937  HIT %:     82.266  MISS %:     17.734   MPKI: 0.069685
LLC TRANSLATION FROM L1D PREFETCHER ACCESS:       1176  HIT:        948  MISS:        228  HIT %:    80.6122  MISS %:    19.3878   MPKI: 0.00114
LLC PREFETCH  REQUESTED:          0  ISSUED:          0  USEFUL:        167  USELESS:      20027
LLC USEFUL LOAD PREFETCHES:        167 PREFETCH ISSUED TO LOWER LEVEL:      19753  ACCURACY: 0.845441
LLC TIMELY PREFETCHES:        167 LATE PREFETCHES: 0 DROPPED PREFETCHES: 0
LLC PREFETCHES SAME FILL-ORIGIN LEVEL: 0 DIFFERENT FILL-ORIGIN LEVEL: 0
LLC AVERAGE MISS LATENCY: 210.203 cycles
LLC RQ	ACCESS:    2884630	FORWARD:          0	MERGED:          0	TO_CACHE:    2884628
LLC WQ	ACCESS:     656256	FORWARD:          2	MERGED:          0	TO_CACHE:     656256
LLC PQ	ACCESS:      30219	FORWARD:          0	MERGED:          0	TO_CACHE:      30219

LLC Dense regions hint to LLC: 0

RAW hits: 2067666
Loads Generated: 48274898
Loads sent to L1D: 46207232
Stores Generated: 20039989
Stores sent to L1D: 20039997
Major fault: 0 Minor fault: 6225
Allocated PAGES: 6225
Completed 

DRAM Statistics
 CHANNEL 0
 RQ ROW_BUFFER_HIT:     127591  ROW_BUFFER_MISS:     338006
 DBUS_CONGESTED:        141
 WQ ROW_BUFFER_HIT:      45945  ROW_BUFFER_MISS:     245678  FULL:          0

 AVG_CONGESTED_CYCLE: 4
 All warmup complete: 2
Channel 0 Bank busy for read cycles: 0
Channel 0 Bank busy for write cycles: 0
Channel 0
Rank 0
0banks busy for read cycles: 435673197
0banks busy for write cycles: 109373
1banks busy for read cycles: 26952952
1banks busy for write cycles: 15977580
2banks busy for read cycles: 4414357
2banks busy for write cycles: 3975556
3banks busy for read cycles: 974013
3banks busy for write cycles: 1428285
4banks busy for read cycles: 308359
4banks busy for write cycles: 565722
5banks busy for read cycles: 175344
5banks busy for write cycles: 269846
6banks busy for read cycles: 233085
6banks busy for write cycles: 187935
7banks busy for read cycles: 419523
7banks busy for write cycles: 296669
8banks busy for read cycles: 1530507
8banks busy for write cycles: 2372420

CPU 0 Branch Prediction Accuracy: 99.6928% MPKI: 0.541945 Average ROB Occupancy at Mispredict: 41.7008
Branch types
NOT_BRANCH: 164715956 82.358%
BRANCH_DIRECT_JUMP: 3828094 1.91405%
BRANCH_INDIRECT: 11538875 5.76944%
BRANCH_CONDITIONAL: 13709397 6.8547%
BRANCH_DIRECT_CALL: 2543553 1.27178%
BRANCH_INDIRECT_CALL: 560087 0.280043%
BRANCH_RETURN: 3103710 1.55185%
BRANCH_OTHER: 0 0%

DRAM PAGES: 1048576
Allocated PAGES: 6225
