
*** ChampSim Multicore Out-of-Order Simulator ***

Warmup Instructions: 50000000
Simulation Instructions: 200000000
Number of CPUs: 1
LLC sets: 2048
LLC ways: 16
Off-chip DRAM Size: 4096 MB Channels: 1 Width: 64-bit Data Rate: 6400 MT/s
CPU 0 runs traces/spec2k17/srv_15.champsimtrace.xz
.xz
BTB has LRU replacement policy
ITLB has LRU replacement policy
DTLB has LRU replacement policy
STLB has LRU replacement policy
L1I has LRU replacement policy
L1D has LRU replacement policy
Initialize SRRIP state for L2C
Initialize DRRIP state for LLC
Heartbeat CPU 0 instructions: 10000002 cycles: 2853234 heartbeat IPC: 3.5048 cumulative IPC: 3.5048 (Simulation time: 0 hr 0 min 38 sec) 
Heartbeat CPU 0 instructions: 20000001 cycles: 5695683 heartbeat IPC: 3.51809 cumulative IPC: 3.51143 (Simulation time: 0 hr 1 min 14 sec) 
Heartbeat CPU 0 instructions: 30000000 cycles: 8538471 heartbeat IPC: 3.51767 cumulative IPC: 3.51351 (Simulation time: 0 hr 1 min 55 sec) 
*** Reached end of trace for Core: 0 Repeating trace: traces/spec2k17/srv_15.champsimtrace.xz
Heartbeat CPU 0 instructions: 40000003 cycles: 11385065 heartbeat IPC: 3.51297 cumulative IPC: 3.51338 (Simulation time: 0 hr 2 min 36 sec) 
Heartbeat CPU 0 instructions: 50000001 cycles: 14228774 heartbeat IPC: 3.51653 cumulative IPC: 3.51401 (Simulation time: 0 hr 3 min 16 sec) 

Warmup complete CPU 0 instructions: 50000001 cycles: 14228774 (Simulation time: 0 hr 3 min 16 sec) 

Heartbeat CPU 0 instructions: 60000000 cycles: 46132837 heartbeat IPC: 0.31344 cumulative IPC: 0.31344 (Simulation time: 0 hr 4 min 24 sec) 
*** Reached end of trace for Core: 0 Repeating trace: traces/spec2k17/srv_15.champsimtrace.xz
Heartbeat CPU 0 instructions: 70000000 cycles: 78003632 heartbeat IPC: 0.313767 cumulative IPC: 0.313603 (Simulation time: 0 hr 5 min 31 sec) 
Heartbeat CPU 0 instructions: 80000001 cycles: 110014817 heartbeat IPC: 0.312391 cumulative IPC: 0.313198 (Simulation time: 0 hr 6 min 37 sec) 
Heartbeat CPU 0 instructions: 90000001 cycles: 141677516 heartbeat IPC: 0.315829 cumulative IPC: 0.313852 (Simulation time: 0 hr 7 min 44 sec) 
*** Reached end of trace for Core: 0 Repeating trace: traces/spec2k17/srv_15.champsimtrace.xz
Heartbeat CPU 0 instructions: 100000002 cycles: 173730917 heartbeat IPC: 0.311979 cumulative IPC: 0.313475 (Simulation time: 0 hr 8 min 51 sec) 
Heartbeat CPU 0 instructions: 110000000 cycles: 205540684 heartbeat IPC: 0.314369 cumulative IPC: 0.313624 (Simulation time: 0 hr 9 min 57 sec) 
Heartbeat CPU 0 instructions: 120000001 cycles: 237111005 heartbeat IPC: 0.316753 cumulative IPC: 0.314067 (Simulation time: 0 hr 11 min 3 sec) 
*** Reached end of trace for Core: 0 Repeating trace: traces/spec2k17/srv_15.champsimtrace.xz
Heartbeat CPU 0 instructions: 130000001 cycles: 268910771 heartbeat IPC: 0.314468 cumulative IPC: 0.314117 (Simulation time: 0 hr 12 min 10 sec) 
Heartbeat CPU 0 instructions: 140000000 cycles: 300223403 heartbeat IPC: 0.31936 cumulative IPC: 0.314691 (Simulation time: 0 hr 13 min 16 sec) 
Heartbeat CPU 0 instructions: 150000003 cycles: 331580091 heartbeat IPC: 0.318911 cumulative IPC: 0.315108 (Simulation time: 0 hr 14 min 23 sec) 
*** Reached end of trace for Core: 0 Repeating trace: traces/spec2k17/srv_15.champsimtrace.xz
Heartbeat CPU 0 instructions: 160000000 cycles: 363233439 heartbeat IPC: 0.315922 cumulative IPC: 0.315182 (Simulation time: 0 hr 15 min 32 sec) 
Heartbeat CPU 0 instructions: 170000002 cycles: 394546586 heartbeat IPC: 0.319355 cumulative IPC: 0.315526 (Simulation time: 0 hr 16 min 39 sec) 
Heartbeat CPU 0 instructions: 180000000 cycles: 426002622 heartbeat IPC: 0.317904 cumulative IPC: 0.315707 (Simulation time: 0 hr 17 min 48 sec) 
*** Reached end of trace for Core: 0 Repeating trace: traces/spec2k17/srv_15.champsimtrace.xz
Heartbeat CPU 0 instructions: 190000003 cycles: 457426252 heartbeat IPC: 0.318232 cumulative IPC: 0.315886 (Simulation time: 0 hr 18 min 56 sec) 
Heartbeat CPU 0 instructions: 200000001 cycles: 488834309 heartbeat IPC: 0.31839 cumulative IPC: 0.316052 (Simulation time: 0 hr 20 min 3 sec) 
Heartbeat CPU 0 instructions: 210000001 cycles: 520140900 heartbeat IPC: 0.319422 cumulative IPC: 0.31626 (Simulation time: 0 hr 21 min 14 sec) 
*** Reached end of trace for Core: 0 Repeating trace: traces/spec2k17/srv_15.champsimtrace.xz
Heartbeat CPU 0 instructions: 220000000 cycles: 551450504 heartbeat IPC: 0.319391 cumulative IPC: 0.316443 (Simulation time: 0 hr 22 min 28 sec) 
Heartbeat CPU 0 instructions: 230000001 cycles: 582906383 heartbeat IPC: 0.317906 cumulative IPC: 0.316524 (Simulation time: 0 hr 23 min 36 sec) 
Heartbeat CPU 0 instructions: 240000001 cycles: 614196925 heartbeat IPC: 0.319585 cumulative IPC: 0.316683 (Simulation time: 0 hr 24 min 45 sec) 
Heartbeat CPU 0 instructions: 250000000 cycles: 645545558 heartbeat IPC: 0.318993 cumulative IPC: 0.316798 (Simulation time: 0 hr 26 min 8 sec) 
Finished CPU 0 instructions: 200000000 cycles: 631316785 cumulative IPC: 0.316798 (Simulation time: 0 hr 26 min 8 sec) 

ChampSim completed all CPUs

Region of Interest Statistics

CPU 0 cumulative IPC: 0.316798 instructions: 200000000 cycles: 631316785
ITLB TOTAL     ACCESS:   35712541  HIT:   33458158  MISS:    2254383  HIT %:    93.6874  MISS %:    6.31258   MPKI: 11.2719
ITLB LOAD TRANSLATION ACCESS:   35712541  HIT:   33458158  MISS:    2254383  HIT %:    93.6874  MISS %:    6.31258   MPKI: 11.2719
ITLB PREFETCH  REQUESTED:          0  ISSUED:          0  USEFUL:          0  USELESS:          0
ITLB USEFUL LOAD PREFETCHES:          0 PREFETCH ISSUED TO LOWER LEVEL:          0  ACCURACY: -nan
ITLB TIMELY PREFETCHES:          0 LATE PREFETCHES: 0 DROPPED PREFETCHES: 0
ITLB PREFETCHES SAME FILL-ORIGIN LEVEL: 0 DIFFERENT FILL-ORIGIN LEVEL: 0
ITLB AVERAGE MISS LATENCY: 9.21426 cycles
ITLB RQ	ACCESS:   41950954	FORWARD:          0	MERGED:    5691402	TO_CACHE:   36259552

DTLB TOTAL     ACCESS:   45764824  HIT:   43725989  MISS:    2038835  HIT %:     95.545  MISS %:    4.45503   MPKI: 10.1942
DTLB LOAD TRANSLATION ACCESS:   45764824  HIT:   43725989  MISS:    2038835  HIT %:     95.545  MISS %:    4.45503   MPKI: 10.1942
DTLB PREFETCH  REQUESTED:          0  ISSUED:          0  USEFUL:          0  USELESS:          0
DTLB USEFUL LOAD PREFETCHES:          0 PREFETCH ISSUED TO LOWER LEVEL:          0  ACCURACY: -nan
DTLB TIMELY PREFETCHES:          0 LATE PREFETCHES: 0 DROPPED PREFETCHES: 0
DTLB PREFETCHES SAME FILL-ORIGIN LEVEL: 0 DIFFERENT FILL-ORIGIN LEVEL: 0
DTLB AVERAGE MISS LATENCY: 8.75923 cycles
DTLB RQ	ACCESS:   60523547	FORWARD:          0	MERGED:   14699592	TO_CACHE:   45823955

STLB TOTAL     ACCESS:   14494167  HIT:   14466037  MISS:      28130  HIT %:    99.8059  MISS %:   0.194078   MPKI: 0.14065
STLB LOAD TRANSLATION ACCESS:    4293218  HIT:    4266951  MISS:      26267  HIT %:    99.3882  MISS %:   0.611825   MPKI: 0.131335
STLB TRANSLATION FROM L1D PREFETCHER ACCESS:   10200949  HIT:   10199086  MISS:       1863  HIT %:    99.9817  MISS %:   0.018263   MPKI: 0.009315
STLB PREFETCH  REQUESTED:          0  ISSUED:          0  USEFUL:       1782  USELESS:         79
STLB USEFUL LOAD PREFETCHES:       1782 PREFETCH ISSUED TO LOWER LEVEL:          0  ACCURACY: inf
STLB TIMELY PREFETCHES:       1782 LATE PREFETCHES: 349 DROPPED PREFETCHES: 98148
STLB PREFETCHES SAME FILL-ORIGIN LEVEL: 0 DIFFERENT FILL-ORIGIN LEVEL: 0
STLB AVERAGE MISS LATENCY: 30.5845 cycles
STLB RQ	ACCESS:   18475154	FORWARD:          0	MERGED:    3881827	TO_CACHE:   14593327

STLB Hit, L1D data hit: 0
STLB Hit, L2C data hit: 0
STLB Hit, LLC data hit: 0
STLB Hit, LLC data miss: 0
STLB STLB hints to L2: 0
L1D TOTAL     ACCESS:   71820122  HIT:   66166798  MISS:    5653324  HIT %:    92.1285  MISS %:     7.8715   MPKI: 28.2666
L1D LOAD      ACCESS:   33970412  HIT:   31051159  MISS:    2919253  HIT %:    91.4065  MISS %:    8.59352   MPKI: 14.5963
L1D RFO       ACCESS:   24776853  HIT:   23635747  MISS:    1141106  HIT %:    95.3945  MISS %:    4.60553   MPKI: 5.70553
L1D PREFETCH  ACCESS:   13072857  HIT:   11479892  MISS:    1592965  HIT %:    87.8147  MISS %:    12.1853   MPKI: 7.96483
AGUS PREFETCH L1 MISS: 0
L1D PREFETCH  REQUESTED:   29838268  ISSUED:   29838183  USEFUL:    1445492  USELESS:     147427
L1D USEFUL LOAD PREFETCHES:    1445492 PREFETCH ISSUED TO LOWER LEVEL:    2230499  ACCURACY: 64.8058
L1D TIMELY PREFETCHES:    1445492 LATE PREFETCHES: 632955 DROPPED PREFETCHES: 113033
L1D PREFETCHES SAME FILL-ORIGIN LEVEL: 2230499 DIFFERENT FILL-ORIGIN LEVEL: 0
L1D AVERAGE MISS LATENCY: 4.24804e+07 cycles
L1D RQ	ACCESS:   46506332	FORWARD:          0	MERGED:   12095130	TO_CACHE:   34084594
L1D WQ	ACCESS:   26586297	FORWARD:     354796	MERGED:     147344	TO_CACHE:   26438953
L1D PQ	ACCESS:   15656247	FORWARD:          0	MERGED:    1446123	TO_CACHE:   14181936

L1D UNIQUE REGIONS ACCESSED: 0
L1D REGIONS CONFLICTS: 0
L1D Cross Page Prefetch Requests: 10858211
L1D Same Page Prefetch Requests: 5317938
L1D ROI Sum of L1D PQ occupancy: 208004226
L1D PREFETCHES PUSHED FROM L2C: 0
L1I TOTAL     ACCESS:   40223835  HIT:   28779957  MISS:   11443878  HIT %:    71.5495  MISS %:    28.4505   MPKI: 57.2194
L1I LOAD      ACCESS:   40223835  HIT:   28779957  MISS:   11443878  HIT %:    71.5495  MISS %:    28.4505   MPKI: 57.2194
L1I PREFETCH  REQUESTED:          0  ISSUED:          0  USEFUL:          0  USELESS:          0
L1I USEFUL LOAD PREFETCHES:          0 PREFETCH ISSUED TO LOWER LEVEL:          0  ACCURACY: -nan
L1I TIMELY PREFETCHES:          0 LATE PREFETCHES: 0 DROPPED PREFETCHES: 0
L1I PREFETCHES SAME FILL-ORIGIN LEVEL: 0 DIFFERENT FILL-ORIGIN LEVEL: 0
L1I AVERAGE MISS LATENCY: 15.6786 cycles
L1I RQ	ACCESS:   58614661	FORWARD:          0	MERGED:   16663707	TO_CACHE:   41950954

BTB TOTAL     ACCESS:   30711826  HIT:   18461261  MISS:   12250565  HIT %:    60.1112  MISS %:    39.8888   MPKI: 61.2528
BTB BRANCH_DIRECT_JUMP	ACCESS:    1879118  HIT:    1082631  MISS:     796487
BTB BRANCH_INDIRECT	ACCESS:   12151415  HIT:    7482075  MISS:    4669340
BTB BRANCH_CONDITIONAL	ACCESS:    7502013  HIT:    6260754  MISS:    1241259
BTB BRANCH_DIRECT_CALL	ACCESS:    3871933  HIT:    1894091  MISS:    1977842
BTB BRANCH_INDIRECT_CALL	ACCESS:     717697  HIT:     351527  MISS:     366170
BTB BRANCH_RETURN	ACCESS:    4589650  HIT:    1390183  MISS:    3199467
BTB BRANCH_OTHER ACCESS:          0  HIT:          0  MISS:          0

L2C TOTAL     ACCESS:   19592887  HIT:   18515325  MISS:    1077562  HIT %:    94.5002  MISS %:    5.49976   MPKI: 5.38781
L2C LOAD      ACCESS:   13730151  HIT:   12916069  MISS:     814082  HIT %:    94.0708  MISS %:    5.92916   MPKI: 4.07041
L2C DATA LOAD MPKI: 1.013
L2C INSTRUCTION LOAD MPKI: 3.05742
L2C RFO       ACCESS:    1136524  HIT:    1076419  MISS:      60105  HIT %:    94.7115  MISS %:    5.28849   MPKI: 0.300525
L2C PREFETCH  ACCESS:    2230460  HIT:    2076578  MISS:     153882  HIT %:    93.1009  MISS %:    6.89911   MPKI: 0.76941
AGUS PREFETCH L1 MISS: 0
L2C DATA PREFETCH MPKI: 0.76941
L2C INSTRUCTION PREFETCH MPKI: 0
L2C WRITEBACK ACCESS:    2313749  HIT:    2288627  MISS:      25122  HIT %:    98.9142  MISS %:    1.08577   MPKI: 0.12561
L2C LOAD TRANSLATION ACCESS:      26955  HIT:      16926  MISS:      10029  HIT %:    62.7935  MISS %:    37.2065   MPKI: 0.050145
L2C TRANSLATION FROM L1D PREFETCHER ACCESS:     155048  HIT:     140706  MISS:      14342  HIT %:      90.75  MISS %:    9.25004   MPKI: 0.07171
L2C PREFETCH  REQUESTED:          0  ISSUED:          0  USEFUL:      18265  USELESS:     149873
L2C USEFUL LOAD PREFETCHES:      18265 PREFETCH ISSUED TO LOWER LEVEL:     153882  ACCURACY: 11.8695
L2C TIMELY PREFETCHES:      18265 LATE PREFETCHES: 0 DROPPED PREFETCHES: 0
L2C PREFETCHES SAME FILL-ORIGIN LEVEL: 0 DIFFERENT FILL-ORIGIN LEVEL: 0
L2C AVERAGE MISS LATENCY: 29.7929 cycles
L2C RQ	ACCESS:   15048706	FORWARD:          0	MERGED:          0	TO_CACHE:   15048678
L2C WQ	ACCESS:    2313749	FORWARD:         67	MERGED:          0	TO_CACHE:    2313749
L2C PQ	ACCESS:    2230499	FORWARD:          0	MERGED:          0	TO_CACHE:    2230460

L2C Instructions Evicting Data 240803
L2C Translations Evicting Data 11329
L2C Data Evicting Data 182055
L2C Instructions Evicting Instructions 358411
L2C Translations Evicting Instructions 12324
L2C Data Evicting Instructions 223803
L2C Instructions Evicting Translations 12269
L2C Translations Evicting Translations 717
L2C Data Evicting Translations 10728
L2C Dense regions hint from L2: 0
PSCL5 TOTAL     ACCESS:     126014  HIT:     126014  MISS:          0  HIT %:        100  MISS %:          0   MPKI: 0
PSCL5 LOAD TRANSLATION ACCESS:      25918  HIT:      25918  MISS:          0  HIT %:        100  MISS %:          0   MPKI: 0
PSCL5 TRANSLATION FROM L1D PREFETCHER ACCESS:     100096  HIT:     100096  MISS:          0  HIT %:        100  MISS %:          0   MPKI: 0
PSCL5 PREFETCH  REQUESTED:          0  ISSUED:          0  USEFUL:          0  USELESS:          0
PSCL5 USEFUL LOAD PREFETCHES:          0 PREFETCH ISSUED TO LOWER LEVEL:          0  ACCURACY: -nan
PSCL5 TIMELY PREFETCHES:          0 LATE PREFETCHES: 0 DROPPED PREFETCHES: 0
PSCL5 PREFETCHES SAME FILL-ORIGIN LEVEL: 0 DIFFERENT FILL-ORIGIN LEVEL: 0

PSCL4 TOTAL     ACCESS:      84793  HIT:      84691  MISS:        102  HIT %:    99.8797  MISS %:   0.120293   MPKI: 0.00051
PSCL4 LOAD TRANSLATION ACCESS:      22573  HIT:      22471  MISS:        102  HIT %:    99.5481  MISS %:   0.451867   MPKI: 0.00051
PSCL4 TRANSLATION FROM L1D PREFETCHER ACCESS:      62220  HIT:      62220  MISS:          0  HIT %:        100  MISS %:          0   MPKI: 0
PSCL4 PREFETCH  REQUESTED:          0  ISSUED:          0  USEFUL:          0  USELESS:          0
PSCL4 USEFUL LOAD PREFETCHES:          0 PREFETCH ISSUED TO LOWER LEVEL:          0  ACCURACY: -nan
PSCL4 TIMELY PREFETCHES:          0 LATE PREFETCHES: 0 DROPPED PREFETCHES: 0
PSCL4 PREFETCHES SAME FILL-ORIGIN LEVEL: 0 DIFFERENT FILL-ORIGIN LEVEL: 0

PSCL3 TOTAL     ACCESS:     100827  HIT:     100725  MISS:        102  HIT %:    99.8988  MISS %:   0.101163   MPKI: 0.00051
PSCL3 LOAD TRANSLATION ACCESS:      23545  HIT:      23443  MISS:        102  HIT %:    99.5668  MISS %:   0.433213   MPKI: 0.00051
PSCL3 TRANSLATION FROM L1D PREFETCHER ACCESS:      77282  HIT:      77282  MISS:          0  HIT %:        100  MISS %:          0   MPKI: 0
PSCL3 PREFETCH  REQUESTED:          0  ISSUED:          0  USEFUL:          0  USELESS:          0
PSCL3 USEFUL LOAD PREFETCHES:          0 PREFETCH ISSUED TO LOWER LEVEL:          0  ACCURACY: -nan
PSCL3 TIMELY PREFETCHES:          0 LATE PREFETCHES: 0 DROPPED PREFETCHES: 0
PSCL3 PREFETCHES SAME FILL-ORIGIN LEVEL: 0 DIFFERENT FILL-ORIGIN LEVEL: 0

PSCL2 TOTAL     ACCESS:      73429  HIT:      72496  MISS:        933  HIT %:    98.7294  MISS %:    1.27062   MPKI: 0.004665
PSCL2 LOAD TRANSLATION ACCESS:      26012  HIT:      25079  MISS:        933  HIT %:    96.4132  MISS %:    3.58681   MPKI: 0.004665
PSCL2 TRANSLATION FROM L1D PREFETCHER ACCESS:      47417  HIT:      47417  MISS:          0  HIT %:        100  MISS %:          0   MPKI: 0
PSCL2 PREFETCH  REQUESTED:          0  ISSUED:          0  USEFUL:          0  USELESS:          0
PSCL2 USEFUL LOAD PREFETCHES:          0 PREFETCH ISSUED TO LOWER LEVEL:          0  ACCURACY: -nan
PSCL2 TIMELY PREFETCHES:          0 LATE PREFETCHES: 0 DROPPED PREFETCHES: 0
PSCL2 PREFETCHES SAME FILL-ORIGIN LEVEL: 0 DIFFERENT FILL-ORIGIN LEVEL: 0

LLC TOTAL     ACCESS:    1147632  HIT:    1144328  MISS:       3304  HIT %:    99.7121  MISS %:   0.287897   MPKI: 0.01652
LLC LOAD      ACCESS:     814082  HIT:     812950  MISS:       1132  HIT %:    99.8609  MISS %:   0.139052   MPKI: 0.00566
LLC RFO       ACCESS:      60102  HIT:      59946  MISS:        156  HIT %:    99.7404  MISS %:   0.259559   MPKI: 0.00078
LLC PREFETCH  ACCESS:     153882  HIT:     152178  MISS:       1704  HIT %:    98.8927  MISS %:    1.10734   MPKI: 0.00852
AGUS PREFETCH L1 MISS: 0
LLC WRITEBACK ACCESS:      95195  HIT:      95180  MISS:         15  HIT %:    99.9842  MISS %:  0.0157571   MPKI: 7.5e-05
LLC LOAD TRANSLATION ACCESS:      10029  HIT:      10011  MISS:         18  HIT %:    99.8205  MISS %:    0.17948   MPKI: 9e-05
LLC TRANSLATION FROM L1D PREFETCHER ACCESS:      14342  HIT:      14063  MISS:        279  HIT %:    98.0547  MISS %:    1.94534   MPKI: 0.001395
LLC PREFETCH  REQUESTED:          0  ISSUED:          0  USEFUL:       1994  USELESS:        692
LLC USEFUL LOAD PREFETCHES:       1994 PREFETCH ISSUED TO LOWER LEVEL:       1704  ACCURACY: 117.019
LLC TIMELY PREFETCHES:       1994 LATE PREFETCHES: 0 DROPPED PREFETCHES: 0
LLC PREFETCHES SAME FILL-ORIGIN LEVEL: 0 DIFFERENT FILL-ORIGIN LEVEL: 0
LLC AVERAGE MISS LATENCY: 160.551 cycles
LLC RQ	ACCESS:     898558	FORWARD:          0	MERGED:          0	TO_CACHE:     898555
LLC WQ	ACCESS:      95195	FORWARD:          3	MERGED:          0	TO_CACHE:      95195
LLC PQ	ACCESS:     153882	FORWARD:          0	MERGED:          0	TO_CACHE:     153882

LLC Dense regions hint to LLC: 0

RAW hits: 1462577
Loads Generated: 47968909
Loads sent to L1D: 46506332
Stores Generated: 26586297
Stores sent to L1D: 26586297
Major fault: 0 Minor fault: 1825
Allocated PAGES: 1825
Completed 

DRAM Statistics
 CHANNEL 0
 RQ ROW_BUFFER_HIT:        338  ROW_BUFFER_MISS:       2951
 DBUS_CONGESTED:          0
 WQ ROW_BUFFER_HIT:         12  ROW_BUFFER_MISS:        199  FULL:          0

 AVG_CONGESTED_CYCLE: -
 All warmup complete: 2
Channel 0 Bank busy for read cycles: 0
Channel 0 Bank busy for write cycles: 0
Channel 0
Rank 0
0banks busy for read cycles: 630923018
0banks busy for write cycles: 181
1banks busy for read cycles: 299717
1banks busy for write cycles: 25042
2banks busy for read cycles: 47487
2banks busy for write cycles: 2377
3banks busy for read cycles: 11882
3banks busy for write cycles: 708
4banks busy for read cycles: 4084
4banks busy for write cycles: 147
5banks busy for read cycles: 855
5banks busy for write cycles: 0
6banks busy for read cycles: 670
6banks busy for write cycles: 0
7banks busy for read cycles: 362
7banks busy for write cycles: 0
8banks busy for read cycles: 256
8banks busy for write cycles: 0

CPU 0 Branch Prediction Accuracy: 99.883% MPKI: 0.21111 Average ROB Occupancy at Mispredict: 28.5575
Branch types
NOT_BRANCH: 163917793 81.9589%
BRANCH_DIRECT_JUMP: 1879118 0.939559%
BRANCH_INDIRECT: 12151415 6.07571%
BRANCH_CONDITIONAL: 12872313 6.43616%
BRANCH_DIRECT_CALL: 3871933 1.93597%
BRANCH_INDIRECT_CALL: 717697 0.358849%
BRANCH_RETURN: 4589650 2.29482%
BRANCH_OTHER: 0 0%

DRAM PAGES: 1048576
Allocated PAGES: 1825
