
*** ChampSim Multicore Out-of-Order Simulator ***

Warmup Instructions: 50000000
Simulation Instructions: 200000000
Number of CPUs: 1
LLC sets: 2048
LLC ways: 16
Off-chip DRAM Size: 4096 MB Channels: 1 Width: 64-bit Data Rate: 6400 MT/s
CPU 0 runs traces/spec2k17/srv_37.champsimtrace.xz
.xz
BTB has LRU replacement policy
ITLB has LRU replacement policy
DTLB has LRU replacement policy
STLB has LRU replacement policy
L1I has LRU replacement policy
L1D has LRU replacement policy
Initialize SRRIP state for L2C
Initialize DRRIP state for LLC
Heartbeat CPU 0 instructions: 10000003 cycles: 2944976 heartbeat IPC: 3.39561 cumulative IPC: 3.39561 (Simulation time: 0 hr 0 min 49 sec) 
Heartbeat CPU 0 instructions: 20000003 cycles: 5880141 heartbeat IPC: 3.40696 cumulative IPC: 3.40128 (Simulation time: 0 hr 1 min 36 sec) 
Heartbeat CPU 0 instructions: 30000000 cycles: 8821563 heartbeat IPC: 3.39972 cumulative IPC: 3.40076 (Simulation time: 0 hr 2 min 17 sec) 
*** Reached end of trace for Core: 0 Repeating trace: traces/spec2k17/srv_37.champsimtrace.xz
Heartbeat CPU 0 instructions: 40000001 cycles: 11765944 heartbeat IPC: 3.3963 cumulative IPC: 3.39964 (Simulation time: 0 hr 3 min 4 sec) 
Heartbeat CPU 0 instructions: 50000000 cycles: 14702474 heartbeat IPC: 3.40538 cumulative IPC: 3.40079 (Simulation time: 0 hr 3 min 44 sec) 

Warmup complete CPU 0 instructions: 50000004 cycles: 14702475 (Simulation time: 0 hr 3 min 44 sec) 

Heartbeat CPU 0 instructions: 60000002 cycles: 34590994 heartbeat IPC: 0.502803 cumulative IPC: 0.502803 (Simulation time: 0 hr 4 min 51 sec) 
*** Reached end of trace for Core: 0 Repeating trace: traces/spec2k17/srv_37.champsimtrace.xz
Heartbeat CPU 0 instructions: 70000003 cycles: 53957795 heartbeat IPC: 0.516348 cumulative IPC: 0.509485 (Simulation time: 0 hr 6 min 5 sec) 
Heartbeat CPU 0 instructions: 80000000 cycles: 73420681 heartbeat IPC: 0.513798 cumulative IPC: 0.510915 (Simulation time: 0 hr 7 min 23 sec) 
Heartbeat CPU 0 instructions: 90000000 cycles: 93205788 heartbeat IPC: 0.505431 cumulative IPC: 0.509533 (Simulation time: 0 hr 8 min 39 sec) 
*** Reached end of trace for Core: 0 Repeating trace: traces/spec2k17/srv_37.champsimtrace.xz
Heartbeat CPU 0 instructions: 100000001 cycles: 112594078 heartbeat IPC: 0.515775 cumulative IPC: 0.510769 (Simulation time: 0 hr 9 min 52 sec) 
Heartbeat CPU 0 instructions: 110000000 cycles: 132013203 heartbeat IPC: 0.514956 cumulative IPC: 0.511462 (Simulation time: 0 hr 11 min 8 sec) 
Heartbeat CPU 0 instructions: 120000001 cycles: 151588160 heartbeat IPC: 0.510857 cumulative IPC: 0.511376 (Simulation time: 0 hr 12 min 24 sec) 
*** Reached end of trace for Core: 0 Repeating trace: traces/spec2k17/srv_37.champsimtrace.xz
Heartbeat CPU 0 instructions: 130000001 cycles: 171172776 heartbeat IPC: 0.510605 cumulative IPC: 0.511279 (Simulation time: 0 hr 13 min 49 sec) 
Heartbeat CPU 0 instructions: 140000003 cycles: 190437272 heartbeat IPC: 0.51909 cumulative IPC: 0.512135 (Simulation time: 0 hr 15 min 17 sec) 
Heartbeat CPU 0 instructions: 150000001 cycles: 209845667 heartbeat IPC: 0.515241 cumulative IPC: 0.512444 (Simulation time: 0 hr 16 min 49 sec) 
Heartbeat CPU 0 instructions: 160000000 cycles: 229589625 heartbeat IPC: 0.506484 cumulative IPC: 0.511897 (Simulation time: 0 hr 18 min 25 sec) 
*** Reached end of trace for Core: 0 Repeating trace: traces/spec2k17/srv_37.champsimtrace.xz
Heartbeat CPU 0 instructions: 170000003 cycles: 248935447 heartbeat IPC: 0.516908 cumulative IPC: 0.51231 (Simulation time: 0 hr 20 min 9 sec) 
Heartbeat CPU 0 instructions: 180000000 cycles: 268363101 heartbeat IPC: 0.51473 cumulative IPC: 0.512496 (Simulation time: 0 hr 22 min 7 sec) 
Heartbeat CPU 0 instructions: 190000002 cycles: 288052549 heartbeat IPC: 0.507886 cumulative IPC: 0.512164 (Simulation time: 0 hr 24 min 1 sec) 
*** Reached end of trace for Core: 0 Repeating trace: traces/spec2k17/srv_37.champsimtrace.xz
Heartbeat CPU 0 instructions: 200000001 cycles: 307382418 heartbeat IPC: 0.517334 cumulative IPC: 0.512505 (Simulation time: 0 hr 26 min 13 sec) 
Heartbeat CPU 0 instructions: 210000002 cycles: 326690442 heartbeat IPC: 0.517919 cumulative IPC: 0.51284 (Simulation time: 0 hr 28 min 15 sec) 
Heartbeat CPU 0 instructions: 220000000 cycles: 346428570 heartbeat IPC: 0.506634 cumulative IPC: 0.512471 (Simulation time: 0 hr 30 min 37 sec) 
*** Reached end of trace for Core: 0 Repeating trace: traces/spec2k17/srv_37.champsimtrace.xz
Heartbeat CPU 0 instructions: 230000000 cycles: 365771027 heartbeat IPC: 0.516997 cumulative IPC: 0.51272 (Simulation time: 0 hr 33 min 18 sec) 
Heartbeat CPU 0 instructions: 240000001 cycles: 385126924 heartbeat IPC: 0.516638 cumulative IPC: 0.512925 (Simulation time: 0 hr 36 min 24 sec) 
Heartbeat CPU 0 instructions: 250000001 cycles: 404783827 heartbeat IPC: 0.508727 cumulative IPC: 0.512714 (Simulation time: 0 hr 38 min 19 sec) 
Finished CPU 0 instructions: 200000002 cycles: 390081357 cumulative IPC: 0.512714 (Simulation time: 0 hr 38 min 19 sec) 

ChampSim completed all CPUs

Region of Interest Statistics

CPU 0 cumulative IPC: 0.512714 instructions: 200000002 cycles: 390081357
ITLB TOTAL     ACCESS:   33764087  HIT:   32231526  MISS:    1532561  HIT %:     95.461  MISS %:    4.53903   MPKI: 7.6628
ITLB LOAD TRANSLATION ACCESS:   33764087  HIT:   32231526  MISS:    1532561  HIT %:     95.461  MISS %:    4.53903   MPKI: 7.6628
ITLB PREFETCH  REQUESTED:          0  ISSUED:          0  USEFUL:          0  USELESS:          0
ITLB USEFUL LOAD PREFETCHES:          0 PREFETCH ISSUED TO LOWER LEVEL:          0  ACCURACY: -nan
ITLB TIMELY PREFETCHES:          0 LATE PREFETCHES: 0 DROPPED PREFETCHES: 0
ITLB PREFETCHES SAME FILL-ORIGIN LEVEL: 0 DIFFERENT FILL-ORIGIN LEVEL: 0
ITLB AVERAGE MISS LATENCY: 9.29339 cycles
ITLB RQ	ACCESS:   40650432	FORWARD:          0	MERGED:    6391528	TO_CACHE:   34258904

DTLB TOTAL     ACCESS:   39838408  HIT:   38304766  MISS:    1533642  HIT %:    96.1503  MISS %:    3.84966   MPKI: 7.66821
DTLB LOAD TRANSLATION ACCESS:   39838408  HIT:   38304766  MISS:    1533642  HIT %:    96.1503  MISS %:    3.84966   MPKI: 7.66821
DTLB PREFETCH  REQUESTED:          0  ISSUED:          0  USEFUL:          0  USELESS:          0
DTLB USEFUL LOAD PREFETCHES:          0 PREFETCH ISSUED TO LOWER LEVEL:          0  ACCURACY: -nan
DTLB TIMELY PREFETCHES:          0 LATE PREFETCHES: 0 DROPPED PREFETCHES: 0
DTLB PREFETCHES SAME FILL-ORIGIN LEVEL: 0 DIFFERENT FILL-ORIGIN LEVEL: 0
DTLB AVERAGE MISS LATENCY: 15.3008 cycles
DTLB RQ	ACCESS:   60972785	FORWARD:          0	MERGED:   20746973	TO_CACHE:   40225812

STLB TOTAL     ACCESS:    5875260  HIT:    5793579  MISS:      81681  HIT %:    98.6097  MISS %:    1.39025   MPKI: 0.408405
STLB LOAD TRANSLATION ACCESS:    3066203  HIT:    2987846  MISS:      78357  HIT %:    97.4445  MISS %:    2.55551   MPKI: 0.391785
STLB TRANSLATION FROM L1D PREFETCHER ACCESS:    2809057  HIT:    2805733  MISS:       3324  HIT %:    99.8817  MISS %:   0.118332   MPKI: 0.01662
STLB PREFETCH  REQUESTED:          0  ISSUED:          0  USEFUL:       3251  USELESS:         74
STLB USEFUL LOAD PREFETCHES:       3251 PREFETCH ISSUED TO LOWER LEVEL:          0  ACCURACY: inf
STLB TIMELY PREFETCHES:       3251 LATE PREFETCHES: 1097 DROPPED PREFETCHES: 4470
STLB PREFETCHES SAME FILL-ORIGIN LEVEL: 0 DIFFERENT FILL-ORIGIN LEVEL: 0
STLB AVERAGE MISS LATENCY: 54353.1 cycles
STLB RQ	ACCESS:    8419022	FORWARD:          0	MERGED:    2537999	TO_CACHE:    5881023

STLB Hit, L1D data hit: 0
STLB Hit, L2C data hit: 0
STLB Hit, LLC data hit: 0
STLB Hit, LLC data miss: 0
STLB STLB hints to L2: 0
L1D TOTAL     ACCESS:   53126746  HIT:   46316130  MISS:    6810616  HIT %:    87.1804  MISS %:    12.8196   MPKI: 34.0531
L1D LOAD      ACCESS:   26661882  HIT:   23866386  MISS:    2795496  HIT %:     89.515  MISS %:     10.485   MPKI: 13.9775
L1D RFO       ACCESS:   22206438  HIT:   18510003  MISS:    3696435  HIT %:    83.3542  MISS %:    16.6458   MPKI: 18.4822
L1D PREFETCH  ACCESS:    4258426  HIT:    3939741  MISS:     318685  HIT %:    92.5164  MISS %:    7.48363   MPKI: 1.59342
AGUS PREFETCH L1 MISS: 0
L1D PREFETCH  REQUESTED:   11866683  ISSUED:   11866138  USEFUL:     278710  USELESS:      39977
L1D USEFUL LOAD PREFETCHES:     278710 PREFETCH ISSUED TO LOWER LEVEL:     837746  ACCURACY: 33.269
L1D TIMELY PREFETCHES:     278710 LATE PREFETCHES: 519058 DROPPED PREFETCHES: 9747
L1D PREFETCHES SAME FILL-ORIGIN LEVEL: 837746 DIFFERENT FILL-ORIGIN LEVEL: 0
L1D AVERAGE MISS LATENCY: 1.61561e+07 cycles
L1D RQ	ACCESS:   45112415	FORWARD:          0	MERGED:   17791227	TO_CACHE:   27039492
L1D WQ	ACCESS:   34134601	FORWARD:     295769	MERGED:     201308	TO_CACHE:   33933293
L1D PQ	ACCESS:    6513319	FORWARD:          0	MERGED:    1146427	TO_CACHE:    5352819

L1D UNIQUE REGIONS ACCESSED: 0
L1D REGIONS CONFLICTS: 0
L1D Cross Page Prefetch Requests: 2197793
L1D Same Page Prefetch Requests: 5055698
L1D ROI Sum of L1D PQ occupancy: 83981325
L1D PREFETCHES PUSHED FROM L2C: 0
L1I TOTAL     ACCESS:   38005972  HIT:   28929755  MISS:    9076217  HIT %:     76.119  MISS %:     23.881   MPKI: 45.3811
L1I LOAD      ACCESS:   38005972  HIT:   28929755  MISS:    9076217  HIT %:     76.119  MISS %:     23.881   MPKI: 45.3811
L1I PREFETCH  REQUESTED:          0  ISSUED:          0  USEFUL:          0  USELESS:          0
L1I USEFUL LOAD PREFETCHES:          0 PREFETCH ISSUED TO LOWER LEVEL:          0  ACCURACY: -nan
L1I TIMELY PREFETCHES:          0 LATE PREFETCHES: 0 DROPPED PREFETCHES: 0
L1I PREFETCHES SAME FILL-ORIGIN LEVEL: 0 DIFFERENT FILL-ORIGIN LEVEL: 0
L1I AVERAGE MISS LATENCY: 16.8548 cycles
L1I RQ	ACCESS:   58920844	FORWARD:          0	MERGED:   18270412	TO_CACHE:   40650432

BTB TOTAL     ACCESS:   25792470  HIT:   24215892  MISS:    1576578  HIT %:    93.8874  MISS %:    6.11255   MPKI: 7.88289
BTB BRANCH_DIRECT_JUMP	ACCESS:    1657270  HIT:    1644420  MISS:      12850
BTB BRANCH_INDIRECT	ACCESS:    9945376  HIT:    9419363  MISS:     526013
BTB BRANCH_CONDITIONAL	ACCESS:    7366898  HIT:    7349104  MISS:      17794
BTB BRANCH_DIRECT_CALL	ACCESS:    2818310  HIT:    2778533  MISS:      39777
BTB BRANCH_INDIRECT_CALL	ACCESS:     593130  HIT:     481549  MISS:     111581
BTB BRANCH_RETURN	ACCESS:    3411486  HIT:    2542923  MISS:     868563
BTB BRANCH_OTHER ACCESS:          0  HIT:          0  MISS:          0

L2C TOTAL     ACCESS:   20334797  HIT:   13714396  MISS:    6620401  HIT %:     67.443  MISS %:     32.557   MPKI: 33.102
L2C LOAD      ACCESS:   11352528  HIT:    9153574  MISS:    2198954  HIT %:    80.6303  MISS %:    19.3697   MPKI: 10.9948
L2C DATA LOAD MPKI: 8.19919
L2C INSTRUCTION LOAD MPKI: 2.79558
L2C RFO       ACCESS:    3696424  HIT:     168950  MISS:    3527474  HIT %:    4.57063  MISS %:    95.4294   MPKI: 17.6374
L2C PREFETCH  ACCESS:     837703  HIT:     131635  MISS:     706068  HIT %:    15.7138  MISS %:    84.2862   MPKI: 3.53034
AGUS PREFETCH L1 MISS: 0
L2C DATA PREFETCH MPKI: 3.53034
L2C INSTRUCTION PREFETCH MPKI: 0
L2C WRITEBACK ACCESS:    4346933  HIT:    4207940  MISS:     138993  HIT %:    96.8025  MISS %:     3.1975   MPKI: 0.694965
L2C LOAD TRANSLATION ACCESS:      90672  HIT:      46059  MISS:      44613  HIT %:    50.7974  MISS %:    49.2026   MPKI: 0.223065
L2C TRANSLATION FROM L1D PREFETCHER ACCESS:      10537  HIT:       6238  MISS:       4299  HIT %:    59.2009  MISS %:    40.7991   MPKI: 0.021495
L2C PREFETCH  REQUESTED:          0  ISSUED:          0  USEFUL:       8728  USELESS:     701556
L2C USEFUL LOAD PREFETCHES:       8728 PREFETCH ISSUED TO LOWER LEVEL:     706068  ACCURACY: 1.23614
L2C TIMELY PREFETCHES:       8728 LATE PREFETCHES: 0 DROPPED PREFETCHES: 0
L2C PREFETCHES SAME FILL-ORIGIN LEVEL: 0 DIFFERENT FILL-ORIGIN LEVEL: 0
L2C AVERAGE MISS LATENCY: 161.302 cycles
L2C RQ	ACCESS:   15150296	FORWARD:          0	MERGED:          0	TO_CACHE:   15150161
L2C WQ	ACCESS:    4346933	FORWARD:        178	MERGED:          0	TO_CACHE:    4346933
L2C PQ	ACCESS:     837746	FORWARD:          0	MERGED:          0	TO_CACHE:     837703

L2C Instructions Evicting Data 515167
L2C Translations Evicting Data 44933
L2C Data Evicting Data 5326877
L2C Instructions Evicting Instructions 39978
L2C Translations Evicting Instructions 3653
L2C Data Evicting Instructions 502694
L2C Instructions Evicting Translations 3971
L2C Translations Evicting Translations 326
L2C Data Evicting Translations 43809
L2C Dense regions hint from L2: 0
PSCL5 TOTAL     ACCESS:      86151  HIT:      86151  MISS:          0  HIT %:        100  MISS %:          0   MPKI: 0
PSCL5 LOAD TRANSLATION ACCESS:      77260  HIT:      77260  MISS:          0  HIT %:        100  MISS %:          0   MPKI: 0
PSCL5 TRANSLATION FROM L1D PREFETCHER ACCESS:       8891  HIT:       8891  MISS:          0  HIT %:        100  MISS %:          0   MPKI: 0
PSCL5 PREFETCH  REQUESTED:          0  ISSUED:          0  USEFUL:          0  USELESS:          0
PSCL5 USEFUL LOAD PREFETCHES:          0 PREFETCH ISSUED TO LOWER LEVEL:          0  ACCURACY: -nan
PSCL5 TIMELY PREFETCHES:          0 LATE PREFETCHES: 0 DROPPED PREFETCHES: 0
PSCL5 PREFETCHES SAME FILL-ORIGIN LEVEL: 0 DIFFERENT FILL-ORIGIN LEVEL: 0

PSCL4 TOTAL     ACCESS:      83536  HIT:      83313  MISS:        223  HIT %:     99.733  MISS %:   0.266951   MPKI: 0.001115
PSCL4 LOAD TRANSLATION ACCESS:      74982  HIT:      74759  MISS:        223  HIT %:    99.7026  MISS %:   0.297405   MPKI: 0.001115
PSCL4 TRANSLATION FROM L1D PREFETCHER ACCESS:       8554  HIT:       8554  MISS:          0  HIT %:        100  MISS %:          0   MPKI: 0
PSCL4 PREFETCH  REQUESTED:          0  ISSUED:          0  USEFUL:          0  USELESS:          0
PSCL4 USEFUL LOAD PREFETCHES:          0 PREFETCH ISSUED TO LOWER LEVEL:          0  ACCURACY: -nan
PSCL4 TIMELY PREFETCHES:          0 LATE PREFETCHES: 0 DROPPED PREFETCHES: 0
PSCL4 PREFETCHES SAME FILL-ORIGIN LEVEL: 0 DIFFERENT FILL-ORIGIN LEVEL: 0

PSCL3 TOTAL     ACCESS:      81193  HIT:      79874  MISS:       1319  HIT %:    98.3755  MISS %:    1.62452   MPKI: 0.006595
PSCL3 LOAD TRANSLATION ACCESS:      72380  HIT:      71061  MISS:       1319  HIT %:    98.1777  MISS %:    1.82233   MPKI: 0.006595
PSCL3 TRANSLATION FROM L1D PREFETCHER ACCESS:       8813  HIT:       8813  MISS:          0  HIT %:        100  MISS %:          0   MPKI: 0
PSCL3 PREFETCH  REQUESTED:          0  ISSUED:          0  USEFUL:          0  USELESS:          0
PSCL3 USEFUL LOAD PREFETCHES:          0 PREFETCH ISSUED TO LOWER LEVEL:          0  ACCURACY: -nan
PSCL3 TIMELY PREFETCHES:          0 LATE PREFETCHES: 0 DROPPED PREFETCHES: 0
PSCL3 PREFETCHES SAME FILL-ORIGIN LEVEL: 0 DIFFERENT FILL-ORIGIN LEVEL: 0

PSCL2 TOTAL     ACCESS:      84740  HIT:      72649  MISS:      12091  HIT %:    85.7316  MISS %:    14.2684   MPKI: 0.060455
PSCL2 LOAD TRANSLATION ACCESS:      77475  HIT:      65384  MISS:      12091  HIT %:    84.3937  MISS %:    15.6063   MPKI: 0.060455
PSCL2 TRANSLATION FROM L1D PREFETCHER ACCESS:       7265  HIT:       7265  MISS:          0  HIT %:        100  MISS %:          0   MPKI: 0
PSCL2 PREFETCH  REQUESTED:          0  ISSUED:          0  USEFUL:          0  USELESS:          0
PSCL2 USEFUL LOAD PREFETCHES:          0 PREFETCH ISSUED TO LOWER LEVEL:          0  ACCURACY: -nan
PSCL2 TIMELY PREFETCHES:          0 LATE PREFETCHES: 0 DROPPED PREFETCHES: 0
PSCL2 PREFETCHES SAME FILL-ORIGIN LEVEL: 0 DIFFERENT FILL-ORIGIN LEVEL: 0

LLC TOTAL     ACCESS:   10502630  HIT:    4170940  MISS:    6331690  HIT %:    39.7133  MISS %:    60.2867   MPKI: 31.6584
LLC LOAD      ACCESS:    2198953  HIT:    1593876  MISS:     605077  HIT %:    72.4834  MISS %:    27.5166   MPKI: 3.02538
LLC RFO       ACCESS:    3527418  HIT:     979596  MISS:    2547822  HIT %:    27.7709  MISS %:    72.2291   MPKI: 12.7391
LLC PREFETCH  ACCESS:     706068  HIT:      39192  MISS:     666876  HIT %:    5.55074  MISS %:    94.4493   MPKI: 3.33438
AGUS PREFETCH L1 MISS: 0
LLC WRITEBACK ACCESS:    4021279  HIT:    1546958  MISS:    2474321  HIT %:    38.4693  MISS %:    61.5307   MPKI: 12.3716
LLC LOAD TRANSLATION ACCESS:      44613  HIT:      10093  MISS:      34520  HIT %:    22.6235  MISS %:    77.3765   MPKI: 0.1726
LLC TRANSLATION FROM L1D PREFETCHER ACCESS:       4299  HIT:       1225  MISS:       3074  HIT %:     28.495  MISS %:     71.505   MPKI: 0.01537
LLC PREFETCH  REQUESTED:          0  ISSUED:          0  USEFUL:       2097  USELESS:     668257
LLC USEFUL LOAD PREFETCHES:       2097 PREFETCH ISSUED TO LOWER LEVEL:     666876  ACCURACY: 0.314451
LLC TIMELY PREFETCHES:       2097 LATE PREFETCHES: 0 DROPPED PREFETCHES: 0
LLC PREFETCHES SAME FILL-ORIGIN LEVEL: 0 DIFFERENT FILL-ORIGIN LEVEL: 0
LLC AVERAGE MISS LATENCY: 137.946 cycles
LLC RQ	ACCESS:    5775340	FORWARD:          0	MERGED:          0	TO_CACHE:    5775283
LLC WQ	ACCESS:    4021279	FORWARD:         57	MERGED:          0	TO_CACHE:    4021279
LLC PQ	ACCESS:     706068	FORWARD:          0	MERGED:          0	TO_CACHE:     706068

LLC Dense regions hint to LLC: 0

RAW hits: 2480473
Loads Generated: 47592890
Loads sent to L1D: 45112415
Stores Generated: 34134585
Stores sent to L1D: 34134601
Major fault: 0 Minor fault: 9332
Allocated PAGES: 9332
Completed 

DRAM Statistics
 CHANNEL 0
 RQ ROW_BUFFER_HIT:    1859562  ROW_BUFFER_MISS:    1997448
 DBUS_CONGESTED:       2424
 WQ ROW_BUFFER_HIT:     530382  ROW_BUFFER_MISS:    2084005  FULL:      62135

 AVG_CONGESTED_CYCLE: 3
 All warmup complete: 2
Channel 0 Bank busy for read cycles: 0
Channel 0 Bank busy for write cycles: 0
Channel 0
Rank 0
0banks busy for read cycles: 180189104
0banks busy for write cycles: 257111
1banks busy for read cycles: 30849251
1banks busy for write cycles: 36519934
2banks busy for read cycles: 11806835
2banks busy for write cycles: 13091745
3banks busy for read cycles: 14741938
3banks busy for write cycles: 5900117
4banks busy for read cycles: 6151521
4banks busy for write cycles: 3766294
5banks busy for read cycles: 4853907
5banks busy for write cycles: 3250177
6banks busy for read cycles: 5773444
6banks busy for write cycles: 3345754
7banks busy for read cycles: 7838242
7banks busy for write cycles: 5886586
8banks busy for read cycles: 20376637
8banks busy for write cycles: 35482761

CPU 0 Branch Prediction Accuracy: 99.9446% MPKI: 0.08483 Average ROB Occupancy at Mispredict: 119.53
Branch types
NOT_BRANCH: 169380952 84.6905%
BRANCH_DIRECT_JUMP: 1657270 0.828635%
BRANCH_INDIRECT: 9945376 4.97269%
BRANCH_CONDITIONAL: 12193387 6.09669%
BRANCH_DIRECT_CALL: 2818310 1.40915%
BRANCH_INDIRECT_CALL: 593130 0.296565%
BRANCH_RETURN: 3411486 1.70574%
BRANCH_OTHER: 0 0%

DRAM PAGES: 1048576
Allocated PAGES: 9332
