
*** ChampSim Multicore Out-of-Order Simulator ***

Warmup Instructions: 50000000
Simulation Instructions: 200000000
Number of CPUs: 1
LLC sets: 2048
LLC ways: 16
Off-chip DRAM Size: 4096 MB Channels: 1 Width: 64-bit Data Rate: 6400 MT/s
CPU 0 runs traces/spec2k17/srv_41.champsimtrace.xz
.xz
BTB has LRU replacement policy
ITLB has LRU replacement policy
DTLB has LRU replacement policy
STLB has LRU replacement policy
L1I has LRU replacement policy
L1D has LRU replacement policy
Initialize SRRIP state for L2C
Initialize DRRIP state for LLC
Heartbeat CPU 0 instructions: 10000000 cycles: 2868952 heartbeat IPC: 3.48559 cumulative IPC: 3.48559 (Simulation time: 0 hr 0 min 43 sec) 
Heartbeat CPU 0 instructions: 20000003 cycles: 5729201 heartbeat IPC: 3.4962 cumulative IPC: 3.49089 (Simulation time: 0 hr 1 min 19 sec) 
Heartbeat CPU 0 instructions: 30000002 cycles: 8605747 heartbeat IPC: 3.47639 cumulative IPC: 3.48604 (Simulation time: 0 hr 1 min 56 sec) 
*** Reached end of trace for Core: 0 Repeating trace: traces/spec2k17/srv_41.champsimtrace.xz
Heartbeat CPU 0 instructions: 40000001 cycles: 11453377 heartbeat IPC: 3.51169 cumulative IPC: 3.49242 (Simulation time: 0 hr 2 min 33 sec) 
Heartbeat CPU 0 instructions: 50000000 cycles: 14317671 heartbeat IPC: 3.49126 cumulative IPC: 3.49219 (Simulation time: 0 hr 3 min 11 sec) 

Warmup complete CPU 0 instructions: 50000004 cycles: 14317672 (Simulation time: 0 hr 3 min 11 sec) 

Heartbeat CPU 0 instructions: 60000002 cycles: 40117826 heartbeat IPC: 0.387595 cumulative IPC: 0.387595 (Simulation time: 0 hr 4 min 6 sec) 
*** Reached end of trace for Core: 0 Repeating trace: traces/spec2k17/srv_41.champsimtrace.xz
Heartbeat CPU 0 instructions: 70000002 cycles: 60451504 heartbeat IPC: 0.491795 cumulative IPC: 0.433521 (Simulation time: 0 hr 5 min 0 sec) 
Heartbeat CPU 0 instructions: 80000002 cycles: 83043833 heartbeat IPC: 0.442628 cumulative IPC: 0.436515 (Simulation time: 0 hr 5 min 53 sec) 
Heartbeat CPU 0 instructions: 90000000 cycles: 108304212 heartbeat IPC: 0.395877 cumulative IPC: 0.425593 (Simulation time: 0 hr 6 min 49 sec) 
*** Reached end of trace for Core: 0 Repeating trace: traces/spec2k17/srv_41.champsimtrace.xz
Heartbeat CPU 0 instructions: 100000001 cycles: 128959802 heartbeat IPC: 0.484131 cumulative IPC: 0.43614 (Simulation time: 0 hr 7 min 42 sec) 
Heartbeat CPU 0 instructions: 110000000 cycles: 152169508 heartbeat IPC: 0.430854 cumulative IPC: 0.43525 (Simulation time: 0 hr 8 min 39 sec) 
Heartbeat CPU 0 instructions: 120000001 cycles: 177081752 heartbeat IPC: 0.401409 cumulative IPC: 0.43007 (Simulation time: 0 hr 9 min 41 sec) 
*** Reached end of trace for Core: 0 Repeating trace: traces/spec2k17/srv_41.champsimtrace.xz
Heartbeat CPU 0 instructions: 130000003 cycles: 198182931 heartbeat IPC: 0.473907 cumulative IPC: 0.435101 (Simulation time: 0 hr 10 min 43 sec) 
Heartbeat CPU 0 instructions: 140000000 cycles: 220911709 heartbeat IPC: 0.439971 cumulative IPC: 0.435637 (Simulation time: 0 hr 11 min 46 sec) 
Heartbeat CPU 0 instructions: 150000003 cycles: 245260382 heartbeat IPC: 0.4107 cumulative IPC: 0.433008 (Simulation time: 0 hr 12 min 56 sec) 
*** Reached end of trace for Core: 0 Repeating trace: traces/spec2k17/srv_41.champsimtrace.xz
Heartbeat CPU 0 instructions: 160000000 cycles: 266512065 heartbeat IPC: 0.470551 cumulative IPC: 0.436171 (Simulation time: 0 hr 14 min 16 sec) 
Heartbeat CPU 0 instructions: 170000000 cycles: 290766122 heartbeat IPC: 0.412302 cumulative IPC: 0.434077 (Simulation time: 0 hr 15 min 39 sec) 
Heartbeat CPU 0 instructions: 180000001 cycles: 313421267 heartbeat IPC: 0.441401 cumulative IPC: 0.434632 (Simulation time: 0 hr 17 min 16 sec) 
*** Reached end of trace for Core: 0 Repeating trace: traces/spec2k17/srv_41.champsimtrace.xz
Heartbeat CPU 0 instructions: 190000000 cycles: 334817549 heartbeat IPC: 0.467371 cumulative IPC: 0.436818 (Simulation time: 0 hr 18 min 56 sec) 
Heartbeat CPU 0 instructions: 200000000 cycles: 359362691 heartbeat IPC: 0.407413 cumulative IPC: 0.434726 (Simulation time: 0 hr 20 min 51 sec) 
Heartbeat CPU 0 instructions: 210000003 cycles: 380854512 heartbeat IPC: 0.465293 cumulative IPC: 0.436518 (Simulation time: 0 hr 23 min 10 sec) 
*** Reached end of trace for Core: 0 Repeating trace: traces/spec2k17/srv_41.champsimtrace.xz
Heartbeat CPU 0 instructions: 220000000 cycles: 404388927 heartbeat IPC: 0.42491 cumulative IPC: 0.435818 (Simulation time: 0 hr 26 min 1 sec) 
Heartbeat CPU 0 instructions: 230000000 cycles: 427205872 heartbeat IPC: 0.438271 cumulative IPC: 0.435953 (Simulation time: 0 hr 28 min 32 sec) 
Heartbeat CPU 0 instructions: 240000000 cycles: 448960947 heartbeat IPC: 0.459663 cumulative IPC: 0.43714 (Simulation time: 0 hr 31 min 11 sec) 
*** Reached end of trace for Core: 0 Repeating trace: traces/spec2k17/srv_41.champsimtrace.xz
Heartbeat CPU 0 instructions: 250000002 cycles: 472892523 heartbeat IPC: 0.417858 cumulative IPC: 0.436134 (Simulation time: 0 hr 34 min 58 sec) 
Finished CPU 0 instructions: 200000002 cycles: 458574852 cumulative IPC: 0.436134 (Simulation time: 0 hr 34 min 58 sec) 

ChampSim completed all CPUs

Region of Interest Statistics

CPU 0 cumulative IPC: 0.436134 instructions: 200000002 cycles: 458574852
ITLB TOTAL     ACCESS:   34225984  HIT:   33339878  MISS:     886106  HIT %:     97.411  MISS %:    2.58899   MPKI: 4.43053
ITLB LOAD TRANSLATION ACCESS:   34225984  HIT:   33339878  MISS:     886106  HIT %:     97.411  MISS %:    2.58899   MPKI: 4.43053
ITLB PREFETCH  REQUESTED:          0  ISSUED:          0  USEFUL:          0  USELESS:          0
ITLB USEFUL LOAD PREFETCHES:          0 PREFETCH ISSUED TO LOWER LEVEL:          0  ACCURACY: -nan
ITLB TIMELY PREFETCHES:          0 LATE PREFETCHES: 0 DROPPED PREFETCHES: 0
ITLB PREFETCHES SAME FILL-ORIGIN LEVEL: 0 DIFFERENT FILL-ORIGIN LEVEL: 0
ITLB AVERAGE MISS LATENCY: 10.3316 cycles
ITLB RQ	ACCESS:   39105881	FORWARD:          0	MERGED:    4619167	TO_CACHE:   34486714

DTLB TOTAL     ACCESS:   38125804  HIT:   37142683  MISS:     983121  HIT %:    97.4214  MISS %:    2.57862   MPKI: 4.9156
DTLB LOAD TRANSLATION ACCESS:   38125804  HIT:   37142683  MISS:     983121  HIT %:    97.4214  MISS %:    2.57862   MPKI: 4.9156
DTLB PREFETCH  REQUESTED:          0  ISSUED:          0  USEFUL:          0  USELESS:          0
DTLB USEFUL LOAD PREFETCHES:          0 PREFETCH ISSUED TO LOWER LEVEL:          0  ACCURACY: -nan
DTLB TIMELY PREFETCHES:          0 LATE PREFETCHES: 0 DROPPED PREFETCHES: 0
DTLB PREFETCHES SAME FILL-ORIGIN LEVEL: 0 DIFFERENT FILL-ORIGIN LEVEL: 0
DTLB AVERAGE MISS LATENCY: 14.7273 cycles
DTLB RQ	ACCESS:   50525778	FORWARD:          0	MERGED:   12330709	TO_CACHE:   38195069

STLB TOTAL     ACCESS:    3123855  HIT:    3021101  MISS:     102754  HIT %:    96.7107  MISS %:    3.28933   MPKI: 0.51377
STLB LOAD TRANSLATION ACCESS:    1869227  HIT:    1767283  MISS:     101944  HIT %:    94.5462  MISS %:    5.45381   MPKI: 0.50972
STLB TRANSLATION FROM L1D PREFETCHER ACCESS:    1254628  HIT:    1253818  MISS:        810  HIT %:    99.9354  MISS %:   0.064561   MPKI: 0.00405
STLB PREFETCH  REQUESTED:          0  ISSUED:          0  USEFUL:        714  USELESS:         97
STLB USEFUL LOAD PREFETCHES:        714 PREFETCH ISSUED TO LOWER LEVEL:          0  ACCURACY: inf
STLB TIMELY PREFETCHES:        714 LATE PREFETCHES: 24 DROPPED PREFETCHES: 8159
STLB PREFETCHES SAME FILL-ORIGIN LEVEL: 0 DIFFERENT FILL-ORIGIN LEVEL: 0
STLB AVERAGE MISS LATENCY: 66.85 cycles
STLB RQ	ACCESS:    3576336	FORWARD:          0	MERGED:     444287	TO_CACHE:    3132049

STLB Hit, L1D data hit: 0
STLB Hit, L2C data hit: 0
STLB Hit, LLC data hit: 0
STLB Hit, LLC data miss: 0
STLB STLB hints to L2: 0
L1D TOTAL     ACCESS:   51167718  HIT:   48791448  MISS:    2376270  HIT %:    95.3559  MISS %:    4.64408   MPKI: 11.8813
L1D LOAD      ACCESS:   30386385  HIT:   28713320  MISS:    1673065  HIT %:     94.494  MISS %:    5.50597   MPKI: 8.36532
L1D RFO       ACCESS:   19116527  HIT:   18436782  MISS:     679745  HIT %:    96.4442  MISS %:     3.5558   MPKI: 3.39872
L1D PREFETCH  ACCESS:    1664806  HIT:    1641346  MISS:      23460  HIT %:    98.5908  MISS %:    1.40917   MPKI: 0.1173
AGUS PREFETCH L1 MISS: 0
L1D PREFETCH  REQUESTED:    3770113  ISSUED:    3770109  USEFUL:       9532  USELESS:      13927
L1D USEFUL LOAD PREFETCHES:       9532 PREFETCH ISSUED TO LOWER LEVEL:      34803  ACCURACY: 27.3884
L1D TIMELY PREFETCHES:       9532 LATE PREFETCHES: 11302 DROPPED PREFETCHES: 11848
L1D PREFETCHES SAME FILL-ORIGIN LEVEL: 34803 DIFFERENT FILL-ORIGIN LEVEL: 0
L1D AVERAGE MISS LATENCY: 1.37175e+06 cycles
L1D RQ	ACCESS:   41940888	FORWARD:          0	MERGED:   11163470	TO_CACHE:   30510115
L1D WQ	ACCESS:   20245042	FORWARD:     269918	MERGED:     229379	TO_CACHE:   20015663
L1D PQ	ACCESS:    2063000	FORWARD:          0	MERGED:     353276	TO_CACHE:    1707109

L1D UNIQUE REGIONS ACCESSED: 0
L1D REGIONS CONFLICTS: 0
L1D Cross Page Prefetch Requests: 1343616
L1D Same Page Prefetch Requests: 940532
L1D ROI Sum of L1D PQ occupancy: 25932681
L1D PREFETCHES PUSHED FROM L2C: 0
L1I TOTAL     ACCESS:   38312985  HIT:   33574024  MISS:    4738961  HIT %:    87.6309  MISS %:    12.3691   MPKI: 23.6948
L1I LOAD      ACCESS:   38312985  HIT:   33574024  MISS:    4738961  HIT %:    87.6309  MISS %:    12.3691   MPKI: 23.6948
L1I PREFETCH  REQUESTED:          0  ISSUED:          0  USEFUL:          0  USELESS:          0
L1I USEFUL LOAD PREFETCHES:          0 PREFETCH ISSUED TO LOWER LEVEL:          0  ACCURACY: -nan
L1I TIMELY PREFETCHES:          0 LATE PREFETCHES: 0 DROPPED PREFETCHES: 0
L1I PREFETCHES SAME FILL-ORIGIN LEVEL: 0 DIFFERENT FILL-ORIGIN LEVEL: 0
L1I AVERAGE MISS LATENCY: 22.2046 cycles
L1I RQ	ACCESS:   60536728	FORWARD:          0	MERGED:   21430847	TO_CACHE:   39105881

BTB TOTAL     ACCESS:   31960684  HIT:   26197910  MISS:    5762774  HIT %:    81.9692  MISS %:    18.0308   MPKI: 28.8139
BTB BRANCH_DIRECT_JUMP	ACCESS:    3125250  HIT:    2730574  MISS:     394676
BTB BRANCH_INDIRECT	ACCESS:   11716382  HIT:    9367715  MISS:    2348667
BTB BRANCH_CONDITIONAL	ACCESS:   10786856  HIT:   10320288  MISS:     466568
BTB BRANCH_DIRECT_CALL	ACCESS:    2710252  HIT:    1976262  MISS:     733990
BTB BRANCH_INDIRECT_CALL	ACCESS:     455858  HIT:     278081  MISS:     177777
BTB BRANCH_RETURN	ACCESS:    3166086  HIT:    1524990  MISS:    1641096
BTB BRANCH_OTHER ACCESS:          0  HIT:          0  MISS:          0

L2C TOTAL     ACCESS:    8515707  HIT:    5958525  MISS:    2557182  HIT %:     69.971  MISS %:     30.029   MPKI: 12.7859
L2C LOAD      ACCESS:    6400687  HIT:    4427869  MISS:    1972818  HIT %:     69.178  MISS %:     30.822   MPKI: 9.86409
L2C DATA LOAD MPKI: 3.66733
L2C INSTRUCTION LOAD MPKI: 6.19675
L2C RFO       ACCESS:     679687  HIT:     287377  MISS:     392310  HIT %:    42.2808  MISS %:    57.7192   MPKI: 1.96155
L2C PREFETCH  ACCESS:      34794  HIT:      15855  MISS:      18939  HIT %:    45.5682  MISS %:    54.4318   MPKI: 0.094695
AGUS PREFETCH L1 MISS: 0
L2C DATA PREFETCH MPKI: 0.094695
L2C INSTRUCTION PREFETCH MPKI: 0
L2C WRITEBACK ACCESS:    1224082  HIT:    1136037  MISS:      88045  HIT %:    92.8073  MISS %:    7.19274   MPKI: 0.440225
L2C LOAD TRANSLATION ACCESS:     160357  HIT:      77177  MISS:      83180  HIT %:    48.1282  MISS %:    51.8718   MPKI: 0.4159
L2C TRANSLATION FROM L1D PREFETCHER ACCESS:      16100  HIT:      14210  MISS:       1890  HIT %:    88.2609  MISS %:    11.7391   MPKI: 0.00945
L2C PREFETCH  REQUESTED:          0  ISSUED:          0  USEFUL:       3042  USELESS:      17570
L2C USEFUL LOAD PREFETCHES:       3042 PREFETCH ISSUED TO LOWER LEVEL:      18939  ACCURACY: 16.0621
L2C TIMELY PREFETCHES:       3042 LATE PREFETCHES: 0 DROPPED PREFETCHES: 0
L2C PREFETCHES SAME FILL-ORIGIN LEVEL: 0 DIFFERENT FILL-ORIGIN LEVEL: 0
L2C AVERAGE MISS LATENCY: 54.1469 cycles
L2C RQ	ACCESS:    7256885	FORWARD:          0	MERGED:          0	TO_CACHE:    7256831
L2C WQ	ACCESS:    1224082	FORWARD:         63	MERGED:          0	TO_CACHE:    1224082
L2C PQ	ACCESS:      34803	FORWARD:          0	MERGED:          0	TO_CACHE:      34794

L2C Instructions Evicting Data 562793
L2C Translations Evicting Data 45282
L2C Data Evicting Data 581375
L2C Instructions Evicting Instructions 640164
L2C Translations Evicting Instructions 36599
L2C Data Evicting Instructions 520405
L2C Instructions Evicting Translations 36394
L2C Translations Evicting Translations 3189
L2C Data Evicting Translations 42936
L2C Dense regions hint from L2: 0
PSCL5 TOTAL     ACCESS:     110875  HIT:     110875  MISS:          0  HIT %:        100  MISS %:          0   MPKI: 0
PSCL5 LOAD TRANSLATION ACCESS:     101920  HIT:     101920  MISS:          0  HIT %:        100  MISS %:          0   MPKI: 0
PSCL5 TRANSLATION FROM L1D PREFETCHER ACCESS:       8955  HIT:       8955  MISS:          0  HIT %:        100  MISS %:          0   MPKI: 0
PSCL5 PREFETCH  REQUESTED:          0  ISSUED:          0  USEFUL:          0  USELESS:          0
PSCL5 USEFUL LOAD PREFETCHES:          0 PREFETCH ISSUED TO LOWER LEVEL:          0  ACCURACY: -nan
PSCL5 TIMELY PREFETCHES:          0 LATE PREFETCHES: 0 DROPPED PREFETCHES: 0
PSCL5 PREFETCHES SAME FILL-ORIGIN LEVEL: 0 DIFFERENT FILL-ORIGIN LEVEL: 0

PSCL4 TOTAL     ACCESS:     110212  HIT:     109897  MISS:        315  HIT %:    99.7142  MISS %:   0.285813   MPKI: 0.001575
PSCL4 LOAD TRANSLATION ACCESS:     101303  HIT:     100988  MISS:        315  HIT %:    99.6891  MISS %:   0.310948   MPKI: 0.001575
PSCL4 TRANSLATION FROM L1D PREFETCHER ACCESS:       8909  HIT:       8909  MISS:          0  HIT %:        100  MISS %:          0   MPKI: 0
PSCL4 PREFETCH  REQUESTED:          0  ISSUED:          0  USEFUL:          0  USELESS:          0
PSCL4 USEFUL LOAD PREFETCHES:          0 PREFETCH ISSUED TO LOWER LEVEL:          0  ACCURACY: -nan
PSCL4 TIMELY PREFETCHES:          0 LATE PREFETCHES: 0 DROPPED PREFETCHES: 0
PSCL4 PREFETCHES SAME FILL-ORIGIN LEVEL: 0 DIFFERENT FILL-ORIGIN LEVEL: 0

PSCL3 TOTAL     ACCESS:      97413  HIT:      80937  MISS:      16476  HIT %:    83.0864  MISS %:    16.9136   MPKI: 0.08238
PSCL3 LOAD TRANSLATION ACCESS:      94524  HIT:      78048  MISS:      16476  HIT %:    82.5695  MISS %:    17.4305   MPKI: 0.08238
PSCL3 TRANSLATION FROM L1D PREFETCHER ACCESS:       2889  HIT:       2889  MISS:          0  HIT %:        100  MISS %:          0   MPKI: 0
PSCL3 PREFETCH  REQUESTED:          0  ISSUED:          0  USEFUL:          0  USELESS:          0
PSCL3 USEFUL LOAD PREFETCHES:          0 PREFETCH ISSUED TO LOWER LEVEL:          0  ACCURACY: -nan
PSCL3 TIMELY PREFETCHES:          0 LATE PREFETCHES: 0 DROPPED PREFETCHES: 0
PSCL3 PREFETCHES SAME FILL-ORIGIN LEVEL: 0 DIFFERENT FILL-ORIGIN LEVEL: 0

PSCL2 TOTAL     ACCESS:     104378  HIT:      61913  MISS:      42465  HIT %:    59.3161  MISS %:    40.6839   MPKI: 0.212325
PSCL2 LOAD TRANSLATION ACCESS:     102516  HIT:      60051  MISS:      42465  HIT %:    58.5772  MISS %:    41.4228   MPKI: 0.212325
PSCL2 TRANSLATION FROM L1D PREFETCHER ACCESS:       1862  HIT:       1862  MISS:          0  HIT %:        100  MISS %:          0   MPKI: 0
PSCL2 PREFETCH  REQUESTED:          0  ISSUED:          0  USEFUL:          0  USELESS:          0
PSCL2 USEFUL LOAD PREFETCHES:          0 PREFETCH ISSUED TO LOWER LEVEL:          0  ACCURACY: -nan
PSCL2 TIMELY PREFETCHES:          0 LATE PREFETCHES: 0 DROPPED PREFETCHES: 0
PSCL2 PREFETCHES SAME FILL-ORIGIN LEVEL: 0 DIFFERENT FILL-ORIGIN LEVEL: 0

LLC TOTAL     ACCESS:    3108289  HIT:    2787530  MISS:     320759  HIT %:    89.6805  MISS %:    10.3195   MPKI: 1.60379
LLC LOAD      ACCESS:    1972818  HIT:    1800003  MISS:     172815  HIT %:    91.2402  MISS %:     8.7598   MPKI: 0.864075
LLC RFO       ACCESS:     392310  HIT:     262262  MISS:     130048  HIT %:    66.8507  MISS %:    33.1493   MPKI: 0.65024
LLC PREFETCH  ACCESS:      18939  HIT:      12304  MISS:       6635  HIT %:    64.9665  MISS %:    35.0335   MPKI: 0.033175
AGUS PREFETCH L1 MISS: 0
LLC WRITEBACK ACCESS:     639152  HIT:     637264  MISS:       1888  HIT %:    99.7046  MISS %:   0.295391   MPKI: 0.00944
LLC LOAD TRANSLATION ACCESS:      83180  HIT:      73980  MISS:       9200  HIT %:    88.9396  MISS %:    11.0604   MPKI: 0.046
LLC TRANSLATION FROM L1D PREFETCHER ACCESS:       1890  HIT:       1717  MISS:        173  HIT %:    90.8466  MISS %:    9.15344   MPKI: 0.000865
LLC PREFETCH  REQUESTED:          0  ISSUED:          0  USEFUL:        317  USELESS:       6531
LLC USEFUL LOAD PREFETCHES:        317 PREFETCH ISSUED TO LOWER LEVEL:       6635  ACCURACY: 4.77769
LLC TIMELY PREFETCHES:        317 LATE PREFETCHES: 0 DROPPED PREFETCHES: 0
LLC PREFETCHES SAME FILL-ORIGIN LEVEL: 0 DIFFERENT FILL-ORIGIN LEVEL: 0
LLC AVERAGE MISS LATENCY: 200.736 cycles
LLC RQ	ACCESS:    2450198	FORWARD:          0	MERGED:          0	TO_CACHE:    2450198
LLC WQ	ACCESS:     639152	FORWARD:          0	MERGED:          0	TO_CACHE:     639152
LLC PQ	ACCESS:      18939	FORWARD:          0	MERGED:          0	TO_CACHE:      18939

LLC Dense regions hint to LLC: 0

RAW hits: 2082837
Loads Generated: 44023727
Loads sent to L1D: 41940888
Stores Generated: 20245026
Stores sent to L1D: 20245042
Major fault: 0 Minor fault: 5392
Allocated PAGES: 5392
Completed 

DRAM Statistics
 CHANNEL 0
 RQ ROW_BUFFER_HIT:      70167  ROW_BUFFER_MISS:     248703
 DBUS_CONGESTED:        142
 WQ ROW_BUFFER_HIT:      31158  ROW_BUFFER_MISS:     187210  FULL:          0

 AVG_CONGESTED_CYCLE: 4
 All warmup complete: 2
Channel 0 Bank busy for read cycles: 0
Channel 0 Bank busy for write cycles: 0
Channel 0
Rank 0
0banks busy for read cycles: 409309738
0banks busy for write cycles: 96665
1banks busy for read cycles: 22436647
1banks busy for write cycles: 13803600
2banks busy for read cycles: 3653680
2banks busy for write cycles: 3557592
3banks busy for read cycles: 879722
3banks busy for write cycles: 1359442
4banks busy for read cycles: 231787
4banks busy for write cycles: 543705
5banks busy for read cycles: 98542
5banks busy for write cycles: 239968
6banks busy for read cycles: 113786
6banks busy for write cycles: 124230
7banks busy for read cycles: 184689
7banks busy for write cycles: 145579
8banks busy for read cycles: 650955
8banks busy for write cycles: 1144526

CPU 0 Branch Prediction Accuracy: 99.5917% MPKI: 0.749205 Average ROB Occupancy at Mispredict: 29.7867
Branch types
NOT_BRANCH: 163297289 81.6486%
BRANCH_DIRECT_JUMP: 3125250 1.56262%
BRANCH_INDIRECT: 11716382 5.85819%
BRANCH_CONDITIONAL: 15528542 7.76427%
BRANCH_DIRECT_CALL: 2710252 1.35513%
BRANCH_INDIRECT_CALL: 455858 0.227929%
BRANCH_RETURN: 3166086 1.58304%
BRANCH_OTHER: 0 0%

DRAM PAGES: 1048576
Allocated PAGES: 5392
