
*** ChampSim Multicore Out-of-Order Simulator ***

Warmup Instructions: 50000000
Simulation Instructions: 200000000
Number of CPUs: 1
LLC sets: 2048
LLC ways: 16
Off-chip DRAM Size: 4096 MB Channels: 1 Width: 64-bit Data Rate: 6400 MT/s
CPU 0 runs traces/spec2k17/srv_2.champsimtrace.xz
.xz
BTB has LRU replacement policy
ITLB has LRU replacement policy
DTLB has LRU replacement policy
STLB has LRU replacement policy
L1I has LRU replacement policy
L1D has LRU replacement policy
Initialize SRRIP state for L2C
Initialize DRRIP state for LLC
Heartbeat CPU 0 instructions: 10000003 cycles: 2770998 heartbeat IPC: 3.60881 cumulative IPC: 3.60881 (Simulation time: 0 hr 0 min 41 sec) 
Heartbeat CPU 0 instructions: 20000000 cycles: 5534150 heartbeat IPC: 3.61905 cumulative IPC: 3.61392 (Simulation time: 0 hr 1 min 20 sec) 
Heartbeat CPU 0 instructions: 30000001 cycles: 8300113 heartbeat IPC: 3.61538 cumulative IPC: 3.61441 (Simulation time: 0 hr 1 min 59 sec) 
*** Reached end of trace for Core: 0 Repeating trace: traces/spec2k17/srv_2.champsimtrace.xz
Heartbeat CPU 0 instructions: 40000000 cycles: 11064891 heartbeat IPC: 3.61693 cumulative IPC: 3.61504 (Simulation time: 0 hr 2 min 36 sec) 
Heartbeat CPU 0 instructions: 50000002 cycles: 13827126 heartbeat IPC: 3.62026 cumulative IPC: 3.61608 (Simulation time: 0 hr 3 min 14 sec) 

Warmup complete CPU 0 instructions: 50000002 cycles: 13827126 (Simulation time: 0 hr 3 min 14 sec) 

Heartbeat CPU 0 instructions: 60000000 cycles: 36384475 heartbeat IPC: 0.443314 cumulative IPC: 0.443314 (Simulation time: 0 hr 4 min 11 sec) 
*** Reached end of trace for Core: 0 Repeating trace: traces/spec2k17/srv_2.champsimtrace.xz
Heartbeat CPU 0 instructions: 70000000 cycles: 58650065 heartbeat IPC: 0.449124 cumulative IPC: 0.4462 (Simulation time: 0 hr 5 min 5 sec) 
Heartbeat CPU 0 instructions: 80000001 cycles: 80284931 heartbeat IPC: 0.462217 cumulative IPC: 0.451414 (Simulation time: 0 hr 6 min 1 sec) 
Heartbeat CPU 0 instructions: 90000000 cycles: 102763170 heartbeat IPC: 0.444875 cumulative IPC: 0.449761 (Simulation time: 0 hr 6 min 59 sec) 
*** Reached end of trace for Core: 0 Repeating trace: traces/spec2k17/srv_2.champsimtrace.xz
Heartbeat CPU 0 instructions: 100000000 cycles: 124908002 heartbeat IPC: 0.451573 cumulative IPC: 0.450122 (Simulation time: 0 hr 7 min 59 sec) 
Heartbeat CPU 0 instructions: 110000000 cycles: 146611614 heartbeat IPC: 0.460753 cumulative IPC: 0.45186 (Simulation time: 0 hr 8 min 56 sec) 
Heartbeat CPU 0 instructions: 120000001 cycles: 168568401 heartbeat IPC: 0.45544 cumulative IPC: 0.452368 (Simulation time: 0 hr 9 min 53 sec) 
*** Reached end of trace for Core: 0 Repeating trace: traces/spec2k17/srv_2.champsimtrace.xz
Heartbeat CPU 0 instructions: 130000001 cycles: 191330424 heartbeat IPC: 0.439328 cumulative IPC: 0.450696 (Simulation time: 0 hr 10 min 59 sec) 
Heartbeat CPU 0 instructions: 140000000 cycles: 212970854 heartbeat IPC: 0.462098 cumulative IPC: 0.451935 (Simulation time: 0 hr 12 min 3 sec) 
Heartbeat CPU 0 instructions: 150000001 cycles: 235060952 heartbeat IPC: 0.452692 cumulative IPC: 0.45201 (Simulation time: 0 hr 13 min 13 sec) 
*** Reached end of trace for Core: 0 Repeating trace: traces/spec2k17/srv_2.champsimtrace.xz
Heartbeat CPU 0 instructions: 160000002 cycles: 257459961 heartbeat IPC: 0.446448 cumulative IPC: 0.451499 (Simulation time: 0 hr 14 min 26 sec) 
Heartbeat CPU 0 instructions: 170000001 cycles: 279363094 heartbeat IPC: 0.456556 cumulative IPC: 0.451916 (Simulation time: 0 hr 15 min 46 sec) 
Heartbeat CPU 0 instructions: 180000000 cycles: 301396434 heartbeat IPC: 0.453858 cumulative IPC: 0.452065 (Simulation time: 0 hr 17 min 23 sec) 
*** Reached end of trace for Core: 0 Repeating trace: traces/spec2k17/srv_2.champsimtrace.xz
Heartbeat CPU 0 instructions: 190000000 cycles: 323875100 heartbeat IPC: 0.444866 cumulative IPC: 0.451543 (Simulation time: 0 hr 18 min 42 sec) 
Heartbeat CPU 0 instructions: 200000000 cycles: 345695830 heartbeat IPC: 0.45828 cumulative IPC: 0.451986 (Simulation time: 0 hr 20 min 14 sec) 
Heartbeat CPU 0 instructions: 210000000 cycles: 367259068 heartbeat IPC: 0.463752 cumulative IPC: 0.452704 (Simulation time: 0 hr 22 min 13 sec) 
*** Reached end of trace for Core: 0 Repeating trace: traces/spec2k17/srv_2.champsimtrace.xz
Heartbeat CPU 0 instructions: 220000000 cycles: 389996108 heartbeat IPC: 0.439811 cumulative IPC: 0.451925 (Simulation time: 0 hr 24 min 12 sec) 
Heartbeat CPU 0 instructions: 230000002 cycles: 411955489 heartbeat IPC: 0.455386 cumulative IPC: 0.452115 (Simulation time: 0 hr 26 min 24 sec) 
Heartbeat CPU 0 instructions: 240000002 cycles: 433574687 heartbeat IPC: 0.462552 cumulative IPC: 0.452653 (Simulation time: 0 hr 28 min 40 sec) 
*** Reached end of trace for Core: 0 Repeating trace: traces/spec2k17/srv_2.champsimtrace.xz
Heartbeat CPU 0 instructions: 250000002 cycles: 456224970 heartbeat IPC: 0.441496 cumulative IPC: 0.452082 (Simulation time: 0 hr 30 min 50 sec) 
Finished CPU 0 instructions: 200000000 cycles: 442397844 cumulative IPC: 0.452082 (Simulation time: 0 hr 30 min 50 sec) 

ChampSim completed all CPUs

Region of Interest Statistics

CPU 0 cumulative IPC: 0.452082 instructions: 200000000 cycles: 442397844
ITLB TOTAL     ACCESS:   31283878  HIT:   30505133  MISS:     778745  HIT %:    97.5107  MISS %:    2.48929   MPKI: 3.89372
ITLB LOAD TRANSLATION ACCESS:   31283878  HIT:   30505133  MISS:     778745  HIT %:    97.5107  MISS %:    2.48929   MPKI: 3.89372
ITLB PREFETCH  REQUESTED:          0  ISSUED:          0  USEFUL:          0  USELESS:          0
ITLB USEFUL LOAD PREFETCHES:          0 PREFETCH ISSUED TO LOWER LEVEL:          0  ACCURACY: -nan
ITLB TIMELY PREFETCHES:          0 LATE PREFETCHES: 0 DROPPED PREFETCHES: 0
ITLB PREFETCHES SAME FILL-ORIGIN LEVEL: 0 DIFFERENT FILL-ORIGIN LEVEL: 0
ITLB AVERAGE MISS LATENCY: 13.6393 cycles
ITLB RQ	ACCESS:   38368538	FORWARD:          0	MERGED:    6890161	TO_CACHE:   31478377

DTLB TOTAL     ACCESS:   37032532  HIT:   34438613  MISS:    2593919  HIT %:    92.9956  MISS %:    7.00443   MPKI: 12.9696
DTLB LOAD TRANSLATION ACCESS:   37032532  HIT:   34438613  MISS:    2593919  HIT %:    92.9956  MISS %:    7.00443   MPKI: 12.9696
DTLB PREFETCH  REQUESTED:          0  ISSUED:          0  USEFUL:          0  USELESS:          0
DTLB USEFUL LOAD PREFETCHES:          0 PREFETCH ISSUED TO LOWER LEVEL:          0  ACCURACY: -nan
DTLB TIMELY PREFETCHES:          0 LATE PREFETCHES: 0 DROPPED PREFETCHES: 0
DTLB PREFETCHES SAME FILL-ORIGIN LEVEL: 0 DIFFERENT FILL-ORIGIN LEVEL: 0
DTLB AVERAGE MISS LATENCY: 13.4306 cycles
DTLB RQ	ACCESS:   47518607	FORWARD:          0	MERGED:   10344682	TO_CACHE:   37173925

STLB TOTAL     ACCESS:    7772733  HIT:    7437014  MISS:     335719  HIT %:    95.6808  MISS %:    4.31919   MPKI: 1.6786
STLB LOAD TRANSLATION ACCESS:    3372664  HIT:    3038612  MISS:     334052  HIT %:    90.0953  MISS %:    9.90469   MPKI: 1.67026
STLB TRANSLATION FROM L1D PREFETCHER ACCESS:    4400069  HIT:    4398402  MISS:       1667  HIT %:    99.9621  MISS %:  0.0378858   MPKI: 0.008335
STLB PREFETCH  REQUESTED:          0  ISSUED:          0  USEFUL:       1289  USELESS:        378
STLB USEFUL LOAD PREFETCHES:       1289 PREFETCH ISSUED TO LOWER LEVEL:          0  ACCURACY: inf
STLB TIMELY PREFETCHES:       1289 LATE PREFETCHES: 311 DROPPED PREFETCHES: 27617
STLB PREFETCHES SAME FILL-ORIGIN LEVEL: 0 DIFFERENT FILL-ORIGIN LEVEL: 0
STLB AVERAGE MISS LATENCY: 46.6765 cycles
STLB RQ	ACCESS:    9190935	FORWARD:          0	MERGED:    1390220	TO_CACHE:    7800715

STLB Hit, L1D data hit: 0
STLB Hit, L2C data hit: 0
STLB Hit, LLC data hit: 0
STLB Hit, LLC data miss: 0
STLB STLB hints to L2: 0
L1D TOTAL     ACCESS:   52735458  HIT:   50262215  MISS:    2473243  HIT %:    95.3101  MISS %:    4.68991   MPKI: 12.3662
L1D LOAD      ACCESS:   27460980  HIT:   25366136  MISS:    2094844  HIT %:    92.3716  MISS %:    7.62844   MPKI: 10.4742
L1D RFO       ACCESS:   19518462  HIT:   19183733  MISS:     334729  HIT %:    98.2851  MISS %:    1.71494   MPKI: 1.67365
L1D PREFETCH  ACCESS:    5756016  HIT:    5712346  MISS:      43670  HIT %:    99.2413  MISS %:   0.758684   MPKI: 0.21835
AGUS PREFETCH L1 MISS: 0
L1D PREFETCH  REQUESTED:   12259035  ISSUED:   12258859  USEFUL:      26617  USELESS:      17051
L1D USEFUL LOAD PREFETCHES:      26617 PREFETCH ISSUED TO LOWER LEVEL:      55362  ACCURACY: 48.0781
L1D TIMELY PREFETCHES:      26617 LATE PREFETCHES: 11617 DROPPED PREFETCHES: 33981
L1D PREFETCHES SAME FILL-ORIGIN LEVEL: 55362 DIFFERENT FILL-ORIGIN LEVEL: 0
L1D AVERAGE MISS LATENCY: 1.37521e+06 cycles
L1D RQ	ACCESS:   42115739	FORWARD:          0	MERGED:   14276191	TO_CACHE:   27596785
L1D WQ	ACCESS:   20224316	FORWARD:     325053	MERGED:     302494	TO_CACHE:   19921822
L1D PQ	ACCESS:    6440588	FORWARD:          0	MERGED:     540027	TO_CACHE:    5818271

L1D UNIQUE REGIONS ACCESSED: 0
L1D REGIONS CONFLICTS: 0
L1D Cross Page Prefetch Requests: 5547338
L1D Same Page Prefetch Requests: 1479966
L1D ROI Sum of L1D PQ occupancy: 84980699
L1D PREFETCHES PUSHED FROM L2C: 0
L1I TOTAL     ACCESS:   36558557  HIT:   31410269  MISS:    5148288  HIT %:    85.9177  MISS %:    14.0823   MPKI: 25.7414
L1I LOAD      ACCESS:   36558557  HIT:   31410269  MISS:    5148288  HIT %:    85.9177  MISS %:    14.0823   MPKI: 25.7414
L1I PREFETCH  REQUESTED:          0  ISSUED:          0  USEFUL:          0  USELESS:          0
L1I USEFUL LOAD PREFETCHES:          0 PREFETCH ISSUED TO LOWER LEVEL:          0  ACCURACY: -nan
L1I TIMELY PREFETCHES:          0 LATE PREFETCHES: 0 DROPPED PREFETCHES: 0
L1I PREFETCHES SAME FILL-ORIGIN LEVEL: 0 DIFFERENT FILL-ORIGIN LEVEL: 0
L1I AVERAGE MISS LATENCY: 25.29 cycles
L1I RQ	ACCESS:   57175159	FORWARD:          0	MERGED:   18806621	TO_CACHE:   38368538

BTB TOTAL     ACCESS:   22017286  HIT:   17637200  MISS:    4380086  HIT %:    80.1061  MISS %:    19.8939   MPKI: 21.9004
BTB BRANCH_DIRECT_JUMP	ACCESS:    1737856  HIT:    1493758  MISS:     244098
BTB BRANCH_INDIRECT	ACCESS:    9415712  HIT:    7279334  MISS:    2136378
BTB BRANCH_CONDITIONAL	ACCESS:    4567442  HIT:    4164173  MISS:     403269
BTB BRANCH_DIRECT_CALL	ACCESS:    2474421  HIT:    1994045  MISS:     480376
BTB BRANCH_INDIRECT_CALL	ACCESS:     673221  HIT:     632799  MISS:      40422
BTB BRANCH_RETURN	ACCESS:    3148634  HIT:    2073091  MISS:    1075543
BTB BRANCH_OTHER ACCESS:          0  HIT:          0  MISS:          0

L2C TOTAL     ACCESS:    9110868  HIT:    6014226  MISS:    3096642  HIT %:    66.0116  MISS %:    33.9884   MPKI: 15.4832
L2C LOAD      ACCESS:    7231483  HIT:    4521911  MISS:    2709572  HIT %:    62.5309  MISS %:    37.4691   MPKI: 13.5479
L2C DATA LOAD MPKI: 4.54152
L2C INSTRUCTION LOAD MPKI: 9.00634
L2C RFO       ACCESS:     334654  HIT:     192562  MISS:     142092  HIT %:    57.5406  MISS %:    42.4594   MPKI: 0.71046
L2C PREFETCH  ACCESS:      55311  HIT:      47555  MISS:       7756  HIT %:    85.9775  MISS %:    14.0225   MPKI: 0.03878
AGUS PREFETCH L1 MISS: 0
L2C DATA PREFETCH MPKI: 0.03878
L2C INSTRUCTION PREFETCH MPKI: 0
L2C WRITEBACK ACCESS:    1009916  HIT:     957390  MISS:      52526  HIT %:     94.799  MISS %:    5.20103   MPKI: 0.26263
L2C LOAD TRANSLATION ACCESS:     440596  HIT:     263335  MISS:     177261  HIT %:    59.7679  MISS %:    40.2321   MPKI: 0.886305
L2C TRANSLATION FROM L1D PREFETCHER ACCESS:      38908  HIT:      31473  MISS:       7435  HIT %:    80.8908  MISS %:    19.1092   MPKI: 0.037175
L2C PREFETCH  REQUESTED:          0  ISSUED:          0  USEFUL:       5173  USELESS:      10001
L2C USEFUL LOAD PREFETCHES:       5173 PREFETCH ISSUED TO LOWER LEVEL:       7756  ACCURACY: 66.6968
L2C TIMELY PREFETCHES:       5173 LATE PREFETCHES: 0 DROPPED PREFETCHES: 0
L2C PREFETCHES SAME FILL-ORIGIN LEVEL: 0 DIFFERENT FILL-ORIGIN LEVEL: 0
L2C AVERAGE MISS LATENCY: 45.277 cycles
L2C RQ	ACCESS:    8045674	FORWARD:          0	MERGED:          0	TO_CACHE:    8045642
L2C WQ	ACCESS:    1009916	FORWARD:         83	MERGED:          0	TO_CACHE:    1009916
L2C PQ	ACCESS:      55362	FORWARD:          0	MERGED:          0	TO_CACHE:      55311

L2C Instructions Evicting Data 626868
L2C Translations Evicting Data 70615
L2C Data Evicting Data 394891
L2C Instructions Evicting Instructions 1072484
L2C Translations Evicting Instructions 101578
L2C Data Evicting Instructions 595576
L2C Instructions Evicting Translations 101917
L2C Translations Evicting Translations 12503
L2C Data Evicting Translations 67684
L2C Dense regions hint from L2: 0
PSCL5 TOTAL     ACCESS:     362585  HIT:     362585  MISS:          0  HIT %:        100  MISS %:          0   MPKI: 0
PSCL5 LOAD TRANSLATION ACCESS:     333741  HIT:     333741  MISS:          0  HIT %:        100  MISS %:          0   MPKI: 0
PSCL5 TRANSLATION FROM L1D PREFETCHER ACCESS:      28844  HIT:      28844  MISS:          0  HIT %:        100  MISS %:          0   MPKI: 0
PSCL5 PREFETCH  REQUESTED:          0  ISSUED:          0  USEFUL:          0  USELESS:          0
PSCL5 USEFUL LOAD PREFETCHES:          0 PREFETCH ISSUED TO LOWER LEVEL:          0  ACCURACY: -nan
PSCL5 TIMELY PREFETCHES:          0 LATE PREFETCHES: 0 DROPPED PREFETCHES: 0
PSCL5 PREFETCHES SAME FILL-ORIGIN LEVEL: 0 DIFFERENT FILL-ORIGIN LEVEL: 0

PSCL4 TOTAL     ACCESS:     341011  HIT:     340588  MISS:        423  HIT %:     99.876  MISS %:   0.124043   MPKI: 0.002115
PSCL4 LOAD TRANSLATION ACCESS:     315058  HIT:     314635  MISS:        423  HIT %:    99.8657  MISS %:   0.134261   MPKI: 0.002115
PSCL4 TRANSLATION FROM L1D PREFETCHER ACCESS:      25953  HIT:      25953  MISS:          0  HIT %:        100  MISS %:          0   MPKI: 0
PSCL4 PREFETCH  REQUESTED:          0  ISSUED:          0  USEFUL:          0  USELESS:          0
PSCL4 USEFUL LOAD PREFETCHES:          0 PREFETCH ISSUED TO LOWER LEVEL:          0  ACCURACY: -nan
PSCL4 TIMELY PREFETCHES:          0 LATE PREFETCHES: 0 DROPPED PREFETCHES: 0
PSCL4 PREFETCHES SAME FILL-ORIGIN LEVEL: 0 DIFFERENT FILL-ORIGIN LEVEL: 0

PSCL3 TOTAL     ACCESS:     352935  HIT:     352091  MISS:        844  HIT %:    99.7609  MISS %:   0.239138   MPKI: 0.00422
PSCL3 LOAD TRANSLATION ACCESS:     332802  HIT:     331958  MISS:        844  HIT %:    99.7464  MISS %:   0.253604   MPKI: 0.00422
PSCL3 TRANSLATION FROM L1D PREFETCHER ACCESS:      20133  HIT:      20133  MISS:          0  HIT %:        100  MISS %:          0   MPKI: 0
PSCL3 PREFETCH  REQUESTED:          0  ISSUED:          0  USEFUL:          0  USELESS:          0
PSCL3 USEFUL LOAD PREFETCHES:          0 PREFETCH ISSUED TO LOWER LEVEL:          0  ACCURACY: -nan
PSCL3 TIMELY PREFETCHES:          0 LATE PREFETCHES: 0 DROPPED PREFETCHES: 0
PSCL3 PREFETCHES SAME FILL-ORIGIN LEVEL: 0 DIFFERENT FILL-ORIGIN LEVEL: 0

PSCL2 TOTAL     ACCESS:     337226  HIT:     230359  MISS:     106867  HIT %:      68.31  MISS %:      31.69   MPKI: 0.534335
PSCL2 LOAD TRANSLATION ACCESS:     335020  HIT:     228153  MISS:     106867  HIT %:    68.1013  MISS %:    31.8987   MPKI: 0.534335
PSCL2 TRANSLATION FROM L1D PREFETCHER ACCESS:       2206  HIT:       2206  MISS:          0  HIT %:        100  MISS %:          0   MPKI: 0
PSCL2 PREFETCH  REQUESTED:          0  ISSUED:          0  USEFUL:          0  USELESS:          0
PSCL2 USEFUL LOAD PREFETCHES:          0 PREFETCH ISSUED TO LOWER LEVEL:          0  ACCURACY: -nan
PSCL2 TIMELY PREFETCHES:          0 LATE PREFETCHES: 0 DROPPED PREFETCHES: 0
PSCL2 PREFETCHES SAME FILL-ORIGIN LEVEL: 0 DIFFERENT FILL-ORIGIN LEVEL: 0

LLC TOTAL     ACCESS:    3457262  HIT:    3129864  MISS:     327398  HIT %:    90.5301  MISS %:    9.46986   MPKI: 1.63699
LLC LOAD      ACCESS:    2709565  HIT:    2446676  MISS:     262889  HIT %:    90.2977  MISS %:    9.70226   MPKI: 1.31445
LLC RFO       ACCESS:     142085  HIT:      93310  MISS:      48775  HIT %:     65.672  MISS %:     34.328   MPKI: 0.243875
LLC PREFETCH  ACCESS:       7756  HIT:       7043  MISS:        713  HIT %:    90.8071  MISS %:    9.19288   MPKI: 0.003565
AGUS PREFETCH L1 MISS: 0
LLC WRITEBACK ACCESS:     413160  HIT:     411036  MISS:       2124  HIT %:    99.4859  MISS %:   0.514087   MPKI: 0.01062
LLC LOAD TRANSLATION ACCESS:     177261  HIT:     164768  MISS:      12493  HIT %:    92.9522  MISS %:     7.0478   MPKI: 0.062465
LLC TRANSLATION FROM L1D PREFETCHER ACCESS:       7435  HIT:       7031  MISS:        404  HIT %:    94.5662  MISS %:    5.43376   MPKI: 0.00202
LLC PREFETCH  REQUESTED:          0  ISSUED:          0  USEFUL:        273  USELESS:        872
LLC USEFUL LOAD PREFETCHES:        273 PREFETCH ISSUED TO LOWER LEVEL:        713  ACCURACY: 38.2889
LLC TIMELY PREFETCHES:        273 LATE PREFETCHES: 0 DROPPED PREFETCHES: 0
LLC PREFETCHES SAME FILL-ORIGIN LEVEL: 0 DIFFERENT FILL-ORIGIN LEVEL: 0
LLC AVERAGE MISS LATENCY: 149.305 cycles
LLC RQ	ACCESS:    3036360	FORWARD:          0	MERGED:          0	TO_CACHE:    3036346
LLC WQ	ACCESS:     413160	FORWARD:         14	MERGED:          0	TO_CACHE:     413160
LLC PQ	ACCESS:       7756	FORWARD:          0	MERGED:          0	TO_CACHE:       7756

LLC Dense regions hint to LLC: 0

RAW hits: 2757452
Loads Generated: 44873189
Loads sent to L1D: 42115739
Stores Generated: 20224315
Stores sent to L1D: 20224316
Major fault: 0 Minor fault: 6527
Allocated PAGES: 6527
Completed 

DRAM Statistics
 CHANNEL 0
 RQ ROW_BUFFER_HIT:      70193  ROW_BUFFER_MISS:     255080
 DBUS_CONGESTED:        247
 WQ ROW_BUFFER_HIT:      38346  ROW_BUFFER_MISS:     181004  FULL:          0

 AVG_CONGESTED_CYCLE: 4
 All warmup complete: 2
Channel 0 Bank busy for read cycles: 0
Channel 0 Bank busy for write cycles: 0
Channel 0
Rank 0
0banks busy for read cycles: 382318326
0banks busy for write cycles: 117518
1banks busy for read cycles: 29719216
1banks busy for write cycles: 16936549
2banks busy for read cycles: 3971012
2banks busy for write cycles: 4417357
3banks busy for read cycles: 501880
3banks busy for write cycles: 1710886
4banks busy for read cycles: 223117
4banks busy for write cycles: 860923
5banks busy for read cycles: 97725
5banks busy for write cycles: 505988
6banks busy for read cycles: 72825
6banks busy for write cycles: 323219
7banks busy for read cycles: 47312
7banks busy for write cycles: 258318
8banks busy for read cycles: 57099
8banks busy for write cycles: 258575

CPU 0 Branch Prediction Accuracy: 99.8118% MPKI: 0.33607 Average ROB Occupancy at Mispredict: 42.9529
Branch types
NOT_BRANCH: 164293640 82.1468%
BRANCH_DIRECT_JUMP: 1737856 0.868928%
BRANCH_INDIRECT: 9415712 4.70786%
BRANCH_CONDITIONAL: 18256214 9.12811%
BRANCH_DIRECT_CALL: 2474421 1.23721%
BRANCH_INDIRECT_CALL: 673221 0.33661%
BRANCH_RETURN: 3148634 1.57432%
BRANCH_OTHER: 0 0%

DRAM PAGES: 1048576
Allocated PAGES: 6527
