
*** ChampSim Multicore Out-of-Order Simulator ***

Warmup Instructions: 50000000
Simulation Instructions: 200000000
Number of CPUs: 1
LLC sets: 2048
LLC ways: 16
Off-chip DRAM Size: 4096 MB Channels: 1 Width: 64-bit Data Rate: 6400 MT/s
CPU 0 runs traces/spec2k17/srv_72.champsimtrace.xz
.xz
BTB has LRU replacement policy
ITLB has LRU replacement policy
DTLB has LRU replacement policy
STLB has LRU replacement policy
L1I has LRU replacement policy
L1D has LRU replacement policy
Initialize SRRIP state for L2C
Initialize DRRIP state for LLC
Heartbeat CPU 0 instructions: 10000002 cycles: 2830962 heartbeat IPC: 3.53237 cumulative IPC: 3.53237 (Simulation time: 0 hr 0 min 29 sec) 
Heartbeat CPU 0 instructions: 20000002 cycles: 5657896 heartbeat IPC: 3.5374 cumulative IPC: 3.53488 (Simulation time: 0 hr 0 min 55 sec) 
Heartbeat CPU 0 instructions: 30000002 cycles: 8485743 heartbeat IPC: 3.53626 cumulative IPC: 3.53534 (Simulation time: 0 hr 1 min 21 sec) 
*** Reached end of trace for Core: 0 Repeating trace: traces/spec2k17/srv_72.champsimtrace.xz
Heartbeat CPU 0 instructions: 40000003 cycles: 11309700 heartbeat IPC: 3.54113 cumulative IPC: 3.53679 (Simulation time: 0 hr 1 min 50 sec) 
Heartbeat CPU 0 instructions: 50000001 cycles: 14134516 heartbeat IPC: 3.54005 cumulative IPC: 3.53744 (Simulation time: 0 hr 2 min 18 sec) 

Warmup complete CPU 0 instructions: 50000001 cycles: 14134516 (Simulation time: 0 hr 2 min 18 sec) 

Heartbeat CPU 0 instructions: 60000001 cycles: 47408835 heartbeat IPC: 0.300532 cumulative IPC: 0.300532 (Simulation time: 0 hr 3 min 8 sec) 
*** Reached end of trace for Core: 0 Repeating trace: traces/spec2k17/srv_72.champsimtrace.xz
Heartbeat CPU 0 instructions: 70000001 cycles: 80569655 heartbeat IPC: 0.301561 cumulative IPC: 0.301046 (Simulation time: 0 hr 3 min 51 sec) 
Heartbeat CPU 0 instructions: 80000002 cycles: 113734668 heartbeat IPC: 0.301523 cumulative IPC: 0.301204 (Simulation time: 0 hr 4 min 44 sec) 
Heartbeat CPU 0 instructions: 90000002 cycles: 146876856 heartbeat IPC: 0.30173 cumulative IPC: 0.301336 (Simulation time: 0 hr 5 min 26 sec) 
*** Reached end of trace for Core: 0 Repeating trace: traces/spec2k17/srv_72.champsimtrace.xz
Heartbeat CPU 0 instructions: 100000002 cycles: 179854845 heartbeat IPC: 0.303233 cumulative IPC: 0.301713 (Simulation time: 0 hr 6 min 23 sec) 
Heartbeat CPU 0 instructions: 110000000 cycles: 212538961 heartbeat IPC: 0.305959 cumulative IPC: 0.302413 (Simulation time: 0 hr 7 min 15 sec) 
Heartbeat CPU 0 instructions: 120000000 cycles: 245142372 heartbeat IPC: 0.306716 cumulative IPC: 0.30302 (Simulation time: 0 hr 7 min 59 sec) 
*** Reached end of trace for Core: 0 Repeating trace: traces/spec2k17/srv_72.champsimtrace.xz
Heartbeat CPU 0 instructions: 130000000 cycles: 277699093 heartbeat IPC: 0.307156 cumulative IPC: 0.303531 (Simulation time: 0 hr 8 min 42 sec) 
Heartbeat CPU 0 instructions: 140000000 cycles: 310242175 heartbeat IPC: 0.307285 cumulative IPC: 0.303944 (Simulation time: 0 hr 9 min 23 sec) 
Heartbeat CPU 0 instructions: 150000000 cycles: 342793663 heartbeat IPC: 0.307206 cumulative IPC: 0.304267 (Simulation time: 0 hr 10 min 1 sec) 
*** Reached end of trace for Core: 0 Repeating trace: traces/spec2k17/srv_72.champsimtrace.xz
Heartbeat CPU 0 instructions: 160000000 cycles: 375287836 heartbeat IPC: 0.307747 cumulative IPC: 0.30458 (Simulation time: 0 hr 10 min 43 sec) 
Heartbeat CPU 0 instructions: 170000001 cycles: 407779294 heartbeat IPC: 0.307773 cumulative IPC: 0.304843 (Simulation time: 0 hr 11 min 33 sec) 
Heartbeat CPU 0 instructions: 180000000 cycles: 440280137 heartbeat IPC: 0.307684 cumulative IPC: 0.30506 (Simulation time: 0 hr 12 min 16 sec) 
*** Reached end of trace for Core: 0 Repeating trace: traces/spec2k17/srv_72.champsimtrace.xz
Heartbeat CPU 0 instructions: 190000001 cycles: 472759080 heartbeat IPC: 0.307892 cumulative IPC: 0.305261 (Simulation time: 0 hr 12 min 58 sec) 
Heartbeat CPU 0 instructions: 200000001 cycles: 505236320 heartbeat IPC: 0.307908 cumulative IPC: 0.305436 (Simulation time: 0 hr 13 min 41 sec) 
Heartbeat CPU 0 instructions: 210000000 cycles: 537723253 heartbeat IPC: 0.307816 cumulative IPC: 0.305583 (Simulation time: 0 hr 14 min 42 sec) 
*** Reached end of trace for Core: 0 Repeating trace: traces/spec2k17/srv_72.champsimtrace.xz
Heartbeat CPU 0 instructions: 220000000 cycles: 570171593 heartbeat IPC: 0.308182 cumulative IPC: 0.305735 (Simulation time: 0 hr 15 min 24 sec) 
Heartbeat CPU 0 instructions: 230000000 cycles: 602631141 heartbeat IPC: 0.308076 cumulative IPC: 0.305864 (Simulation time: 0 hr 16 min 7 sec) 
Heartbeat CPU 0 instructions: 240000000 cycles: 635113804 heartbeat IPC: 0.307857 cumulative IPC: 0.305968 (Simulation time: 0 hr 16 min 48 sec) 
Heartbeat CPU 0 instructions: 250000002 cycles: 667621858 heartbeat IPC: 0.307616 cumulative IPC: 0.30605 (Simulation time: 0 hr 17 min 30 sec) 
Finished CPU 0 instructions: 200000001 cycles: 653487342 cumulative IPC: 0.30605 (Simulation time: 0 hr 17 min 30 sec) 

ChampSim completed all CPUs

Region of Interest Statistics

CPU 0 cumulative IPC: 0.30605 instructions: 200000001 cycles: 653487342
ITLB TOTAL     ACCESS:   35337030  HIT:   32922296  MISS:    2414734  HIT %:    93.1666  MISS %:    6.83344   MPKI: 12.0737
ITLB LOAD TRANSLATION ACCESS:   35337030  HIT:   32922296  MISS:    2414734  HIT %:    93.1666  MISS %:    6.83344   MPKI: 12.0737
ITLB PREFETCH  REQUESTED:          0  ISSUED:          0  USEFUL:          0  USELESS:          0
ITLB USEFUL LOAD PREFETCHES:          0 PREFETCH ISSUED TO LOWER LEVEL:          0  ACCURACY: -nan
ITLB TIMELY PREFETCHES:          0 LATE PREFETCHES: 0 DROPPED PREFETCHES: 0
ITLB PREFETCHES SAME FILL-ORIGIN LEVEL: 0 DIFFERENT FILL-ORIGIN LEVEL: 0
ITLB AVERAGE MISS LATENCY: 9.02517 cycles
ITLB RQ	ACCESS:   41881143	FORWARD:          0	MERGED:    5986756	TO_CACHE:   35894387

DTLB TOTAL     ACCESS:   47277688  HIT:   45306861  MISS:    1970827  HIT %:    95.8314  MISS %:    4.16862   MPKI: 9.85413
DTLB LOAD TRANSLATION ACCESS:   47277688  HIT:   45306861  MISS:    1970827  HIT %:    95.8314  MISS %:    4.16862   MPKI: 9.85413
DTLB PREFETCH  REQUESTED:          0  ISSUED:          0  USEFUL:          0  USELESS:          0
DTLB USEFUL LOAD PREFETCHES:          0 PREFETCH ISSUED TO LOWER LEVEL:          0  ACCURACY: -nan
DTLB TIMELY PREFETCHES:          0 LATE PREFETCHES: 0 DROPPED PREFETCHES: 0
DTLB PREFETCHES SAME FILL-ORIGIN LEVEL: 0 DIFFERENT FILL-ORIGIN LEVEL: 0
DTLB AVERAGE MISS LATENCY: 8.38478 cycles
DTLB RQ	ACCESS:   62484044	FORWARD:          0	MERGED:   15158550	TO_CACHE:   47325494

STLB TOTAL     ACCESS:   19580344  HIT:   19578518  MISS:       1826  HIT %:    99.9907  MISS %: 0.00932568   MPKI: 0.00913
STLB LOAD TRANSLATION ACCESS:    4385561  HIT:    4384049  MISS:       1512  HIT %:    99.9655  MISS %:  0.0344768   MPKI: 0.00756
STLB TRANSLATION FROM L1D PREFETCHER ACCESS:   15194783  HIT:   15194469  MISS:        314  HIT %:    99.9979  MISS %:  0.0020665   MPKI: 0.00157
STLB PREFETCH  REQUESTED:          0  ISSUED:          0  USEFUL:        282  USELESS:         31
STLB USEFUL LOAD PREFETCHES:        282 PREFETCH ISSUED TO LOWER LEVEL:          0  ACCURACY: inf
STLB TIMELY PREFETCHES:        282 LATE PREFETCHES: 4 DROPPED PREFETCHES: 132260
STLB PREFETCHES SAME FILL-ORIGIN LEVEL: 0 DIFFERENT FILL-ORIGIN LEVEL: 0
STLB AVERAGE MISS LATENCY: 31.3154 cycles
STLB RQ	ACCESS:   24454140	FORWARD:          0	MERGED:    4741523	TO_CACHE:   19712617

STLB Hit, L1D data hit: 0
STLB Hit, L2C data hit: 0
STLB Hit, LLC data hit: 0
STLB Hit, LLC data miss: 0
STLB STLB hints to L2: 0
L1D TOTAL     ACCESS:   79919151  HIT:   75344739  MISS:    4574412  HIT %:    94.2762  MISS %:     5.7238   MPKI: 22.8721
L1D LOAD      ACCESS:   34583008  HIT:   32627002  MISS:    1956006  HIT %:     94.344  MISS %:    5.65597   MPKI: 9.78003
L1D RFO       ACCESS:   26171126  HIT:   25064230  MISS:    1106896  HIT %:    95.7705  MISS %:    4.22946   MPKI: 5.53448
L1D PREFETCH  ACCESS:   19165017  HIT:   17653507  MISS:    1511510  HIT %:    92.1132  MISS %:    7.88682   MPKI: 7.55755
AGUS PREFETCH L1 MISS: 0
L1D PREFETCH  REQUESTED:   42278811  ISSUED:   42278746  USEFUL:    1369400  USELESS:     142077
L1D USEFUL LOAD PREFETCHES:    1369400 PREFETCH ISSUED TO LOWER LEVEL:    1915877  ACCURACY: 71.4764
L1D TIMELY PREFETCHES:    1369400 LATE PREFETCHES: 396776 DROPPED PREFETCHES: 156815
L1D PREFETCHES SAME FILL-ORIGIN LEVEL: 1915877 DIFFERENT FILL-ORIGIN LEVEL: 0
L1D AVERAGE MISS LATENCY: 3.72926e+07 cycles
L1D RQ	ACCESS:   47139645	FORWARD:          0	MERGED:   12113547	TO_CACHE:   34672365
L1D WQ	ACCESS:   27957224	FORWARD:     393781	MERGED:     145545	TO_CACHE:   27811679
L1D PQ	ACCESS:   22210167	FORWARD:          0	MERGED:    2101540	TO_CACHE:   20068579

L1D UNIQUE REGIONS ACCESSED: 0
L1D REGIONS CONFLICTS: 0
L1D Cross Page Prefetch Requests: 16600610
L1D Same Page Prefetch Requests: 5878733
L1D ROI Sum of L1D PQ occupancy: 292513096
L1D PREFETCHES PUSHED FROM L2C: 0
L1I TOTAL     ACCESS:   40143449  HIT:   28018739  MISS:   12124710  HIT %:    69.7965  MISS %:    30.2035   MPKI: 60.6235
L1I LOAD      ACCESS:   40143449  HIT:   28018739  MISS:   12124710  HIT %:    69.7965  MISS %:    30.2035   MPKI: 60.6235
L1I PREFETCH  REQUESTED:          0  ISSUED:          0  USEFUL:          0  USELESS:          0
L1I USEFUL LOAD PREFETCHES:          0 PREFETCH ISSUED TO LOWER LEVEL:          0  ACCURACY: -nan
L1I TIMELY PREFETCHES:          0 LATE PREFETCHES: 0 DROPPED PREFETCHES: 0
L1I PREFETCHES SAME FILL-ORIGIN LEVEL: 0 DIFFERENT FILL-ORIGIN LEVEL: 0
L1I AVERAGE MISS LATENCY: 15.0786 cycles
L1I RQ	ACCESS:   58839481	FORWARD:          0	MERGED:   16958338	TO_CACHE:   41881143

BTB TOTAL     ACCESS:   30217395  HIT:   16754579  MISS:   13462816  HIT %:    55.4468  MISS %:    44.5532   MPKI: 67.3141
BTB BRANCH_DIRECT_JUMP	ACCESS:    1948775  HIT:    1081587  MISS:     867188
BTB BRANCH_INDIRECT	ACCESS:   12729317  HIT:    7598469  MISS:    5130848
BTB BRANCH_CONDITIONAL	ACCESS:    5646163  HIT:    4270714  MISS:    1375449
BTB BRANCH_DIRECT_CALL	ACCESS:    4157362  HIT:    1954239  MISS:    2203123
BTB BRANCH_INDIRECT_CALL	ACCESS:     789217  HIT:     387763  MISS:     401454
BTB BRANCH_RETURN	ACCESS:    4946561  HIT:    1461807  MISS:    3484754
BTB BRANCH_OTHER ACCESS:          0  HIT:          0  MISS:          0

L2C TOTAL     ACCESS:   19163144  HIT:   18485521  MISS:     677623  HIT %:    96.4639  MISS %:    3.53607   MPKI: 3.38811
L2C LOAD      ACCESS:   13683605  HIT:   13151790  MISS:     531815  HIT %:    96.1135  MISS %:    3.88651   MPKI: 2.65907
L2C DATA LOAD MPKI: 0.631035
L2C INSTRUCTION LOAD MPKI: 2.02804
L2C RFO       ACCESS:    1099305  HIT:    1063092  MISS:      36213  HIT %:    96.7058  MISS %:    3.29417   MPKI: 0.181065
L2C PREFETCH  ACCESS:    1915821  HIT:    1832534  MISS:      83287  HIT %:    95.6527  MISS %:    4.34733   MPKI: 0.416435
AGUS PREFETCH L1 MISS: 0
L2C DATA PREFETCH MPKI: 0.416435
L2C INSTRUCTION PREFETCH MPKI: 0
L2C WRITEBACK ACCESS:    2288691  HIT:    2269584  MISS:      19107  HIT %:    99.1652  MISS %:   0.834844   MPKI: 0.095535
L2C LOAD TRANSLATION ACCESS:       1513  HIT:        857  MISS:        656  HIT %:    56.6424  MISS %:    43.3576   MPKI: 0.00328
L2C TRANSLATION FROM L1D PREFETCHER ACCESS:     174209  HIT:     167664  MISS:       6545  HIT %:     96.243  MISS %:    3.75698   MPKI: 0.032725
L2C PREFETCH  REQUESTED:          0  ISSUED:          0  USEFUL:       5520  USELESS:      84402
L2C USEFUL LOAD PREFETCHES:       5520 PREFETCH ISSUED TO LOWER LEVEL:      83287  ACCURACY: 6.62768
L2C TIMELY PREFETCHES:       5520 LATE PREFETCHES: 0 DROPPED PREFETCHES: 0
L2C PREFETCHES SAME FILL-ORIGIN LEVEL: 0 DIFFERENT FILL-ORIGIN LEVEL: 0
L2C AVERAGE MISS LATENCY: 29.5655 cycles
L2C RQ	ACCESS:   14958967	FORWARD:          0	MERGED:          0	TO_CACHE:   14958632
L2C WQ	ACCESS:    2288691	FORWARD:        391	MERGED:          0	TO_CACHE:    2288691
L2C PQ	ACCESS:    1915877	FORWARD:          0	MERGED:          0	TO_CACHE:    1915821

L2C Instructions Evicting Data 116192
L2C Translations Evicting Data 3476
L2C Data Evicting Data 137502
L2C Instructions Evicting Instructions 285930
L2C Translations Evicting Instructions 3540
L2C Data Evicting Instructions 104821
L2C Instructions Evicting Translations 3486
L2C Translations Evicting Translations 184
L2C Data Evicting Translations 3384
L2C Dense regions hint from L2: 0
PSCL5 TOTAL     ACCESS:     133402  HIT:     133402  MISS:          0  HIT %:        100  MISS %:          0   MPKI: 0
PSCL5 LOAD TRANSLATION ACCESS:       1508  HIT:       1508  MISS:          0  HIT %:        100  MISS %:          0   MPKI: 0
PSCL5 TRANSLATION FROM L1D PREFETCHER ACCESS:     131894  HIT:     131894  MISS:          0  HIT %:        100  MISS %:          0   MPKI: 0
PSCL5 PREFETCH  REQUESTED:          0  ISSUED:          0  USEFUL:          0  USELESS:          0
PSCL5 USEFUL LOAD PREFETCHES:          0 PREFETCH ISSUED TO LOWER LEVEL:          0  ACCURACY: -nan
PSCL5 TIMELY PREFETCHES:          0 LATE PREFETCHES: 0 DROPPED PREFETCHES: 0
PSCL5 PREFETCHES SAME FILL-ORIGIN LEVEL: 0 DIFFERENT FILL-ORIGIN LEVEL: 0

PSCL4 TOTAL     ACCESS:     129125  HIT:     129125  MISS:          0  HIT %:        100  MISS %:          0   MPKI: 0
PSCL4 LOAD TRANSLATION ACCESS:       1508  HIT:       1508  MISS:          0  HIT %:        100  MISS %:          0   MPKI: 0
PSCL4 TRANSLATION FROM L1D PREFETCHER ACCESS:     127617  HIT:     127617  MISS:          0  HIT %:        100  MISS %:          0   MPKI: 0
PSCL4 PREFETCH  REQUESTED:          0  ISSUED:          0  USEFUL:          0  USELESS:          0
PSCL4 USEFUL LOAD PREFETCHES:          0 PREFETCH ISSUED TO LOWER LEVEL:          0  ACCURACY: -nan
PSCL4 TIMELY PREFETCHES:          0 LATE PREFETCHES: 0 DROPPED PREFETCHES: 0
PSCL4 PREFETCHES SAME FILL-ORIGIN LEVEL: 0 DIFFERENT FILL-ORIGIN LEVEL: 0

PSCL3 TOTAL     ACCESS:     115994  HIT:     115994  MISS:          0  HIT %:        100  MISS %:          0   MPKI: 0
PSCL3 LOAD TRANSLATION ACCESS:       1508  HIT:       1508  MISS:          0  HIT %:        100  MISS %:          0   MPKI: 0
PSCL3 TRANSLATION FROM L1D PREFETCHER ACCESS:     114486  HIT:     114486  MISS:          0  HIT %:        100  MISS %:          0   MPKI: 0
PSCL3 PREFETCH  REQUESTED:          0  ISSUED:          0  USEFUL:          0  USELESS:          0
PSCL3 USEFUL LOAD PREFETCHES:          0 PREFETCH ISSUED TO LOWER LEVEL:          0  ACCURACY: -nan
PSCL3 TIMELY PREFETCHES:          0 LATE PREFETCHES: 0 DROPPED PREFETCHES: 0
PSCL3 PREFETCHES SAME FILL-ORIGIN LEVEL: 0 DIFFERENT FILL-ORIGIN LEVEL: 0

PSCL2 TOTAL     ACCESS:      62948  HIT:      62943  MISS:          5  HIT %:    99.9921  MISS %: 0.00794306   MPKI: 2.5e-05
PSCL2 LOAD TRANSLATION ACCESS:       1508  HIT:       1503  MISS:          5  HIT %:    99.6684  MISS %:   0.331565   MPKI: 2.5e-05
PSCL2 TRANSLATION FROM L1D PREFETCHER ACCESS:      61440  HIT:      61440  MISS:          0  HIT %:        100  MISS %:          0   MPKI: 0
PSCL2 PREFETCH  REQUESTED:          0  ISSUED:          0  USEFUL:          0  USELESS:          0
PSCL2 USEFUL LOAD PREFETCHES:          0 PREFETCH ISSUED TO LOWER LEVEL:          0  ACCURACY: -nan
PSCL2 TIMELY PREFETCHES:          0 LATE PREFETCHES: 0 DROPPED PREFETCHES: 0
PSCL2 PREFETCHES SAME FILL-ORIGIN LEVEL: 0 DIFFERENT FILL-ORIGIN LEVEL: 0

LLC TOTAL     ACCESS:     706914  HIT:     705240  MISS:       1674  HIT %:    99.7632  MISS %:   0.236804   MPKI: 0.00837
LLC LOAD      ACCESS:     531815  HIT:     531194  MISS:        621  HIT %:    99.8832  MISS %:    0.11677   MPKI: 0.003105
LLC RFO       ACCESS:      36213  HIT:      36213  MISS:          0  HIT %:        100  MISS %:          0   MPKI: 0
LLC PREFETCH  ACCESS:      83287  HIT:      82474  MISS:        813  HIT %:    99.0239  MISS %:   0.976143   MPKI: 0.004065
AGUS PREFETCH L1 MISS: 0
LLC WRITEBACK ACCESS:      48398  HIT:      48398  MISS:          0  HIT %:        100  MISS %:          0   MPKI: 0
LLC LOAD TRANSLATION ACCESS:        656  HIT:        655  MISS:          1  HIT %:    99.8476  MISS %:   0.152439   MPKI: 5e-06
LLC TRANSLATION FROM L1D PREFETCHER ACCESS:       6545  HIT:       6306  MISS:        239  HIT %:    96.3484  MISS %:    3.65164   MPKI: 0.001195
LLC PREFETCH  REQUESTED:          0  ISSUED:          0  USEFUL:       1675  USELESS:        264
LLC USEFUL LOAD PREFETCHES:       1675 PREFETCH ISSUED TO LOWER LEVEL:        813  ACCURACY: 206.027
LLC TIMELY PREFETCHES:       1675 LATE PREFETCHES: 0 DROPPED PREFETCHES: 0
LLC PREFETCHES SAME FILL-ORIGIN LEVEL: 0 DIFFERENT FILL-ORIGIN LEVEL: 0
LLC AVERAGE MISS LATENCY: 166.543 cycles
LLC RQ	ACCESS:     575229	FORWARD:          0	MERGED:          0	TO_CACHE:     575229
LLC WQ	ACCESS:      48398	FORWARD:          0	MERGED:          0	TO_CACHE:      48398
LLC PQ	ACCESS:      83287	FORWARD:          0	MERGED:          0	TO_CACHE:      83287

LLC Dense regions hint to LLC: 0

RAW hits: 1520664
Loads Generated: 48660309
Loads sent to L1D: 47139645
Stores Generated: 27957206
Stores sent to L1D: 27957224
Major fault: 0 Minor fault: 1236
Allocated PAGES: 1236
Completed 

DRAM Statistics
 CHANNEL 0
 RQ ROW_BUFFER_HIT:         68  ROW_BUFFER_MISS:       1606
 DBUS_CONGESTED:          0
 WQ ROW_BUFFER_HIT:          0  ROW_BUFFER_MISS:          0  FULL:          0

 AVG_CONGESTED_CYCLE: -
 All warmup complete: 2
Channel 0 Bank busy for read cycles: 0
Channel 0 Bank busy for write cycles: 0
Channel 0
Rank 0
0banks busy for read cycles: 653270240
0banks busy for write cycles: 0
1banks busy for read cycles: 194072
1banks busy for write cycles: 0
2banks busy for read cycles: 19283
2banks busy for write cycles: 0
3banks busy for read cycles: 3330
3banks busy for write cycles: 0
4banks busy for read cycles: 418
4banks busy for write cycles: 0
5banks busy for read cycles: 0
5banks busy for write cycles: 0
6banks busy for read cycles: 0
6banks busy for write cycles: 0
7banks busy for read cycles: 0
7banks busy for write cycles: 0
8banks busy for read cycles: 0
8banks busy for write cycles: 0

CPU 0 Branch Prediction Accuracy: 99.9104% MPKI: 0.15902 Average ROB Occupancy at Mispredict: 31.1738
Branch types
NOT_BRANCH: 164498173 82.2491%
BRANCH_DIRECT_JUMP: 1948775 0.974387%
BRANCH_INDIRECT: 12729317 6.36466%
BRANCH_CONDITIONAL: 10930530 5.46526%
BRANCH_DIRECT_CALL: 4157362 2.07868%
BRANCH_INDIRECT_CALL: 789217 0.394608%
BRANCH_RETURN: 4946561 2.47328%
BRANCH_OTHER: 0 0%

DRAM PAGES: 1048576
Allocated PAGES: 1236
