
*** ChampSim Multicore Out-of-Order Simulator ***

Warmup Instructions: 50000000
Simulation Instructions: 200000000
Number of CPUs: 1
LLC sets: 2048
LLC ways: 16
Off-chip DRAM Size: 4096 MB Channels: 1 Width: 64-bit Data Rate: 6400 MT/s
CPU 0 runs traces/spec2k17/srv_0.champsimtrace.xz
.xz
BTB has LRU replacement policy
ITLB has LRU replacement policy
DTLB has LRU replacement policy
STLB has LRU replacement policy
L1I has LRU replacement policy
L1D has LRU replacement policy
Initialize SRRIP state for L2C
Initialize DRRIP state for LLC
Heartbeat CPU 0 instructions: 10000003 cycles: 2781486 heartbeat IPC: 3.5952 cumulative IPC: 3.5952 (Simulation time: 0 hr 0 min 44 sec) 
Heartbeat CPU 0 instructions: 20000000 cycles: 5554398 heartbeat IPC: 3.60632 cumulative IPC: 3.60075 (Simulation time: 0 hr 1 min 29 sec) 
Heartbeat CPU 0 instructions: 30000001 cycles: 8327870 heartbeat IPC: 3.60559 cumulative IPC: 3.60236 (Simulation time: 0 hr 2 min 11 sec) 
*** Reached end of trace for Core: 0 Repeating trace: traces/spec2k17/srv_0.champsimtrace.xz
Heartbeat CPU 0 instructions: 40000002 cycles: 11103336 heartbeat IPC: 3.603 cumulative IPC: 3.60252 (Simulation time: 0 hr 2 min 50 sec) 
Heartbeat CPU 0 instructions: 50000000 cycles: 13876690 heartbeat IPC: 3.60574 cumulative IPC: 3.60316 (Simulation time: 0 hr 3 min 27 sec) 

Warmup complete CPU 0 instructions: 50000004 cycles: 13876691 (Simulation time: 0 hr 3 min 27 sec) 

Heartbeat CPU 0 instructions: 60000000 cycles: 37401013 heartbeat IPC: 0.425092 cumulative IPC: 0.425092 (Simulation time: 0 hr 4 min 20 sec) 
*** Reached end of trace for Core: 0 Repeating trace: traces/spec2k17/srv_0.champsimtrace.xz
Heartbeat CPU 0 instructions: 70000001 cycles: 61253047 heartbeat IPC: 0.419252 cumulative IPC: 0.422151 (Simulation time: 0 hr 5 min 17 sec) 
Heartbeat CPU 0 instructions: 80000001 cycles: 84773332 heartbeat IPC: 0.425165 cumulative IPC: 0.423151 (Simulation time: 0 hr 6 min 11 sec) 
Heartbeat CPU 0 instructions: 90000002 cycles: 108084760 heartbeat IPC: 0.428974 cumulative IPC: 0.424592 (Simulation time: 0 hr 7 min 7 sec) 
*** Reached end of trace for Core: 0 Repeating trace: traces/spec2k17/srv_0.champsimtrace.xz
Heartbeat CPU 0 instructions: 100000001 cycles: 131918772 heartbeat IPC: 0.419568 cumulative IPC: 0.423578 (Simulation time: 0 hr 8 min 9 sec) 
Heartbeat CPU 0 instructions: 110000000 cycles: 155545780 heartbeat IPC: 0.423244 cumulative IPC: 0.423522 (Simulation time: 0 hr 9 min 13 sec) 
Heartbeat CPU 0 instructions: 120000002 cycles: 179043706 heartbeat IPC: 0.42557 cumulative IPC: 0.423813 (Simulation time: 0 hr 10 min 18 sec) 
*** Reached end of trace for Core: 0 Repeating trace: traces/spec2k17/srv_0.champsimtrace.xz
Heartbeat CPU 0 instructions: 130000000 cycles: 202767633 heartbeat IPC: 0.421515 cumulative IPC: 0.423525 (Simulation time: 0 hr 11 min 26 sec) 
Heartbeat CPU 0 instructions: 140000003 cycles: 226279142 heartbeat IPC: 0.425324 cumulative IPC: 0.423724 (Simulation time: 0 hr 12 min 36 sec) 
Heartbeat CPU 0 instructions: 150000000 cycles: 249718615 heartbeat IPC: 0.426631 cumulative IPC: 0.424013 (Simulation time: 0 hr 13 min 50 sec) 
*** Reached end of trace for Core: 0 Repeating trace: traces/spec2k17/srv_0.champsimtrace.xz
Heartbeat CPU 0 instructions: 160000002 cycles: 273116334 heartbeat IPC: 0.427392 cumulative IPC: 0.424318 (Simulation time: 0 hr 15 min 13 sec) 
Heartbeat CPU 0 instructions: 170000001 cycles: 296814086 heartbeat IPC: 0.421981 cumulative IPC: 0.424122 (Simulation time: 0 hr 16 min 41 sec) 
Heartbeat CPU 0 instructions: 180000001 cycles: 320260432 heartbeat IPC: 0.426506 cumulative IPC: 0.424304 (Simulation time: 0 hr 18 min 15 sec) 
*** Reached end of trace for Core: 0 Repeating trace: traces/spec2k17/srv_0.champsimtrace.xz
Heartbeat CPU 0 instructions: 190000000 cycles: 343574159 heartbeat IPC: 0.428932 cumulative IPC: 0.424632 (Simulation time: 0 hr 20 min 2 sec) 
Heartbeat CPU 0 instructions: 200000001 cycles: 367475997 heartbeat IPC: 0.418378 cumulative IPC: 0.424209 (Simulation time: 0 hr 21 min 43 sec) 
Heartbeat CPU 0 instructions: 210000000 cycles: 390796954 heartbeat IPC: 0.428799 cumulative IPC: 0.424493 (Simulation time: 0 hr 23 min 33 sec) 
*** Reached end of trace for Core: 0 Repeating trace: traces/spec2k17/srv_0.champsimtrace.xz
Heartbeat CPU 0 instructions: 220000000 cycles: 414249486 heartbeat IPC: 0.426393 cumulative IPC: 0.424604 (Simulation time: 0 hr 25 min 40 sec) 
Heartbeat CPU 0 instructions: 230000003 cycles: 438131970 heartbeat IPC: 0.418717 cumulative IPC: 0.424273 (Simulation time: 0 hr 27 min 33 sec) 
Heartbeat CPU 0 instructions: 240000003 cycles: 461073367 heartbeat IPC: 0.435893 cumulative IPC: 0.424869 (Simulation time: 0 hr 29 min 42 sec) 
*** Reached end of trace for Core: 0 Repeating trace: traces/spec2k17/srv_0.champsimtrace.xz
Heartbeat CPU 0 instructions: 250000003 cycles: 484546909 heartbeat IPC: 0.426012 cumulative IPC: 0.424926 (Simulation time: 0 hr 31 min 27 sec) 
Finished CPU 0 instructions: 200000003 cycles: 470670219 cumulative IPC: 0.424926 (Simulation time: 0 hr 31 min 27 sec) 

ChampSim completed all CPUs

Region of Interest Statistics

CPU 0 cumulative IPC: 0.424926 instructions: 200000003 cycles: 470670219
ITLB TOTAL     ACCESS:   31489906  HIT:   30686066  MISS:     803840  HIT %:    97.4473  MISS %:    2.55269   MPKI: 4.0192
ITLB LOAD TRANSLATION ACCESS:   31489906  HIT:   30686066  MISS:     803840  HIT %:    97.4473  MISS %:    2.55269   MPKI: 4.0192
ITLB PREFETCH  REQUESTED:          0  ISSUED:          0  USEFUL:          0  USELESS:          0
ITLB USEFUL LOAD PREFETCHES:          0 PREFETCH ISSUED TO LOWER LEVEL:          0  ACCURACY: -nan
ITLB TIMELY PREFETCHES:          0 LATE PREFETCHES: 0 DROPPED PREFETCHES: 0
ITLB PREFETCHES SAME FILL-ORIGIN LEVEL: 0 DIFFERENT FILL-ORIGIN LEVEL: 0
ITLB AVERAGE MISS LATENCY: 15.6322 cycles
ITLB RQ	ACCESS:   38369483	FORWARD:          0	MERGED:    6684995	TO_CACHE:   31684488

DTLB TOTAL     ACCESS:   37412267  HIT:   34862315  MISS:    2549952  HIT %:    93.1842  MISS %:    6.81582   MPKI: 12.7498
DTLB LOAD TRANSLATION ACCESS:   37412267  HIT:   34862315  MISS:    2549952  HIT %:    93.1842  MISS %:    6.81582   MPKI: 12.7498
DTLB PREFETCH  REQUESTED:          0  ISSUED:          0  USEFUL:          0  USELESS:          0
DTLB USEFUL LOAD PREFETCHES:          0 PREFETCH ISSUED TO LOWER LEVEL:          0  ACCURACY: -nan
DTLB TIMELY PREFETCHES:          0 LATE PREFETCHES: 0 DROPPED PREFETCHES: 0
DTLB PREFETCHES SAME FILL-ORIGIN LEVEL: 0 DIFFERENT FILL-ORIGIN LEVEL: 0
DTLB AVERAGE MISS LATENCY: 13.7701 cycles
DTLB RQ	ACCESS:   47818396	FORWARD:          0	MERGED:   10253300	TO_CACHE:   37565096

STLB TOTAL     ACCESS:    7693378  HIT:    7237181  MISS:     456197  HIT %:    94.0703  MISS %:    5.92974   MPKI: 2.28098
STLB LOAD TRANSLATION ACCESS:    3353792  HIT:    2899574  MISS:     454218  HIT %:    86.4566  MISS %:    13.5434   MPKI: 2.27109
STLB TRANSLATION FROM L1D PREFETCHER ACCESS:    4339586  HIT:    4337607  MISS:       1979  HIT %:    99.9544  MISS %:  0.0456034   MPKI: 0.009895
STLB PREFETCH  REQUESTED:          0  ISSUED:          0  USEFUL:       1651  USELESS:        327
STLB USEFUL LOAD PREFETCHES:       1651 PREFETCH ISSUED TO LOWER LEVEL:          0  ACCURACY: inf
STLB TIMELY PREFETCHES:       1651 LATE PREFETCHES: 435 DROPPED PREFETCHES: 22768
STLB PREFETCHES SAME FILL-ORIGIN LEVEL: 0 DIFFERENT FILL-ORIGIN LEVEL: 0
STLB AVERAGE MISS LATENCY: 39.6634 cycles
STLB RQ	ACCESS:    9108020	FORWARD:          0	MERGED:    1391371	TO_CACHE:    7716649

STLB Hit, L1D data hit: 0
STLB Hit, L2C data hit: 0
STLB Hit, LLC data hit: 0
STLB Hit, LLC data miss: 0
STLB STLB hints to L2: 0
L1D TOTAL     ACCESS:   52969793  HIT:   50451197  MISS:    2518596  HIT %:    95.2452  MISS %:    4.75478   MPKI: 12.593
L1D LOAD      ACCESS:   27838508  HIT:   25705491  MISS:    2133017  HIT %:    92.3379  MISS %:    7.66211   MPKI: 10.6651
L1D RFO       ACCESS:   19428725  HIT:   19080657  MISS:     348068  HIT %:    98.2085  MISS %:    1.79151   MPKI: 1.74034
L1D PREFETCH  ACCESS:    5702560  HIT:    5665049  MISS:      37511  HIT %:    99.3422  MISS %:   0.657792   MPKI: 0.187555
AGUS PREFETCH L1 MISS: 0
L1D PREFETCH  REQUESTED:   12181552  ISSUED:   12181288  USEFUL:      23406  USELESS:      14099
L1D USEFUL LOAD PREFETCHES:      23406 PREFETCH ISSUED TO LOWER LEVEL:      48256  ACCURACY: 48.5038
L1D TIMELY PREFETCHES:      23406 LATE PREFETCHES: 10611 DROPPED PREFETCHES: 28289
L1D PREFETCHES SAME FILL-ORIGIN LEVEL: 48256 DIFFERENT FILL-ORIGIN LEVEL: 0
L1D AVERAGE MISS LATENCY: 1.33035e+06 cycles
L1D RQ	ACCESS:   42087122	FORWARD:          0	MERGED:   13913209	TO_CACHE:   27981084
L1D WQ	ACCESS:   20137758	FORWARD:     267871	MERGED:     300446	TO_CACHE:   19837312
L1D PQ	ACCESS:    6427060	FORWARD:          0	MERGED:     597790	TO_CACHE:    5754228

L1D UNIQUE REGIONS ACCESSED: 0
L1D REGIONS CONFLICTS: 0
L1D Cross Page Prefetch Requests: 5451922
L1D Same Page Prefetch Requests: 1570946
L1D ROI Sum of L1D PQ occupancy: 83867997
L1D PREFETCHES PUSHED FROM L2C: 0
L1I TOTAL     ACCESS:   36682486  HIT:   31517710  MISS:    5164776  HIT %:    85.9203  MISS %:    14.0797   MPKI: 25.8239
L1I LOAD      ACCESS:   36682486  HIT:   31517710  MISS:    5164776  HIT %:    85.9203  MISS %:    14.0797   MPKI: 25.8239
L1I PREFETCH  REQUESTED:          0  ISSUED:          0  USEFUL:          0  USELESS:          0
L1I USEFUL LOAD PREFETCHES:          0 PREFETCH ISSUED TO LOWER LEVEL:          0  ACCURACY: -nan
L1I TIMELY PREFETCHES:          0 LATE PREFETCHES: 0 DROPPED PREFETCHES: 0
L1I PREFETCHES SAME FILL-ORIGIN LEVEL: 0 DIFFERENT FILL-ORIGIN LEVEL: 0
L1I AVERAGE MISS LATENCY: 27.6779 cycles
L1I RQ	ACCESS:   57147242	FORWARD:          0	MERGED:   18777759	TO_CACHE:   38369483

BTB TOTAL     ACCESS:   22550836  HIT:   17495671  MISS:    5055165  HIT %:    77.5832  MISS %:    22.4168   MPKI: 25.2758
BTB BRANCH_DIRECT_JUMP	ACCESS:    1746702  HIT:    1443261  MISS:     303441
BTB BRANCH_INDIRECT	ACCESS:    9682796  HIT:    7307546  MISS:    2375250
BTB BRANCH_CONDITIONAL	ACCESS:    4538075  HIT:    4055500  MISS:     482575
BTB BRANCH_DIRECT_CALL	ACCESS:    2563120  HIT:    1968742  MISS:     594378
BTB BRANCH_INDIRECT_CALL	ACCESS:     725676  HIT:     668377  MISS:      57299
BTB BRANCH_RETURN	ACCESS:    3294467  HIT:    2052245  MISS:    1242222
BTB BRANCH_OTHER ACCESS:          0  HIT:          0  MISS:          0

L2C TOTAL     ACCESS:    9291706  HIT:    5404958  MISS:    3886748  HIT %:    58.1697  MISS %:    41.8303   MPKI: 19.4337
L2C LOAD      ACCESS:    7287178  HIT:    3864790  MISS:    3422388  HIT %:    53.0355  MISS %:    46.9645   MPKI: 17.1119
L2C DATA LOAD MPKI: 5.66907
L2C INSTRUCTION LOAD MPKI: 11.4429
L2C RFO       ACCESS:     347934  HIT:     170966  MISS:     176968  HIT %:    49.1375  MISS %:    50.8625   MPKI: 0.88484
L2C PREFETCH  ACCESS:      48248  HIT:      39080  MISS:       9168  HIT %:    80.9982  MISS %:    19.0018   MPKI: 0.04584
AGUS PREFETCH L1 MISS: 0
L2C DATA PREFETCH MPKI: 0.04584
L2C INSTRUCTION PREFETCH MPKI: 0
L2C WRITEBACK ACCESS:     999927  HIT:     941847  MISS:      58080  HIT %:    94.1916  MISS %:    5.80842   MPKI: 0.2904
L2C LOAD TRANSLATION ACCESS:     575519  HIT:     362175  MISS:     213344  HIT %:    62.9302  MISS %:    37.0698   MPKI: 1.06672
L2C TRANSLATION FROM L1D PREFETCHER ACCESS:      32900  HIT:      26100  MISS:       6800  HIT %:    79.3313  MISS %:    20.6687   MPKI: 0.034
L2C PREFETCH  REQUESTED:          0  ISSUED:          0  USEFUL:       5521  USELESS:      10441
L2C USEFUL LOAD PREFETCHES:       5521 PREFETCH ISSUED TO LOWER LEVEL:       9168  ACCURACY: 60.2203
L2C TIMELY PREFETCHES:       5521 LATE PREFETCHES: 0 DROPPED PREFETCHES: 0
L2C PREFETCHES SAME FILL-ORIGIN LEVEL: 0 DIFFERENT FILL-ORIGIN LEVEL: 0
L2C AVERAGE MISS LATENCY: 39.6637 cycles
L2C RQ	ACCESS:    8243535	FORWARD:          0	MERGED:          0	TO_CACHE:    8243531
L2C WQ	ACCESS:     999927	FORWARD:         12	MERGED:          0	TO_CACHE:     999927
L2C PQ	ACCESS:      48256	FORWARD:          0	MERGED:          0	TO_CACHE:      48248

L2C Instructions Evicting Data 809036
L2C Translations Evicting Data 78119
L2C Data Evicting Data 468709
L2C Instructions Evicting Instructions 1350019
L2C Translations Evicting Instructions 129169
L2C Data Evicting Instructions 777001
L2C Instructions Evicting Translations 129518
L2C Translations Evicting Translations 12856
L2C Data Evicting Translations 74241
L2C Dense regions hint from L2: 0
PSCL5 TOTAL     ACCESS:     478463  HIT:     478463  MISS:          0  HIT %:        100  MISS %:          0   MPKI: 0
PSCL5 LOAD TRANSLATION ACCESS:     453783  HIT:     453783  MISS:          0  HIT %:        100  MISS %:          0   MPKI: 0
PSCL5 TRANSLATION FROM L1D PREFETCHER ACCESS:      24680  HIT:      24680  MISS:          0  HIT %:        100  MISS %:          0   MPKI: 0
PSCL5 PREFETCH  REQUESTED:          0  ISSUED:          0  USEFUL:          0  USELESS:          0
PSCL5 USEFUL LOAD PREFETCHES:          0 PREFETCH ISSUED TO LOWER LEVEL:          0  ACCURACY: -nan
PSCL5 TIMELY PREFETCHES:          0 LATE PREFETCHES: 0 DROPPED PREFETCHES: 0
PSCL5 PREFETCHES SAME FILL-ORIGIN LEVEL: 0 DIFFERENT FILL-ORIGIN LEVEL: 0

PSCL4 TOTAL     ACCESS:     459316  HIT:     458371  MISS:        945  HIT %:    99.7943  MISS %:   0.205741   MPKI: 0.004725
PSCL4 LOAD TRANSLATION ACCESS:     436549  HIT:     435604  MISS:        945  HIT %:    99.7835  MISS %:   0.216471   MPKI: 0.004725
PSCL4 TRANSLATION FROM L1D PREFETCHER ACCESS:      22767  HIT:      22767  MISS:          0  HIT %:        100  MISS %:          0   MPKI: 0
PSCL4 PREFETCH  REQUESTED:          0  ISSUED:          0  USEFUL:          0  USELESS:          0
PSCL4 USEFUL LOAD PREFETCHES:          0 PREFETCH ISSUED TO LOWER LEVEL:          0  ACCURACY: -nan
PSCL4 TIMELY PREFETCHES:          0 LATE PREFETCHES: 0 DROPPED PREFETCHES: 0
PSCL4 PREFETCHES SAME FILL-ORIGIN LEVEL: 0 DIFFERENT FILL-ORIGIN LEVEL: 0

PSCL3 TOTAL     ACCESS:     467809  HIT:     464265  MISS:       3544  HIT %:    99.2424  MISS %:   0.757574   MPKI: 0.01772
PSCL3 LOAD TRANSLATION ACCESS:     450490  HIT:     446946  MISS:       3544  HIT %:    99.2133  MISS %:   0.786699   MPKI: 0.01772
PSCL3 TRANSLATION FROM L1D PREFETCHER ACCESS:      17319  HIT:      17319  MISS:          0  HIT %:        100  MISS %:          0   MPKI: 0
PSCL3 PREFETCH  REQUESTED:          0  ISSUED:          0  USEFUL:          0  USELESS:          0
PSCL3 USEFUL LOAD PREFETCHES:          0 PREFETCH ISSUED TO LOWER LEVEL:          0  ACCURACY: -nan
PSCL3 TIMELY PREFETCHES:          0 LATE PREFETCHES: 0 DROPPED PREFETCHES: 0
PSCL3 PREFETCHES SAME FILL-ORIGIN LEVEL: 0 DIFFERENT FILL-ORIGIN LEVEL: 0

PSCL2 TOTAL     ACCESS:     458047  HIT:     339265  MISS:     118782  HIT %:    74.0677  MISS %:    25.9323   MPKI: 0.59391
PSCL2 LOAD TRANSLATION ACCESS:     455292  HIT:     336510  MISS:     118782  HIT %:    73.9108  MISS %:    26.0892   MPKI: 0.59391
PSCL2 TRANSLATION FROM L1D PREFETCHER ACCESS:       2755  HIT:       2755  MISS:          0  HIT %:        100  MISS %:          0   MPKI: 0
PSCL2 PREFETCH  REQUESTED:          0  ISSUED:          0  USEFUL:          0  USELESS:          0
PSCL2 USEFUL LOAD PREFETCHES:          0 PREFETCH ISSUED TO LOWER LEVEL:          0  ACCURACY: -nan
PSCL2 TIMELY PREFETCHES:          0 LATE PREFETCHES: 0 DROPPED PREFETCHES: 0
PSCL2 PREFETCHES SAME FILL-ORIGIN LEVEL: 0 DIFFERENT FILL-ORIGIN LEVEL: 0

LLC TOTAL     ACCESS:    4315289  HIT:    4053856  MISS:     261433  HIT %:    93.9417  MISS %:     6.0583   MPKI: 1.30716
LLC LOAD      ACCESS:    3422382  HIT:    3215863  MISS:     206519  HIT %:    93.9656  MISS %:    6.03436   MPKI: 1.03259
LLC RFO       ACCESS:     176968  HIT:     136941  MISS:      40027  HIT %:    77.3818  MISS %:    22.6182   MPKI: 0.200135
LLC PREFETCH  ACCESS:       9168  HIT:       8549  MISS:        619  HIT %:    93.2483  MISS %:    6.75175   MPKI: 0.003095
AGUS PREFETCH L1 MISS: 0
LLC WRITEBACK ACCESS:     486627  HIT:     476298  MISS:      10329  HIT %:    97.8774  MISS %:    2.12257   MPKI: 0.051645
LLC LOAD TRANSLATION ACCESS:     213344  HIT:     209784  MISS:       3560  HIT %:    98.3313  MISS %:    1.66867   MPKI: 0.0178
LLC TRANSLATION FROM L1D PREFETCHER ACCESS:       6800  HIT:       6421  MISS:        379  HIT %:    94.4265  MISS %:    5.57353   MPKI: 0.001895
LLC PREFETCH  REQUESTED:          0  ISSUED:          0  USEFUL:        146  USELESS:        935
LLC USEFUL LOAD PREFETCHES:        146 PREFETCH ISSUED TO LOWER LEVEL:        619  ACCURACY: 23.5864
LLC TIMELY PREFETCHES:        146 LATE PREFETCHES: 0 DROPPED PREFETCHES: 0
LLC PREFETCHES SAME FILL-ORIGIN LEVEL: 0 DIFFERENT FILL-ORIGIN LEVEL: 0
LLC AVERAGE MISS LATENCY: 150.331 cycles
LLC RQ	ACCESS:    3819500	FORWARD:          0	MERGED:          0	TO_CACHE:    3819494
LLC WQ	ACCESS:     486627	FORWARD:          6	MERGED:          0	TO_CACHE:     486627
LLC PQ	ACCESS:       9168	FORWARD:          0	MERGED:          0	TO_CACHE:       9168

LLC Dense regions hint to LLC: 0

RAW hits: 2718265
Loads Generated: 44805389
Loads sent to L1D: 42087122
Stores Generated: 20137757
Stores sent to L1D: 20137758
Major fault: 0 Minor fault: 4255
Allocated PAGES: 4255
Completed 

DRAM Statistics
 CHANNEL 0
 RQ ROW_BUFFER_HIT:      36874  ROW_BUFFER_MISS:     214230
 DBUS_CONGESTED:         82
 WQ ROW_BUFFER_HIT:      19257  ROW_BUFFER_MISS:     180629  FULL:          0

 AVG_CONGESTED_CYCLE: 4
 All warmup complete: 2
Channel 0 Bank busy for read cycles: 0
Channel 0 Bank busy for write cycles: 0
Channel 0
Rank 0
0banks busy for read cycles: 418589203
0banks busy for write cycles: 126551
1banks busy for read cycles: 24931830
1banks busy for write cycles: 17545436
2banks busy for read cycles: 2951367
2banks busy for write cycles: 3597789
3banks busy for read cycles: 421504
3banks busy for write cycles: 987634
4banks busy for read cycles: 208939
4banks busy for write cycles: 410556
5banks busy for read cycles: 74634
5banks busy for write cycles: 218497
6banks busy for read cycles: 41622
6banks busy for write cycles: 138045
7banks busy for read cycles: 25446
7banks busy for write cycles: 155546
8banks busy for read cycles: 30354
8banks busy for write cycles: 215267

CPU 0 Branch Prediction Accuracy: 99.8263% MPKI: 0.313815 Average ROB Occupancy at Mispredict: 35.8157
Branch types
NOT_BRANCH: 163866778 81.9334%
BRANCH_DIRECT_JUMP: 1746702 0.873351%
BRANCH_INDIRECT: 9682796 4.8414%
BRANCH_CONDITIONAL: 18120126 9.06006%
BRANCH_DIRECT_CALL: 2563120 1.28156%
BRANCH_INDIRECT_CALL: 725676 0.362838%
BRANCH_RETURN: 3294467 1.64723%
BRANCH_OTHER: 0 0%

DRAM PAGES: 1048576
Allocated PAGES: 4255
