
*** ChampSim Multicore Out-of-Order Simulator ***

Warmup Instructions: 50000000
Simulation Instructions: 200000000
Number of CPUs: 1
LLC sets: 2048
LLC ways: 16
Off-chip DRAM Size: 4096 MB Channels: 1 Width: 64-bit Data Rate: 6400 MT/s
CPU 0 runs traces/spec2k17/srv_4.champsimtrace.xz
.xz
BTB has LRU replacement policy
ITLB has LRU replacement policy
DTLB has LRU replacement policy
STLB has LRU replacement policy
L1I has LRU replacement policy
L1D has LRU replacement policy
Initialize SRRIP state for L2C
Initialize DRRIP state for LLC
Heartbeat CPU 0 instructions: 10000001 cycles: 2767242 heartbeat IPC: 3.61371 cumulative IPC: 3.61371 (Simulation time: 0 hr 0 min 37 sec) 
Heartbeat CPU 0 instructions: 20000002 cycles: 5524123 heartbeat IPC: 3.62729 cumulative IPC: 3.62048 (Simulation time: 0 hr 1 min 6 sec) 
Heartbeat CPU 0 instructions: 30000000 cycles: 8279436 heartbeat IPC: 3.62935 cumulative IPC: 3.62344 (Simulation time: 0 hr 1 min 35 sec) 
*** Reached end of trace for Core: 0 Repeating trace: traces/spec2k17/srv_4.champsimtrace.xz
Heartbeat CPU 0 instructions: 40000002 cycles: 11040552 heartbeat IPC: 3.62172 cumulative IPC: 3.62301 (Simulation time: 0 hr 2 min 2 sec) 
Heartbeat CPU 0 instructions: 50000003 cycles: 13798657 heartbeat IPC: 3.62568 cumulative IPC: 3.62354 (Simulation time: 0 hr 2 min 30 sec) 

Warmup complete CPU 0 instructions: 50000003 cycles: 13798657 (Simulation time: 0 hr 2 min 30 sec) 

Heartbeat CPU 0 instructions: 60000001 cycles: 34963695 heartbeat IPC: 0.472477 cumulative IPC: 0.472477 (Simulation time: 0 hr 3 min 14 sec) 
*** Reached end of trace for Core: 0 Repeating trace: traces/spec2k17/srv_4.champsimtrace.xz
Heartbeat CPU 0 instructions: 70000000 cycles: 57065468 heartbeat IPC: 0.452452 cumulative IPC: 0.462248 (Simulation time: 0 hr 4 min 3 sec) 
Heartbeat CPU 0 instructions: 80000001 cycles: 78313965 heartbeat IPC: 0.470622 cumulative IPC: 0.465006 (Simulation time: 0 hr 4 min 56 sec) 
Heartbeat CPU 0 instructions: 90000002 cycles: 99637669 heartbeat IPC: 0.468962 cumulative IPC: 0.465989 (Simulation time: 0 hr 5 min 54 sec) 
*** Reached end of trace for Core: 0 Repeating trace: traces/spec2k17/srv_4.champsimtrace.xz
Heartbeat CPU 0 instructions: 100000000 cycles: 121558533 heartbeat IPC: 0.456186 cumulative IPC: 0.463995 (Simulation time: 0 hr 7 min 0 sec) 
Heartbeat CPU 0 instructions: 110000000 cycles: 143087259 heartbeat IPC: 0.464496 cumulative IPC: 0.464078 (Simulation time: 0 hr 8 min 21 sec) 
Heartbeat CPU 0 instructions: 120000001 cycles: 164443866 heartbeat IPC: 0.468239 cumulative IPC: 0.464668 (Simulation time: 0 hr 9 min 49 sec) 
*** Reached end of trace for Core: 0 Repeating trace: traces/spec2k17/srv_4.champsimtrace.xz
Heartbeat CPU 0 instructions: 130000001 cycles: 185866078 heartbeat IPC: 0.466805 cumulative IPC: 0.464934 (Simulation time: 0 hr 10 min 50 sec) 
Heartbeat CPU 0 instructions: 140000002 cycles: 207539221 heartbeat IPC: 0.461401 cumulative IPC: 0.464539 (Simulation time: 0 hr 12 min 36 sec) 
Heartbeat CPU 0 instructions: 150000000 cycles: 228929467 heartbeat IPC: 0.467503 cumulative IPC: 0.464833 (Simulation time: 0 hr 13 min 33 sec) 
*** Reached end of trace for Core: 0 Repeating trace: traces/spec2k17/srv_4.champsimtrace.xz
Heartbeat CPU 0 instructions: 160000001 cycles: 250483875 heartbeat IPC: 0.463942 cumulative IPC: 0.464752 (Simulation time: 0 hr 14 min 23 sec) 
Heartbeat CPU 0 instructions: 170000000 cycles: 272099644 heartbeat IPC: 0.462625 cumulative IPC: 0.464574 (Simulation time: 0 hr 15 min 3 sec) 
Heartbeat CPU 0 instructions: 180000003 cycles: 293552021 heartbeat IPC: 0.466149 cumulative IPC: 0.464695 (Simulation time: 0 hr 16 min 17 sec) 
*** Reached end of trace for Core: 0 Repeating trace: traces/spec2k17/srv_4.champsimtrace.xz
Heartbeat CPU 0 instructions: 190000001 cycles: 315077327 heartbeat IPC: 0.464569 cumulative IPC: 0.464686 (Simulation time: 0 hr 17 min 5 sec) 
Heartbeat CPU 0 instructions: 200000000 cycles: 336710104 heartbeat IPC: 0.462261 cumulative IPC: 0.464524 (Simulation time: 0 hr 17 min 58 sec) 
Heartbeat CPU 0 instructions: 210000002 cycles: 358009611 heartbeat IPC: 0.469495 cumulative IPC: 0.464831 (Simulation time: 0 hr 19 min 4 sec) 
*** Reached end of trace for Core: 0 Repeating trace: traces/spec2k17/srv_4.champsimtrace.xz
Heartbeat CPU 0 instructions: 220000000 cycles: 379568389 heartbeat IPC: 0.463848 cumulative IPC: 0.464773 (Simulation time: 0 hr 20 min 6 sec) 
Heartbeat CPU 0 instructions: 230000000 cycles: 401281663 heartbeat IPC: 0.460548 cumulative IPC: 0.464536 (Simulation time: 0 hr 21 min 4 sec) 
Heartbeat CPU 0 instructions: 240000002 cycles: 422487853 heartbeat IPC: 0.471561 cumulative IPC: 0.464901 (Simulation time: 0 hr 22 min 12 sec) 
*** Reached end of trace for Core: 0 Repeating trace: traces/spec2k17/srv_4.champsimtrace.xz
Heartbeat CPU 0 instructions: 250000002 cycles: 443918899 heartbeat IPC: 0.466613 cumulative IPC: 0.464986 (Simulation time: 0 hr 22 min 55 sec) 
Finished CPU 0 instructions: 200000003 cycles: 430120243 cumulative IPC: 0.464986 (Simulation time: 0 hr 22 min 55 sec) 

ChampSim completed all CPUs

Region of Interest Statistics

CPU 0 cumulative IPC: 0.464986 instructions: 200000003 cycles: 430120243
ITLB TOTAL     ACCESS:   31165316  HIT:   30370041  MISS:     795275  HIT %:    97.4482  MISS %:     2.5518   MPKI: 3.97637
ITLB LOAD TRANSLATION ACCESS:   31165316  HIT:   30370041  MISS:     795275  HIT %:    97.4482  MISS %:     2.5518   MPKI: 3.97637
ITLB PREFETCH  REQUESTED:          0  ISSUED:          0  USEFUL:          0  USELESS:          0
ITLB USEFUL LOAD PREFETCHES:          0 PREFETCH ISSUED TO LOWER LEVEL:          0  ACCURACY: -nan
ITLB TIMELY PREFETCHES:          0 LATE PREFETCHES: 0 DROPPED PREFETCHES: 0
ITLB PREFETCHES SAME FILL-ORIGIN LEVEL: 0 DIFFERENT FILL-ORIGIN LEVEL: 0
ITLB AVERAGE MISS LATENCY: 13.3621 cycles
ITLB RQ	ACCESS:   38104058	FORWARD:          0	MERGED:    6737561	TO_CACHE:   31366497

DTLB TOTAL     ACCESS:   36979897  HIT:   34390247  MISS:    2589650  HIT %:    92.9971  MISS %:    7.00286   MPKI: 12.9482
DTLB LOAD TRANSLATION ACCESS:   36979897  HIT:   34390247  MISS:    2589650  HIT %:    92.9971  MISS %:    7.00286   MPKI: 12.9482
DTLB PREFETCH  REQUESTED:          0  ISSUED:          0  USEFUL:          0  USELESS:          0
DTLB USEFUL LOAD PREFETCHES:          0 PREFETCH ISSUED TO LOWER LEVEL:          0  ACCURACY: -nan
DTLB TIMELY PREFETCHES:          0 LATE PREFETCHES: 0 DROPPED PREFETCHES: 0
DTLB PREFETCHES SAME FILL-ORIGIN LEVEL: 0 DIFFERENT FILL-ORIGIN LEVEL: 0
DTLB AVERAGE MISS LATENCY: 13.2486 cycles
DTLB RQ	ACCESS:   47369022	FORWARD:          0	MERGED:   10243093	TO_CACHE:   37125929

STLB TOTAL     ACCESS:    7890986  HIT:    7572115  MISS:     318871  HIT %:     95.959  MISS %:    4.04095   MPKI: 1.59435
STLB LOAD TRANSLATION ACCESS:    3384925  HIT:    3067674  MISS:     317251  HIT %:    90.6275  MISS %:    9.37247   MPKI: 1.58625
STLB TRANSLATION FROM L1D PREFETCHER ACCESS:    4506061  HIT:    4504441  MISS:       1620  HIT %:     99.964  MISS %:  0.0359516   MPKI: 0.0081
STLB PREFETCH  REQUESTED:          0  ISSUED:          0  USEFUL:       1219  USELESS:        397
STLB USEFUL LOAD PREFETCHES:       1219 PREFETCH ISSUED TO LOWER LEVEL:          0  ACCURACY: inf
STLB TIMELY PREFETCHES:       1219 LATE PREFETCHES: 169 DROPPED PREFETCHES: 27067
STLB PREFETCHES SAME FILL-ORIGIN LEVEL: 0 DIFFERENT FILL-ORIGIN LEVEL: 0
STLB AVERAGE MISS LATENCY: 47.172 cycles
STLB RQ	ACCESS:    9342955	FORWARD:          0	MERGED:    1424567	TO_CACHE:    7918388

STLB Hit, L1D data hit: 0
STLB Hit, L2C data hit: 0
STLB Hit, LLC data hit: 0
STLB Hit, LLC data miss: 0
STLB STLB hints to L2: 0
L1D TOTAL     ACCESS:   52718391  HIT:   50230538  MISS:    2487853  HIT %:    95.2809  MISS %:    4.71914   MPKI: 12.4393
L1D LOAD      ACCESS:   27429611  HIT:   25314158  MISS:    2115453  HIT %:    92.2877  MISS %:     7.7123   MPKI: 10.5773
L1D RFO       ACCESS:   19393378  HIT:   19063346  MISS:     330032  HIT %:    98.2982  MISS %:    1.70178   MPKI: 1.65016
L1D PREFETCH  ACCESS:    5895402  HIT:    5853034  MISS:      42368  HIT %:    99.2813  MISS %:   0.718662   MPKI: 0.21184
AGUS PREFETCH L1 MISS: 0
L1D PREFETCH  REQUESTED:   12538262  ISSUED:   12538009  USEFUL:      24955  USELESS:      17418
L1D USEFUL LOAD PREFETCHES:      24955 PREFETCH ISSUED TO LOWER LEVEL:      54562  ACCURACY: 45.737
L1D TIMELY PREFETCHES:      24955 LATE PREFETCHES: 12110 DROPPED PREFETCHES: 33025
L1D PREFETCHES SAME FILL-ORIGIN LEVEL: 54562 DIFFERENT FILL-ORIGIN LEVEL: 0
L1D AVERAGE MISS LATENCY: 1.41063e+06 cycles
L1D RQ	ACCESS:   42072824	FORWARD:          0	MERGED:   14289314	TO_CACHE:   27570807
L1D WQ	ACCESS:   20103875	FORWARD:     297045	MERGED:     305660	TO_CACHE:   19798215
L1D PQ	ACCESS:    6579979	FORWARD:          0	MERGED:     537607	TO_CACHE:    5958030

L1D UNIQUE REGIONS ACCESSED: 0
L1D REGIONS CONFLICTS: 0
L1D Cross Page Prefetch Requests: 5676959
L1D Same Page Prefetch Requests: 1494368
L1D ROI Sum of L1D PQ occupancy: 86980086
L1D PREFETCHES PUSHED FROM L2C: 0
L1I TOTAL     ACCESS:   36270883  HIT:   31173588  MISS:    5097295  HIT %:    85.9466  MISS %:    14.0534   MPKI: 25.4865
L1I LOAD      ACCESS:   36270883  HIT:   31173588  MISS:    5097295  HIT %:    85.9466  MISS %:    14.0534   MPKI: 25.4865
L1I PREFETCH  REQUESTED:          0  ISSUED:          0  USEFUL:          0  USELESS:          0
L1I USEFUL LOAD PREFETCHES:          0 PREFETCH ISSUED TO LOWER LEVEL:          0  ACCURACY: -nan
L1I TIMELY PREFETCHES:          0 LATE PREFETCHES: 0 DROPPED PREFETCHES: 0
L1I PREFETCHES SAME FILL-ORIGIN LEVEL: 0 DIFFERENT FILL-ORIGIN LEVEL: 0
L1I AVERAGE MISS LATENCY: 24.5805 cycles
L1I RQ	ACCESS:   57083290	FORWARD:          0	MERGED:   18979232	TO_CACHE:   38104058

BTB TOTAL     ACCESS:   22109484  HIT:   17938624  MISS:    4170860  HIT %:    81.1354  MISS %:    18.8646   MPKI: 20.8543
BTB BRANCH_DIRECT_JUMP	ACCESS:    1732440  HIT:    1504284  MISS:     228156
BTB BRANCH_INDIRECT	ACCESS:    9572696  HIT:    7533262  MISS:    2039434
BTB BRANCH_CONDITIONAL	ACCESS:    4510201  HIT:    4135936  MISS:     374265
BTB BRANCH_DIRECT_CALL	ACCESS:    2461390  HIT:    2014294  MISS:     447096
BTB BRANCH_INDIRECT_CALL	ACCESS:     683684  HIT:     645488  MISS:      38196
BTB BRANCH_RETURN	ACCESS:    3149073  HIT:    2105360  MISS:    1043713
BTB BRANCH_OTHER ACCESS:          0  HIT:          0  MISS:          0

L2C TOTAL     ACCESS:    9060792  HIT:    6021026  MISS:    3039766  HIT %:    66.4514  MISS %:    33.5486   MPKI: 15.1988
L2C LOAD      ACCESS:    7200598  HIT:    4542708  MISS:    2657890  HIT %:    63.0879  MISS %:    36.9121   MPKI: 13.2894
L2C DATA LOAD MPKI: 4.55841
L2C INSTRUCTION LOAD MPKI: 8.73103
L2C RFO       ACCESS:     329942  HIT:     183372  MISS:     146570  HIT %:     55.577  MISS %:     44.423   MPKI: 0.73285
L2C PREFETCH  ACCESS:      54532  HIT:      44594  MISS:       9938  HIT %:    81.7758  MISS %:    18.2242   MPKI: 0.04969
AGUS PREFETCH L1 MISS: 0
L2C DATA PREFETCH MPKI: 0.04969
L2C INSTRUCTION PREFETCH MPKI: 0
L2C WRITEBACK ACCESS:    1017855  HIT:     966403  MISS:      51452  HIT %:    94.9451  MISS %:    5.05494   MPKI: 0.25726
L2C LOAD TRANSLATION ACCESS:     419837  HIT:     252962  MISS:     166875  HIT %:    60.2524  MISS %:    39.7476   MPKI: 0.834375
L2C TRANSLATION FROM L1D PREFETCHER ACCESS:      38028  HIT:      30987  MISS:       7041  HIT %:    81.4847  MISS %:    18.5153   MPKI: 0.035205
L2C PREFETCH  REQUESTED:          0  ISSUED:          0  USEFUL:       5566  USELESS:      11413
L2C USEFUL LOAD PREFETCHES:       5566 PREFETCH ISSUED TO LOWER LEVEL:       9938  ACCURACY: 56.0072
L2C TIMELY PREFETCHES:       5566 LATE PREFETCHES: 0 DROPPED PREFETCHES: 0
L2C PREFETCHES SAME FILL-ORIGIN LEVEL: 0 DIFFERENT FILL-ORIGIN LEVEL: 0
L2C AVERAGE MISS LATENCY: 44.7568 cycles
L2C RQ	ACCESS:    7988451	FORWARD:          0	MERGED:          0	TO_CACHE:    7988406
L2C WQ	ACCESS:    1017855	FORWARD:         75	MERGED:          0	TO_CACHE:    1017855
L2C PQ	ACCESS:      54562	FORWARD:          0	MERGED:          0	TO_CACHE:      54532

L2C Instructions Evicting Data 626996
L2C Translations Evicting Data 67579
L2C Data Evicting Data 406376
L2C Instructions Evicting Instructions 1022192
L2C Translations Evicting Instructions 97396
L2C Data Evicting Instructions 596216
L2C Instructions Evicting Translations 97019
L2C Translations Evicting Translations 8941
L2C Data Evicting Translations 65599
L2C Dense regions hint from L2: 0
PSCL5 TOTAL     ACCESS:     345011  HIT:     345011  MISS:          0  HIT %:        100  MISS %:          0   MPKI: 0
PSCL5 LOAD TRANSLATION ACCESS:     317082  HIT:     317082  MISS:          0  HIT %:        100  MISS %:          0   MPKI: 0
PSCL5 TRANSLATION FROM L1D PREFETCHER ACCESS:      27929  HIT:      27929  MISS:          0  HIT %:        100  MISS %:          0   MPKI: 0
PSCL5 PREFETCH  REQUESTED:          0  ISSUED:          0  USEFUL:          0  USELESS:          0
PSCL5 USEFUL LOAD PREFETCHES:          0 PREFETCH ISSUED TO LOWER LEVEL:          0  ACCURACY: -nan
PSCL5 TIMELY PREFETCHES:          0 LATE PREFETCHES: 0 DROPPED PREFETCHES: 0
PSCL5 PREFETCHES SAME FILL-ORIGIN LEVEL: 0 DIFFERENT FILL-ORIGIN LEVEL: 0

PSCL4 TOTAL     ACCESS:     321267  HIT:     320506  MISS:        761  HIT %:    99.7631  MISS %:   0.236875   MPKI: 0.003805
PSCL4 LOAD TRANSLATION ACCESS:     296745  HIT:     295984  MISS:        761  HIT %:    99.7436  MISS %:   0.256449   MPKI: 0.003805
PSCL4 TRANSLATION FROM L1D PREFETCHER ACCESS:      24522  HIT:      24522  MISS:          0  HIT %:        100  MISS %:          0   MPKI: 0
PSCL4 PREFETCH  REQUESTED:          0  ISSUED:          0  USEFUL:          0  USELESS:          0
PSCL4 USEFUL LOAD PREFETCHES:          0 PREFETCH ISSUED TO LOWER LEVEL:          0  ACCURACY: -nan
PSCL4 TIMELY PREFETCHES:          0 LATE PREFETCHES: 0 DROPPED PREFETCHES: 0
PSCL4 PREFETCHES SAME FILL-ORIGIN LEVEL: 0 DIFFERENT FILL-ORIGIN LEVEL: 0

PSCL3 TOTAL     ACCESS:     335869  HIT:     334346  MISS:       1523  HIT %:    99.5465  MISS %:   0.453451   MPKI: 0.007615
PSCL3 LOAD TRANSLATION ACCESS:     316150  HIT:     314627  MISS:       1523  HIT %:    99.5183  MISS %:   0.481733   MPKI: 0.007615
PSCL3 TRANSLATION FROM L1D PREFETCHER ACCESS:      19719  HIT:      19719  MISS:          0  HIT %:        100  MISS %:          0   MPKI: 0
PSCL3 PREFETCH  REQUESTED:          0  ISSUED:          0  USEFUL:          0  USELESS:          0
PSCL3 USEFUL LOAD PREFETCHES:          0 PREFETCH ISSUED TO LOWER LEVEL:          0  ACCURACY: -nan
PSCL3 TIMELY PREFETCHES:          0 LATE PREFETCHES: 0 DROPPED PREFETCHES: 0
PSCL3 PREFETCHES SAME FILL-ORIGIN LEVEL: 0 DIFFERENT FILL-ORIGIN LEVEL: 0

PSCL2 TOTAL     ACCESS:     320249  HIT:     218563  MISS:     101686  HIT %:    68.2478  MISS %:    31.7522   MPKI: 0.50843
PSCL2 LOAD TRANSLATION ACCESS:     318291  HIT:     216605  MISS:     101686  HIT %:    68.0525  MISS %:    31.9475   MPKI: 0.50843
PSCL2 TRANSLATION FROM L1D PREFETCHER ACCESS:       1958  HIT:       1958  MISS:          0  HIT %:        100  MISS %:          0   MPKI: 0
PSCL2 PREFETCH  REQUESTED:          0  ISSUED:          0  USEFUL:          0  USELESS:          0
PSCL2 USEFUL LOAD PREFETCHES:          0 PREFETCH ISSUED TO LOWER LEVEL:          0  ACCURACY: -nan
PSCL2 TIMELY PREFETCHES:          0 LATE PREFETCHES: 0 DROPPED PREFETCHES: 0
PSCL2 PREFETCHES SAME FILL-ORIGIN LEVEL: 0 DIFFERENT FILL-ORIGIN LEVEL: 0

LLC TOTAL     ACCESS:    3417670  HIT:    3112350  MISS:     305320  HIT %:    91.0664  MISS %:    8.93357   MPKI: 1.5266
LLC LOAD      ACCESS:    2657890  HIT:    2416128  MISS:     241762  HIT %:     90.904  MISS %:    9.09601   MPKI: 1.20881
LLC RFO       ACCESS:     146570  HIT:      97409  MISS:      49161  HIT %:     66.459  MISS %:     33.541   MPKI: 0.245805
LLC PREFETCH  ACCESS:       9938  HIT:       8962  MISS:        976  HIT %:    90.1791  MISS %:    9.82089   MPKI: 0.00488
AGUS PREFETCH L1 MISS: 0
LLC WRITEBACK ACCESS:     429356  HIT:     427766  MISS:       1590  HIT %:    99.6297  MISS %:   0.370322   MPKI: 0.00795
LLC LOAD TRANSLATION ACCESS:     166875  HIT:     155418  MISS:      11457  HIT %:    93.1344  MISS %:    6.86562   MPKI: 0.057285
LLC TRANSLATION FROM L1D PREFETCHER ACCESS:       7041  HIT:       6667  MISS:        374  HIT %:    94.6883  MISS %:    5.31175   MPKI: 0.00187
LLC PREFETCH  REQUESTED:          0  ISSUED:          0  USEFUL:        242  USELESS:       1174
LLC USEFUL LOAD PREFETCHES:        242 PREFETCH ISSUED TO LOWER LEVEL:        976  ACCURACY: 24.7951
LLC TIMELY PREFETCHES:        242 LATE PREFETCHES: 0 DROPPED PREFETCHES: 0
LLC PREFETCHES SAME FILL-ORIGIN LEVEL: 0 DIFFERENT FILL-ORIGIN LEVEL: 0
LLC AVERAGE MISS LATENCY: 151.97 cycles
LLC RQ	ACCESS:    2978376	FORWARD:          0	MERGED:          0	TO_CACHE:    2978376
LLC WQ	ACCESS:     429356	FORWARD:          0	MERGED:          0	TO_CACHE:     429356
LLC PQ	ACCESS:       9938	FORWARD:          0	MERGED:          0	TO_CACHE:       9938

LLC Dense regions hint to LLC: 0

RAW hits: 2840062
Loads Generated: 44912886
Loads sent to L1D: 42072824
Stores Generated: 20103854
Stores sent to L1D: 20103875
Major fault: 0 Minor fault: 6257
Allocated PAGES: 6257
Completed 

DRAM Statistics
 CHANNEL 0
 RQ ROW_BUFFER_HIT:      61898  ROW_BUFFER_MISS:     241832
 DBUS_CONGESTED:        162
 WQ ROW_BUFFER_HIT:      32022  ROW_BUFFER_MISS:     183068  FULL:          0

 AVG_CONGESTED_CYCLE: 4
 All warmup complete: 2
Channel 0 Bank busy for read cycles: 0
Channel 0 Bank busy for write cycles: 0
Channel 0
Rank 0
0banks busy for read cycles: 373939679
0banks busy for write cycles: 115799
1banks busy for read cycles: 27205430
1banks busy for write cycles: 16326195
2banks busy for read cycles: 3886795
2banks busy for write cycles: 4000448
3banks busy for read cycles: 502886
3banks busy for write cycles: 1414321
4banks busy for read cycles: 210299
4banks busy for write cycles: 792644
5banks busy for read cycles: 107027
5banks busy for write cycles: 491768
6banks busy for read cycles: 73527
6banks busy for write cycles: 362007
7banks busy for read cycles: 58902
7banks busy for write cycles: 261023
8banks busy for read cycles: 81922
8banks busy for write cycles: 289572

CPU 0 Branch Prediction Accuracy: 99.8614% MPKI: 0.24815 Average ROB Occupancy at Mispredict: 55.0948
Branch types
NOT_BRANCH: 164179739 82.0899%
BRANCH_DIRECT_JUMP: 1732440 0.86622%
BRANCH_INDIRECT: 9572696 4.78635%
BRANCH_CONDITIONAL: 18220803 9.1104%
BRANCH_DIRECT_CALL: 2461390 1.23069%
BRANCH_INDIRECT_CALL: 683684 0.341842%
BRANCH_RETURN: 3149073 1.57454%
BRANCH_OTHER: 0 0%

DRAM PAGES: 1048576
Allocated PAGES: 6257
