
*** ChampSim Multicore Out-of-Order Simulator ***

Warmup Instructions: 50000000
Simulation Instructions: 200000000
Number of CPUs: 1
LLC sets: 2048
LLC ways: 16
Off-chip DRAM Size: 4096 MB Channels: 1 Width: 64-bit Data Rate: 6400 MT/s
CPU 0 runs traces/spec2k17/srv_76.champsimtrace.xz
.xz
BTB has LRU replacement policy
ITLB has LRU replacement policy
DTLB has LRU replacement policy
STLB has LRU replacement policy
L1I has LRU replacement policy
L1D has LRU replacement policy
Initialize SRRIP state for L2C
Initialize DRRIP state for LLC
Heartbeat CPU 0 instructions: 10000002 cycles: 2945226 heartbeat IPC: 3.39533 cumulative IPC: 3.39533 (Simulation time: 0 hr 0 min 34 sec) 
Heartbeat CPU 0 instructions: 20000002 cycles: 5881679 heartbeat IPC: 3.40547 cumulative IPC: 3.40039 (Simulation time: 0 hr 1 min 5 sec) 
Heartbeat CPU 0 instructions: 30000000 cycles: 8825468 heartbeat IPC: 3.39698 cumulative IPC: 3.39925 (Simulation time: 0 hr 1 min 42 sec) 
*** Reached end of trace for Core: 0 Repeating trace: traces/spec2k17/srv_76.champsimtrace.xz
Heartbeat CPU 0 instructions: 40000002 cycles: 11769354 heartbeat IPC: 3.39687 cumulative IPC: 3.39866 (Simulation time: 0 hr 2 min 14 sec) 
Heartbeat CPU 0 instructions: 50000000 cycles: 14705616 heartbeat IPC: 3.40569 cumulative IPC: 3.40006 (Simulation time: 0 hr 2 min 45 sec) 

Warmup complete CPU 0 instructions: 50000004 cycles: 14705617 (Simulation time: 0 hr 2 min 45 sec) 

Heartbeat CPU 0 instructions: 60000001 cycles: 34280205 heartbeat IPC: 0.510866 cumulative IPC: 0.510866 (Simulation time: 0 hr 3 min 43 sec) 
*** Reached end of trace for Core: 0 Repeating trace: traces/spec2k17/srv_76.champsimtrace.xz
Heartbeat CPU 0 instructions: 70000002 cycles: 53761694 heartbeat IPC: 0.513308 cumulative IPC: 0.512084 (Simulation time: 0 hr 4 min 41 sec) 
Heartbeat CPU 0 instructions: 80000001 cycles: 73166621 heartbeat IPC: 0.515333 cumulative IPC: 0.513163 (Simulation time: 0 hr 6 min 12 sec) 
Heartbeat CPU 0 instructions: 90000001 cycles: 92612292 heartbeat IPC: 0.514253 cumulative IPC: 0.513435 (Simulation time: 0 hr 7 min 19 sec) 
*** Reached end of trace for Core: 0 Repeating trace: traces/spec2k17/srv_76.champsimtrace.xz
Heartbeat CPU 0 instructions: 100000000 cycles: 112012967 heartbeat IPC: 0.515446 cumulative IPC: 0.513836 (Simulation time: 0 hr 8 min 25 sec) 
Heartbeat CPU 0 instructions: 110000000 cycles: 131410188 heartbeat IPC: 0.515538 cumulative IPC: 0.514119 (Simulation time: 0 hr 9 min 19 sec) 
Heartbeat CPU 0 instructions: 120000000 cycles: 150798857 heartbeat IPC: 0.515765 cumulative IPC: 0.514353 (Simulation time: 0 hr 10 min 34 sec) 
*** Reached end of trace for Core: 0 Repeating trace: traces/spec2k17/srv_76.champsimtrace.xz
Heartbeat CPU 0 instructions: 130000001 cycles: 170218048 heartbeat IPC: 0.514955 cumulative IPC: 0.514428 (Simulation time: 0 hr 11 min 40 sec) 
Heartbeat CPU 0 instructions: 140000002 cycles: 189535268 heartbeat IPC: 0.517673 cumulative IPC: 0.514787 (Simulation time: 0 hr 12 min 48 sec) 
Heartbeat CPU 0 instructions: 150000001 cycles: 208907413 heartbeat IPC: 0.516205 cumulative IPC: 0.514928 (Simulation time: 0 hr 14 min 12 sec) 
Heartbeat CPU 0 instructions: 160000003 cycles: 228338549 heartbeat IPC: 0.514638 cumulative IPC: 0.514902 (Simulation time: 0 hr 15 min 19 sec) 
*** Reached end of trace for Core: 0 Repeating trace: traces/spec2k17/srv_76.champsimtrace.xz
Heartbeat CPU 0 instructions: 170000000 cycles: 247789935 heartbeat IPC: 0.514102 cumulative IPC: 0.514835 (Simulation time: 0 hr 16 min 32 sec) 
Heartbeat CPU 0 instructions: 180000001 cycles: 267129058 heartbeat IPC: 0.517087 cumulative IPC: 0.515008 (Simulation time: 0 hr 17 min 20 sec) 
Heartbeat CPU 0 instructions: 190000000 cycles: 286500925 heartbeat IPC: 0.516212 cumulative IPC: 0.515094 (Simulation time: 0 hr 18 min 3 sec) 
*** Reached end of trace for Core: 0 Repeating trace: traces/spec2k17/srv_76.champsimtrace.xz
Heartbeat CPU 0 instructions: 200000003 cycles: 305889220 heartbeat IPC: 0.515775 cumulative IPC: 0.515139 (Simulation time: 0 hr 18 min 46 sec) 
Heartbeat CPU 0 instructions: 210000000 cycles: 325277731 heartbeat IPC: 0.515769 cumulative IPC: 0.515178 (Simulation time: 0 hr 19 min 27 sec) 
Heartbeat CPU 0 instructions: 220000000 cycles: 344647989 heartbeat IPC: 0.516255 cumulative IPC: 0.515242 (Simulation time: 0 hr 20 min 4 sec) 
*** Reached end of trace for Core: 0 Repeating trace: traces/spec2k17/srv_76.champsimtrace.xz
Heartbeat CPU 0 instructions: 230000003 cycles: 364091929 heartbeat IPC: 0.514299 cumulative IPC: 0.515189 (Simulation time: 0 hr 20 min 37 sec) 
Heartbeat CPU 0 instructions: 240000000 cycles: 383408529 heartbeat IPC: 0.517689 cumulative IPC: 0.51532 (Simulation time: 0 hr 21 min 9 sec) 
Heartbeat CPU 0 instructions: 250000001 cycles: 402847099 heartbeat IPC: 0.514441 cumulative IPC: 0.515276 (Simulation time: 0 hr 21 min 41 sec) 
Finished CPU 0 instructions: 200000000 cycles: 388141484 cumulative IPC: 0.515276 (Simulation time: 0 hr 21 min 41 sec) 

ChampSim completed all CPUs

Region of Interest Statistics

CPU 0 cumulative IPC: 0.515276 instructions: 200000000 cycles: 388141484
ITLB TOTAL     ACCESS:   33752354  HIT:   32221109  MISS:    1531245  HIT %:    95.4633  MISS %:    4.53671   MPKI: 7.65623
ITLB LOAD TRANSLATION ACCESS:   33752354  HIT:   32221109  MISS:    1531245  HIT %:    95.4633  MISS %:    4.53671   MPKI: 7.65623
ITLB PREFETCH  REQUESTED:          0  ISSUED:          0  USEFUL:          0  USELESS:          0
ITLB USEFUL LOAD PREFETCHES:          0 PREFETCH ISSUED TO LOWER LEVEL:          0  ACCURACY: -nan
ITLB TIMELY PREFETCHES:          0 LATE PREFETCHES: 0 DROPPED PREFETCHES: 0
ITLB PREFETCHES SAME FILL-ORIGIN LEVEL: 0 DIFFERENT FILL-ORIGIN LEVEL: 0
ITLB AVERAGE MISS LATENCY: 9.23826 cycles
ITLB RQ	ACCESS:   40650572	FORWARD:          0	MERGED:    6403740	TO_CACHE:   34246832

DTLB TOTAL     ACCESS:   39889553  HIT:   38361196  MISS:    1528357  HIT %:    96.1685  MISS %:    3.83147   MPKI: 7.64178
DTLB LOAD TRANSLATION ACCESS:   39889553  HIT:   38361196  MISS:    1528357  HIT %:    96.1685  MISS %:    3.83147   MPKI: 7.64178
DTLB PREFETCH  REQUESTED:          0  ISSUED:          0  USEFUL:          0  USELESS:          0
DTLB USEFUL LOAD PREFETCHES:          0 PREFETCH ISSUED TO LOWER LEVEL:          0  ACCURACY: -nan
DTLB TIMELY PREFETCHES:          0 LATE PREFETCHES: 0 DROPPED PREFETCHES: 0
DTLB PREFETCHES SAME FILL-ORIGIN LEVEL: 0 DIFFERENT FILL-ORIGIN LEVEL: 0
DTLB AVERAGE MISS LATENCY: 15.1204 cycles
DTLB RQ	ACCESS:   61055804	FORWARD:          0	MERGED:   20776744	TO_CACHE:   40279060

STLB TOTAL     ACCESS:    5884127  HIT:    5805768  MISS:      78359  HIT %:    98.6683  MISS %:     1.3317   MPKI: 0.391795
STLB LOAD TRANSLATION ACCESS:    3059602  HIT:    2984369  MISS:      75233  HIT %:    97.5411  MISS %:    2.45891   MPKI: 0.376165
STLB TRANSLATION FROM L1D PREFETCHER ACCESS:    2824525  HIT:    2821399  MISS:       3126  HIT %:    99.8893  MISS %:   0.110673   MPKI: 0.01563
STLB PREFETCH  REQUESTED:          0  ISSUED:          0  USEFUL:       3069  USELESS:         58
STLB USEFUL LOAD PREFETCHES:       3069 PREFETCH ISSUED TO LOWER LEVEL:          0  ACCURACY: inf
STLB TIMELY PREFETCHES:       3069 LATE PREFETCHES: 1063 DROPPED PREFETCHES: 5092
STLB PREFETCHES SAME FILL-ORIGIN LEVEL: 0 DIFFERENT FILL-ORIGIN LEVEL: 0
STLB AVERAGE MISS LATENCY: 47869.9 cycles
STLB RQ	ACCESS:    8430541	FORWARD:          0	MERGED:    2540068	TO_CACHE:    5890473

STLB Hit, L1D data hit: 0
STLB Hit, L2C data hit: 0
STLB Hit, LLC data hit: 0
STLB Hit, LLC data miss: 0
STLB STLB hints to L2: 0
L1D TOTAL     ACCESS:   53154990  HIT:   46315548  MISS:    6839442  HIT %:     87.133  MISS %:     12.867   MPKI: 34.1972
L1D LOAD      ACCESS:   26673147  HIT:   23866590  MISS:    2806557  HIT %:     89.478  MISS %:     10.522   MPKI: 14.0328
L1D RFO       ACCESS:   22205250  HIT:   18489678  MISS:    3715572  HIT %:    83.2671  MISS %:    16.7329   MPKI: 18.5779
L1D PREFETCH  ACCESS:    4276593  HIT:    3959280  MISS:     317313  HIT %:    92.5802  MISS %:    7.41976   MPKI: 1.58657
AGUS PREFETCH L1 MISS: 0
L1D PREFETCH  REQUESTED:   11927567  ISSUED:   11927121  USEFUL:     279698  USELESS:      37616
L1D USEFUL LOAD PREFETCHES:     279698 PREFETCH ISSUED TO LOWER LEVEL:     837915  ACCURACY: 33.3802
L1D TIMELY PREFETCHES:     279698 LATE PREFETCHES: 520596 DROPPED PREFETCHES: 10219
L1D PREFETCHES SAME FILL-ORIGIN LEVEL: 837915 DIFFERENT FILL-ORIGIN LEVEL: 0
L1D AVERAGE MISS LATENCY: 1.6078e+07 cycles
L1D RQ	ACCESS:   45149963	FORWARD:          0	MERGED:   17813633	TO_CACHE:   27053955
L1D WQ	ACCESS:   34202058	FORWARD:     296993	MERGED:     200209	TO_CACHE:   34001849
L1D PQ	ACCESS:    6556182	FORWARD:          0	MERGED:    1170625	TO_CACHE:    5370939

L1D UNIQUE REGIONS ACCESSED: 0
L1D REGIONS CONFLICTS: 0
L1D Cross Page Prefetch Requests: 2211896
L1D Same Page Prefetch Requests: 5089494
L1D ROI Sum of L1D PQ occupancy: 84088216
L1D PREFETCHES PUSHED FROM L2C: 0
L1I TOTAL     ACCESS:   38006277  HIT:   28955235  MISS:    9051042  HIT %:    76.1854  MISS %:    23.8146   MPKI: 45.2552
L1I LOAD      ACCESS:   38006277  HIT:   28955235  MISS:    9051042  HIT %:    76.1854  MISS %:    23.8146   MPKI: 45.2552
L1I PREFETCH  REQUESTED:          0  ISSUED:          0  USEFUL:          0  USELESS:          0
L1I USEFUL LOAD PREFETCHES:          0 PREFETCH ISSUED TO LOWER LEVEL:          0  ACCURACY: -nan
L1I TIMELY PREFETCHES:          0 LATE PREFETCHES: 0 DROPPED PREFETCHES: 0
L1I PREFETCHES SAME FILL-ORIGIN LEVEL: 0 DIFFERENT FILL-ORIGIN LEVEL: 0
L1I AVERAGE MISS LATENCY: 16.8129 cycles
L1I RQ	ACCESS:   58898579	FORWARD:          0	MERGED:   18248007	TO_CACHE:   40650572

BTB TOTAL     ACCESS:   25729443  HIT:   24177548  MISS:    1551895  HIT %:    93.9684  MISS %:    6.03159   MPKI: 7.75948
BTB BRANCH_DIRECT_JUMP	ACCESS:    1656284  HIT:    1645281  MISS:      11003
BTB BRANCH_INDIRECT	ACCESS:    9938661  HIT:    9422853  MISS:     515808
BTB BRANCH_CONDITIONAL	ACCESS:    7324845  HIT:    7309493  MISS:      15352
BTB BRANCH_DIRECT_CALL	ACCESS:    2813378  HIT:    2777728  MISS:      35650
BTB BRANCH_INDIRECT_CALL	ACCESS:     591510  HIT:     480327  MISS:     111183
BTB BRANCH_RETURN	ACCESS:    3404765  HIT:    2541866  MISS:     862899
BTB BRANCH_OTHER ACCESS:          0  HIT:          0  MISS:          0

L2C TOTAL     ACCESS:   20352734  HIT:   13715448  MISS:    6637286  HIT %:    67.3887  MISS %:    32.6113   MPKI: 33.1864
L2C LOAD      ACCESS:   11336887  HIT:    9139402  MISS:    2197485  HIT %:    80.6165  MISS %:    19.3835   MPKI: 10.9874
L2C DATA LOAD MPKI: 8.17966
L2C INSTRUCTION LOAD MPKI: 2.80776
L2C RFO       ACCESS:    3715565  HIT:     162484  MISS:    3553081  HIT %:    4.37306  MISS %:    95.6269   MPKI: 17.7654
L2C PREFETCH  ACCESS:     837885  HIT:     133389  MISS:     704496  HIT %:    15.9197  MISS %:    84.0803   MPKI: 3.52248
AGUS PREFETCH L1 MISS: 0
L2C DATA PREFETCH MPKI: 3.52248
L2C INSTRUCTION PREFETCH MPKI: 0
L2C WRITEBACK ACCESS:    4365408  HIT:    4229348  MISS:     136060  HIT %:    96.8832  MISS %:    3.11678   MPKI: 0.6803
L2C LOAD TRANSLATION ACCESS:      86115  HIT:      44235  MISS:      41880  HIT %:    51.3674  MISS %:    48.6326   MPKI: 0.2094
L2C TRANSLATION FROM L1D PREFETCHER ACCESS:      10874  HIT:       6590  MISS:       4284  HIT %:    60.6033  MISS %:    39.3967   MPKI: 0.02142
L2C PREFETCH  REQUESTED:          0  ISSUED:          0  USEFUL:       8380  USELESS:     700547
L2C USEFUL LOAD PREFETCHES:       8380 PREFETCH ISSUED TO LOWER LEVEL:     704496  ACCURACY: 1.1895
L2C TIMELY PREFETCHES:       8380 LATE PREFETCHES: 0 DROPPED PREFETCHES: 0
L2C PREFETCHES SAME FILL-ORIGIN LEVEL: 0 DIFFERENT FILL-ORIGIN LEVEL: 0
L2C AVERAGE MISS LATENCY: 161.11 cycles
L2C RQ	ACCESS:   15149559	FORWARD:          0	MERGED:          0	TO_CACHE:   15149442
L2C WQ	ACCESS:    4365408	FORWARD:        147	MERGED:          0	TO_CACHE:    4365408
L2C PQ	ACCESS:     837915	FORWARD:          0	MERGED:          0	TO_CACHE:     837885

L2C Instructions Evicting Data 516720
L2C Translations Evicting Data 42077
L2C Data Evicting Data 5348297
L2C Instructions Evicting Instructions 40818
L2C Translations Evicting Instructions 3751
L2C Data Evicting Instructions 504132
L2C Instructions Evicting Translations 4015
L2C Translations Evicting Translations 336
L2C Data Evicting Translations 41080
L2C Dense regions hint from L2: 0
PSCL5 TOTAL     ACCESS:      83451  HIT:      83451  MISS:          0  HIT %:        100  MISS %:          0   MPKI: 0
PSCL5 LOAD TRANSLATION ACCESS:      74170  HIT:      74170  MISS:          0  HIT %:        100  MISS %:          0   MPKI: 0
PSCL5 TRANSLATION FROM L1D PREFETCHER ACCESS:       9281  HIT:       9281  MISS:          0  HIT %:        100  MISS %:          0   MPKI: 0
PSCL5 PREFETCH  REQUESTED:          0  ISSUED:          0  USEFUL:          0  USELESS:          0
PSCL5 USEFUL LOAD PREFETCHES:          0 PREFETCH ISSUED TO LOWER LEVEL:          0  ACCURACY: -nan
PSCL5 TIMELY PREFETCHES:          0 LATE PREFETCHES: 0 DROPPED PREFETCHES: 0
PSCL5 PREFETCHES SAME FILL-ORIGIN LEVEL: 0 DIFFERENT FILL-ORIGIN LEVEL: 0

PSCL4 TOTAL     ACCESS:      80609  HIT:      80394  MISS:        215  HIT %:    99.7333  MISS %:    0.26672   MPKI: 0.001075
PSCL4 LOAD TRANSLATION ACCESS:      71752  HIT:      71537  MISS:        215  HIT %:    99.7004  MISS %:   0.299643   MPKI: 0.001075
PSCL4 TRANSLATION FROM L1D PREFETCHER ACCESS:       8857  HIT:       8857  MISS:          0  HIT %:        100  MISS %:          0   MPKI: 0
PSCL4 PREFETCH  REQUESTED:          0  ISSUED:          0  USEFUL:          0  USELESS:          0
PSCL4 USEFUL LOAD PREFETCHES:          0 PREFETCH ISSUED TO LOWER LEVEL:          0  ACCURACY: -nan
PSCL4 TIMELY PREFETCHES:          0 LATE PREFETCHES: 0 DROPPED PREFETCHES: 0
PSCL4 PREFETCHES SAME FILL-ORIGIN LEVEL: 0 DIFFERENT FILL-ORIGIN LEVEL: 0

PSCL3 TOTAL     ACCESS:      78131  HIT:      76801  MISS:       1330  HIT %:    98.2977  MISS %:    1.70227   MPKI: 0.00665
PSCL3 LOAD TRANSLATION ACCESS:      69273  HIT:      67943  MISS:       1330  HIT %:    98.0801  MISS %:    1.91994   MPKI: 0.00665
PSCL3 TRANSLATION FROM L1D PREFETCHER ACCESS:       8858  HIT:       8858  MISS:          0  HIT %:        100  MISS %:          0   MPKI: 0
PSCL3 PREFETCH  REQUESTED:          0  ISSUED:          0  USEFUL:          0  USELESS:          0
PSCL3 USEFUL LOAD PREFETCHES:          0 PREFETCH ISSUED TO LOWER LEVEL:          0  ACCURACY: -nan
PSCL3 TIMELY PREFETCHES:          0 LATE PREFETCHES: 0 DROPPED PREFETCHES: 0
PSCL3 PREFETCHES SAME FILL-ORIGIN LEVEL: 0 DIFFERENT FILL-ORIGIN LEVEL: 0

PSCL2 TOTAL     ACCESS:      81715  HIT:      71167  MISS:      10548  HIT %:    87.0917  MISS %:    12.9083   MPKI: 0.05274
PSCL2 LOAD TRANSLATION ACCESS:      74313  HIT:      63765  MISS:      10548  HIT %:     85.806  MISS %:     14.194   MPKI: 0.05274
PSCL2 TRANSLATION FROM L1D PREFETCHER ACCESS:       7402  HIT:       7402  MISS:          0  HIT %:        100  MISS %:          0   MPKI: 0
PSCL2 PREFETCH  REQUESTED:          0  ISSUED:          0  USEFUL:          0  USELESS:          0
PSCL2 USEFUL LOAD PREFETCHES:          0 PREFETCH ISSUED TO LOWER LEVEL:          0  ACCURACY: -nan
PSCL2 TIMELY PREFETCHES:          0 LATE PREFETCHES: 0 DROPPED PREFETCHES: 0
PSCL2 PREFETCHES SAME FILL-ORIGIN LEVEL: 0 DIFFERENT FILL-ORIGIN LEVEL: 0

LLC TOTAL     ACCESS:   10549466  HIT:    4183969  MISS:    6365497  HIT %:    39.6605  MISS %:    60.3395   MPKI: 31.8275
LLC LOAD      ACCESS:    2197485  HIT:    1593752  MISS:     603733  HIT %:    72.5262  MISS %:    27.4738   MPKI: 3.01866
LLC RFO       ACCESS:    3553078  HIT:     987875  MISS:    2565203  HIT %:    27.8034  MISS %:    72.1966   MPKI: 12.826
LLC PREFETCH  ACCESS:     704496  HIT:      36172  MISS:     668324  HIT %:    5.13445  MISS %:    94.8655   MPKI: 3.34162
AGUS PREFETCH L1 MISS: 0
LLC WRITEBACK ACCESS:    4048243  HIT:    1556099  MISS:    2492144  HIT %:    38.4389  MISS %:    61.5611   MPKI: 12.4607
LLC LOAD TRANSLATION ACCESS:      41880  HIT:       8929  MISS:      32951  HIT %:    21.3204  MISS %:    78.6796   MPKI: 0.164755
LLC TRANSLATION FROM L1D PREFETCHER ACCESS:       4284  HIT:       1142  MISS:       3142  HIT %:    26.6573  MISS %:    73.3427   MPKI: 0.01571
LLC PREFETCH  REQUESTED:          0  ISSUED:          0  USEFUL:       2325  USELESS:     669655
LLC USEFUL LOAD PREFETCHES:       2325 PREFETCH ISSUED TO LOWER LEVEL:     668324  ACCURACY: 0.347885
LLC TIMELY PREFETCHES:       2325 LATE PREFETCHES: 0 DROPPED PREFETCHES: 0
LLC PREFETCHES SAME FILL-ORIGIN LEVEL: 0 DIFFERENT FILL-ORIGIN LEVEL: 0
LLC AVERAGE MISS LATENCY: 137.348 cycles
LLC RQ	ACCESS:    5796730	FORWARD:          0	MERGED:          0	TO_CACHE:    5796727
LLC WQ	ACCESS:    4048243	FORWARD:          3	MERGED:          0	TO_CACHE:    4048243
LLC PQ	ACCESS:     704496	FORWARD:          0	MERGED:          0	TO_CACHE:     704496

LLC Dense regions hint to LLC: 0

RAW hits: 2473591
Loads Generated: 47623555
Loads sent to L1D: 45149963
Stores Generated: 34202037
Stores sent to L1D: 34202058
Major fault: 0 Minor fault: 9169
Allocated PAGES: 9169
Completed 

DRAM Statistics
 CHANNEL 0
 RQ ROW_BUFFER_HIT:    1869830  ROW_BUFFER_MISS:    2003244
 DBUS_CONGESTED:       2334
 WQ ROW_BUFFER_HIT:     528730  ROW_BUFFER_MISS:    2101766  FULL:      66203

 AVG_CONGESTED_CYCLE: 3
 All warmup complete: 2
Channel 0 Bank busy for read cycles: 0
Channel 0 Bank busy for write cycles: 0
Channel 0
Rank 0
0banks busy for read cycles: 178599918
0banks busy for write cycles: 258962
1banks busy for read cycles: 29869818
1banks busy for write cycles: 36741439
2banks busy for read cycles: 11653007
2banks busy for write cycles: 13190684
3banks busy for read cycles: 14918843
3banks busy for write cycles: 5830900
4banks busy for read cycles: 6172894
4banks busy for write cycles: 3777085
5banks busy for read cycles: 4845812
5banks busy for write cycles: 3280876
6banks busy for read cycles: 5756248
6banks busy for write cycles: 3303037
7banks busy for read cycles: 7981928
7banks busy for write cycles: 5827008
8banks busy for read cycles: 20518239
8banks busy for write cycles: 35614787

CPU 0 Branch Prediction Accuracy: 99.9457% MPKI: 0.083 Average ROB Occupancy at Mispredict: 121.311
Branch types
NOT_BRANCH: 169416910 84.7085%
BRANCH_DIRECT_JUMP: 1656284 0.828142%
BRANCH_INDIRECT: 9938661 4.96933%
BRANCH_CONDITIONAL: 12178317 6.08916%
BRANCH_DIRECT_CALL: 2813378 1.40669%
BRANCH_INDIRECT_CALL: 591510 0.295755%
BRANCH_RETURN: 3404765 1.70238%
BRANCH_OTHER: 0 0%

DRAM PAGES: 1048576
Allocated PAGES: 9169
