
*** ChampSim Multicore Out-of-Order Simulator ***

Warmup Instructions: 50000000
Simulation Instructions: 200000000
Number of CPUs: 1
LLC sets: 2048
LLC ways: 16
Off-chip DRAM Size: 4096 MB Channels: 1 Width: 64-bit Data Rate: 6400 MT/s
CPU 0 runs traces/spec2k17/srv_54.champsimtrace.xz
.xz
BTB has LRU replacement policy
ITLB has LRU replacement policy
DTLB has LRU replacement policy
STLB has LRU replacement policy
L1I has LRU replacement policy
L1D has LRU replacement policy
Initialize SRRIP state for L2C
Initialize DRRIP state for LLC
Heartbeat CPU 0 instructions: 10000000 cycles: 2817622 heartbeat IPC: 3.54909 cumulative IPC: 3.54909 (Simulation time: 0 hr 0 min 46 sec) 
Heartbeat CPU 0 instructions: 20000002 cycles: 5631456 heartbeat IPC: 3.55387 cumulative IPC: 3.55148 (Simulation time: 0 hr 1 min 15 sec) 
Heartbeat CPU 0 instructions: 30000001 cycles: 8451950 heartbeat IPC: 3.54548 cumulative IPC: 3.54948 (Simulation time: 0 hr 1 min 46 sec) 
*** Reached end of trace for Core: 0 Repeating trace: traces/spec2k17/srv_54.champsimtrace.xz
Heartbeat CPU 0 instructions: 40000000 cycles: 11258164 heartbeat IPC: 3.56352 cumulative IPC: 3.55298 (Simulation time: 0 hr 2 min 16 sec) 
Heartbeat CPU 0 instructions: 50000003 cycles: 14079916 heartbeat IPC: 3.5439 cumulative IPC: 3.55116 (Simulation time: 0 hr 2 min 47 sec) 

Warmup complete CPU 0 instructions: 50000003 cycles: 14079916 (Simulation time: 0 hr 2 min 47 sec) 

Heartbeat CPU 0 instructions: 60000003 cycles: 34032570 heartbeat IPC: 0.501186 cumulative IPC: 0.501186 (Simulation time: 0 hr 3 min 31 sec) 
*** Reached end of trace for Core: 0 Repeating trace: traces/spec2k17/srv_54.champsimtrace.xz
Heartbeat CPU 0 instructions: 70000001 cycles: 51888474 heartbeat IPC: 0.560039 cumulative IPC: 0.528981 (Simulation time: 0 hr 4 min 30 sec) 
Heartbeat CPU 0 instructions: 80000002 cycles: 71305248 heartbeat IPC: 0.515019 cumulative IPC: 0.524243 (Simulation time: 0 hr 5 min 29 sec) 
Heartbeat CPU 0 instructions: 90000001 cycles: 91758653 heartbeat IPC: 0.488916 cumulative IPC: 0.514941 (Simulation time: 0 hr 6 min 45 sec) 
*** Reached end of trace for Core: 0 Repeating trace: traces/spec2k17/srv_54.champsimtrace.xz
Heartbeat CPU 0 instructions: 100000002 cycles: 111001207 heartbeat IPC: 0.519682 cumulative IPC: 0.515882 (Simulation time: 0 hr 9 min 21 sec) 
Heartbeat CPU 0 instructions: 110000000 cycles: 128353472 heartbeat IPC: 0.576294 cumulative IPC: 0.525056 (Simulation time: 0 hr 11 min 13 sec) 
Heartbeat CPU 0 instructions: 120000003 cycles: 149687091 heartbeat IPC: 0.468744 cumulative IPC: 0.516197 (Simulation time: 0 hr 13 min 1 sec) 
*** Reached end of trace for Core: 0 Repeating trace: traces/spec2k17/srv_54.champsimtrace.xz
Heartbeat CPU 0 instructions: 130000001 cycles: 168504555 heartbeat IPC: 0.531421 cumulative IPC: 0.518052 (Simulation time: 0 hr 14 min 10 sec) 
Heartbeat CPU 0 instructions: 140000000 cycles: 187196040 heartbeat IPC: 0.535003 cumulative IPC: 0.519882 (Simulation time: 0 hr 14 min 57 sec) 
Heartbeat CPU 0 instructions: 150000000 cycles: 208598761 heartbeat IPC: 0.46723 cumulative IPC: 0.514089 (Simulation time: 0 hr 16 min 23 sec) 
*** Reached end of trace for Core: 0 Repeating trace: traces/spec2k17/srv_54.champsimtrace.xz
Heartbeat CPU 0 instructions: 160000002 cycles: 226322462 heartbeat IPC: 0.564216 cumulative IPC: 0.518275 (Simulation time: 0 hr 17 min 36 sec) 
Heartbeat CPU 0 instructions: 170000001 cycles: 245937933 heartbeat IPC: 0.509802 cumulative IPC: 0.517558 (Simulation time: 0 hr 19 min 17 sec) 
Heartbeat CPU 0 instructions: 180000001 cycles: 267198108 heartbeat IPC: 0.470363 cumulative IPC: 0.513594 (Simulation time: 0 hr 20 min 39 sec) 
*** Reached end of trace for Core: 0 Repeating trace: traces/spec2k17/srv_54.champsimtrace.xz
Heartbeat CPU 0 instructions: 190000002 cycles: 284432173 heartbeat IPC: 0.580246 cumulative IPC: 0.517843 (Simulation time: 0 hr 22 min 10 sec) 
Heartbeat CPU 0 instructions: 200000000 cycles: 302993934 heartbeat IPC: 0.538742 cumulative IPC: 0.519186 (Simulation time: 0 hr 22 min 57 sec) 
Heartbeat CPU 0 instructions: 210000000 cycles: 325892280 heartbeat IPC: 0.436713 cumulative IPC: 0.513129 (Simulation time: 0 hr 23 min 34 sec) 
*** Reached end of trace for Core: 0 Repeating trace: traces/spec2k17/srv_54.champsimtrace.xz
Heartbeat CPU 0 instructions: 220000000 cycles: 343273395 heartbeat IPC: 0.575337 cumulative IPC: 0.516414 (Simulation time: 0 hr 24 min 6 sec) 
Heartbeat CPU 0 instructions: 230000001 cycles: 359853313 heartbeat IPC: 0.603139 cumulative IPC: 0.520572 (Simulation time: 0 hr 24 min 37 sec) 
Heartbeat CPU 0 instructions: 240000002 cycles: 384637309 heartbeat IPC: 0.403486 cumulative IPC: 0.512741 (Simulation time: 0 hr 25 min 9 sec) 
*** Reached end of trace for Core: 0 Repeating trace: traces/spec2k17/srv_54.champsimtrace.xz
Heartbeat CPU 0 instructions: 250000000 cycles: 401573378 heartbeat IPC: 0.590456 cumulative IPC: 0.516138 (Simulation time: 0 hr 25 min 37 sec) 
Finished CPU 0 instructions: 200000002 cycles: 387493672 cumulative IPC: 0.516137 (Simulation time: 0 hr 25 min 37 sec) 

ChampSim completed all CPUs

Region of Interest Statistics

CPU 0 cumulative IPC: 0.516137 instructions: 200000002 cycles: 387493672
ITLB TOTAL     ACCESS:   33883593  HIT:   33284467  MISS:     599126  HIT %:    98.2318  MISS %:    1.76819   MPKI: 2.99563
ITLB LOAD TRANSLATION ACCESS:   33883593  HIT:   33284467  MISS:     599126  HIT %:    98.2318  MISS %:    1.76819   MPKI: 2.99563
ITLB PREFETCH  REQUESTED:          0  ISSUED:          0  USEFUL:          0  USELESS:          0
ITLB USEFUL LOAD PREFETCHES:          0 PREFETCH ISSUED TO LOWER LEVEL:          0  ACCURACY: -nan
ITLB TIMELY PREFETCHES:          0 LATE PREFETCHES: 0 DROPPED PREFETCHES: 0
ITLB PREFETCHES SAME FILL-ORIGIN LEVEL: 0 DIFFERENT FILL-ORIGIN LEVEL: 0
ITLB AVERAGE MISS LATENCY: 10.6204 cycles
ITLB RQ	ACCESS:   38514458	FORWARD:          0	MERGED:    4458114	TO_CACHE:   34056344

DTLB TOTAL     ACCESS:   39063938  HIT:   38438922  MISS:     625016  HIT %:       98.4  MISS %:    1.59998   MPKI: 3.12508
DTLB LOAD TRANSLATION ACCESS:   39063938  HIT:   38438922  MISS:     625016  HIT %:       98.4  MISS %:    1.59998   MPKI: 3.12508
DTLB PREFETCH  REQUESTED:          0  ISSUED:          0  USEFUL:          0  USELESS:          0
DTLB USEFUL LOAD PREFETCHES:          0 PREFETCH ISSUED TO LOWER LEVEL:          0  ACCURACY: -nan
DTLB TIMELY PREFETCHES:          0 LATE PREFETCHES: 0 DROPPED PREFETCHES: 0
DTLB PREFETCHES SAME FILL-ORIGIN LEVEL: 0 DIFFERENT FILL-ORIGIN LEVEL: 0
DTLB AVERAGE MISS LATENCY: 16.1023 cycles
DTLB RQ	ACCESS:   51315084	FORWARD:          0	MERGED:   12201914	TO_CACHE:   39113170

STLB TOTAL     ACCESS:    4603392  HIT:    4525020  MISS:      78372  HIT %:    98.2975  MISS %:    1.70248   MPKI: 0.39186
STLB LOAD TRANSLATION ACCESS:    1224142  HIT:    1146243  MISS:      77899  HIT %:    93.6364  MISS %:    6.36356   MPKI: 0.389495
STLB TRANSLATION FROM L1D PREFETCHER ACCESS:    3379250  HIT:    3378777  MISS:        473  HIT %:     99.986  MISS %:  0.0139972   MPKI: 0.002365
STLB PREFETCH  REQUESTED:          0  ISSUED:          0  USEFUL:        412  USELESS:         60
STLB USEFUL LOAD PREFETCHES:        412 PREFETCH ISSUED TO LOWER LEVEL:          0  ACCURACY: inf
STLB TIMELY PREFETCHES:        412 LATE PREFETCHES: 27 DROPPED PREFETCHES: 14605
STLB PREFETCHES SAME FILL-ORIGIN LEVEL: 0 DIFFERENT FILL-ORIGIN LEVEL: 0
STLB AVERAGE MISS LATENCY: 626.599 cycles
STLB RQ	ACCESS:    5620784	FORWARD:          0	MERGED:    1002754	TO_CACHE:    4618030

STLB Hit, L1D data hit: 0
STLB Hit, L2C data hit: 0
STLB Hit, LLC data hit: 0
STLB Hit, LLC data miss: 0
STLB STLB hints to L2: 0
L1D TOTAL     ACCESS:   54766766  HIT:   53103754  MISS:    1663012  HIT %:    96.9635  MISS %:    3.03653   MPKI: 8.31506
L1D LOAD      ACCESS:   31224669  HIT:   30110604  MISS:    1114065  HIT %:    96.4321  MISS %:     3.5679   MPKI: 5.57032
L1D RFO       ACCESS:   19200526  HIT:   18666880  MISS:     533646  HIT %:    97.2207  MISS %:    2.77933   MPKI: 2.66823
L1D PREFETCH  ACCESS:    4341571  HIT:    4326270  MISS:      15301  HIT %:    99.6476  MISS %:    0.35243   MPKI: 0.076505
AGUS PREFETCH L1 MISS: 0
L1D PREFETCH  REQUESTED:    9341242  ISSUED:    9341241  USEFUL:       7758  USELESS:       7546
L1D USEFUL LOAD PREFETCHES:       7758 PREFETCH ISSUED TO LOWER LEVEL:      26419  ACCURACY: 29.3652
L1D TIMELY PREFETCHES:       7758 LATE PREFETCHES: 11065 DROPPED PREFETCHES: 27021
L1D PREFETCHES SAME FILL-ORIGIN LEVEL: 26419 DIFFERENT FILL-ORIGIN LEVEL: 0
L1D AVERAGE MISS LATENCY: 1.53148e+06 cycles
L1D RQ	ACCESS:   43754350	FORWARD:          0	MERGED:   12122368	TO_CACHE:   31318440
L1D WQ	ACCESS:   20218308	FORWARD:     320407	MERGED:     221664	TO_CACHE:   19996644
L1D PQ	ACCESS:    4944599	FORWARD:          0	MERGED:     541092	TO_CACHE:    4396642

L1D UNIQUE REGIONS ACCESSED: 0
L1D REGIONS CONFLICTS: 0
L1D Cross Page Prefetch Requests: 3699769
L1D Same Page Prefetch Requests: 1594174
L1D ROI Sum of L1D PQ occupancy: 65090424
L1D PREFETCHES PUSHED FROM L2C: 0
L1I TOTAL     ACCESS:   37977274  HIT:   34694022  MISS:    3283252  HIT %:    91.3547  MISS %:    8.64531   MPKI: 16.4163
L1I LOAD      ACCESS:   37977274  HIT:   34694022  MISS:    3283252  HIT %:    91.3547  MISS %:    8.64531   MPKI: 16.4163
L1I PREFETCH  REQUESTED:          0  ISSUED:          0  USEFUL:          0  USELESS:          0
L1I USEFUL LOAD PREFETCHES:          0 PREFETCH ISSUED TO LOWER LEVEL:          0  ACCURACY: -nan
L1I TIMELY PREFETCHES:          0 LATE PREFETCHES: 0 DROPPED PREFETCHES: 0
L1I PREFETCHES SAME FILL-ORIGIN LEVEL: 0 DIFFERENT FILL-ORIGIN LEVEL: 0
L1I AVERAGE MISS LATENCY: 22.1078 cycles
L1I RQ	ACCESS:   60214658	FORWARD:          0	MERGED:   21700200	TO_CACHE:   38514458

BTB TOTAL     ACCESS:   31119945  HIT:   26685031  MISS:    4434914  HIT %:     85.749  MISS %:     14.251   MPKI: 22.1746
BTB BRANCH_DIRECT_JUMP	ACCESS:    3483278  HIT:    3224169  MISS:     259109
BTB BRANCH_INDIRECT	ACCESS:   12132846  HIT:   10375979  MISS:    1756867
BTB BRANCH_CONDITIONAL	ACCESS:    9258792  HIT:    8942003  MISS:     316789
BTB BRANCH_DIRECT_CALL	ACCESS:    2660044  HIT:    2167295  MISS:     492749
BTB BRANCH_INDIRECT_CALL	ACCESS:     462477  HIT:     321593  MISS:     140884
BTB BRANCH_RETURN	ACCESS:    3122508  HIT:    1653992  MISS:    1468516
BTB BRANCH_OTHER ACCESS:          0  HIT:          0  MISS:          0

L2C TOTAL     ACCESS:    5982598  HIT:    4167713  MISS:    1814885  HIT %:    69.6639  MISS %:    30.3361   MPKI: 9.07442
L2C LOAD      ACCESS:    4386243  HIT:    3033823  MISS:    1352420  HIT %:    69.1668  MISS %:    30.8332   MPKI: 6.7621
L2C DATA LOAD MPKI: 2.53677
L2C INSTRUCTION LOAD MPKI: 4.22532
L2C RFO       ACCESS:     533593  HIT:     211764  MISS:     321829  HIT %:    39.6864  MISS %:    60.3136   MPKI: 1.60914
L2C PREFETCH  ACCESS:      26419  HIT:      10024  MISS:      16395  HIT %:    37.9424  MISS %:    62.0576   MPKI: 0.081975
AGUS PREFETCH L1 MISS: 0
L2C DATA PREFETCH MPKI: 0.081975
L2C INSTRUCTION PREFETCH MPKI: 0
L2C WRITEBACK ACCESS:     892327  HIT:     835625  MISS:      56702  HIT %:    93.6456  MISS %:     6.3544   MPKI: 0.28351
L2C LOAD TRANSLATION ACCESS:     117627  HIT:      51899  MISS:      65728  HIT %:    44.1217  MISS %:    55.8783   MPKI: 0.32864
L2C TRANSLATION FROM L1D PREFETCHER ACCESS:      26389  HIT:      24578  MISS:       1811  HIT %:    93.1373  MISS %:    6.86271   MPKI: 0.009055
L2C PREFETCH  REQUESTED:          0  ISSUED:          0  USEFUL:       2182  USELESS:      16007
L2C USEFUL LOAD PREFETCHES:       2182 PREFETCH ISSUED TO LOWER LEVEL:      16395  ACCURACY: 13.3089
L2C TIMELY PREFETCHES:       2182 LATE PREFETCHES: 0 DROPPED PREFETCHES: 0
L2C PREFETCHES SAME FILL-ORIGIN LEVEL: 0 DIFFERENT FILL-ORIGIN LEVEL: 0
L2C AVERAGE MISS LATENCY: 59.9269 cycles
L2C RQ	ACCESS:    5063861	FORWARD:          0	MERGED:          0	TO_CACHE:    5063853
L2C WQ	ACCESS:     892327	FORWARD:          8	MERGED:          0	TO_CACHE:     892327
L2C PQ	ACCESS:      26419	FORWARD:          0	MERGED:          0	TO_CACHE:      26419

L2C Instructions Evicting Data 406624
L2C Translations Evicting Data 33266
L2C Data Evicting Data 433008
L2C Instructions Evicting Instructions 407282
L2C Translations Evicting Instructions 31459
L2C Data Evicting Instructions 380492
L2C Instructions Evicting Translations 31159
L2C Translations Evicting Translations 2814
L2C Data Evicting Translations 32079
L2C Dense regions hint from L2: 0
PSCL5 TOTAL     ACCESS:      92722  HIT:      92722  MISS:          0  HIT %:        100  MISS %:          0   MPKI: 0
PSCL5 LOAD TRANSLATION ACCESS:      77872  HIT:      77872  MISS:          0  HIT %:        100  MISS %:          0   MPKI: 0
PSCL5 TRANSLATION FROM L1D PREFETCHER ACCESS:      14850  HIT:      14850  MISS:          0  HIT %:        100  MISS %:          0   MPKI: 0
PSCL5 PREFETCH  REQUESTED:          0  ISSUED:          0  USEFUL:          0  USELESS:          0
PSCL5 USEFUL LOAD PREFETCHES:          0 PREFETCH ISSUED TO LOWER LEVEL:          0  ACCURACY: -nan
PSCL5 TIMELY PREFETCHES:          0 LATE PREFETCHES: 0 DROPPED PREFETCHES: 0
PSCL5 PREFETCHES SAME FILL-ORIGIN LEVEL: 0 DIFFERENT FILL-ORIGIN LEVEL: 0

PSCL4 TOTAL     ACCESS:      90325  HIT:      89756  MISS:        569  HIT %:    99.3701  MISS %:   0.629947   MPKI: 0.002845
PSCL4 LOAD TRANSLATION ACCESS:      75616  HIT:      75047  MISS:        569  HIT %:    99.2475  MISS %:   0.752486   MPKI: 0.002845
PSCL4 TRANSLATION FROM L1D PREFETCHER ACCESS:      14709  HIT:      14709  MISS:          0  HIT %:        100  MISS %:          0   MPKI: 0
PSCL4 PREFETCH  REQUESTED:          0  ISSUED:          0  USEFUL:          0  USELESS:          0
PSCL4 USEFUL LOAD PREFETCHES:          0 PREFETCH ISSUED TO LOWER LEVEL:          0  ACCURACY: -nan
PSCL4 TIMELY PREFETCHES:          0 LATE PREFETCHES: 0 DROPPED PREFETCHES: 0
PSCL4 PREFETCHES SAME FILL-ORIGIN LEVEL: 0 DIFFERENT FILL-ORIGIN LEVEL: 0

PSCL3 TOTAL     ACCESS:      78605  HIT:      68133  MISS:      10472  HIT %:    86.6777  MISS %:    13.3223   MPKI: 0.05236
PSCL3 LOAD TRANSLATION ACCESS:      71683  HIT:      61211  MISS:      10472  HIT %:    85.3912  MISS %:    14.6088   MPKI: 0.05236
PSCL3 TRANSLATION FROM L1D PREFETCHER ACCESS:       6922  HIT:       6922  MISS:          0  HIT %:        100  MISS %:          0   MPKI: 0
PSCL3 PREFETCH  REQUESTED:          0  ISSUED:          0  USEFUL:          0  USELESS:          0
PSCL3 USEFUL LOAD PREFETCHES:          0 PREFETCH ISSUED TO LOWER LEVEL:          0  ACCURACY: -nan
PSCL3 TIMELY PREFETCHES:          0 LATE PREFETCHES: 0 DROPPED PREFETCHES: 0
PSCL3 PREFETCHES SAME FILL-ORIGIN LEVEL: 0 DIFFERENT FILL-ORIGIN LEVEL: 0

PSCL2 TOTAL     ACCESS:      81840  HIT:      52691  MISS:      29149  HIT %:    64.3829  MISS %:    35.6171   MPKI: 0.145745
PSCL2 LOAD TRANSLATION ACCESS:      78141  HIT:      48992  MISS:      29149  HIT %:    62.6969  MISS %:    37.3031   MPKI: 0.145745
PSCL2 TRANSLATION FROM L1D PREFETCHER ACCESS:       3699  HIT:       3699  MISS:          0  HIT %:        100  MISS %:          0   MPKI: 0
PSCL2 PREFETCH  REQUESTED:          0  ISSUED:          0  USEFUL:          0  USELESS:          0
PSCL2 USEFUL LOAD PREFETCHES:          0 PREFETCH ISSUED TO LOWER LEVEL:          0  ACCURACY: -nan
PSCL2 TIMELY PREFETCHES:          0 LATE PREFETCHES: 0 DROPPED PREFETCHES: 0
PSCL2 PREFETCHES SAME FILL-ORIGIN LEVEL: 0 DIFFERENT FILL-ORIGIN LEVEL: 0

LLC TOTAL     ACCESS:    2250168  HIT:    1974115  MISS:     276053  HIT %:    87.7319  MISS %:    12.2681   MPKI: 1.38026
LLC LOAD      ACCESS:    1352420  HIT:    1212868  MISS:     139552  HIT %:    89.6813  MISS %:    10.3187   MPKI: 0.69776
LLC RFO       ACCESS:     321829  HIT:     204233  MISS:     117596  HIT %:    63.4601  MISS %:    36.5399   MPKI: 0.58798
LLC PREFETCH  ACCESS:      16395  HIT:       7505  MISS:       8890  HIT %:    45.7762  MISS %:    54.2238   MPKI: 0.04445
AGUS PREFETCH L1 MISS: 0
LLC WRITEBACK ACCESS:     491985  HIT:     490228  MISS:       1757  HIT %:    99.6429  MISS %:   0.357125   MPKI: 0.008785
LLC LOAD TRANSLATION ACCESS:      65728  HIT:      57712  MISS:       8016  HIT %:    87.8043  MISS %:    12.1957   MPKI: 0.04008
LLC TRANSLATION FROM L1D PREFETCHER ACCESS:       1811  HIT:       1569  MISS:        242  HIT %:    86.6372  MISS %:    13.3628   MPKI: 0.00121
LLC PREFETCH  REQUESTED:          0  ISSUED:          0  USEFUL:        193  USELESS:       9492
LLC USEFUL LOAD PREFETCHES:        193 PREFETCH ISSUED TO LOWER LEVEL:       8890  ACCURACY: 2.17098
LLC TIMELY PREFETCHES:        193 LATE PREFETCHES: 0 DROPPED PREFETCHES: 0
LLC PREFETCHES SAME FILL-ORIGIN LEVEL: 0 DIFFERENT FILL-ORIGIN LEVEL: 0
LLC AVERAGE MISS LATENCY: 202.908 cycles
LLC RQ	ACCESS:    1741788	FORWARD:          0	MERGED:          0	TO_CACHE:    1741788
LLC WQ	ACCESS:     491985	FORWARD:          0	MERGED:          0	TO_CACHE:     491985
LLC PQ	ACCESS:      16395	FORWARD:          0	MERGED:          0	TO_CACHE:      16395

LLC Dense regions hint to LLC: 0

RAW hits: 2298741
Loads Generated: 46053091
Loads sent to L1D: 43754350
Stores Generated: 20218330
Stores sent to L1D: 20218308
Major fault: 0 Minor fault: 4930
Allocated PAGES: 4930
Completed 

DRAM Statistics
 CHANNEL 0
 RQ ROW_BUFFER_HIT:      62717  ROW_BUFFER_MISS:     211575
 DBUS_CONGESTED:        100
 WQ ROW_BUFFER_HIT:      28439  ROW_BUFFER_MISS:     159458  FULL:          0

 AVG_CONGESTED_CYCLE: 4
 All warmup complete: 2
Channel 0 Bank busy for read cycles: 0
Channel 0 Bank busy for write cycles: 0
Channel 0
Rank 0
0banks busy for read cycles: 346655607
0banks busy for write cycles: 79334
1banks busy for read cycles: 18421950
1banks busy for write cycles: 11344371
2banks busy for read cycles: 3021750
2banks busy for write cycles: 2762621
3banks busy for read cycles: 731915
3banks busy for write cycles: 1095123
4banks busy for read cycles: 205740
4banks busy for write cycles: 492186
5banks busy for read cycles: 106965
5banks busy for write cycles: 243427
6banks busy for read cycles: 117187
6banks busy for write cycles: 128645
7banks busy for read cycles: 186595
7banks busy for write cycles: 152325
8banks busy for read cycles: 638960
8banks busy for write cycles: 1108972

CPU 0 Branch Prediction Accuracy: 99.6389% MPKI: 0.649475 Average ROB Occupancy at Mispredict: 29.2648
Branch types
NOT_BRANCH: 164024582 82.0123%
BRANCH_DIRECT_JUMP: 3483278 1.74164%
BRANCH_INDIRECT: 12132846 6.06642%
BRANCH_CONDITIONAL: 14114305 7.05715%
BRANCH_DIRECT_CALL: 2660044 1.33002%
BRANCH_INDIRECT_CALL: 462477 0.231238%
BRANCH_RETURN: 3122508 1.56125%
BRANCH_OTHER: 0 0%

DRAM PAGES: 1048576
Allocated PAGES: 4930
