
*** ChampSim Multicore Out-of-Order Simulator ***

Warmup Instructions: 50000000
Simulation Instructions: 200000000
Number of CPUs: 1
LLC sets: 2048
LLC ways: 16
Off-chip DRAM Size: 4096 MB Channels: 1 Width: 64-bit Data Rate: 6400 MT/s
CPU 0 runs traces/spec2k17/srv_55.champsimtrace.xz
.xz
BTB has LRU replacement policy
ITLB has LRU replacement policy
DTLB has LRU replacement policy
STLB has LRU replacement policy
L1I has LRU replacement policy
L1D has LRU replacement policy
Initialize SRRIP state for L2C
Initialize DRRIP state for LLC
Heartbeat CPU 0 instructions: 10000000 cycles: 2859510 heartbeat IPC: 3.4971 cumulative IPC: 3.4971 (Simulation time: 0 hr 0 min 40 sec) 
Heartbeat CPU 0 instructions: 20000002 cycles: 5723770 heartbeat IPC: 3.4913 cumulative IPC: 3.4942 (Simulation time: 0 hr 1 min 8 sec) 
Heartbeat CPU 0 instructions: 30000001 cycles: 8568298 heartbeat IPC: 3.51552 cumulative IPC: 3.50128 (Simulation time: 0 hr 1 min 38 sec) 
*** Reached end of trace for Core: 0 Repeating trace: traces/spec2k17/srv_55.champsimtrace.xz
Heartbeat CPU 0 instructions: 40000000 cycles: 11431024 heartbeat IPC: 3.49317 cumulative IPC: 3.49925 (Simulation time: 0 hr 2 min 8 sec) 
Heartbeat CPU 0 instructions: 50000002 cycles: 14284957 heartbeat IPC: 3.50394 cumulative IPC: 3.50019 (Simulation time: 0 hr 2 min 39 sec) 

Warmup complete CPU 0 instructions: 50000002 cycles: 14284957 (Simulation time: 0 hr 2 min 39 sec) 

Heartbeat CPU 0 instructions: 60000001 cycles: 36979062 heartbeat IPC: 0.440643 cumulative IPC: 0.440643 (Simulation time: 0 hr 3 min 25 sec) 
*** Reached end of trace for Core: 0 Repeating trace: traces/spec2k17/srv_55.champsimtrace.xz
Heartbeat CPU 0 instructions: 70000000 cycles: 58087835 heartbeat IPC: 0.473737 cumulative IPC: 0.456591 (Simulation time: 0 hr 4 min 30 sec) 
Heartbeat CPU 0 instructions: 80000003 cycles: 82188707 heartbeat IPC: 0.414923 cumulative IPC: 0.441802 (Simulation time: 0 hr 5 min 36 sec) 
Heartbeat CPU 0 instructions: 90000000 cycles: 103458267 heartbeat IPC: 0.470155 cumulative IPC: 0.448565 (Simulation time: 0 hr 7 min 19 sec) 
*** Reached end of trace for Core: 0 Repeating trace: traces/spec2k17/srv_55.champsimtrace.xz
Heartbeat CPU 0 instructions: 100000003 cycles: 126287085 heartbeat IPC: 0.438043 cumulative IPC: 0.44642 (Simulation time: 0 hr 9 min 33 sec) 
Heartbeat CPU 0 instructions: 110000000 cycles: 149555563 heartbeat IPC: 0.429766 cumulative IPC: 0.443555 (Simulation time: 0 hr 11 min 57 sec) 
Heartbeat CPU 0 instructions: 120000003 cycles: 171721173 heartbeat IPC: 0.451149 cumulative IPC: 0.444625 (Simulation time: 0 hr 13 min 24 sec) 
*** Reached end of trace for Core: 0 Repeating trace: traces/spec2k17/srv_55.champsimtrace.xz
Heartbeat CPU 0 instructions: 130000000 cycles: 192719691 heartbeat IPC: 0.476224 cumulative IPC: 0.448343 (Simulation time: 0 hr 14 min 23 sec) 
Heartbeat CPU 0 instructions: 140000002 cycles: 216350363 heartbeat IPC: 0.423179 cumulative IPC: 0.4454 (Simulation time: 0 hr 15 min 31 sec) 
Heartbeat CPU 0 instructions: 150000003 cycles: 238233411 heartbeat IPC: 0.456975 cumulative IPC: 0.446531 (Simulation time: 0 hr 16 min 56 sec) 
*** Reached end of trace for Core: 0 Repeating trace: traces/spec2k17/srv_55.champsimtrace.xz
Heartbeat CPU 0 instructions: 160000001 cycles: 260820455 heartbeat IPC: 0.442732 cumulative IPC: 0.446183 (Simulation time: 0 hr 18 min 5 sec) 
Heartbeat CPU 0 instructions: 170000000 cycles: 284639840 heartbeat IPC: 0.419826 cumulative IPC: 0.443861 (Simulation time: 0 hr 19 min 38 sec) 
Heartbeat CPU 0 instructions: 180000000 cycles: 304953406 heartbeat IPC: 0.492282 cumulative IPC: 0.447245 (Simulation time: 0 hr 20 min 51 sec) 
*** Reached end of trace for Core: 0 Repeating trace: traces/spec2k17/srv_55.champsimtrace.xz
Heartbeat CPU 0 instructions: 190000002 cycles: 327124460 heartbeat IPC: 0.451039 cumulative IPC: 0.447514 (Simulation time: 0 hr 22 min 17 sec) 
Heartbeat CPU 0 instructions: 200000000 cycles: 352099707 heartbeat IPC: 0.400396 cumulative IPC: 0.44403 (Simulation time: 0 hr 23 min 0 sec) 
Heartbeat CPU 0 instructions: 210000000 cycles: 372956103 heartbeat IPC: 0.479469 cumulative IPC: 0.446091 (Simulation time: 0 hr 23 min 34 sec) 
*** Reached end of trace for Core: 0 Repeating trace: traces/spec2k17/srv_55.champsimtrace.xz
Heartbeat CPU 0 instructions: 220000000 cycles: 394721773 heartbeat IPC: 0.459439 cumulative IPC: 0.446855 (Simulation time: 0 hr 24 min 8 sec) 
Heartbeat CPU 0 instructions: 230000001 cycles: 418453442 heartbeat IPC: 0.421378 cumulative IPC: 0.445359 (Simulation time: 0 hr 24 min 39 sec) 
Heartbeat CPU 0 instructions: 240000003 cycles: 440490753 heartbeat IPC: 0.453776 cumulative IPC: 0.445794 (Simulation time: 0 hr 25 min 9 sec) 
*** Reached end of trace for Core: 0 Repeating trace: traces/spec2k17/srv_55.champsimtrace.xz
Heartbeat CPU 0 instructions: 250000001 cycles: 462743500 heartbeat IPC: 0.449383 cumulative IPC: 0.445972 (Simulation time: 0 hr 25 min 37 sec) 
Finished CPU 0 instructions: 200000000 cycles: 448458560 cumulative IPC: 0.445972 (Simulation time: 0 hr 25 min 37 sec) 

ChampSim completed all CPUs

Region of Interest Statistics

CPU 0 cumulative IPC: 0.445972 instructions: 200000000 cycles: 448458560
ITLB TOTAL     ACCESS:   34473843  HIT:   33630440  MISS:     843403  HIT %:    97.5535  MISS %:     2.4465   MPKI: 4.21701
ITLB LOAD TRANSLATION ACCESS:   34473843  HIT:   33630440  MISS:     843403  HIT %:    97.5535  MISS %:     2.4465   MPKI: 4.21701
ITLB PREFETCH  REQUESTED:          0  ISSUED:          0  USEFUL:          0  USELESS:          0
ITLB USEFUL LOAD PREFETCHES:          0 PREFETCH ISSUED TO LOWER LEVEL:          0  ACCURACY: -nan
ITLB TIMELY PREFETCHES:          0 LATE PREFETCHES: 0 DROPPED PREFETCHES: 0
ITLB PREFETCHES SAME FILL-ORIGIN LEVEL: 0 DIFFERENT FILL-ORIGIN LEVEL: 0
ITLB AVERAGE MISS LATENCY: 10.6759 cycles
ITLB RQ	ACCESS:   39354903	FORWARD:          0	MERGED:    4639590	TO_CACHE:   34715313

DTLB TOTAL     ACCESS:   39143652  HIT:   38247196  MISS:     896456  HIT %:    97.7098  MISS %:    2.29017   MPKI: 4.48228
DTLB LOAD TRANSLATION ACCESS:   39143652  HIT:   38247196  MISS:     896456  HIT %:    97.7098  MISS %:    2.29017   MPKI: 4.48228
DTLB PREFETCH  REQUESTED:          0  ISSUED:          0  USEFUL:          0  USELESS:          0
DTLB USEFUL LOAD PREFETCHES:          0 PREFETCH ISSUED TO LOWER LEVEL:          0  ACCURACY: -nan
DTLB TIMELY PREFETCHES:          0 LATE PREFETCHES: 0 DROPPED PREFETCHES: 0
DTLB PREFETCHES SAME FILL-ORIGIN LEVEL: 0 DIFFERENT FILL-ORIGIN LEVEL: 0
DTLB AVERAGE MISS LATENCY: 16.4066 cycles
DTLB RQ	ACCESS:   51460102	FORWARD:          0	MERGED:   12247731	TO_CACHE:   39212371

STLB TOTAL     ACCESS:    3117162  HIT:    3003361  MISS:     113801  HIT %:    96.3492  MISS %:    3.65079   MPKI: 0.569005
STLB LOAD TRANSLATION ACCESS:    1739859  HIT:    1626717  MISS:     113142  HIT %:    93.4971  MISS %:    6.50294   MPKI: 0.56571
STLB TRANSLATION FROM L1D PREFETCHER ACCESS:    1377303  HIT:    1376644  MISS:        659  HIT %:    99.9522  MISS %:  0.0478471   MPKI: 0.003295
STLB PREFETCH  REQUESTED:          0  ISSUED:          0  USEFUL:        605  USELESS:         54
STLB USEFUL LOAD PREFETCHES:        605 PREFETCH ISSUED TO LOWER LEVEL:          0  ACCURACY: inf
STLB TIMELY PREFETCHES:        605 LATE PREFETCHES: 30 DROPPED PREFETCHES: 21836
STLB PREFETCHES SAME FILL-ORIGIN LEVEL: 0 DIFFERENT FILL-ORIGIN LEVEL: 0
STLB AVERAGE MISS LATENCY: 71.1557 cycles
STLB RQ	ACCESS:    3559016	FORWARD:          0	MERGED:     419987	TO_CACHE:    3139029

STLB Hit, L1D data hit: 0
STLB Hit, L2C data hit: 0
STLB Hit, LLC data hit: 0
STLB Hit, LLC data miss: 0
STLB STLB hints to L2: 0
L1D TOTAL     ACCESS:   52056551  HIT:   49773945  MISS:    2282606  HIT %:    95.6151  MISS %:    4.38486   MPKI: 11.413
L1D LOAD      ACCESS:   31582168  HIT:   30037199  MISS:    1544969  HIT %:    95.1081  MISS %:     4.8919   MPKI: 7.72485
L1D RFO       ACCESS:   18714921  HIT:   17997172  MISS:     717749  HIT %:    96.1648  MISS %:    3.83517   MPKI: 3.58874
L1D PREFETCH  ACCESS:    1759462  HIT:    1739574  MISS:      19888  HIT %:    98.8697  MISS %:    1.13035   MPKI: 0.09944
AGUS PREFETCH L1 MISS: 0
L1D PREFETCH  REQUESTED:    4194309  ISSUED:    4194309  USEFUL:       9496  USELESS:      10391
L1D USEFUL LOAD PREFETCHES:       9496 PREFETCH ISSUED TO LOWER LEVEL:      32313  ACCURACY: 29.3876
L1D TIMELY PREFETCHES:       9496 LATE PREFETCHES: 12407 DROPPED PREFETCHES: 30103
L1D PREFETCHES SAME FILL-ORIGIN LEVEL: 32313 DIFFERENT FILL-ORIGIN LEVEL: 0
L1D AVERAGE MISS LATENCY: 1.47457e+06 cycles
L1D RQ	ACCESS:   43671909	FORWARD:          0	MERGED:   11682640	TO_CACHE:   31709128
L1D WQ	ACCESS:   20006828	FORWARD:     281521	MERGED:     255854	TO_CACHE:   19750974
L1D PQ	ACCESS:    2375152	FORWARD:          0	MERGED:     554615	TO_CACHE:    1819157

L1D UNIQUE REGIONS ACCESSED: 0
L1D REGIONS CONFLICTS: 0
L1D Cross Page Prefetch Requests: 1375239
L1D Same Page Prefetch Requests: 1345733
L1D ROI Sum of L1D PQ occupancy: 28033166
L1D PREFETCHES PUSHED FROM L2C: 0
L1I TOTAL     ACCESS:   38616180  HIT:   34060939  MISS:    4555241  HIT %:    88.2038  MISS %:    11.7962   MPKI: 22.7762
L1I LOAD      ACCESS:   38616180  HIT:   34060939  MISS:    4555241  HIT %:    88.2038  MISS %:    11.7962   MPKI: 22.7762
L1I PREFETCH  REQUESTED:          0  ISSUED:          0  USEFUL:          0  USELESS:          0
L1I USEFUL LOAD PREFETCHES:          0 PREFETCH ISSUED TO LOWER LEVEL:          0  ACCURACY: -nan
L1I TIMELY PREFETCHES:          0 LATE PREFETCHES: 0 DROPPED PREFETCHES: 0
L1I PREFETCHES SAME FILL-ORIGIN LEVEL: 0 DIFFERENT FILL-ORIGIN LEVEL: 0
L1I AVERAGE MISS LATENCY: 22.5072 cycles
L1I RQ	ACCESS:   59999470	FORWARD:          0	MERGED:   20644567	TO_CACHE:   39354903

BTB TOTAL     ACCESS:   31459047  HIT:   25911136  MISS:    5547911  HIT %:    82.3647  MISS %:    17.6353   MPKI: 27.7396
BTB BRANCH_DIRECT_JUMP	ACCESS:    3339084  HIT:    2970489  MISS:     368595
BTB BRANCH_INDIRECT	ACCESS:   11794433  HIT:    9601232  MISS:    2193201
BTB BRANCH_CONDITIONAL	ACCESS:   10201130  HIT:    9749255  MISS:     451875
BTB BRANCH_DIRECT_CALL	ACCESS:    2608135  HIT:    1905671  MISS:     702464
BTB BRANCH_INDIRECT_CALL	ACCESS:     454121  HIT:     253463  MISS:     200658
BTB BRANCH_RETURN	ACCESS:    3062144  HIT:    1431026  MISS:    1631118
BTB BRANCH_OTHER ACCESS:          0  HIT:          0  MISS:          0

L2C TOTAL     ACCESS:    8257624  HIT:    5681056  MISS:    2576568  HIT %:    68.7977  MISS %:    31.2023   MPKI: 12.8828
L2C LOAD      ACCESS:    6087764  HIT:    4134021  MISS:    1953743  HIT %:    67.9071  MISS %:    32.0929   MPKI: 9.76872
L2C DATA LOAD MPKI: 3.57154
L2C INSTRUCTION LOAD MPKI: 6.19717
L2C RFO       ACCESS:     717727  HIT:     297012  MISS:     420715  HIT %:    41.3823  MISS %:    58.6177   MPKI: 2.10358
L2C PREFETCH  ACCESS:      32311  HIT:      13338  MISS:      18973  HIT %:    41.2801  MISS %:    58.7199   MPKI: 0.094865
AGUS PREFETCH L1 MISS: 0
L2C DATA PREFETCH MPKI: 0.094865
L2C INSTRUCTION PREFETCH MPKI: 0
L2C WRITEBACK ACCESS:    1211746  HIT:    1126441  MISS:      85305  HIT %:    92.9602  MISS %:    7.03984   MPKI: 0.426525
L2C LOAD TRANSLATION ACCESS:     172303  HIT:      76028  MISS:      96275  HIT %:    44.1246  MISS %:    55.8754   MPKI: 0.481375
L2C TRANSLATION FROM L1D PREFETCHER ACCESS:      35773  HIT:      34216  MISS:       1557  HIT %:    95.6476  MISS %:    4.35244   MPKI: 0.007785
L2C PREFETCH  REQUESTED:          0  ISSUED:          0  USEFUL:       2191  USELESS:      18322
L2C USEFUL LOAD PREFETCHES:       2191 PREFETCH ISSUED TO LOWER LEVEL:      18973  ACCURACY: 11.548
L2C TIMELY PREFETCHES:       2191 LATE PREFETCHES: 0 DROPPED PREFETCHES: 0
L2C PREFETCHES SAME FILL-ORIGIN LEVEL: 0 DIFFERENT FILL-ORIGIN LEVEL: 0
L2C AVERAGE MISS LATENCY: 53.7794 cycles
L2C RQ	ACCESS:    7013610	FORWARD:          0	MERGED:          0	TO_CACHE:    7013567
L2C WQ	ACCESS:    1211746	FORWARD:         45	MERGED:          0	TO_CACHE:    1211746
L2C PQ	ACCESS:      32313	FORWARD:          0	MERGED:          0	TO_CACHE:      32311

L2C Instructions Evicting Data 581020
L2C Translations Evicting Data 48109
L2C Data Evicting Data 568176
L2C Instructions Evicting Instructions 613184
L2C Translations Evicting Instructions 45765
L2C Data Evicting Instructions 539568
L2C Instructions Evicting Translations 45230
L2C Translations Evicting Translations 3958
L2C Data Evicting Translations 46253
L2C Dense regions hint from L2: 0
PSCL5 TOTAL     ACCESS:     135328  HIT:     135328  MISS:          0  HIT %:        100  MISS %:          0   MPKI: 0
PSCL5 LOAD TRANSLATION ACCESS:     113112  HIT:     113112  MISS:          0  HIT %:        100  MISS %:          0   MPKI: 0
PSCL5 TRANSLATION FROM L1D PREFETCHER ACCESS:      22216  HIT:      22216  MISS:          0  HIT %:        100  MISS %:          0   MPKI: 0
PSCL5 PREFETCH  REQUESTED:          0  ISSUED:          0  USEFUL:          0  USELESS:          0
PSCL5 USEFUL LOAD PREFETCHES:          0 PREFETCH ISSUED TO LOWER LEVEL:          0  ACCURACY: -nan
PSCL5 TIMELY PREFETCHES:          0 LATE PREFETCHES: 0 DROPPED PREFETCHES: 0
PSCL5 PREFETCHES SAME FILL-ORIGIN LEVEL: 0 DIFFERENT FILL-ORIGIN LEVEL: 0

PSCL4 TOTAL     ACCESS:     133845  HIT:     133295  MISS:        550  HIT %:    99.5891  MISS %:   0.410923   MPKI: 0.00275
PSCL4 LOAD TRANSLATION ACCESS:     111740  HIT:     111190  MISS:        550  HIT %:    99.5078  MISS %:   0.492214   MPKI: 0.00275
PSCL4 TRANSLATION FROM L1D PREFETCHER ACCESS:      22105  HIT:      22105  MISS:          0  HIT %:        100  MISS %:          0   MPKI: 0
PSCL4 PREFETCH  REQUESTED:          0  ISSUED:          0  USEFUL:          0  USELESS:          0
PSCL4 USEFUL LOAD PREFETCHES:          0 PREFETCH ISSUED TO LOWER LEVEL:          0  ACCURACY: -nan
PSCL4 TIMELY PREFETCHES:          0 LATE PREFETCHES: 0 DROPPED PREFETCHES: 0
PSCL4 PREFETCHES SAME FILL-ORIGIN LEVEL: 0 DIFFERENT FILL-ORIGIN LEVEL: 0

PSCL3 TOTAL     ACCESS:     110367  HIT:      94785  MISS:      15582  HIT %:    85.8816  MISS %:    14.1184   MPKI: 0.07791
PSCL3 LOAD TRANSLATION ACCESS:     104912  HIT:      89330  MISS:      15582  HIT %:    85.1476  MISS %:    14.8524   MPKI: 0.07791
PSCL3 TRANSLATION FROM L1D PREFETCHER ACCESS:       5455  HIT:       5455  MISS:          0  HIT %:        100  MISS %:          0   MPKI: 0
PSCL3 PREFETCH  REQUESTED:          0  ISSUED:          0  USEFUL:          0  USELESS:          0
PSCL3 USEFUL LOAD PREFETCHES:          0 PREFETCH ISSUED TO LOWER LEVEL:          0  ACCURACY: -nan
PSCL3 TIMELY PREFETCHES:          0 LATE PREFETCHES: 0 DROPPED PREFETCHES: 0
PSCL3 PREFETCHES SAME FILL-ORIGIN LEVEL: 0 DIFFERENT FILL-ORIGIN LEVEL: 0

PSCL2 TOTAL     ACCESS:     115680  HIT:      72019  MISS:      43661  HIT %:    62.2571  MISS %:    37.7429   MPKI: 0.218305
PSCL2 LOAD TRANSLATION ACCESS:     113536  HIT:      69875  MISS:      43661  HIT %:    61.5444  MISS %:    38.4556   MPKI: 0.218305
PSCL2 TRANSLATION FROM L1D PREFETCHER ACCESS:       2144  HIT:       2144  MISS:          0  HIT %:        100  MISS %:          0   MPKI: 0
PSCL2 PREFETCH  REQUESTED:          0  ISSUED:          0  USEFUL:          0  USELESS:          0
PSCL2 USEFUL LOAD PREFETCHES:          0 PREFETCH ISSUED TO LOWER LEVEL:          0  ACCURACY: -nan
PSCL2 TIMELY PREFETCHES:          0 LATE PREFETCHES: 0 DROPPED PREFETCHES: 0
PSCL2 PREFETCHES SAME FILL-ORIGIN LEVEL: 0 DIFFERENT FILL-ORIGIN LEVEL: 0

LLC TOTAL     ACCESS:    3146469  HIT:    2803026  MISS:     343443  HIT %:    89.0848  MISS %:    10.9152   MPKI: 1.71721
LLC LOAD      ACCESS:    1953743  HIT:    1770612  MISS:     183131  HIT %:    90.6267  MISS %:    9.37334   MPKI: 0.915655
LLC RFO       ACCESS:     420714  HIT:     282889  MISS:     137825  HIT %:    67.2402  MISS %:    32.7598   MPKI: 0.689125
LLC PREFETCH  ACCESS:      18973  HIT:      10100  MISS:       8873  HIT %:    53.2335  MISS %:    46.7665   MPKI: 0.044365
AGUS PREFETCH L1 MISS: 0
LLC WRITEBACK ACCESS:     655207  HIT:     653327  MISS:       1880  HIT %:    99.7131  MISS %:   0.286932   MPKI: 0.0094
LLC LOAD TRANSLATION ACCESS:      96275  HIT:      84760  MISS:      11515  HIT %:    88.0395  MISS %:    11.9605   MPKI: 0.057575
LLC TRANSLATION FROM L1D PREFETCHER ACCESS:       1557  HIT:       1338  MISS:        219  HIT %:    85.9345  MISS %:    14.0655   MPKI: 0.001095
LLC PREFETCH  REQUESTED:          0  ISSUED:          0  USEFUL:        277  USELESS:       9073
LLC USEFUL LOAD PREFETCHES:        277 PREFETCH ISSUED TO LOWER LEVEL:       8873  ACCURACY: 3.12183
LLC TIMELY PREFETCHES:        277 LATE PREFETCHES: 0 DROPPED PREFETCHES: 0
LLC PREFETCHES SAME FILL-ORIGIN LEVEL: 0 DIFFERENT FILL-ORIGIN LEVEL: 0
LLC AVERAGE MISS LATENCY: 185.844 cycles
LLC RQ	ACCESS:    2472290	FORWARD:          0	MERGED:          0	TO_CACHE:    2472289
LLC WQ	ACCESS:     655207	FORWARD:          1	MERGED:          0	TO_CACHE:     655207
LLC PQ	ACCESS:      18973	FORWARD:          0	MERGED:          0	TO_CACHE:      18973

LLC Dense regions hint to LLC: 0

RAW hits: 1944553
Loads Generated: 45616462
Loads sent to L1D: 43671909
Stores Generated: 20006822
Stores sent to L1D: 20006828
Major fault: 0 Minor fault: 5873
Allocated PAGES: 5873
Completed 

DRAM Statistics
 CHANNEL 0
 RQ ROW_BUFFER_HIT:      73898  ROW_BUFFER_MISS:     267665
 DBUS_CONGESTED:        106
 WQ ROW_BUFFER_HIT:      33345  ROW_BUFFER_MISS:     189894  FULL:          0

 AVG_CONGESTED_CYCLE: 4
 All warmup complete: 2
Channel 0 Bank busy for read cycles: 0
Channel 0 Bank busy for write cycles: 0
Channel 0
Rank 0
0banks busy for read cycles: 395222077
0banks busy for write cycles: 103020
1banks busy for read cycles: 24689092
1banks busy for write cycles: 14847720
2banks busy for read cycles: 4156031
2banks busy for write cycles: 3617827
3banks busy for read cycles: 898018
3banks busy for write cycles: 1332923
4banks busy for read cycles: 249791
4banks busy for write cycles: 581550
5banks busy for read cycles: 111745
5banks busy for write cycles: 285461
6banks busy for read cycles: 116143
6banks busy for write cycles: 189351
7banks busy for read cycles: 174502
7banks busy for write cycles: 208324
8banks busy for read cycles: 600451
8banks busy for write cycles: 1074535

CPU 0 Branch Prediction Accuracy: 99.6074% MPKI: 0.711955 Average ROB Occupancy at Mispredict: 30.4846
Branch types
NOT_BRANCH: 163727781 81.8639%
BRANCH_DIRECT_JUMP: 3339084 1.66954%
BRANCH_INDIRECT: 11794433 5.89722%
BRANCH_CONDITIONAL: 15014282 7.50714%
BRANCH_DIRECT_CALL: 2608135 1.30407%
BRANCH_INDIRECT_CALL: 454121 0.22706%
BRANCH_RETURN: 3062144 1.53107%
BRANCH_OTHER: 0 0%

DRAM PAGES: 1048576
Allocated PAGES: 5873
