
*** ChampSim Multicore Out-of-Order Simulator ***

Warmup Instructions: 50000000
Simulation Instructions: 200000000
Number of CPUs: 1
LLC sets: 2048
LLC ways: 16
Off-chip DRAM Size: 4096 MB Channels: 1 Width: 64-bit Data Rate: 6400 MT/s
CPU 0 runs traces/spec2k17/srv_1.champsimtrace.xz
.xz
BTB has LRU replacement policy
ITLB has LRU replacement policy
DTLB has LRU replacement policy
STLB has LRU replacement policy
L1I has LRU replacement policy
L1D has LRU replacement policy
Initialize SRRIP state for L2C
Initialize DRRIP state for LLC
Heartbeat CPU 0 instructions: 10000001 cycles: 3893915 heartbeat IPC: 2.56811 cumulative IPC: 2.56811 (Simulation time: 0 hr 1 min 2 sec) 
Heartbeat CPU 0 instructions: 20000003 cycles: 7165194 heartbeat IPC: 3.05691 cumulative IPC: 2.79127 (Simulation time: 0 hr 1 min 57 sec) 
Heartbeat CPU 0 instructions: 30000003 cycles: 9945350 heartbeat IPC: 3.59692 cumulative IPC: 3.01649 (Simulation time: 0 hr 2 min 42 sec) 
*** Reached end of trace for Core: 0 Repeating trace: traces/spec2k17/srv_1.champsimtrace.xz
Heartbeat CPU 0 instructions: 40000002 cycles: 13729344 heartbeat IPC: 2.64271 cumulative IPC: 2.91347 (Simulation time: 0 hr 3 min 41 sec) 
Heartbeat CPU 0 instructions: 50000001 cycles: 17111493 heartbeat IPC: 2.9567 cumulative IPC: 2.92201 (Simulation time: 0 hr 4 min 27 sec) 

Warmup complete CPU 0 instructions: 50000001 cycles: 17111493 (Simulation time: 0 hr 4 min 27 sec) 

Heartbeat CPU 0 instructions: 60000000 cycles: 41381068 heartbeat IPC: 0.412038 cumulative IPC: 0.412038 (Simulation time: 0 hr 5 min 25 sec) 
*** Reached end of trace for Core: 0 Repeating trace: traces/spec2k17/srv_1.champsimtrace.xz
Heartbeat CPU 0 instructions: 70000003 cycles: 71745349 heartbeat IPC: 0.329334 cumulative IPC: 0.366073 (Simulation time: 0 hr 6 min 41 sec) 
Heartbeat CPU 0 instructions: 80000001 cycles: 100102601 heartbeat IPC: 0.352643 cumulative IPC: 0.361484 (Simulation time: 0 hr 7 min 57 sec) 
Heartbeat CPU 0 instructions: 90000000 cycles: 124463257 heartbeat IPC: 0.410498 cumulative IPC: 0.372607 (Simulation time: 0 hr 8 min 58 sec) 
*** Reached end of trace for Core: 0 Repeating trace: traces/spec2k17/srv_1.champsimtrace.xz
Heartbeat CPU 0 instructions: 100000000 cycles: 153798271 heartbeat IPC: 0.34089 cumulative IPC: 0.3658 (Simulation time: 0 hr 10 min 14 sec) 
Heartbeat CPU 0 instructions: 110000000 cycles: 182767372 heartbeat IPC: 0.345195 cumulative IPC: 0.362197 (Simulation time: 0 hr 11 min 34 sec) 
Heartbeat CPU 0 instructions: 120000001 cycles: 207047561 heartbeat IPC: 0.411858 cumulative IPC: 0.368545 (Simulation time: 0 hr 12 min 48 sec) 
*** Reached end of trace for Core: 0 Repeating trace: traces/spec2k17/srv_1.champsimtrace.xz
Heartbeat CPU 0 instructions: 130000000 cycles: 235708101 heartbeat IPC: 0.348912 cumulative IPC: 0.365971 (Simulation time: 0 hr 14 min 4 sec) 
Heartbeat CPU 0 instructions: 140000002 cycles: 265307561 heartbeat IPC: 0.337844 cumulative IPC: 0.362617 (Simulation time: 0 hr 15 min 24 sec) 
Heartbeat CPU 0 instructions: 150000002 cycles: 289519338 heartbeat IPC: 0.413022 cumulative IPC: 0.367097 (Simulation time: 0 hr 16 min 59 sec) 
*** Reached end of trace for Core: 0 Repeating trace: traces/spec2k17/srv_1.champsimtrace.xz
Heartbeat CPU 0 instructions: 160000000 cycles: 317525532 heartbeat IPC: 0.357064 cumulative IPC: 0.366161 (Simulation time: 0 hr 18 min 20 sec) 
Heartbeat CPU 0 instructions: 170000000 cycles: 347614654 heartbeat IPC: 0.332346 cumulative IPC: 0.363083 (Simulation time: 0 hr 19 min 34 sec) 
Heartbeat CPU 0 instructions: 180000000 cycles: 371899102 heartbeat IPC: 0.411786 cumulative IPC: 0.366416 (Simulation time: 0 hr 21 min 37 sec) 
*** Reached end of trace for Core: 0 Repeating trace: traces/spec2k17/srv_1.champsimtrace.xz
Heartbeat CPU 0 instructions: 190000001 cycles: 399268488 heartbeat IPC: 0.365372 cumulative IPC: 0.366342 (Simulation time: 0 hr 23 min 14 sec) 
Heartbeat CPU 0 instructions: 200000002 cycles: 429950277 heartbeat IPC: 0.325926 cumulative IPC: 0.363338 (Simulation time: 0 hr 24 min 24 sec) 
Heartbeat CPU 0 instructions: 210000002 cycles: 454211333 heartbeat IPC: 0.412183 cumulative IPC: 0.366049 (Simulation time: 0 hr 26 min 36 sec) 
*** Reached end of trace for Core: 0 Repeating trace: traces/spec2k17/srv_1.champsimtrace.xz
Heartbeat CPU 0 instructions: 220000000 cycles: 480935700 heartbeat IPC: 0.37419 cumulative IPC: 0.366518 (Simulation time: 0 hr 28 min 10 sec) 
Heartbeat CPU 0 instructions: 230000000 cycles: 512565933 heartbeat IPC: 0.316153 cumulative IPC: 0.363303 (Simulation time: 0 hr 29 min 10 sec) 
Heartbeat CPU 0 instructions: 240000000 cycles: 536466812 heartbeat IPC: 0.418395 cumulative IPC: 0.365838 (Simulation time: 0 hr 31 min 3 sec) 
*** Reached end of trace for Core: 0 Repeating trace: traces/spec2k17/srv_1.champsimtrace.xz
Heartbeat CPU 0 instructions: 250000001 cycles: 562091212 heartbeat IPC: 0.390253 cumulative IPC: 0.366986 (Simulation time: 0 hr 32 min 52 sec) 
Finished CPU 0 instructions: 200000000 cycles: 544979719 cumulative IPC: 0.366986 (Simulation time: 0 hr 32 min 52 sec) 

ChampSim completed all CPUs

Region of Interest Statistics

CPU 0 cumulative IPC: 0.366986 instructions: 200000000 cycles: 544979719
ITLB TOTAL     ACCESS:   38213850  HIT:   37663523  MISS:     550327  HIT %:    98.5599  MISS %:    1.44012   MPKI: 2.75163
ITLB LOAD TRANSLATION ACCESS:   38213850  HIT:   37663523  MISS:     550327  HIT %:    98.5599  MISS %:    1.44012   MPKI: 2.75163
ITLB PREFETCH  REQUESTED:          0  ISSUED:          0  USEFUL:          0  USELESS:          0
ITLB USEFUL LOAD PREFETCHES:          0 PREFETCH ISSUED TO LOWER LEVEL:          0  ACCURACY: -nan
ITLB TIMELY PREFETCHES:          0 LATE PREFETCHES: 0 DROPPED PREFETCHES: 0
ITLB PREFETCHES SAME FILL-ORIGIN LEVEL: 0 DIFFERENT FILL-ORIGIN LEVEL: 0
ITLB AVERAGE MISS LATENCY: 16.1266 cycles
ITLB RQ	ACCESS:   43868713	FORWARD:          0	MERGED:    5521840	TO_CACHE:   38346873

DTLB TOTAL     ACCESS:   43873876  HIT:   35182286  MISS:    8691590  HIT %:    80.1896  MISS %:    19.8104   MPKI: 43.4579
DTLB LOAD TRANSLATION ACCESS:   43873876  HIT:   35182286  MISS:    8691590  HIT %:    80.1896  MISS %:    19.8104   MPKI: 43.4579
DTLB PREFETCH  REQUESTED:          0  ISSUED:          0  USEFUL:          0  USELESS:          0
DTLB USEFUL LOAD PREFETCHES:          0 PREFETCH ISSUED TO LOWER LEVEL:          0  ACCURACY: -nan
DTLB TIMELY PREFETCHES:          0 LATE PREFETCHES: 0 DROPPED PREFETCHES: 0
DTLB PREFETCHES SAME FILL-ORIGIN LEVEL: 0 DIFFERENT FILL-ORIGIN LEVEL: 0
DTLB AVERAGE MISS LATENCY: 8.38707 cycles
DTLB RQ	ACCESS:   59059525	FORWARD:          0	MERGED:   15013859	TO_CACHE:   44045666

STLB TOTAL     ACCESS:   23714304  HIT:   23387432  MISS:     326872  HIT %:    98.6216  MISS %:    1.37837   MPKI: 1.63436
STLB LOAD TRANSLATION ACCESS:    9241917  HIT:    8916110  MISS:     325807  HIT %:    96.4747  MISS %:    3.52532   MPKI: 1.62904
STLB TRANSLATION FROM L1D PREFETCHER ACCESS:   14472387  HIT:   14471322  MISS:       1065  HIT %:    99.9926  MISS %: 0.00735884   MPKI: 0.005325
STLB PREFETCH  REQUESTED:          0  ISSUED:          0  USEFUL:        829  USELESS:        234
STLB USEFUL LOAD PREFETCHES:        829 PREFETCH ISSUED TO LOWER LEVEL:          0  ACCURACY: inf
STLB TIMELY PREFETCHES:        829 LATE PREFETCHES: 137 DROPPED PREFETCHES: 32797
STLB PREFETCHES SAME FILL-ORIGIN LEVEL: 0 DIFFERENT FILL-ORIGIN LEVEL: 0
STLB AVERAGE MISS LATENCY: 40.8071 cycles
STLB RQ	ACCESS:   33370463	FORWARD:          0	MERGED:    9623170	TO_CACHE:   23747293

STLB Hit, L1D data hit: 0
STLB Hit, L2C data hit: 0
STLB Hit, LLC data hit: 0
STLB Hit, LLC data miss: 0
STLB STLB hints to L2: 0
L1D TOTAL     ACCESS:   76234899  HIT:   64080470  MISS:   12154429  HIT %:    84.0566  MISS %:    15.9434   MPKI: 60.7721
L1D LOAD      ACCESS:   41014777  HIT:   32649884  MISS:    8364893  HIT %:    79.6052  MISS %:    20.3948   MPKI: 41.8245
L1D RFO       ACCESS:   17651731  HIT:   17279001  MISS:     372730  HIT %:    97.8884  MISS %:    2.11158   MPKI: 1.86365
L1D PREFETCH  ACCESS:   17568391  HIT:   14151585  MISS:    3416806  HIT %:    80.5514  MISS %:    19.4486   MPKI: 17.084
AGUS PREFETCH L1 MISS: 0
L1D PREFETCH  REQUESTED:   49206242  ISSUED:   49206128  USEFUL:    3380438  USELESS:      36360
L1D USEFUL LOAD PREFETCHES:    3380438 PREFETCH ISSUED TO LOWER LEVEL:    6506021  ACCURACY: 51.9586
L1D TIMELY PREFETCHES:    3380438 LATE PREFETCHES: 3088839 DROPPED PREFETCHES: 36733
L1D PREFETCHES SAME FILL-ORIGIN LEVEL: 6506021 DIFFERENT FILL-ORIGIN LEVEL: 0
L1D AVERAGE MISS LATENCY: 7.44953e+07 cycles
L1D RQ	ACCESS:   54059199	FORWARD:          0	MERGED:   12776991	TO_CACHE:   41117651
L1D WQ	ACCESS:   18253453	FORWARD:     282934	MERGED:     311579	TO_CACHE:   17941874
L1D PQ	ACCESS:   25077582	FORWARD:          0	MERGED:     830659	TO_CACHE:   24128546

L1D UNIQUE REGIONS ACCESSED: 0
L1D REGIONS CONFLICTS: 0
L1D Cross Page Prefetch Requests: 24612918
L1D Same Page Prefetch Requests: 6019246
L1D ROI Sum of L1D PQ occupancy: 345824513
L1D PREFETCHES PUSHED FROM L2C: 0
L1I TOTAL     ACCESS:   42789508  HIT:   39343123  MISS:    3446385  HIT %:    91.9457  MISS %:    8.05428   MPKI: 17.2319
L1I LOAD      ACCESS:   42789508  HIT:   39343123  MISS:    3446385  HIT %:    91.9457  MISS %:    8.05428   MPKI: 17.2319
L1I PREFETCH  REQUESTED:          0  ISSUED:          0  USEFUL:          0  USELESS:          0
L1I USEFUL LOAD PREFETCHES:          0 PREFETCH ISSUED TO LOWER LEVEL:          0  ACCURACY: -nan
L1I TIMELY PREFETCHES:          0 LATE PREFETCHES: 0 DROPPED PREFETCHES: 0
L1I PREFETCHES SAME FILL-ORIGIN LEVEL: 0 DIFFERENT FILL-ORIGIN LEVEL: 0
L1I AVERAGE MISS LATENCY: 28.4049 cycles
L1I RQ	ACCESS:   66225646	FORWARD:          0	MERGED:   22356933	TO_CACHE:   43868713

BTB TOTAL     ACCESS:   33996129  HIT:   29348304  MISS:    4647825  HIT %:    86.3284  MISS %:    13.6716   MPKI: 23.2391
BTB BRANCH_DIRECT_JUMP	ACCESS:    1820121  HIT:    1607789  MISS:     212332
BTB BRANCH_INDIRECT	ACCESS:   19847784  HIT:   17441635  MISS:    2406149
BTB BRANCH_CONDITIONAL	ACCESS:    4748982  HIT:    4420071  MISS:     328911
BTB BRANCH_DIRECT_CALL	ACCESS:    3062626  HIT:    2647973  MISS:     414653
BTB BRANCH_INDIRECT_CALL	ACCESS:     723674  HIT:     676539  MISS:      47135
BTB BRANCH_RETURN	ACCESS:    3792942  HIT:    2554297  MISS:    1238645
BTB BRANCH_OTHER ACCESS:          0  HIT:          0  MISS:          0

L2C TOTAL     ACCESS:   16856435  HIT:   14144869  MISS:    2711566  HIT %:    83.9138  MISS %:    16.0862   MPKI: 13.5578
L2C LOAD      ACCESS:    8722430  HIT:    6343630  MISS:    2378800  HIT %:    72.7278  MISS %:    27.2722   MPKI: 11.894
L2C DATA LOAD MPKI: 3.99886
L2C INSTRUCTION LOAD MPKI: 7.89514
L2C RFO       ACCESS:     372354  HIT:     243805  MISS:     128549  HIT %:    65.4767  MISS %:    34.5233   MPKI: 0.642745
L2C PREFETCH  ACCESS:    6506021  HIT:    6499025  MISS:       6996  HIT %:    99.8925  MISS %:   0.107531   MPKI: 0.03498
AGUS PREFETCH L1 MISS: 0
L2C DATA PREFETCH MPKI: 0.03498
L2C INSTRUCTION PREFETCH MPKI: 0
L2C WRITEBACK ACCESS:     796162  HIT:     757430  MISS:      38732  HIT %:    95.1352  MISS %:    4.86484   MPKI: 0.19366
L2C LOAD TRANSLATION ACCESS:     413423  HIT:     260299  MISS:     153124  HIT %:    62.9619  MISS %:    37.0381   MPKI: 0.76562
L2C TRANSLATION FROM L1D PREFETCHER ACCESS:      46045  HIT:      40680  MISS:       5365  HIT %:    88.3484  MISS %:    11.6516   MPKI: 0.026825
L2C PREFETCH  REQUESTED:          0  ISSUED:          0  USEFUL:       4038  USELESS:       8279
L2C USEFUL LOAD PREFETCHES:       4038 PREFETCH ISSUED TO LOWER LEVEL:       6996  ACCURACY: 57.7187
L2C TIMELY PREFETCHES:       4038 LATE PREFETCHES: 0 DROPPED PREFETCHES: 0
L2C PREFETCHES SAME FILL-ORIGIN LEVEL: 0 DIFFERENT FILL-ORIGIN LEVEL: 0
L2C AVERAGE MISS LATENCY: 41.7161 cycles
L2C RQ	ACCESS:    9554261	FORWARD:          0	MERGED:          0	TO_CACHE:    9554252
L2C WQ	ACCESS:     796162	FORWARD:          9	MERGED:          0	TO_CACHE:     796162
L2C PQ	ACCESS:    6506021	FORWARD:          0	MERGED:          0	TO_CACHE:    6506021

L2C Instructions Evicting Data 564105
L2C Translations Evicting Data 57286
L2C Data Evicting Data 337690
L2C Instructions Evicting Instructions 923327
L2C Translations Evicting Instructions 90933
L2C Data Evicting Instructions 543255
L2C Instructions Evicting Translations 91596
L2C Translations Evicting Translations 10270
L2C Data Evicting Translations 54372
L2C Dense regions hint from L2: 0
PSCL5 TOTAL     ACCESS:     355596  HIT:     355596  MISS:          0  HIT %:        100  MISS %:          0   MPKI: 0
PSCL5 LOAD TRANSLATION ACCESS:     325670  HIT:     325670  MISS:          0  HIT %:        100  MISS %:          0   MPKI: 0
PSCL5 TRANSLATION FROM L1D PREFETCHER ACCESS:      29926  HIT:      29926  MISS:          0  HIT %:        100  MISS %:          0   MPKI: 0
PSCL5 PREFETCH  REQUESTED:          0  ISSUED:          0  USEFUL:          0  USELESS:          0
PSCL5 USEFUL LOAD PREFETCHES:          0 PREFETCH ISSUED TO LOWER LEVEL:          0  ACCURACY: -nan
PSCL5 TIMELY PREFETCHES:          0 LATE PREFETCHES: 0 DROPPED PREFETCHES: 0
PSCL5 PREFETCHES SAME FILL-ORIGIN LEVEL: 0 DIFFERENT FILL-ORIGIN LEVEL: 0

PSCL4 TOTAL     ACCESS:     343026  HIT:     342213  MISS:        813  HIT %:     99.763  MISS %:   0.237008   MPKI: 0.004065
PSCL4 LOAD TRANSLATION ACCESS:     315188  HIT:     314375  MISS:        813  HIT %:    99.7421  MISS %:   0.257941   MPKI: 0.004065
PSCL4 TRANSLATION FROM L1D PREFETCHER ACCESS:      27838  HIT:      27838  MISS:          0  HIT %:        100  MISS %:          0   MPKI: 0
PSCL4 PREFETCH  REQUESTED:          0  ISSUED:          0  USEFUL:          0  USELESS:          0
PSCL4 USEFUL LOAD PREFETCHES:          0 PREFETCH ISSUED TO LOWER LEVEL:          0  ACCURACY: -nan
PSCL4 TIMELY PREFETCHES:          0 LATE PREFETCHES: 0 DROPPED PREFETCHES: 0
PSCL4 PREFETCHES SAME FILL-ORIGIN LEVEL: 0 DIFFERENT FILL-ORIGIN LEVEL: 0

PSCL3 TOTAL     ACCESS:     348401  HIT:     345767  MISS:       2634  HIT %:     99.244  MISS %:   0.756025   MPKI: 0.01317
PSCL3 LOAD TRANSLATION ACCESS:     322624  HIT:     319990  MISS:       2634  HIT %:    99.1836  MISS %:    0.81643   MPKI: 0.01317
PSCL3 TRANSLATION FROM L1D PREFETCHER ACCESS:      25777  HIT:      25777  MISS:          0  HIT %:        100  MISS %:          0   MPKI: 0
PSCL3 PREFETCH  REQUESTED:          0  ISSUED:          0  USEFUL:          0  USELESS:          0
PSCL3 USEFUL LOAD PREFETCHES:          0 PREFETCH ISSUED TO LOWER LEVEL:          0  ACCURACY: -nan
PSCL3 TIMELY PREFETCHES:          0 LATE PREFETCHES: 0 DROPPED PREFETCHES: 0
PSCL3 PREFETCHES SAME FILL-ORIGIN LEVEL: 0 DIFFERENT FILL-ORIGIN LEVEL: 0

PSCL2 TOTAL     ACCESS:     328295  HIT:     243339  MISS:      84956  HIT %:    74.1221  MISS %:    25.8779   MPKI: 0.42478
PSCL2 LOAD TRANSLATION ACCESS:     326317  HIT:     241361  MISS:      84956  HIT %:    73.9652  MISS %:    26.0348   MPKI: 0.42478
PSCL2 TRANSLATION FROM L1D PREFETCHER ACCESS:       1978  HIT:       1978  MISS:          0  HIT %:        100  MISS %:          0   MPKI: 0
PSCL2 PREFETCH  REQUESTED:          0  ISSUED:          0  USEFUL:          0  USELESS:          0
PSCL2 USEFUL LOAD PREFETCHES:          0 PREFETCH ISSUED TO LOWER LEVEL:          0  ACCURACY: -nan
PSCL2 TIMELY PREFETCHES:          0 LATE PREFETCHES: 0 DROPPED PREFETCHES: 0
PSCL2 PREFETCHES SAME FILL-ORIGIN LEVEL: 0 DIFFERENT FILL-ORIGIN LEVEL: 0

LLC TOTAL     ACCESS:    3003244  HIT:    2801075  MISS:     202169  HIT %:    93.2683  MISS %:    6.73169   MPKI: 1.01084
LLC LOAD      ACCESS:    2378800  HIT:    2214686  MISS:     164114  HIT %:     93.101  MISS %:    6.89902   MPKI: 0.82057
LLC RFO       ACCESS:     128549  HIT:      97980  MISS:      30569  HIT %:      76.22  MISS %:      23.78   MPKI: 0.152845
LLC PREFETCH  ACCESS:       6996  HIT:       5693  MISS:       1303  HIT %:    81.3751  MISS %:    18.6249   MPKI: 0.006515
AGUS PREFETCH L1 MISS: 0
LLC WRITEBACK ACCESS:     330410  HIT:     328677  MISS:       1733  HIT %:    99.4755  MISS %:     0.5245   MPKI: 0.008665
LLC LOAD TRANSLATION ACCESS:     153124  HIT:     149118  MISS:       4006  HIT %:    97.3838  MISS %:    2.61618   MPKI: 0.02003
LLC TRANSLATION FROM L1D PREFETCHER ACCESS:       5365  HIT:       4921  MISS:        444  HIT %:    91.7241  MISS %:    8.27586   MPKI: 0.00222
LLC PREFETCH  REQUESTED:          0  ISSUED:          0  USEFUL:        142  USELESS:       1874
LLC USEFUL LOAD PREFETCHES:        142 PREFETCH ISSUED TO LOWER LEVEL:       1303  ACCURACY: 10.8979
LLC TIMELY PREFETCHES:        142 LATE PREFETCHES: 0 DROPPED PREFETCHES: 0
LLC PREFETCHES SAME FILL-ORIGIN LEVEL: 0 DIFFERENT FILL-ORIGIN LEVEL: 0
LLC AVERAGE MISS LATENCY: 162.883 cycles
LLC RQ	ACCESS:    2665838	FORWARD:          0	MERGED:          0	TO_CACHE:    2665838
LLC WQ	ACCESS:     330410	FORWARD:          0	MERGED:          0	TO_CACHE:     330410
LLC PQ	ACCESS:       6996	FORWARD:          0	MERGED:          0	TO_CACHE:       6996

LLC Dense regions hint to LLC: 0

RAW hits: 2322560
Loads Generated: 56381758
Loads sent to L1D: 54059199
Stores Generated: 18253447
Stores sent to L1D: 18253453
Major fault: 0 Minor fault: 4447
Allocated PAGES: 4447
Completed 

DRAM Statistics
 CHANNEL 0
 RQ ROW_BUFFER_HIT:      43790  ROW_BUFFER_MISS:     156646
 DBUS_CONGESTED:        130
 WQ ROW_BUFFER_HIT:      18910  ROW_BUFFER_MISS:     111282  FULL:          0

 AVG_CONGESTED_CYCLE: 4
 All warmup complete: 2
Channel 0 Bank busy for read cycles: 0
Channel 0 Bank busy for write cycles: 0
Channel 0
Rank 0
0banks busy for read cycles: 509536757
0banks busy for write cycles: 75461
1banks busy for read cycles: 17718409
1banks busy for write cycles: 10845114
2banks busy for read cycles: 2157131
2banks busy for write cycles: 2125767
3banks busy for read cycles: 330462
3banks busy for write cycles: 670927
4banks busy for read cycles: 153384
4banks busy for write cycles: 330721
5banks busy for read cycles: 73042
5banks busy for write cycles: 191734
6banks busy for read cycles: 48813
6banks busy for write cycles: 117028
7banks busy for read cycles: 51756
7banks busy for write cycles: 112716
8banks busy for read cycles: 135519
8banks busy for write cycles: 304979

CPU 0 Branch Prediction Accuracy: 99.8043% MPKI: 0.43045 Average ROB Occupancy at Mispredict: 29.577
Branch types
NOT_BRANCH: 156016058 78.008%
BRANCH_DIRECT_JUMP: 1820121 0.910061%
BRANCH_INDIRECT: 19847784 9.92389%
BRANCH_CONDITIONAL: 14736604 7.3683%
BRANCH_DIRECT_CALL: 3062626 1.53131%
BRANCH_INDIRECT_CALL: 723674 0.361837%
BRANCH_RETURN: 3792942 1.89647%
BRANCH_OTHER: 0 0%

DRAM PAGES: 1048576
Allocated PAGES: 4447
