
*** ChampSim Multicore Out-of-Order Simulator ***

Warmup Instructions: 50000000
Simulation Instructions: 200000000
Number of CPUs: 1
LLC sets: 2048
LLC ways: 16
Off-chip DRAM Size: 4096 MB Channels: 1 Width: 64-bit Data Rate: 6400 MT/s
CPU 0 runs traces/spec2k17/srv_57.champsimtrace.xz
.xz
BTB has LRU replacement policy
ITLB has LRU replacement policy
DTLB has LRU replacement policy
STLB has LRU replacement policy
L1I has LRU replacement policy
L1D has LRU replacement policy
Initialize SRRIP state for L2C
Initialize DRRIP state for LLC
Heartbeat CPU 0 instructions: 10000001 cycles: 2832405 heartbeat IPC: 3.53057 cumulative IPC: 3.53057 (Simulation time: 0 hr 0 min 35 sec) 
Heartbeat CPU 0 instructions: 20000001 cycles: 5623447 heartbeat IPC: 3.58289 cumulative IPC: 3.55654 (Simulation time: 0 hr 1 min 6 sec) 
Heartbeat CPU 0 instructions: 30000002 cycles: 8430443 heartbeat IPC: 3.56253 cumulative IPC: 3.55853 (Simulation time: 0 hr 1 min 39 sec) 
*** Reached end of trace for Core: 0 Repeating trace: traces/spec2k17/srv_57.champsimtrace.xz
Heartbeat CPU 0 instructions: 40000002 cycles: 11253356 heartbeat IPC: 3.54244 cumulative IPC: 3.5545 (Simulation time: 0 hr 2 min 12 sec) 
Heartbeat CPU 0 instructions: 50000002 cycles: 14035030 heartbeat IPC: 3.59496 cumulative IPC: 3.56251 (Simulation time: 0 hr 2 min 41 sec) 

Warmup complete CPU 0 instructions: 50000002 cycles: 14035030 (Simulation time: 0 hr 2 min 41 sec) 

Heartbeat CPU 0 instructions: 60000001 cycles: 30511330 heartbeat IPC: 0.606932 cumulative IPC: 0.606932 (Simulation time: 0 hr 3 min 20 sec) 
*** Reached end of trace for Core: 0 Repeating trace: traces/spec2k17/srv_57.champsimtrace.xz
Heartbeat CPU 0 instructions: 70000000 cycles: 46977889 heartbeat IPC: 0.607291 cumulative IPC: 0.607112 (Simulation time: 0 hr 4 min 8 sec) 
Heartbeat CPU 0 instructions: 80000001 cycles: 64091310 heartbeat IPC: 0.584337 cumulative IPC: 0.599325 (Simulation time: 0 hr 4 min 58 sec) 
Heartbeat CPU 0 instructions: 90000000 cycles: 80469180 heartbeat IPC: 0.61058 cumulative IPC: 0.6021 (Simulation time: 0 hr 6 min 15 sec) 
*** Reached end of trace for Core: 0 Repeating trace: traces/spec2k17/srv_57.champsimtrace.xz
Heartbeat CPU 0 instructions: 100000002 cycles: 96662141 heartbeat IPC: 0.617552 cumulative IPC: 0.605128 (Simulation time: 0 hr 7 min 17 sec) 
Heartbeat CPU 0 instructions: 110000000 cycles: 113840112 heartbeat IPC: 0.582141 cumulative IPC: 0.601172 (Simulation time: 0 hr 8 min 22 sec) 
Heartbeat CPU 0 instructions: 120000003 cycles: 130258997 heartbeat IPC: 0.609055 cumulative IPC: 0.602285 (Simulation time: 0 hr 9 min 11 sec) 
*** Reached end of trace for Core: 0 Repeating trace: traces/spec2k17/srv_57.champsimtrace.xz
Heartbeat CPU 0 instructions: 130000003 cycles: 146649429 heartbeat IPC: 0.610112 cumulative IPC: 0.603253 (Simulation time: 0 hr 10 min 24 sec) 
Heartbeat CPU 0 instructions: 140000000 cycles: 163578559 heartbeat IPC: 0.590698 cumulative IPC: 0.601831 (Simulation time: 0 hr 11 min 15 sec) 
Heartbeat CPU 0 instructions: 150000000 cycles: 179923123 heartbeat IPC: 0.611824 cumulative IPC: 0.602816 (Simulation time: 0 hr 12 min 4 sec) 
*** Reached end of trace for Core: 0 Repeating trace: traces/spec2k17/srv_57.champsimtrace.xz
Heartbeat CPU 0 instructions: 160000001 cycles: 196622132 heartbeat IPC: 0.598838 cumulative IPC: 0.602452 (Simulation time: 0 hr 12 min 44 sec) 
Heartbeat CPU 0 instructions: 170000000 cycles: 213264740 heartbeat IPC: 0.600867 cumulative IPC: 0.60232 (Simulation time: 0 hr 13 min 22 sec) 
Heartbeat CPU 0 instructions: 180000000 cycles: 229634137 heartbeat IPC: 0.610896 cumulative IPC: 0.602971 (Simulation time: 0 hr 13 min 59 sec) 
*** Reached end of trace for Core: 0 Repeating trace: traces/spec2k17/srv_57.champsimtrace.xz
Heartbeat CPU 0 instructions: 190000002 cycles: 246511051 heartbeat IPC: 0.592525 cumulative IPC: 0.602213 (Simulation time: 0 hr 14 min 47 sec) 
Heartbeat CPU 0 instructions: 200000000 cycles: 263099154 heartbeat IPC: 0.602842 cumulative IPC: 0.602255 (Simulation time: 0 hr 15 min 37 sec) 
Heartbeat CPU 0 instructions: 210000001 cycles: 279418113 heartbeat IPC: 0.612784 cumulative IPC: 0.602902 (Simulation time: 0 hr 16 min 24 sec) 
*** Reached end of trace for Core: 0 Repeating trace: traces/spec2k17/srv_57.champsimtrace.xz
Heartbeat CPU 0 instructions: 220000000 cycles: 296433530 heartbeat IPC: 0.587702 cumulative IPC: 0.601986 (Simulation time: 0 hr 17 min 6 sec) 
Heartbeat CPU 0 instructions: 230000000 cycles: 312851370 heartbeat IPC: 0.609094 cumulative IPC: 0.602377 (Simulation time: 0 hr 17 min 55 sec) 
Heartbeat CPU 0 instructions: 240000002 cycles: 328986847 heartbeat IPC: 0.619752 cumulative IPC: 0.603267 (Simulation time: 0 hr 18 min 44 sec) 
*** Reached end of trace for Core: 0 Repeating trace: traces/spec2k17/srv_57.champsimtrace.xz
Heartbeat CPU 0 instructions: 250000000 cycles: 346136359 heartbeat IPC: 0.583107 cumulative IPC: 0.602226 (Simulation time: 0 hr 19 min 24 sec) 
Finished CPU 0 instructions: 200000002 cycles: 332101330 cumulative IPC: 0.602226 (Simulation time: 0 hr 19 min 24 sec) 

ChampSim completed all CPUs

Region of Interest Statistics

CPU 0 cumulative IPC: 0.602226 instructions: 200000002 cycles: 332101330
ITLB TOTAL     ACCESS:   34739885  HIT:   33901712  MISS:     838173  HIT %:    97.5873  MISS %:    2.41271   MPKI: 4.19086
ITLB LOAD TRANSLATION ACCESS:   34739885  HIT:   33901712  MISS:     838173  HIT %:    97.5873  MISS %:    2.41271   MPKI: 4.19086
ITLB PREFETCH  REQUESTED:          0  ISSUED:          0  USEFUL:          0  USELESS:          0
ITLB USEFUL LOAD PREFETCHES:          0 PREFETCH ISSUED TO LOWER LEVEL:          0  ACCURACY: -nan
ITLB TIMELY PREFETCHES:          0 LATE PREFETCHES: 0 DROPPED PREFETCHES: 0
ITLB PREFETCHES SAME FILL-ORIGIN LEVEL: 0 DIFFERENT FILL-ORIGIN LEVEL: 0
ITLB AVERAGE MISS LATENCY: 9.3714 cycles
ITLB RQ	ACCESS:   39590556	FORWARD:          0	MERGED:    4554737	TO_CACHE:   35035819

DTLB TOTAL     ACCESS:   40548041  HIT:   39608199  MISS:     939842  HIT %:    97.6822  MISS %:    2.31785   MPKI: 4.69921
DTLB LOAD TRANSLATION ACCESS:   40548041  HIT:   39608199  MISS:     939842  HIT %:    97.6822  MISS %:    2.31785   MPKI: 4.69921
DTLB PREFETCH  REQUESTED:          0  ISSUED:          0  USEFUL:          0  USELESS:          0
DTLB USEFUL LOAD PREFETCHES:          0 PREFETCH ISSUED TO LOWER LEVEL:          0  ACCURACY: -nan
DTLB TIMELY PREFETCHES:          0 LATE PREFETCHES: 0 DROPPED PREFETCHES: 0
DTLB PREFETCHES SAME FILL-ORIGIN LEVEL: 0 DIFFERENT FILL-ORIGIN LEVEL: 0
DTLB AVERAGE MISS LATENCY: 16.1018 cycles
DTLB RQ	ACCESS:   55804035	FORWARD:          0	MERGED:   15203379	TO_CACHE:   40600656

STLB TOTAL     ACCESS:   10277662  HIT:   10203848  MISS:      73814  HIT %:    99.2818  MISS %:   0.718198   MPKI: 0.36907
STLB LOAD TRANSLATION ACCESS:    1778015  HIT:    1704511  MISS:      73504  HIT %:     95.866  MISS %:    4.13405   MPKI: 0.36752
STLB TRANSLATION FROM L1D PREFETCHER ACCESS:    8499647  HIT:    8499337  MISS:        310  HIT %:    99.9964  MISS %: 0.00364721   MPKI: 0.00155
STLB PREFETCH  REQUESTED:          0  ISSUED:          0  USEFUL:        268  USELESS:         41
STLB USEFUL LOAD PREFETCHES:        268 PREFETCH ISSUED TO LOWER LEVEL:          0  ACCURACY: inf
STLB TIMELY PREFETCHES:        268 LATE PREFETCHES: 4 DROPPED PREFETCHES: 40978
STLB PREFETCHES SAME FILL-ORIGIN LEVEL: 0 DIFFERENT FILL-ORIGIN LEVEL: 0
STLB AVERAGE MISS LATENCY: 98.6749 cycles
STLB RQ	ACCESS:   12906803	FORWARD:          0	MERGED:    2588149	TO_CACHE:   10318654

STLB Hit, L1D data hit: 0
STLB Hit, L2C data hit: 0
STLB Hit, LLC data hit: 0
STLB Hit, LLC data miss: 0
STLB STLB hints to L2: 0
L1D TOTAL     ACCESS:   66287525  HIT:   64959067  MISS:    1328458  HIT %:    97.9959  MISS %:    2.00408   MPKI: 6.64229
L1D LOAD      ACCESS:   33588007  HIT:   32648707  MISS:     939300  HIT %:    97.2035  MISS %:    2.79653   MPKI: 4.6965
L1D RFO       ACCESS:   21659649  HIT:   21317410  MISS:     342239  HIT %:    98.4199  MISS %:    1.58008   MPKI: 1.71119
L1D PREFETCH  ACCESS:   11039869  HIT:   10992950  MISS:      46919  HIT %:     99.575  MISS %:   0.424996   MPKI: 0.234595
AGUS PREFETCH L1 MISS: 0
L1D PREFETCH  REQUESTED:   23096520  ISSUED:   23094409  USEFUL:      27883  USELESS:      19033
L1D USEFUL LOAD PREFETCHES:      27883 PREFETCH ISSUED TO LOWER LEVEL:      71633  ACCURACY: 38.9248
L1D TIMELY PREFETCHES:      27883 LATE PREFETCHES: 24655 DROPPED PREFETCHES: 46350
L1D PREFETCHES SAME FILL-ORIGIN LEVEL: 71633 DIFFERENT FILL-ORIGIN LEVEL: 0
L1D AVERAGE MISS LATENCY: 4.02018e+06 cycles
L1D RQ	ACCESS:   48187000	FORWARD:          0	MERGED:   14271232	TO_CACHE:   33638008
L1D WQ	ACCESS:   22465122	FORWARD:     314803	MERGED:     299095	TO_CACHE:   22166027
L1D PQ	ACCESS:   11965621	FORWARD:          0	MERGED:     799790	TO_CACHE:   11128788

L1D UNIQUE REGIONS ACCESSED: 0
L1D REGIONS CONFLICTS: 0
L1D Cross Page Prefetch Requests: 9443387
L1D Same Page Prefetch Requests: 2614590
L1D ROI Sum of L1D PQ occupancy: 163055495
L1D PREFETCHES PUSHED FROM L2C: 0
L1I TOTAL     ACCESS:   39123843  HIT:   36598825  MISS:    2525018  HIT %:    93.5461  MISS %:    6.45391   MPKI: 12.6251
L1I LOAD      ACCESS:   39123843  HIT:   36598825  MISS:    2525018  HIT %:    93.5461  MISS %:    6.45391   MPKI: 12.6251
L1I PREFETCH  REQUESTED:          0  ISSUED:          0  USEFUL:          0  USELESS:          0
L1I USEFUL LOAD PREFETCHES:          0 PREFETCH ISSUED TO LOWER LEVEL:          0  ACCURACY: -nan
L1I TIMELY PREFETCHES:          0 LATE PREFETCHES: 0 DROPPED PREFETCHES: 0
L1I PREFETCHES SAME FILL-ORIGIN LEVEL: 0 DIFFERENT FILL-ORIGIN LEVEL: 0
L1I AVERAGE MISS LATENCY: 17.95 cycles
L1I RQ	ACCESS:   62213317	FORWARD:          0	MERGED:   22622761	TO_CACHE:   39590556

BTB TOTAL     ACCESS:   32784881  HIT:   29386582  MISS:    3398299  HIT %:    89.6346  MISS %:    10.3654   MPKI: 16.9915
BTB BRANCH_DIRECT_JUMP	ACCESS:    3353840  HIT:    3191984  MISS:     161856
BTB BRANCH_INDIRECT	ACCESS:   13231468  HIT:   11990093  MISS:    1241375
BTB BRANCH_CONDITIONAL	ACCESS:    8791342  HIT:    8583888  MISS:     207454
BTB BRANCH_DIRECT_CALL	ACCESS:    2800344  HIT:    2510637  MISS:     289707
BTB BRANCH_INDIRECT_CALL	ACCESS:     903748  HIT:     779612  MISS:     124136
BTB BRANCH_RETURN	ACCESS:    3704139  HIT:    2330368  MISS:    1373771
BTB BRANCH_OTHER ACCESS:          0  HIT:          0  MISS:          0

L2C TOTAL     ACCESS:    4612438  HIT:    3850425  MISS:     762013  HIT %:    83.4792  MISS %:    16.5208   MPKI: 3.81006
L2C LOAD      ACCESS:    3439646  HIT:    2840561  MISS:     599085  HIT %:    82.5829  MISS %:    17.4171   MPKI: 2.99542
L2C DATA LOAD MPKI: 1.44021
L2C INSTRUCTION LOAD MPKI: 1.55521
L2C RFO       ACCESS:     342180  HIT:     252537  MISS:      89643  HIT %:    73.8024  MISS %:    26.1976   MPKI: 0.448215
L2C PREFETCH  ACCESS:      71633  HIT:      64507  MISS:       7126  HIT %:    90.0521  MISS %:    9.94793   MPKI: 0.03563
AGUS PREFETCH L1 MISS: 0
L2C DATA PREFETCH MPKI: 0.03563
L2C INSTRUCTION PREFETCH MPKI: 0
L2C WRITEBACK ACCESS:     563304  HIT:     550110  MISS:      13194  HIT %:    97.6577  MISS %:    2.34225   MPKI: 0.06597
L2C LOAD TRANSLATION ACCESS:     139132  HIT:      88882  MISS:      50250  HIT %:    63.8832  MISS %:    36.1168   MPKI: 0.25125
L2C TRANSLATION FROM L1D PREFETCHER ACCESS:      56543  HIT:      53828  MISS:       2715  HIT %:    95.1983  MISS %:    4.80166   MPKI: 0.013575
L2C PREFETCH  REQUESTED:          0  ISSUED:          0  USEFUL:       2738  USELESS:       7064
L2C USEFUL LOAD PREFETCHES:       2738 PREFETCH ISSUED TO LOWER LEVEL:       7126  ACCURACY: 38.4227
L2C TIMELY PREFETCHES:       2738 LATE PREFETCHES: 0 DROPPED PREFETCHES: 0
L2C PREFETCHES SAME FILL-ORIGIN LEVEL: 0 DIFFERENT FILL-ORIGIN LEVEL: 0
L2C AVERAGE MISS LATENCY: 59.2859 cycles
L2C RQ	ACCESS:    3977518	FORWARD:          0	MERGED:          0	TO_CACHE:    3977501
L2C WQ	ACCESS:     563304	FORWARD:         17	MERGED:          0	TO_CACHE:     563304
L2C PQ	ACCESS:      71633	FORWARD:          0	MERGED:          0	TO_CACHE:      71633

L2C Instructions Evicting Data 117279
L2C Translations Evicting Data 36465
L2C Data Evicting Data 238707
L2C Instructions Evicting Instructions 182851
L2C Translations Evicting Instructions 9967
L2C Data Evicting Instructions 110760
L2C Instructions Evicting Translations 10913
L2C Translations Evicting Translations 6533
L2C Data Evicting Translations 35344
L2C Dense regions hint from L2: 0
PSCL5 TOTAL     ACCESS:     114786  HIT:     114786  MISS:          0  HIT %:        100  MISS %:          0   MPKI: 0
PSCL5 LOAD TRANSLATION ACCESS:      73500  HIT:      73500  MISS:          0  HIT %:        100  MISS %:          0   MPKI: 0
PSCL5 TRANSLATION FROM L1D PREFETCHER ACCESS:      41286  HIT:      41286  MISS:          0  HIT %:        100  MISS %:          0   MPKI: 0
PSCL5 PREFETCH  REQUESTED:          0  ISSUED:          0  USEFUL:          0  USELESS:          0
PSCL5 USEFUL LOAD PREFETCHES:          0 PREFETCH ISSUED TO LOWER LEVEL:          0  ACCURACY: -nan
PSCL5 TIMELY PREFETCHES:          0 LATE PREFETCHES: 0 DROPPED PREFETCHES: 0
PSCL5 PREFETCHES SAME FILL-ORIGIN LEVEL: 0 DIFFERENT FILL-ORIGIN LEVEL: 0

PSCL4 TOTAL     ACCESS:     111715  HIT:     111588  MISS:        127  HIT %:    99.8863  MISS %:   0.113682   MPKI: 0.000635
PSCL4 LOAD TRANSLATION ACCESS:      72753  HIT:      72626  MISS:        127  HIT %:    99.8254  MISS %:   0.174563   MPKI: 0.000635
PSCL4 TRANSLATION FROM L1D PREFETCHER ACCESS:      38962  HIT:      38962  MISS:          0  HIT %:        100  MISS %:          0   MPKI: 0
PSCL4 PREFETCH  REQUESTED:          0  ISSUED:          0  USEFUL:          0  USELESS:          0
PSCL4 USEFUL LOAD PREFETCHES:          0 PREFETCH ISSUED TO LOWER LEVEL:          0  ACCURACY: -nan
PSCL4 TIMELY PREFETCHES:          0 LATE PREFETCHES: 0 DROPPED PREFETCHES: 0
PSCL4 PREFETCHES SAME FILL-ORIGIN LEVEL: 0 DIFFERENT FILL-ORIGIN LEVEL: 0

PSCL3 TOTAL     ACCESS:     100949  HIT:      80372  MISS:      20577  HIT %:    79.6164  MISS %:    20.3836   MPKI: 0.102885
PSCL3 LOAD TRANSLATION ACCESS:      71780  HIT:      51203  MISS:      20577  HIT %:    71.3332  MISS %:    28.6668   MPKI: 0.102885
PSCL3 TRANSLATION FROM L1D PREFETCHER ACCESS:      29169  HIT:      29169  MISS:          0  HIT %:        100  MISS %:          0   MPKI: 0
PSCL3 PREFETCH  REQUESTED:          0  ISSUED:          0  USEFUL:          0  USELESS:          0
PSCL3 USEFUL LOAD PREFETCHES:          0 PREFETCH ISSUED TO LOWER LEVEL:          0  ACCURACY: -nan
PSCL3 TIMELY PREFETCHES:          0 LATE PREFETCHES: 0 DROPPED PREFETCHES: 0
PSCL3 PREFETCHES SAME FILL-ORIGIN LEVEL: 0 DIFFERENT FILL-ORIGIN LEVEL: 0

PSCL2 TOTAL     ACCESS:      96454  HIT:      51395  MISS:      45059  HIT %:    53.2845  MISS %:    46.7155   MPKI: 0.225295
PSCL2 LOAD TRANSLATION ACCESS:      73584  HIT:      28525  MISS:      45059  HIT %:    38.7652  MISS %:    61.2348   MPKI: 0.225295
PSCL2 TRANSLATION FROM L1D PREFETCHER ACCESS:      22870  HIT:      22870  MISS:          0  HIT %:        100  MISS %:          0   MPKI: 0
PSCL2 PREFETCH  REQUESTED:          0  ISSUED:          0  USEFUL:          0  USELESS:          0
PSCL2 USEFUL LOAD PREFETCHES:          0 PREFETCH ISSUED TO LOWER LEVEL:          0  ACCURACY: -nan
PSCL2 TIMELY PREFETCHES:          0 LATE PREFETCHES: 0 DROPPED PREFETCHES: 0
PSCL2 PREFETCHES SAME FILL-ORIGIN LEVEL: 0 DIFFERENT FILL-ORIGIN LEVEL: 0

LLC TOTAL     ACCESS:     904515  HIT:     740771  MISS:     163744  HIT %:     81.897  MISS %:     18.103   MPKI: 0.81872
LLC LOAD      ACCESS:     599085  HIT:     467020  MISS:     132065  HIT %:    77.9555  MISS %:    22.0445   MPKI: 0.660325
LLC RFO       ACCESS:      89643  HIT:      76705  MISS:      12938  HIT %:    85.5672  MISS %:    14.4328   MPKI: 0.06469
LLC PREFETCH  ACCESS:       7126  HIT:       6616  MISS:        510  HIT %:    92.8431  MISS %:    7.15689   MPKI: 0.00255
AGUS PREFETCH L1 MISS: 0
LLC WRITEBACK ACCESS:     155696  HIT:     155161  MISS:        535  HIT %:    99.6564  MISS %:   0.343618   MPKI: 0.002675
LLC LOAD TRANSLATION ACCESS:      50250  HIT:      32865  MISS:      17385  HIT %:     65.403  MISS %:     34.597   MPKI: 0.086925
LLC TRANSLATION FROM L1D PREFETCHER ACCESS:       2715  HIT:       2404  MISS:        311  HIT %:    88.5451  MISS %:    11.4549   MPKI: 0.001555
LLC PREFETCH  REQUESTED:          0  ISSUED:          0  USEFUL:        124  USELESS:        746
LLC USEFUL LOAD PREFETCHES:        124 PREFETCH ISSUED TO LOWER LEVEL:        510  ACCURACY: 24.3137
LLC TIMELY PREFETCHES:        124 LATE PREFETCHES: 0 DROPPED PREFETCHES: 0
LLC PREFETCHES SAME FILL-ORIGIN LEVEL: 0 DIFFERENT FILL-ORIGIN LEVEL: 0
LLC AVERAGE MISS LATENCY: 138.703 cycles
LLC RQ	ACCESS:     741693	FORWARD:          0	MERGED:          0	TO_CACHE:     741693
LLC WQ	ACCESS:     155696	FORWARD:          0	MERGED:          0	TO_CACHE:     155696
LLC PQ	ACCESS:       7126	FORWARD:          0	MERGED:          0	TO_CACHE:       7126

LLC Dense regions hint to LLC: 0

RAW hits: 2596289
Loads Generated: 50783291
Loads sent to L1D: 48187000
Stores Generated: 22465114
Stores sent to L1D: 22465122
Major fault: 0 Minor fault: 8932
Allocated PAGES: 8932
Completed 

DRAM Statistics
 CHANNEL 0
 RQ ROW_BUFFER_HIT:      54093  ROW_BUFFER_MISS:     109105
 DBUS_CONGESTED:        104
 WQ ROW_BUFFER_HIT:       6265  ROW_BUFFER_MISS:      32257  FULL:          0

 AVG_CONGESTED_CYCLE: 5
 All warmup complete: 2
Channel 0 Bank busy for read cycles: 0
Channel 0 Bank busy for write cycles: 0
Channel 0
Rank 0
0banks busy for read cycles: 312816409
0banks busy for write cycles: 27530
1banks busy for read cycles: 10347252
1banks busy for write cycles: 4313596
2banks busy for read cycles: 2764882
2banks busy for write cycles: 704699
3banks busy for read cycles: 476575
3banks busy for write cycles: 117765
4banks busy for read cycles: 174757
4banks busy for write cycles: 36741
5banks busy for read cycles: 67208
5banks busy for write cycles: 29802
6banks busy for read cycles: 40242
6banks busy for write cycles: 30823
7banks busy for read cycles: 39869
7banks busy for write cycles: 38075
8banks busy for read cycles: 26091
8banks busy for write cycles: 49015

CPU 0 Branch Prediction Accuracy: 99.8045% MPKI: 0.370935 Average ROB Occupancy at Mispredict: 33.6776
Branch types
NOT_BRANCH: 162058950 81.0295%
BRANCH_DIRECT_JUMP: 3353840 1.67692%
BRANCH_INDIRECT: 13231468 6.61573%
BRANCH_CONDITIONAL: 13947212 6.97361%
BRANCH_DIRECT_CALL: 2800344 1.40017%
BRANCH_INDIRECT_CALL: 903748 0.451874%
BRANCH_RETURN: 3704139 1.85207%
BRANCH_OTHER: 0 0%

DRAM PAGES: 1048576
Allocated PAGES: 8932
