
*** ChampSim Multicore Out-of-Order Simulator ***

Warmup Instructions: 50000000
Simulation Instructions: 200000000
Number of CPUs: 1
LLC sets: 2048
LLC ways: 16
Off-chip DRAM Size: 4096 MB Channels: 1 Width: 64-bit Data Rate: 6400 MT/s
CPU 0 runs traces/spec2k17/srv_28.champsimtrace.xz
.xz
BTB has LRU replacement policy
ITLB has LRU replacement policy
DTLB has LRU replacement policy
STLB has LRU replacement policy
L1I has LRU replacement policy
L1D has LRU replacement policy
Initialize SRRIP state for L2C
Initialize DRRIP state for LLC
Heartbeat CPU 0 instructions: 10000001 cycles: 2807808 heartbeat IPC: 3.5615 cumulative IPC: 3.5615 (Simulation time: 0 hr 0 min 47 sec) 
Heartbeat CPU 0 instructions: 20000001 cycles: 5612759 heartbeat IPC: 3.56512 cumulative IPC: 3.56331 (Simulation time: 0 hr 1 min 35 sec) 
Heartbeat CPU 0 instructions: 30000003 cycles: 8418542 heartbeat IPC: 3.56407 cumulative IPC: 3.56356 (Simulation time: 0 hr 2 min 26 sec) 
*** Reached end of trace for Core: 0 Repeating trace: traces/spec2k17/srv_28.champsimtrace.xz
Heartbeat CPU 0 instructions: 40000003 cycles: 11220744 heartbeat IPC: 3.56862 cumulative IPC: 3.56483 (Simulation time: 0 hr 3 min 18 sec) 
Heartbeat CPU 0 instructions: 50000002 cycles: 14024872 heartbeat IPC: 3.56617 cumulative IPC: 3.5651 (Simulation time: 0 hr 4 min 5 sec) 

Warmup complete CPU 0 instructions: 50000002 cycles: 14024872 (Simulation time: 0 hr 4 min 5 sec) 

Heartbeat CPU 0 instructions: 60000003 cycles: 27961341 heartbeat IPC: 0.717542 cumulative IPC: 0.717542 (Simulation time: 0 hr 5 min 5 sec) 
*** Reached end of trace for Core: 0 Repeating trace: traces/spec2k17/srv_28.champsimtrace.xz
Heartbeat CPU 0 instructions: 70000003 cycles: 42016267 heartbeat IPC: 0.711494 cumulative IPC: 0.714505 (Simulation time: 0 hr 5 min 58 sec) 
Heartbeat CPU 0 instructions: 80000000 cycles: 55985850 heartbeat IPC: 0.715841 cumulative IPC: 0.71495 (Simulation time: 0 hr 6 min 54 sec) 
Heartbeat CPU 0 instructions: 90000001 cycles: 69809838 heartbeat IPC: 0.72338 cumulative IPC: 0.717039 (Simulation time: 0 hr 7 min 51 sec) 
*** Reached end of trace for Core: 0 Repeating trace: traces/spec2k17/srv_28.champsimtrace.xz
Heartbeat CPU 0 instructions: 100000000 cycles: 83893194 heartbeat IPC: 0.710058 cumulative IPC: 0.715632 (Simulation time: 0 hr 8 min 47 sec) 
Heartbeat CPU 0 instructions: 110000000 cycles: 97622358 heartbeat IPC: 0.728376 cumulative IPC: 0.717725 (Simulation time: 0 hr 9 min 42 sec) 
Heartbeat CPU 0 instructions: 120000001 cycles: 111641881 heartbeat IPC: 0.713291 cumulative IPC: 0.717088 (Simulation time: 0 hr 10 min 38 sec) 
*** Reached end of trace for Core: 0 Repeating trace: traces/spec2k17/srv_28.champsimtrace.xz
Heartbeat CPU 0 instructions: 130000000 cycles: 125584445 heartbeat IPC: 0.717228 cumulative IPC: 0.717106 (Simulation time: 0 hr 11 min 36 sec) 
Heartbeat CPU 0 instructions: 140000001 cycles: 139302873 heartbeat IPC: 0.728947 cumulative IPC: 0.718402 (Simulation time: 0 hr 12 min 33 sec) 
Heartbeat CPU 0 instructions: 150000001 cycles: 153457053 heartbeat IPC: 0.706505 cumulative IPC: 0.717195 (Simulation time: 0 hr 13 min 34 sec) 
*** Reached end of trace for Core: 0 Repeating trace: traces/spec2k17/srv_28.champsimtrace.xz
Heartbeat CPU 0 instructions: 160000000 cycles: 167427202 heartbeat IPC: 0.715812 cumulative IPC: 0.717069 (Simulation time: 0 hr 14 min 36 sec) 
Heartbeat CPU 0 instructions: 170000003 cycles: 181118044 heartbeat IPC: 0.730415 cumulative IPC: 0.718162 (Simulation time: 0 hr 15 min 37 sec) 
Heartbeat CPU 0 instructions: 180000001 cycles: 195244471 heartbeat IPC: 0.707893 cumulative IPC: 0.717362 (Simulation time: 0 hr 16 min 41 sec) 
Heartbeat CPU 0 instructions: 190000001 cycles: 209004552 heartbeat IPC: 0.72674 cumulative IPC: 0.718024 (Simulation time: 0 hr 17 min 42 sec) 
*** Reached end of trace for Core: 0 Repeating trace: traces/spec2k17/srv_28.champsimtrace.xz
Heartbeat CPU 0 instructions: 200000000 cycles: 222910930 heartbeat IPC: 0.719094 cumulative IPC: 0.718095 (Simulation time: 0 hr 18 min 44 sec) 
Heartbeat CPU 0 instructions: 210000001 cycles: 236890012 heartbeat IPC: 0.715355 cumulative IPC: 0.717923 (Simulation time: 0 hr 19 min 48 sec) 
Heartbeat CPU 0 instructions: 220000000 cycles: 250711890 heartbeat IPC: 0.723491 cumulative IPC: 0.718248 (Simulation time: 0 hr 20 min 54 sec) 
*** Reached end of trace for Core: 0 Repeating trace: traces/spec2k17/srv_28.champsimtrace.xz
Heartbeat CPU 0 instructions: 230000001 cycles: 264720123 heartbeat IPC: 0.713866 cumulative IPC: 0.718003 (Simulation time: 0 hr 22 min 8 sec) 
Heartbeat CPU 0 instructions: 240000003 cycles: 278646877 heartbeat IPC: 0.718043 cumulative IPC: 0.718005 (Simulation time: 0 hr 23 min 17 sec) 
Heartbeat CPU 0 instructions: 250000001 cycles: 292470962 heartbeat IPC: 0.723375 cumulative IPC: 0.718272 (Simulation time: 0 hr 24 min 23 sec) 
Finished CPU 0 instructions: 200000001 cycles: 278446091 cumulative IPC: 0.718272 (Simulation time: 0 hr 24 min 23 sec) 

ChampSim completed all CPUs

Region of Interest Statistics

CPU 0 cumulative IPC: 0.718272 instructions: 200000001 cycles: 278446091
ITLB TOTAL     ACCESS:   32446075  HIT:   32340142  MISS:     105933  HIT %:    99.6735  MISS %:   0.326489   MPKI: 0.529665
ITLB LOAD TRANSLATION ACCESS:   32446075  HIT:   32340142  MISS:     105933  HIT %:    99.6735  MISS %:   0.326489   MPKI: 0.529665
ITLB PREFETCH  REQUESTED:          0  ISSUED:          0  USEFUL:          0  USELESS:          0
ITLB USEFUL LOAD PREFETCHES:          0 PREFETCH ISSUED TO LOWER LEVEL:          0  ACCURACY: -nan
ITLB TIMELY PREFETCHES:          0 LATE PREFETCHES: 0 DROPPED PREFETCHES: 0
ITLB PREFETCHES SAME FILL-ORIGIN LEVEL: 0 DIFFERENT FILL-ORIGIN LEVEL: 0
ITLB AVERAGE MISS LATENCY: 10.693 cycles
ITLB RQ	ACCESS:   38245734	FORWARD:          0	MERGED:    5765090	TO_CACHE:   32480644

DTLB TOTAL     ACCESS:   40764540  HIT:   38966709  MISS:    1797831  HIT %:    95.5897  MISS %:    4.41028   MPKI: 8.98915
DTLB LOAD TRANSLATION ACCESS:   40764540  HIT:   38966709  MISS:    1797831  HIT %:    95.5897  MISS %:    4.41028   MPKI: 8.98915
DTLB PREFETCH  REQUESTED:          0  ISSUED:          0  USEFUL:          0  USELESS:          0
DTLB USEFUL LOAD PREFETCHES:          0 PREFETCH ISSUED TO LOWER LEVEL:          0  ACCURACY: -nan
DTLB TIMELY PREFETCHES:          0 LATE PREFETCHES: 0 DROPPED PREFETCHES: 0
DTLB PREFETCHES SAME FILL-ORIGIN LEVEL: 0 DIFFERENT FILL-ORIGIN LEVEL: 0
DTLB AVERAGE MISS LATENCY: 10.0915 cycles
DTLB RQ	ACCESS:   54725324	FORWARD:          0	MERGED:   13771864	TO_CACHE:   40953460

STLB TOTAL     ACCESS:   13635324  HIT:   13548450  MISS:      86874  HIT %:    99.3629  MISS %:   0.637125   MPKI: 0.43437
STLB LOAD TRANSLATION ACCESS:    1903764  HIT:    1817238  MISS:      86526  HIT %:     95.455  MISS %:      4.545   MPKI: 0.43263
STLB TRANSLATION FROM L1D PREFETCHER ACCESS:   11731560  HIT:   11731212  MISS:        348  HIT %:     99.997  MISS %: 0.00296636   MPKI: 0.00174
STLB PREFETCH  REQUESTED:          0  ISSUED:          0  USEFUL:        348  USELESS:          0
STLB USEFUL LOAD PREFETCHES:        348 PREFETCH ISSUED TO LOWER LEVEL:          0  ACCURACY: inf
STLB TIMELY PREFETCHES:        348 LATE PREFETCHES: 142 DROPPED PREFETCHES: 10447
STLB PREFETCHES SAME FILL-ORIGIN LEVEL: 0 DIFFERENT FILL-ORIGIN LEVEL: 0
STLB AVERAGE MISS LATENCY: 37.7061 cycles
STLB RQ	ACCESS:   17142208	FORWARD:          0	MERGED:    3496282	TO_CACHE:   13645926

STLB Hit, L1D data hit: 0
STLB Hit, L2C data hit: 0
STLB Hit, LLC data hit: 0
STLB Hit, LLC data miss: 0
STLB STLB hints to L2: 0
L1D TOTAL     ACCESS:   69196732  HIT:   68455681  MISS:     741051  HIT %:    98.9291  MISS %:    1.07093   MPKI: 3.70525
L1D LOAD      ACCESS:   30674793  HIT:   30258098  MISS:     416695  HIT %:    98.6416  MISS %:    1.35843   MPKI: 2.08347
L1D RFO       ACCESS:   23409463  HIT:   23269544  MISS:     139919  HIT %:    99.4023  MISS %:   0.597703   MPKI: 0.699595
L1D PREFETCH  ACCESS:   15112476  HIT:   14928039  MISS:     184437  HIT %:    98.7796  MISS %:    1.22043   MPKI: 0.922185
AGUS PREFETCH L1 MISS: 0
L1D PREFETCH  REQUESTED:   32901616  ISSUED:   32901339  USEFUL:      28598  USELESS:     155816
L1D USEFUL LOAD PREFETCHES:      28598 PREFETCH ISSUED TO LOWER LEVEL:     238438  ACCURACY: 11.9939
L1D TIMELY PREFETCHES:      28598 LATE PREFETCHES: 53999 DROPPED PREFETCHES: 10588
L1D PREFETCHES SAME FILL-ORIGIN LEVEL: 238438 DIFFERENT FILL-ORIGIN LEVEL: 0
L1D AVERAGE MISS LATENCY: 1.27904e+07 cycles
L1D RQ	ACCESS:   49514056	FORWARD:          0	MERGED:   18594495	TO_CACHE:   30799169
L1D WQ	ACCESS:   24183739	FORWARD:     180326	MERGED:     257584	TO_CACHE:   23926155
L1D PQ	ACCESS:   17662895	FORWARD:          0	MERGED:    2364517	TO_CACHE:   15238444

L1D UNIQUE REGIONS ACCESSED: 0
L1D REGIONS CONFLICTS: 0
L1D Cross Page Prefetch Requests: 13091168
L1D Same Page Prefetch Requests: 6333507
L1D ROI Sum of L1D PQ occupancy: 217391614
L1D PREFETCHES PUSHED FROM L2C: 0
L1I TOTAL     ACCESS:   38054825  HIT:   37422296  MISS:     632529  HIT %:    98.3378  MISS %:    1.66215   MPKI: 3.16264
L1I LOAD      ACCESS:   38054825  HIT:   37422296  MISS:     632529  HIT %:    98.3378  MISS %:    1.66215   MPKI: 3.16264
L1I PREFETCH  REQUESTED:          0  ISSUED:          0  USEFUL:          0  USELESS:          0
L1I USEFUL LOAD PREFETCHES:          0 PREFETCH ISSUED TO LOWER LEVEL:          0  ACCURACY: -nan
L1I TIMELY PREFETCHES:          0 LATE PREFETCHES: 0 DROPPED PREFETCHES: 0
L1I PREFETCHES SAME FILL-ORIGIN LEVEL: 0 DIFFERENT FILL-ORIGIN LEVEL: 0
L1I AVERAGE MISS LATENCY: 16.5754 cycles
L1I RQ	ACCESS:   60429629	FORWARD:          0	MERGED:   22183895	TO_CACHE:   38245734

BTB TOTAL     ACCESS:   29604974  HIT:   27951083  MISS:    1653891  HIT %:    94.4135  MISS %:    5.58653   MPKI: 8.26945
BTB BRANCH_DIRECT_JUMP	ACCESS:    2284365  HIT:    2283256  MISS:       1109
BTB BRANCH_INDIRECT	ACCESS:   12536315  HIT:   11991074  MISS:     545241
BTB BRANCH_CONDITIONAL	ACCESS:    7228322  HIT:    7226630  MISS:       1692
BTB BRANCH_DIRECT_CALL	ACCESS:    3327463  HIT:    3324379  MISS:       3084
BTB BRANCH_INDIRECT_CALL	ACCESS:     450518  HIT:     257027  MISS:     193491
BTB BRANCH_RETURN	ACCESS:    3777991  HIT:    2868717  MISS:     909274
BTB BRANCH_OTHER ACCESS:          0  HIT:          0  MISS:          0

L2C TOTAL     ACCESS:    1703640  HIT:    1190010  MISS:     513630  HIT %:     69.851  MISS %:     30.149   MPKI: 2.56815
L2C LOAD      ACCESS:     994356  HIT:     675730  MISS:     318626  HIT %:    67.9565  MISS %:    32.0435   MPKI: 1.59313
L2C DATA LOAD MPKI: 1.4107
L2C INSTRUCTION LOAD MPKI: 0.182425
L2C RFO       ACCESS:     138573  HIT:      14716  MISS:     123857  HIT %:    10.6197  MISS %:    89.3803   MPKI: 0.619285
L2C PREFETCH  ACCESS:     238362  HIT:     198763  MISS:      39599  HIT %:     83.387  MISS %:     16.613   MPKI: 0.197995
AGUS PREFETCH L1 MISS: 0
L2C DATA PREFETCH MPKI: 0.197995
L2C INSTRUCTION PREFETCH MPKI: 0
L2C WRITEBACK ACCESS:     186714  HIT:     181011  MISS:       5703  HIT %:    96.9456  MISS %:     3.0544   MPKI: 0.028515
L2C LOAD TRANSLATION ACCESS:     123657  HIT:      98067  MISS:      25590  HIT %:    79.3057  MISS %:    20.6943   MPKI: 0.12795
L2C TRANSLATION FROM L1D PREFETCHER ACCESS:      21978  HIT:      21723  MISS:        255  HIT %:    98.8397  MISS %:    1.16025   MPKI: 0.001275
L2C PREFETCH  REQUESTED:          0  ISSUED:          0  USEFUL:       1218  USELESS:      38745
L2C USEFUL LOAD PREFETCHES:       1218 PREFETCH ISSUED TO LOWER LEVEL:      39599  ACCURACY: 3.07584
L2C TIMELY PREFETCHES:       1218 LATE PREFETCHES: 0 DROPPED PREFETCHES: 0
L2C PREFETCHES SAME FILL-ORIGIN LEVEL: 0 DIFFERENT FILL-ORIGIN LEVEL: 0
L2C AVERAGE MISS LATENCY: 113.712 cycles
L2C RQ	ACCESS:    1280777	FORWARD:          0	MERGED:          0	TO_CACHE:    1278564
L2C WQ	ACCESS:     186714	FORWARD:       2289	MERGED:          0	TO_CACHE:     186714
L2C PQ	ACCESS:     238438	FORWARD:          0	MERGED:          0	TO_CACHE:     238362

L2C Instructions Evicting Data 32749
L2C Translations Evicting Data 22803
L2C Data Evicting Data 390891
L2C Instructions Evicting Instructions 1958
L2C Translations Evicting Instructions 1996
L2C Data Evicting Instructions 32429
L2C Instructions Evicting Translations 1778
L2C Translations Evicting Translations 1046
L2C Data Evicting Translations 22277
L2C Dense regions hint from L2: 0
PSCL5 TOTAL     ACCESS:      97321  HIT:      97321  MISS:          0  HIT %:        100  MISS %:          0   MPKI: 0
PSCL5 LOAD TRANSLATION ACCESS:      86384  HIT:      86384  MISS:          0  HIT %:        100  MISS %:          0   MPKI: 0
PSCL5 TRANSLATION FROM L1D PREFETCHER ACCESS:      10937  HIT:      10937  MISS:          0  HIT %:        100  MISS %:          0   MPKI: 0
PSCL5 PREFETCH  REQUESTED:          0  ISSUED:          0  USEFUL:          0  USELESS:          0
PSCL5 USEFUL LOAD PREFETCHES:          0 PREFETCH ISSUED TO LOWER LEVEL:          0  ACCURACY: -nan
PSCL5 TIMELY PREFETCHES:          0 LATE PREFETCHES: 0 DROPPED PREFETCHES: 0
PSCL5 PREFETCHES SAME FILL-ORIGIN LEVEL: 0 DIFFERENT FILL-ORIGIN LEVEL: 0

PSCL4 TOTAL     ACCESS:      95206  HIT:      95107  MISS:         99  HIT %:     99.896  MISS %:   0.103985   MPKI: 0.000495
PSCL4 LOAD TRANSLATION ACCESS:      84383  HIT:      84284  MISS:         99  HIT %:    99.8827  MISS %:   0.117322   MPKI: 0.000495
PSCL4 TRANSLATION FROM L1D PREFETCHER ACCESS:      10823  HIT:      10823  MISS:          0  HIT %:        100  MISS %:          0   MPKI: 0
PSCL4 PREFETCH  REQUESTED:          0  ISSUED:          0  USEFUL:          0  USELESS:          0
PSCL4 USEFUL LOAD PREFETCHES:          0 PREFETCH ISSUED TO LOWER LEVEL:          0  ACCURACY: -nan
PSCL4 TIMELY PREFETCHES:          0 LATE PREFETCHES: 0 DROPPED PREFETCHES: 0
PSCL4 PREFETCHES SAME FILL-ORIGIN LEVEL: 0 DIFFERENT FILL-ORIGIN LEVEL: 0

PSCL3 TOTAL     ACCESS:      94397  HIT:      94010  MISS:        387  HIT %:      99.59  MISS %:   0.409971   MPKI: 0.001935
PSCL3 LOAD TRANSLATION ACCESS:      86096  HIT:      85709  MISS:        387  HIT %:    99.5505  MISS %:   0.449498   MPKI: 0.001935
PSCL3 TRANSLATION FROM L1D PREFETCHER ACCESS:       8301  HIT:       8301  MISS:          0  HIT %:        100  MISS %:          0   MPKI: 0
PSCL3 PREFETCH  REQUESTED:          0  ISSUED:          0  USEFUL:          0  USELESS:          0
PSCL3 USEFUL LOAD PREFETCHES:          0 PREFETCH ISSUED TO LOWER LEVEL:          0  ACCURACY: -nan
PSCL3 TIMELY PREFETCHES:          0 LATE PREFETCHES: 0 DROPPED PREFETCHES: 0
PSCL3 PREFETCHES SAME FILL-ORIGIN LEVEL: 0 DIFFERENT FILL-ORIGIN LEVEL: 0

PSCL2 TOTAL     ACCESS:      88553  HIT:      51682  MISS:      36871  HIT %:    58.3628  MISS %:    41.6372   MPKI: 0.184355
PSCL2 LOAD TRANSLATION ACCESS:      86468  HIT:      49597  MISS:      36871  HIT %:    57.3588  MISS %:    42.6412   MPKI: 0.184355
PSCL2 TRANSLATION FROM L1D PREFETCHER ACCESS:       2085  HIT:       2085  MISS:          0  HIT %:        100  MISS %:          0   MPKI: 0
PSCL2 PREFETCH  REQUESTED:          0  ISSUED:          0  USEFUL:          0  USELESS:          0
PSCL2 USEFUL LOAD PREFETCHES:          0 PREFETCH ISSUED TO LOWER LEVEL:          0  ACCURACY: -nan
PSCL2 TIMELY PREFETCHES:          0 LATE PREFETCHES: 0 DROPPED PREFETCHES: 0
PSCL2 PREFETCHES SAME FILL-ORIGIN LEVEL: 0 DIFFERENT FILL-ORIGIN LEVEL: 0

LLC TOTAL     ACCESS:     667518  HIT:     389214  MISS:     278304  HIT %:    58.3076  MISS %:    41.6924   MPKI: 1.39152
LLC LOAD      ACCESS:     318626  HIT:     113265  MISS:     205361  HIT %:    35.5479  MISS %:    64.4521   MPKI: 1.0268
LLC RFO       ACCESS:     123857  HIT:      78127  MISS:      45730  HIT %:    63.0784  MISS %:    36.9216   MPKI: 0.22865
LLC PREFETCH  ACCESS:      39599  HIT:      16010  MISS:      23589  HIT %:    40.4303  MISS %:    59.5697   MPKI: 0.117945
AGUS PREFETCH L1 MISS: 0
LLC WRITEBACK ACCESS:     159591  HIT:     158535  MISS:       1056  HIT %:    99.3383  MISS %:   0.661691   MPKI: 0.00528
LLC LOAD TRANSLATION ACCESS:      25590  HIT:      23105  MISS:       2485  HIT %:    90.2892  MISS %:    9.71082   MPKI: 0.012425
LLC TRANSLATION FROM L1D PREFETCHER ACCESS:        255  HIT:        172  MISS:         83  HIT %:     67.451  MISS %:     32.549   MPKI: 0.000415
LLC PREFETCH  REQUESTED:          0  ISSUED:          0  USEFUL:        628  USELESS:      23772
LLC USEFUL LOAD PREFETCHES:        628 PREFETCH ISSUED TO LOWER LEVEL:      23589  ACCURACY: 2.66226
LLC TIMELY PREFETCHES:        628 LATE PREFETCHES: 0 DROPPED PREFETCHES: 0
LLC PREFETCHES SAME FILL-ORIGIN LEVEL: 0 DIFFERENT FILL-ORIGIN LEVEL: 0
LLC AVERAGE MISS LATENCY: 155.106 cycles
LLC RQ	ACCESS:     468328	FORWARD:          0	MERGED:          0	TO_CACHE:     468328
LLC WQ	ACCESS:     159591	FORWARD:          0	MERGED:          0	TO_CACHE:     159591
LLC PQ	ACCESS:      39599	FORWARD:          0	MERGED:          0	TO_CACHE:      39599

LLC Dense regions hint to LLC: 0

RAW hits: 2383197
Loads Generated: 51897258
Loads sent to L1D: 49514056
Stores Generated: 24183727
Stores sent to L1D: 24183739
Major fault: 0 Minor fault: 6201
Allocated PAGES: 6201
Completed 

DRAM Statistics
 CHANNEL 0
 RQ ROW_BUFFER_HIT:      66589  ROW_BUFFER_MISS:     210645
 DBUS_CONGESTED:        256
 WQ ROW_BUFFER_HIT:      11852  ROW_BUFFER_MISS:      47030  FULL:          0

 AVG_CONGESTED_CYCLE: 5
 All warmup complete: 2
Channel 0 Bank busy for read cycles: 0
Channel 0 Bank busy for write cycles: 0
Channel 0
Rank 0
0banks busy for read cycles: 245453808
0banks busy for write cycles: 31690
1banks busy for read cycles: 22603704
1banks busy for write cycles: 5636041
2banks busy for read cycles: 1323369
2banks busy for write cycles: 700281
3banks busy for read cycles: 487107
3banks busy for write cycles: 177888
4banks busy for read cycles: 338734
4banks busy for write cycles: 122133
5banks busy for read cycles: 270170
5banks busy for write cycles: 107612
6banks busy for read cycles: 250614
6banks busy for write cycles: 107793
7banks busy for read cycles: 248917
7banks busy for write cycles: 124306
8banks busy for read cycles: 283836
8banks busy for write cycles: 178089

CPU 0 Branch Prediction Accuracy: 99.7863% MPKI: 0.390065 Average ROB Occupancy at Mispredict: 20.0003
Branch types
NOT_BRANCH: 163487732 81.7439%
BRANCH_DIRECT_JUMP: 2284365 1.14218%
BRANCH_INDIRECT: 12536315 6.26816%
BRANCH_CONDITIONAL: 14135281 7.06764%
BRANCH_DIRECT_CALL: 3327463 1.66373%
BRANCH_INDIRECT_CALL: 450518 0.225259%
BRANCH_RETURN: 3777991 1.889%
BRANCH_OTHER: 0 0%

DRAM PAGES: 1048576
Allocated PAGES: 6201
