
*** ChampSim Multicore Out-of-Order Simulator ***

Warmup Instructions: 50000000
Simulation Instructions: 200000000
Number of CPUs: 1
LLC sets: 2048
LLC ways: 16
Off-chip DRAM Size: 4096 MB Channels: 1 Width: 64-bit Data Rate: 6400 MT/s
CPU 0 runs traces/spec2k17/srv_60.champsimtrace.xz
.xz
BTB has LRU replacement policy
ITLB has LRU replacement policy
DTLB has LRU replacement policy
STLB has LRU replacement policy
L1I has LRU replacement policy
L1D has LRU replacement policy
Initialize SRRIP state for L2C
Initialize DRRIP state for LLC
Heartbeat CPU 0 instructions: 10000001 cycles: 2787047 heartbeat IPC: 3.58803 cumulative IPC: 3.58803 (Simulation time: 0 hr 0 min 29 sec) 
Heartbeat CPU 0 instructions: 20000003 cycles: 5568591 heartbeat IPC: 3.59513 cumulative IPC: 3.59157 (Simulation time: 0 hr 0 min 56 sec) 
Heartbeat CPU 0 instructions: 30000003 cycles: 8347113 heartbeat IPC: 3.59904 cumulative IPC: 3.59406 (Simulation time: 0 hr 1 min 26 sec) 
*** Reached end of trace for Core: 0 Repeating trace: traces/spec2k17/srv_60.champsimtrace.xz
Heartbeat CPU 0 instructions: 40000001 cycles: 11127546 heartbeat IPC: 3.59656 cumulative IPC: 3.59468 (Simulation time: 0 hr 1 min 54 sec) 
Heartbeat CPU 0 instructions: 50000002 cycles: 13906607 heartbeat IPC: 3.59834 cumulative IPC: 3.59541 (Simulation time: 0 hr 2 min 19 sec) 

Warmup complete CPU 0 instructions: 50000002 cycles: 13906607 (Simulation time: 0 hr 2 min 19 sec) 

Heartbeat CPU 0 instructions: 60000000 cycles: 38224121 heartbeat IPC: 0.411226 cumulative IPC: 0.411226 (Simulation time: 0 hr 2 min 57 sec) 
*** Reached end of trace for Core: 0 Repeating trace: traces/spec2k17/srv_60.champsimtrace.xz
Heartbeat CPU 0 instructions: 70000003 cycles: 62436501 heartbeat IPC: 0.413012 cumulative IPC: 0.412117 (Simulation time: 0 hr 3 min 40 sec) 
Heartbeat CPU 0 instructions: 80000000 cycles: 87060902 heartbeat IPC: 0.406101 cumulative IPC: 0.410092 (Simulation time: 0 hr 4 min 31 sec) 
Heartbeat CPU 0 instructions: 90000002 cycles: 111639114 heartbeat IPC: 0.406864 cumulative IPC: 0.40928 (Simulation time: 0 hr 5 min 28 sec) 
*** Reached end of trace for Core: 0 Repeating trace: traces/spec2k17/srv_60.champsimtrace.xz
Heartbeat CPU 0 instructions: 100000002 cycles: 135779770 heartbeat IPC: 0.414239 cumulative IPC: 0.410263 (Simulation time: 0 hr 6 min 44 sec) 
Heartbeat CPU 0 instructions: 110000000 cycles: 160178087 heartbeat IPC: 0.409864 cumulative IPC: 0.410196 (Simulation time: 0 hr 8 min 8 sec) 
Heartbeat CPU 0 instructions: 120000001 cycles: 184480436 heartbeat IPC: 0.411483 cumulative IPC: 0.410379 (Simulation time: 0 hr 9 min 5 sec) 
*** Reached end of trace for Core: 0 Repeating trace: traces/spec2k17/srv_60.champsimtrace.xz
Heartbeat CPU 0 instructions: 130000000 cycles: 208470404 heartbeat IPC: 0.416841 cumulative IPC: 0.411176 (Simulation time: 0 hr 10 min 49 sec) 
Heartbeat CPU 0 instructions: 140000000 cycles: 233294428 heartbeat IPC: 0.402836 cumulative IPC: 0.410232 (Simulation time: 0 hr 11 min 49 sec) 
Heartbeat CPU 0 instructions: 150000003 cycles: 257478734 heartbeat IPC: 0.413491 cumulative IPC: 0.410556 (Simulation time: 0 hr 12 min 40 sec) 
*** Reached end of trace for Core: 0 Repeating trace: traces/spec2k17/srv_60.champsimtrace.xz
Heartbeat CPU 0 instructions: 160000003 cycles: 281482784 heartbeat IPC: 0.416596 cumulative IPC: 0.411098 (Simulation time: 0 hr 13 min 24 sec) 
Heartbeat CPU 0 instructions: 170000000 cycles: 306397451 heartbeat IPC: 0.40137 cumulative IPC: 0.410269 (Simulation time: 0 hr 14 min 10 sec) 
Heartbeat CPU 0 instructions: 180000001 cycles: 330574039 heartbeat IPC: 0.413623 cumulative IPC: 0.410525 (Simulation time: 0 hr 15 min 2 sec) 
*** Reached end of trace for Core: 0 Repeating trace: traces/spec2k17/srv_60.champsimtrace.xz
Heartbeat CPU 0 instructions: 190000000 cycles: 354362168 heartbeat IPC: 0.420378 cumulative IPC: 0.411214 (Simulation time: 0 hr 15 min 52 sec) 
Heartbeat CPU 0 instructions: 200000000 cycles: 379347705 heartbeat IPC: 0.400232 cumulative IPC: 0.410463 (Simulation time: 0 hr 16 min 51 sec) 
Heartbeat CPU 0 instructions: 210000003 cycles: 403591299 heartbeat IPC: 0.41248 cumulative IPC: 0.410588 (Simulation time: 0 hr 17 min 59 sec) 
*** Reached end of trace for Core: 0 Repeating trace: traces/spec2k17/srv_60.champsimtrace.xz
Heartbeat CPU 0 instructions: 220000000 cycles: 427414118 heartbeat IPC: 0.419765 cumulative IPC: 0.411117 (Simulation time: 0 hr 18 min 50 sec) 
Heartbeat CPU 0 instructions: 230000002 cycles: 452292918 heartbeat IPC: 0.401949 cumulative IPC: 0.410597 (Simulation time: 0 hr 19 min 48 sec) 
Heartbeat CPU 0 instructions: 240000000 cycles: 476466780 heartbeat IPC: 0.41367 cumulative IPC: 0.410757 (Simulation time: 0 hr 20 min 52 sec) 
*** Reached end of trace for Core: 0 Repeating trace: traces/spec2k17/srv_60.champsimtrace.xz
Heartbeat CPU 0 instructions: 250000001 cycles: 500578561 heartbeat IPC: 0.414735 cumulative IPC: 0.410954 (Simulation time: 0 hr 21 min 31 sec) 
Finished CPU 0 instructions: 200000003 cycles: 486671955 cumulative IPC: 0.410954 (Simulation time: 0 hr 21 min 31 sec) 

ChampSim completed all CPUs

Region of Interest Statistics

CPU 0 cumulative IPC: 0.410954 instructions: 200000003 cycles: 486671955
ITLB TOTAL     ACCESS:   31490501  HIT:   30666205  MISS:     824296  HIT %:    97.3824  MISS %:     2.6176   MPKI: 4.12148
ITLB LOAD TRANSLATION ACCESS:   31490501  HIT:   30666205  MISS:     824296  HIT %:    97.3824  MISS %:     2.6176   MPKI: 4.12148
ITLB PREFETCH  REQUESTED:          0  ISSUED:          0  USEFUL:          0  USELESS:          0
ITLB USEFUL LOAD PREFETCHES:          0 PREFETCH ISSUED TO LOWER LEVEL:          0  ACCURACY: -nan
ITLB TIMELY PREFETCHES:          0 LATE PREFETCHES: 0 DROPPED PREFETCHES: 0
ITLB PREFETCHES SAME FILL-ORIGIN LEVEL: 0 DIFFERENT FILL-ORIGIN LEVEL: 0
ITLB AVERAGE MISS LATENCY: 15.807 cycles
ITLB RQ	ACCESS:   38392330	FORWARD:          0	MERGED:    6703441	TO_CACHE:   31688889

DTLB TOTAL     ACCESS:   37830703  HIT:   35249731  MISS:    2580972  HIT %:    93.1776  MISS %:    6.82243   MPKI: 12.9049
DTLB LOAD TRANSLATION ACCESS:   37830703  HIT:   35249731  MISS:    2580972  HIT %:    93.1776  MISS %:    6.82243   MPKI: 12.9049
DTLB PREFETCH  REQUESTED:          0  ISSUED:          0  USEFUL:          0  USELESS:          0
DTLB USEFUL LOAD PREFETCHES:          0 PREFETCH ISSUED TO LOWER LEVEL:          0  ACCURACY: -nan
DTLB TIMELY PREFETCHES:          0 LATE PREFETCHES: 0 DROPPED PREFETCHES: 0
DTLB PREFETCHES SAME FILL-ORIGIN LEVEL: 0 DIFFERENT FILL-ORIGIN LEVEL: 0
DTLB AVERAGE MISS LATENCY: 14.1847 cycles
DTLB RQ	ACCESS:   48212580	FORWARD:          0	MERGED:   10232506	TO_CACHE:   37980074

STLB TOTAL     ACCESS:    7562174  HIT:    7055949  MISS:     506225  HIT %:    93.3058  MISS %:    6.69417   MPKI: 2.53112
STLB LOAD TRANSLATION ACCESS:    3405268  HIT:    2900694  MISS:     504574  HIT %:    85.1825  MISS %:    14.8175   MPKI: 2.52287
STLB TRANSLATION FROM L1D PREFETCHER ACCESS:    4156906  HIT:    4155255  MISS:       1651  HIT %:    99.9603  MISS %:   0.039717   MPKI: 0.008255
STLB PREFETCH  REQUESTED:          0  ISSUED:          0  USEFUL:       1557  USELESS:         94
STLB USEFUL LOAD PREFETCHES:       1557 PREFETCH ISSUED TO LOWER LEVEL:          0  ACCURACY: inf
STLB TIMELY PREFETCHES:       1557 LATE PREFETCHES: 406 DROPPED PREFETCHES: 21747
STLB PREFETCHES SAME FILL-ORIGIN LEVEL: 0 DIFFERENT FILL-ORIGIN LEVEL: 0
STLB AVERAGE MISS LATENCY: 38.5927 cycles
STLB RQ	ACCESS:    8900025	FORWARD:          0	MERGED:    1315575	TO_CACHE:    7584450

STLB Hit, L1D data hit: 0
STLB Hit, L2C data hit: 0
STLB Hit, LLC data hit: 0
STLB Hit, LLC data miss: 0
STLB STLB hints to L2: 0
L1D TOTAL     ACCESS:   53100891  HIT:   50407425  MISS:    2693466  HIT %:    94.9276  MISS %:    5.07236   MPKI: 13.4673
L1D LOAD      ACCESS:   28247445  HIT:   25941190  MISS:    2306255  HIT %:    91.8355  MISS %:    8.16447   MPKI: 11.5313
L1D RFO       ACCESS:   19408665  HIT:   19057494  MISS:     351171  HIT %:    98.1906  MISS %:    1.80935   MPKI: 1.75585
L1D PREFETCH  ACCESS:    5444781  HIT:    5408741  MISS:      36040  HIT %:    99.3381  MISS %:   0.661918   MPKI: 0.1802
AGUS PREFETCH L1 MISS: 0
L1D PREFETCH  REQUESTED:   11639081  ISSUED:   11638857  USEFUL:      21887  USELESS:      14150
L1D USEFUL LOAD PREFETCHES:      21887 PREFETCH ISSUED TO LOWER LEVEL:      46729  ACCURACY: 46.8382
L1D TIMELY PREFETCHES:      21887 LATE PREFETCHES: 10578 DROPPED PREFETCHES: 26463
L1D PREFETCHES SAME FILL-ORIGIN LEVEL: 46729 DIFFERENT FILL-ORIGIN LEVEL: 0
L1D AVERAGE MISS LATENCY: 1.28955e+06 cycles
L1D RQ	ACCESS:   42565644	FORWARD:          0	MERGED:   13975255	TO_CACHE:   28398965
L1D WQ	ACCESS:   20104499	FORWARD:     265135	MERGED:     290884	TO_CACHE:   19813615
L1D PQ	ACCESS:    6144100	FORWARD:          0	MERGED:     575632	TO_CACHE:    5494757

L1D UNIQUE REGIONS ACCESSED: 0
L1D REGIONS CONFLICTS: 0
L1D Cross Page Prefetch Requests: 5186802
L1D Same Page Prefetch Requests: 1509866
L1D ROI Sum of L1D PQ occupancy: 79999557
L1D PREFETCHES PUSHED FROM L2C: 0
L1I TOTAL     ACCESS:   36691742  HIT:   31426433  MISS:    5265309  HIT %:    85.6499  MISS %:    14.3501   MPKI: 26.3265
L1I LOAD      ACCESS:   36691742  HIT:   31426433  MISS:    5265309  HIT %:    85.6499  MISS %:    14.3501   MPKI: 26.3265
L1I PREFETCH  REQUESTED:          0  ISSUED:          0  USEFUL:          0  USELESS:          0
L1I USEFUL LOAD PREFETCHES:          0 PREFETCH ISSUED TO LOWER LEVEL:          0  ACCURACY: -nan
L1I TIMELY PREFETCHES:          0 LATE PREFETCHES: 0 DROPPED PREFETCHES: 0
L1I PREFETCHES SAME FILL-ORIGIN LEVEL: 0 DIFFERENT FILL-ORIGIN LEVEL: 0
L1I AVERAGE MISS LATENCY: 28.1301 cycles
L1I RQ	ACCESS:   57078094	FORWARD:          0	MERGED:   18685764	TO_CACHE:   38392330

BTB TOTAL     ACCESS:   22533867  HIT:   17310639  MISS:    5223228  HIT %:    76.8205  MISS %:    23.1795   MPKI: 26.1161
BTB BRANCH_DIRECT_JUMP	ACCESS:    1763351  HIT:    1443726  MISS:     319625
BTB BRANCH_INDIRECT	ACCESS:    9801194  HIT:    7271708  MISS:    2529486
BTB BRANCH_CONDITIONAL	ACCESS:    4520054  HIT:    4030146  MISS:     489908
BTB BRANCH_DIRECT_CALL	ACCESS:    2511582  HIT:    1921451  MISS:     590131
BTB BRANCH_INDIRECT_CALL	ACCESS:     702233  HIT:     645739  MISS:      56494
BTB BRANCH_RETURN	ACCESS:    3235453  HIT:    1997869  MISS:    1237584
BTB BRANCH_OTHER ACCESS:          0  HIT:          0  MISS:          0

L2C TOTAL     ACCESS:    9668180  HIT:    5517755  MISS:    4150425  HIT %:    57.0713  MISS %:    42.9287   MPKI: 20.7521
L2C LOAD      ACCESS:    7560917  HIT:    3891749  MISS:    3669168  HIT %:    51.4719  MISS %:    48.5281   MPKI: 18.3458
L2C DATA LOAD MPKI: 6.32429
L2C INSTRUCTION LOAD MPKI: 12.0215
L2C RFO       ACCESS:     351059  HIT:     175071  MISS:     175988  HIT %:    49.8694  MISS %:    50.1306   MPKI: 0.87994
L2C PREFETCH  ACCESS:      46725  HIT:      38343  MISS:       8382  HIT %:     82.061  MISS %:     17.939   MPKI: 0.04191
AGUS PREFETCH L1 MISS: 0
L2C DATA PREFETCH MPKI: 0.04191
L2C INSTRUCTION PREFETCH MPKI: 0
L2C WRITEBACK ACCESS:    1037076  HIT:     980479  MISS:      56597  HIT %:    94.5426  MISS %:    5.45736   MPKI: 0.282985
L2C LOAD TRANSLATION ACCESS:     641321  HIT:     407872  MISS:     233449  HIT %:    63.5987  MISS %:    36.4013   MPKI: 1.16724
L2C TRANSLATION FROM L1D PREFETCHER ACCESS:      31082  HIT:      24241  MISS:       6841  HIT %:    77.9905  MISS %:    22.0095   MPKI: 0.034205
L2C PREFETCH  REQUESTED:          0  ISSUED:          0  USEFUL:       5821  USELESS:       9393
L2C USEFUL LOAD PREFETCHES:       5821 PREFETCH ISSUED TO LOWER LEVEL:       8382  ACCURACY: 69.4464
L2C TIMELY PREFETCHES:       5821 LATE PREFETCHES: 0 DROPPED PREFETCHES: 0
L2C PREFETCHES SAME FILL-ORIGIN LEVEL: 0 DIFFERENT FILL-ORIGIN LEVEL: 0
L2C AVERAGE MISS LATENCY: 39.4327 cycles
L2C RQ	ACCESS:    8584449	FORWARD:          0	MERGED:          0	TO_CACHE:    8584379
L2C WQ	ACCESS:    1037076	FORWARD:         74	MERGED:          0	TO_CACHE:    1037076
L2C PQ	ACCESS:      46729	FORWARD:          0	MERGED:          0	TO_CACHE:      46725

L2C Instructions Evicting Data 869716
L2C Translations Evicting Data 88627
L2C Data Evicting Data 525935
L2C Instructions Evicting Instructions 1395557
L2C Translations Evicting Instructions 138622
L2C Data Evicting Instructions 838208
L2C Instructions Evicting Translations 139036
L2C Translations Evicting Translations 13041
L2C Data Evicting Translations 85086
L2C Dense regions hint from L2: 0
PSCL5 TOTAL     ACCESS:     527342  HIT:     527342  MISS:          0  HIT %:        100  MISS %:          0   MPKI: 0
PSCL5 LOAD TRANSLATION ACCESS:     504168  HIT:     504168  MISS:          0  HIT %:        100  MISS %:          0   MPKI: 0
PSCL5 TRANSLATION FROM L1D PREFETCHER ACCESS:      23174  HIT:      23174  MISS:          0  HIT %:        100  MISS %:          0   MPKI: 0
PSCL5 PREFETCH  REQUESTED:          0  ISSUED:          0  USEFUL:          0  USELESS:          0
PSCL5 USEFUL LOAD PREFETCHES:          0 PREFETCH ISSUED TO LOWER LEVEL:          0  ACCURACY: -nan
PSCL5 TIMELY PREFETCHES:          0 LATE PREFETCHES: 0 DROPPED PREFETCHES: 0
PSCL5 PREFETCHES SAME FILL-ORIGIN LEVEL: 0 DIFFERENT FILL-ORIGIN LEVEL: 0

PSCL4 TOTAL     ACCESS:     491000  HIT:     489489  MISS:       1511  HIT %:    99.6923  MISS %:   0.307739   MPKI: 0.007555
PSCL4 LOAD TRANSLATION ACCESS:     470047  HIT:     468536  MISS:       1511  HIT %:    99.6785  MISS %:   0.321457   MPKI: 0.007555
PSCL4 TRANSLATION FROM L1D PREFETCHER ACCESS:      20953  HIT:      20953  MISS:          0  HIT %:        100  MISS %:          0   MPKI: 0
PSCL4 PREFETCH  REQUESTED:          0  ISSUED:          0  USEFUL:          0  USELESS:          0
PSCL4 USEFUL LOAD PREFETCHES:          0 PREFETCH ISSUED TO LOWER LEVEL:          0  ACCURACY: -nan
PSCL4 TIMELY PREFETCHES:          0 LATE PREFETCHES: 0 DROPPED PREFETCHES: 0
PSCL4 PREFETCHES SAME FILL-ORIGIN LEVEL: 0 DIFFERENT FILL-ORIGIN LEVEL: 0

PSCL3 TOTAL     ACCESS:     516633  HIT:     512400  MISS:       4233  HIT %:    99.1807  MISS %:   0.819344   MPKI: 0.021165
PSCL3 LOAD TRANSLATION ACCESS:     499837  HIT:     495604  MISS:       4233  HIT %:    99.1531  MISS %:   0.846876   MPKI: 0.021165
PSCL3 TRANSLATION FROM L1D PREFETCHER ACCESS:      16796  HIT:      16796  MISS:          0  HIT %:        100  MISS %:          0   MPKI: 0
PSCL3 PREFETCH  REQUESTED:          0  ISSUED:          0  USEFUL:          0  USELESS:          0
PSCL3 USEFUL LOAD PREFETCHES:          0 PREFETCH ISSUED TO LOWER LEVEL:          0  ACCURACY: -nan
PSCL3 TIMELY PREFETCHES:          0 LATE PREFETCHES: 0 DROPPED PREFETCHES: 0
PSCL3 PREFETCHES SAME FILL-ORIGIN LEVEL: 0 DIFFERENT FILL-ORIGIN LEVEL: 0

PSCL2 TOTAL     ACCESS:     507987  HIT:     375293  MISS:     132694  HIT %:    73.8785  MISS %:    26.1215   MPKI: 0.66347
PSCL2 LOAD TRANSLATION ACCESS:     505446  HIT:     372752  MISS:     132694  HIT %:    73.7471  MISS %:    26.2529   MPKI: 0.66347
PSCL2 TRANSLATION FROM L1D PREFETCHER ACCESS:       2541  HIT:       2541  MISS:          0  HIT %:        100  MISS %:          0   MPKI: 0
PSCL2 PREFETCH  REQUESTED:          0  ISSUED:          0  USEFUL:          0  USELESS:          0
PSCL2 USEFUL LOAD PREFETCHES:          0 PREFETCH ISSUED TO LOWER LEVEL:          0  ACCURACY: -nan
PSCL2 TIMELY PREFETCHES:          0 LATE PREFETCHES: 0 DROPPED PREFETCHES: 0
PSCL2 PREFETCHES SAME FILL-ORIGIN LEVEL: 0 DIFFERENT FILL-ORIGIN LEVEL: 0

LLC TOTAL     ACCESS:    4598858  HIT:    4337923  MISS:     260935  HIT %:    94.3261  MISS %:    5.67391   MPKI: 1.30467
LLC LOAD      ACCESS:    3669168  HIT:    3456100  MISS:     213068  HIT %:     94.193  MISS %:    5.80698   MPKI: 1.06534
LLC RFO       ACCESS:     175987  HIT:     134787  MISS:      41200  HIT %:    76.5892  MISS %:    23.4108   MPKI: 0.206
LLC PREFETCH  ACCESS:       8382  HIT:       8021  MISS:        361  HIT %:    95.6932  MISS %:    4.30685   MPKI: 0.001805
AGUS PREFETCH L1 MISS: 0
LLC WRITEBACK ACCESS:     505031  HIT:     503035  MISS:       1996  HIT %:    99.6048  MISS %:   0.395223   MPKI: 0.00998
LLC LOAD TRANSLATION ACCESS:     233449  HIT:     229425  MISS:       4024  HIT %:    98.2763  MISS %:    1.72372   MPKI: 0.02012
LLC TRANSLATION FROM L1D PREFETCHER ACCESS:       6841  HIT:       6555  MISS:        286  HIT %:    95.8193  MISS %:    4.18068   MPKI: 0.00143
LLC PREFETCH  REQUESTED:          0  ISSUED:          0  USEFUL:        165  USELESS:        571
LLC USEFUL LOAD PREFETCHES:        165 PREFETCH ISSUED TO LOWER LEVEL:        361  ACCURACY: 45.7064
LLC TIMELY PREFETCHES:        165 LATE PREFETCHES: 0 DROPPED PREFETCHES: 0
LLC PREFETCHES SAME FILL-ORIGIN LEVEL: 0 DIFFERENT FILL-ORIGIN LEVEL: 0
LLC AVERAGE MISS LATENCY: 156.537 cycles
LLC RQ	ACCESS:    4085446	FORWARD:          0	MERGED:          0	TO_CACHE:    4085445
LLC WQ	ACCESS:     505031	FORWARD:          1	MERGED:          0	TO_CACHE:     505031
LLC PQ	ACCESS:       8382	FORWARD:          0	MERGED:          0	TO_CACHE:       8382

LLC Dense regions hint to LLC: 0

RAW hits: 2685677
Loads Generated: 45251322
Loads sent to L1D: 42565644
Stores Generated: 20104499
Stores sent to L1D: 20104499
Major fault: 0 Minor fault: 4373
Allocated PAGES: 4373
Completed 

DRAM Statistics
 CHANNEL 0
 RQ ROW_BUFFER_HIT:      34716  ROW_BUFFER_MISS:     224223
 DBUS_CONGESTED:        135
 WQ ROW_BUFFER_HIT:      21177  ROW_BUFFER_MISS:     185548  FULL:          0

 AVG_CONGESTED_CYCLE: 4
 All warmup complete: 2
Channel 0 Bank busy for read cycles: 0
Channel 0 Bank busy for write cycles: 0
Channel 0
Rank 0
0banks busy for read cycles: 432361653
0banks busy for write cycles: 130442
1banks busy for read cycles: 26180897
1banks busy for write cycles: 18102762
2banks busy for read cycles: 3091720
2banks busy for write cycles: 3891841
3banks busy for read cycles: 381490
3banks busy for write cycles: 1032117
4banks busy for read cycles: 202938
4banks busy for write cycles: 436906
5banks busy for read cycles: 75689
5banks busy for write cycles: 200542
6banks busy for read cycles: 37224
6banks busy for write cycles: 123405
7banks busy for read cycles: 26208
7banks busy for write cycles: 166044
8banks busy for read cycles: 33024
8banks busy for write cycles: 197054

CPU 0 Branch Prediction Accuracy: 99.8235% MPKI: 0.31717 Average ROB Occupancy at Mispredict: 35.5646
Branch types
NOT_BRANCH: 164066025 82.033%
BRANCH_DIRECT_JUMP: 1763351 0.881675%
BRANCH_INDIRECT: 9801194 4.9006%
BRANCH_CONDITIONAL: 17919840 8.95992%
BRANCH_DIRECT_CALL: 2511582 1.25579%
BRANCH_INDIRECT_CALL: 702233 0.351116%
BRANCH_RETURN: 3235453 1.61773%
BRANCH_OTHER: 0 0%

DRAM PAGES: 1048576
Allocated PAGES: 4373
