
*** ChampSim Multicore Out-of-Order Simulator ***

Warmup Instructions: 50000000
Simulation Instructions: 200000000
Number of CPUs: 1
LLC sets: 2048
LLC ways: 16
Off-chip DRAM Size: 4096 MB Channels: 1 Width: 64-bit Data Rate: 6400 MT/s
CPU 0 runs traces/spec2k17/srv_26.champsimtrace.xz
.xz
BTB has LRU replacement policy
ITLB has LRU replacement policy
DTLB has LRU replacement policy
STLB has LRU replacement policy
L1I has LRU replacement policy
L1D has LRU replacement policy
Initialize SRRIP state for L2C
Initialize DRRIP state for LLC
Heartbeat CPU 0 instructions: 10000003 cycles: 2819238 heartbeat IPC: 3.54706 cumulative IPC: 3.54706 (Simulation time: 0 hr 0 min 44 sec) 
Heartbeat CPU 0 instructions: 20000000 cycles: 5635547 heartbeat IPC: 3.55075 cumulative IPC: 3.5489 (Simulation time: 0 hr 1 min 24 sec) 
Heartbeat CPU 0 instructions: 30000000 cycles: 8449714 heartbeat IPC: 3.55345 cumulative IPC: 3.55042 (Simulation time: 0 hr 2 min 6 sec) 
*** Reached end of trace for Core: 0 Repeating trace: traces/spec2k17/srv_26.champsimtrace.xz
Heartbeat CPU 0 instructions: 40000003 cycles: 11262585 heartbeat IPC: 3.55509 cumulative IPC: 3.55158 (Simulation time: 0 hr 2 min 48 sec) 
Heartbeat CPU 0 instructions: 50000000 cycles: 14077424 heartbeat IPC: 3.5526 cumulative IPC: 3.55179 (Simulation time: 0 hr 3 min 31 sec) 

Warmup complete CPU 0 instructions: 50000004 cycles: 14077425 (Simulation time: 0 hr 3 min 31 sec) 

Heartbeat CPU 0 instructions: 60000001 cycles: 46063026 heartbeat IPC: 0.312641 cumulative IPC: 0.312641 (Simulation time: 0 hr 4 min 36 sec) 
*** Reached end of trace for Core: 0 Repeating trace: traces/spec2k17/srv_26.champsimtrace.xz
Heartbeat CPU 0 instructions: 70000001 cycles: 78202565 heartbeat IPC: 0.311143 cumulative IPC: 0.31189 (Simulation time: 0 hr 5 min 41 sec) 
Heartbeat CPU 0 instructions: 80000000 cycles: 110204830 heartbeat IPC: 0.312478 cumulative IPC: 0.312086 (Simulation time: 0 hr 6 min 48 sec) 
Heartbeat CPU 0 instructions: 90000001 cycles: 142236353 heartbeat IPC: 0.312192 cumulative IPC: 0.312112 (Simulation time: 0 hr 7 min 54 sec) 
*** Reached end of trace for Core: 0 Repeating trace: traces/spec2k17/srv_26.champsimtrace.xz
Heartbeat CPU 0 instructions: 100000000 cycles: 174313887 heartbeat IPC: 0.311745 cumulative IPC: 0.312039 (Simulation time: 0 hr 9 min 2 sec) 
Heartbeat CPU 0 instructions: 110000000 cycles: 206298267 heartbeat IPC: 0.312653 cumulative IPC: 0.312141 (Simulation time: 0 hr 10 min 7 sec) 
Heartbeat CPU 0 instructions: 120000001 cycles: 238262630 heartbeat IPC: 0.312848 cumulative IPC: 0.312242 (Simulation time: 0 hr 11 min 15 sec) 
*** Reached end of trace for Core: 0 Repeating trace: traces/spec2k17/srv_26.champsimtrace.xz
Heartbeat CPU 0 instructions: 130000000 cycles: 270291042 heartbeat IPC: 0.312223 cumulative IPC: 0.312239 (Simulation time: 0 hr 12 min 23 sec) 
Heartbeat CPU 0 instructions: 140000001 cycles: 302266253 heartbeat IPC: 0.312742 cumulative IPC: 0.312295 (Simulation time: 0 hr 13 min 32 sec) 
Heartbeat CPU 0 instructions: 150000003 cycles: 334021420 heartbeat IPC: 0.314909 cumulative IPC: 0.312555 (Simulation time: 0 hr 14 min 44 sec) 
*** Reached end of trace for Core: 0 Repeating trace: traces/spec2k17/srv_26.champsimtrace.xz
Heartbeat CPU 0 instructions: 160000000 cycles: 365855253 heartbeat IPC: 0.314131 cumulative IPC: 0.312697 (Simulation time: 0 hr 15 min 58 sec) 
Heartbeat CPU 0 instructions: 170000000 cycles: 397644308 heartbeat IPC: 0.314574 cumulative IPC: 0.312853 (Simulation time: 0 hr 17 min 13 sec) 
Heartbeat CPU 0 instructions: 180000000 cycles: 429439106 heartbeat IPC: 0.314517 cumulative IPC: 0.31298 (Simulation time: 0 hr 18 min 29 sec) 
*** Reached end of trace for Core: 0 Repeating trace: traces/spec2k17/srv_26.champsimtrace.xz
Heartbeat CPU 0 instructions: 190000002 cycles: 461174001 heartbeat IPC: 0.315111 cumulative IPC: 0.313131 (Simulation time: 0 hr 19 min 47 sec) 
Heartbeat CPU 0 instructions: 200000003 cycles: 492935971 heartbeat IPC: 0.314842 cumulative IPC: 0.313245 (Simulation time: 0 hr 21 min 12 sec) 
Heartbeat CPU 0 instructions: 210000002 cycles: 524684572 heartbeat IPC: 0.314974 cumulative IPC: 0.313352 (Simulation time: 0 hr 22 min 38 sec) 
*** Reached end of trace for Core: 0 Repeating trace: traces/spec2k17/srv_26.champsimtrace.xz
Heartbeat CPU 0 instructions: 220000000 cycles: 556347245 heartbeat IPC: 0.315829 cumulative IPC: 0.313497 (Simulation time: 0 hr 24 min 0 sec) 
Heartbeat CPU 0 instructions: 230000000 cycles: 588014282 heartbeat IPC: 0.315786 cumulative IPC: 0.313623 (Simulation time: 0 hr 25 min 40 sec) 
Heartbeat CPU 0 instructions: 240000002 cycles: 619701580 heartbeat IPC: 0.315584 cumulative IPC: 0.313726 (Simulation time: 0 hr 27 min 0 sec) 
*** Reached end of trace for Core: 0 Repeating trace: traces/spec2k17/srv_26.champsimtrace.xz
Heartbeat CPU 0 instructions: 250000000 cycles: 651262574 heartbeat IPC: 0.316847 cumulative IPC: 0.313881 (Simulation time: 0 hr 28 min 21 sec) 
Finished CPU 0 instructions: 200000000 cycles: 637185173 cumulative IPC: 0.313881 (Simulation time: 0 hr 28 min 21 sec) 

ChampSim completed all CPUs

Region of Interest Statistics

CPU 0 cumulative IPC: 0.313881 instructions: 200000000 cycles: 637185173
ITLB TOTAL     ACCESS:   34707702  HIT:   32654589  MISS:    2053113  HIT %:    94.0846  MISS %:    5.91544   MPKI: 10.2656
ITLB LOAD TRANSLATION ACCESS:   34707702  HIT:   32654589  MISS:    2053113  HIT %:    94.0846  MISS %:    5.91544   MPKI: 10.2656
ITLB PREFETCH  REQUESTED:          0  ISSUED:          0  USEFUL:          0  USELESS:          0
ITLB USEFUL LOAD PREFETCHES:          0 PREFETCH ISSUED TO LOWER LEVEL:          0  ACCURACY: -nan
ITLB TIMELY PREFETCHES:          0 LATE PREFETCHES: 0 DROPPED PREFETCHES: 0
ITLB PREFETCHES SAME FILL-ORIGIN LEVEL: 0 DIFFERENT FILL-ORIGIN LEVEL: 0
ITLB AVERAGE MISS LATENCY: 9.05794 cycles
ITLB RQ	ACCESS:   40960076	FORWARD:          0	MERGED:    5761577	TO_CACHE:   35198499

DTLB TOTAL     ACCESS:   46543835  HIT:   44698144  MISS:    1845691  HIT %:    96.0345  MISS %:    3.96549   MPKI: 9.22846
DTLB LOAD TRANSLATION ACCESS:   46543835  HIT:   44698144  MISS:    1845691  HIT %:    96.0345  MISS %:    3.96549   MPKI: 9.22846
DTLB PREFETCH  REQUESTED:          0  ISSUED:          0  USEFUL:          0  USELESS:          0
DTLB USEFUL LOAD PREFETCHES:          0 PREFETCH ISSUED TO LOWER LEVEL:          0  ACCURACY: -nan
DTLB TIMELY PREFETCHES:          0 LATE PREFETCHES: 0 DROPPED PREFETCHES: 0
DTLB PREFETCHES SAME FILL-ORIGIN LEVEL: 0 DIFFERENT FILL-ORIGIN LEVEL: 0
DTLB AVERAGE MISS LATENCY: 8.91337 cycles
DTLB RQ	ACCESS:   61215507	FORWARD:          0	MERGED:   14607807	TO_CACHE:   46607700

STLB TOTAL     ACCESS:    9949110  HIT:    9939166  MISS:       9944  HIT %:    99.9001  MISS %:  0.0999486   MPKI: 0.04972
STLB LOAD TRANSLATION ACCESS:    3898804  HIT:    3889062  MISS:       9742  HIT %:    99.7501  MISS %:   0.249871   MPKI: 0.04871
STLB TRANSLATION FROM L1D PREFETCHER ACCESS:    6050306  HIT:    6050104  MISS:        202  HIT %:    99.9967  MISS %: 0.00333867   MPKI: 0.00101
STLB PREFETCH  REQUESTED:          0  ISSUED:          0  USEFUL:        158  USELESS:         38
STLB USEFUL LOAD PREFETCHES:        158 PREFETCH ISSUED TO LOWER LEVEL:          0  ACCURACY: inf
STLB TIMELY PREFETCHES:        158 LATE PREFETCHES: 143 DROPPED PREFETCHES: 63446
STLB PREFETCHES SAME FILL-ORIGIN LEVEL: 0 DIFFERENT FILL-ORIGIN LEVEL: 0
STLB AVERAGE MISS LATENCY: 40.2521 cycles
STLB RQ	ACCESS:   12072816	FORWARD:          0	MERGED:    2060087	TO_CACHE:   10012729

STLB Hit, L1D data hit: 0
STLB Hit, L2C data hit: 0
STLB Hit, LLC data hit: 0
STLB Hit, LLC data miss: 0
STLB STLB hints to L2: 0
L1D TOTAL     ACCESS:   67145477  HIT:   63050009  MISS:    4095468  HIT %:    93.9006  MISS %:     6.0994   MPKI: 20.4773
L1D LOAD      ACCESS:   34277912  HIT:   31911501  MISS:    2366411  HIT %:    93.0964  MISS %:     6.9036   MPKI: 11.8321
L1D RFO       ACCESS:   25134044  HIT:   24044069  MISS:    1089975  HIT %:    95.6634  MISS %:    4.33665   MPKI: 5.44987
L1D PREFETCH  ACCESS:    7733521  HIT:    7094439  MISS:     639082  HIT %:    91.7362  MISS %:    8.26379   MPKI: 3.19541
AGUS PREFETCH L1 MISS: 0
L1D PREFETCH  REQUESTED:   17262624  ISSUED:   17262611  USEFUL:     534145  USELESS:     104919
L1D USEFUL LOAD PREFETCHES:     534145 PREFETCH ISSUED TO LOWER LEVEL:     848464  ACCURACY: 62.9544
L1D TIMELY PREFETCHES:     534145 LATE PREFETCHES: 206216 DROPPED PREFETCHES: 71079
L1D PREFETCHES SAME FILL-ORIGIN LEVEL: 848464 DIFFERENT FILL-ORIGIN LEVEL: 0
L1D AVERAGE MISS LATENCY: 2.17142e+07 cycles
L1D RQ	ACCESS:   47467417	FORWARD:          0	MERGED:   12769419	TO_CACHE:   34389975
L1D WQ	ACCESS:   26994536	FORWARD:     320161	MERGED:     169004	TO_CACHE:   26825532
L1D PQ	ACCESS:    9088599	FORWARD:          0	MERGED:     902449	TO_CACHE:    8174012

L1D UNIQUE REGIONS ACCESSED: 0
L1D REGIONS CONFLICTS: 0
L1D Cross Page Prefetch Requests: 6458941
L1D Same Page Prefetch Requests: 2854974
L1D ROI Sum of L1D PQ occupancy: 120658451
L1D PREFETCHES PUSHED FROM L2C: 0
L1I TOTAL     ACCESS:   39433399  HIT:   28741606  MISS:   10691793  HIT %:    72.8865  MISS %:    27.1135   MPKI: 53.459
L1I LOAD      ACCESS:   39433399  HIT:   28741606  MISS:   10691793  HIT %:    72.8865  MISS %:    27.1135   MPKI: 53.459
L1I PREFETCH  REQUESTED:          0  ISSUED:          0  USEFUL:          0  USELESS:          0
L1I USEFUL LOAD PREFETCHES:          0 PREFETCH ISSUED TO LOWER LEVEL:          0  ACCURACY: -nan
L1I TIMELY PREFETCHES:          0 LATE PREFETCHES: 0 DROPPED PREFETCHES: 0
L1I PREFETCHES SAME FILL-ORIGIN LEVEL: 0 DIFFERENT FILL-ORIGIN LEVEL: 0
L1I AVERAGE MISS LATENCY: 16.3228 cycles
L1I RQ	ACCESS:   57995841	FORWARD:          0	MERGED:   17035765	TO_CACHE:   40960076

BTB TOTAL     ACCESS:   30080361  HIT:   17302648  MISS:   12777713  HIT %:    57.5214  MISS %:    42.4786   MPKI: 63.8886
BTB BRANCH_DIRECT_JUMP	ACCESS:    2022883  HIT:    1132448  MISS:     890435
BTB BRANCH_INDIRECT	ACCESS:   11928564  HIT:    7079070  MISS:    4849494
BTB BRANCH_CONDITIONAL	ACCESS:    7505175  HIT:    6165615  MISS:    1339560
BTB BRANCH_DIRECT_CALL	ACCESS:    3636526  HIT:    1530723  MISS:    2105803
BTB BRANCH_INDIRECT_CALL	ACCESS:     675349  HIT:     268948  MISS:     406401
BTB BRANCH_RETURN	ACCESS:    4311864  HIT:    1125844  MISS:    3186020
BTB BRANCH_OTHER ACCESS:          0  HIT:          0  MISS:          0

L2C TOTAL     ACCESS:   16883541  HIT:   15457589  MISS:    1425952  HIT %:    91.5542  MISS %:    8.44581   MPKI: 7.12976
L2C LOAD      ACCESS:   12851984  HIT:   11779117  MISS:    1072867  HIT %:    91.6521  MISS %:    8.34787   MPKI: 5.36433
L2C DATA LOAD MPKI: 1.36971
L2C INSTRUCTION LOAD MPKI: 3.99463
L2C RFO       ACCESS:    1086809  HIT:     903855  MISS:     182954  HIT %:    83.1659  MISS %:    16.8341   MPKI: 0.91477
L2C PREFETCH  ACCESS:     848271  HIT:     751923  MISS:      96348  HIT %:    88.6418  MISS %:    11.3582   MPKI: 0.48174
AGUS PREFETCH L1 MISS: 0
L2C DATA PREFETCH MPKI: 0.48174
L2C INSTRUCTION PREFETCH MPKI: 0
L2C WRITEBACK ACCESS:    1988780  HIT:    1933374  MISS:      55406  HIT %:    97.2141  MISS %:    2.78593   MPKI: 0.27703
L2C LOAD TRANSLATION ACCESS:      10302  HIT:       4123  MISS:       6179  HIT %:    40.0214  MISS %:    59.9786   MPKI: 0.030895
L2C TRANSLATION FROM L1D PREFETCHER ACCESS:      97395  HIT:      85197  MISS:      12198  HIT %:    87.4757  MISS %:    12.5243   MPKI: 0.06099
L2C PREFETCH  REQUESTED:          0  ISSUED:          0  USEFUL:      15449  USELESS:      92797
L2C USEFUL LOAD PREFETCHES:      15449 PREFETCH ISSUED TO LOWER LEVEL:      96348  ACCURACY: 16.0346
L2C TIMELY PREFETCHES:      15449 LATE PREFETCHES: 0 DROPPED PREFETCHES: 0
L2C PREFETCHES SAME FILL-ORIGIN LEVEL: 0 DIFFERENT FILL-ORIGIN LEVEL: 0
L2C AVERAGE MISS LATENCY: 30.1393 cycles
L2C RQ	ACCESS:   14046494	FORWARD:          0	MERGED:          0	TO_CACHE:   14046490
L2C WQ	ACCESS:    1988780	FORWARD:        197	MERGED:          0	TO_CACHE:    1988780
L2C PQ	ACCESS:     848464	FORWARD:          0	MERGED:          0	TO_CACHE:     848271

L2C Instructions Evicting Data 309729
L2C Translations Evicting Data 10152
L2C Data Evicting Data 264554
L2C Instructions Evicting Instructions 481799
L2C Translations Evicting Instructions 7845
L2C Data Evicting Instructions 278439
L2C Instructions Evicting Translations 7397
L2C Translations Evicting Translations 380
L2C Data Evicting Translations 10251
L2C Dense regions hint from L2: 0
PSCL5 TOTAL     ACCESS:      72616  HIT:      72616  MISS:          0  HIT %:        100  MISS %:          0   MPKI: 0
PSCL5 LOAD TRANSLATION ACCESS:       9599  HIT:       9599  MISS:          0  HIT %:        100  MISS %:          0   MPKI: 0
PSCL5 TRANSLATION FROM L1D PREFETCHER ACCESS:      63017  HIT:      63017  MISS:          0  HIT %:        100  MISS %:          0   MPKI: 0
PSCL5 PREFETCH  REQUESTED:          0  ISSUED:          0  USEFUL:          0  USELESS:          0
PSCL5 USEFUL LOAD PREFETCHES:          0 PREFETCH ISSUED TO LOWER LEVEL:          0  ACCURACY: -nan
PSCL5 TIMELY PREFETCHES:          0 LATE PREFETCHES: 0 DROPPED PREFETCHES: 0
PSCL5 PREFETCHES SAME FILL-ORIGIN LEVEL: 0 DIFFERENT FILL-ORIGIN LEVEL: 0

PSCL4 TOTAL     ACCESS:      44382  HIT:      44289  MISS:         93  HIT %:    99.7905  MISS %:   0.209544   MPKI: 0.000465
PSCL4 LOAD TRANSLATION ACCESS:       8512  HIT:       8419  MISS:         93  HIT %:    98.9074  MISS %:    1.09258   MPKI: 0.000465
PSCL4 TRANSLATION FROM L1D PREFETCHER ACCESS:      35870  HIT:      35870  MISS:          0  HIT %:        100  MISS %:          0   MPKI: 0
PSCL4 PREFETCH  REQUESTED:          0  ISSUED:          0  USEFUL:          0  USELESS:          0
PSCL4 USEFUL LOAD PREFETCHES:          0 PREFETCH ISSUED TO LOWER LEVEL:          0  ACCURACY: -nan
PSCL4 TIMELY PREFETCHES:          0 LATE PREFETCHES: 0 DROPPED PREFETCHES: 0
PSCL4 PREFETCHES SAME FILL-ORIGIN LEVEL: 0 DIFFERENT FILL-ORIGIN LEVEL: 0

PSCL3 TOTAL     ACCESS:      61498  HIT:      61380  MISS:        118  HIT %:    99.8081  MISS %:   0.191876   MPKI: 0.00059
PSCL3 LOAD TRANSLATION ACCESS:       9024  HIT:       8906  MISS:        118  HIT %:    98.6924  MISS %:    1.30762   MPKI: 0.00059
PSCL3 TRANSLATION FROM L1D PREFETCHER ACCESS:      52474  HIT:      52474  MISS:          0  HIT %:        100  MISS %:          0   MPKI: 0
PSCL3 PREFETCH  REQUESTED:          0  ISSUED:          0  USEFUL:          0  USELESS:          0
PSCL3 USEFUL LOAD PREFETCHES:          0 PREFETCH ISSUED TO LOWER LEVEL:          0  ACCURACY: -nan
PSCL3 TIMELY PREFETCHES:          0 LATE PREFETCHES: 0 DROPPED PREFETCHES: 0
PSCL3 PREFETCHES SAME FILL-ORIGIN LEVEL: 0 DIFFERENT FILL-ORIGIN LEVEL: 0

PSCL2 TOTAL     ACCESS:      32337  HIT:      31815  MISS:        522  HIT %:    98.3858  MISS %:    1.61425   MPKI: 0.00261
PSCL2 LOAD TRANSLATION ACCESS:       9622  HIT:       9100  MISS:        522  HIT %:    94.5749  MISS %:    5.42507   MPKI: 0.00261
PSCL2 TRANSLATION FROM L1D PREFETCHER ACCESS:      22715  HIT:      22715  MISS:          0  HIT %:        100  MISS %:          0   MPKI: 0
PSCL2 PREFETCH  REQUESTED:          0  ISSUED:          0  USEFUL:          0  USELESS:          0
PSCL2 USEFUL LOAD PREFETCHES:          0 PREFETCH ISSUED TO LOWER LEVEL:          0  ACCURACY: -nan
PSCL2 TIMELY PREFETCHES:          0 LATE PREFETCHES: 0 DROPPED PREFETCHES: 0
PSCL2 PREFETCHES SAME FILL-ORIGIN LEVEL: 0 DIFFERENT FILL-ORIGIN LEVEL: 0

LLC TOTAL     ACCESS:    1625784  HIT:    1613133  MISS:      12651  HIT %:    99.2219  MISS %:   0.778148   MPKI: 0.063255
LLC LOAD      ACCESS:    1072863  HIT:    1068836  MISS:       4027  HIT %:    99.6246  MISS %:   0.375351   MPKI: 0.020135
LLC RFO       ACCESS:     182951  HIT:     177745  MISS:       5206  HIT %:    97.1544  MISS %:    2.84557   MPKI: 0.02603
LLC PREFETCH  ACCESS:      96348  HIT:      93438  MISS:       2910  HIT %:    96.9797  MISS %:     3.0203   MPKI: 0.01455
AGUS PREFETCH L1 MISS: 0
LLC WRITEBACK ACCESS:     255245  HIT:     255159  MISS:         86  HIT %:    99.9663  MISS %:  0.0336931   MPKI: 0.00043
LLC LOAD TRANSLATION ACCESS:       6179  HIT:       6122  MISS:         57  HIT %:    99.0775  MISS %:   0.922479   MPKI: 0.000285
LLC TRANSLATION FROM L1D PREFETCHER ACCESS:      12198  HIT:      11833  MISS:        365  HIT %:    97.0077  MISS %:    2.99229   MPKI: 0.001825
LLC PREFETCH  REQUESTED:          0  ISSUED:          0  USEFUL:       1691  USELESS:       2182
LLC USEFUL LOAD PREFETCHES:       1691 PREFETCH ISSUED TO LOWER LEVEL:       2910  ACCURACY: 58.11
LLC TIMELY PREFETCHES:       1691 LATE PREFETCHES: 0 DROPPED PREFETCHES: 0
LLC PREFETCHES SAME FILL-ORIGIN LEVEL: 0 DIFFERENT FILL-ORIGIN LEVEL: 0
LLC AVERAGE MISS LATENCY: 147.08 cycles
LLC RQ	ACCESS:    1274198	FORWARD:          0	MERGED:          0	TO_CACHE:    1274191
LLC WQ	ACCESS:     255245	FORWARD:          7	MERGED:          0	TO_CACHE:     255245
LLC PQ	ACCESS:      96348	FORWARD:          0	MERGED:          0	TO_CACHE:      96348

LLC Dense regions hint to LLC: 0

RAW hits: 1431249
Loads Generated: 48898667
Loads sent to L1D: 47467417
Stores Generated: 26994532
Stores sent to L1D: 26994536
Major fault: 0 Minor fault: 2014
Allocated PAGES: 2014
Completed 

DRAM Statistics
 CHANNEL 0
 RQ ROW_BUFFER_HIT:       2989  ROW_BUFFER_MISS:       9576
 DBUS_CONGESTED:         21
 WQ ROW_BUFFER_HIT:        530  ROW_BUFFER_MISS:       5275  FULL:          0

 AVG_CONGESTED_CYCLE: 4
 All warmup complete: 2
Channel 0 Bank busy for read cycles: 0
Channel 0 Bank busy for write cycles: 0
Channel 0
Rank 0
0banks busy for read cycles: 635593589
0banks busy for write cycles: 2817
1banks busy for read cycles: 792609
1banks busy for write cycles: 346535
2banks busy for read cycles: 149258
2banks busy for write cycles: 70333
3banks busy for read cycles: 66588
3banks busy for write cycles: 33238
4banks busy for read cycles: 33963
4banks busy for write cycles: 25760
5banks busy for read cycles: 16928
5banks busy for write cycles: 17678
6banks busy for read cycles: 7174
6banks busy for write cycles: 11518
7banks busy for read cycles: 2737
7banks busy for write cycles: 7243
8banks busy for read cycles: 1547
8banks busy for write cycles: 5659

CPU 0 Branch Prediction Accuracy: 99.8844% MPKI: 0.20331 Average ROB Occupancy at Mispredict: 32.6413
Branch types
NOT_BRANCH: 164819309 82.4097%
BRANCH_DIRECT_JUMP: 2022883 1.01144%
BRANCH_INDIRECT: 11928564 5.96428%
BRANCH_CONDITIONAL: 12605148 6.30257%
BRANCH_DIRECT_CALL: 3636526 1.81826%
BRANCH_INDIRECT_CALL: 675349 0.337674%
BRANCH_RETURN: 4311864 2.15593%
BRANCH_OTHER: 0 0%

DRAM PAGES: 1048576
Allocated PAGES: 2014
