
*** ChampSim Multicore Out-of-Order Simulator ***

Warmup Instructions: 50000000
Simulation Instructions: 200000000
Number of CPUs: 1
LLC sets: 2048
LLC ways: 16
Off-chip DRAM Size: 4096 MB Channels: 1 Width: 64-bit Data Rate: 6400 MT/s
CPU 0 runs traces/spec2k17/srv_22.champsimtrace.xz
.xz
BTB has LRU replacement policy
ITLB has LRU replacement policy
DTLB has LRU replacement policy
STLB has LRU replacement policy
L1I has LRU replacement policy
L1D has LRU replacement policy
Initialize SRRIP state for L2C
Initialize DRRIP state for LLC
Heartbeat CPU 0 instructions: 10000000 cycles: 2810549 heartbeat IPC: 3.55802 cumulative IPC: 3.55802 (Simulation time: 0 hr 0 min 44 sec) 
Heartbeat CPU 0 instructions: 20000000 cycles: 5620206 heartbeat IPC: 3.55915 cumulative IPC: 3.55859 (Simulation time: 0 hr 1 min 24 sec) 
Heartbeat CPU 0 instructions: 30000000 cycles: 8430652 heartbeat IPC: 3.55815 cumulative IPC: 3.55844 (Simulation time: 0 hr 2 min 3 sec) 
*** Reached end of trace for Core: 0 Repeating trace: traces/spec2k17/srv_22.champsimtrace.xz
Heartbeat CPU 0 instructions: 40000003 cycles: 11235343 heartbeat IPC: 3.56546 cumulative IPC: 3.56019 (Simulation time: 0 hr 2 min 42 sec) 
Heartbeat CPU 0 instructions: 50000003 cycles: 14043316 heartbeat IPC: 3.56129 cumulative IPC: 3.56041 (Simulation time: 0 hr 3 min 24 sec) 

Warmup complete CPU 0 instructions: 50000003 cycles: 14043316 (Simulation time: 0 hr 3 min 24 sec) 

Heartbeat CPU 0 instructions: 60000001 cycles: 44434637 heartbeat IPC: 0.329041 cumulative IPC: 0.329041 (Simulation time: 0 hr 4 min 23 sec) 
*** Reached end of trace for Core: 0 Repeating trace: traces/spec2k17/srv_22.champsimtrace.xz
Heartbeat CPU 0 instructions: 70000001 cycles: 74258031 heartbeat IPC: 0.335307 cumulative IPC: 0.332145 (Simulation time: 0 hr 5 min 25 sec) 
Heartbeat CPU 0 instructions: 80000001 cycles: 104530090 heartbeat IPC: 0.330338 cumulative IPC: 0.33154 (Simulation time: 0 hr 6 min 24 sec) 
Heartbeat CPU 0 instructions: 90000000 cycles: 134345242 heartbeat IPC: 0.3354 cumulative IPC: 0.332497 (Simulation time: 0 hr 7 min 26 sec) 
*** Reached end of trace for Core: 0 Repeating trace: traces/spec2k17/srv_22.champsimtrace.xz
Heartbeat CPU 0 instructions: 100000002 cycles: 164219011 heartbeat IPC: 0.334742 cumulative IPC: 0.332943 (Simulation time: 0 hr 8 min 36 sec) 
Heartbeat CPU 0 instructions: 110000000 cycles: 194323957 heartbeat IPC: 0.332171 cumulative IPC: 0.332814 (Simulation time: 0 hr 9 min 37 sec) 
Heartbeat CPU 0 instructions: 120000000 cycles: 224158327 heartbeat IPC: 0.335184 cumulative IPC: 0.333151 (Simulation time: 0 hr 10 min 41 sec) 
*** Reached end of trace for Core: 0 Repeating trace: traces/spec2k17/srv_22.champsimtrace.xz
Heartbeat CPU 0 instructions: 130000000 cycles: 254092339 heartbeat IPC: 0.334068 cumulative IPC: 0.333265 (Simulation time: 0 hr 11 min 44 sec) 
Heartbeat CPU 0 instructions: 140000002 cycles: 284086994 heartbeat IPC: 0.333393 cumulative IPC: 0.333279 (Simulation time: 0 hr 12 min 52 sec) 
Heartbeat CPU 0 instructions: 150000003 cycles: 314034854 heartbeat IPC: 0.333914 cumulative IPC: 0.333343 (Simulation time: 0 hr 14 min 3 sec) 
*** Reached end of trace for Core: 0 Repeating trace: traces/spec2k17/srv_22.champsimtrace.xz
Heartbeat CPU 0 instructions: 160000000 cycles: 344096286 heartbeat IPC: 0.332652 cumulative IPC: 0.33328 (Simulation time: 0 hr 15 min 17 sec) 
Heartbeat CPU 0 instructions: 170000001 cycles: 373681135 heartbeat IPC: 0.338011 cumulative IPC: 0.333669 (Simulation time: 0 hr 16 min 34 sec) 
Heartbeat CPU 0 instructions: 180000001 cycles: 403774272 heartbeat IPC: 0.332302 cumulative IPC: 0.333563 (Simulation time: 0 hr 17 min 54 sec) 
*** Reached end of trace for Core: 0 Repeating trace: traces/spec2k17/srv_22.champsimtrace.xz
Heartbeat CPU 0 instructions: 190000003 cycles: 433566814 heartbeat IPC: 0.335655 cumulative IPC: 0.333712 (Simulation time: 0 hr 19 min 18 sec) 
Heartbeat CPU 0 instructions: 200000001 cycles: 463197792 heartbeat IPC: 0.337485 cumulative IPC: 0.333961 (Simulation time: 0 hr 20 min 48 sec) 
Heartbeat CPU 0 instructions: 210000000 cycles: 493124201 heartbeat IPC: 0.334153 cumulative IPC: 0.333973 (Simulation time: 0 hr 22 min 25 sec) 
*** Reached end of trace for Core: 0 Repeating trace: traces/spec2k17/srv_22.champsimtrace.xz
Heartbeat CPU 0 instructions: 220000000 cycles: 522891196 heartbeat IPC: 0.335943 cumulative IPC: 0.334088 (Simulation time: 0 hr 24 min 0 sec) 
Heartbeat CPU 0 instructions: 230000001 cycles: 552260625 heartbeat IPC: 0.34049 cumulative IPC: 0.334437 (Simulation time: 0 hr 25 min 47 sec) 
Heartbeat CPU 0 instructions: 240000001 cycles: 582204747 heartbeat IPC: 0.333955 cumulative IPC: 0.334412 (Simulation time: 0 hr 27 min 17 sec) 
*** Reached end of trace for Core: 0 Repeating trace: traces/spec2k17/srv_22.champsimtrace.xz
Heartbeat CPU 0 instructions: 250000001 cycles: 611912233 heartbeat IPC: 0.336616 cumulative IPC: 0.334521 (Simulation time: 0 hr 29 min 5 sec) 
Finished CPU 0 instructions: 200000000 cycles: 597868929 cumulative IPC: 0.334521 (Simulation time: 0 hr 29 min 5 sec) 

ChampSim completed all CPUs

Region of Interest Statistics

CPU 0 cumulative IPC: 0.334521 instructions: 200000000 cycles: 597868929
ITLB TOTAL     ACCESS:   34464495  HIT:   32608606  MISS:    1855889  HIT %:    94.6151  MISS %:    5.38493   MPKI: 9.27945
ITLB LOAD TRANSLATION ACCESS:   34464495  HIT:   32608606  MISS:    1855889  HIT %:    94.6151  MISS %:    5.38493   MPKI: 9.27945
ITLB PREFETCH  REQUESTED:          0  ISSUED:          0  USEFUL:          0  USELESS:          0
ITLB USEFUL LOAD PREFETCHES:          0 PREFETCH ISSUED TO LOWER LEVEL:          0  ACCURACY: -nan
ITLB TIMELY PREFETCHES:          0 LATE PREFETCHES: 0 DROPPED PREFETCHES: 0
ITLB PREFETCHES SAME FILL-ORIGIN LEVEL: 0 DIFFERENT FILL-ORIGIN LEVEL: 0
ITLB AVERAGE MISS LATENCY: 9.05395 cycles
ITLB RQ	ACCESS:   40290591	FORWARD:          0	MERGED:    5377957	TO_CACHE:   34912634

DTLB TOTAL     ACCESS:   45342197  HIT:   43547527  MISS:    1794670  HIT %:    96.0419  MISS %:    3.95806   MPKI: 8.97335
DTLB LOAD TRANSLATION ACCESS:   45342197  HIT:   43547527  MISS:    1794670  HIT %:    96.0419  MISS %:    3.95806   MPKI: 8.97335
DTLB PREFETCH  REQUESTED:          0  ISSUED:          0  USEFUL:          0  USELESS:          0
DTLB USEFUL LOAD PREFETCHES:          0 PREFETCH ISSUED TO LOWER LEVEL:          0  ACCURACY: -nan
DTLB TIMELY PREFETCHES:          0 LATE PREFETCHES: 0 DROPPED PREFETCHES: 0
DTLB PREFETCHES SAME FILL-ORIGIN LEVEL: 0 DIFFERENT FILL-ORIGIN LEVEL: 0
DTLB AVERAGE MISS LATENCY: 9.0148 cycles
DTLB RQ	ACCESS:   59843693	FORWARD:          0	MERGED:   14438112	TO_CACHE:   45405581

STLB TOTAL     ACCESS:    8418511  HIT:    8408367  MISS:      10144  HIT %:    99.8795  MISS %:   0.120496   MPKI: 0.05072
STLB LOAD TRANSLATION ACCESS:    3650558  HIT:    3640803  MISS:       9755  HIT %:    99.7328  MISS %:   0.267219   MPKI: 0.048775
STLB TRANSLATION FROM L1D PREFETCHER ACCESS:    4767953  HIT:    4767564  MISS:        389  HIT %:    99.9918  MISS %: 0.00815864   MPKI: 0.001945
STLB PREFETCH  REQUESTED:          0  ISSUED:          0  USEFUL:        355  USELESS:         32
STLB USEFUL LOAD PREFETCHES:        355 PREFETCH ISSUED TO LOWER LEVEL:          0  ACCURACY: inf
STLB TIMELY PREFETCHES:        355 LATE PREFETCHES: 72 DROPPED PREFETCHES: 45870
STLB PREFETCHES SAME FILL-ORIGIN LEVEL: 0 DIFFERENT FILL-ORIGIN LEVEL: 0
STLB AVERAGE MISS LATENCY: 45.3778 cycles
STLB RQ	ACCESS:   10222418	FORWARD:          0	MERGED:    1757915	TO_CACHE:    8464503

STLB Hit, L1D data hit: 0
STLB Hit, L2C data hit: 0
STLB Hit, LLC data hit: 0
STLB Hit, LLC data miss: 0
STLB STLB hints to L2: 0
L1D TOTAL     ACCESS:   64247954  HIT:   60258760  MISS:    3989194  HIT %:    93.7909  MISS %:    6.20906   MPKI: 19.946
L1D LOAD      ACCESS:   33593412  HIT:   31205347  MISS:    2388065  HIT %:    92.8913  MISS %:    7.10873   MPKI: 11.9403
L1D RFO       ACCESS:   24529386  HIT:   23477515  MISS:    1051871  HIT %:    95.7118  MISS %:    4.28821   MPKI: 5.25936
L1D PREFETCH  ACCESS:    6125156  HIT:    5575898  MISS:     549258  HIT %:    91.0328  MISS %:    8.96725   MPKI: 2.74629
AGUS PREFETCH L1 MISS: 0
L1D PREFETCH  REQUESTED:   13872640  ISSUED:   13872467  USEFUL:     444826  USELESS:     104407
L1D USEFUL LOAD PREFETCHES:     444826 PREFETCH ISSUED TO LOWER LEVEL:     806675  ACCURACY: 55.1431
L1D TIMELY PREFETCHES:     444826 LATE PREFETCHES: 256147 DROPPED PREFETCHES: 52457
L1D PREFETCHES SAME FILL-ORIGIN LEVEL: 806675 DIFFERENT FILL-ORIGIN LEVEL: 0
L1D AVERAGE MISS LATENCY: 2.39508e+07 cycles
L1D RQ	ACCESS:   46897430	FORWARD:          0	MERGED:   12892992	TO_CACHE:   33707319
L1D WQ	ACCESS:   26309150	FORWARD:     307296	MERGED:     172776	TO_CACHE:   26136374
L1D PQ	ACCESS:    7300607	FORWARD:          0	MERGED:     718570	TO_CACHE:    6571860

L1D UNIQUE REGIONS ACCESSED: 0
L1D REGIONS CONFLICTS: 0
L1D Cross Page Prefetch Requests: 4965724
L1D Same Page Prefetch Requests: 2632739
L1D ROI Sum of L1D PQ occupancy: 96619088
L1D PREFETCHES PUSHED FROM L2C: 0
L1I TOTAL     ACCESS:   38869791  HIT:   29159533  MISS:    9710258  HIT %:    75.0185  MISS %:    24.9815   MPKI: 48.5513
L1I LOAD      ACCESS:   38869791  HIT:   29159533  MISS:    9710258  HIT %:    75.0185  MISS %:    24.9815   MPKI: 48.5513
L1I PREFETCH  REQUESTED:          0  ISSUED:          0  USEFUL:          0  USELESS:          0
L1I USEFUL LOAD PREFETCHES:          0 PREFETCH ISSUED TO LOWER LEVEL:          0  ACCURACY: -nan
L1I TIMELY PREFETCHES:          0 LATE PREFETCHES: 0 DROPPED PREFETCHES: 0
L1I PREFETCHES SAME FILL-ORIGIN LEVEL: 0 DIFFERENT FILL-ORIGIN LEVEL: 0
L1I AVERAGE MISS LATENCY: 16.79 cycles
L1I RQ	ACCESS:   57822413	FORWARD:          0	MERGED:   17531822	TO_CACHE:   40290591

BTB TOTAL     ACCESS:   30330112  HIT:   18855293  MISS:   11474819  HIT %:    62.1669  MISS %:    37.8331   MPKI: 57.3741
BTB BRANCH_DIRECT_JUMP	ACCESS:    2183492  HIT:    1381264  MISS:     802228
BTB BRANCH_INDIRECT	ACCESS:   11409987  HIT:    7107186  MISS:    4302801
BTB BRANCH_CONDITIONAL	ACCESS:    8659441  HIT:    7498829  MISS:    1160612
BTB BRANCH_DIRECT_CALL	ACCESS:    3412328  HIT:    1528915  MISS:    1883413
BTB BRANCH_INDIRECT_CALL	ACCESS:     626274  HIT:     246325  MISS:     379949
BTB BRANCH_RETURN	ACCESS:    4038590  HIT:    1092774  MISS:    2945816
BTB BRANCH_OTHER ACCESS:          0  HIT:          0  MISS:          0

L2C TOTAL     ACCESS:   15597363  HIT:   13989872  MISS:    1607491  HIT %:    89.6938  MISS %:    10.3062   MPKI: 8.03745
L2C LOAD      ACCESS:   11842154  HIT:   10659235  MISS:    1182919  HIT %:    90.0109  MISS %:    9.98905   MPKI: 5.9146
L2C DATA LOAD MPKI: 1.53582
L2C INSTRUCTION LOAD MPKI: 4.37878
L2C RFO       ACCESS:    1050595  HIT:     844970  MISS:     205625  HIT %:    80.4278  MISS %:    19.5722   MPKI: 1.02812
L2C PREFETCH  ACCESS:     806466  HIT:     663491  MISS:     142975  HIT %:    82.2714  MISS %:    17.7286   MPKI: 0.714875
AGUS PREFETCH L1 MISS: 0
L2C DATA PREFETCH MPKI: 0.714875
L2C INSTRUCTION PREFETCH MPKI: 0
L2C WRITEBACK ACCESS:    1821308  HIT:    1763016  MISS:      58292  HIT %:    96.7994  MISS %:    3.20056   MPKI: 0.29146
L2C LOAD TRANSLATION ACCESS:      10577  HIT:       2824  MISS:       7753  HIT %:    26.6994  MISS %:    73.3006   MPKI: 0.038765
L2C TRANSLATION FROM L1D PREFETCHER ACCESS:      66263  HIT:      56336  MISS:       9927  HIT %:    85.0188  MISS %:    14.9812   MPKI: 0.049635
L2C PREFETCH  REQUESTED:          0  ISSUED:          0  USEFUL:      18627  USELESS:     134142
L2C USEFUL LOAD PREFETCHES:      18627 PREFETCH ISSUED TO LOWER LEVEL:     142975  ACCURACY: 13.0282
L2C TIMELY PREFETCHES:      18627 LATE PREFETCHES: 0 DROPPED PREFETCHES: 0
L2C PREFETCHES SAME FILL-ORIGIN LEVEL: 0 DIFFERENT FILL-ORIGIN LEVEL: 0
L2C AVERAGE MISS LATENCY: 30.8639 cycles
L2C RQ	ACCESS:   12969617	FORWARD:          0	MERGED:          0	TO_CACHE:   12969589
L2C WQ	ACCESS:    1821308	FORWARD:        237	MERGED:          0	TO_CACHE:    1821308
L2C PQ	ACCESS:     806675	FORWARD:          0	MERGED:          0	TO_CACHE:     806466

L2C Instructions Evicting Data 336720
L2C Translations Evicting Data 9522
L2C Data Evicting Data 339906
L2C Instructions Evicting Instructions 531371
L2C Translations Evicting Instructions 7697
L2C Data Evicting Instructions 306726
L2C Instructions Evicting Translations 7664
L2C Translations Evicting Translations 461
L2C Data Evicting Translations 9132
L2C Dense regions hint from L2: 0
PSCL5 TOTAL     ACCESS:      55382  HIT:      55382  MISS:          0  HIT %:        100  MISS %:          0   MPKI: 0
PSCL5 LOAD TRANSLATION ACCESS:       9683  HIT:       9683  MISS:          0  HIT %:        100  MISS %:          0   MPKI: 0
PSCL5 TRANSLATION FROM L1D PREFETCHER ACCESS:      45699  HIT:      45699  MISS:          0  HIT %:        100  MISS %:          0   MPKI: 0
PSCL5 PREFETCH  REQUESTED:          0  ISSUED:          0  USEFUL:          0  USELESS:          0
PSCL5 USEFUL LOAD PREFETCHES:          0 PREFETCH ISSUED TO LOWER LEVEL:          0  ACCURACY: -nan
PSCL5 TIMELY PREFETCHES:          0 LATE PREFETCHES: 0 DROPPED PREFETCHES: 0
PSCL5 PREFETCHES SAME FILL-ORIGIN LEVEL: 0 DIFFERENT FILL-ORIGIN LEVEL: 0

PSCL4 TOTAL     ACCESS:      51157  HIT:      51127  MISS:         30  HIT %:    99.9414  MISS %:   0.058643   MPKI: 0.00015
PSCL4 LOAD TRANSLATION ACCESS:       9632  HIT:       9602  MISS:         30  HIT %:    99.6885  MISS %:   0.311462   MPKI: 0.00015
PSCL4 TRANSLATION FROM L1D PREFETCHER ACCESS:      41525  HIT:      41525  MISS:          0  HIT %:        100  MISS %:          0   MPKI: 0
PSCL4 PREFETCH  REQUESTED:          0  ISSUED:          0  USEFUL:          0  USELESS:          0
PSCL4 USEFUL LOAD PREFETCHES:          0 PREFETCH ISSUED TO LOWER LEVEL:          0  ACCURACY: -nan
PSCL4 TIMELY PREFETCHES:          0 LATE PREFETCHES: 0 DROPPED PREFETCHES: 0
PSCL4 PREFETCHES SAME FILL-ORIGIN LEVEL: 0 DIFFERENT FILL-ORIGIN LEVEL: 0

PSCL3 TOTAL     ACCESS:      51118  HIT:      51088  MISS:         30  HIT %:    99.9413  MISS %:  0.0586877   MPKI: 0.00015
PSCL3 LOAD TRANSLATION ACCESS:       9668  HIT:       9638  MISS:         30  HIT %:    99.6897  MISS %:   0.310302   MPKI: 0.00015
PSCL3 TRANSLATION FROM L1D PREFETCHER ACCESS:      41450  HIT:      41450  MISS:          0  HIT %:        100  MISS %:          0   MPKI: 0
PSCL3 PREFETCH  REQUESTED:          0  ISSUED:          0  USEFUL:          0  USELESS:          0
PSCL3 USEFUL LOAD PREFETCHES:          0 PREFETCH ISSUED TO LOWER LEVEL:          0  ACCURACY: -nan
PSCL3 TIMELY PREFETCHES:          0 LATE PREFETCHES: 0 DROPPED PREFETCHES: 0
PSCL3 PREFETCHES SAME FILL-ORIGIN LEVEL: 0 DIFFERENT FILL-ORIGIN LEVEL: 0

PSCL2 TOTAL     ACCESS:      21798  HIT:      20918  MISS:        880  HIT %:    95.9629  MISS %:    4.03707   MPKI: 0.0044
PSCL2 LOAD TRANSLATION ACCESS:       9723  HIT:       8843  MISS:        880  HIT %:    90.9493  MISS %:     9.0507   MPKI: 0.0044
PSCL2 TRANSLATION FROM L1D PREFETCHER ACCESS:      12075  HIT:      12075  MISS:          0  HIT %:        100  MISS %:          0   MPKI: 0
PSCL2 PREFETCH  REQUESTED:          0  ISSUED:          0  USEFUL:          0  USELESS:          0
PSCL2 USEFUL LOAD PREFETCHES:          0 PREFETCH ISSUED TO LOWER LEVEL:          0  ACCURACY: -nan
PSCL2 TIMELY PREFETCHES:          0 LATE PREFETCHES: 0 DROPPED PREFETCHES: 0
PSCL2 PREFETCHES SAME FILL-ORIGIN LEVEL: 0 DIFFERENT FILL-ORIGIN LEVEL: 0

LLC TOTAL     ACCESS:    1838370  HIT:    1816617  MISS:      21753  HIT %:    98.8167  MISS %:    1.18328   MPKI: 0.108765
LLC LOAD      ACCESS:    1182919  HIT:    1175019  MISS:       7900  HIT %:    99.3322  MISS %:   0.667839   MPKI: 0.0395
LLC RFO       ACCESS:     205622  HIT:     197535  MISS:       8087  HIT %:    96.0671  MISS %:    3.93294   MPKI: 0.040435
LLC PREFETCH  ACCESS:     142975  HIT:     137816  MISS:       5159  HIT %:    96.3917  MISS %:    3.60832   MPKI: 0.025795
AGUS PREFETCH L1 MISS: 0
LLC WRITEBACK ACCESS:     289174  HIT:     289083  MISS:         91  HIT %:    99.9685  MISS %:  0.0314689   MPKI: 0.000455
LLC LOAD TRANSLATION ACCESS:       7753  HIT:       7664  MISS:         89  HIT %:    98.8521  MISS %:    1.14794   MPKI: 0.000445
LLC TRANSLATION FROM L1D PREFETCHER ACCESS:       9927  HIT:       9500  MISS:        427  HIT %:    95.6986  MISS %:     4.3014   MPKI: 0.002135
LLC PREFETCH  REQUESTED:          0  ISSUED:          0  USEFUL:       1785  USELESS:       4286
LLC USEFUL LOAD PREFETCHES:       1785 PREFETCH ISSUED TO LOWER LEVEL:       5159  ACCURACY: 34.5997
LLC TIMELY PREFETCHES:       1785 LATE PREFETCHES: 0 DROPPED PREFETCHES: 0
LLC PREFETCHES SAME FILL-ORIGIN LEVEL: 0 DIFFERENT FILL-ORIGIN LEVEL: 0
LLC AVERAGE MISS LATENCY: 144.214 cycles
LLC RQ	ACCESS:    1406224	FORWARD:          0	MERGED:          0	TO_CACHE:    1406221
LLC WQ	ACCESS:     289174	FORWARD:          3	MERGED:          0	TO_CACHE:     289174
LLC PQ	ACCESS:     142975	FORWARD:          0	MERGED:          0	TO_CACHE:     142975

LLC Dense regions hint to LLC: 0

RAW hits: 1391368
Loads Generated: 48288798
Loads sent to L1D: 46897430
Stores Generated: 26309147
Stores sent to L1D: 26309150
Major fault: 0 Minor fault: 1865
Allocated PAGES: 1865
Completed 

DRAM Statistics
 CHANNEL 0
 RQ ROW_BUFFER_HIT:       6041  ROW_BUFFER_MISS:      15621
 DBUS_CONGESTED:         28
 WQ ROW_BUFFER_HIT:        794  ROW_BUFFER_MISS:       8697  FULL:          0

 AVG_CONGESTED_CYCLE: 4
 All warmup complete: 2
Channel 0 Bank busy for read cycles: 0
Channel 0 Bank busy for write cycles: 0
Channel 0
Rank 0
0banks busy for read cycles: 595420483
0banks busy for write cycles: 4476
1banks busy for read cycles: 1131214
1banks busy for write cycles: 554100
2banks busy for read cycles: 230083
2banks busy for write cycles: 109042
3banks busy for read cycles: 99217
3banks busy for write cycles: 63238
4banks busy for read cycles: 58862
4banks busy for write cycles: 42738
5banks busy for read cycles: 35070
5banks busy for write cycles: 31222
6banks busy for read cycles: 24094
6banks busy for write cycles: 19184
7banks busy for read cycles: 17718
7banks busy for write cycles: 12320
8banks busy for read cycles: 9620
8banks busy for write cycles: 6249

CPU 0 Branch Prediction Accuracy: 99.8462% MPKI: 0.271815 Average ROB Occupancy at Mispredict: 55.5039
Branch types
NOT_BRANCH: 164663063 82.3315%
BRANCH_DIRECT_JUMP: 2183492 1.09175%
BRANCH_INDIRECT: 11409987 5.70499%
BRANCH_CONDITIONAL: 13666237 6.83312%
BRANCH_DIRECT_CALL: 3412328 1.70616%
BRANCH_INDIRECT_CALL: 626274 0.313137%
BRANCH_RETURN: 4038590 2.0193%
BRANCH_OTHER: 0 0%

DRAM PAGES: 1048576
Allocated PAGES: 1865
