
*** ChampSim Multicore Out-of-Order Simulator ***

Warmup Instructions: 50000000
Simulation Instructions: 200000000
Number of CPUs: 1
LLC sets: 2048
LLC ways: 16
Off-chip DRAM Size: 4096 MB Channels: 1 Width: 64-bit Data Rate: 6400 MT/s
CPU 0 runs traces/spec2k17/srv_58.champsimtrace.xz
.xz
BTB has LRU replacement policy
ITLB has LRU replacement policy
DTLB has LRU replacement policy
STLB has LRU replacement policy
L1I has LRU replacement policy
L1D has LRU replacement policy
Initialize SRRIP state for L2C
Initialize DRRIP state for LLC
Heartbeat CPU 0 instructions: 10000001 cycles: 2794777 heartbeat IPC: 3.5781 cumulative IPC: 3.5781 (Simulation time: 0 hr 0 min 33 sec) 
Heartbeat CPU 0 instructions: 20000002 cycles: 5587990 heartbeat IPC: 3.58011 cumulative IPC: 3.5791 (Simulation time: 0 hr 1 min 3 sec) 
Heartbeat CPU 0 instructions: 30000003 cycles: 8609750 heartbeat IPC: 3.30933 cumulative IPC: 3.48442 (Simulation time: 0 hr 1 min 40 sec) 
*** Reached end of trace for Core: 0 Repeating trace: traces/spec2k17/srv_58.champsimtrace.xz
Heartbeat CPU 0 instructions: 40000003 cycles: 11427977 heartbeat IPC: 3.54833 cumulative IPC: 3.50018 (Simulation time: 0 hr 2 min 11 sec) 
Heartbeat CPU 0 instructions: 50000000 cycles: 14217780 heartbeat IPC: 3.58448 cumulative IPC: 3.51672 (Simulation time: 0 hr 2 min 41 sec) 

Warmup complete CPU 0 instructions: 50000004 cycles: 14217781 (Simulation time: 0 hr 2 min 41 sec) 

Heartbeat CPU 0 instructions: 60000000 cycles: 25394419 heartbeat IPC: 0.894723 cumulative IPC: 0.894723 (Simulation time: 0 hr 3 min 25 sec) 
*** Reached end of trace for Core: 0 Repeating trace: traces/spec2k17/srv_58.champsimtrace.xz
Heartbeat CPU 0 instructions: 70000000 cycles: 42550864 heartbeat IPC: 0.582871 cumulative IPC: 0.705888 (Simulation time: 0 hr 4 min 14 sec) 
Heartbeat CPU 0 instructions: 80000003 cycles: 61077163 heartbeat IPC: 0.539773 cumulative IPC: 0.640213 (Simulation time: 0 hr 5 min 7 sec) 
Heartbeat CPU 0 instructions: 90000001 cycles: 73315548 heartbeat IPC: 0.817101 cumulative IPC: 0.676844 (Simulation time: 0 hr 6 min 21 sec) 
*** Reached end of trace for Core: 0 Repeating trace: traces/spec2k17/srv_58.champsimtrace.xz
Heartbeat CPU 0 instructions: 100000002 cycles: 89298277 heartbeat IPC: 0.625675 cumulative IPC: 0.665952 (Simulation time: 0 hr 8 min 0 sec) 
Heartbeat CPU 0 instructions: 110000000 cycles: 108105519 heartbeat IPC: 0.53171 cumulative IPC: 0.639061 (Simulation time: 0 hr 8 min 54 sec) 
Heartbeat CPU 0 instructions: 120000001 cycles: 121107146 heartbeat IPC: 0.769135 cumulative IPC: 0.654883 (Simulation time: 0 hr 10 min 0 sec) 
*** Reached end of trace for Core: 0 Repeating trace: traces/spec2k17/srv_58.champsimtrace.xz
Heartbeat CPU 0 instructions: 130000000 cycles: 136210448 heartbeat IPC: 0.662107 cumulative IPC: 0.655777 (Simulation time: 0 hr 11 min 6 sec) 
Heartbeat CPU 0 instructions: 140000000 cycles: 154892518 heartbeat IPC: 0.535273 cumulative IPC: 0.639774 (Simulation time: 0 hr 11 min 57 sec) 
Heartbeat CPU 0 instructions: 150000003 cycles: 168874408 heartbeat IPC: 0.715211 cumulative IPC: 0.646594 (Simulation time: 0 hr 12 min 50 sec) 
*** Reached end of trace for Core: 0 Repeating trace: traces/spec2k17/srv_58.champsimtrace.xz
Heartbeat CPU 0 instructions: 160000000 cycles: 183066529 heartbeat IPC: 0.704616 cumulative IPC: 0.651471 (Simulation time: 0 hr 13 min 32 sec) 
Heartbeat CPU 0 instructions: 170000000 cycles: 201815345 heartbeat IPC: 0.533367 cumulative IPC: 0.639667 (Simulation time: 0 hr 14 min 8 sec) 
Heartbeat CPU 0 instructions: 180000000 cycles: 216598883 heartbeat IPC: 0.676428 cumulative IPC: 0.642352 (Simulation time: 0 hr 15 min 4 sec) 
*** Reached end of trace for Core: 0 Repeating trace: traces/spec2k17/srv_58.champsimtrace.xz
Heartbeat CPU 0 instructions: 190000000 cycles: 229854904 heartbeat IPC: 0.754374 cumulative IPC: 0.649239 (Simulation time: 0 hr 15 min 47 sec) 
Heartbeat CPU 0 instructions: 200000000 cycles: 248639477 heartbeat IPC: 0.532352 cumulative IPC: 0.639872 (Simulation time: 0 hr 16 min 31 sec) 
Heartbeat CPU 0 instructions: 210000002 cycles: 264399440 heartbeat IPC: 0.634519 cumulative IPC: 0.639535 (Simulation time: 0 hr 17 min 17 sec) 
*** Reached end of trace for Core: 0 Repeating trace: traces/spec2k17/srv_58.champsimtrace.xz
Heartbeat CPU 0 instructions: 220000000 cycles: 276868335 heartbeat IPC: 0.801996 cumulative IPC: 0.647248 (Simulation time: 0 hr 18 min 2 sec) 
Heartbeat CPU 0 instructions: 230000001 cycles: 295423276 heartbeat IPC: 0.53894 cumulative IPC: 0.640101 (Simulation time: 0 hr 18 min 44 sec) 
Heartbeat CPU 0 instructions: 240000003 cycles: 312181981 heartbeat IPC: 0.596705 cumulative IPC: 0.637661 (Simulation time: 0 hr 19 min 26 sec) 
*** Reached end of trace for Core: 0 Repeating trace: traces/spec2k17/srv_58.champsimtrace.xz
Heartbeat CPU 0 instructions: 250000000 cycles: 323566702 heartbeat IPC: 0.87837 cumulative IPC: 0.646519 (Simulation time: 0 hr 20 min 6 sec) 
Finished CPU 0 instructions: 200000000 cycles: 309348922 cumulative IPC: 0.646519 (Simulation time: 0 hr 20 min 6 sec) 

ChampSim completed all CPUs

Region of Interest Statistics

CPU 0 cumulative IPC: 0.646519 instructions: 200000000 cycles: 309348922
ITLB TOTAL     ACCESS:   36473019  HIT:   35952967  MISS:     520052  HIT %:    98.5741  MISS %:    1.42585   MPKI: 2.60026
ITLB LOAD TRANSLATION ACCESS:   36473019  HIT:   35952967  MISS:     520052  HIT %:    98.5741  MISS %:    1.42585   MPKI: 2.60026
ITLB PREFETCH  REQUESTED:          0  ISSUED:          0  USEFUL:          0  USELESS:          0
ITLB USEFUL LOAD PREFETCHES:          0 PREFETCH ISSUED TO LOWER LEVEL:          0  ACCURACY: -nan
ITLB TIMELY PREFETCHES:          0 LATE PREFETCHES: 0 DROPPED PREFETCHES: 0
ITLB PREFETCHES SAME FILL-ORIGIN LEVEL: 0 DIFFERENT FILL-ORIGIN LEVEL: 0
ITLB AVERAGE MISS LATENCY: 9.04033 cycles
ITLB RQ	ACCESS:   40847832	FORWARD:          0	MERGED:    4205499	TO_CACHE:   36642333

DTLB TOTAL     ACCESS:   43233924  HIT:   42582531  MISS:     651393  HIT %:    98.4933  MISS %:    1.50667   MPKI: 3.25697
DTLB LOAD TRANSLATION ACCESS:   43233924  HIT:   42582531  MISS:     651393  HIT %:    98.4933  MISS %:    1.50667   MPKI: 3.25697
DTLB PREFETCH  REQUESTED:          0  ISSUED:          0  USEFUL:          0  USELESS:          0
DTLB USEFUL LOAD PREFETCHES:          0 PREFETCH ISSUED TO LOWER LEVEL:          0  ACCURACY: -nan
DTLB TIMELY PREFETCHES:          0 LATE PREFETCHES: 0 DROPPED PREFETCHES: 0
DTLB PREFETCHES SAME FILL-ORIGIN LEVEL: 0 DIFFERENT FILL-ORIGIN LEVEL: 0
DTLB AVERAGE MISS LATENCY: 8.66826 cycles
DTLB RQ	ACCESS:   59539172	FORWARD:          0	MERGED:   16277001	TO_CACHE:   43262171

STLB TOTAL     ACCESS:   12312575  HIT:   12312044  MISS:        531  HIT %:    99.9957  MISS %: 0.00431266   MPKI: 0.002655
STLB LOAD TRANSLATION ACCESS:    1171445  HIT:    1170914  MISS:        531  HIT %:    99.9547  MISS %:  0.0453286   MPKI: 0.002655
STLB TRANSLATION FROM L1D PREFETCHER ACCESS:   11141130  HIT:   11141130  MISS:          0  HIT %:        100  MISS %:          0   MPKI: 0
STLB PREFETCH  REQUESTED:          0  ISSUED:          0  USEFUL:          0  USELESS:          0
STLB USEFUL LOAD PREFETCHES:          0 PREFETCH ISSUED TO LOWER LEVEL:          0  ACCURACY: -nan
STLB TIMELY PREFETCHES:          0 LATE PREFETCHES: 1 DROPPED PREFETCHES: 24093
STLB PREFETCHES SAME FILL-ORIGIN LEVEL: 0 DIFFERENT FILL-ORIGIN LEVEL: 0
STLB AVERAGE MISS LATENCY: 53.9115 cycles
STLB RQ	ACCESS:   16501503	FORWARD:          0	MERGED:    4164831	TO_CACHE:   12336672

STLB Hit, L1D data hit: 0
STLB Hit, L2C data hit: 0
STLB Hit, LLC data hit: 0
STLB Hit, LLC data miss: 0
STLB STLB hints to L2: 0
L1D TOTAL     ACCESS:   74470975  HIT:   73559187  MISS:     911788  HIT %:    98.7756  MISS %:    1.22435   MPKI: 4.55894
L1D LOAD      ACCESS:   38526836  HIT:   37899167  MISS:     627669  HIT %:    98.3708  MISS %:    1.62917   MPKI: 3.13835
L1D RFO       ACCESS:   20658352  HIT:   20395850  MISS:     262502  HIT %:    98.7293  MISS %:    1.27068   MPKI: 1.31251
L1D PREFETCH  ACCESS:   15285787  HIT:   15264170  MISS:      21617  HIT %:    99.8586  MISS %:   0.141419   MPKI: 0.108085
AGUS PREFETCH L1 MISS: 0
L1D PREFETCH  REQUESTED:   31704478  ISSUED:   31703834  USEFUL:       8083  USELESS:      13519
L1D USEFUL LOAD PREFETCHES:       8083 PREFETCH ISSUED TO LOWER LEVEL:      31819  ACCURACY: 25.4031
L1D TIMELY PREFETCHES:       8083 LATE PREFETCHES: 10201 DROPPED PREFETCHES: 27150
L1D PREFETCHES SAME FILL-ORIGIN LEVEL: 31819 DIFFERENT FILL-ORIGIN LEVEL: 0
L1D AVERAGE MISS LATENCY: 2.52303e+06 cycles
L1D RQ	ACCESS:   53964736	FORWARD:          0	MERGED:   15201140	TO_CACHE:   38553455
L1D WQ	ACCESS:   21214489	FORWARD:     246214	MERGED:     228772	TO_CACHE:   20985717
L1D PQ	ACCESS:   16373776	FORWARD:          0	MERGED:    1007645	TO_CACHE:   15330058

L1D UNIQUE REGIONS ACCESSED: 0
L1D REGIONS CONFLICTS: 0
L1D Cross Page Prefetch Requests: 13331583
L1D Same Page Prefetch Requests: 3223869
L1D ROI Sum of L1D PQ occupancy: 225169561
L1D PREFETCHES PUSHED FROM L2C: 0
L1I TOTAL     ACCESS:   40499251  HIT:   38563151  MISS:    1936100  HIT %:    95.2194  MISS %:    4.78058   MPKI: 9.6805
L1I LOAD      ACCESS:   40499251  HIT:   38563151  MISS:    1936100  HIT %:    95.2194  MISS %:    4.78058   MPKI: 9.6805
L1I PREFETCH  REQUESTED:          0  ISSUED:          0  USEFUL:          0  USELESS:          0
L1I USEFUL LOAD PREFETCHES:          0 PREFETCH ISSUED TO LOWER LEVEL:          0  ACCURACY: -nan
L1I TIMELY PREFETCHES:          0 LATE PREFETCHES: 0 DROPPED PREFETCHES: 0
L1I PREFETCHES SAME FILL-ORIGIN LEVEL: 0 DIFFERENT FILL-ORIGIN LEVEL: 0
L1I AVERAGE MISS LATENCY: 18.0694 cycles
L1I RQ	ACCESS:   63949300	FORWARD:          0	MERGED:   23101468	TO_CACHE:   40847832

BTB TOTAL     ACCESS:   35033009  HIT:   31765673  MISS:    3267336  HIT %:    90.6736  MISS %:    9.32645   MPKI: 16.3367
BTB BRANCH_DIRECT_JUMP	ACCESS:    3530101  HIT:    3387873  MISS:     142228
BTB BRANCH_INDIRECT	ACCESS:   14433198  HIT:   13493749  MISS:     939449
BTB BRANCH_CONDITIONAL	ACCESS:    7608282  HIT:    7427963  MISS:     180319
BTB BRANCH_DIRECT_CALL	ACCESS:    2343708  HIT:    2092536  MISS:     251172
BTB BRANCH_INDIRECT_CALL	ACCESS:    2387048  HIT:    2184647  MISS:     202401
BTB BRANCH_RETURN	ACCESS:    4730672  HIT:    3178905  MISS:    1551767
BTB BRANCH_OTHER ACCESS:          0  HIT:          0  MISS:          0

L2C TOTAL     ACCESS:    3318265  HIT:    2875478  MISS:     442787  HIT %:    86.6561  MISS %:    13.3439   MPKI: 2.21394
L2C LOAD      ACCESS:    2553553  HIT:    2182804  MISS:     370749  HIT %:    85.4811  MISS %:    14.5189   MPKI: 1.85374
L2C DATA LOAD MPKI: 0.55983
L2C INSTRUCTION LOAD MPKI: 1.29391
L2C RFO       ACCESS:     262501  HIT:     207055  MISS:      55446  HIT %:    78.8778  MISS %:    21.1222   MPKI: 0.27723
L2C PREFETCH  ACCESS:      31805  HIT:      26160  MISS:       5645  HIT %:    82.2512  MISS %:    17.7488   MPKI: 0.028225
AGUS PREFETCH L1 MISS: 0
L2C DATA PREFETCH MPKI: 0.028225
L2C INSTRUCTION PREFETCH MPKI: 0
L2C WRITEBACK ACCESS:     421791  HIT:     412348  MISS:       9443  HIT %:    97.7612  MISS %:    2.23879   MPKI: 0.047215
L2C LOAD TRANSLATION ACCESS:        664  HIT:        159  MISS:        505  HIT %:    23.9458  MISS %:    76.0542   MPKI: 0.002525
L2C TRANSLATION FROM L1D PREFETCHER ACCESS:      47951  HIT:      46952  MISS:        999  HIT %:    97.9166  MISS %:    2.08338   MPKI: 0.004995
L2C PREFETCH  REQUESTED:          0  ISSUED:          0  USEFUL:       2018  USELESS:       4594
L2C USEFUL LOAD PREFETCHES:       2018 PREFETCH ISSUED TO LOWER LEVEL:       5645  ACCURACY: 35.7484
L2C TIMELY PREFETCHES:       2018 LATE PREFETCHES: 0 DROPPED PREFETCHES: 0
L2C PREFETCHES SAME FILL-ORIGIN LEVEL: 0 DIFFERENT FILL-ORIGIN LEVEL: 0
L2C AVERAGE MISS LATENCY: 29.5441 cycles
L2C RQ	ACCESS:    2864684	FORWARD:          0	MERGED:          0	TO_CACHE:    2864669
L2C WQ	ACCESS:     421791	FORWARD:         29	MERGED:          0	TO_CACHE:     421791
L2C PQ	ACCESS:      31819	FORWARD:          0	MERGED:          0	TO_CACHE:      31805

L2C Instructions Evicting Data 89886
L2C Translations Evicting Data 792
L2C Data Evicting Data 87375
L2C Instructions Evicting Instructions 168172
L2C Translations Evicting Instructions 703
L2C Data Evicting Instructions 84928
L2C Instructions Evicting Translations 725
L2C Translations Evicting Translations 5
L2C Data Evicting Translations 748
L2C Dense regions hint from L2: 0
PSCL5 TOTAL     ACCESS:      24618  HIT:      24618  MISS:          0  HIT %:        100  MISS %:          0   MPKI: 0
PSCL5 LOAD TRANSLATION ACCESS:        530  HIT:        530  MISS:          0  HIT %:        100  MISS %:          0   MPKI: 0
PSCL5 TRANSLATION FROM L1D PREFETCHER ACCESS:      24088  HIT:      24088  MISS:          0  HIT %:        100  MISS %:          0   MPKI: 0
PSCL5 PREFETCH  REQUESTED:          0  ISSUED:          0  USEFUL:          0  USELESS:          0
PSCL5 USEFUL LOAD PREFETCHES:          0 PREFETCH ISSUED TO LOWER LEVEL:          0  ACCURACY: -nan
PSCL5 TIMELY PREFETCHES:          0 LATE PREFETCHES: 0 DROPPED PREFETCHES: 0
PSCL5 PREFETCHES SAME FILL-ORIGIN LEVEL: 0 DIFFERENT FILL-ORIGIN LEVEL: 0

PSCL4 TOTAL     ACCESS:      24550  HIT:      24550  MISS:          0  HIT %:        100  MISS %:          0   MPKI: 0
PSCL4 LOAD TRANSLATION ACCESS:        530  HIT:        530  MISS:          0  HIT %:        100  MISS %:          0   MPKI: 0
PSCL4 TRANSLATION FROM L1D PREFETCHER ACCESS:      24020  HIT:      24020  MISS:          0  HIT %:        100  MISS %:          0   MPKI: 0
PSCL4 PREFETCH  REQUESTED:          0  ISSUED:          0  USEFUL:          0  USELESS:          0
PSCL4 USEFUL LOAD PREFETCHES:          0 PREFETCH ISSUED TO LOWER LEVEL:          0  ACCURACY: -nan
PSCL4 TIMELY PREFETCHES:          0 LATE PREFETCHES: 0 DROPPED PREFETCHES: 0
PSCL4 PREFETCHES SAME FILL-ORIGIN LEVEL: 0 DIFFERENT FILL-ORIGIN LEVEL: 0

PSCL3 TOTAL     ACCESS:      16768  HIT:      16729  MISS:         39  HIT %:    99.7674  MISS %:   0.232586   MPKI: 0.000195
PSCL3 LOAD TRANSLATION ACCESS:        359  HIT:        320  MISS:         39  HIT %:    89.1365  MISS %:    10.8635   MPKI: 0.000195
PSCL3 TRANSLATION FROM L1D PREFETCHER ACCESS:      16409  HIT:      16409  MISS:          0  HIT %:        100  MISS %:          0   MPKI: 0
PSCL3 PREFETCH  REQUESTED:          0  ISSUED:          0  USEFUL:          0  USELESS:          0
PSCL3 USEFUL LOAD PREFETCHES:          0 PREFETCH ISSUED TO LOWER LEVEL:          0  ACCURACY: -nan
PSCL3 TIMELY PREFETCHES:          0 LATE PREFETCHES: 0 DROPPED PREFETCHES: 0
PSCL3 PREFETCHES SAME FILL-ORIGIN LEVEL: 0 DIFFERENT FILL-ORIGIN LEVEL: 0

PSCL2 TOTAL     ACCESS:       4908  HIT:       4812  MISS:         96  HIT %:     98.044  MISS %:    1.95599   MPKI: 0.00048
PSCL2 LOAD TRANSLATION ACCESS:        531  HIT:        435  MISS:         96  HIT %:    81.9209  MISS %:    18.0791   MPKI: 0.00048
PSCL2 TRANSLATION FROM L1D PREFETCHER ACCESS:       4377  HIT:       4377  MISS:          0  HIT %:        100  MISS %:          0   MPKI: 0
PSCL2 PREFETCH  REQUESTED:          0  ISSUED:          0  USEFUL:          0  USELESS:          0
PSCL2 USEFUL LOAD PREFETCHES:          0 PREFETCH ISSUED TO LOWER LEVEL:          0  ACCURACY: -nan
PSCL2 TIMELY PREFETCHES:          0 LATE PREFETCHES: 0 DROPPED PREFETCHES: 0
PSCL2 PREFETCHES SAME FILL-ORIGIN LEVEL: 0 DIFFERENT FILL-ORIGIN LEVEL: 0

LLC TOTAL     ACCESS:     509141  HIT:     508601  MISS:        540  HIT %:    99.8939  MISS %:   0.106061   MPKI: 0.0027
LLC LOAD      ACCESS:     370749  HIT:     370442  MISS:        307  HIT %:    99.9172  MISS %:  0.0828053   MPKI: 0.001535
LLC RFO       ACCESS:      55446  HIT:      55446  MISS:          0  HIT %:        100  MISS %:          0   MPKI: 0
LLC PREFETCH  ACCESS:       5645  HIT:       5480  MISS:        165  HIT %:    97.0771  MISS %:    2.92294   MPKI: 0.000825
AGUS PREFETCH L1 MISS: 0
LLC WRITEBACK ACCESS:      75797  HIT:      75793  MISS:          4  HIT %:    99.9947  MISS %: 0.00527725   MPKI: 2e-05
LLC LOAD TRANSLATION ACCESS:        505  HIT:        494  MISS:         11  HIT %:    97.8218  MISS %:    2.17822   MPKI: 5.5e-05
LLC TRANSLATION FROM L1D PREFETCHER ACCESS:        999  HIT:        946  MISS:         53  HIT %:    94.6947  MISS %:    5.30531   MPKI: 0.000265
LLC PREFETCH  REQUESTED:          0  ISSUED:          0  USEFUL:         45  USELESS:          3
LLC USEFUL LOAD PREFETCHES:         45 PREFETCH ISSUED TO LOWER LEVEL:        165  ACCURACY: 27.2727
LLC TIMELY PREFETCHES:         45 LATE PREFETCHES: 0 DROPPED PREFETCHES: 0
LLC PREFETCHES SAME FILL-ORIGIN LEVEL: 0 DIFFERENT FILL-ORIGIN LEVEL: 0
LLC AVERAGE MISS LATENCY: 150.778 cycles
LLC RQ	ACCESS:     427699	FORWARD:          0	MERGED:          0	TO_CACHE:     427699
LLC WQ	ACCESS:      75797	FORWARD:          0	MERGED:          0	TO_CACHE:      75797
LLC PQ	ACCESS:       5645	FORWARD:          0	MERGED:          0	TO_CACHE:       5645

LLC Dense regions hint to LLC: 0

RAW hits: 3383861
Loads Generated: 57348600
Loads sent to L1D: 53964736
Stores Generated: 21214489
Stores sent to L1D: 21214489
Major fault: 0 Minor fault: 1185
Allocated PAGES: 1185
Completed 

DRAM Statistics
 CHANNEL 0
 RQ ROW_BUFFER_HIT:         97  ROW_BUFFER_MISS:        439
 DBUS_CONGESTED:          0
 WQ ROW_BUFFER_HIT:          0  ROW_BUFFER_MISS:          0  FULL:          0

 AVG_CONGESTED_CYCLE: -
 All warmup complete: 2
Channel 0 Bank busy for read cycles: 0
Channel 0 Bank busy for write cycles: 0
Channel 0
Rank 0
0banks busy for read cycles: 309286142
0banks busy for write cycles: 0
1banks busy for read cycles: 55158
1banks busy for write cycles: 0
2banks busy for read cycles: 7474
2banks busy for write cycles: 0
3banks busy for read cycles: 2
3banks busy for write cycles: 0
4banks busy for read cycles: 147
4banks busy for write cycles: 0
5banks busy for read cycles: 0
5banks busy for write cycles: 0
6banks busy for read cycles: 0
6banks busy for write cycles: 0
7banks busy for read cycles: 0
7banks busy for write cycles: 0
8banks busy for read cycles: 0
8banks busy for write cycles: 0

CPU 0 Branch Prediction Accuracy: 99.8678% MPKI: 0.264215 Average ROB Occupancy at Mispredict: 41.4367
Branch types
NOT_BRANCH: 160022998 80.0115%
BRANCH_DIRECT_JUMP: 3530101 1.76505%
BRANCH_INDIRECT: 14433198 7.2166%
BRANCH_CONDITIONAL: 12551976 6.27599%
BRANCH_DIRECT_CALL: 2343708 1.17185%
BRANCH_INDIRECT_CALL: 2387048 1.19352%
BRANCH_RETURN: 4730672 2.36534%
BRANCH_OTHER: 0 0%

DRAM PAGES: 1048576
Allocated PAGES: 1185
