
*** ChampSim Multicore Out-of-Order Simulator ***

Warmup Instructions: 50000000
Simulation Instructions: 200000000
Number of CPUs: 1
LLC sets: 2048
LLC ways: 16
Off-chip DRAM Size: 4096 MB Channels: 1 Width: 64-bit Data Rate: 6400 MT/s
CPU 0 runs traces/spec2k17/srv_46.champsimtrace.xz
.xz
BTB has LRU replacement policy
ITLB has LRU replacement policy
DTLB has LRU replacement policy
STLB has LRU replacement policy
L1I has LRU replacement policy
L1D has LRU replacement policy
Initialize SRRIP state for L2C
Initialize DRRIP state for LLC
Heartbeat CPU 0 instructions: 10000003 cycles: 2962475 heartbeat IPC: 3.37556 cumulative IPC: 3.37556 (Simulation time: 0 hr 0 min 34 sec) 
Heartbeat CPU 0 instructions: 20000002 cycles: 5929995 heartbeat IPC: 3.36982 cumulative IPC: 3.37268 (Simulation time: 0 hr 1 min 6 sec) 
Heartbeat CPU 0 instructions: 30000003 cycles: 8872558 heartbeat IPC: 3.3984 cumulative IPC: 3.38121 (Simulation time: 0 hr 1 min 39 sec) 
*** Reached end of trace for Core: 0 Repeating trace: traces/spec2k17/srv_46.champsimtrace.xz
Heartbeat CPU 0 instructions: 40000000 cycles: 11836514 heartbeat IPC: 3.37387 cumulative IPC: 3.37937 (Simulation time: 0 hr 2 min 13 sec) 
Heartbeat CPU 0 instructions: 50000000 cycles: 14791945 heartbeat IPC: 3.3836 cumulative IPC: 3.38022 (Simulation time: 0 hr 2 min 45 sec) 

Warmup complete CPU 0 instructions: 50000004 cycles: 14791946 (Simulation time: 0 hr 2 min 45 sec) 

Heartbeat CPU 0 instructions: 60000001 cycles: 39115996 heartbeat IPC: 0.411116 cumulative IPC: 0.411116 (Simulation time: 0 hr 3 min 32 sec) 
*** Reached end of trace for Core: 0 Repeating trace: traces/spec2k17/srv_46.champsimtrace.xz
Heartbeat CPU 0 instructions: 70000000 cycles: 62763634 heartbeat IPC: 0.422875 cumulative IPC: 0.416912 (Simulation time: 0 hr 4 min 20 sec) 
Heartbeat CPU 0 instructions: 80000000 cycles: 84988125 heartbeat IPC: 0.449954 cumulative IPC: 0.427374 (Simulation time: 0 hr 5 min 30 sec) 
Heartbeat CPU 0 instructions: 90000003 cycles: 108786998 heartbeat IPC: 0.420188 cumulative IPC: 0.425554 (Simulation time: 0 hr 6 min 37 sec) 
*** Reached end of trace for Core: 0 Repeating trace: traces/spec2k17/srv_46.champsimtrace.xz
Heartbeat CPU 0 instructions: 100000000 cycles: 132005118 heartbeat IPC: 0.430698 cumulative IPC: 0.426573 (Simulation time: 0 hr 8 min 1 sec) 
Heartbeat CPU 0 instructions: 110000000 cycles: 155259160 heartbeat IPC: 0.430033 cumulative IPC: 0.427146 (Simulation time: 0 hr 9 min 35 sec) 
Heartbeat CPU 0 instructions: 120000000 cycles: 177638556 heartbeat IPC: 0.44684 cumulative IPC: 0.429852 (Simulation time: 0 hr 11 min 4 sec) 
*** Reached end of trace for Core: 0 Repeating trace: traces/spec2k17/srv_46.champsimtrace.xz
Heartbeat CPU 0 instructions: 130000001 cycles: 201007025 heartbeat IPC: 0.427927 cumulative IPC: 0.429611 (Simulation time: 0 hr 12 min 59 sec) 
Heartbeat CPU 0 instructions: 140000002 cycles: 224974239 heartbeat IPC: 0.417237 cumulative IPC: 0.4282 (Simulation time: 0 hr 14 min 57 sec) 
Heartbeat CPU 0 instructions: 150000002 cycles: 247609993 heartbeat IPC: 0.441779 cumulative IPC: 0.42952 (Simulation time: 0 hr 17 min 8 sec) 
*** Reached end of trace for Core: 0 Repeating trace: traces/spec2k17/srv_46.champsimtrace.xz
Heartbeat CPU 0 instructions: 160000002 cycles: 269957229 heartbeat IPC: 0.447483 cumulative IPC: 0.431093 (Simulation time: 0 hr 18 min 29 sec) 
Heartbeat CPU 0 instructions: 170000003 cycles: 294569204 heartbeat IPC: 0.406306 cumulative IPC: 0.428913 (Simulation time: 0 hr 19 min 24 sec) 
Heartbeat CPU 0 instructions: 180000000 cycles: 317564078 heartbeat IPC: 0.434879 cumulative IPC: 0.429366 (Simulation time: 0 hr 20 min 29 sec) 
*** Reached end of trace for Core: 0 Repeating trace: traces/spec2k17/srv_46.champsimtrace.xz
Heartbeat CPU 0 instructions: 190000000 cycles: 339935911 heartbeat IPC: 0.446991 cumulative IPC: 0.430579 (Simulation time: 0 hr 21 min 47 sec) 
Heartbeat CPU 0 instructions: 200000003 cycles: 363565671 heartbeat IPC: 0.423195 cumulative IPC: 0.430078 (Simulation time: 0 hr 23 min 7 sec) 
Heartbeat CPU 0 instructions: 210000002 cycles: 387405591 heartbeat IPC: 0.419464 cumulative IPC: 0.429399 (Simulation time: 0 hr 24 min 43 sec) 
*** Reached end of trace for Core: 0 Repeating trace: traces/spec2k17/srv_46.champsimtrace.xz
Heartbeat CPU 0 instructions: 220000000 cycles: 410157972 heartbeat IPC: 0.439514 cumulative IPC: 0.429981 (Simulation time: 0 hr 25 min 54 sec) 
Heartbeat CPU 0 instructions: 230000002 cycles: 432183015 heartbeat IPC: 0.454029 cumulative IPC: 0.43125 (Simulation time: 0 hr 27 min 20 sec) 
Heartbeat CPU 0 instructions: 240000000 cycles: 456574587 heartbeat IPC: 0.409978 cumulative IPC: 0.430076 (Simulation time: 0 hr 28 min 2 sec) 
*** Reached end of trace for Core: 0 Repeating trace: traces/spec2k17/srv_46.champsimtrace.xz
Heartbeat CPU 0 instructions: 250000003 cycles: 480188824 heartbeat IPC: 0.423473 cumulative IPC: 0.429741 (Simulation time: 0 hr 28 min 38 sec) 
Finished CPU 0 instructions: 200000003 cycles: 465396879 cumulative IPC: 0.429741 (Simulation time: 0 hr 28 min 38 sec) 

ChampSim completed all CPUs

Region of Interest Statistics

CPU 0 cumulative IPC: 0.429741 instructions: 200000003 cycles: 465396879
ITLB TOTAL     ACCESS:   34873659  HIT:   33556828  MISS:    1316831  HIT %:     96.224  MISS %:      3.776   MPKI: 6.58415
ITLB LOAD TRANSLATION ACCESS:   34873659  HIT:   33556828  MISS:    1316831  HIT %:     96.224  MISS %:      3.776   MPKI: 6.58415
ITLB PREFETCH  REQUESTED:          0  ISSUED:          0  USEFUL:          0  USELESS:          0
ITLB USEFUL LOAD PREFETCHES:          0 PREFETCH ISSUED TO LOWER LEVEL:          0  ACCURACY: -nan
ITLB TIMELY PREFETCHES:          0 LATE PREFETCHES: 0 DROPPED PREFETCHES: 0
ITLB PREFETCHES SAME FILL-ORIGIN LEVEL: 0 DIFFERENT FILL-ORIGIN LEVEL: 0
ITLB AVERAGE MISS LATENCY: 9.46273 cycles
ITLB RQ	ACCESS:   40094845	FORWARD:          0	MERGED:    4843994	TO_CACHE:   35250851

DTLB TOTAL     ACCESS:   45168508  HIT:   43931318  MISS:    1237190  HIT %:    97.2609  MISS %:    2.73905   MPKI: 6.18595
DTLB LOAD TRANSLATION ACCESS:   45168508  HIT:   43931318  MISS:    1237190  HIT %:    97.2609  MISS %:    2.73905   MPKI: 6.18595
DTLB PREFETCH  REQUESTED:          0  ISSUED:          0  USEFUL:          0  USELESS:          0
DTLB USEFUL LOAD PREFETCHES:          0 PREFETCH ISSUED TO LOWER LEVEL:          0  ACCURACY: -nan
DTLB TIMELY PREFETCHES:          0 LATE PREFETCHES: 0 DROPPED PREFETCHES: 0
DTLB PREFETCHES SAME FILL-ORIGIN LEVEL: 0 DIFFERENT FILL-ORIGIN LEVEL: 0
DTLB AVERAGE MISS LATENCY: 12.1198 cycles
DTLB RQ	ACCESS:   61838940	FORWARD:          0	MERGED:   16580766	TO_CACHE:   45258174

STLB TOTAL     ACCESS:    5618700  HIT:    5565654  MISS:      53046  HIT %:    99.0559  MISS %:   0.944097   MPKI: 0.26523
STLB LOAD TRANSLATION ACCESS:    2554021  HIT:    2501881  MISS:      52140  HIT %:    97.9585  MISS %:    2.04149   MPKI: 0.2607
STLB TRANSLATION FROM L1D PREFETCHER ACCESS:    3064679  HIT:    3063773  MISS:        906  HIT %:    99.9704  MISS %:  0.0295626   MPKI: 0.00453
STLB PREFETCH  REQUESTED:          0  ISSUED:          0  USEFUL:        893  USELESS:         12
STLB USEFUL LOAD PREFETCHES:        893 PREFETCH ISSUED TO LOWER LEVEL:          0  ACCURACY: inf
STLB TIMELY PREFETCHES:        893 LATE PREFETCHES: 71 DROPPED PREFETCHES: 9772
STLB PREFETCHES SAME FILL-ORIGIN LEVEL: 0 DIFFERENT FILL-ORIGIN LEVEL: 0
STLB AVERAGE MISS LATENCY: 85.5689 cycles
STLB RQ	ACCESS:    6516753	FORWARD:          0	MERGED:     888208	TO_CACHE:    5628545

STLB Hit, L1D data hit: 0
STLB Hit, L2C data hit: 0
STLB Hit, LLC data hit: 0
STLB Hit, LLC data miss: 0
STLB STLB hints to L2: 0
L1D TOTAL     ACCESS:   63494943  HIT:   60881016  MISS:    2613927  HIT %:    95.8833  MISS %:    4.11675   MPKI: 13.0696
L1D LOAD      ACCESS:   37535664  HIT:   35847833  MISS:    1687831  HIT %:    95.5034  MISS %:    4.49661   MPKI: 8.43915
L1D RFO       ACCESS:   22069351  HIT:   21191886  MISS:     877465  HIT %:    96.0241  MISS %:    3.97594   MPKI: 4.38732
L1D PREFETCH  ACCESS:    3889928  HIT:    3841297  MISS:      48631  HIT %:    98.7498  MISS %:    1.25018   MPKI: 0.243155
AGUS PREFETCH L1 MISS: 0
L1D PREFETCH  REQUESTED:    9178204  ISSUED:    9177885  USEFUL:      36712  USELESS:      11891
L1D USEFUL LOAD PREFETCHES:      36712 PREFETCH ISSUED TO LOWER LEVEL:      84960  ACCURACY: 43.2109
L1D TIMELY PREFETCHES:      36712 LATE PREFETCHES: 36322 DROPPED PREFETCHES: 11193
L1D PREFETCHES SAME FILL-ORIGIN LEVEL: 84960 DIFFERENT FILL-ORIGIN LEVEL: 0
L1D AVERAGE MISS LATENCY: 3.6329e+06 cycles
L1D RQ	ACCESS:   54602019	FORWARD:          0	MERGED:   16813375	TO_CACHE:   37645848
L1D WQ	ACCESS:   24630455	FORWARD:     143575	MERGED:     437363	TO_CACHE:   24193092
L1D PQ	ACCESS:    5215153	FORWARD:          0	MERGED:    1251642	TO_CACHE:    3962732

L1D UNIQUE REGIONS ACCESSED: 0
L1D REGIONS CONFLICTS: 0
L1D Cross Page Prefetch Requests: 3479235
L1D Same Page Prefetch Requests: 2134490
L1D ROI Sum of L1D PQ occupancy: 57545249
L1D PREFETCHES PUSHED FROM L2C: 0
L1I TOTAL     ACCESS:   39407933  HIT:   34417557  MISS:    4990376  HIT %:    87.3366  MISS %:    12.6634   MPKI: 24.9519
L1I LOAD      ACCESS:   39407933  HIT:   34417557  MISS:    4990376  HIT %:    87.3366  MISS %:    12.6634   MPKI: 24.9519
L1I PREFETCH  REQUESTED:          0  ISSUED:          0  USEFUL:          0  USELESS:          0
L1I USEFUL LOAD PREFETCHES:          0 PREFETCH ISSUED TO LOWER LEVEL:          0  ACCURACY: -nan
L1I TIMELY PREFETCHES:          0 LATE PREFETCHES: 0 DROPPED PREFETCHES: 0
L1I PREFETCHES SAME FILL-ORIGIN LEVEL: 0 DIFFERENT FILL-ORIGIN LEVEL: 0
L1I AVERAGE MISS LATENCY: 19.6166 cycles
L1I RQ	ACCESS:   60428494	FORWARD:          0	MERGED:   20333649	TO_CACHE:   40094845

BTB TOTAL     ACCESS:   31255794  HIT:   24838529  MISS:    6417265  HIT %:    79.4686  MISS %:    20.5314   MPKI: 32.0863
BTB BRANCH_DIRECT_JUMP	ACCESS:    2533222  HIT:    2107885  MISS:     425337
BTB BRANCH_INDIRECT	ACCESS:   13038560  HIT:   10544316  MISS:    2494244
BTB BRANCH_CONDITIONAL	ACCESS:    7059561  HIT:    6546705  MISS:     512856
BTB BRANCH_DIRECT_CALL	ACCESS:    3018471  HIT:    2245364  MISS:     773107
BTB BRANCH_INDIRECT_CALL	ACCESS:    1293790  HIT:     937787  MISS:     356003
BTB BRANCH_RETURN	ACCESS:    4312190  HIT:    2456472  MISS:    1855718
BTB BRANCH_OTHER ACCESS:          0  HIT:          0  MISS:          0

L2C TOTAL     ACCESS:    8969993  HIT:    6910224  MISS:    2059769  HIT %:    77.0371  MISS %:    22.9629   MPKI: 10.2988
L2C LOAD      ACCESS:    6641849  HIT:    5201644  MISS:    1440205  HIT %:    78.3162  MISS %:    21.6838   MPKI: 7.20102
L2C DATA LOAD MPKI: 2.71463
L2C INSTRUCTION LOAD MPKI: 4.48639
L2C RFO       ACCESS:     877451  HIT:     413025  MISS:     464426  HIT %:     47.071  MISS %:     52.929   MPKI: 2.32213
L2C PREFETCH  ACCESS:      84931  HIT:      53610  MISS:      31321  HIT %:    63.1218  MISS %:    36.8782   MPKI: 0.156605
AGUS PREFETCH L1 MISS: 0
L2C DATA PREFETCH MPKI: 0.156605
L2C INSTRUCTION PREFETCH MPKI: 0
L2C WRITEBACK ACCESS:    1271162  HIT:    1195180  MISS:      75982  HIT %:    94.0226  MISS %:    5.97737   MPKI: 0.37991
L2C LOAD TRANSLATION ACCESS:      80726  HIT:      34439  MISS:      46287  HIT %:    42.6616  MISS %:    57.3384   MPKI: 0.231435
L2C TRANSLATION FROM L1D PREFETCHER ACCESS:      13874  HIT:      12326  MISS:       1548  HIT %:    88.8424  MISS %:    11.1576   MPKI: 0.00774
L2C PREFETCH  REQUESTED:          0  ISSUED:          0  USEFUL:       2233  USELESS:      30606
L2C USEFUL LOAD PREFETCHES:       2233 PREFETCH ISSUED TO LOWER LEVEL:      31321  ACCURACY: 7.1294
L2C TIMELY PREFETCHES:       2233 LATE PREFETCHES: 0 DROPPED PREFETCHES: 0
L2C PREFETCHES SAME FILL-ORIGIN LEVEL: 0 DIFFERENT FILL-ORIGIN LEVEL: 0
L2C AVERAGE MISS LATENCY: 65.4924 cycles
L2C RQ	ACCESS:    7613942	FORWARD:          0	MERGED:          0	TO_CACHE:    7613900
L2C WQ	ACCESS:    1271162	FORWARD:         71	MERGED:          0	TO_CACHE:    1271162
L2C PQ	ACCESS:      84960	FORWARD:          0	MERGED:          0	TO_CACHE:      84931

L2C Instructions Evicting Data 445200
L2C Translations Evicting Data 29962
L2C Data Evicting Data 598874
L2C Instructions Evicting Instructions 435451
L2C Translations Evicting Instructions 16494
L2C Data Evicting Instructions 411148
L2C Instructions Evicting Translations 16627
L2C Translations Evicting Translations 1379
L2C Data Evicting Translations 28652
L2C Dense regions hint from L2: 0
PSCL5 TOTAL     ACCESS:      62818  HIT:      62818  MISS:          0  HIT %:        100  MISS %:          0   MPKI: 0
PSCL5 LOAD TRANSLATION ACCESS:      52069  HIT:      52069  MISS:          0  HIT %:        100  MISS %:          0   MPKI: 0
PSCL5 TRANSLATION FROM L1D PREFETCHER ACCESS:      10749  HIT:      10749  MISS:          0  HIT %:        100  MISS %:          0   MPKI: 0
PSCL5 PREFETCH  REQUESTED:          0  ISSUED:          0  USEFUL:          0  USELESS:          0
PSCL5 USEFUL LOAD PREFETCHES:          0 PREFETCH ISSUED TO LOWER LEVEL:          0  ACCURACY: -nan
PSCL5 TIMELY PREFETCHES:          0 LATE PREFETCHES: 0 DROPPED PREFETCHES: 0
PSCL5 PREFETCHES SAME FILL-ORIGIN LEVEL: 0 DIFFERENT FILL-ORIGIN LEVEL: 0

PSCL4 TOTAL     ACCESS:      60341  HIT:      59871  MISS:        470  HIT %:    99.2211  MISS %:   0.778907   MPKI: 0.00235
PSCL4 LOAD TRANSLATION ACCESS:      50636  HIT:      50166  MISS:        470  HIT %:    99.0718  MISS %:   0.928193   MPKI: 0.00235
PSCL4 TRANSLATION FROM L1D PREFETCHER ACCESS:       9705  HIT:       9705  MISS:          0  HIT %:        100  MISS %:          0   MPKI: 0
PSCL4 PREFETCH  REQUESTED:          0  ISSUED:          0  USEFUL:          0  USELESS:          0
PSCL4 USEFUL LOAD PREFETCHES:          0 PREFETCH ISSUED TO LOWER LEVEL:          0  ACCURACY: -nan
PSCL4 TIMELY PREFETCHES:          0 LATE PREFETCHES: 0 DROPPED PREFETCHES: 0
PSCL4 PREFETCHES SAME FILL-ORIGIN LEVEL: 0 DIFFERENT FILL-ORIGIN LEVEL: 0

PSCL3 TOTAL     ACCESS:      56482  HIT:      48928  MISS:       7554  HIT %:    86.6258  MISS %:    13.3742   MPKI: 0.03777
PSCL3 LOAD TRANSLATION ACCESS:      48344  HIT:      40790  MISS:       7554  HIT %:    84.3745  MISS %:    15.6255   MPKI: 0.03777
PSCL3 TRANSLATION FROM L1D PREFETCHER ACCESS:       8138  HIT:       8138  MISS:          0  HIT %:        100  MISS %:          0   MPKI: 0
PSCL3 PREFETCH  REQUESTED:          0  ISSUED:          0  USEFUL:          0  USELESS:          0
PSCL3 USEFUL LOAD PREFETCHES:          0 PREFETCH ISSUED TO LOWER LEVEL:          0  ACCURACY: -nan
PSCL3 TIMELY PREFETCHES:          0 LATE PREFETCHES: 0 DROPPED PREFETCHES: 0
PSCL3 PREFETCHES SAME FILL-ORIGIN LEVEL: 0 DIFFERENT FILL-ORIGIN LEVEL: 0

PSCL2 TOTAL     ACCESS:      53515  HIT:      32752  MISS:      20763  HIT %:    61.2015  MISS %:    38.7985   MPKI: 0.103815
PSCL2 LOAD TRANSLATION ACCESS:      52169  HIT:      31406  MISS:      20763  HIT %:    60.2005  MISS %:    39.7995   MPKI: 0.103815
PSCL2 TRANSLATION FROM L1D PREFETCHER ACCESS:       1346  HIT:       1346  MISS:          0  HIT %:        100  MISS %:          0   MPKI: 0
PSCL2 PREFETCH  REQUESTED:          0  ISSUED:          0  USEFUL:          0  USELESS:          0
PSCL2 USEFUL LOAD PREFETCHES:          0 PREFETCH ISSUED TO LOWER LEVEL:          0  ACCURACY: -nan
PSCL2 TIMELY PREFETCHES:          0 LATE PREFETCHES: 0 DROPPED PREFETCHES: 0
PSCL2 PREFETCHES SAME FILL-ORIGIN LEVEL: 0 DIFFERENT FILL-ORIGIN LEVEL: 0

LLC TOTAL     ACCESS:    2563046  HIT:    2156851  MISS:     406195  HIT %:    84.1519  MISS %:    15.8481   MPKI: 2.03097
LLC LOAD      ACCESS:    1440200  HIT:    1240499  MISS:     199701  HIT %:    86.1338  MISS %:    13.8662   MPKI: 0.998505
LLC RFO       ACCESS:     464426  HIT:     290352  MISS:     174074  HIT %:    62.5185  MISS %:    37.4815   MPKI: 0.87037
LLC PREFETCH  ACCESS:      31321  HIT:      12645  MISS:      18676  HIT %:    40.3723  MISS %:    59.6277   MPKI: 0.09338
AGUS PREFETCH L1 MISS: 0
LLC WRITEBACK ACCESS:     579264  HIT:     575261  MISS:       4003  HIT %:     99.309  MISS %:   0.691049   MPKI: 0.020015
LLC LOAD TRANSLATION ACCESS:      46287  HIT:      36757  MISS:       9530  HIT %:    79.4111  MISS %:    20.5889   MPKI: 0.04765
LLC TRANSLATION FROM L1D PREFETCHER ACCESS:       1548  HIT:       1337  MISS:        211  HIT %:    86.3695  MISS %:    13.6305   MPKI: 0.001055
LLC PREFETCH  REQUESTED:          0  ISSUED:          0  USEFUL:        191  USELESS:      19383
LLC USEFUL LOAD PREFETCHES:        191 PREFETCH ISSUED TO LOWER LEVEL:      18676  ACCURACY: 1.0227
LLC TIMELY PREFETCHES:        191 LATE PREFETCHES: 0 DROPPED PREFETCHES: 0
LLC PREFETCHES SAME FILL-ORIGIN LEVEL: 0 DIFFERENT FILL-ORIGIN LEVEL: 0
LLC AVERAGE MISS LATENCY: 185.588 cycles
LLC RQ	ACCESS:    1952466	FORWARD:          0	MERGED:          0	TO_CACHE:    1952461
LLC WQ	ACCESS:     579264	FORWARD:          5	MERGED:          0	TO_CACHE:     579264
LLC PQ	ACCESS:      31321	FORWARD:          0	MERGED:          0	TO_CACHE:      31321

LLC Dense regions hint to LLC: 0

RAW hits: 2713454
Loads Generated: 57315472
Loads sent to L1D: 54602019
Stores Generated: 24630464
Stores sent to L1D: 24630455
Major fault: 0 Minor fault: 4769
Allocated PAGES: 4769
Completed 

DRAM Statistics
 CHANNEL 0
 RQ ROW_BUFFER_HIT:     138185  ROW_BUFFER_MISS:     264004
 DBUS_CONGESTED:        139
 WQ ROW_BUFFER_HIT:      40130  ROW_BUFFER_MISS:     175584  FULL:          0

 AVG_CONGESTED_CYCLE: 5
 All warmup complete: 2
Channel 0 Bank busy for read cycles: 0
Channel 0 Bank busy for write cycles: 0
Channel 0
Rank 0
0banks busy for read cycles: 418303677
0banks busy for write cycles: 84296
1banks busy for read cycles: 20294783
1banks busy for write cycles: 12106326
2banks busy for read cycles: 5094172
2banks busy for write cycles: 3341921
3banks busy for read cycles: 789537
3banks busy for write cycles: 929928
4banks busy for read cycles: 220893
4banks busy for write cycles: 399561
5banks busy for read cycles: 181004
5banks busy for write cycles: 213333
6banks busy for read cycles: 189626
6banks busy for write cycles: 138955
7banks busy for read cycles: 252579
7banks busy for write cycles: 197175
8banks busy for read cycles: 1149711
8banks busy for write cycles: 1509403

CPU 0 Branch Prediction Accuracy: 99.7584% MPKI: 0.42388 Average ROB Occupancy at Mispredict: 26.6392
Branch types
NOT_BRANCH: 164908845 82.4544%
BRANCH_DIRECT_JUMP: 2533222 1.26661%
BRANCH_INDIRECT: 13038560 6.51928%
BRANCH_CONDITIONAL: 10894807 5.4474%
BRANCH_DIRECT_CALL: 3018471 1.50924%
BRANCH_INDIRECT_CALL: 1293790 0.646895%
BRANCH_RETURN: 4312190 2.15609%
BRANCH_OTHER: 0 0%

DRAM PAGES: 1048576
Allocated PAGES: 4769
