
*** ChampSim Multicore Out-of-Order Simulator ***

Warmup Instructions: 50000000
Simulation Instructions: 200000000
Number of CPUs: 1
LLC sets: 2048
LLC ways: 16
Off-chip DRAM Size: 4096 MB Channels: 1 Width: 64-bit Data Rate: 6400 MT/s
CPU 0 runs traces/spec2k17/srv_42.champsimtrace.xz
.xz
BTB has LRU replacement policy
ITLB has LRU replacement policy
DTLB has LRU replacement policy
STLB has LRU replacement policy
L1I has LRU replacement policy
L1D has LRU replacement policy
Initialize SRRIP state for L2C
Initialize DRRIP state for LLC
Heartbeat CPU 0 instructions: 10000000 cycles: 2931930 heartbeat IPC: 3.41072 cumulative IPC: 3.41072 (Simulation time: 0 hr 0 min 46 sec) 
Heartbeat CPU 0 instructions: 20000003 cycles: 5857198 heartbeat IPC: 3.41849 cumulative IPC: 3.4146 (Simulation time: 0 hr 1 min 31 sec) 
Heartbeat CPU 0 instructions: 30000003 cycles: 8785122 heartbeat IPC: 3.41539 cumulative IPC: 3.41486 (Simulation time: 0 hr 2 min 12 sec) 
*** Reached end of trace for Core: 0 Repeating trace: traces/spec2k17/srv_42.champsimtrace.xz
Heartbeat CPU 0 instructions: 40000000 cycles: 11709582 heartbeat IPC: 3.41943 cumulative IPC: 3.41601 (Simulation time: 0 hr 2 min 56 sec) 
Heartbeat CPU 0 instructions: 50000002 cycles: 14634811 heartbeat IPC: 3.41854 cumulative IPC: 3.41651 (Simulation time: 0 hr 3 min 38 sec) 

Warmup complete CPU 0 instructions: 50000002 cycles: 14634811 (Simulation time: 0 hr 3 min 38 sec) 

Heartbeat CPU 0 instructions: 60000000 cycles: 44694377 heartbeat IPC: 0.332673 cumulative IPC: 0.332673 (Simulation time: 0 hr 4 min 42 sec) 
*** Reached end of trace for Core: 0 Repeating trace: traces/spec2k17/srv_42.champsimtrace.xz
Heartbeat CPU 0 instructions: 70000001 cycles: 74461958 heartbeat IPC: 0.335936 cumulative IPC: 0.334296 (Simulation time: 0 hr 5 min 46 sec) 
Heartbeat CPU 0 instructions: 80000000 cycles: 104183354 heartbeat IPC: 0.336458 cumulative IPC: 0.335014 (Simulation time: 0 hr 6 min 50 sec) 
Heartbeat CPU 0 instructions: 90000001 cycles: 134237722 heartbeat IPC: 0.33273 cumulative IPC: 0.33444 (Simulation time: 0 hr 7 min 56 sec) 
*** Reached end of trace for Core: 0 Repeating trace: traces/spec2k17/srv_42.champsimtrace.xz
Heartbeat CPU 0 instructions: 100000002 cycles: 163968904 heartbeat IPC: 0.336347 cumulative IPC: 0.33482 (Simulation time: 0 hr 9 min 6 sec) 
Heartbeat CPU 0 instructions: 110000000 cycles: 193731288 heartbeat IPC: 0.335995 cumulative IPC: 0.335015 (Simulation time: 0 hr 10 min 13 sec) 
Heartbeat CPU 0 instructions: 120000000 cycles: 223710241 heartbeat IPC: 0.333567 cumulative IPC: 0.334807 (Simulation time: 0 hr 11 min 23 sec) 
*** Reached end of trace for Core: 0 Repeating trace: traces/spec2k17/srv_42.champsimtrace.xz
Heartbeat CPU 0 instructions: 130000000 cycles: 253336844 heartbeat IPC: 0.337534 cumulative IPC: 0.335146 (Simulation time: 0 hr 12 min 34 sec) 
Heartbeat CPU 0 instructions: 140000001 cycles: 283115689 heartbeat IPC: 0.335809 cumulative IPC: 0.335219 (Simulation time: 0 hr 13 min 49 sec) 
Heartbeat CPU 0 instructions: 150000000 cycles: 313095315 heartbeat IPC: 0.33356 cumulative IPC: 0.335053 (Simulation time: 0 hr 15 min 8 sec) 
*** Reached end of trace for Core: 0 Repeating trace: traces/spec2k17/srv_42.champsimtrace.xz
Heartbeat CPU 0 instructions: 160000002 cycles: 342773924 heartbeat IPC: 0.336943 cumulative IPC: 0.335224 (Simulation time: 0 hr 16 min 30 sec) 
Heartbeat CPU 0 instructions: 170000000 cycles: 372544671 heartbeat IPC: 0.3359 cumulative IPC: 0.33528 (Simulation time: 0 hr 17 min 56 sec) 
Heartbeat CPU 0 instructions: 180000000 cycles: 402420620 heartbeat IPC: 0.334717 cumulative IPC: 0.335237 (Simulation time: 0 hr 19 min 26 sec) 
*** Reached end of trace for Core: 0 Repeating trace: traces/spec2k17/srv_42.champsimtrace.xz
Heartbeat CPU 0 instructions: 190000002 cycles: 432081955 heartbeat IPC: 0.337139 cumulative IPC: 0.335372 (Simulation time: 0 hr 21 min 4 sec) 
Heartbeat CPU 0 instructions: 200000002 cycles: 461764405 heartbeat IPC: 0.336899 cumulative IPC: 0.335473 (Simulation time: 0 hr 22 min 44 sec) 
Heartbeat CPU 0 instructions: 210000002 cycles: 491530448 heartbeat IPC: 0.335953 cumulative IPC: 0.335503 (Simulation time: 0 hr 24 min 18 sec) 
*** Reached end of trace for Core: 0 Repeating trace: traces/spec2k17/srv_42.champsimtrace.xz
Heartbeat CPU 0 instructions: 220000000 cycles: 521041472 heartbeat IPC: 0.338856 cumulative IPC: 0.335699 (Simulation time: 0 hr 26 min 6 sec) 
Heartbeat CPU 0 instructions: 230000001 cycles: 550565517 heartbeat IPC: 0.338707 cumulative IPC: 0.335864 (Simulation time: 0 hr 27 min 39 sec) 
Heartbeat CPU 0 instructions: 240000001 cycles: 580111969 heartbeat IPC: 0.33845 cumulative IPC: 0.335999 (Simulation time: 0 hr 29 min 22 sec) 
*** Reached end of trace for Core: 0 Repeating trace: traces/spec2k17/srv_42.champsimtrace.xz
Heartbeat CPU 0 instructions: 250000002 cycles: 609708151 heartbeat IPC: 0.337881 cumulative IPC: 0.336093 (Simulation time: 0 hr 30 min 50 sec) 
Finished CPU 0 instructions: 200000000 cycles: 595073340 cumulative IPC: 0.336093 (Simulation time: 0 hr 30 min 50 sec) 

ChampSim completed all CPUs

Region of Interest Statistics

CPU 0 cumulative IPC: 0.336093 instructions: 200000000 cycles: 595073340
ITLB TOTAL     ACCESS:   34783835  HIT:   33133057  MISS:    1650778  HIT %:    95.2542  MISS %:    4.74582   MPKI: 8.25389
ITLB LOAD TRANSLATION ACCESS:   34783835  HIT:   33133057  MISS:    1650778  HIT %:    95.2542  MISS %:    4.74582   MPKI: 8.25389
ITLB PREFETCH  REQUESTED:          0  ISSUED:          0  USEFUL:          0  USELESS:          0
ITLB USEFUL LOAD PREFETCHES:          0 PREFETCH ISSUED TO LOWER LEVEL:          0  ACCURACY: -nan
ITLB TIMELY PREFETCHES:          0 LATE PREFETCHES: 0 DROPPED PREFETCHES: 0
ITLB PREFETCHES SAME FILL-ORIGIN LEVEL: 0 DIFFERENT FILL-ORIGIN LEVEL: 0
ITLB AVERAGE MISS LATENCY: 9.66236 cycles
ITLB RQ	ACCESS:   40687014	FORWARD:          0	MERGED:    5411277	TO_CACHE:   35275737

DTLB TOTAL     ACCESS:   45905125  HIT:   44081137  MISS:    1823988  HIT %:    96.0266  MISS %:    3.97339   MPKI: 9.11994
DTLB LOAD TRANSLATION ACCESS:   45905125  HIT:   44081137  MISS:    1823988  HIT %:    96.0266  MISS %:    3.97339   MPKI: 9.11994
DTLB PREFETCH  REQUESTED:          0  ISSUED:          0  USEFUL:          0  USELESS:          0
DTLB USEFUL LOAD PREFETCHES:          0 PREFETCH ISSUED TO LOWER LEVEL:          0  ACCURACY: -nan
DTLB TIMELY PREFETCHES:          0 LATE PREFETCHES: 0 DROPPED PREFETCHES: 0
DTLB PREFETCHES SAME FILL-ORIGIN LEVEL: 0 DIFFERENT FILL-ORIGIN LEVEL: 0
DTLB AVERAGE MISS LATENCY: 11.7119 cycles
DTLB RQ	ACCESS:   61130715	FORWARD:          0	MERGED:   15108991	TO_CACHE:   46021724

STLB TOTAL     ACCESS:    7369357  HIT:    7250516  MISS:     118841  HIT %:    98.3874  MISS %:    1.61264   MPKI: 0.594205
STLB LOAD TRANSLATION ACCESS:    3474766  HIT:    3358392  MISS:     116374  HIT %:    96.6509  MISS %:    3.34912   MPKI: 0.58187
STLB TRANSLATION FROM L1D PREFETCHER ACCESS:    3894591  HIT:    3892124  MISS:       2467  HIT %:    99.9367  MISS %:  0.0633443   MPKI: 0.012335
STLB PREFETCH  REQUESTED:          0  ISSUED:          0  USEFUL:       2368  USELESS:         98
STLB USEFUL LOAD PREFETCHES:       2368 PREFETCH ISSUED TO LOWER LEVEL:          0  ACCURACY: inf
STLB TIMELY PREFETCHES:       2368 LATE PREFETCHES: 687 DROPPED PREFETCHES: 52837
STLB PREFETCHES SAME FILL-ORIGIN LEVEL: 0 DIFFERENT FILL-ORIGIN LEVEL: 0
STLB AVERAGE MISS LATENCY: 53.5002 cycles
STLB RQ	ACCESS:    8686753	FORWARD:          0	MERGED:    1263651	TO_CACHE:    7423102

STLB Hit, L1D data hit: 0
STLB Hit, L2C data hit: 0
STLB Hit, LLC data hit: 0
STLB Hit, LLC data miss: 0
STLB STLB hints to L2: 0
L1D TOTAL     ACCESS:   64047828  HIT:   59441320  MISS:    4606508  HIT %:    92.8077  MISS %:    7.19229   MPKI: 23.0325
L1D LOAD      ACCESS:   35392007  HIT:   32410845  MISS:    2981162  HIT %:    91.5767  MISS %:    8.42326   MPKI: 14.9058
L1D RFO       ACCESS:   23645286  HIT:   22342395  MISS:    1302891  HIT %:    94.4898  MISS %:    5.51015   MPKI: 6.51445
L1D PREFETCH  ACCESS:    5010535  HIT:    4688080  MISS:     322455  HIT %:    93.5645  MISS %:    6.43554   MPKI: 1.61227
AGUS PREFETCH L1 MISS: 0
L1D PREFETCH  REQUESTED:   11466159  ISSUED:   11465859  USEFUL:     248902  USELESS:      73515
L1D USEFUL LOAD PREFETCHES:     248902 PREFETCH ISSUED TO LOWER LEVEL:     399198  ACCURACY: 62.3505
L1D TIMELY PREFETCHES:     248902 LATE PREFETCHES: 75418 DROPPED PREFETCHES: 57244
L1D PREFETCHES SAME FILL-ORIGIN LEVEL: 399198 DIFFERENT FILL-ORIGIN LEVEL: 0
L1D AVERAGE MISS LATENCY: 7.90167e+06 cycles
L1D RQ	ACCESS:   46637502	FORWARD:          0	MERGED:   10894926	TO_CACHE:   35525895
L1D WQ	ACCESS:   25941685	FORWARD:     333262	MERGED:     336865	TO_CACHE:   25604820
L1D PQ	ACCESS:    6253872	FORWARD:          0	MERGED:     925304	TO_CACHE:    5211987

L1D UNIQUE REGIONS ACCESSED: 0
L1D REGIONS CONFLICTS: 0
L1D Cross Page Prefetch Requests: 4193826
L1D Same Page Prefetch Requests: 2381226
L1D ROI Sum of L1D PQ occupancy: 78769199
L1D PREFETCHES PUSHED FROM L2C: 0
L1I TOTAL     ACCESS:   39399187  HIT:   30940805  MISS:    8458382  HIT %:    78.5316  MISS %:    21.4684   MPKI: 42.2919
L1I LOAD      ACCESS:   39399187  HIT:   30940805  MISS:    8458382  HIT %:    78.5316  MISS %:    21.4684   MPKI: 42.2919
L1I PREFETCH  REQUESTED:          0  ISSUED:          0  USEFUL:          0  USELESS:          0
L1I USEFUL LOAD PREFETCHES:          0 PREFETCH ISSUED TO LOWER LEVEL:          0  ACCURACY: -nan
L1I TIMELY PREFETCHES:          0 LATE PREFETCHES: 0 DROPPED PREFETCHES: 0
L1I PREFETCHES SAME FILL-ORIGIN LEVEL: 0 DIFFERENT FILL-ORIGIN LEVEL: 0
L1I AVERAGE MISS LATENCY: 19.5047 cycles
L1I RQ	ACCESS:   60025112	FORWARD:          0	MERGED:   19338098	TO_CACHE:   40687014

BTB TOTAL     ACCESS:   29850924  HIT:   19884743  MISS:    9966181  HIT %:    66.6135  MISS %:    33.3865   MPKI: 49.8309
BTB BRANCH_DIRECT_JUMP	ACCESS:    2604773  HIT:    1779545  MISS:     825228
BTB BRANCH_INDIRECT	ACCESS:   12507392  HIT:    8343784  MISS:    4163608
BTB BRANCH_CONDITIONAL	ACCESS:    6652538  HIT:    5757723  MISS:     894815
BTB BRANCH_DIRECT_CALL	ACCESS:    3088472  HIT:    1613786  MISS:    1474686
BTB BRANCH_INDIRECT_CALL	ACCESS:     954646  HIT:     671097  MISS:     283549
BTB BRANCH_RETURN	ACCESS:    4043103  HIT:    1718808  MISS:    2324295
BTB BRANCH_OTHER ACCESS:          0  HIT:          0  MISS:          0

L2C TOTAL     ACCESS:   15431293  HIT:   11998276  MISS:    3433017  HIT %:    77.7529  MISS %:    22.2471   MPKI: 17.1651
L2C LOAD      ACCESS:   11364117  HIT:    8847247  MISS:    2516870  HIT %:    77.8525  MISS %:    22.1475   MPKI: 12.5844
L2C DATA LOAD MPKI: 4.99911
L2C INSTRUCTION LOAD MPKI: 7.58524
L2C RFO       ACCESS:    1301566  HIT:     705137  MISS:     596429  HIT %:     54.176  MISS %:     45.824   MPKI: 2.98215
L2C PREFETCH  ACCESS:     399192  HIT:     305431  MISS:      93761  HIT %:    76.5123  MISS %:    23.4877   MPKI: 0.468805
AGUS PREFETCH L1 MISS: 0
L2C DATA PREFETCH MPKI: 0.468805
L2C INSTRUCTION PREFETCH MPKI: 0
L2C WRITEBACK ACCESS:    2081679  HIT:    1956309  MISS:     125370  HIT %:    93.9775  MISS %:    6.02254   MPKI: 0.62685
L2C LOAD TRANSLATION ACCESS:     203335  HIT:     118009  MISS:      85326  HIT %:    58.0367  MISS %:    41.9633   MPKI: 0.42663
L2C TRANSLATION FROM L1D PREFETCHER ACCESS:      81404  HIT:      66143  MISS:      15261  HIT %:    81.2528  MISS %:    18.7472   MPKI: 0.076305
L2C PREFETCH  REQUESTED:          0  ISSUED:          0  USEFUL:      18672  USELESS:      90103
L2C USEFUL LOAD PREFETCHES:      18672 PREFETCH ISSUED TO LOWER LEVEL:      93761  ACCURACY: 19.9145
L2C TIMELY PREFETCHES:      18672 LATE PREFETCHES: 0 DROPPED PREFETCHES: 0
L2C PREFETCHES SAME FILL-ORIGIN LEVEL: 0 DIFFERENT FILL-ORIGIN LEVEL: 0
L2C AVERAGE MISS LATENCY: 33.3637 cycles
L2C RQ	ACCESS:   12950430	FORWARD:          0	MERGED:          0	TO_CACHE:   12950422
L2C WQ	ACCESS:    2081679	FORWARD:         14	MERGED:          0	TO_CACHE:    2081679
L2C PQ	ACCESS:     399198	FORWARD:          0	MERGED:          0	TO_CACHE:     399192

L2C Instructions Evicting Data 700023
L2C Translations Evicting Data 64970
L2C Data Evicting Data 976208
L2C Instructions Evicting Instructions 786338
L2C Translations Evicting Instructions 30578
L2C Data Evicting Instructions 652199
L2C Instructions Evicting Translations 30687
L2C Translations Evicting Translations 5039
L2C Data Evicting Translations 61605
L2C Dense regions hint from L2: 0
PSCL5 TOTAL     ACCESS:     171478  HIT:     171478  MISS:          0  HIT %:        100  MISS %:          0   MPKI: 0
PSCL5 LOAD TRANSLATION ACCESS:     115687  HIT:     115687  MISS:          0  HIT %:        100  MISS %:          0   MPKI: 0
PSCL5 TRANSLATION FROM L1D PREFETCHER ACCESS:      55791  HIT:      55791  MISS:          0  HIT %:        100  MISS %:          0   MPKI: 0
PSCL5 PREFETCH  REQUESTED:          0  ISSUED:          0  USEFUL:          0  USELESS:          0
PSCL5 USEFUL LOAD PREFETCHES:          0 PREFETCH ISSUED TO LOWER LEVEL:          0  ACCURACY: -nan
PSCL5 TIMELY PREFETCHES:          0 LATE PREFETCHES: 0 DROPPED PREFETCHES: 0
PSCL5 PREFETCHES SAME FILL-ORIGIN LEVEL: 0 DIFFERENT FILL-ORIGIN LEVEL: 0

PSCL4 TOTAL     ACCESS:     157238  HIT:     153779  MISS:       3459  HIT %:    97.8002  MISS %:    2.19985   MPKI: 0.017295
PSCL4 LOAD TRANSLATION ACCESS:     110060  HIT:     106601  MISS:       3459  HIT %:    96.8572  MISS %:    3.14283   MPKI: 0.017295
PSCL4 TRANSLATION FROM L1D PREFETCHER ACCESS:      47178  HIT:      47178  MISS:          0  HIT %:        100  MISS %:          0   MPKI: 0
PSCL4 PREFETCH  REQUESTED:          0  ISSUED:          0  USEFUL:          0  USELESS:          0
PSCL4 USEFUL LOAD PREFETCHES:          0 PREFETCH ISSUED TO LOWER LEVEL:          0  ACCURACY: -nan
PSCL4 TIMELY PREFETCHES:          0 LATE PREFETCHES: 0 DROPPED PREFETCHES: 0
PSCL4 PREFETCHES SAME FILL-ORIGIN LEVEL: 0 DIFFERENT FILL-ORIGIN LEVEL: 0

PSCL3 TOTAL     ACCESS:     153017  HIT:     129609  MISS:      23408  HIT %:    84.7024  MISS %:    15.2976   MPKI: 0.11704
PSCL3 LOAD TRANSLATION ACCESS:     109869  HIT:      86461  MISS:      23408  HIT %:    78.6946  MISS %:    21.3054   MPKI: 0.11704
PSCL3 TRANSLATION FROM L1D PREFETCHER ACCESS:      43148  HIT:      43148  MISS:          0  HIT %:        100  MISS %:          0   MPKI: 0
PSCL3 PREFETCH  REQUESTED:          0  ISSUED:          0  USEFUL:          0  USELESS:          0
PSCL3 USEFUL LOAD PREFETCHES:          0 PREFETCH ISSUED TO LOWER LEVEL:          0  ACCURACY: -nan
PSCL3 TIMELY PREFETCHES:          0 LATE PREFETCHES: 0 DROPPED PREFETCHES: 0
PSCL3 PREFETCHES SAME FILL-ORIGIN LEVEL: 0 DIFFERENT FILL-ORIGIN LEVEL: 0

PSCL2 TOTAL     ACCESS:     145999  HIT:      82751  MISS:      63248  HIT %:    56.6792  MISS %:    43.3208   MPKI: 0.31624
PSCL2 LOAD TRANSLATION ACCESS:     117629  HIT:      54381  MISS:      63248  HIT %:    46.2309  MISS %:    53.7691   MPKI: 0.31624
PSCL2 TRANSLATION FROM L1D PREFETCHER ACCESS:      28370  HIT:      28370  MISS:          0  HIT %:        100  MISS %:          0   MPKI: 0
PSCL2 PREFETCH  REQUESTED:          0  ISSUED:          0  USEFUL:          0  USELESS:          0
PSCL2 USEFUL LOAD PREFETCHES:          0 PREFETCH ISSUED TO LOWER LEVEL:          0  ACCURACY: -nan
PSCL2 TIMELY PREFETCHES:          0 LATE PREFETCHES: 0 DROPPED PREFETCHES: 0
PSCL2 PREFETCHES SAME FILL-ORIGIN LEVEL: 0 DIFFERENT FILL-ORIGIN LEVEL: 0

LLC TOTAL     ACCESS:    4172808  HIT:    4085948  MISS:      86860  HIT %:    97.9184  MISS %:    2.08157   MPKI: 0.4343
LLC LOAD      ACCESS:    2516864  HIT:    2463605  MISS:      53259  HIT %:    97.8839  MISS %:    2.11609   MPKI: 0.266295
LLC RFO       ACCESS:     596429  HIT:     566812  MISS:      29617  HIT %:    95.0343  MISS %:    4.96572   MPKI: 0.148085
LLC PREFETCH  ACCESS:      93759  HIT:      93030  MISS:        729  HIT %:    99.2225  MISS %:   0.777525   MPKI: 0.003645
AGUS PREFETCH L1 MISS: 0
LLC WRITEBACK ACCESS:     865169  HIT:     864833  MISS:        336  HIT %:    99.9612  MISS %:  0.0388363   MPKI: 0.00168
LLC LOAD TRANSLATION ACCESS:      85326  HIT:      82676  MISS:       2650  HIT %:    96.8943  MISS %:    3.10574   MPKI: 0.01325
LLC TRANSLATION FROM L1D PREFETCHER ACCESS:      15261  HIT:      14992  MISS:        269  HIT %:    98.2373  MISS %:    1.76266   MPKI: 0.001345
LLC PREFETCH  REQUESTED:          0  ISSUED:          0  USEFUL:        533  USELESS:        266
LLC USEFUL LOAD PREFETCHES:        533 PREFETCH ISSUED TO LOWER LEVEL:        729  ACCURACY: 73.1139
LLC TIMELY PREFETCHES:        533 LATE PREFETCHES: 0 DROPPED PREFETCHES: 0
LLC PREFETCHES SAME FILL-ORIGIN LEVEL: 0 DIFFERENT FILL-ORIGIN LEVEL: 0
LLC AVERAGE MISS LATENCY: 176.228 cycles
LLC RQ	ACCESS:    3213886	FORWARD:          0	MERGED:          0	TO_CACHE:    3213880
LLC WQ	ACCESS:     865169	FORWARD:          8	MERGED:          0	TO_CACHE:     865169
LLC PQ	ACCESS:      93761	FORWARD:          0	MERGED:          0	TO_CACHE:      93759

LLC Dense regions hint to LLC: 0

RAW hits: 3159669
Loads Generated: 49797173
Loads sent to L1D: 46637502
Stores Generated: 25941683
Stores sent to L1D: 25941685
Major fault: 0 Minor fault: 4280
Allocated PAGES: 4280
Completed 

DRAM Statistics
 CHANNEL 0
 RQ ROW_BUFFER_HIT:      17382  ROW_BUFFER_MISS:      69139
 DBUS_CONGESTED:         47
 WQ ROW_BUFFER_HIT:       5446  ROW_BUFFER_MISS:      47903  FULL:          0

 AVG_CONGESTED_CYCLE: 6
 All warmup complete: 2
Channel 0 Bank busy for read cycles: 0
Channel 0 Bank busy for write cycles: 0
Channel 0
Rank 0
0banks busy for read cycles: 580150025
0banks busy for write cycles: 31715
1banks busy for read cycles: 7412111
1banks busy for write cycles: 4542920
2banks busy for read cycles: 998657
2banks busy for write cycles: 958487
3banks busy for read cycles: 199624
3banks busy for write cycles: 266828
4banks busy for read cycles: 48559
4banks busy for write cycles: 62939
5banks busy for read cycles: 37424
5banks busy for write cycles: 30427
6banks busy for read cycles: 32560
6banks busy for write cycles: 22081
7banks busy for read cycles: 34518
7banks busy for write cycles: 34200
8banks busy for read cycles: 57606
8banks busy for write cycles: 152660

CPU 0 Branch Prediction Accuracy: 99.8256% MPKI: 0.309945 Average ROB Occupancy at Mispredict: 39.9534
Branch types
NOT_BRANCH: 164461168 82.2306%
BRANCH_DIRECT_JUMP: 2604773 1.30239%
BRANCH_INDIRECT: 12507392 6.2537%
BRANCH_CONDITIONAL: 12340417 6.17021%
BRANCH_DIRECT_CALL: 3088472 1.54424%
BRANCH_INDIRECT_CALL: 954646 0.477323%
BRANCH_RETURN: 4043103 2.02155%
BRANCH_OTHER: 0 0%

DRAM PAGES: 1048576
Allocated PAGES: 4280
