
*** ChampSim Multicore Out-of-Order Simulator ***

Warmup Instructions: 50000000
Simulation Instructions: 200000000
Number of CPUs: 1
LLC sets: 2048
LLC ways: 16
Off-chip DRAM Size: 4096 MB Channels: 1 Width: 64-bit Data Rate: 6400 MT/s
CPU 0 runs traces/spec2k17/srv_52.champsimtrace.xz
.xz
BTB has LRU replacement policy
ITLB has LRU replacement policy
DTLB has LRU replacement policy
STLB has LRU replacement policy
L1I has LRU replacement policy
L1D has LRU replacement policy
Initialize SRRIP state for L2C
Initialize DRRIP state for LLC
Heartbeat CPU 0 instructions: 10000000 cycles: 2944746 heartbeat IPC: 3.39588 cumulative IPC: 3.39588 (Simulation time: 0 hr 0 min 47 sec) 
Heartbeat CPU 0 instructions: 20000003 cycles: 5882365 heartbeat IPC: 3.40412 cumulative IPC: 3.39999 (Simulation time: 0 hr 1 min 17 sec) 
Heartbeat CPU 0 instructions: 30000000 cycles: 8812586 heartbeat IPC: 3.41271 cumulative IPC: 3.40422 (Simulation time: 0 hr 1 min 50 sec) 
*** Reached end of trace for Core: 0 Repeating trace: traces/spec2k17/srv_52.champsimtrace.xz
Heartbeat CPU 0 instructions: 40000001 cycles: 11750147 heartbeat IPC: 3.40419 cumulative IPC: 3.40421 (Simulation time: 0 hr 2 min 20 sec) 
Heartbeat CPU 0 instructions: 50000001 cycles: 14687268 heartbeat IPC: 3.40469 cumulative IPC: 3.40431 (Simulation time: 0 hr 2 min 51 sec) 

Warmup complete CPU 0 instructions: 50000001 cycles: 14687268 (Simulation time: 0 hr 2 min 51 sec) 

Heartbeat CPU 0 instructions: 60000000 cycles: 47605862 heartbeat IPC: 0.30378 cumulative IPC: 0.30378 (Simulation time: 0 hr 3 min 36 sec) 
*** Reached end of trace for Core: 0 Repeating trace: traces/spec2k17/srv_52.champsimtrace.xz
Heartbeat CPU 0 instructions: 70000000 cycles: 80078990 heartbeat IPC: 0.307947 cumulative IPC: 0.305849 (Simulation time: 0 hr 4 min 29 sec) 
Heartbeat CPU 0 instructions: 80000000 cycles: 114293714 heartbeat IPC: 0.292272 cumulative IPC: 0.301185 (Simulation time: 0 hr 5 min 33 sec) 
Heartbeat CPU 0 instructions: 90000000 cycles: 147147493 heartbeat IPC: 0.304379 cumulative IPC: 0.301977 (Simulation time: 0 hr 6 min 49 sec) 
*** Reached end of trace for Core: 0 Repeating trace: traces/spec2k17/srv_52.champsimtrace.xz
Heartbeat CPU 0 instructions: 100000000 cycles: 179799578 heartbeat IPC: 0.306259 cumulative IPC: 0.302824 (Simulation time: 0 hr 9 min 10 sec) 
Heartbeat CPU 0 instructions: 110000000 cycles: 213209322 heartbeat IPC: 0.299314 cumulative IPC: 0.302233 (Simulation time: 0 hr 10 min 32 sec) 
Heartbeat CPU 0 instructions: 120000000 cycles: 246611940 heartbeat IPC: 0.299378 cumulative IPC: 0.301822 (Simulation time: 0 hr 12 min 27 sec) 
*** Reached end of trace for Core: 0 Repeating trace: traces/spec2k17/srv_52.champsimtrace.xz
Heartbeat CPU 0 instructions: 130000002 cycles: 279088330 heartbeat IPC: 0.307916 cumulative IPC: 0.302571 (Simulation time: 0 hr 13 min 41 sec) 
Heartbeat CPU 0 instructions: 140000000 cycles: 312657319 heartbeat IPC: 0.297894 cumulative IPC: 0.302044 (Simulation time: 0 hr 14 min 34 sec) 
Heartbeat CPU 0 instructions: 150000000 cycles: 345732841 heartbeat IPC: 0.302338 cumulative IPC: 0.302073 (Simulation time: 0 hr 15 min 28 sec) 
*** Reached end of trace for Core: 0 Repeating trace: traces/spec2k17/srv_52.champsimtrace.xz
Heartbeat CPU 0 instructions: 160000000 cycles: 378131285 heartbeat IPC: 0.308657 cumulative IPC: 0.30266 (Simulation time: 0 hr 16 min 38 sec) 
Heartbeat CPU 0 instructions: 170000000 cycles: 411972461 heartbeat IPC: 0.295498 cumulative IPC: 0.30205 (Simulation time: 0 hr 17 min 46 sec) 
Heartbeat CPU 0 instructions: 180000000 cycles: 444765870 heartbeat IPC: 0.304939 cumulative IPC: 0.30227 (Simulation time: 0 hr 19 min 7 sec) 
*** Reached end of trace for Core: 0 Repeating trace: traces/spec2k17/srv_52.champsimtrace.xz
Heartbeat CPU 0 instructions: 190000001 cycles: 477400706 heartbeat IPC: 0.306421 cumulative IPC: 0.302563 (Simulation time: 0 hr 20 min 20 sec) 
Heartbeat CPU 0 instructions: 200000001 cycles: 511027670 heartbeat IPC: 0.29738 cumulative IPC: 0.302212 (Simulation time: 0 hr 21 min 28 sec) 
Heartbeat CPU 0 instructions: 210000003 cycles: 544184198 heartbeat IPC: 0.3016 cumulative IPC: 0.302174 (Simulation time: 0 hr 22 min 34 sec) 
*** Reached end of trace for Core: 0 Repeating trace: traces/spec2k17/srv_52.champsimtrace.xz
Heartbeat CPU 0 instructions: 220000000 cycles: 576844926 heartbeat IPC: 0.306178 cumulative IPC: 0.302406 (Simulation time: 0 hr 23 min 14 sec) 
Heartbeat CPU 0 instructions: 230000001 cycles: 610239311 heartbeat IPC: 0.299452 cumulative IPC: 0.302241 (Simulation time: 0 hr 23 min 53 sec) 
Heartbeat CPU 0 instructions: 240000000 cycles: 643196266 heartbeat IPC: 0.303426 cumulative IPC: 0.302303 (Simulation time: 0 hr 24 min 31 sec) 
*** Reached end of trace for Core: 0 Repeating trace: traces/spec2k17/srv_52.champsimtrace.xz
Heartbeat CPU 0 instructions: 250000000 cycles: 676157190 heartbeat IPC: 0.30339 cumulative IPC: 0.302357 (Simulation time: 0 hr 25 min 4 sec) 
Finished CPU 0 instructions: 200000003 cycles: 661469923 cumulative IPC: 0.302357 (Simulation time: 0 hr 25 min 4 sec) 

ChampSim completed all CPUs

Region of Interest Statistics

CPU 0 cumulative IPC: 0.302357 instructions: 200000003 cycles: 661469923
ITLB TOTAL     ACCESS:   34829325  HIT:   33188236  MISS:    1641089  HIT %:    95.2882  MISS %:     4.7118   MPKI: 8.20544
ITLB LOAD TRANSLATION ACCESS:   34829325  HIT:   33188236  MISS:    1641089  HIT %:    95.2882  MISS %:     4.7118   MPKI: 8.20544
ITLB PREFETCH  REQUESTED:          0  ISSUED:          0  USEFUL:          0  USELESS:          0
ITLB USEFUL LOAD PREFETCHES:          0 PREFETCH ISSUED TO LOWER LEVEL:          0  ACCURACY: -nan
ITLB TIMELY PREFETCHES:          0 LATE PREFETCHES: 0 DROPPED PREFETCHES: 0
ITLB PREFETCHES SAME FILL-ORIGIN LEVEL: 0 DIFFERENT FILL-ORIGIN LEVEL: 0
ITLB AVERAGE MISS LATENCY: 10.1364 cycles
ITLB RQ	ACCESS:   41088486	FORWARD:          0	MERGED:    5805946	TO_CACHE:   35282540

DTLB TOTAL     ACCESS:   43505959  HIT:   41816594  MISS:    1689365  HIT %:    96.1169  MISS %:    3.88307   MPKI: 8.44682
DTLB LOAD TRANSLATION ACCESS:   43505959  HIT:   41816594  MISS:    1689365  HIT %:    96.1169  MISS %:    3.88307   MPKI: 8.44682
DTLB PREFETCH  REQUESTED:          0  ISSUED:          0  USEFUL:          0  USELESS:          0
DTLB USEFUL LOAD PREFETCHES:          0 PREFETCH ISSUED TO LOWER LEVEL:          0  ACCURACY: -nan
DTLB TIMELY PREFETCHES:          0 LATE PREFETCHES: 0 DROPPED PREFETCHES: 0
DTLB PREFETCHES SAME FILL-ORIGIN LEVEL: 0 DIFFERENT FILL-ORIGIN LEVEL: 0
DTLB AVERAGE MISS LATENCY: 12.8583 cycles
DTLB RQ	ACCESS:   58956802	FORWARD:          0	MERGED:   15338239	TO_CACHE:   43618563

STLB TOTAL     ACCESS:    5227964  HIT:    5081797  MISS:     146167  HIT %:    97.2041  MISS %:    2.79587   MPKI: 0.730835
STLB LOAD TRANSLATION ACCESS:    3330454  HIT:    3186723  MISS:     143731  HIT %:    95.6843  MISS %:    4.31566   MPKI: 0.718655
STLB TRANSLATION FROM L1D PREFETCHER ACCESS:    1897510  HIT:    1895074  MISS:       2436  HIT %:    99.8716  MISS %:   0.128379   MPKI: 0.01218
STLB PREFETCH  REQUESTED:          0  ISSUED:          0  USEFUL:       2249  USELESS:        185
STLB USEFUL LOAD PREFETCHES:       2249 PREFETCH ISSUED TO LOWER LEVEL:          0  ACCURACY: inf
STLB TIMELY PREFETCHES:       2249 LATE PREFETCHES: 431 DROPPED PREFETCHES: 30143
STLB PREFETCHES SAME FILL-ORIGIN LEVEL: 0 DIFFERENT FILL-ORIGIN LEVEL: 0
STLB AVERAGE MISS LATENCY: 58.7073 cycles
STLB RQ	ACCESS:    6023330	FORWARD:          0	MERGED:     764712	TO_CACHE:    5258618

STLB Hit, L1D data hit: 0
STLB Hit, L2C data hit: 0
STLB Hit, LLC data hit: 0
STLB Hit, LLC data miss: 0
STLB STLB hints to L2: 0
L1D TOTAL     ACCESS:   59662820  HIT:   55524490  MISS:    4138330  HIT %:    93.0638  MISS %:     6.9362   MPKI: 20.6916
L1D LOAD      ACCESS:   35380648  HIT:   32543528  MISS:    2837120  HIT %:    91.9812  MISS %:    8.01885   MPKI: 14.1856
L1D RFO       ACCESS:   21727453  HIT:   20538770  MISS:    1188683  HIT %:    94.5291  MISS %:    5.47088   MPKI: 5.94341
L1D PREFETCH  ACCESS:    2554719  HIT:    2442192  MISS:     112527  HIT %:    95.5953  MISS %:    4.40467   MPKI: 0.562635
AGUS PREFETCH L1 MISS: 0
L1D PREFETCH  REQUESTED:    5725992  ISSUED:    5725855  USEFUL:      66778  USELESS:      45751
L1D USEFUL LOAD PREFETCHES:      66778 PREFETCH ISSUED TO LOWER LEVEL:     158232  ACCURACY: 42.2026
L1D TIMELY PREFETCHES:      66778 LATE PREFETCHES: 45501 DROPPED PREFETCHES: 36378
L1D PREFETCHES SAME FILL-ORIGIN LEVEL: 158232 DIFFERENT FILL-ORIGIN LEVEL: 0
L1D AVERAGE MISS LATENCY: 4.66375e+06 cycles
L1D RQ	ACCESS:   45981318	FORWARD:          0	MERGED:   10242674	TO_CACHE:   35551941
L1D WQ	ACCESS:   23620808	FORWARD:     195844	MERGED:     215947	TO_CACHE:   23404861
L1D PQ	ACCESS:    3032979	FORWARD:          0	MERGED:     330962	TO_CACHE:    2692876

L1D UNIQUE REGIONS ACCESSED: 0
L1D REGIONS CONFLICTS: 0
L1D Cross Page Prefetch Requests: 2058779
L1D Same Page Prefetch Requests: 1098040
L1D ROI Sum of L1D PQ occupancy: 41638669
L1D PREFETCHES PUSHED FROM L2C: 0
L1I TOTAL     ACCESS:   39833158  HIT:   31333409  MISS:    8499749  HIT %:    78.6616  MISS %:    21.3384   MPKI: 42.4987
L1I LOAD      ACCESS:   39833158  HIT:   31333409  MISS:    8499749  HIT %:    78.6616  MISS %:    21.3384   MPKI: 42.4987
L1I PREFETCH  REQUESTED:          0  ISSUED:          0  USEFUL:          0  USELESS:          0
L1I USEFUL LOAD PREFETCHES:          0 PREFETCH ISSUED TO LOWER LEVEL:          0  ACCURACY: -nan
L1I TIMELY PREFETCHES:          0 LATE PREFETCHES: 0 DROPPED PREFETCHES: 0
L1I PREFETCHES SAME FILL-ORIGIN LEVEL: 0 DIFFERENT FILL-ORIGIN LEVEL: 0
L1I AVERAGE MISS LATENCY: 21.6521 cycles
L1I RQ	ACCESS:   60221234	FORWARD:          0	MERGED:   19132748	TO_CACHE:   41088486

BTB TOTAL     ACCESS:   30246498  HIT:   19435980  MISS:   10810518  HIT %:    64.2586  MISS %:    35.7414   MPKI: 54.0526
BTB BRANCH_DIRECT_JUMP	ACCESS:    1982982  HIT:    1218303  MISS:     764679
BTB BRANCH_INDIRECT	ACCESS:   12253769  HIT:    7844105  MISS:    4409664
BTB BRANCH_CONDITIONAL	ACCESS:    7055938  HIT:    6130163  MISS:     925775
BTB BRANCH_DIRECT_CALL	ACCESS:    3467834  HIT:    2019941  MISS:    1447893
BTB BRANCH_INDIRECT_CALL	ACCESS:    1009127  HIT:     529624  MISS:     479503
BTB BRANCH_RETURN	ACCESS:    4476848  HIT:    1693844  MISS:    2783004
BTB BRANCH_OTHER ACCESS:          0  HIT:          0  MISS:          0

L2C TOTAL     ACCESS:   15007452  HIT:   10807075  MISS:    4200377  HIT %:    72.0114  MISS %:    27.9886   MPKI: 21.0019
L2C LOAD      ACCESS:   11291363  HIT:    8071892  MISS:    3219471  HIT %:    71.4873  MISS %:    28.5127   MPKI: 16.0974
L2C DATA LOAD MPKI: 5.5197
L2C INSTRUCTION LOAD MPKI: 10.5777
L2C RFO       ACCESS:    1188483  HIT:     546196  MISS:     642287  HIT %:    45.9574  MISS %:    54.0426   MPKI: 3.21143
L2C PREFETCH  ACCESS:     158229  HIT:      84976  MISS:      73253  HIT %:    53.7044  MISS %:    46.2956   MPKI: 0.366265
AGUS PREFETCH L1 MISS: 0
L2C DATA PREFETCH MPKI: 0.366265
L2C INSTRUCTION PREFETCH MPKI: 0
L2C WRITEBACK ACCESS:    2103308  HIT:    1961799  MISS:     141509  HIT %:    93.2721  MISS %:    6.72793   MPKI: 0.707545
L2C LOAD TRANSLATION ACCESS:     219264  HIT:     108115  MISS:     111149  HIT %:    49.3081  MISS %:    50.6919   MPKI: 0.555745
L2C TRANSLATION FROM L1D PREFETCHER ACCESS:      46805  HIT:      34097  MISS:      12708  HIT %:    72.8491  MISS %:    27.1509   MPKI: 0.06354
L2C PREFETCH  REQUESTED:          0  ISSUED:          0  USEFUL:      13254  USELESS:      72759
L2C USEFUL LOAD PREFETCHES:      13254 PREFETCH ISSUED TO LOWER LEVEL:      73253  ACCURACY: 18.0935
L2C TIMELY PREFETCHES:      13254 LATE PREFETCHES: 0 DROPPED PREFETCHES: 0
L2C PREFETCHES SAME FILL-ORIGIN LEVEL: 0 DIFFERENT FILL-ORIGIN LEVEL: 0
L2C AVERAGE MISS LATENCY: 47.2229 cycles
L2C RQ	ACCESS:   12745932	FORWARD:          0	MERGED:          0	TO_CACHE:   12745927
L2C WQ	ACCESS:    2103310	FORWARD:          8	MERGED:          0	TO_CACHE:    2103310
L2C PQ	ACCESS:     158232	FORWARD:          0	MERGED:          0	TO_CACHE:     158229

L2C Instructions Evicting Data 864514
L2C Translations Evicting Data 68962
L2C Data Evicting Data 956558
L2C Instructions Evicting Instructions 1201167
L2C Translations Evicting Instructions 49710
L2C Data Evicting Instructions 797912
L2C Instructions Evicting Translations 49850
L2C Translations Evicting Translations 5185
L2C Data Evicting Translations 65010
L2C Dense regions hint from L2: 0
PSCL5 TOTAL     ACCESS:     175130  HIT:     175130  MISS:          0  HIT %:        100  MISS %:          0   MPKI: 0
PSCL5 LOAD TRANSLATION ACCESS:     143300  HIT:     143300  MISS:          0  HIT %:        100  MISS %:          0   MPKI: 0
PSCL5 TRANSLATION FROM L1D PREFETCHER ACCESS:      31830  HIT:      31830  MISS:          0  HIT %:        100  MISS %:          0   MPKI: 0
PSCL5 PREFETCH  REQUESTED:          0  ISSUED:          0  USEFUL:          0  USELESS:          0
PSCL5 USEFUL LOAD PREFETCHES:          0 PREFETCH ISSUED TO LOWER LEVEL:          0  ACCURACY: -nan
PSCL5 TIMELY PREFETCHES:          0 LATE PREFETCHES: 0 DROPPED PREFETCHES: 0
PSCL5 PREFETCHES SAME FILL-ORIGIN LEVEL: 0 DIFFERENT FILL-ORIGIN LEVEL: 0

PSCL4 TOTAL     ACCESS:     170204  HIT:     168944  MISS:       1260  HIT %:    99.2597  MISS %:   0.740288   MPKI: 0.0063
PSCL4 LOAD TRANSLATION ACCESS:     140505  HIT:     139245  MISS:       1260  HIT %:    99.1032  MISS %:   0.896765   MPKI: 0.0063
PSCL4 TRANSLATION FROM L1D PREFETCHER ACCESS:      29699  HIT:      29699  MISS:          0  HIT %:        100  MISS %:          0   MPKI: 0
PSCL4 PREFETCH  REQUESTED:          0  ISSUED:          0  USEFUL:          0  USELESS:          0
PSCL4 USEFUL LOAD PREFETCHES:          0 PREFETCH ISSUED TO LOWER LEVEL:          0  ACCURACY: -nan
PSCL4 TIMELY PREFETCHES:          0 LATE PREFETCHES: 0 DROPPED PREFETCHES: 0
PSCL4 PREFETCHES SAME FILL-ORIGIN LEVEL: 0 DIFFERENT FILL-ORIGIN LEVEL: 0

PSCL3 TOTAL     ACCESS:     156812  HIT:     137528  MISS:      19284  HIT %:    87.7025  MISS %:    12.2975   MPKI: 0.09642
PSCL3 LOAD TRANSLATION ACCESS:     132491  HIT:     113207  MISS:      19284  HIT %:     85.445  MISS %:     14.555   MPKI: 0.09642
PSCL3 TRANSLATION FROM L1D PREFETCHER ACCESS:      24321  HIT:      24321  MISS:          0  HIT %:        100  MISS %:          0   MPKI: 0
PSCL3 PREFETCH  REQUESTED:          0  ISSUED:          0  USEFUL:          0  USELESS:          0
PSCL3 USEFUL LOAD PREFETCHES:          0 PREFETCH ISSUED TO LOWER LEVEL:          0  ACCURACY: -nan
PSCL3 TIMELY PREFETCHES:          0 LATE PREFETCHES: 0 DROPPED PREFETCHES: 0
PSCL3 PREFETCHES SAME FILL-ORIGIN LEVEL: 0 DIFFERENT FILL-ORIGIN LEVEL: 0

PSCL2 TOTAL     ACCESS:     161246  HIT:     103486  MISS:      57760  HIT %:     64.179  MISS %:     35.821   MPKI: 0.2888
PSCL2 LOAD TRANSLATION ACCESS:     145062  HIT:      87302  MISS:      57760  HIT %:    60.1825  MISS %:    39.8175   MPKI: 0.2888
PSCL2 TRANSLATION FROM L1D PREFETCHER ACCESS:      16184  HIT:      16184  MISS:          0  HIT %:        100  MISS %:          0   MPKI: 0
PSCL2 PREFETCH  REQUESTED:          0  ISSUED:          0  USEFUL:          0  USELESS:          0
PSCL2 USEFUL LOAD PREFETCHES:          0 PREFETCH ISSUED TO LOWER LEVEL:          0  ACCURACY: -nan
PSCL2 TIMELY PREFETCHES:          0 LATE PREFETCHES: 0 DROPPED PREFETCHES: 0
PSCL2 PREFETCHES SAME FILL-ORIGIN LEVEL: 0 DIFFERENT FILL-ORIGIN LEVEL: 0

LLC TOTAL     ACCESS:    5116833  HIT:    4785146  MISS:     331687  HIT %:    93.5177  MISS %:    6.48227   MPKI: 1.65843
LLC LOAD      ACCESS:    3219471  HIT:    3076172  MISS:     143299  HIT %:     95.549  MISS %:    4.45101   MPKI: 0.716495
LLC RFO       ACCESS:     642279  HIT:     490227  MISS:     152052  HIT %:    76.3262  MISS %:    23.6738   MPKI: 0.76026
LLC PREFETCH  ACCESS:      73253  HIT:      46824  MISS:      26429  HIT %:    63.9209  MISS %:    36.0791   MPKI: 0.132145
AGUS PREFETCH L1 MISS: 0
LLC WRITEBACK ACCESS:    1057973  HIT:    1056633  MISS:       1340  HIT %:    99.8733  MISS %:   0.126657   MPKI: 0.0067
LLC LOAD TRANSLATION ACCESS:     111149  HIT:     102946  MISS:       8203  HIT %:    92.6198  MISS %:    7.38018   MPKI: 0.041015
LLC TRANSLATION FROM L1D PREFETCHER ACCESS:      12708  HIT:      12344  MISS:        364  HIT %:    97.1357  MISS %:    2.86434   MPKI: 0.00182
LLC PREFETCH  REQUESTED:          0  ISSUED:          0  USEFUL:        252  USELESS:      27377
LLC USEFUL LOAD PREFETCHES:        252 PREFETCH ISSUED TO LOWER LEVEL:      26429  ACCURACY: 0.953498
LLC TIMELY PREFETCHES:        252 LATE PREFETCHES: 0 DROPPED PREFETCHES: 0
LLC PREFETCHES SAME FILL-ORIGIN LEVEL: 0 DIFFERENT FILL-ORIGIN LEVEL: 0
LLC AVERAGE MISS LATENCY: 230.901 cycles
LLC RQ	ACCESS:    3985624	FORWARD:          0	MERGED:          0	TO_CACHE:    3985616
LLC WQ	ACCESS:    1057974	FORWARD:          8	MERGED:          0	TO_CACHE:    1057974
LLC PQ	ACCESS:      73253	FORWARD:          0	MERGED:          0	TO_CACHE:      73253

LLC Dense regions hint to LLC: 0

RAW hits: 1993582
Loads Generated: 47974900
Loads sent to L1D: 45981318
Stores Generated: 23620831
Stores sent to L1D: 23620808
Major fault: 0 Minor fault: 5016
Allocated PAGES: 5016
Completed 

DRAM Statistics
 CHANNEL 0
 RQ ROW_BUFFER_HIT:      81364  ROW_BUFFER_MISS:     248979
 DBUS_CONGESTED:        103
 WQ ROW_BUFFER_HIT:      29708  ROW_BUFFER_MISS:     201446  FULL:          0

 AVG_CONGESTED_CYCLE: 4
 All warmup complete: 2
Channel 0 Bank busy for read cycles: 0
Channel 0 Bank busy for write cycles: 0
Channel 0
Rank 0
0banks busy for read cycles: 617198913
0banks busy for write cycles: 88223
1banks busy for read cycles: 19207254
1banks busy for write cycles: 12382540
2banks busy for read cycles: 3230641
2banks busy for write cycles: 3000185
3banks busy for read cycles: 764494
3banks busy for write cycles: 1010072
4banks busy for read cycles: 150577
4banks busy for write cycles: 381199
5banks busy for read cycles: 89779
5banks busy for write cycles: 152297
6banks busy for read cycles: 127876
6banks busy for write cycles: 89100
7banks busy for read cycles: 246445
7banks busy for write cycles: 159617
8banks busy for read cycles: 1267807
8banks busy for write cycles: 1922905

CPU 0 Branch Prediction Accuracy: 99.8298% MPKI: 0.297015 Average ROB Occupancy at Mispredict: 22.0147
Branch types
NOT_BRANCH: 165095766 82.5479%
BRANCH_DIRECT_JUMP: 1982982 0.991491%
BRANCH_INDIRECT: 12253769 6.12688%
BRANCH_CONDITIONAL: 11713942 5.85697%
BRANCH_DIRECT_CALL: 3467834 1.73392%
BRANCH_INDIRECT_CALL: 1009127 0.504563%
BRANCH_RETURN: 4476848 2.23842%
BRANCH_OTHER: 0 0%

DRAM PAGES: 1048576
Allocated PAGES: 5016
