
*** ChampSim Multicore Out-of-Order Simulator ***

Warmup Instructions: 50000000
Simulation Instructions: 200000000
Number of CPUs: 1
LLC sets: 2048
LLC ways: 16
Off-chip DRAM Size: 4096 MB Channels: 1 Width: 64-bit Data Rate: 6400 MT/s
CPU 0 runs traces/spec2k17/srv_40.champsimtrace.xz
.xz
BTB has LRU replacement policy
ITLB has LRU replacement policy
DTLB has LRU replacement policy
STLB has LRU replacement policy
L1I has LRU replacement policy
L1D has LRU replacement policy
Initialize SRRIP state for L2C
Initialize DRRIP state for LLC
Heartbeat CPU 0 instructions: 10000001 cycles: 2802473 heartbeat IPC: 3.56828 cumulative IPC: 3.56828 (Simulation time: 0 hr 0 min 43 sec) 
Heartbeat CPU 0 instructions: 20000003 cycles: 5824408 heartbeat IPC: 3.30914 cumulative IPC: 3.43383 (Simulation time: 0 hr 1 min 26 sec) 
Heartbeat CPU 0 instructions: 30000002 cycles: 8855862 heartbeat IPC: 3.29875 cumulative IPC: 3.38759 (Simulation time: 0 hr 2 min 17 sec) 
*** Reached end of trace for Core: 0 Repeating trace: traces/spec2k17/srv_40.champsimtrace.xz
Heartbeat CPU 0 instructions: 40000000 cycles: 11667289 heartbeat IPC: 3.55691 cumulative IPC: 3.42839 (Simulation time: 0 hr 3 min 2 sec) 
Heartbeat CPU 0 instructions: 50000003 cycles: 14682518 heartbeat IPC: 3.3165 cumulative IPC: 3.40541 (Simulation time: 0 hr 3 min 50 sec) 

Warmup complete CPU 0 instructions: 50000003 cycles: 14682518 (Simulation time: 0 hr 3 min 50 sec) 

Heartbeat CPU 0 instructions: 60000000 cycles: 28321659 heartbeat IPC: 0.733184 cumulative IPC: 0.733184 (Simulation time: 0 hr 4 min 39 sec) 
*** Reached end of trace for Core: 0 Repeating trace: traces/spec2k17/srv_40.champsimtrace.xz
Heartbeat CPU 0 instructions: 70000003 cycles: 44432642 heartbeat IPC: 0.620695 cumulative IPC: 0.672266 (Simulation time: 0 hr 5 min 35 sec) 
Heartbeat CPU 0 instructions: 80000001 cycles: 59606880 heartbeat IPC: 0.659012 cumulative IPC: 0.667789 (Simulation time: 0 hr 6 min 26 sec) 
Heartbeat CPU 0 instructions: 90000001 cycles: 73161606 heartbeat IPC: 0.73775 cumulative IPC: 0.684005 (Simulation time: 0 hr 7 min 16 sec) 
*** Reached end of trace for Core: 0 Repeating trace: traces/spec2k17/srv_40.champsimtrace.xz
Heartbeat CPU 0 instructions: 100000002 cycles: 89361911 heartbeat IPC: 0.617272 cumulative IPC: 0.669529 (Simulation time: 0 hr 8 min 18 sec) 
Heartbeat CPU 0 instructions: 110000000 cycles: 104316974 heartbeat IPC: 0.66867 cumulative IPC: 0.669385 (Simulation time: 0 hr 9 min 13 sec) 
Heartbeat CPU 0 instructions: 120000001 cycles: 117883796 heartbeat IPC: 0.737092 cumulative IPC: 0.678286 (Simulation time: 0 hr 10 min 4 sec) 
*** Reached end of trace for Core: 0 Repeating trace: traces/spec2k17/srv_40.champsimtrace.xz
Heartbeat CPU 0 instructions: 130000003 cycles: 134185548 heartbeat IPC: 0.613431 cumulative IPC: 0.669439 (Simulation time: 0 hr 11 min 10 sec) 
Heartbeat CPU 0 instructions: 140000003 cycles: 149030993 heartbeat IPC: 0.673607 cumulative IPC: 0.6699 (Simulation time: 0 hr 12 min 15 sec) 
Heartbeat CPU 0 instructions: 150000000 cycles: 162570618 heartbeat IPC: 0.738573 cumulative IPC: 0.676187 (Simulation time: 0 hr 13 min 21 sec) 
*** Reached end of trace for Core: 0 Repeating trace: traces/spec2k17/srv_40.champsimtrace.xz
Heartbeat CPU 0 instructions: 160000001 cycles: 178984086 heartbeat IPC: 0.609256 cumulative IPC: 0.669501 (Simulation time: 0 hr 14 min 49 sec) 
Heartbeat CPU 0 instructions: 170000000 cycles: 193723251 heartbeat IPC: 0.678464 cumulative IPC: 0.670239 (Simulation time: 0 hr 16 min 35 sec) 
Heartbeat CPU 0 instructions: 180000003 cycles: 207240343 heartbeat IPC: 0.739804 cumulative IPC: 0.675122 (Simulation time: 0 hr 18 min 19 sec) 
*** Reached end of trace for Core: 0 Repeating trace: traces/spec2k17/srv_40.champsimtrace.xz
Heartbeat CPU 0 instructions: 190000001 cycles: 223792407 heartbeat IPC: 0.604154 cumulative IPC: 0.669504 (Simulation time: 0 hr 20 min 36 sec) 
Heartbeat CPU 0 instructions: 200000002 cycles: 238388084 heartbeat IPC: 0.685134 cumulative IPC: 0.670524 (Simulation time: 0 hr 25 min 7 sec) 
Heartbeat CPU 0 instructions: 210000000 cycles: 251949463 heartbeat IPC: 0.737388 cumulative IPC: 0.674346 (Simulation time: 0 hr 28 min 56 sec) 
*** Reached end of trace for Core: 0 Repeating trace: traces/spec2k17/srv_40.champsimtrace.xz
Heartbeat CPU 0 instructions: 220000000 cycles: 268676664 heartbeat IPC: 0.597829 cumulative IPC: 0.669307 (Simulation time: 0 hr 32 min 33 sec) 
Heartbeat CPU 0 instructions: 230000000 cycles: 283082414 heartbeat IPC: 0.694167 cumulative IPC: 0.670641 (Simulation time: 0 hr 38 min 15 sec) 
Heartbeat CPU 0 instructions: 240000000 cycles: 296640759 heartbeat IPC: 0.737553 cumulative IPC: 0.673859 (Simulation time: 0 hr 39 min 56 sec) 
*** Reached end of trace for Core: 0 Repeating trace: traces/spec2k17/srv_40.champsimtrace.xz
Heartbeat CPU 0 instructions: 250000002 cycles: 313119891 heartbeat IPC: 0.606828 cumulative IPC: 0.670157 (Simulation time: 0 hr 42 min 17 sec) 
Finished CPU 0 instructions: 200000003 cycles: 298437374 cumulative IPC: 0.670157 (Simulation time: 0 hr 42 min 17 sec) 

ChampSim completed all CPUs

Region of Interest Statistics

CPU 0 cumulative IPC: 0.670157 instructions: 200000003 cycles: 298437374
ITLB TOTAL     ACCESS:   29005825  HIT:   28740334  MISS:     265491  HIT %:    99.0847  MISS %:   0.915302   MPKI: 1.32745
ITLB LOAD TRANSLATION ACCESS:   29005825  HIT:   28740334  MISS:     265491  HIT %:    99.0847  MISS %:   0.915302   MPKI: 1.32745
ITLB PREFETCH  REQUESTED:          0  ISSUED:          0  USEFUL:          0  USELESS:          0
ITLB USEFUL LOAD PREFETCHES:          0 PREFETCH ISSUED TO LOWER LEVEL:          0  ACCURACY: -nan
ITLB TIMELY PREFETCHES:          0 LATE PREFETCHES: 0 DROPPED PREFETCHES: 0
ITLB PREFETCHES SAME FILL-ORIGIN LEVEL: 0 DIFFERENT FILL-ORIGIN LEVEL: 0
ITLB AVERAGE MISS LATENCY: 11.3797 cycles
ITLB RQ	ACCESS:   37713974	FORWARD:          0	MERGED:    8614017	TO_CACHE:   29099957

DTLB TOTAL     ACCESS:   36754687  HIT:   36440180  MISS:     314507  HIT %:    99.1443  MISS %:   0.855692   MPKI: 1.57253
DTLB LOAD TRANSLATION ACCESS:   36754687  HIT:   36440180  MISS:     314507  HIT %:    99.1443  MISS %:   0.855692   MPKI: 1.57253
DTLB PREFETCH  REQUESTED:          0  ISSUED:          0  USEFUL:          0  USELESS:          0
DTLB USEFUL LOAD PREFETCHES:          0 PREFETCH ISSUED TO LOWER LEVEL:          0  ACCURACY: -nan
DTLB TIMELY PREFETCHES:          0 LATE PREFETCHES: 0 DROPPED PREFETCHES: 0
DTLB PREFETCHES SAME FILL-ORIGIN LEVEL: 0 DIFFERENT FILL-ORIGIN LEVEL: 0
DTLB AVERAGE MISS LATENCY: 21.527 cycles
DTLB RQ	ACCESS:   54969371	FORWARD:          0	MERGED:   18110392	TO_CACHE:   36858979

STLB TOTAL     ACCESS:    1636544  HIT:    1588764  MISS:      47780  HIT %:    97.0804  MISS %:    2.91957   MPKI: 0.2389
STLB LOAD TRANSLATION ACCESS:     579998  HIT:     536487  MISS:      43511  HIT %:    92.4981  MISS %:    7.50192   MPKI: 0.217555
STLB TRANSLATION FROM L1D PREFETCHER ACCESS:    1056546  HIT:    1052277  MISS:       4269  HIT %:    99.5959  MISS %:   0.404052   MPKI: 0.021345
STLB PREFETCH  REQUESTED:          0  ISSUED:          0  USEFUL:       4265  USELESS:          5
STLB USEFUL LOAD PREFETCHES:       4265 PREFETCH ISSUED TO LOWER LEVEL:          0  ACCURACY: inf
STLB TIMELY PREFETCHES:       4265 LATE PREFETCHES: 602 DROPPED PREFETCHES: 4861
STLB PREFETCHES SAME FILL-ORIGIN LEVEL: 0 DIFFERENT FILL-ORIGIN LEVEL: 0
STLB AVERAGE MISS LATENCY: 107.337 cycles
STLB RQ	ACCESS:    2232633	FORWARD:          0	MERGED:     590530	TO_CACHE:    1642103

STLB Hit, L1D data hit: 0
STLB Hit, L2C data hit: 0
STLB Hit, LLC data hit: 0
STLB Hit, LLC data miss: 0
STLB STLB hints to L2: 0
L1D TOTAL     ACCESS:   52968519  HIT:   50589131  MISS:    2379388  HIT %:    95.5079  MISS %:    4.49208   MPKI: 11.8969
L1D LOAD      ACCESS:   42975316  HIT:   41806124  MISS:    1169192  HIT %:    97.2794  MISS %:    2.72061   MPKI: 5.84596
L1D RFO       ACCESS:    8781820  HIT:    7676957  MISS:    1104863  HIT %:    87.4187  MISS %:    12.5813   MPKI: 5.52431
L1D PREFETCH  ACCESS:    1211383  HIT:    1106050  MISS:     105333  HIT %:    91.3047  MISS %:    8.69527   MPKI: 0.526665
AGUS PREFETCH L1 MISS: 0
L1D PREFETCH  REQUESTED:    3546543  ISSUED:    3546466  USEFUL:     101988  USELESS:       3343
L1D USEFUL LOAD PREFETCHES:     101988 PREFETCH ISSUED TO LOWER LEVEL:     348273  ACCURACY: 29.2839
L1D TIMELY PREFETCHES:     101988 LATE PREFETCHES: 242806 DROPPED PREFETCHES: 6796
L1D PREFETCHES SAME FILL-ORIGIN LEVEL: 348273 DIFFERENT FILL-ORIGIN LEVEL: 0
L1D AVERAGE MISS LATENCY: 1.7105e+07 cycles
L1D RQ	ACCESS:   49887148	FORWARD:          0	MERGED:    6721778	TO_CACHE:   43047253
L1D WQ	ACCESS:   12021205	FORWARD:     119278	MERGED:      99087	TO_CACHE:   11922118
L1D PQ	ACCESS:    1893831	FORWARD:          0	MERGED:     240035	TO_CACHE:    1652635

L1D UNIQUE REGIONS ACCESSED: 0
L1D REGIONS CONFLICTS: 0
L1D Cross Page Prefetch Requests: 1053069
L1D Same Page Prefetch Requests: 1130518
L1D ROI Sum of L1D PQ occupancy: 32583249
L1D PREFETCHES PUSHED FROM L2C: 0
L1I TOTAL     ACCESS:   37373183  HIT:   36104760  MISS:    1268423  HIT %:    96.6061  MISS %:    3.39394   MPKI: 6.34211
L1I LOAD      ACCESS:   37373183  HIT:   36104760  MISS:    1268423  HIT %:    96.6061  MISS %:    3.39394   MPKI: 6.34211
L1I PREFETCH  REQUESTED:          0  ISSUED:          0  USEFUL:          0  USELESS:          0
L1I USEFUL LOAD PREFETCHES:          0 PREFETCH ISSUED TO LOWER LEVEL:          0  ACCURACY: -nan
L1I TIMELY PREFETCHES:          0 LATE PREFETCHES: 0 DROPPED PREFETCHES: 0
L1I PREFETCHES SAME FILL-ORIGIN LEVEL: 0 DIFFERENT FILL-ORIGIN LEVEL: 0
L1I AVERAGE MISS LATENCY: 26.8152 cycles
L1I RQ	ACCESS:   53160303	FORWARD:          0	MERGED:   15446329	TO_CACHE:   37713974

BTB TOTAL     ACCESS:   13141795  HIT:   12087746  MISS:    1054049  HIT %:    91.9794  MISS %:    8.02059   MPKI: 5.27024
BTB BRANCH_DIRECT_JUMP	ACCESS:    1417010  HIT:    1361698  MISS:      55312
BTB BRANCH_INDIRECT	ACCESS:    4725375  HIT:    4385112  MISS:     340263
BTB BRANCH_CONDITIONAL	ACCESS:    4838902  HIT:    4776127  MISS:      62775
BTB BRANCH_DIRECT_CALL	ACCESS:     958453  HIT:     856614  MISS:     101839
BTB BRANCH_INDIRECT_CALL	ACCESS:     121813  HIT:      97196  MISS:      24617
BTB BRANCH_RETURN	ACCESS:    1080242  HIT:     610999  MISS:     469243
BTB BRANCH_OTHER ACCESS:          0  HIT:          0  MISS:          0

L2C TOTAL     ACCESS:    5003842  HIT:    3146178  MISS:    1857664  HIT %:    62.8752  MISS %:    37.1248   MPKI: 9.28832
L2C LOAD      ACCESS:    2194804  HIT:    1654473  MISS:     540331  HIT %:    75.3814  MISS %:    24.6186   MPKI: 2.70165
L2C DATA LOAD MPKI: 1.54559
L2C INSTRUCTION LOAD MPKI: 1.15606
L2C RFO       ACCESS:    1104687  HIT:     129575  MISS:     975112  HIT %:    11.7296  MISS %:    88.2704   MPKI: 4.87556
L2C PREFETCH  ACCESS:     348273  HIT:      46856  MISS:     301417  HIT %:    13.4538  MISS %:    86.5462   MPKI: 1.50708
AGUS PREFETCH L1 MISS: 0
L2C DATA PREFETCH MPKI: 1.50708
L2C INSTRUCTION PREFETCH MPKI: 0
L2C WRITEBACK ACCESS:    1289240  HIT:    1271533  MISS:      17707  HIT %:    98.6266  MISS %:    1.37344   MPKI: 0.088535
L2C LOAD TRANSLATION ACCESS:      55471  HIT:      33565  MISS:      21906  HIT %:    60.5091  MISS %:    39.4909   MPKI: 0.10953
L2C TRANSLATION FROM L1D PREFETCHER ACCESS:      11367  HIT:      10176  MISS:       1191  HIT %:    89.5223  MISS %:    10.4777   MPKI: 0.005955
L2C PREFETCH  REQUESTED:          0  ISSUED:          0  USEFUL:       2138  USELESS:     301561
L2C USEFUL LOAD PREFETCHES:       2138 PREFETCH ISSUED TO LOWER LEVEL:     301417  ACCURACY: 0.709316
L2C TIMELY PREFETCHES:       2138 LATE PREFETCHES: 0 DROPPED PREFETCHES: 0
L2C PREFETCHES SAME FILL-ORIGIN LEVEL: 0 DIFFERENT FILL-ORIGIN LEVEL: 0
L2C AVERAGE MISS LATENCY: 275.585 cycles
L2C RQ	ACCESS:    3366376	FORWARD:          0	MERGED:          0	TO_CACHE:    3366329
L2C WQ	ACCESS:    1289240	FORWARD:         47	MERGED:          0	TO_CACHE:    1289240
L2C PQ	ACCESS:     348273	FORWARD:          0	MERGED:          0	TO_CACHE:     348273

L2C Instructions Evicting Data 126073
L2C Translations Evicting Data 15470
L2C Data Evicting Data 1452348
L2C Instructions Evicting Instructions 97455
L2C Translations Evicting Instructions 6988
L2C Data Evicting Instructions 119162
L2C Instructions Evicting Translations 7685
L2C Translations Evicting Translations 639
L2C Data Evicting Translations 14137
L2C Dense regions hint from L2: 0
PSCL5 TOTAL     ACCESS:      52623  HIT:      52623  MISS:          0  HIT %:        100  MISS %:          0   MPKI: 0
PSCL5 LOAD TRANSLATION ACCESS:      42909  HIT:      42909  MISS:          0  HIT %:        100  MISS %:          0   MPKI: 0
PSCL5 TRANSLATION FROM L1D PREFETCHER ACCESS:       9714  HIT:       9714  MISS:          0  HIT %:        100  MISS %:          0   MPKI: 0
PSCL5 PREFETCH  REQUESTED:          0  ISSUED:          0  USEFUL:          0  USELESS:          0
PSCL5 USEFUL LOAD PREFETCHES:          0 PREFETCH ISSUED TO LOWER LEVEL:          0  ACCURACY: -nan
PSCL5 TIMELY PREFETCHES:          0 LATE PREFETCHES: 0 DROPPED PREFETCHES: 0
PSCL5 PREFETCHES SAME FILL-ORIGIN LEVEL: 0 DIFFERENT FILL-ORIGIN LEVEL: 0

PSCL4 TOTAL     ACCESS:      52143  HIT:      51998  MISS:        145  HIT %:    99.7219  MISS %:   0.278081   MPKI: 0.000725
PSCL4 LOAD TRANSLATION ACCESS:      42455  HIT:      42310  MISS:        145  HIT %:    99.6585  MISS %:   0.341538   MPKI: 0.000725
PSCL4 TRANSLATION FROM L1D PREFETCHER ACCESS:       9688  HIT:       9688  MISS:          0  HIT %:        100  MISS %:          0   MPKI: 0
PSCL4 PREFETCH  REQUESTED:          0  ISSUED:          0  USEFUL:          0  USELESS:          0
PSCL4 USEFUL LOAD PREFETCHES:          0 PREFETCH ISSUED TO LOWER LEVEL:          0  ACCURACY: -nan
PSCL4 TIMELY PREFETCHES:          0 LATE PREFETCHES: 0 DROPPED PREFETCHES: 0
PSCL4 PREFETCHES SAME FILL-ORIGIN LEVEL: 0 DIFFERENT FILL-ORIGIN LEVEL: 0

PSCL3 TOTAL     ACCESS:      41579  HIT:      38212  MISS:       3367  HIT %:    91.9022  MISS %:    8.09784   MPKI: 0.016835
PSCL3 LOAD TRANSLATION ACCESS:      37968  HIT:      34601  MISS:       3367  HIT %:     91.132  MISS %:    8.86799   MPKI: 0.016835
PSCL3 TRANSLATION FROM L1D PREFETCHER ACCESS:       3611  HIT:       3611  MISS:          0  HIT %:        100  MISS %:          0   MPKI: 0
PSCL3 PREFETCH  REQUESTED:          0  ISSUED:          0  USEFUL:          0  USELESS:          0
PSCL3 USEFUL LOAD PREFETCHES:          0 PREFETCH ISSUED TO LOWER LEVEL:          0  ACCURACY: -nan
PSCL3 TIMELY PREFETCHES:          0 LATE PREFETCHES: 0 DROPPED PREFETCHES: 0
PSCL3 PREFETCHES SAME FILL-ORIGIN LEVEL: 0 DIFFERENT FILL-ORIGIN LEVEL: 0

PSCL2 TOTAL     ACCESS:      48507  HIT:      39383  MISS:       9124  HIT %:    81.1903  MISS %:    18.8097   MPKI: 0.04562
PSCL2 LOAD TRANSLATION ACCESS:      42958  HIT:      33834  MISS:       9124  HIT %:    78.7606  MISS %:    21.2394   MPKI: 0.04562
PSCL2 TRANSLATION FROM L1D PREFETCHER ACCESS:       5549  HIT:       5549  MISS:          0  HIT %:        100  MISS %:          0   MPKI: 0
PSCL2 PREFETCH  REQUESTED:          0  ISSUED:          0  USEFUL:          0  USELESS:          0
PSCL2 USEFUL LOAD PREFETCHES:          0 PREFETCH ISSUED TO LOWER LEVEL:          0  ACCURACY: -nan
PSCL2 TIMELY PREFETCHES:          0 LATE PREFETCHES: 0 DROPPED PREFETCHES: 0
PSCL2 PREFETCHES SAME FILL-ORIGIN LEVEL: 0 DIFFERENT FILL-ORIGIN LEVEL: 0

LLC TOTAL     ACCESS:    2876738  HIT:    1290458  MISS:    1586280  HIT %:    44.8584  MISS %:    55.1416   MPKI: 7.9314
LLC LOAD      ACCESS:     540331  HIT:     242987  MISS:     297344  HIT %:      44.97  MISS %:      55.03   MPKI: 1.48672
LLC RFO       ACCESS:     975112  HIT:      20306  MISS:     954806  HIT %:    2.08243  MISS %:    97.9176   MPKI: 4.77403
LLC PREFETCH  ACCESS:     301417  HIT:        934  MISS:     300483  HIT %:    0.30987  MISS %:    99.6901   MPKI: 1.50241
AGUS PREFETCH L1 MISS: 0
LLC WRITEBACK ACCESS:    1036781  HIT:    1017216  MISS:      19565  HIT %:    98.1129  MISS %:    1.88709   MPKI: 0.097825
LLC LOAD TRANSLATION ACCESS:      21906  HIT:       8841  MISS:      13065  HIT %:    40.3588  MISS %:    59.6412   MPKI: 0.065325
LLC TRANSLATION FROM L1D PREFETCHER ACCESS:       1191  HIT:        174  MISS:       1017  HIT %:    14.6096  MISS %:    85.3904   MPKI: 0.005085
LLC PREFETCH  REQUESTED:          0  ISSUED:          0  USEFUL:        241  USELESS:     307552
LLC USEFUL LOAD PREFETCHES:        241 PREFETCH ISSUED TO LOWER LEVEL:     300483  ACCURACY: 0.0802042
LLC TIMELY PREFETCHES:        241 LATE PREFETCHES: 0 DROPPED PREFETCHES: 0
LLC PREFETCHES SAME FILL-ORIGIN LEVEL: 0 DIFFERENT FILL-ORIGIN LEVEL: 0
LLC AVERAGE MISS LATENCY: 287.935 cycles
LLC RQ	ACCESS:    1538540	FORWARD:          0	MERGED:          0	TO_CACHE:    1538540
LLC WQ	ACCESS:    1036781	FORWARD:          0	MERGED:          0	TO_CACHE:    1036781
LLC PQ	ACCESS:     301417	FORWARD:          0	MERGED:          0	TO_CACHE:     301417

LLC Dense regions hint to LLC: 0

RAW hits: 911326
Loads Generated: 50798474
Loads sent to L1D: 49887148
Stores Generated: 12021212
Stores sent to L1D: 12021205
Major fault: 0 Minor fault: 6461
Allocated PAGES: 6461
Completed 

DRAM Statistics
 CHANNEL 0
 RQ ROW_BUFFER_HIT:     685861  ROW_BUFFER_MISS:     880854
 DBUS_CONGESTED:        815
 WQ ROW_BUFFER_HIT:     236196  ROW_BUFFER_MISS:     768490  FULL:        205

 AVG_CONGESTED_CYCLE: 4
 All warmup complete: 2
Channel 0 Bank busy for read cycles: 0
Channel 0 Bank busy for write cycles: 0
Channel 0
Rank 0
0banks busy for read cycles: 223987416
0banks busy for write cycles: 48850
1banks busy for read cycles: 17308947
1banks busy for write cycles: 7456306
2banks busy for read cycles: 4085514
2banks busy for write cycles: 3144921
3banks busy for read cycles: 1514519
3banks busy for write cycles: 1776483
4banks busy for read cycles: 919642
4banks busy for write cycles: 1110861
5banks busy for read cycles: 810477
5banks busy for write cycles: 771787
6banks busy for read cycles: 1116108
6banks busy for write cycles: 652689
7banks busy for read cycles: 2413325
7banks busy for write cycles: 1531052
8banks busy for read cycles: 13425072
8banks busy for write cycles: 16363406

CPU 0 Branch Prediction Accuracy: 99.6381% MPKI: 0.27243 Average ROB Occupancy at Mispredict: 48.7661
Branch types
NOT_BRANCH: 184943667 92.4718%
BRANCH_DIRECT_JUMP: 1417010 0.708505%
BRANCH_INDIRECT: 4725375 2.36269%
BRANCH_CONDITIONAL: 6753211 3.37661%
BRANCH_DIRECT_CALL: 958453 0.479226%
BRANCH_INDIRECT_CALL: 121813 0.0609065%
BRANCH_RETURN: 1080242 0.540121%
BRANCH_OTHER: 0 0%

DRAM PAGES: 1048576
Allocated PAGES: 6461
