
*** ChampSim Multicore Out-of-Order Simulator ***

Warmup Instructions: 50000000
Simulation Instructions: 200000000
Number of CPUs: 1
LLC sets: 2048
LLC ways: 16
Off-chip DRAM Size: 4096 MB Channels: 1 Width: 64-bit Data Rate: 6400 MT/s
CPU 0 runs traces/spec2k17/602.gcc_s-1850B.champsimtrace.xz
.xz
BTB has LRU replacement policy
ITLB has LRU replacement policy
DTLB has LRU replacement policy
STLB has LRU replacement policy
L1I has LRU replacement policy
CPU 0 l1d next line prefetcher
L1D has LRU replacement policy
Initialize SRRIP state for L2C
Initialize DRRIP state for LLC
Offsets elements: 
Potential of Offsets elements: 
rewards of Offsets elements: 
Printing Sanity1
offset list size254
Offsets elements: 
Potential of Offsets elements: 
rewards of Offsets elements: 0 0 0 0 0 0 773 0 0 723 0 0 0 0 847 721 0 811 0 0 660 818 0 0 0 836 0 0 0 0 0 9 0 0 599 0 0 0 0 0 0 0 0 0 0 0 0 0 0 0 0 0 656 0 0 0 0 0 0 0 0 0 0 0 0 0 0 0 0 0 0 0 0 0 857 0 0 0 0 0 0 0 0 0 0 815 0 478 842 0 0 0 0 0 0 0 0 834 0 0 0 0 0 0 0 0 0 0 0 0 0 0 0 0 0 0 0 0 0 0 0 0 0 0 0 0 0 0 0 0 0 0 0 0 0 0 0 0 0 0 0 0 0 0 0 0 0 0 0 0 0 0 0 0 0 0 0 0 0 0 0 0 0 0 0 0 0 0 0 0 0 11 0 0 0 0 0 0 0 0 0 0 0 0 0 0 0 0 0 0 0 0 0 0 0 0 0 0 0 0 0 0 0 0 0 0 0 0 0 0 0 0 0 0 0 0 0 0 0 0 0 0 0 0 0 0 0 0 0 0 0 0 0 0 0 0 0 0 0 0 0 0 0 0 0 0 0 0 0 0 207 0 0 0 
Printing Sanity2
Heartbeat CPU 0 instructions: 10000002 cycles: 3277890 heartbeat IPC: 3.05074 cumulative IPC: 3.05074 (Simulation time: 0 hr 0 min 41 sec) 
Heartbeat CPU 0 instructions: 20000000 cycles: 6556149 heartbeat IPC: 3.0504 cumulative IPC: 3.05057 (Simulation time: 0 hr 1 min 22 sec) 
Heartbeat CPU 0 instructions: 30000000 cycles: 9833279 heartbeat IPC: 3.05145 cumulative IPC: 3.05086 (Simulation time: 0 hr 2 min 3 sec) 
Heartbeat CPU 0 instructions: 40000000 cycles: 13110793 heartbeat IPC: 3.05109 cumulative IPC: 3.05092 (Simulation time: 0 hr 2 min 43 sec) 
Heartbeat CPU 0 instructions: 50000000 cycles: 16389129 heartbeat IPC: 3.05033 cumulative IPC: 3.0508 (Simulation time: 0 hr 3 min 26 sec) 

Warmup complete CPU 0 instructions: 50000004 cycles: 16389130 (Simulation time: 0 hr 3 min 26 sec) 

Heartbeat CPU 0 instructions: 60000003 cycles: 56002656 heartbeat IPC: 0.252439 cumulative IPC: 0.252439 (Simulation time: 0 hr 5 min 18 sec) 
Heartbeat CPU 0 instructions: 70000002 cycles: 95577691 heartbeat IPC: 0.252685 cumulative IPC: 0.252562 (Simulation time: 0 hr 7 min 5 sec) 
Heartbeat CPU 0 instructions: 80000003 cycles: 135148402 heartbeat IPC: 0.252712 cumulative IPC: 0.252612 (Simulation time: 0 hr 8 min 50 sec) 
Heartbeat CPU 0 instructions: 90000001 cycles: 174767177 heartbeat IPC: 0.252406 cumulative IPC: 0.25256 (Simulation time: 0 hr 10 min 37 sec) 
Heartbeat CPU 0 instructions: 100000000 cycles: 214380784 heartbeat IPC: 0.252438 cumulative IPC: 0.252536 (Simulation time: 0 hr 12 min 25 sec) 
Heartbeat CPU 0 instructions: 110000000 cycles: 253992053 heartbeat IPC: 0.252453 cumulative IPC: 0.252522 (Simulation time: 0 hr 14 min 14 sec) 
Heartbeat CPU 0 instructions: 120000003 cycles: 293566748 heartbeat IPC: 0.252687 cumulative IPC: 0.252546 (Simulation time: 0 hr 16 min 2 sec) 
Heartbeat CPU 0 instructions: 130000003 cycles: 333169645 heartbeat IPC: 0.252507 cumulative IPC: 0.252541 (Simulation time: 0 hr 17 min 50 sec) 
Heartbeat CPU 0 instructions: 140000000 cycles: 372757494 heartbeat IPC: 0.252603 cumulative IPC: 0.252548 (Simulation time: 0 hr 19 min 33 sec) 
Heartbeat CPU 0 instructions: 150000000 cycles: 412360825 heartbeat IPC: 0.252504 cumulative IPC: 0.252543 (Simulation time: 0 hr 21 min 19 sec) 
Heartbeat CPU 0 instructions: 160000000 cycles: 452000413 heartbeat IPC: 0.252273 cumulative IPC: 0.252519 (Simulation time: 0 hr 23 min 8 sec) 
Heartbeat CPU 0 instructions: 170000003 cycles: 491592862 heartbeat IPC: 0.252573 cumulative IPC: 0.252523 (Simulation time: 0 hr 24 min 58 sec) 
Heartbeat CPU 0 instructions: 180000000 cycles: 531161204 heartbeat IPC: 0.252727 cumulative IPC: 0.252539 (Simulation time: 0 hr 26 min 45 sec) 
Heartbeat CPU 0 instructions: 190000002 cycles: 570836596 heartbeat IPC: 0.252045 cumulative IPC: 0.252504 (Simulation time: 0 hr 28 min 30 sec) 
Heartbeat CPU 0 instructions: 200000000 cycles: 610443534 heartbeat IPC: 0.252481 cumulative IPC: 0.252502 (Simulation time: 0 hr 30 min 20 sec) 
Heartbeat CPU 0 instructions: 210000002 cycles: 650037303 heartbeat IPC: 0.252565 cumulative IPC: 0.252506 (Simulation time: 0 hr 32 min 4 sec) 
Heartbeat CPU 0 instructions: 220000000 cycles: 689700731 heartbeat IPC: 0.252121 cumulative IPC: 0.252483 (Simulation time: 0 hr 33 min 55 sec) 
Heartbeat CPU 0 instructions: 230000003 cycles: 729333764 heartbeat IPC: 0.252315 cumulative IPC: 0.252474 (Simulation time: 0 hr 35 min 42 sec) 
Heartbeat CPU 0 instructions: 240000000 cycles: 768983626 heartbeat IPC: 0.252208 cumulative IPC: 0.25246 (Simulation time: 0 hr 37 min 31 sec) 
Heartbeat CPU 0 instructions: 250000000 cycles: 808618843 heartbeat IPC: 0.252301 cumulative IPC: 0.252452 (Simulation time: 0 hr 39 min 15 sec) 
Finished CPU 0 instructions: 200000000 cycles: 792229714 cumulative IPC: 0.252452 (Simulation time: 0 hr 39 min 15 sec) 

ChampSim completed all CPUs

Region of Interest Statistics

CPU 0 cumulative IPC: 0.252452 instructions: 200000000 cycles: 792229714
ITLB TOTAL     ACCESS:   47886685  HIT:   47886685  MISS:          0  HIT %:        100  MISS %:          0   MPKI: 0
ITLB LOAD TRANSLATION ACCESS:   47886685  HIT:   47886685  MISS:          0  HIT %:        100  MISS %:          0   MPKI: 0
ITLB PREFETCH  REQUESTED:          0  ISSUED:          0  USEFUL:          0  USELESS:          0
ITLB USEFUL LOAD PREFETCHES:          0 PREFETCH ISSUED TO LOWER LEVEL:          0  ACCURACY: -nan
ITLB TIMELY PREFETCHES:          0 LATE PREFETCHES: 0 DROPPED PREFETCHES: 0
ITLB PREFETCHES SAME FILL-ORIGIN LEVEL: 0 DIFFERENT FILL-ORIGIN LEVEL: 0
ITLB AVERAGE MISS LATENCY: -nan cycles
ITLB RQ	ACCESS:   51617516	FORWARD:          0	MERGED:    3730830	TO_CACHE:   47886686

DTLB TOTAL     ACCESS:   54656246  HIT:   54590112  MISS:      66134  HIT %:     99.879  MISS %:      0.121   MPKI: 0.33067
DTLB LOAD TRANSLATION ACCESS:   54656246  HIT:   54590112  MISS:      66134  HIT %:     99.879  MISS %:      0.121   MPKI: 0.33067
DTLB PREFETCH  REQUESTED:          0  ISSUED:          0  USEFUL:          0  USELESS:          0
DTLB USEFUL LOAD PREFETCHES:          0 PREFETCH ISSUED TO LOWER LEVEL:          0  ACCURACY: -nan
DTLB TIMELY PREFETCHES:          0 LATE PREFETCHES: 0 DROPPED PREFETCHES: 0
DTLB PREFETCHES SAME FILL-ORIGIN LEVEL: 0 DIFFERENT FILL-ORIGIN LEVEL: 0
DTLB AVERAGE MISS LATENCY: 141.944 cycles
DTLB RQ	ACCESS:   55997463	FORWARD:          0	MERGED:    1338421	TO_CACHE:   54659042

STLB TOTAL     ACCESS:      66566  HIT:       5489  MISS:      61077  HIT %:    8.24595  MISS %:     91.754   MPKI: 0.305385
STLB LOAD TRANSLATION ACCESS:      66134  HIT:       5067  MISS:      61067  HIT %:    7.66172  MISS %:    92.3383   MPKI: 0.305335
STLB TRANSLATION FROM L1D PREFETCHER ACCESS:        432  HIT:        422  MISS:         10  HIT %:    97.6852  MISS %:    2.31481   MPKI: 5e-05
STLB PREFETCH  REQUESTED:          0  ISSUED:          0  USEFUL:          9  USELESS:          1
STLB USEFUL LOAD PREFETCHES:          9 PREFETCH ISSUED TO LOWER LEVEL:          0  ACCURACY: inf
STLB TIMELY PREFETCHES:          9 LATE PREFETCHES: 1 DROPPED PREFETCHES: 27
STLB PREFETCHES SAME FILL-ORIGIN LEVEL: 0 DIFFERENT FILL-ORIGIN LEVEL: 0
STLB AVERAGE MISS LATENCY: 143.952 cycles
STLB RQ	ACCESS:      66600	FORWARD:          0	MERGED:          2	TO_CACHE:      66598

STLB Hit, L1D data hit: 0
STLB Hit, L2C data hit: 0
STLB Hit, LLC data hit: 0
STLB Hit, LLC data miss: 0
STLB STLB hints to L2: 0
L1D TOTAL     ACCESS:   54963710  HIT:   50159917  MISS:    4803793  HIT %:    91.2601  MISS %:    8.73994   MPKI: 24.019
L1D LOAD      ACCESS:   37699750  HIT:   32897860  MISS:    4801890  HIT %:    87.2628  MISS %:    12.7372   MPKI: 24.0095
L1D RFO       ACCESS:   17263548  HIT:   17261943  MISS:       1605  HIT %:    99.9907  MISS %: 0.00929705   MPKI: 0.008025
L1D PREFETCH  ACCESS:        412  HIT:        114  MISS:        298  HIT %:    27.6699  MISS %:    72.3301   MPKI: 0.00149
AGUS PREFETCH L1 MISS: 0
L1D PREFETCH  REQUESTED:        977  ISSUED:        977  USEFUL:        264  USELESS:         34
L1D USEFUL LOAD PREFETCHES:        264 PREFETCH ISSUED TO LOWER LEVEL:        298  ACCURACY: 88.5906
L1D TIMELY PREFETCHES:        264 LATE PREFETCHES: 0 DROPPED PREFETCHES: 28
L1D PREFETCHES SAME FILL-ORIGIN LEVEL: 298 DIFFERENT FILL-ORIGIN LEVEL: 0
L1D AVERAGE MISS LATENCY: 93.5395 cycles
L1D RQ	ACCESS:   55585293	FORWARD:          0	MERGED:   16851044	TO_CACHE:   38733914
L1D WQ	ACCESS:   19411013	FORWARD:        335	MERGED:    2147464	TO_CACHE:   17263549
L1D PQ	ACCESS:        511	FORWARD:          0	MERGED:         45	TO_CACHE:        466

L1D UNIQUE REGIONS ACCESSED: 0
L1D REGIONS CONFLICTS: 0
L1D Cross Page Prefetch Requests: 1605
L1D Same Page Prefetch Requests: 0
L1D ROI Sum of L1D PQ occupancy: 8367
L1D PREFETCHES PUSHED FROM L2C: 0
L1I TOTAL     ACCESS:   51617514  HIT:   51617514  MISS:          0  HIT %:        100  MISS %:          0   MPKI: 0
L1I LOAD      ACCESS:   51617514  HIT:   51617514  MISS:          0  HIT %:        100  MISS %:          0   MPKI: 0
L1I PREFETCH  REQUESTED:          0  ISSUED:          0  USEFUL:          0  USELESS:          0
L1I USEFUL LOAD PREFETCHES:          0 PREFETCH ISSUED TO LOWER LEVEL:          0  ACCURACY: -nan
L1I TIMELY PREFETCHES:          0 LATE PREFETCHES: 0 DROPPED PREFETCHES: 0
L1I PREFETCHES SAME FILL-ORIGIN LEVEL: 0 DIFFERENT FILL-ORIGIN LEVEL: 0
L1I AVERAGE MISS LATENCY: -nan cycles
L1I RQ	ACCESS:   81361115	FORWARD:          0	MERGED:   29743599	TO_CACHE:   51617516

BTB TOTAL     ACCESS:   32765955  HIT:   32765926  MISS:         29  HIT %:    99.9999  MISS %: 8.85065e-05   MPKI: 0.000145
BTB BRANCH_DIRECT_JUMP	ACCESS:    4318197  HIT:    4318188  MISS:          9
BTB BRANCH_INDIRECT	ACCESS:          0  HIT:          0  MISS:          0
BTB BRANCH_CONDITIONAL	ACCESS:   24127035  HIT:   24127021  MISS:         14
BTB BRANCH_DIRECT_CALL	ACCESS:    2160361  HIT:    2160358  MISS:          3
BTB BRANCH_INDIRECT_CALL	ACCESS:          0  HIT:          0  MISS:          0
BTB BRANCH_RETURN	ACCESS:    2160362  HIT:    2160359  MISS:          3
BTB BRANCH_OTHER ACCESS:          0  HIT:          0  MISS:          0

L2C TOTAL     ACCESS:    4875537  HIT:    1309660  MISS:    3565877  HIT %:    26.8619  MISS %:    73.1381   MPKI: 17.8294
L2C LOAD      ACCESS:    4801890  HIT:    1248790  MISS:    3553100  HIT %:    26.0062  MISS %:    73.9938   MPKI: 17.7655
L2C DATA LOAD MPKI: 17.7655
L2C INSTRUCTION LOAD MPKI: 0
L2C RFO       ACCESS:       1605  HIT:          0  MISS:       1605  HIT %:          0  MISS %:        100   MPKI: 0.008025
L2C PREFETCH  ACCESS:        298  HIT:         13  MISS:        285  HIT %:    4.36242  MISS %:    95.6376   MPKI: 0.001425
AGUS PREFETCH L1 MISS: 0
L2C DATA PREFETCH MPKI: 0.001425
L2C INSTRUCTION PREFETCH MPKI: 0
L2C WRITEBACK ACCESS:      10324  HIT:      10324  MISS:          0  HIT %:        100  MISS %:          0   MPKI: 0
L2C LOAD TRANSLATION ACCESS:      61381  HIT:      50500  MISS:      10881  HIT %:     82.273  MISS %:     17.727   MPKI: 0.054405
L2C TRANSLATION FROM L1D PREFETCHER ACCESS:         39  HIT:         33  MISS:          6  HIT %:    84.6154  MISS %:    15.3846   MPKI: 3e-05
L2C PREFETCH  REQUESTED:          0  ISSUED:          0  USEFUL:          3  USELESS:        288
L2C USEFUL LOAD PREFETCHES:          3 PREFETCH ISSUED TO LOWER LEVEL:        285  ACCURACY: 1.05263
L2C TIMELY PREFETCHES:          3 LATE PREFETCHES: 0 DROPPED PREFETCHES: 0
L2C PREFETCHES SAME FILL-ORIGIN LEVEL: 0 DIFFERENT FILL-ORIGIN LEVEL: 0
L2C AVERAGE MISS LATENCY: 106.37 cycles
L2C RQ	ACCESS:    4864915	FORWARD:          0	MERGED:          0	TO_CACHE:    4864915
L2C WQ	ACCESS:      10324	FORWARD:          0	MERGED:          0	TO_CACHE:      10324
L2C PQ	ACCESS:        298	FORWARD:          0	MERGED:          0	TO_CACHE:        298

L2C Instructions Evicting Data 0
L2C Translations Evicting Data 10837
L2C Data Evicting Data 3544150
L2C Instructions Evicting Instructions 0
L2C Translations Evicting Instructions 0
L2C Data Evicting Instructions 0
L2C Instructions Evicting Translations 0
L2C Translations Evicting Translations 50
L2C Data Evicting Translations 10840
L2C Dense regions hint from L2: 0
PSCL5 TOTAL     ACCESS:      61105  HIT:      61105  MISS:          0  HIT %:        100  MISS %:          0   MPKI: 0
PSCL5 LOAD TRANSLATION ACCESS:      61067  HIT:      61067  MISS:          0  HIT %:        100  MISS %:          0   MPKI: 0
PSCL5 TRANSLATION FROM L1D PREFETCHER ACCESS:         38  HIT:         38  MISS:          0  HIT %:        100  MISS %:          0   MPKI: 0
PSCL5 PREFETCH  REQUESTED:          0  ISSUED:          0  USEFUL:          0  USELESS:          0
PSCL5 USEFUL LOAD PREFETCHES:          0 PREFETCH ISSUED TO LOWER LEVEL:          0  ACCURACY: -nan
PSCL5 TIMELY PREFETCHES:          0 LATE PREFETCHES: 0 DROPPED PREFETCHES: 0
PSCL5 PREFETCHES SAME FILL-ORIGIN LEVEL: 0 DIFFERENT FILL-ORIGIN LEVEL: 0

PSCL4 TOTAL     ACCESS:      61105  HIT:      61105  MISS:          0  HIT %:        100  MISS %:          0   MPKI: 0
PSCL4 LOAD TRANSLATION ACCESS:      61067  HIT:      61067  MISS:          0  HIT %:        100  MISS %:          0   MPKI: 0
PSCL4 TRANSLATION FROM L1D PREFETCHER ACCESS:         38  HIT:         38  MISS:          0  HIT %:        100  MISS %:          0   MPKI: 0
PSCL4 PREFETCH  REQUESTED:          0  ISSUED:          0  USEFUL:          0  USELESS:          0
PSCL4 USEFUL LOAD PREFETCHES:          0 PREFETCH ISSUED TO LOWER LEVEL:          0  ACCURACY: -nan
PSCL4 TIMELY PREFETCHES:          0 LATE PREFETCHES: 0 DROPPED PREFETCHES: 0
PSCL4 PREFETCHES SAME FILL-ORIGIN LEVEL: 0 DIFFERENT FILL-ORIGIN LEVEL: 0

PSCL3 TOTAL     ACCESS:      61105  HIT:      61104  MISS:          1  HIT %:    99.9984  MISS %: 0.00163653   MPKI: 5e-06
PSCL3 LOAD TRANSLATION ACCESS:      61067  HIT:      61066  MISS:          1  HIT %:    99.9984  MISS %: 0.00163755   MPKI: 5e-06
PSCL3 TRANSLATION FROM L1D PREFETCHER ACCESS:         38  HIT:         38  MISS:          0  HIT %:        100  MISS %:          0   MPKI: 0
PSCL3 PREFETCH  REQUESTED:          0  ISSUED:          0  USEFUL:          0  USELESS:          0
PSCL3 USEFUL LOAD PREFETCHES:          0 PREFETCH ISSUED TO LOWER LEVEL:          0  ACCURACY: -nan
PSCL3 TIMELY PREFETCHES:          0 LATE PREFETCHES: 0 DROPPED PREFETCHES: 0
PSCL3 PREFETCHES SAME FILL-ORIGIN LEVEL: 0 DIFFERENT FILL-ORIGIN LEVEL: 0

PSCL2 TOTAL     ACCESS:      61105  HIT:      60385  MISS:        720  HIT %:    98.8217  MISS %:     1.1783   MPKI: 0.0036
PSCL2 LOAD TRANSLATION ACCESS:      61068  HIT:      60348  MISS:        720  HIT %:     98.821  MISS %:    1.17901   MPKI: 0.0036
PSCL2 TRANSLATION FROM L1D PREFETCHER ACCESS:         37  HIT:         37  MISS:          0  HIT %:        100  MISS %:          0   MPKI: 0
PSCL2 PREFETCH  REQUESTED:          0  ISSUED:          0  USEFUL:          0  USELESS:          0
PSCL2 USEFUL LOAD PREFETCHES:          0 PREFETCH ISSUED TO LOWER LEVEL:          0  ACCURACY: -nan
PSCL2 TIMELY PREFETCHES:          0 LATE PREFETCHES: 0 DROPPED PREFETCHES: 0
PSCL2 PREFETCHES SAME FILL-ORIGIN LEVEL: 0 DIFFERENT FILL-ORIGIN LEVEL: 0

LLC TOTAL     ACCESS:    3570799  HIT:       6067  MISS:    3564732  HIT %:   0.169906  MISS %:    99.8301   MPKI: 17.8237
LLC LOAD      ACCESS:    3553100  HIT:        752  MISS:    3552348  HIT %:  0.0211646  MISS %:    99.9788   MPKI: 17.7617
LLC RFO       ACCESS:       1605  HIT:          0  MISS:       1605  HIT %:          0  MISS %:        100   MPKI: 0.008025
LLC PREFETCH  ACCESS:        285  HIT:          0  MISS:        285  HIT %:          0  MISS %:        100   MPKI: 0.001425
AGUS PREFETCH L1 MISS: 0
LLC WRITEBACK ACCESS:       4922  HIT:       4774  MISS:        148  HIT %:    96.9931  MISS %:    3.00691   MPKI: 0.00074
LLC LOAD TRANSLATION ACCESS:      10881  HIT:        540  MISS:      10341  HIT %:    4.96278  MISS %:    95.0372   MPKI: 0.051705
LLC TRANSLATION FROM L1D PREFETCHER ACCESS:          6  HIT:          1  MISS:          5  HIT %:    16.6667  MISS %:    83.3333   MPKI: 2.5e-05
LLC PREFETCH  REQUESTED:          0  ISSUED:          0  USEFUL:          0  USELESS:        291
LLC USEFUL LOAD PREFETCHES:          0 PREFETCH ISSUED TO LOWER LEVEL:        285  ACCURACY: 0
LLC TIMELY PREFETCHES:          0 LATE PREFETCHES: 0 DROPPED PREFETCHES: 0
LLC PREFETCHES SAME FILL-ORIGIN LEVEL: 0 DIFFERENT FILL-ORIGIN LEVEL: 0
LLC AVERAGE MISS LATENCY: 76.3816 cycles
LLC RQ	ACCESS:    3565592	FORWARD:          0	MERGED:          0	TO_CACHE:    3565592
LLC WQ	ACCESS:       4922	FORWARD:          0	MERGED:          0	TO_CACHE:       4922
LLC PQ	ACCESS:        285	FORWARD:          0	MERGED:          0	TO_CACHE:        285

LLC Dense regions hint to LLC: 0

RAW hits: 10809
Loads Generated: 55596102
Loads sent to L1D: 55585293
Stores Generated: 19411013
Stores sent to L1D: 19411013
Major fault: 0 Minor fault: 76297
Allocated PAGES: 76297
CPU 0 L1D 
Prefetch count 2441 BOP and RL 

DRAM Statistics
 CHANNEL 0
 RQ ROW_BUFFER_HIT:    3337858  ROW_BUFFER_MISS:     226726
 DBUS_CONGESTED:          7
 WQ ROW_BUFFER_HIT:        568  ROW_BUFFER_MISS:       4360  FULL:          0

 AVG_CONGESTED_CYCLE: 2
 All warmup complete: 2
Channel 0 Bank busy for read cycles: 0
Channel 0 Bank busy for write cycles: 0
Channel 0
Rank 0
0banks busy for read cycles: 594292145
0banks busy for write cycles: 4128
1banks busy for read cycles: 192539349
1banks busy for write cycles: 991585
2banks busy for read cycles: 4170981
2banks busy for write cycles: 173531
3banks busy for read cycles: 6405
3banks busy for write cycles: 42916
4banks busy for read cycles: 282
4banks busy for write cycles: 5809
5banks busy for read cycles: 37
5banks busy for write cycles: 1467
6banks busy for read cycles: 0
6banks busy for write cycles: 874
7banks busy for read cycles: 0
7banks busy for write cycles: 206
8banks busy for read cycles: 0
8banks busy for write cycles: 0

CPU 0 Branch Prediction Accuracy: 99.9621% MPKI: 0.097185 Average ROB Occupancy at Mispredict: 310.471
Branch types
NOT_BRANCH: 148719234 74.3596%
BRANCH_DIRECT_JUMP: 4318197 2.1591%
BRANCH_INDIRECT: 0 0%
BRANCH_CONDITIONAL: 42641844 21.3209%
BRANCH_DIRECT_CALL: 2160361 1.08018%
BRANCH_INDIRECT_CALL: 0 0%
BRANCH_RETURN: 2160362 1.08018%
BRANCH_OTHER: 0 0%

DRAM PAGES: 1048576
Allocated PAGES: 76297
