
*** ChampSim Multicore Out-of-Order Simulator ***

Warmup Instructions: 50000000
Simulation Instructions: 200000000
Number of CPUs: 1
LLC sets: 2048
LLC ways: 16
Off-chip DRAM Size: 4096 MB Channels: 1 Width: 64-bit Data Rate: 6400 MT/s
CPU 0 runs traces/spec2k17/server_032.champsimtrace.xz
.xz
BTB has LRU replacement policy
ITLB has LRU replacement policy
DTLB has LRU replacement policy
STLB has LRU replacement policy
L1I has LRU replacement policy
CPU 0 l1d next line prefetcher
L1D has LRU replacement policy
Initialize SRRIP state for L2C
Initialize DRRIP state for LLC
Offsets elements: 
Potential of Offsets elements: 
rewards of Offsets elements: 
Printing Sanity1
offset list size1260
Heartbeat CPU 0 instructions: 10000000 cycles: 2832839 heartbeat IPC: 3.53003 cumulative IPC: 3.53003 (Simulation time: 0 hr 0 min 30 sec) 
Heartbeat CPU 0 instructions: 20000000 cycles: 5662104 heartbeat IPC: 3.53449 cumulative IPC: 3.53226 (Simulation time: 0 hr 1 min 2 sec) 
Heartbeat CPU 0 instructions: 30000000 cycles: 8492077 heartbeat IPC: 3.5336 cumulative IPC: 3.5327 (Simulation time: 0 hr 1 min 32 sec) 
Offsets elements: 
Potential of Offsets elements: 
rewards of Offsets elements: 0 0 0 0 0 4 0 1 0 4 0 0 0 0 0 0 0 0 0 0 7 0 0 1 0 0 0 9 20 1 0 14 0 0 0 0 3 4 3 0 0 5 2 1 4 1 3 0 0 0 0 1 2 1 0 1 0 0 0 0 7 0 0 0 0 0 40 0 0 1 79 0 0 0 0 5 0 1 1 0 0 0 0 0 0 0 0 0 0 2 0 0 0 0 179 0 1 0 0 0 0 9 0 0 0 0 0 0 12 5 0 2 35 28 0 5 0 0 0 0 189 0 5 0 1 1 0 0 15 0 107 127 2 0 0 2 3 0 3 0 0 0 1 0 0 0 0 0 0 0 0 1 0 0 0 0 0 1 0 1 1 15 0 0 1 0 0 1 0 0 0 0 1 0 2 0 3 0 0 0 0 0 2 0 1 0 0 0 0 0 0 0 0 0 0 0 1 0 0 0 0 0 0 0 0 0 0 0 0 3 0 2 0 0 0 0 0 0 1 99 0 0 0 0 0 0 137 0 0 1 2 0 0 0 0 0 15 2 3 0 0 0 0 1 1 1 0 0 0 0 0 0 0 0 0 0 0 2 0 0 0 0 0 0 2 0 0 0 0 51 0 0 6 0 0 0 0 0 0 0 1 0 0 0 0 0 0 0 0 0 0 29 6 1 0 0 0 0 0 0 0 1 0 0 1 0 2 0 0 0 0 0 0 0 0 1 0 4 1 0 0 6 16 0 0 0 0 0 0 0 0 0 0 0 0 0 0 0 0 0 0 0 0 0 0 0 0 0 0 0 32 152 0 0 0 0 1 2 0 1 4 2 0 1 7 0 0 4 0 0 0 1 0 0 18 0 0 0 0 0 0 0 0 0 0 0 0 0 0 0 0 2 0 0 0 0 0 0 1 0 3 0 0 2 0 0 32 10 27 0 1 0 0 0 0 0 20 0 4 0 110 0 11 0 0 0 1 0 2 0 0 1 0 0 0 1 0 0 0 0 0 0 0 2 0 0 0 0 0 0 0 3 8 1 0 0 0 0 0 0 0 0 0 0 0 0 0 0 0 0 0 0 0 0 0 8 1 0 1 2 0 0 0 0 4 0 0 0 0 0 0 0 0 0 0 0 0 0 0 0 0 3 1 10 0 0 0 0 2 44 0 0 28 0 0 0 1 0 6 0 0 0 0 8 15 0 0 0 0 4 0 3 2 0 0 0 0 0 0 0 0 0 1 0 0 1 3 1 0 8 1 0 6 1 1 0 1 1 0 0 0 0 0 0 2 0 13 0 0 0 0 0 0 1 3 0 0 0 1 1 0 0 1 3 0 0 0 2 1 0 0 55 1 15 3 1 1 0 0 5 4 0 1 0 0 0 0 0 2 1 2 0 0 0 2 0 0 0 0 0 4 0 1 0 56 0 1 0 0 1 0 0 1 1 1 0 0 5 0 3 0 0 0 1 0 0 0 69 0 3 6 0 2 2 0 2 1 1 2 1 0 0 0 0 0 2 0 0 0 1 1 0 0 1 0 2 0 0 0 0 0 0 0 0 3 9 0 0 0 0 0 0 1 0 1 0 4 2 0 3 0 0 0 0 4 1 0 1 62 0 0 0 1 0 0 0 0 1 0 0 0 0 0 50 0 0 0 1 0 7 4 2 5 2 0 0 0 0 0 0 17 0 0 2 0 1 1 0 0 0 0 0 0 0 0 0 0 0 4 4 2 0 0 0 0 0 0 0 0 0 0 0 0 0 2 0 0 1 0 0 1 0 0 1 2 1 0 1 0 0 0 0 0 0 0 1 0 0 2 0 0 0 0 0 0 0 0 0 0 0 0 0 0 0 0 0 1 0 0 0 0 0 0 0 0 36 27 0 57 0 0 0 0 1 2 1 1 1 0 0 4 11 0 0 0 0 1 0 1 0 0 0 0 0 2 0 0 55 1 1 4 1 0 74 1 0 1 0 0 0 0 1 2 1 0 0 0 0 0 0 0 0 0 0 0 1 0 1 0 2 0 0 0 0 0 0 4 0 0 0 3 1 0 5 2 0 0 0 0 0 0 1 2 0 0 1 0 0 0 0 0 0 0 0 0 0 0 0 2 0 0 0 0 0 0 0 0 0 0 3 1 0 2 0 1 0 0 1 0 0 0 1 1 0 0 0 0 0 0 0 0 0 1 12 0 0 0 1 0 2 0 0 0 0 0 0 0 0 0 0 0 0 0 0 0 1 1 0 3 0 0 0 0 0 2 0 1 1 4 2 0 1 0 0 0 0 0 2 0 3 4 2 0 0 2 2 5 1 3 1 0 0 3 0 0 0 0 0 1 2 0 0 0 0 0 0 6 1 0 0 0 0 0 0 5 0 0 2 2 6 0 0 0 4 0 0 0 0 0 0 0 0 0 0 0 2 0 2 0 0 0 1 29 0 2 0 3 0 3 0 0 0 0 0 0 0 0 0 0 1 0 0 0 0 0 0 0 0 0 0 0 0 1 0 0 0 0 0 0 0 38 0 0 1 0 0 3 0 0 0 0 0 1 0 0 0 0 1 3 17 0 0 0 0 9 5 5 5 2 4 3 2 5 6 0 1 0 2 0 4 0 3 0 0 1 0 0 0 0 1 0 2 0 1 0 0 0 0 0 0 0 0 0 0 0 0 0 0 0 0 0 0 0 0 0 0 0 0 0 0 0 1 0 0 0 1 2 0 11 8 0 1 0 4 8 1 0 1 1 0 3 0 3 0 0 1 0 10 0 0 2 0 11 0 0 0 0 0 0 0 0 0 1 0 0 0 0 0 0 0 0 0 0 1 0 15 0 0 67 0 0 0 0 0 1 0 4 3 1 0 
Printing Sanity2
Heartbeat CPU 0 instructions: 40000001 cycles: 11322480 heartbeat IPC: 3.53307 cumulative IPC: 3.53279 (Simulation time: 0 hr 2 min 4 sec) 
Heartbeat CPU 0 instructions: 50000000 cycles: 14155525 heartbeat IPC: 3.52977 cumulative IPC: 3.53219 (Simulation time: 0 hr 2 min 35 sec) 

Warmup complete CPU 0 instructions: 50000004 cycles: 14155526 (Simulation time: 0 hr 2 min 35 sec) 

Heartbeat CPU 0 instructions: 60000001 cycles: 47639467 heartbeat IPC: 0.298651 cumulative IPC: 0.298651 (Simulation time: 0 hr 3 min 34 sec) 
Heartbeat CPU 0 instructions: 70000000 cycles: 81087115 heartbeat IPC: 0.298975 cumulative IPC: 0.298813 (Simulation time: 0 hr 4 min 30 sec) 
Heartbeat CPU 0 instructions: 80000003 cycles: 114534038 heartbeat IPC: 0.298981 cumulative IPC: 0.298869 (Simulation time: 0 hr 5 min 27 sec) 
*** Reached end of trace for Core: 0 Repeating trace: traces/spec2k17/server_032.champsimtrace.xz
Heartbeat CPU 0 instructions: 90000001 cycles: 147802321 heartbeat IPC: 0.300587 cumulative IPC: 0.299296 (Simulation time: 0 hr 6 min 26 sec) 
Heartbeat CPU 0 instructions: 100000000 cycles: 181044226 heartbeat IPC: 0.300825 cumulative IPC: 0.299601 (Simulation time: 0 hr 7 min 22 sec) 
Heartbeat CPU 0 instructions: 110000000 cycles: 214301534 heartbeat IPC: 0.300686 cumulative IPC: 0.299781 (Simulation time: 0 hr 8 min 20 sec) 
Heartbeat CPU 0 instructions: 120000000 cycles: 247544122 heartbeat IPC: 0.300819 cumulative IPC: 0.299929 (Simulation time: 0 hr 9 min 17 sec) 
Heartbeat CPU 0 instructions: 130000000 cycles: 280795184 heartbeat IPC: 0.300742 cumulative IPC: 0.30003 (Simulation time: 0 hr 10 min 15 sec) 
Heartbeat CPU 0 instructions: 140000002 cycles: 314045127 heartbeat IPC: 0.300752 cumulative IPC: 0.30011 (Simulation time: 0 hr 11 min 14 sec) 
Heartbeat CPU 0 instructions: 150000000 cycles: 347301346 heartbeat IPC: 0.300696 cumulative IPC: 0.300169 (Simulation time: 0 hr 12 min 10 sec) 
Heartbeat CPU 0 instructions: 160000000 cycles: 380547294 heartbeat IPC: 0.300789 cumulative IPC: 0.300225 (Simulation time: 0 hr 13 min 5 sec) 
*** Reached end of trace for Core: 0 Repeating trace: traces/spec2k17/server_032.champsimtrace.xz
Heartbeat CPU 0 instructions: 170000003 cycles: 413757871 heartbeat IPC: 0.301109 cumulative IPC: 0.300299 (Simulation time: 0 hr 14 min 2 sec) 
Heartbeat CPU 0 instructions: 180000002 cycles: 446971004 heartbeat IPC: 0.301086 cumulative IPC: 0.300359 (Simulation time: 0 hr 14 min 58 sec) 
Heartbeat CPU 0 instructions: 190000002 cycles: 480197670 heartbeat IPC: 0.300963 cumulative IPC: 0.300402 (Simulation time: 0 hr 15 min 58 sec) 
Heartbeat CPU 0 instructions: 200000000 cycles: 513412927 heartbeat IPC: 0.301066 cumulative IPC: 0.300446 (Simulation time: 0 hr 16 min 55 sec) 
Heartbeat CPU 0 instructions: 210000001 cycles: 546627134 heartbeat IPC: 0.301076 cumulative IPC: 0.300485 (Simulation time: 0 hr 17 min 57 sec) 
Heartbeat CPU 0 instructions: 220000000 cycles: 579854338 heartbeat IPC: 0.300958 cumulative IPC: 0.300513 (Simulation time: 0 hr 18 min 54 sec) 
Heartbeat CPU 0 instructions: 230000002 cycles: 613060968 heartbeat IPC: 0.301145 cumulative IPC: 0.300548 (Simulation time: 0 hr 19 min 51 sec) 
Heartbeat CPU 0 instructions: 240000000 cycles: 646268310 heartbeat IPC: 0.301138 cumulative IPC: 0.300579 (Simulation time: 0 hr 20 min 48 sec) 
*** Reached end of trace for Core: 0 Repeating trace: traces/spec2k17/server_032.champsimtrace.xz
Heartbeat CPU 0 instructions: 250000002 cycles: 679451064 heartbeat IPC: 0.301361 cumulative IPC: 0.300618 (Simulation time: 0 hr 21 min 47 sec) 
Finished CPU 0 instructions: 200000001 cycles: 665295539 cumulative IPC: 0.300618 (Simulation time: 0 hr 21 min 47 sec) 

ChampSim completed all CPUs

Region of Interest Statistics

CPU 0 cumulative IPC: 0.300618 instructions: 200000001 cycles: 665295539
ITLB TOTAL     ACCESS:   35343351  HIT:   32929152  MISS:    2414199  HIT %:    93.1693  MISS %:     6.8307   MPKI: 12.071
ITLB LOAD TRANSLATION ACCESS:   35343351  HIT:   32929152  MISS:    2414199  HIT %:    93.1693  MISS %:     6.8307   MPKI: 12.071
ITLB PREFETCH  REQUESTED:          0  ISSUED:          0  USEFUL:          0  USELESS:          0
ITLB USEFUL LOAD PREFETCHES:          0 PREFETCH ISSUED TO LOWER LEVEL:          0  ACCURACY: -nan
ITLB TIMELY PREFETCHES:          0 LATE PREFETCHES: 0 DROPPED PREFETCHES: 0
ITLB PREFETCHES SAME FILL-ORIGIN LEVEL: 0 DIFFERENT FILL-ORIGIN LEVEL: 0
ITLB AVERAGE MISS LATENCY: 9.00318 cycles
ITLB RQ	ACCESS:   41891031	FORWARD:          0	MERGED:    5992701	TO_CACHE:   35898330

DTLB TOTAL     ACCESS:   47268494  HIT:   45307543  MISS:    1960951  HIT %:    95.8515  MISS %:    4.14854   MPKI: 9.80475
DTLB LOAD TRANSLATION ACCESS:   47268494  HIT:   45307543  MISS:    1960951  HIT %:    95.8515  MISS %:    4.14854   MPKI: 9.80475
DTLB PREFETCH  REQUESTED:          0  ISSUED:          0  USEFUL:          0  USELESS:          0
DTLB USEFUL LOAD PREFETCHES:          0 PREFETCH ISSUED TO LOWER LEVEL:          0  ACCURACY: -nan
DTLB TIMELY PREFETCHES:          0 LATE PREFETCHES: 0 DROPPED PREFETCHES: 0
DTLB PREFETCHES SAME FILL-ORIGIN LEVEL: 0 DIFFERENT FILL-ORIGIN LEVEL: 0
DTLB AVERAGE MISS LATENCY: 9.02883 cycles
DTLB RQ	ACCESS:   62454948	FORWARD:          0	MERGED:   15135593	TO_CACHE:   47319355

STLB TOTAL     ACCESS:    5625989  HIT:    5624808  MISS:       1181  HIT %:     99.979  MISS %:  0.0209919   MPKI: 0.005905
STLB LOAD TRANSLATION ACCESS:    4375150  HIT:    4373971  MISS:       1179  HIT %:    99.9731  MISS %:  0.0269476   MPKI: 0.005895
STLB TRANSLATION FROM L1D PREFETCHER ACCESS:    1250839  HIT:    1250837  MISS:          2  HIT %:    99.9998  MISS %: 0.000159893   MPKI: 1e-05
STLB PREFETCH  REQUESTED:          0  ISSUED:          0  USEFUL:          2  USELESS:          0
STLB USEFUL LOAD PREFETCHES:          2 PREFETCH ISSUED TO LOWER LEVEL:          0  ACCURACY: inf
STLB TIMELY PREFETCHES:          2 LATE PREFETCHES: 1 DROPPED PREFETCHES: 8211
STLB PREFETCHES SAME FILL-ORIGIN LEVEL: 0 DIFFERENT FILL-ORIGIN LEVEL: 0
STLB AVERAGE MISS LATENCY: 28.8645 cycles
STLB RQ	ACCESS:    5721357	FORWARD:          0	MERGED:      87156	TO_CACHE:    5634201

STLB Hit, L1D data hit: 0
STLB Hit, L2C data hit: 0
STLB Hit, LLC data hit: 0
STLB Hit, LLC data miss: 0
STLB STLB hints to L2: 0
L1D TOTAL     ACCESS:   61865270  HIT:   56565674  MISS:    5299596  HIT %:    91.4336  MISS %:    8.56635   MPKI: 26.498
L1D LOAD      ACCESS:   34521248  HIT:   31403613  MISS:    3117635  HIT %:    90.9689  MISS %:    9.03106   MPKI: 15.5882
L1D RFO       ACCESS:   26119300  HIT:   24952519  MISS:    1166781  HIT %:    95.5329  MISS %:    4.46712   MPKI: 5.8339
L1D PREFETCH  ACCESS:    1224722  HIT:     209542  MISS:    1015180  HIT %:    17.1094  MISS %:    82.8906   MPKI: 5.0759
AGUS PREFETCH L1 MISS: 0
L1D PREFETCH  REQUESTED:    2714805  ISSUED:    2714805  USEFUL:     246679  USELESS:     768560
L1D USEFUL LOAD PREFETCHES:     246679 PREFETCH ISSUED TO LOWER LEVEL:    1045253  ACCURACY: 23.5999
L1D TIMELY PREFETCHES:     246679 LATE PREFETCHES: 30044 DROPPED PREFETCHES: 8211
L1D PREFETCHES SAME FILL-ORIGIN LEVEL: 1045253 DIFFERENT FILL-ORIGIN LEVEL: 0
L1D AVERAGE MISS LATENCY: 1.99644e+06 cycles
L1D RQ	ACCESS:   47099583	FORWARD:          0	MERGED:   12107372	TO_CACHE:   34647403
L1D WQ	ACCESS:   27955667	FORWARD:     344825	MERGED:     148122	TO_CACHE:   27807545
L1D PQ	ACCESS:    1368598	FORWARD:          0	MERGED:      22374	TO_CACHE:    1346207

L1D UNIQUE REGIONS ACCESSED: 0
L1D REGIONS CONFLICTS: 0
L1D Cross Page Prefetch Requests: 1415797
L1D Same Page Prefetch Requests: 0
L1D ROI Sum of L1D PQ occupancy: 17640462
L1D PREFETCHES PUSHED FROM L2C: 0
L1I TOTAL     ACCESS:   40133821  HIT:   28012718  MISS:   12121103  HIT %:    69.7983  MISS %:    30.2017   MPKI: 60.6055
L1I LOAD      ACCESS:   40133821  HIT:   28012718  MISS:   12121103  HIT %:    69.7983  MISS %:    30.2017   MPKI: 60.6055
L1I PREFETCH  REQUESTED:          0  ISSUED:          0  USEFUL:          0  USELESS:          0
L1I USEFUL LOAD PREFETCHES:          0 PREFETCH ISSUED TO LOWER LEVEL:          0  ACCURACY: -nan
L1I TIMELY PREFETCHES:          0 LATE PREFETCHES: 0 DROPPED PREFETCHES: 0
L1I PREFETCHES SAME FILL-ORIGIN LEVEL: 0 DIFFERENT FILL-ORIGIN LEVEL: 0
L1I AVERAGE MISS LATENCY: 15.2274 cycles
L1I RQ	ACCESS:   58860752	FORWARD:          0	MERGED:   16969721	TO_CACHE:   41891031

BTB TOTAL     ACCESS:   30249223  HIT:   16785844  MISS:   13463379  HIT %:    55.4918  MISS %:    44.5082   MPKI: 67.3169
BTB BRANCH_DIRECT_JUMP	ACCESS:    1947252  HIT:    1081143  MISS:     866109
BTB BRANCH_INDIRECT	ACCESS:   12726639  HIT:    7595465  MISS:    5131174
BTB BRANCH_CONDITIONAL	ACCESS:    5680029  HIT:    4304442  MISS:    1375587
BTB BRANCH_DIRECT_CALL	ACCESS:    4158631  HIT:    1955106  MISS:    2203525
BTB BRANCH_INDIRECT_CALL	ACCESS:     789030  HIT:     387653  MISS:     401377
BTB BRANCH_RETURN	ACCESS:    4947642  HIT:    1462035  MISS:    3485607
BTB BRANCH_OTHER ACCESS:          0  HIT:          0  MISS:          0

L2C TOTAL     ACCESS:   19767686  HIT:   18972139  MISS:     795547  HIT %:    95.9755  MISS %:    4.02448   MPKI: 3.97773
L2C LOAD      ACCESS:   15208381  HIT:   14549967  MISS:     658414  HIT %:    95.6707  MISS %:    4.32928   MPKI: 3.29207
L2C DATA LOAD MPKI: 0.963075
L2C INSTRUCTION LOAD MPKI: 2.32899
L2C RFO       ACCESS:    1166752  HIT:    1153815  MISS:      12937  HIT %:    98.8912  MISS %:     1.1088   MPKI: 0.064685
L2C PREFETCH  ACCESS:    1045243  HIT:     932778  MISS:     112465  HIT %:    89.2403  MISS %:    10.7597   MPKI: 0.562325
AGUS PREFETCH L1 MISS: 0
L2C DATA PREFETCH MPKI: 0.562325
L2C INSTRUCTION PREFETCH MPKI: 0
L2C WRITEBACK ACCESS:    2333515  HIT:    2322100  MISS:      11415  HIT %:    99.5108  MISS %:   0.489176   MPKI: 0.057075
L2C LOAD TRANSLATION ACCESS:       1179  HIT:        873  MISS:        306  HIT %:    74.0458  MISS %:    25.9542   MPKI: 0.00153
L2C TRANSLATION FROM L1D PREFETCHER ACCESS:      12616  HIT:      12606  MISS:         10  HIT %:    99.9207  MISS %:  0.0792644   MPKI: 5e-05
L2C PREFETCH  REQUESTED:          0  ISSUED:          0  USEFUL:       3731  USELESS:     108466
L2C USEFUL LOAD PREFETCHES:       3731 PREFETCH ISSUED TO LOWER LEVEL:     112465  ACCURACY: 3.31748
L2C TIMELY PREFETCHES:       3731 LATE PREFETCHES: 0 DROPPED PREFETCHES: 0
L2C PREFETCHES SAME FILL-ORIGIN LEVEL: 0 DIFFERENT FILL-ORIGIN LEVEL: 0
L2C AVERAGE MISS LATENCY: 30.462 cycles
L2C RQ	ACCESS:   16389241	FORWARD:          0	MERGED:          0	TO_CACHE:   16388928
L2C WQ	ACCESS:    2333515	FORWARD:        323	MERGED:          0	TO_CACHE:    2333515
L2C PQ	ACCESS:    1045253	FORWARD:          0	MERGED:          0	TO_CACHE:    1045243

L2C Instructions Evicting Data 144728
L2C Translations Evicting Data 294
L2C Data Evicting Data 180263
L2C Instructions Evicting Instructions 321043
L2C Translations Evicting Instructions 21
L2C Data Evicting Instructions 137455
L2C Instructions Evicting Translations 28
L2C Translations Evicting Translations 1
L2C Data Evicting Translations 299
L2C Dense regions hint from L2: 0
PSCL5 TOTAL     ACCESS:       9393  HIT:       9393  MISS:          0  HIT %:        100  MISS %:          0   MPKI: 0
PSCL5 LOAD TRANSLATION ACCESS:       1179  HIT:       1179  MISS:          0  HIT %:        100  MISS %:          0   MPKI: 0
PSCL5 TRANSLATION FROM L1D PREFETCHER ACCESS:       8214  HIT:       8214  MISS:          0  HIT %:        100  MISS %:          0   MPKI: 0
PSCL5 PREFETCH  REQUESTED:          0  ISSUED:          0  USEFUL:          0  USELESS:          0
PSCL5 USEFUL LOAD PREFETCHES:          0 PREFETCH ISSUED TO LOWER LEVEL:          0  ACCURACY: -nan
PSCL5 TIMELY PREFETCHES:          0 LATE PREFETCHES: 0 DROPPED PREFETCHES: 0
PSCL5 PREFETCHES SAME FILL-ORIGIN LEVEL: 0 DIFFERENT FILL-ORIGIN LEVEL: 0

PSCL4 TOTAL     ACCESS:       9393  HIT:       9393  MISS:          0  HIT %:        100  MISS %:          0   MPKI: 0
PSCL4 LOAD TRANSLATION ACCESS:       1179  HIT:       1179  MISS:          0  HIT %:        100  MISS %:          0   MPKI: 0
PSCL4 TRANSLATION FROM L1D PREFETCHER ACCESS:       8214  HIT:       8214  MISS:          0  HIT %:        100  MISS %:          0   MPKI: 0
PSCL4 PREFETCH  REQUESTED:          0  ISSUED:          0  USEFUL:          0  USELESS:          0
PSCL4 USEFUL LOAD PREFETCHES:          0 PREFETCH ISSUED TO LOWER LEVEL:          0  ACCURACY: -nan
PSCL4 TIMELY PREFETCHES:          0 LATE PREFETCHES: 0 DROPPED PREFETCHES: 0
PSCL4 PREFETCHES SAME FILL-ORIGIN LEVEL: 0 DIFFERENT FILL-ORIGIN LEVEL: 0

PSCL3 TOTAL     ACCESS:       9393  HIT:       9393  MISS:          0  HIT %:        100  MISS %:          0   MPKI: 0
PSCL3 LOAD TRANSLATION ACCESS:       1179  HIT:       1179  MISS:          0  HIT %:        100  MISS %:          0   MPKI: 0
PSCL3 TRANSLATION FROM L1D PREFETCHER ACCESS:       8214  HIT:       8214  MISS:          0  HIT %:        100  MISS %:          0   MPKI: 0
PSCL3 PREFETCH  REQUESTED:          0  ISSUED:          0  USEFUL:          0  USELESS:          0
PSCL3 USEFUL LOAD PREFETCHES:          0 PREFETCH ISSUED TO LOWER LEVEL:          0  ACCURACY: -nan
PSCL3 TIMELY PREFETCHES:          0 LATE PREFETCHES: 0 DROPPED PREFETCHES: 0
PSCL3 PREFETCHES SAME FILL-ORIGIN LEVEL: 0 DIFFERENT FILL-ORIGIN LEVEL: 0

PSCL2 TOTAL     ACCESS:       4991  HIT:       4991  MISS:          0  HIT %:        100  MISS %:          0   MPKI: 0
PSCL2 LOAD TRANSLATION ACCESS:       1179  HIT:       1179  MISS:          0  HIT %:        100  MISS %:          0   MPKI: 0
PSCL2 TRANSLATION FROM L1D PREFETCHER ACCESS:       3812  HIT:       3812  MISS:          0  HIT %:        100  MISS %:          0   MPKI: 0
PSCL2 PREFETCH  REQUESTED:          0  ISSUED:          0  USEFUL:          0  USELESS:          0
PSCL2 USEFUL LOAD PREFETCHES:          0 PREFETCH ISSUED TO LOWER LEVEL:          0  ACCURACY: -nan
PSCL2 TIMELY PREFETCHES:          0 LATE PREFETCHES: 0 DROPPED PREFETCHES: 0
PSCL2 PREFETCHES SAME FILL-ORIGIN LEVEL: 0 DIFFERENT FILL-ORIGIN LEVEL: 0

LLC TOTAL     ACCESS:     810186  HIT:     805157  MISS:       5029  HIT %:    99.3793  MISS %:   0.620722   MPKI: 0.025145
LLC LOAD      ACCESS:     658414  HIT:     655284  MISS:       3130  HIT %:    99.5246  MISS %:   0.475385   MPKI: 0.01565
LLC RFO       ACCESS:      12937  HIT:      12933  MISS:          4  HIT %:    99.9691  MISS %:  0.0309191   MPKI: 2e-05
LLC PREFETCH  ACCESS:     112465  HIT:     110596  MISS:       1869  HIT %:    98.3381  MISS %:    1.66185   MPKI: 0.009345
AGUS PREFETCH L1 MISS: 0
LLC WRITEBACK ACCESS:      26054  HIT:      26039  MISS:         15  HIT %:    99.9424  MISS %:  0.0575727   MPKI: 7.5e-05
LLC LOAD TRANSLATION ACCESS:        306  HIT:        295  MISS:         11  HIT %:    96.4052  MISS %:    3.59477   MPKI: 5.5e-05
LLC TRANSLATION FROM L1D PREFETCHER ACCESS:         10  HIT:         10  MISS:          0  HIT %:        100  MISS %:          0   MPKI: 0
LLC PREFETCH  REQUESTED:          0  ISSUED:          0  USEFUL:       1155  USELESS:        287
LLC USEFUL LOAD PREFETCHES:       1155 PREFETCH ISSUED TO LOWER LEVEL:       1869  ACCURACY: 61.7978
LLC TIMELY PREFETCHES:       1155 LATE PREFETCHES: 0 DROPPED PREFETCHES: 0
LLC PREFETCHES SAME FILL-ORIGIN LEVEL: 0 DIFFERENT FILL-ORIGIN LEVEL: 0
LLC AVERAGE MISS LATENCY: 141.146 cycles
LLC RQ	ACCESS:     671667	FORWARD:          0	MERGED:          0	TO_CACHE:     671667
LLC WQ	ACCESS:      26054	FORWARD:          0	MERGED:          0	TO_CACHE:      26054
LLC PQ	ACCESS:     112465	FORWARD:          0	MERGED:          0	TO_CACHE:     112465

LLC Dense regions hint to LLC: 0

RAW hits: 1551577
Loads Generated: 48651161
Loads sent to L1D: 47099583
Stores Generated: 27955659
Stores sent to L1D: 27955667
Major fault: 0 Minor fault: 1263
Allocated PAGES: 1263
CPU 0 L1D 
Prefetch count 2497559 BOP and RL 

DRAM Statistics
 CHANNEL 0
 RQ ROW_BUFFER_HIT:       1574  ROW_BUFFER_MISS:       3440
 DBUS_CONGESTED:          0
 WQ ROW_BUFFER_HIT:          0  ROW_BUFFER_MISS:         15  FULL:          0

 AVG_CONGESTED_CYCLE: -
 All warmup complete: 2
Channel 0 Bank busy for read cycles: 0
Channel 0 Bank busy for write cycles: 0
Channel 0
Rank 0
0banks busy for read cycles: 664942377
0banks busy for write cycles: 15
1banks busy for read cycles: 260202
1banks busy for write cycles: 2335
2banks busy for read cycles: 42941
2banks busy for write cycles: 0
3banks busy for read cycles: 13222
3banks busy for write cycles: 0
4banks busy for read cycles: 8135
4banks busy for write cycles: 0
5banks busy for read cycles: 5287
5banks busy for write cycles: 0
6banks busy for read cycles: 6034
6banks busy for write cycles: 0
7banks busy for read cycles: 6145
7banks busy for write cycles: 0
8banks busy for read cycles: 8847
8banks busy for write cycles: 0

CPU 0 Branch Prediction Accuracy: 99.8972% MPKI: 0.18238 Average ROB Occupancy at Mispredict: 31.7107
Branch types
NOT_BRANCH: 164500479 82.2502%
BRANCH_DIRECT_JUMP: 1947252 0.973626%
BRANCH_INDIRECT: 12726639 6.36332%
BRANCH_CONDITIONAL: 10930228 5.46511%
BRANCH_DIRECT_CALL: 4158631 2.07932%
BRANCH_INDIRECT_CALL: 789030 0.394515%
BRANCH_RETURN: 4947642 2.47382%
BRANCH_OTHER: 0 0%

DRAM PAGES: 1048576
Allocated PAGES: 1263
