
*** ChampSim Multicore Out-of-Order Simulator ***

Warmup Instructions: 50000000
Simulation Instructions: 200000000
Number of CPUs: 1
LLC sets: 2048
LLC ways: 16
Off-chip DRAM Size: 4096 MB Channels: 1 Width: 64-bit Data Rate: 6400 MT/s
CPU 0 runs traces/spec2k17/server_021.champsimtrace.xz
.xz
BTB has LRU replacement policy
ITLB has LRU replacement policy
DTLB has LRU replacement policy
STLB has LRU replacement policy
L1I has LRU replacement policy
CPU 0 l1d next line prefetcher
L1D has LRU replacement policy
Initialize SRRIP state for L2C
Initialize DRRIP state for LLC
Offsets elements: 
Potential of Offsets elements: 
rewards of Offsets elements: 
Printing Sanity1
offset list size770
Heartbeat CPU 0 instructions: 10000003 cycles: 2943254 heartbeat IPC: 3.3976 cumulative IPC: 3.3976 (Simulation time: 0 hr 0 min 38 sec) 
Heartbeat CPU 0 instructions: 20000002 cycles: 5877584 heartbeat IPC: 3.40793 cumulative IPC: 3.40276 (Simulation time: 0 hr 1 min 18 sec) 
Offsets elements: 
Potential of Offsets elements: 
rewards of Offsets elements: 0 442 0 0 0 2 35 0 0 7 11 1 0 0 0 0 0 0 0 0 0 0 0 0 0 2 1 0 0 0 0 0 0 238 357 280 0 0 0 289 309 302 0 0 0 0 0 0 146 0 0 0 0 0 0 136 252 0 233 0 0 0 0 0 0 0 163 0 0 0 0 0 16 10 10 0 0 0 0 0 0 4 0 2 0 0 0 0 405 0 0 0 0 0 0 0 0 43 203 0 0 0 0 318 0 0 0 0 73 0 0 0 0 0 0 0 0 2 0 0 0 46 0 0 0 0 0 0 0 0 0 0 0 0 0 0 0 0 0 179 0 42 0 0 0 0 0 0 0 0 0 0 0 0 0 0 0 0 0 0 0 0 2 15 0 24 3 0 0 0 0 0 294 0 0 0 0 73 0 0 0 0 0 0 0 0 0 1 0 0 5 0 2 0 0 0 0 0 0 0 0 0 0 0 1 0 0 0 0 0 0 0 10 0 0 0 0 0 0 0 0 0 0 0 0 343 0 0 0 0 0 0 0 0 0 0 0 0 0 0 0 0 0 390 0 0 0 2 0 0 0 0 232 0 0 0 0 0 0 0 0 0 0 0 0 0 0 0 0 0 58 0 0 0 0 0 6 2 0 0 0 0 0 0 0 0 0 160 0 0 0 0 0 0 0 0 0 0 0 0 7 0 0 0 0 0 0 0 0 0 0 0 0 0 0 0 0 0 0 0 19 17 0 0 0 0 0 0 0 0 0 0 0 0 0 0 0 0 0 0 12 0 0 19 0 0 1 159 0 1 0 0 0 0 0 0 0 0 0 0 0 0 0 0 0 0 230 0 0 2 0 0 0 0 0 0 1 0 0 0 0 0 28 0 0 0 0 1 0 0 0 0 0 0 0 1 0 36 0 0 1 0 0 0 0 0 0 0 1 0 0 0 0 3 0 0 0 0 0 151 0 0 0 0 0 0 0 0 0 0 0 0 0 0 5 0 17 0 0 0 0 0 0 0 0 0 0 0 0 0 0 0 0 0 0 1 0 0 0 0 0 0 0 0 0 0 0 0 0 0 0 0 0 0 0 0 1 0 14 0 0 0 0 0 0 0 0 0 0 26 0 101 0 0 0 39 0 0 0 0 0 0 0 0 0 0 0 0 0 0 0 0 0 0 0 0 273 0 326 0 0 0 0 0 0 0 0 0 0 0 297 388 0 0 0 0 77 0 0 0 0 0 0 0 0 1 0 0 0 0 0 0 0 0 0 0 0 0 0 1 0 0 0 0 155 0 0 0 0 0 0 0 0 0 1 0 0 0 0 0 0 0 0 0 0 0 0 0 0 0 17 0 0 0 0 0 0 0 0 0 0 0 0 0 1 0 0 0 0 0 0 45 0 14 0 0 0 1 0 0 28 0 56 0 0 0 80 0 10 0 0 0 0 0 180 0 144 0 0 0 0 0 0 0 0 0 0 0 0 0 1 0 0 0 0 0 0 0 0 138 0 0 79 0 0 0 0 0 0 0 0 134 0 0 0 0 0 0 0 0 0 0 0 0 0 235 0 411 0 0 0 0 0 0 288 0 0 0 0 0 0 0 0 0 0 0 0 0 0 35 0 0 0 0 0 2 51 0 0 0 0 0 0 0 0 0 11 18 2 0 0 0 49 0 0 0 0 0 0 0 0 0 0 0 7 0 0 0 0 0 35 20 3 0 0 0 0 0 0 0 26 0 0 0 0 47 1 0 23 64 
Printing Sanity2
Heartbeat CPU 0 instructions: 30000000 cycles: 8818354 heartbeat IPC: 3.40047 cumulative IPC: 3.402 (Simulation time: 0 hr 1 min 55 sec) 
Heartbeat CPU 0 instructions: 40000003 cycles: 11753283 heartbeat IPC: 3.40724 cumulative IPC: 3.4033 (Simulation time: 0 hr 2 min 35 sec) 
Heartbeat CPU 0 instructions: 50000000 cycles: 14692869 heartbeat IPC: 3.40184 cumulative IPC: 3.40301 (Simulation time: 0 hr 3 min 14 sec) 

Warmup complete CPU 0 instructions: 50000001 cycles: 14692870 (Simulation time: 0 hr 3 min 14 sec) 

Heartbeat CPU 0 instructions: 60000001 cycles: 35935306 heartbeat IPC: 0.470756 cumulative IPC: 0.470756 (Simulation time: 0 hr 4 min 23 sec) 
Heartbeat CPU 0 instructions: 70000001 cycles: 56776879 heartbeat IPC: 0.47981 cumulative IPC: 0.47524 (Simulation time: 0 hr 5 min 29 sec) 
Heartbeat CPU 0 instructions: 80000001 cycles: 76857051 heartbeat IPC: 0.498004 cumulative IPC: 0.482593 (Simulation time: 0 hr 6 min 39 sec) 
Heartbeat CPU 0 instructions: 90000002 cycles: 96801213 heartbeat IPC: 0.5014 cumulative IPC: 0.487161 (Simulation time: 0 hr 7 min 47 sec) 
Heartbeat CPU 0 instructions: 100000000 cycles: 116753288 heartbeat IPC: 0.501201 cumulative IPC: 0.489906 (Simulation time: 0 hr 8 min 55 sec) 
*** Reached end of trace for Core: 0 Repeating trace: traces/spec2k17/server_021.champsimtrace.xz
Heartbeat CPU 0 instructions: 110000000 cycles: 136787868 heartbeat IPC: 0.499137 cumulative IPC: 0.491421 (Simulation time: 0 hr 10 min 4 sec) 
Heartbeat CPU 0 instructions: 120000003 cycles: 156675496 heartbeat IPC: 0.502825 cumulative IPC: 0.493018 (Simulation time: 0 hr 11 min 8 sec) 
Heartbeat CPU 0 instructions: 130000000 cycles: 176491419 heartbeat IPC: 0.504645 cumulative IPC: 0.494442 (Simulation time: 0 hr 12 min 16 sec) 
Heartbeat CPU 0 instructions: 140000003 cycles: 196376260 heartbeat IPC: 0.502896 cumulative IPC: 0.495367 (Simulation time: 0 hr 13 min 25 sec) 
Heartbeat CPU 0 instructions: 150000003 cycles: 216234435 heartbeat IPC: 0.503571 cumulative IPC: 0.496176 (Simulation time: 0 hr 14 min 30 sec) 
Heartbeat CPU 0 instructions: 160000001 cycles: 236208204 heartbeat IPC: 0.500657 cumulative IPC: 0.49658 (Simulation time: 0 hr 15 min 31 sec) 
Heartbeat CPU 0 instructions: 170000001 cycles: 256052325 heartbeat IPC: 0.503928 cumulative IPC: 0.497184 (Simulation time: 0 hr 16 min 37 sec) 
Heartbeat CPU 0 instructions: 180000000 cycles: 275906513 heartbeat IPC: 0.503672 cumulative IPC: 0.497677 (Simulation time: 0 hr 17 min 46 sec) 
Heartbeat CPU 0 instructions: 190000000 cycles: 295783032 heartbeat IPC: 0.503106 cumulative IPC: 0.498061 (Simulation time: 0 hr 18 min 54 sec) 
Heartbeat CPU 0 instructions: 200000002 cycles: 315528414 heartbeat IPC: 0.506448 cumulative IPC: 0.498611 (Simulation time: 0 hr 20 min 1 sec) 
Heartbeat CPU 0 instructions: 210000001 cycles: 335332609 heartbeat IPC: 0.504943 cumulative IPC: 0.499002 (Simulation time: 0 hr 21 min 12 sec) 
*** Reached end of trace for Core: 0 Repeating trace: traces/spec2k17/server_021.champsimtrace.xz
Heartbeat CPU 0 instructions: 220000000 cycles: 355329498 heartbeat IPC: 0.500078 cumulative IPC: 0.499066 (Simulation time: 0 hr 22 min 23 sec) 
Heartbeat CPU 0 instructions: 230000003 cycles: 375184940 heartbeat IPC: 0.50364 cumulative IPC: 0.499317 (Simulation time: 0 hr 23 min 27 sec) 
Heartbeat CPU 0 instructions: 240000002 cycles: 395039649 heartbeat IPC: 0.503659 cumulative IPC: 0.499544 (Simulation time: 0 hr 24 min 32 sec) 
Heartbeat CPU 0 instructions: 250000000 cycles: 414921266 heartbeat IPC: 0.502977 cumulative IPC: 0.499715 (Simulation time: 0 hr 25 min 40 sec) 
Finished CPU 0 instructions: 200000003 cycles: 400228397 cumulative IPC: 0.499715 (Simulation time: 0 hr 25 min 40 sec) 

ChampSim completed all CPUs

Region of Interest Statistics

CPU 0 cumulative IPC: 0.499715 instructions: 200000003 cycles: 400228397
ITLB TOTAL     ACCESS:   33782074  HIT:   32247813  MISS:    1534261  HIT %:    95.4584  MISS %:    4.54164   MPKI: 7.6713
ITLB LOAD TRANSLATION ACCESS:   33782074  HIT:   32247813  MISS:    1534261  HIT %:    95.4584  MISS %:    4.54164   MPKI: 7.6713
ITLB PREFETCH  REQUESTED:          0  ISSUED:          0  USEFUL:          0  USELESS:          0
ITLB USEFUL LOAD PREFETCHES:          0 PREFETCH ISSUED TO LOWER LEVEL:          0  ACCURACY: -nan
ITLB TIMELY PREFETCHES:          0 LATE PREFETCHES: 0 DROPPED PREFETCHES: 0
ITLB PREFETCHES SAME FILL-ORIGIN LEVEL: 0 DIFFERENT FILL-ORIGIN LEVEL: 0
ITLB AVERAGE MISS LATENCY: 9.23253 cycles
ITLB RQ	ACCESS:   40648303	FORWARD:          0	MERGED:    6372358	TO_CACHE:   34275945

DTLB TOTAL     ACCESS:   39843002  HIT:   38344570  MISS:    1498432  HIT %:    96.2392  MISS %:    3.76084   MPKI: 7.49216
DTLB LOAD TRANSLATION ACCESS:   39843002  HIT:   38344570  MISS:    1498432  HIT %:    96.2392  MISS %:    3.76084   MPKI: 7.49216
DTLB PREFETCH  REQUESTED:          0  ISSUED:          0  USEFUL:          0  USELESS:          0
DTLB USEFUL LOAD PREFETCHES:          0 PREFETCH ISSUED TO LOWER LEVEL:          0  ACCURACY: -nan
DTLB TIMELY PREFETCHES:          0 LATE PREFETCHES: 0 DROPPED PREFETCHES: 0
DTLB PREFETCHES SAME FILL-ORIGIN LEVEL: 0 DIFFERENT FILL-ORIGIN LEVEL: 0
DTLB AVERAGE MISS LATENCY: 14.6574 cycles
DTLB RQ	ACCESS:   60953902	FORWARD:          0	MERGED:   20719689	TO_CACHE:   40234213

STLB TOTAL     ACCESS:    3035511  HIT:    2960652  MISS:      74859  HIT %:    97.5339  MISS %:    2.46611   MPKI: 0.374295
STLB LOAD TRANSLATION ACCESS:    3032693  HIT:    2957842  MISS:      74851  HIT %:    97.5319  MISS %:    2.46814   MPKI: 0.374255
STLB TRANSLATION FROM L1D PREFETCHER ACCESS:       2818  HIT:       2810  MISS:          8  HIT %:    99.7161  MISS %:   0.283889   MPKI: 4e-05
STLB PREFETCH  REQUESTED:          0  ISSUED:          0  USEFUL:          7  USELESS:          1
STLB USEFUL LOAD PREFETCHES:          7 PREFETCH ISSUED TO LOWER LEVEL:          0  ACCURACY: inf
STLB TIMELY PREFETCHES:          7 LATE PREFETCHES: 0 DROPPED PREFETCHES: 126
STLB PREFETCHES SAME FILL-ORIGIN LEVEL: 0 DIFFERENT FILL-ORIGIN LEVEL: 0
STLB AVERAGE MISS LATENCY: 117.577 cycles
STLB RQ	ACCESS:    3037002	FORWARD:          0	MERGED:       1341	TO_CACHE:    3035661

STLB Hit, L1D data hit: 0
STLB Hit, L2C data hit: 0
STLB Hit, LLC data hit: 0
STLB Hit, LLC data miss: 0
STLB STLB hints to L2: 0
L1D TOTAL     ACCESS:   49089426  HIT:   42338410  MISS:    6751016  HIT %:    86.2475  MISS %:    13.7525   MPKI: 33.7551
L1D LOAD      ACCESS:   26569485  HIT:   23506824  MISS:    3062661  HIT %:     88.473  MISS %:     11.527   MPKI: 15.3133
L1D RFO       ACCESS:   22516895  HIT:   18830494  MISS:    3686401  HIT %:    83.6283  MISS %:    16.3717   MPKI: 18.432
L1D PREFETCH  ACCESS:       3046  HIT:       1092  MISS:       1954  HIT %:    35.8503  MISS %:    64.1497   MPKI: 0.00977
AGUS PREFETCH L1 MISS: 0
L1D PREFETCH  REQUESTED:       8979  ISSUED:       8922  USEFUL:        202  USELESS:       1752
L1D USEFUL LOAD PREFETCHES:        202 PREFETCH ISSUED TO LOWER LEVEL:       2124  ACCURACY: 9.51036
L1D TIMELY PREFETCHES:        202 LATE PREFETCHES: 167 DROPPED PREFETCHES: 157
L1D PREFETCHES SAME FILL-ORIGIN LEVEL: 2124 DIFFERENT FILL-ORIGIN LEVEL: 0
L1D AVERAGE MISS LATENCY: 1126.48 cycles
L1D RQ	ACCESS:   45151036	FORWARD:          0	MERGED:   17818294	TO_CACHE:   27051778
L1D WQ	ACCESS:   34105995	FORWARD:     280964	MERGED:     203871	TO_CACHE:   33902124
L1D PQ	ACCESS:       4613	FORWARD:          0	MERGED:        304	TO_CACHE:       4309

L1D UNIQUE REGIONS ACCESSED: 0
L1D REGIONS CONFLICTS: 0
L1D Cross Page Prefetch Requests: 7149
L1D Same Page Prefetch Requests: 0
L1D ROI Sum of L1D PQ occupancy: 181451
L1D PREFETCHES PUSHED FROM L2C: 0
L1I TOTAL     ACCESS:   37998106  HIT:   28917878  MISS:    9080228  HIT %:    76.1035  MISS %:    23.8965   MPKI: 45.4011
L1I LOAD      ACCESS:   37998106  HIT:   28917878  MISS:    9080228  HIT %:    76.1035  MISS %:    23.8965   MPKI: 45.4011
L1I PREFETCH  REQUESTED:          0  ISSUED:          0  USEFUL:          0  USELESS:          0
L1I USEFUL LOAD PREFETCHES:          0 PREFETCH ISSUED TO LOWER LEVEL:          0  ACCURACY: -nan
L1I TIMELY PREFETCHES:          0 LATE PREFETCHES: 0 DROPPED PREFETCHES: 0
L1I PREFETCHES SAME FILL-ORIGIN LEVEL: 0 DIFFERENT FILL-ORIGIN LEVEL: 0
L1I AVERAGE MISS LATENCY: 16.5505 cycles
L1I RQ	ACCESS:   59019268	FORWARD:          0	MERGED:   18370965	TO_CACHE:   40648303

BTB TOTAL     ACCESS:   25736961  HIT:   24179944  MISS:    1557017  HIT %:    93.9503  MISS %:    6.04973   MPKI: 7.78508
BTB BRANCH_DIRECT_JUMP	ACCESS:    1656182  HIT:    1646075  MISS:      10107
BTB BRANCH_INDIRECT	ACCESS:    9984753  HIT:    9460939  MISS:     523814
BTB BRANCH_CONDITIONAL	ACCESS:    7260252  HIT:    7246132  MISS:      14120
BTB BRANCH_DIRECT_CALL	ACCESS:    2821015  HIT:    2786715  MISS:      34300
BTB BRANCH_INDIRECT_CALL	ACCESS:     596869  HIT:     485589  MISS:     111280
BTB BRANCH_RETURN	ACCESS:    3417890  HIT:    2554494  MISS:     863396
BTB BRANCH_OTHER ACCESS:          0  HIT:          0  MISS:          0

L2C TOTAL     ACCESS:   20244056  HIT:   13699242  MISS:    6544814  HIT %:    67.6704  MISS %:    32.3296   MPKI: 32.7241
L2C LOAD      ACCESS:   12142505  HIT:    9274400  MISS:    2868105  HIT %:    76.3796  MISS %:    23.6204   MPKI: 14.3405
L2C DATA LOAD MPKI: 11.5954
L2C INSTRUCTION LOAD MPKI: 2.74513
L2C RFO       ACCESS:    3686396  HIT:     177709  MISS:    3508687  HIT %:    4.82067  MISS %:    95.1793   MPKI: 17.5434
L2C PREFETCH  ACCESS:       2124  HIT:        509  MISS:       1615  HIT %:    23.9642  MISS %:    76.0358   MPKI: 0.008075
AGUS PREFETCH L1 MISS: 0
L2C DATA PREFETCH MPKI: 0.008075
L2C INSTRUCTION PREFETCH MPKI: 0
L2C WRITEBACK ACCESS:    4332471  HIT:    4200131  MISS:     132340  HIT %:    96.9454  MISS %:    3.05461   MPKI: 0.6617
L2C LOAD TRANSLATION ACCESS:      80384  HIT:      46390  MISS:      33994  HIT %:    57.7105  MISS %:    42.2895   MPKI: 0.16997
L2C TRANSLATION FROM L1D PREFETCHER ACCESS:        176  HIT:        103  MISS:         73  HIT %:    58.5227  MISS %:    41.4773   MPKI: 0.000365
L2C PREFETCH  REQUESTED:          0  ISSUED:          0  USEFUL:         83  USELESS:       1605
L2C USEFUL LOAD PREFETCHES:         83 PREFETCH ISSUED TO LOWER LEVEL:       1615  ACCURACY: 5.13932
L2C TIMELY PREFETCHES:         83 LATE PREFETCHES: 0 DROPPED PREFETCHES: 0
L2C PREFETCHES SAME FILL-ORIGIN LEVEL: 0 DIFFERENT FILL-ORIGIN LEVEL: 0
L2C AVERAGE MISS LATENCY: 162.899 cycles
L2C RQ	ACCESS:   15909679	FORWARD:          0	MERGED:          0	TO_CACHE:   15909461
L2C WQ	ACCESS:    4332471	FORWARD:        218	MERGED:          0	TO_CACHE:    4332471
L2C PQ	ACCESS:       2124	FORWARD:          0	MERGED:          0	TO_CACHE:       2124

L2C Instructions Evicting Data 511179
L2C Translations Evicting Data 31255
L2C Data Evicting Data 5299577
L2C Instructions Evicting Instructions 35263
L2C Translations Evicting Instructions 2614
L2C Data Evicting Instructions 499036
L2C Instructions Evicting Translations 2585
L2C Translations Evicting Translations 198
L2C Data Evicting Translations 30767
L2C Dense regions hint from L2: 0
PSCL5 TOTAL     ACCESS:      74985  HIT:      74985  MISS:          0  HIT %:        100  MISS %:          0   MPKI: 0
PSCL5 LOAD TRANSLATION ACCESS:      74851  HIT:      74851  MISS:          0  HIT %:        100  MISS %:          0   MPKI: 0
PSCL5 TRANSLATION FROM L1D PREFETCHER ACCESS:        134  HIT:        134  MISS:          0  HIT %:        100  MISS %:          0   MPKI: 0
PSCL5 PREFETCH  REQUESTED:          0  ISSUED:          0  USEFUL:          0  USELESS:          0
PSCL5 USEFUL LOAD PREFETCHES:          0 PREFETCH ISSUED TO LOWER LEVEL:          0  ACCURACY: -nan
PSCL5 TIMELY PREFETCHES:          0 LATE PREFETCHES: 0 DROPPED PREFETCHES: 0
PSCL5 PREFETCHES SAME FILL-ORIGIN LEVEL: 0 DIFFERENT FILL-ORIGIN LEVEL: 0

PSCL4 TOTAL     ACCESS:      73070  HIT:      72905  MISS:        165  HIT %:    99.7742  MISS %:   0.225811   MPKI: 0.000825
PSCL4 LOAD TRANSLATION ACCESS:      72936  HIT:      72771  MISS:        165  HIT %:    99.7738  MISS %:   0.226226   MPKI: 0.000825
PSCL4 TRANSLATION FROM L1D PREFETCHER ACCESS:        134  HIT:        134  MISS:          0  HIT %:        100  MISS %:          0   MPKI: 0
PSCL4 PREFETCH  REQUESTED:          0  ISSUED:          0  USEFUL:          0  USELESS:          0
PSCL4 USEFUL LOAD PREFETCHES:          0 PREFETCH ISSUED TO LOWER LEVEL:          0  ACCURACY: -nan
PSCL4 TIMELY PREFETCHES:          0 LATE PREFETCHES: 0 DROPPED PREFETCHES: 0
PSCL4 PREFETCHES SAME FILL-ORIGIN LEVEL: 0 DIFFERENT FILL-ORIGIN LEVEL: 0

PSCL3 TOTAL     ACCESS:      73965  HIT:      73800  MISS:        165  HIT %:    99.7769  MISS %:   0.223078   MPKI: 0.000825
PSCL3 LOAD TRANSLATION ACCESS:      73831  HIT:      73666  MISS:        165  HIT %:    99.7765  MISS %:   0.223483   MPKI: 0.000825
PSCL3 TRANSLATION FROM L1D PREFETCHER ACCESS:        134  HIT:        134  MISS:          0  HIT %:        100  MISS %:          0   MPKI: 0
PSCL3 PREFETCH  REQUESTED:          0  ISSUED:          0  USEFUL:          0  USELESS:          0
PSCL3 USEFUL LOAD PREFETCHES:          0 PREFETCH ISSUED TO LOWER LEVEL:          0  ACCURACY: -nan
PSCL3 TIMELY PREFETCHES:          0 LATE PREFETCHES: 0 DROPPED PREFETCHES: 0
PSCL3 PREFETCHES SAME FILL-ORIGIN LEVEL: 0 DIFFERENT FILL-ORIGIN LEVEL: 0

PSCL2 TOTAL     ACCESS:      74937  HIT:      69708  MISS:       5229  HIT %:    93.0221  MISS %:    6.97786   MPKI: 0.026145
PSCL2 LOAD TRANSLATION ACCESS:      74852  HIT:      69623  MISS:       5229  HIT %:    93.0142  MISS %:    6.98579   MPKI: 0.026145
PSCL2 TRANSLATION FROM L1D PREFETCHER ACCESS:         85  HIT:         85  MISS:          0  HIT %:        100  MISS %:          0   MPKI: 0
PSCL2 PREFETCH  REQUESTED:          0  ISSUED:          0  USEFUL:          0  USELESS:          0
PSCL2 USEFUL LOAD PREFETCHES:          0 PREFETCH ISSUED TO LOWER LEVEL:          0  ACCURACY: -nan
PSCL2 TIMELY PREFETCHES:          0 LATE PREFETCHES: 0 DROPPED PREFETCHES: 0
PSCL2 PREFETCHES SAME FILL-ORIGIN LEVEL: 0 DIFFERENT FILL-ORIGIN LEVEL: 0

LLC TOTAL     ACCESS:   10414156  HIT:    4335097  MISS:    6079059  HIT %:     41.627  MISS %:     58.373   MPKI: 30.3953
LLC LOAD      ACCESS:    2868105  HIT:    1603621  MISS:    1264484  HIT %:    55.9122  MISS %:    44.0878   MPKI: 6.32242
LLC RFO       ACCESS:    3508663  HIT:     954037  MISS:    2554626  HIT %:    27.1909  MISS %:    72.8091   MPKI: 12.7731
LLC PREFETCH  ACCESS:       1615  HIT:        620  MISS:        995  HIT %:    38.3901  MISS %:    61.6099   MPKI: 0.004975
AGUS PREFETCH L1 MISS: 0
LLC WRITEBACK ACCESS:    4001706  HIT:    1765263  MISS:    2236443  HIT %:    44.1128  MISS %:    55.8872   MPKI: 11.1822
LLC LOAD TRANSLATION ACCESS:      33994  HIT:      11544  MISS:      22450  HIT %:    33.9589  MISS %:    66.0411   MPKI: 0.11225
LLC TRANSLATION FROM L1D PREFETCHER ACCESS:         73  HIT:         12  MISS:         61  HIT %:    16.4384  MISS %:    83.5616   MPKI: 0.000305
LLC PREFETCH  REQUESTED:          0  ISSUED:          0  USEFUL:         22  USELESS:       1034
LLC USEFUL LOAD PREFETCHES:         22 PREFETCH ISSUED TO LOWER LEVEL:        995  ACCURACY: 2.21106
LLC TIMELY PREFETCHES:         22 LATE PREFETCHES: 0 DROPPED PREFETCHES: 0
LLC PREFETCHES SAME FILL-ORIGIN LEVEL: 0 DIFFERENT FILL-ORIGIN LEVEL: 0
LLC AVERAGE MISS LATENCY: 143.304 cycles
LLC RQ	ACCESS:    6410858	FORWARD:          0	MERGED:          0	TO_CACHE:    6410834
LLC WQ	ACCESS:    4001705	FORWARD:         24	MERGED:          0	TO_CACHE:    4001705
LLC PQ	ACCESS:       1615	FORWARD:          0	MERGED:          0	TO_CACHE:       1615

LLC Dense regions hint to LLC: 0

RAW hits: 2519461
Loads Generated: 47670499
Loads sent to L1D: 45151036
Stores Generated: 34105974
Stores sent to L1D: 34105995
Major fault: 0 Minor fault: 22424
Allocated PAGES: 22424
CPU 0 L1D 
Prefetch count 10724 BOP and RL 

DRAM Statistics
 CHANNEL 0
 RQ ROW_BUFFER_HIT:    1742471  ROW_BUFFER_MISS:    2099749
 DBUS_CONGESTED:       1621
 WQ ROW_BUFFER_HIT:     609779  ROW_BUFFER_MISS:    2016452  FULL:      58236

 AVG_CONGESTED_CYCLE: 3
 All warmup complete: 2
Channel 0 Bank busy for read cycles: 0
Channel 0 Bank busy for write cycles: 0
Channel 0
Rank 0
0banks busy for read cycles: 181853530
0banks busy for write cycles: 253822
1banks busy for read cycles: 32544043
1banks busy for write cycles: 35777686
2banks busy for read cycles: 13888652
2banks busy for write cycles: 12546290
3banks busy for read cycles: 16344743
3banks busy for write cycles: 5503200
4banks busy for read cycles: 9273423
4banks busy for write cycles: 3628178
5banks busy for read cycles: 6058084
5banks busy for write cycles: 3212874
6banks busy for read cycles: 11992973
6banks busy for write cycles: 3305950
7banks busy for read cycles: 5176394
7banks busy for write cycles: 5994936
8banks busy for read cycles: 15499639
8banks busy for write cycles: 37373981

CPU 0 Branch Prediction Accuracy: 99.9423% MPKI: 0.088365 Average ROB Occupancy at Mispredict: 120.153
Branch types
NOT_BRANCH: 169393846 84.6969%
BRANCH_DIRECT_JUMP: 1656182 0.828091%
BRANCH_INDIRECT: 9984753 4.99238%
BRANCH_CONDITIONAL: 12129382 6.06469%
BRANCH_DIRECT_CALL: 2821015 1.41051%
BRANCH_INDIRECT_CALL: 596869 0.298434%
BRANCH_RETURN: 3417890 1.70894%
BRANCH_OTHER: 0 0%

DRAM PAGES: 1048576
Allocated PAGES: 22424
