
*** ChampSim Multicore Out-of-Order Simulator ***

Warmup Instructions: 50000000
Simulation Instructions: 200000000
Number of CPUs: 1
LLC sets: 2048
LLC ways: 16
Off-chip DRAM Size: 4096 MB Channels: 1 Width: 64-bit Data Rate: 6400 MT/s
CPU 0 runs traces/spec2k17/server_018.champsimtrace.xz
.xz
BTB has LRU replacement policy
ITLB has LRU replacement policy
DTLB has LRU replacement policy
STLB has LRU replacement policy
L1I has LRU replacement policy
CPU 0 l1d next line prefetcher
L1D has LRU replacement policy
Initialize SRRIP state for L2C
Initialize DRRIP state for LLC
Offsets elements: 
Potential of Offsets elements: 
rewards of Offsets elements: 
Printing Sanity1
offset list size865
Heartbeat CPU 0 instructions: 10000001 cycles: 2937594 heartbeat IPC: 3.40415 cumulative IPC: 3.40415 (Simulation time: 0 hr 0 min 41 sec) 
Heartbeat CPU 0 instructions: 20000000 cycles: 5873834 heartbeat IPC: 3.40572 cumulative IPC: 3.40493 (Simulation time: 0 hr 1 min 20 sec) 
Offsets elements: 
Potential of Offsets elements: 
rewards of Offsets elements: 0 0 0 0 237 370 347 0 0 0 0 0 0 0 0 0 0 0 0 0 391 182 261 356 0 0 0 0 0 0 1 51 23 117 0 0 0 0 0 0 0 0 116 0 0 0 0 0 0 0 0 5 2 0 0 0 20 0 0 0 0 0 0 0 0 0 0 0 0 0 0 0 0 0 0 2 0 0 21 10 0 0 0 0 190 225 259 0 0 0 0 0 0 0 0 0 0 27 0 8 0 0 0 41 1 0 0 0 0 295 3 0 0 0 0 0 0 0 0 0 0 0 0 0 0 0 0 0 0 0 0 153 221 0 0 373 0 0 0 0 0 0 0 2 0 0 0 2 0 0 0 0 0 0 0 0 0 0 0 0 1 176 0 0 4 0 0 8 0 0 0 0 0 0 0 0 0 0 0 0 0 0 0 0 0 0 0 0 0 0 0 0 0 0 0 0 0 56 0 0 0 0 0 0 168 366 0 0 0 0 0 0 0 0 0 0 0 0 46 0 0 0 0 0 0 27 1 0 0 0 96 0 0 0 0 0 0 0 0 0 0 0 0 0 0 0 0 0 0 0 0 0 0 0 0 0 0 0 0 0 0 0 0 0 0 0 0 0 0 0 0 0 0 0 0 0 0 0 0 0 0 0 0 0 2 0 0 0 0 18 9 12 0 0 0 0 0 0 0 0 1 0 0 0 3 0 0 0 0 0 0 0 24 0 0 0 0 0 0 0 0 0 0 0 2 0 0 0 0 0 0 0 0 0 3 0 3 0 0 0 0 0 0 0 0 0 0 0 0 0 0 0 255 0 7 0 0 0 0 0 0 54 0 0 0 0 249 0 0 0 0 0 0 0 0 0 0 0 0 0 0 0 5 0 0 0 0 0 0 53 69 2 1 0 0 0 0 0 0 0 0 0 0 0 0 0 0 0 0 0 0 0 0 0 0 0 0 0 0 0 0 0 0 0 0 0 15 0 0 0 0 0 0 0 0 0 0 0 0 0 0 0 0 0 0 1 0 0 0 0 0 0 7 0 0 0 0 0 0 0 0 0 0 0 0 0 0 0 0 0 0 91 0 0 23 0 0 0 56 0 0 0 0 0 0 0 0 0 0 0 0 0 0 0 0 0 0 0 0 0 2 0 1 0 0 0 85 0 0 0 0 0 76 0 0 0 0 0 0 0 0 0 0 0 0 0 0 0 0 0 0 0 0 0 0 0 0 0 0 0 0 86 0 5 0 0 0 0 0 0 0 0 0 0 0 0 0 0 0 0 0 0 0 0 0 0 38 0 0 0 1 21 0 0 0 1 0 0 0 0 0 0 0 0 0 0 0 0 0 0 0 1 0 0 2 0 2 0 0 1 0 209 0 0 0 0 0 0 304 0 0 0 0 0 0 0 0 84 0 0 0 0 0 0 0 0 0 0 0 0 233 140 0 0 0 0 0 2 2 0 0 0 0 0 0 0 0 0 0 0 0 0 0 0 0 0 0 53 0 6 0 0 0 0 3 0 0 0 19 0 0 0 0 0 0 0 0 0 0 0 0 0 0 0 0 0 0 0 48 0 0 0 0 0 0 0 0 0 0 0 0 0 0 0 0 0 0 0 0 3 0 0 0 0 0 0 0 0 0 0 0 0 0 0 0 0 0 53 0 0 0 0 0 0 0 0 0 0 0 0 0 0 0 0 0 81 0 0 0 0 0 0 0 0 0 0 16 1 0 0 0 73 0 0 0 0 9 0 0 0 0 0 0 0 0 0 0 0 0 0 0 0 23 0 0 0 0 0 0 0 0 0 0 0 0 0 0 0 0 0 0 0 160 3 0 16 10 0 0 0 0 0 0 0 0 0 0 0 0 0 0 0 0 0 0 0 0 0 3 0 0 0 0 116 0 64 0 0 0 0 14 0 1 0 0 0 0 0 0 0 0 0 0 0 0 0 0 0 0 0 0 0 0 0 0 
Printing Sanity2
Heartbeat CPU 0 instructions: 30000000 cycles: 8791643 heartbeat IPC: 3.42723 cumulative IPC: 3.41233 (Simulation time: 0 hr 1 min 58 sec) 
Heartbeat CPU 0 instructions: 40000001 cycles: 11653385 heartbeat IPC: 3.49438 cumulative IPC: 3.43248 (Simulation time: 0 hr 2 min 32 sec) 
Heartbeat CPU 0 instructions: 50000001 cycles: 14586815 heartbeat IPC: 3.40898 cumulative IPC: 3.42775 (Simulation time: 0 hr 3 min 10 sec) 

Warmup complete CPU 0 instructions: 50000001 cycles: 14586815 (Simulation time: 0 hr 3 min 10 sec) 

Heartbeat CPU 0 instructions: 60000001 cycles: 36883295 heartbeat IPC: 0.448501 cumulative IPC: 0.448501 (Simulation time: 0 hr 4 min 22 sec) 
Heartbeat CPU 0 instructions: 70000000 cycles: 58961334 heartbeat IPC: 0.452939 cumulative IPC: 0.450709 (Simulation time: 0 hr 5 min 33 sec) 
Heartbeat CPU 0 instructions: 80000002 cycles: 81056255 heartbeat IPC: 0.452593 cumulative IPC: 0.451335 (Simulation time: 0 hr 6 min 45 sec) 
Heartbeat CPU 0 instructions: 90000000 cycles: 103191424 heartbeat IPC: 0.45177 cumulative IPC: 0.451444 (Simulation time: 0 hr 7 min 55 sec) 
Heartbeat CPU 0 instructions: 100000001 cycles: 124450009 heartbeat IPC: 0.470398 cumulative IPC: 0.455111 (Simulation time: 0 hr 9 min 5 sec) 
*** Reached end of trace for Core: 0 Repeating trace: traces/spec2k17/server_018.champsimtrace.xz
Heartbeat CPU 0 instructions: 110000000 cycles: 145359183 heartbeat IPC: 0.478259 cumulative IPC: 0.458813 (Simulation time: 0 hr 10 min 12 sec) 
Heartbeat CPU 0 instructions: 120000000 cycles: 166292649 heartbeat IPC: 0.477704 cumulative IPC: 0.461419 (Simulation time: 0 hr 11 min 21 sec) 
Heartbeat CPU 0 instructions: 130000000 cycles: 187126177 heartbeat IPC: 0.479996 cumulative IPC: 0.463662 (Simulation time: 0 hr 12 min 28 sec) 
Heartbeat CPU 0 instructions: 140000003 cycles: 215530359 heartbeat IPC: 0.352061 cumulative IPC: 0.447887 (Simulation time: 0 hr 13 min 37 sec) 
Heartbeat CPU 0 instructions: 150000001 cycles: 241785685 heartbeat IPC: 0.380875 cumulative IPC: 0.440143 (Simulation time: 0 hr 14 min 49 sec) 
Heartbeat CPU 0 instructions: 160000001 cycles: 264544301 heartbeat IPC: 0.439394 cumulative IPC: 0.440075 (Simulation time: 0 hr 15 min 59 sec) 
Heartbeat CPU 0 instructions: 170000000 cycles: 286627374 heartbeat IPC: 0.452835 cumulative IPC: 0.441111 (Simulation time: 0 hr 17 min 8 sec) 
Heartbeat CPU 0 instructions: 180000000 cycles: 308238605 heartbeat IPC: 0.462722 cumulative IPC: 0.442701 (Simulation time: 0 hr 18 min 19 sec) 
Heartbeat CPU 0 instructions: 190000001 cycles: 329806512 heartbeat IPC: 0.463652 cumulative IPC: 0.444135 (Simulation time: 0 hr 19 min 26 sec) 
Heartbeat CPU 0 instructions: 200000001 cycles: 351097342 heartbeat IPC: 0.469686 cumulative IPC: 0.445751 (Simulation time: 0 hr 20 min 36 sec) 
Heartbeat CPU 0 instructions: 210000001 cycles: 372310608 heartbeat IPC: 0.471403 cumulative IPC: 0.447272 (Simulation time: 0 hr 21 min 47 sec) 
*** Reached end of trace for Core: 0 Repeating trace: traces/spec2k17/server_018.champsimtrace.xz
Heartbeat CPU 0 instructions: 220000000 cycles: 393472312 heartbeat IPC: 0.472552 cumulative IPC: 0.448684 (Simulation time: 0 hr 22 min 57 sec) 
Heartbeat CPU 0 instructions: 230000003 cycles: 414525654 heartbeat IPC: 0.474984 cumulative IPC: 0.450069 (Simulation time: 0 hr 24 min 7 sec) 
Heartbeat CPU 0 instructions: 240000000 cycles: 435517741 heartbeat IPC: 0.47637 cumulative IPC: 0.45138 (Simulation time: 0 hr 25 min 19 sec) 
Heartbeat CPU 0 instructions: 250000002 cycles: 467232253 heartbeat IPC: 0.315313 cumulative IPC: 0.441847 (Simulation time: 0 hr 26 min 34 sec) 
Finished CPU 0 instructions: 200000001 cycles: 452645438 cumulative IPC: 0.441847 (Simulation time: 0 hr 26 min 34 sec) 

ChampSim completed all CPUs

Region of Interest Statistics

CPU 0 cumulative IPC: 0.441847 instructions: 200000001 cycles: 452645438
ITLB TOTAL     ACCESS:   33599681  HIT:   32183650  MISS:    1416031  HIT %:    95.7856  MISS %:    4.21442   MPKI: 7.08015
ITLB LOAD TRANSLATION ACCESS:   33599681  HIT:   32183650  MISS:    1416031  HIT %:    95.7856  MISS %:    4.21442   MPKI: 7.08015
ITLB PREFETCH  REQUESTED:          0  ISSUED:          0  USEFUL:          0  USELESS:          0
ITLB USEFUL LOAD PREFETCHES:          0 PREFETCH ISSUED TO LOWER LEVEL:          0  ACCURACY: -nan
ITLB TIMELY PREFETCHES:          0 LATE PREFETCHES: 0 DROPPED PREFETCHES: 0
ITLB PREFETCHES SAME FILL-ORIGIN LEVEL: 0 DIFFERENT FILL-ORIGIN LEVEL: 0
ITLB AVERAGE MISS LATENCY: 9.41319 cycles
ITLB RQ	ACCESS:   40228833	FORWARD:          0	MERGED:    6172903	TO_CACHE:   34055930

DTLB TOTAL     ACCESS:   38713307  HIT:   37106316  MISS:    1606991  HIT %:     95.849  MISS %:      4.151   MPKI: 8.03495
DTLB LOAD TRANSLATION ACCESS:   38713307  HIT:   37106316  MISS:    1606991  HIT %:     95.849  MISS %:      4.151   MPKI: 8.03495
DTLB PREFETCH  REQUESTED:          0  ISSUED:          0  USEFUL:          0  USELESS:          0
DTLB USEFUL LOAD PREFETCHES:          0 PREFETCH ISSUED TO LOWER LEVEL:          0  ACCURACY: -nan
DTLB TIMELY PREFETCHES:          0 LATE PREFETCHES: 0 DROPPED PREFETCHES: 0
DTLB PREFETCHES SAME FILL-ORIGIN LEVEL: 0 DIFFERENT FILL-ORIGIN LEVEL: 0
DTLB AVERAGE MISS LATENCY: 17.7938 cycles
DTLB RQ	ACCESS:   58612389	FORWARD:          0	MERGED:   19525966	TO_CACHE:   39086423

STLB TOTAL     ACCESS:    3078181  HIT:    2930918  MISS:     147263  HIT %:    95.2159  MISS %:    4.78409   MPKI: 0.736315
STLB LOAD TRANSLATION ACCESS:    3023022  HIT:    2876174  MISS:     146848  HIT %:    95.1423  MISS %:    4.85766   MPKI: 0.73424
STLB TRANSLATION FROM L1D PREFETCHER ACCESS:      55159  HIT:      54744  MISS:        415  HIT %:    99.2476  MISS %:    0.75237   MPKI: 0.002075
STLB PREFETCH  REQUESTED:          0  ISSUED:          0  USEFUL:        314  USELESS:        101
STLB USEFUL LOAD PREFETCHES:        314 PREFETCH ISSUED TO LOWER LEVEL:          0  ACCURACY: inf
STLB TIMELY PREFETCHES:        314 LATE PREFETCHES: 26 DROPPED PREFETCHES: 304
STLB PREFETCHES SAME FILL-ORIGIN LEVEL: 0 DIFFERENT FILL-ORIGIN LEVEL: 0
STLB AVERAGE MISS LATENCY: 13844 cycles
STLB RQ	ACCESS:    3094309	FORWARD:          0	MERGED:      15575	TO_CACHE:    3078734

STLB Hit, L1D data hit: 0
STLB Hit, L2C data hit: 0
STLB Hit, LLC data hit: 0
STLB Hit, LLC data miss: 0
STLB STLB hints to L2: 0
L1D TOTAL     ACCESS:   47633544  HIT:   40995759  MISS:    6637785  HIT %:    86.0649  MISS %:    13.9351   MPKI: 33.1889
L1D LOAD      ACCESS:   25912586  HIT:   22738495  MISS:    3174091  HIT %:    87.7508  MISS %:    12.2492   MPKI: 15.8705
L1D RFO       ACCESS:   21659744  HIT:   18251308  MISS:    3408436  HIT %:    84.2637  MISS %:    15.7363   MPKI: 17.0422
L1D PREFETCH  ACCESS:      61214  HIT:       5956  MISS:      55258  HIT %:     9.7298  MISS %:    90.2702   MPKI: 0.27629
AGUS PREFETCH L1 MISS: 0
L1D PREFETCH  REQUESTED:     146069  ISSUED:     145658  USEFUL:      21801  USELESS:      33457
L1D USEFUL LOAD PREFETCHES:      21801 PREFETCH ISSUED TO LOWER LEVEL:      60212  ACCURACY: 36.2071
L1D TIMELY PREFETCHES:      21801 LATE PREFETCHES: 4949 DROPPED PREFETCHES: 540
L1D PREFETCHES SAME FILL-ORIGIN LEVEL: 60212 DIFFERENT FILL-ORIGIN LEVEL: 0
L1D AVERAGE MISS LATENCY: 160643 cycles
L1D RQ	ACCESS:   44241726	FORWARD:          0	MERGED:   17619994	TO_CACHE:   26361208
L1D WQ	ACCESS:   32470506	FORWARD:     260524	MERGED:     219325	TO_CACHE:   32251181
L1D PQ	ACCESS:      74371	FORWARD:          0	MERGED:       3084	TO_CACHE:      71287

L1D UNIQUE REGIONS ACCESSED: 0
L1D REGIONS CONFLICTS: 0
L1D Cross Page Prefetch Requests: 88596
L1D Same Page Prefetch Requests: 0
L1D ROI Sum of L1D PQ occupancy: 1658336
L1D PREFETCHES PUSHED FROM L2C: 0
L1I TOTAL     ACCESS:   37754806  HIT:   29296857  MISS:    8457949  HIT %:    77.5977  MISS %:    22.4023   MPKI: 42.2897
L1I LOAD      ACCESS:   37754806  HIT:   29296857  MISS:    8457949  HIT %:    77.5977  MISS %:    22.4023   MPKI: 42.2897
L1I PREFETCH  REQUESTED:          0  ISSUED:          0  USEFUL:          0  USELESS:          0
L1I USEFUL LOAD PREFETCHES:          0 PREFETCH ISSUED TO LOWER LEVEL:          0  ACCURACY: -nan
L1I TIMELY PREFETCHES:          0 LATE PREFETCHES: 0 DROPPED PREFETCHES: 0
L1I PREFETCHES SAME FILL-ORIGIN LEVEL: 0 DIFFERENT FILL-ORIGIN LEVEL: 0
L1I AVERAGE MISS LATENCY: 17.1289 cycles
L1I RQ	ACCESS:   58465876	FORWARD:          0	MERGED:   18237043	TO_CACHE:   40228833

BTB TOTAL     ACCESS:   25716641  HIT:   24056117  MISS:    1660524  HIT %:     93.543  MISS %:      6.457   MPKI: 8.30262
BTB BRANCH_DIRECT_JUMP	ACCESS:    1725252  HIT:    1715409  MISS:       9843
BTB BRANCH_INDIRECT	ACCESS:    9825522  HIT:    9169772  MISS:     655750
BTB BRANCH_CONDITIONAL	ACCESS:    7516536  HIT:    7503101  MISS:      13435
BTB BRANCH_DIRECT_CALL	ACCESS:    2628848  HIT:    2596392  MISS:      32456
BTB BRANCH_INDIRECT_CALL	ACCESS:     695837  HIT:     593013  MISS:     102824
BTB BRANCH_RETURN	ACCESS:    3324646  HIT:    2478430  MISS:     846216
BTB BRANCH_OTHER ACCESS:          0  HIT:          0  MISS:          0

L2C TOTAL     ACCESS:   19486295  HIT:   12944654  MISS:    6541641  HIT %:    66.4295  MISS %:    33.5705   MPKI: 32.7082
L2C LOAD      ACCESS:   11626931  HIT:    8636010  MISS:    2990921  HIT %:    74.2759  MISS %:    25.7241   MPKI: 14.9546
L2C DATA LOAD MPKI: 12.3134
L2C INSTRUCTION LOAD MPKI: 2.64116
L2C RFO       ACCESS:    3408411  HIT:     148571  MISS:    3259840  HIT %:    4.35895  MISS %:     95.641   MPKI: 16.2992
L2C PREFETCH  ACCESS:      60211  HIT:      13762  MISS:      46449  HIT %:    22.8563  MISS %:    77.1437   MPKI: 0.232245
AGUS PREFETCH L1 MISS: 0
L2C DATA PREFETCH MPKI: 0.232245
L2C INSTRUCTION PREFETCH MPKI: 0
L2C WRITEBACK ACCESS:    4215223  HIT:    4065675  MISS:     149548  HIT %:    96.4522  MISS %:    3.54781   MPKI: 0.74774
L2C LOAD TRANSLATION ACCESS:     174583  HIT:      80148  MISS:      94435  HIT %:    45.9082  MISS %:    54.0918   MPKI: 0.472175
L2C TRANSLATION FROM L1D PREFETCHER ACCESS:        936  HIT:        488  MISS:        448  HIT %:    52.1368  MISS %:    47.8632   MPKI: 0.00224
L2C PREFETCH  REQUESTED:          0  ISSUED:          0  USEFUL:       1701  USELESS:      45196
L2C USEFUL LOAD PREFETCHES:       1701 PREFETCH ISSUED TO LOWER LEVEL:      46449  ACCURACY: 3.66208
L2C TIMELY PREFETCHES:       1701 LATE PREFETCHES: 0 DROPPED PREFETCHES: 0
L2C PREFETCHES SAME FILL-ORIGIN LEVEL: 0 DIFFERENT FILL-ORIGIN LEVEL: 0
L2C AVERAGE MISS LATENCY: 171.893 cycles
L2C RQ	ACCESS:   15211042	FORWARD:          0	MERGED:          0	TO_CACHE:   15210862
L2C WQ	ACCESS:    4215223	FORWARD:        181	MERGED:          0	TO_CACHE:    4215223
L2C PQ	ACCESS:      60212	FORWARD:          0	MERGED:          0	TO_CACHE:      60211

L2C Instructions Evicting Data 479657
L2C Translations Evicting Data 86176
L2C Data Evicting Data 5216570
L2C Instructions Evicting Instructions 41111
L2C Translations Evicting Instructions 7314
L2C Data Evicting Instructions 467765
L2C Instructions Evicting Translations 7465
L2C Translations Evicting Translations 1393
L2C Data Evicting Translations 84642
L2C Dense regions hint from L2: 0
PSCL5 TOTAL     ACCESS:     147567  HIT:     147567  MISS:          0  HIT %:        100  MISS %:          0   MPKI: 0
PSCL5 LOAD TRANSLATION ACCESS:     146822  HIT:     146822  MISS:          0  HIT %:        100  MISS %:          0   MPKI: 0
PSCL5 TRANSLATION FROM L1D PREFETCHER ACCESS:        745  HIT:        745  MISS:          0  HIT %:        100  MISS %:          0   MPKI: 0
PSCL5 PREFETCH  REQUESTED:          0  ISSUED:          0  USEFUL:          0  USELESS:          0
PSCL5 USEFUL LOAD PREFETCHES:          0 PREFETCH ISSUED TO LOWER LEVEL:          0  ACCURACY: -nan
PSCL5 TIMELY PREFETCHES:          0 LATE PREFETCHES: 0 DROPPED PREFETCHES: 0
PSCL5 PREFETCHES SAME FILL-ORIGIN LEVEL: 0 DIFFERENT FILL-ORIGIN LEVEL: 0

PSCL4 TOTAL     ACCESS:     141179  HIT:     140793  MISS:        386  HIT %:    99.7266  MISS %:   0.273412   MPKI: 0.00193
PSCL4 LOAD TRANSLATION ACCESS:     140493  HIT:     140107  MISS:        386  HIT %:    99.7253  MISS %:   0.274747   MPKI: 0.00193
PSCL4 TRANSLATION FROM L1D PREFETCHER ACCESS:        686  HIT:        686  MISS:          0  HIT %:        100  MISS %:          0   MPKI: 0
PSCL4 PREFETCH  REQUESTED:          0  ISSUED:          0  USEFUL:          0  USELESS:          0
PSCL4 USEFUL LOAD PREFETCHES:          0 PREFETCH ISSUED TO LOWER LEVEL:          0  ACCURACY: -nan
PSCL4 TIMELY PREFETCHES:          0 LATE PREFETCHES: 0 DROPPED PREFETCHES: 0
PSCL4 PREFETCHES SAME FILL-ORIGIN LEVEL: 0 DIFFERENT FILL-ORIGIN LEVEL: 0

PSCL3 TOTAL     ACCESS:     147486  HIT:     147092  MISS:        394  HIT %:    99.7329  MISS %:   0.267144   MPKI: 0.00197
PSCL3 LOAD TRANSLATION ACCESS:     146748  HIT:     146354  MISS:        394  HIT %:    99.7315  MISS %:   0.268487   MPKI: 0.00197
PSCL3 TRANSLATION FROM L1D PREFETCHER ACCESS:        738  HIT:        738  MISS:          0  HIT %:        100  MISS %:          0   MPKI: 0
PSCL3 PREFETCH  REQUESTED:          0  ISSUED:          0  USEFUL:          0  USELESS:          0
PSCL3 USEFUL LOAD PREFETCHES:          0 PREFETCH ISSUED TO LOWER LEVEL:          0  ACCURACY: -nan
PSCL3 TIMELY PREFETCHES:          0 LATE PREFETCHES: 0 DROPPED PREFETCHES: 0
PSCL3 PREFETCHES SAME FILL-ORIGIN LEVEL: 0 DIFFERENT FILL-ORIGIN LEVEL: 0

PSCL2 TOTAL     ACCESS:     147436  HIT:     120369  MISS:      27067  HIT %:    81.6415  MISS %:    18.3585   MPKI: 0.135335
PSCL2 LOAD TRANSLATION ACCESS:     146868  HIT:     119801  MISS:      27067  HIT %:    81.5705  MISS %:    18.4295   MPKI: 0.135335
PSCL2 TRANSLATION FROM L1D PREFETCHER ACCESS:        568  HIT:        568  MISS:          0  HIT %:        100  MISS %:          0   MPKI: 0
PSCL2 PREFETCH  REQUESTED:          0  ISSUED:          0  USEFUL:          0  USELESS:          0
PSCL2 USEFUL LOAD PREFETCHES:          0 PREFETCH ISSUED TO LOWER LEVEL:          0  ACCURACY: -nan
PSCL2 TIMELY PREFETCHES:          0 LATE PREFETCHES: 0 DROPPED PREFETCHES: 0
PSCL2 PREFETCHES SAME FILL-ORIGIN LEVEL: 0 DIFFERENT FILL-ORIGIN LEVEL: 0

LLC TOTAL     ACCESS:   10311705  HIT:    4245121  MISS:    6066584  HIT %:     41.168  MISS %:     58.832   MPKI: 30.3329
LLC LOAD      ACCESS:    2990921  HIT:    1419201  MISS:    1571720  HIT %:    47.4503  MISS %:    52.5497   MPKI: 7.8586
LLC RFO       ACCESS:    3259826  HIT:     811559  MISS:    2448267  HIT %:    24.8958  MISS %:    75.1042   MPKI: 12.2413
LLC PREFETCH  ACCESS:      46449  HIT:       8596  MISS:      37853  HIT %:    18.5063  MISS %:    81.4937   MPKI: 0.189265
AGUS PREFETCH L1 MISS: 0
LLC WRITEBACK ACCESS:    3919626  HIT:    1947563  MISS:    1972063  HIT %:    49.6875  MISS %:    50.3125   MPKI: 9.86031
LLC LOAD TRANSLATION ACCESS:      94435  HIT:      58069  MISS:      36366  HIT %:     61.491  MISS %:     38.509   MPKI: 0.18183
LLC TRANSLATION FROM L1D PREFETCHER ACCESS:        448  HIT:        133  MISS:        315  HIT %:    29.6875  MISS %:    70.3125   MPKI: 0.001575
LLC PREFETCH  REQUESTED:          0  ISSUED:          0  USEFUL:        411  USELESS:      37757
LLC USEFUL LOAD PREFETCHES:        411 PREFETCH ISSUED TO LOWER LEVEL:      37853  ACCURACY: 1.08578
LLC TIMELY PREFETCHES:        411 LATE PREFETCHES: 0 DROPPED PREFETCHES: 0
LLC PREFETCHES SAME FILL-ORIGIN LEVEL: 0 DIFFERENT FILL-ORIGIN LEVEL: 0
LLC AVERAGE MISS LATENCY: 153.335 cycles
LLC RQ	ACCESS:    6345644	FORWARD:          0	MERGED:          0	TO_CACHE:    6345630
LLC WQ	ACCESS:    3919627	FORWARD:         14	MERGED:          0	TO_CACHE:    3919627
LLC PQ	ACCESS:      46449	FORWARD:          0	MERGED:          0	TO_CACHE:      46449

LLC Dense regions hint to LLC: 0

RAW hits: 2608674
Loads Generated: 46850400
Loads sent to L1D: 44241726
Stores Generated: 32470481
Stores sent to L1D: 32470506
Major fault: 0 Minor fault: 22612
Allocated PAGES: 22612
CPU 0 L1D 
Prefetch count 160145 BOP and RL 

DRAM Statistics
 CHANNEL 0
 RQ ROW_BUFFER_HIT:    1610180  ROW_BUFFER_MISS:    2483927
 DBUS_CONGESTED:       1359
 WQ ROW_BUFFER_HIT:     635027  ROW_BUFFER_MISS:    2085062  FULL:      31526

 AVG_CONGESTED_CYCLE: 3
 All warmup complete: 2
Channel 0 Bank busy for read cycles: 0
Channel 0 Bank busy for write cycles: 0
Channel 0
Rank 0
0banks busy for read cycles: 169981265
0banks busy for write cycles: 265877
1banks busy for read cycles: 70634050
1banks busy for write cycles: 40567626
2banks busy for read cycles: 23442919
2banks busy for write cycles: 18905970
3banks busy for read cycles: 16484076
3banks busy for write cycles: 9527904
4banks busy for read cycles: 8798273
4banks busy for write cycles: 5622704
5banks busy for read cycles: 5978325
5banks busy for write cycles: 3946914
6banks busy for read cycles: 11321921
6banks busy for write cycles: 3444318
7banks busy for read cycles: 5559808
7banks busy for write cycles: 5841546
8banks busy for read cycles: 15201297
8banks busy for write cycles: 37120646

CPU 0 Branch Prediction Accuracy: 99.9405% MPKI: 0.09271 Average ROB Occupancy at Mispredict: 115.397
Branch types
NOT_BRANCH: 168823581 84.4118%
BRANCH_DIRECT_JUMP: 1725252 0.862626%
BRANCH_INDIRECT: 9825522 4.91276%
BRANCH_CONDITIONAL: 12976223 6.48811%
BRANCH_DIRECT_CALL: 2628848 1.31442%
BRANCH_INDIRECT_CALL: 695837 0.347918%
BRANCH_RETURN: 3324646 1.66232%
BRANCH_OTHER: 0 0%

DRAM PAGES: 1048576
Allocated PAGES: 22612
