
*** ChampSim Multicore Out-of-Order Simulator ***

Warmup Instructions: 50000000
Simulation Instructions: 200000000
Number of CPUs: 1
LLC sets: 2048
LLC ways: 16
Off-chip DRAM Size: 4096 MB Channels: 1 Width: 64-bit Data Rate: 6400 MT/s
CPU 0 runs traces/spec2k17/server_038.champsimtrace.xz
.xz
BTB has LRU replacement policy
ITLB has LRU replacement policy
DTLB has LRU replacement policy
STLB has LRU replacement policy
L1I has LRU replacement policy
CPU 0 l1d next line prefetcher
L1D has LRU replacement policy
Initialize SRRIP state for L2C
Initialize DRRIP state for LLC
Offsets elements: 
Potential of Offsets elements: 
rewards of Offsets elements: 
Printing Sanity1
offset list size1370
Heartbeat CPU 0 instructions: 10000000 cycles: 2787069 heartbeat IPC: 3.588 cumulative IPC: 3.588 (Simulation time: 0 hr 0 min 28 sec) 
Heartbeat CPU 0 instructions: 20000002 cycles: 5572044 heartbeat IPC: 3.5907 cumulative IPC: 3.58935 (Simulation time: 0 hr 0 min 55 sec) 
Heartbeat CPU 0 instructions: 30000003 cycles: 8355815 heartbeat IPC: 3.59225 cumulative IPC: 3.59031 (Simulation time: 0 hr 1 min 22 sec) 
Heartbeat CPU 0 instructions: 40000001 cycles: 11140043 heartbeat IPC: 3.59166 cumulative IPC: 3.59065 (Simulation time: 0 hr 1 min 50 sec) 
Heartbeat CPU 0 instructions: 50000001 cycles: 13924579 heartbeat IPC: 3.59126 cumulative IPC: 3.59077 (Simulation time: 0 hr 2 min 18 sec) 

Warmup complete CPU 0 instructions: 50000001 cycles: 13924579 (Simulation time: 0 hr 2 min 18 sec) 

Heartbeat CPU 0 instructions: 60000000 cycles: 34085222 heartbeat IPC: 0.496016 cumulative IPC: 0.496016 (Simulation time: 0 hr 3 min 14 sec) 
Heartbeat CPU 0 instructions: 70000000 cycles: 54059368 heartbeat IPC: 0.500647 cumulative IPC: 0.498321 (Simulation time: 0 hr 4 min 5 sec) 
Heartbeat CPU 0 instructions: 80000000 cycles: 74028674 heartbeat IPC: 0.500769 cumulative IPC: 0.499134 (Simulation time: 0 hr 4 min 59 sec) 
Heartbeat CPU 0 instructions: 90000001 cycles: 94023851 heartbeat IPC: 0.500121 cumulative IPC: 0.49938 (Simulation time: 0 hr 5 min 54 sec) 
Offsets elements: 
Potential of Offsets elements: 
rewards of Offsets elements: 0 0 0 0 0 21 28 0 0 0 18 0 0 0 0 0 3 0 31 0 0 35 0 0 0 0 0 0 0 0 0 0 0 0 0 0 0 15 0 0 160 0 0 0 1 0 0 0 0 1 0 4 14 4 0 260 5 3 0 0 2 0 0 0 0 0 0 0 0 0 122 0 0 136 126 0 66 52 0 270 0 0 1 0 0 0 0 0 0 0 0 0 0 0 0 0 0 0 0 0 0 0 0 0 0 0 0 0 0 0 0 0 0 0 0 16 0 0 0 0 125 0 95 15 0 204 0 22 0 0 0 0 0 0 0 0 0 0 1 0 0 0 0 0 0 0 0 3 42 0 38 0 5 0 0 0 0 188 162 77 0 0 0 0 0 0 0 0 0 99 0 0 0 233 117 0 38 0 0 4 0 0 0 0 64 0 0 12 0 173 0 0 0 0 18 0 0 0 0 0 0 34 118 0 0 0 0 0 0 0 0 11 0 0 0 1 52 0 0 0 0 0 0 0 0 0 2 0 0 4 0 0 0 0 1 1 0 177 0 0 0 0 0 0 0 0 0 0 0 0 0 0 0 0 0 0 0 0 0 0 0 0 0 2 0 0 0 0 139 44 0 0 0 122 0 0 0 0 0 1 0 16 2 0 0 0 0 0 0 0 0 0 0 0 0 0 0 0 0 2 0 0 0 256 0 0 0 0 0 0 0 26 0 45 19 0 0 6 0 0 0 115 0 44 8 0 0 0 0 0 0 0 0 0 0 0 0 0 2 0 7 4 0 0 0 0 0 0 0 0 9 0 0 0 0 0 0 0 39 0 47 22 0 0 0 0 0 0 1 33 0 0 0 0 0 0 1 0 0 0 0 0 0 0 0 0 0 0 49 0 0 0 3 32 0 0 1 0 0 0 0 0 0 5 0 10 40 2 0 0 1 0 0 0 0 5 0 3 0 0 0 0 0 3 0 0 0 1 0 0 0 0 22 0 0 1 0 0 0 0 0 0 36 7 0 0 1 2 0 0 0 0 0 0 0 0 0 4 0 0 0 4 1 0 0 1 0 0 3 0 0 0 1 0 0 0 0 1 0 7 0 0 0 0 0 0 0 0 24 0 0 0 0 0 0 0 0 0 0 0 0 3 0 0 0 0 7 0 22 0 0 0 0 0 0 0 0 0 24 0 0 4 0 0 0 0 0 0 0 0 4 0 0 0 0 0 0 2 1 0 0 0 0 1 0 0 1 0 0 61 0 0 0 0 0 0 2 1 0 0 0 0 0 0 0 0 1 0 1 10 0 0 0 0 0 0 0 0 0 0 0 2 0 1 0 0 5 0 26 20 0 0 0 0 0 0 0 0 0 0 0 0 137 0 0 0 2 0 0 0 0 0 5 0 0 0 0 32 9 0 0 0 6 6 0 1 0 0 0 0 0 0 5 2 2 4 2 0 1 0 0 0 0 0 0 0 2 38 0 0 0 25 0 0 0 0 0 0 0 0 0 0 7 7 0 0 5 0 4 2 0 0 0 0 2 9 0 0 0 5 0 0 0 0 0 0 0 6 2 0 2 0 0 0 0 2 0 0 0 0 17 0 0 0 0 0 54 0 0 0 51 0 0 0 19 12 0 0 1 0 0 0 0 0 4 29 146 2 0 0 0 0 0 0 0 0 1 0 4 0 0 9 0 0 0 0 0 1 0 0 161 0 0 0 0 0 0 0 0 8 0 0 0 0 16 0 0 7 15 1 0 0 0 0 0 0 0 0 0 3 0 0 0 0 0 0 0 0 2 0 0 0 0 0 0 0 0 0 19 0 0 0 0 0 0 0 2 199 225 0 1 0 0 1 0 0 0 0 44 0 0 0 0 0 0 0 0 0 0 0 0 0 0 0 0 0 9 0 0 0 0 0 0 0 0 0 0 2 8 2 0 0 0 0 0 0 0 0 1 0 0 0 0 0 0 0 0 0 0 0 0 0 8 0 0 0 0 0 0 0 0 0 0 0 0 0 0 0 2 0 0 0 0 0 0 2 0 0 0 5 0 2 6 7 0 0 0 0 0 0 0 0 0 4 29 22 1 0 0 0 0 0 0 0 1 0 0 0 0 0 2 0 0 0 0 1 0 3 0 2 0 0 0 0 0 0 5 0 1 47 0 0 42 0 0 0 0 0 0 15 0 0 0 0 0 2 0 4 3 13 0 0 0 0 0 0 0 0 0 8 7 0 16 0 0 0 0 0 0 0 0 0 0 0 0 0 0 0 0 0 0 0 0 0 0 0 0 0 0 3 0 0 0 0 0 0 0 0 0 0 0 0 0 0 15 0 48 2 0 0 0 0 0 0 0 5 2 23 63 1 0 0 0 0 0 0 0 0 0 0 0 0 0 0 0 0 0 0 0 0 0 0 0 0 3 18 0 0 0 0 0 0 0 0 1 0 0 0 0 0 121 152 0 0 0 0 33 0 0 27 26 0 0 0 0 0 0 0 0 0 0 0 0 0 0 0 0 0 158 0 0 2 0 0 0 3 0 0 0 0 0 0 0 0 0 0 0 0 0 0 4 1 0 0 0 0 20 0 0 0 0 0 0 0 0 0 0 7 36 28 3 1 0 2 0 0 0 0 0 0 0 0 0 33 0 24 29 0 0 0 0 0 0 0 0 0 9 0 0 0 0 0 0 0 0 0 0 0 0 0 0 0 0 0 0 0 0 0 0 0 0 0 0 0 0 0 0 0 0 0 4 0 0 0 0 0 34 0 1 0 0 0 0 0 0 0 0 0 0 0 0 0 0 0 0 0 0 0 0 0 0 0 0 0 0 0 0 0 21 0 0 0 0 0 0 0 0 0 0 0 0 0 4 0 0 1 0 0 0 0 0 0 0 0 0 0 0 0 4 0 0 4 17 0 0 0 0 0 14 14 9 0 0 14 0 0 0 0 0 0 0 4 0 0 0 0 1 0 0 0 0 0 0 10 0 0 0 0 26 0 4 0 39 0 0 0 0 11 4 0 0 0 0 0 0 0 1 1 0 1 0 0 0 0 0 0 14 0 0 0 0 0 0 0 0 0 0 0 0 26 0 0 0 0 0 35 0 1 0 0 
Printing Sanity2
Heartbeat CPU 0 instructions: 100000002 cycles: 114022832 heartbeat IPC: 0.500026 cumulative IPC: 0.499509 (Simulation time: 0 hr 6 min 45 sec) 
*** Reached end of trace for Core: 0 Repeating trace: traces/spec2k17/server_038.champsimtrace.xz
Heartbeat CPU 0 instructions: 110000000 cycles: 134143215 heartbeat IPC: 0.497008 cumulative IPC: 0.499091 (Simulation time: 0 hr 7 min 38 sec) 
Heartbeat CPU 0 instructions: 120000003 cycles: 154206691 heartbeat IPC: 0.498418 cumulative IPC: 0.498994 (Simulation time: 0 hr 8 min 31 sec) 
Heartbeat CPU 0 instructions: 130000001 cycles: 174200657 heartbeat IPC: 0.500151 cumulative IPC: 0.499139 (Simulation time: 0 hr 9 min 25 sec) 
Heartbeat CPU 0 instructions: 140000001 cycles: 194198939 heartbeat IPC: 0.500043 cumulative IPC: 0.499239 (Simulation time: 0 hr 10 min 17 sec) 
Heartbeat CPU 0 instructions: 150000002 cycles: 214192510 heartbeat IPC: 0.500161 cumulative IPC: 0.499331 (Simulation time: 0 hr 11 min 9 sec) 
Heartbeat CPU 0 instructions: 160000000 cycles: 234245269 heartbeat IPC: 0.498684 cumulative IPC: 0.499272 (Simulation time: 0 hr 12 min 3 sec) 
Heartbeat CPU 0 instructions: 170000002 cycles: 254195624 heartbeat IPC: 0.501244 cumulative IPC: 0.499436 (Simulation time: 0 hr 12 min 56 sec) 
Heartbeat CPU 0 instructions: 180000000 cycles: 274129762 heartbeat IPC: 0.501652 cumulative IPC: 0.499606 (Simulation time: 0 hr 13 min 45 sec) 
Heartbeat CPU 0 instructions: 190000002 cycles: 294078397 heartbeat IPC: 0.501288 cumulative IPC: 0.499725 (Simulation time: 0 hr 14 min 35 sec) 
Heartbeat CPU 0 instructions: 200000001 cycles: 314032211 heartbeat IPC: 0.501157 cumulative IPC: 0.499821 (Simulation time: 0 hr 15 min 25 sec) 
*** Reached end of trace for Core: 0 Repeating trace: traces/spec2k17/server_038.champsimtrace.xz
Heartbeat CPU 0 instructions: 210000003 cycles: 334108040 heartbeat IPC: 0.498112 cumulative IPC: 0.499714 (Simulation time: 0 hr 16 min 17 sec) 
Heartbeat CPU 0 instructions: 220000000 cycles: 354177444 heartbeat IPC: 0.498271 cumulative IPC: 0.499628 (Simulation time: 0 hr 17 min 8 sec) 
Heartbeat CPU 0 instructions: 230000003 cycles: 374130413 heartbeat IPC: 0.501179 cumulative IPC: 0.499714 (Simulation time: 0 hr 18 min 1 sec) 
Heartbeat CPU 0 instructions: 240000001 cycles: 394153334 heartbeat IPC: 0.499428 cumulative IPC: 0.499699 (Simulation time: 0 hr 18 min 53 sec) 
Heartbeat CPU 0 instructions: 250000001 cycles: 414155914 heartbeat IPC: 0.499936 cumulative IPC: 0.499711 (Simulation time: 0 hr 19 min 47 sec) 
Finished CPU 0 instructions: 200000000 cycles: 400231335 cumulative IPC: 0.499711 (Simulation time: 0 hr 19 min 47 sec) 

ChampSim completed all CPUs

Region of Interest Statistics

CPU 0 cumulative IPC: 0.499711 instructions: 200000000 cycles: 400231335
ITLB TOTAL     ACCESS:   35174704  HIT:   32681993  MISS:    2492711  HIT %:    92.9133  MISS %:    7.08666   MPKI: 12.4636
ITLB LOAD TRANSLATION ACCESS:   35174704  HIT:   32681993  MISS:    2492711  HIT %:    92.9133  MISS %:    7.08666   MPKI: 12.4636
ITLB PREFETCH  REQUESTED:          0  ISSUED:          0  USEFUL:          0  USELESS:          0
ITLB USEFUL LOAD PREFETCHES:          0 PREFETCH ISSUED TO LOWER LEVEL:          0  ACCURACY: -nan
ITLB TIMELY PREFETCHES:          0 LATE PREFETCHES: 0 DROPPED PREFETCHES: 0
ITLB PREFETCHES SAME FILL-ORIGIN LEVEL: 0 DIFFERENT FILL-ORIGIN LEVEL: 0
ITLB AVERAGE MISS LATENCY: 9.01549 cycles
ITLB RQ	ACCESS:   41437565	FORWARD:          0	MERGED:    5451685	TO_CACHE:   35985880

DTLB TOTAL     ACCESS:   40135373  HIT:   38138953  MISS:    1996420  HIT %:    95.0258  MISS %:    4.97422   MPKI: 9.9821
DTLB LOAD TRANSLATION ACCESS:   40135373  HIT:   38138953  MISS:    1996420  HIT %:    95.0258  MISS %:    4.97422   MPKI: 9.9821
DTLB PREFETCH  REQUESTED:          0  ISSUED:          0  USEFUL:          0  USELESS:          0
DTLB USEFUL LOAD PREFETCHES:          0 PREFETCH ISSUED TO LOWER LEVEL:          0  ACCURACY: -nan
DTLB TIMELY PREFETCHES:          0 LATE PREFETCHES: 0 DROPPED PREFETCHES: 0
DTLB PREFETCHES SAME FILL-ORIGIN LEVEL: 0 DIFFERENT FILL-ORIGIN LEVEL: 0
DTLB AVERAGE MISS LATENCY: 9.66543 cycles
DTLB RQ	ACCESS:   55961713	FORWARD:          0	MERGED:   15672547	TO_CACHE:   40289166

STLB TOTAL     ACCESS:    4748112  HIT:    4725258  MISS:      22854  HIT %:    99.5187  MISS %:   0.481328   MPKI: 0.11427
STLB LOAD TRANSLATION ACCESS:    4489131  HIT:    4466351  MISS:      22780  HIT %:    99.4926  MISS %:   0.507448   MPKI: 0.1139
STLB TRANSLATION FROM L1D PREFETCHER ACCESS:     258981  HIT:     258907  MISS:         74  HIT %:    99.9714  MISS %:  0.0285735   MPKI: 0.00037
STLB PREFETCH  REQUESTED:          0  ISSUED:          0  USEFUL:         45  USELESS:         28
STLB USEFUL LOAD PREFETCHES:         45 PREFETCH ISSUED TO LOWER LEVEL:          0  ACCURACY: inf
STLB TIMELY PREFETCHES:         45 LATE PREFETCHES: 1 DROPPED PREFETCHES: 144
STLB PREFETCHES SAME FILL-ORIGIN LEVEL: 0 DIFFERENT FILL-ORIGIN LEVEL: 0
STLB AVERAGE MISS LATENCY: 58.9952 cycles
STLB RQ	ACCESS:    4790744	FORWARD:          0	MERGED:      42485	TO_CACHE:    4748259

STLB Hit, L1D data hit: 0
STLB Hit, L2C data hit: 0
STLB Hit, LLC data hit: 0
STLB Hit, LLC data miss: 0
STLB STLB hints to L2: 0
L1D TOTAL     ACCESS:   55838449  HIT:   53955544  MISS:    1882905  HIT %:    96.6279  MISS %:    3.37206   MPKI: 9.41452
L1D LOAD      ACCESS:   31346839  HIT:   29913633  MISS:    1433206  HIT %:    95.4279  MISS %:    4.57209   MPKI: 7.16603
L1D RFO       ACCESS:   24219495  HIT:   23971854  MISS:     247641  HIT %:    98.9775  MISS %:    1.02249   MPKI: 1.23821
L1D PREFETCH  ACCESS:     272115  HIT:      70057  MISS:     202058  HIT %:    25.7454  MISS %:    74.2546   MPKI: 1.01029
AGUS PREFETCH L1 MISS: 0
L1D PREFETCH  REQUESTED:     604957  ISSUED:     604957  USEFUL:      66812  USELESS:     135246
L1D USEFUL LOAD PREFETCHES:      66812 PREFETCH ISSUED TO LOWER LEVEL:     204772  ACCURACY: 32.6275
L1D TIMELY PREFETCHES:      66812 LATE PREFETCHES: 2030 DROPPED PREFETCHES: 144
L1D PREFETCHES SAME FILL-ORIGIN LEVEL: 204772 DIFFERENT FILL-ORIGIN LEVEL: 0
L1D AVERAGE MISS LATENCY: 393401 cycles
L1D RQ	ACCESS:   45994180	FORWARD:          0	MERGED:   14289103	TO_CACHE:   31454159
L1D WQ	ACCESS:   24697059	FORWARD:     250937	MERGED:     189505	TO_CACHE:   24507554
L1D PQ	ACCESS:     303344	FORWARD:          0	MERGED:       1712	TO_CACHE:     301613

L1D UNIQUE REGIONS ACCESSED: 0
L1D REGIONS CONFLICTS: 0
L1D Cross Page Prefetch Requests: 303344
L1D Same Page Prefetch Requests: 0
L1D ROI Sum of L1D PQ occupancy: 3915932
L1D PREFETCHES PUSHED FROM L2C: 0
L1I TOTAL     ACCESS:   37495097  HIT:   22056605  MISS:   15438492  HIT %:    58.8253  MISS %:    41.1747   MPKI: 77.1925
L1I LOAD      ACCESS:   37495097  HIT:   22056605  MISS:   15438492  HIT %:    58.8253  MISS %:    41.1747   MPKI: 77.1925
L1I PREFETCH  REQUESTED:          0  ISSUED:          0  USEFUL:          0  USELESS:          0
L1I USEFUL LOAD PREFETCHES:          0 PREFETCH ISSUED TO LOWER LEVEL:          0  ACCURACY: -nan
L1I TIMELY PREFETCHES:          0 LATE PREFETCHES: 0 DROPPED PREFETCHES: 0
L1I PREFETCHES SAME FILL-ORIGIN LEVEL: 0 DIFFERENT FILL-ORIGIN LEVEL: 0
L1I AVERAGE MISS LATENCY: 14.1293 cycles
L1I RQ	ACCESS:   62467877	FORWARD:          0	MERGED:   21030312	TO_CACHE:   41437565

BTB TOTAL     ACCESS:   28064303  HIT:   24482602  MISS:    3581701  HIT %:    87.2375  MISS %:    12.7625   MPKI: 17.9085
BTB BRANCH_DIRECT_JUMP	ACCESS:    2068715  HIT:    1958904  MISS:     109811
BTB BRANCH_INDIRECT	ACCESS:   12589489  HIT:   11340070  MISS:    1249419
BTB BRANCH_CONDITIONAL	ACCESS:    3946651  HIT:    3830860  MISS:     115791
BTB BRANCH_DIRECT_CALL	ACCESS:    3834255  HIT:    3580644  MISS:     253611
BTB BRANCH_INDIRECT_CALL	ACCESS:     895479  HIT:     719752  MISS:     175727
BTB BRANCH_RETURN	ACCESS:    4729714  HIT:    3052372  MISS:    1677342
BTB BRANCH_OTHER ACCESS:          0  HIT:          0  MISS:          0

L2C TOTAL     ACCESS:   18260210  HIT:   17623668  MISS:     636542  HIT %:     96.514  MISS %:    3.48595   MPKI: 3.18271
L2C LOAD      ACCESS:   16869607  HIT:   16439730  MISS:     429877  HIT %:    97.4518  MISS %:    2.54823   MPKI: 2.14939
L2C DATA LOAD MPKI: 2.03444
L2C INSTRUCTION LOAD MPKI: 0.11494
L2C RFO       ACCESS:     246956  HIT:     150229  MISS:      96727  HIT %:    60.8323  MISS %:    39.1677   MPKI: 0.483635
L2C PREFETCH  ACCESS:     204772  HIT:     130064  MISS:      74708  HIT %:    63.5165  MISS %:    36.4835   MPKI: 0.37354
AGUS PREFETCH L1 MISS: 0
L2C DATA PREFETCH MPKI: 0.37354
L2C INSTRUCTION PREFETCH MPKI: 0
L2C WRITEBACK ACCESS:     907109  HIT:     892016  MISS:      15093  HIT %:    98.3361  MISS %:    1.66386   MPKI: 0.075465
L2C LOAD TRANSLATION ACCESS:      31433  HIT:      11491  MISS:      19942  HIT %:    36.5571  MISS %:    63.4429   MPKI: 0.09971
L2C TRANSLATION FROM L1D PREFETCHER ACCESS:        333  HIT:        138  MISS:        195  HIT %:    41.4414  MISS %:    58.5586   MPKI: 0.000975
L2C PREFETCH  REQUESTED:          0  ISSUED:          0  USEFUL:       6236  USELESS:      68229
L2C USEFUL LOAD PREFETCHES:       6236 PREFETCH ISSUED TO LOWER LEVEL:      74708  ACCURACY: 8.34716
L2C TIMELY PREFETCHES:       6236 LATE PREFETCHES: 0 DROPPED PREFETCHES: 0
L2C PREFETCHES SAME FILL-ORIGIN LEVEL: 0 DIFFERENT FILL-ORIGIN LEVEL: 0
L2C AVERAGE MISS LATENCY: 50.9377 cycles
L2C RQ	ACCESS:   17148391	FORWARD:          0	MERGED:          0	TO_CACHE:   17148329
L2C WQ	ACCESS:     907109	FORWARD:         62	MERGED:          0	TO_CACHE:     907109
L2C PQ	ACCESS:     204772	FORWARD:          0	MERGED:          0	TO_CACHE:     204772

L2C Instructions Evicting Data 20766
L2C Translations Evicting Data 18752
L2C Data Evicting Data 539711
L2C Instructions Evicting Instructions 1419
L2C Translations Evicting Instructions 788
L2C Data Evicting Instructions 20067
L2C Instructions Evicting Translations 803
L2C Translations Evicting Translations 597
L2C Data Evicting Translations 18546
L2C Dense regions hint from L2: 0
PSCL5 TOTAL     ACCESS:      22998  HIT:      22998  MISS:          0  HIT %:        100  MISS %:          0   MPKI: 0
PSCL5 LOAD TRANSLATION ACCESS:      22779  HIT:      22779  MISS:          0  HIT %:        100  MISS %:          0   MPKI: 0
PSCL5 TRANSLATION FROM L1D PREFETCHER ACCESS:        219  HIT:        219  MISS:          0  HIT %:        100  MISS %:          0   MPKI: 0
PSCL5 PREFETCH  REQUESTED:          0  ISSUED:          0  USEFUL:          0  USELESS:          0
PSCL5 USEFUL LOAD PREFETCHES:          0 PREFETCH ISSUED TO LOWER LEVEL:          0  ACCURACY: -nan
PSCL5 TIMELY PREFETCHES:          0 LATE PREFETCHES: 0 DROPPED PREFETCHES: 0
PSCL5 PREFETCHES SAME FILL-ORIGIN LEVEL: 0 DIFFERENT FILL-ORIGIN LEVEL: 0

PSCL4 TOTAL     ACCESS:      22380  HIT:      22370  MISS:         10  HIT %:    99.9553  MISS %:  0.0446828   MPKI: 5e-05
PSCL4 LOAD TRANSLATION ACCESS:      22178  HIT:      22168  MISS:         10  HIT %:    99.9549  MISS %:  0.0450897   MPKI: 5e-05
PSCL4 TRANSLATION FROM L1D PREFETCHER ACCESS:        202  HIT:        202  MISS:          0  HIT %:        100  MISS %:          0   MPKI: 0
PSCL4 PREFETCH  REQUESTED:          0  ISSUED:          0  USEFUL:          0  USELESS:          0
PSCL4 USEFUL LOAD PREFETCHES:          0 PREFETCH ISSUED TO LOWER LEVEL:          0  ACCURACY: -nan
PSCL4 TIMELY PREFETCHES:          0 LATE PREFETCHES: 0 DROPPED PREFETCHES: 0
PSCL4 PREFETCHES SAME FILL-ORIGIN LEVEL: 0 DIFFERENT FILL-ORIGIN LEVEL: 0

PSCL3 TOTAL     ACCESS:      22920  HIT:      22851  MISS:         69  HIT %:     99.699  MISS %:   0.301047   MPKI: 0.000345
PSCL3 LOAD TRANSLATION ACCESS:      22703  HIT:      22634  MISS:         69  HIT %:    99.6961  MISS %:   0.303925   MPKI: 0.000345
PSCL3 TRANSLATION FROM L1D PREFETCHER ACCESS:        217  HIT:        217  MISS:          0  HIT %:        100  MISS %:          0   MPKI: 0
PSCL3 PREFETCH  REQUESTED:          0  ISSUED:          0  USEFUL:          0  USELESS:          0
PSCL3 USEFUL LOAD PREFETCHES:          0 PREFETCH ISSUED TO LOWER LEVEL:          0  ACCURACY: -nan
PSCL3 TIMELY PREFETCHES:          0 LATE PREFETCHES: 0 DROPPED PREFETCHES: 0
PSCL3 PREFETCHES SAME FILL-ORIGIN LEVEL: 0 DIFFERENT FILL-ORIGIN LEVEL: 0

PSCL2 TOTAL     ACCESS:      22899  HIT:      14286  MISS:       8613  HIT %:     62.387  MISS %:     37.613   MPKI: 0.043065
PSCL2 LOAD TRANSLATION ACCESS:      22794  HIT:      14181  MISS:       8613  HIT %:    62.2137  MISS %:    37.7863   MPKI: 0.043065
PSCL2 TRANSLATION FROM L1D PREFETCHER ACCESS:        105  HIT:        105  MISS:          0  HIT %:        100  MISS %:          0   MPKI: 0
PSCL2 PREFETCH  REQUESTED:          0  ISSUED:          0  USEFUL:          0  USELESS:          0
PSCL2 USEFUL LOAD PREFETCHES:          0 PREFETCH ISSUED TO LOWER LEVEL:          0  ACCURACY: -nan
PSCL2 TIMELY PREFETCHES:          0 LATE PREFETCHES: 0 DROPPED PREFETCHES: 0
PSCL2 PREFETCHES SAME FILL-ORIGIN LEVEL: 0 DIFFERENT FILL-ORIGIN LEVEL: 0

LLC TOTAL     ACCESS:     901287  HIT:     813659  MISS:      87628  HIT %:    90.2775  MISS %:    9.72254   MPKI: 0.43814
LLC LOAD      ACCESS:     429876  HIT:     371820  MISS:      58056  HIT %:    86.4947  MISS %:    13.5053   MPKI: 0.29028
LLC RFO       ACCESS:      96724  HIT:      77422  MISS:      19302  HIT %:    80.0442  MISS %:    19.9558   MPKI: 0.09651
LLC PREFETCH  ACCESS:      74708  HIT:      65748  MISS:       8960  HIT %:    88.0066  MISS %:    11.9934   MPKI: 0.0448
AGUS PREFETCH L1 MISS: 0
LLC WRITEBACK ACCESS:     279842  HIT:     279004  MISS:        838  HIT %:    99.7005  MISS %:   0.299455   MPKI: 0.00419
LLC LOAD TRANSLATION ACCESS:      19942  HIT:      19477  MISS:        465  HIT %:    97.6682  MISS %:    2.33176   MPKI: 0.002325
LLC TRANSLATION FROM L1D PREFETCHER ACCESS:        195  HIT:        188  MISS:          7  HIT %:    96.4103  MISS %:    3.58974   MPKI: 3.5e-05
LLC PREFETCH  REQUESTED:          0  ISSUED:          0  USEFUL:        196  USELESS:       4693
LLC USEFUL LOAD PREFETCHES:        196 PREFETCH ISSUED TO LOWER LEVEL:       8960  ACCURACY: 2.1875
LLC TIMELY PREFETCHES:        196 LATE PREFETCHES: 0 DROPPED PREFETCHES: 0
LLC PREFETCHES SAME FILL-ORIGIN LEVEL: 0 DIFFERENT FILL-ORIGIN LEVEL: 0
LLC AVERAGE MISS LATENCY: 157.199 cycles
LLC RQ	ACCESS:     546741	FORWARD:          0	MERGED:          0	TO_CACHE:     546737
LLC WQ	ACCESS:     279842	FORWARD:          4	MERGED:          0	TO_CACHE:     279842
LLC PQ	ACCESS:      74708	FORWARD:          0	MERGED:          0	TO_CACHE:      74708

LLC Dense regions hint to LLC: 0

RAW hits: 2105570
Loads Generated: 48099750
Loads sent to L1D: 45994180
Stores Generated: 24697058
Stores sent to L1D: 24697059
Major fault: 0 Minor fault: 5748
Allocated PAGES: 5748
CPU 0 L1D 
Prefetch count 508116 BOP and RL 

DRAM Statistics
 CHANNEL 0
 RQ ROW_BUFFER_HIT:      20446  ROW_BUFFER_MISS:      66342
 DBUS_CONGESTED:         33
 WQ ROW_BUFFER_HIT:       4011  ROW_BUFFER_MISS:      29283  FULL:          0

 AVG_CONGESTED_CYCLE: 3
 All warmup complete: 2
Channel 0 Bank busy for read cycles: 0
Channel 0 Bank busy for write cycles: 0
Channel 0
Rank 0
0banks busy for read cycles: 387352526
0banks busy for write cycles: 22769
1banks busy for read cycles: 6915440
1banks busy for write cycles: 3443486
2banks busy for read cycles: 1337770
2banks busy for write cycles: 675519
3banks busy for read cycles: 115540
3banks busy for write cycles: 84325
4banks busy for read cycles: 27213
4banks busy for write cycles: 59573
5banks busy for read cycles: 29589
5banks busy for write cycles: 19037
6banks busy for read cycles: 33079
6banks busy for write cycles: 13518
7banks busy for read cycles: 35034
7banks busy for write cycles: 13188
8banks busy for read cycles: 43581
8banks busy for write cycles: 10149

CPU 0 Branch Prediction Accuracy: 99.9778% MPKI: 0.038155 Average ROB Occupancy at Mispredict: 24.3007
Branch types
NOT_BRANCH: 165656544 82.8283%
BRANCH_DIRECT_JUMP: 2068715 1.03436%
BRANCH_INDIRECT: 12589489 6.29474%
BRANCH_CONDITIONAL: 10225815 5.11291%
BRANCH_DIRECT_CALL: 3834255 1.91713%
BRANCH_INDIRECT_CALL: 895479 0.44774%
BRANCH_RETURN: 4729714 2.36486%
BRANCH_OTHER: 0 0%

DRAM PAGES: 1048576
Allocated PAGES: 5748
