
*** ChampSim Multicore Out-of-Order Simulator ***

Warmup Instructions: 50000000
Simulation Instructions: 200000000
Number of CPUs: 1
LLC sets: 2048
LLC ways: 16
Off-chip DRAM Size: 4096 MB Channels: 1 Width: 64-bit Data Rate: 6400 MT/s
CPU 0 runs traces/spec2k17/server_025.champsimtrace.xz
.xz
BTB has LRU replacement policy
ITLB has LRU replacement policy
DTLB has LRU replacement policy
STLB has LRU replacement policy
L1I has LRU replacement policy
CPU 0 l1d next line prefetcher
L1D has LRU replacement policy
Initialize SRRIP state for L2C
Initialize DRRIP state for LLC
Offsets elements: 
Potential of Offsets elements: 
rewards of Offsets elements: 
Printing Sanity1
offset list size1515
Heartbeat CPU 0 instructions: 10000003 cycles: 2819808 heartbeat IPC: 3.54634 cumulative IPC: 3.54634 (Simulation time: 0 hr 0 min 34 sec) 
Heartbeat CPU 0 instructions: 20000000 cycles: 5636424 heartbeat IPC: 3.55036 cumulative IPC: 3.54835 (Simulation time: 0 hr 1 min 9 sec) 
Heartbeat CPU 0 instructions: 30000002 cycles: 8451686 heartbeat IPC: 3.55207 cumulative IPC: 3.54959 (Simulation time: 0 hr 1 min 41 sec) 
Heartbeat CPU 0 instructions: 40000001 cycles: 11266695 heartbeat IPC: 3.55239 cumulative IPC: 3.55029 (Simulation time: 0 hr 2 min 14 sec) 
Heartbeat CPU 0 instructions: 50000001 cycles: 14084063 heartbeat IPC: 3.54941 cumulative IPC: 3.55011 (Simulation time: 0 hr 2 min 49 sec) 

Warmup complete CPU 0 instructions: 50000001 cycles: 14084063 (Simulation time: 0 hr 2 min 49 sec) 

Offsets elements: 
Potential of Offsets elements: 
rewards of Offsets elements: 0 0 0 0 0 0 5 4 0 0 2 0 6 0 0 1 0 0 0 0 0 0 0 0 0 0 1 4 0 276 0 0 0 0 1 0 0 2 1 0 1 0 0 0 0 0 0 0 2 0 0 0 0 0 0 7 0 0 0 0 0 0 0 0 1 3 0 0 0 0 0 0 0 2 0 0 0 6 0 0 0 1 0 0 2 0 5 3 7 0 0 0 0 6 0 0 0 0 2 0 0 0 0 0 0 0 6 0 0 2 0 0 0 0 0 2 16 2 0 0 4 0 82 5 0 0 0 0 0 3 0 0 6 1 19 0 1 0 1 0 3 0 0 4 64 0 0 0 0 0 0 1 1 0 4 0 0 0 0 2 117 33 102 17 0 2 0 0 3 0 2 3 3 0 0 0 1 1 1 0 0 0 0 0 0 0 0 9 0 1 1 3 0 7 1 1 0 0 0 3 1 0 0 0 0 1 0 0 2 4 1 5 2 135 0 0 1 1 0 40 1 0 0 0 2 0 0 2 4 1 0 0 0 0 0 0 81 0 11 3 3 0 0 0 10 18 0 0 0 0 0 1 0 2 1 2 0 2 1 0 0 0 1 1 0 0 0 0 0 2 0 0 69 58 1 0 4 2 1 2 2 2 6 6 1 18 6 4 1 4 0 0 0 0 1 0 1 1 4 0 1 0 0 0 40 78 2 0 0 15 177 0 1 0 0 1 0 2 0 0 0 0 0 0 0 1 1 1 0 0 0 0 0 0 1 0 1 0 0 0 0 2 14 13 3 0 0 0 0 0 0 5 4 3 3 5 2 5 7 0 0 2 0 0 2 0 0 0 0 0 0 0 1 0 0 1 0 0 0 0 3 181 0 0 0 0 0 0 0 0 6 0 3 4 2 8 1 2 0 0 4 0 0 1 1 0 1 0 0 1 2 0 0 0 0 0 0 0 0 0 6 3 2 0 0 0 0 0 0 0 3 0 0 0 0 0 0 0 0 0 0 0 0 0 2 0 0 0 0 0 0 1 0 0 2 0 1 0 0 1 1 44 6 0 1 1 0 0 2 1 0 0 0 0 0 0 0 0 0 1 0 0 0 5 0 1 0 0 0 0 0 0 4 0 0 0 0 0 0 0 106 2 0 0 0 0 0 9 0 0 0 0 0 0 10 2 2 0 0 0 0 0 2 7 0 0 0 0 0 0 0 0 0 0 0 5 3 0 1 0 0 0 0 0 0 0 0 0 0 0 0 0 0 0 0 0 0 0 0 0 0 0 0 0 0 0 62 7 0 0 0 0 0 0 0 0 0 1 1 0 1 0 1 0 0 3 0 0 0 1 0 0 5 0 0 0 0 0 0 0 0 0 0 0 0 0 0 2 0 1 0 0 0 0 0 0 0 8 0 0 0 0 3 36 1 1 2 0 1 3 2 2 0 0 0 1 0 0 0 33 1 6 0 68 53 0 0 0 0 0 0 0 0 0 0 0 0 0 68 45 1 0 0 0 0 0 1 0 1 0 2 0 0 0 1 0 1 0 0 4 3 0 0 0 1 0 0 0 0 0 0 4 0 0 5 3 0 2 0 0 0 0 0 0 1 0 0 0 0 0 0 0 0 0 0 0 0 0 0 0 0 30 1 1 8 0 0 0 0 0 1 0 0 0 0 0 1 0 0 2 2 38 0 14 0 0 0 0 3 0 1 0 0 0 1 0 1 0 0 0 0 0 0 0 0 0 1 0 0 0 0 1 121 7 0 0 0 0 1 2 5 0 0 0 0 0 0 0 0 0 0 1 0 14 0 0 1 0 0 0 0 0 2 0 1 2 1 0 0 0 0 1 0 3 0 32 0 0 0 0 0 1 0 1 1 0 2 0 0 0 3 0 0 0 0 0 1 0 0 0 2 0 1 0 1 70 4 1 13 1 4 0 2 0 4 1 2 0 4 0 0 0 1 1 0 0 0 0 3 1 0 0 0 0 2 4 3 4 0 0 0 0 1 1 2 1 7 4 4 1 0 0 2 3 2 0 0 2 0 0 2 0 0 0 0 0 0 0 0 9 0 0 0 1 0 1 2 0 0 1 1 20 0 0 0 0 1 0 0 0 0 0 1 0 0 1 0 2 0 0 0 1 0 1 0 0 1 1 2 0 3 2 0 4 0 0 1 2 0 0 0 0 2 3 0 0 0 0 0 3 0 0 0 0 0 0 2 134 0 0 0 0 0 2 0 7 0 0 0 0 0 2 0 0 0 0 0 0 0 0 0 0 0 0 2 0 0 1 0 0 1 0 1 0 0 0 1 1 0 0 0 0 3 0 0 0 0 0 4 0 0 0 0 0 42 1 0 0 0 1 0 0 0 0 0 0 1 2 2 0 3 0 0 0 37 0 0 0 0 0 0 2 3 0 0 0 0 0 0 0 0 1 0 0 0 0 0 1 0 0 0 0 0 0 0 0 0 0 0 0 0 0 0 2 3 0 0 0 0 0 0 0 0 1 0 0 0 0 0 0 2 0 3 0 0 0 0 0 0 3 0 1 2 0 0 0 0 0 1 1 3 0 0 0 0 0 0 0 0 0 0 0 0 0 0 0 0 0 0 104 2 0 0 0 0 0 0 0 0 455 0 0 1 0 1 0 2 1 0 0 0 0 0 1 0 0 1 3 4 0 0 0 0 3 1 0 3 1 1 0 0 0 0 1 0 9 11 0 2 1 0 0 2 0 0 2 1 0 1 0 0 0 3 0 0 0 0 0 5 3 0 0 0 0 0 0 0 2 1 2 2 3 0 2 0 0 0 1 0 0 0 0 4 0 2 0 1 2 0 0 0 0 0 0 1 0 0 0 1 0 0 0 0 0 0 0 1 0 0 0 0 0 0 1 4 0 1 2 0 0 0 0 2 0 2 3 0 0 0 0 3 0 0 0 0 0 0 1 2 0 0 1 0 0 1 0 0 0 0 0 1 0 0 0 0 0 0 0 0 0 6 2 2 0 0 0 0 0 0 0 0 2 0 0 1 0 0 0 0 0 1 0 1 0 123 3 0 0 0 0 4 0 2 3 1 2 0 0 6 0 0 1 14 0 0 0 1 0 2 7 2 0 0 0 0 0 0 3 0 0 0 2 0 0 0 0 0 0 12 0 0 1 0 57 0 2 0 0 0 0 0 0 0 2 1 10 0 0 0 0 0 0 1 0 0 0 0 0 0 0 0 0 3 0 0 3 1 0 45 0 0 0 0 0 0 0 28 0 5 0 0 10 0 0 0 2 0 0 0 0 0 0 0 6 2 0 0 0 0 0 0 0 0 0 0 0 0 0 4 1 1 1 0 2 0 1 0 5 10 0 7 1 8 0 0 13 0 0 2 4 0 0 5 0 2 0 0 0 0 0 0 0 112 0 1 0 0 0 1 1 0 0 4 2 0 
Printing Sanity2
Heartbeat CPU 0 instructions: 60000000 cycles: 46158256 heartbeat IPC: 0.311777 cumulative IPC: 0.311777 (Simulation time: 0 hr 3 min 47 sec) 
Heartbeat CPU 0 instructions: 70000003 cycles: 78360163 heartbeat IPC: 0.310541 cumulative IPC: 0.311158 (Simulation time: 0 hr 4 min 41 sec) 
Heartbeat CPU 0 instructions: 80000000 cycles: 110670854 heartbeat IPC: 0.309495 cumulative IPC: 0.310601 (Simulation time: 0 hr 5 min 37 sec) 
Heartbeat CPU 0 instructions: 90000000 cycles: 142966430 heartbeat IPC: 0.30964 cumulative IPC: 0.310361 (Simulation time: 0 hr 6 min 29 sec) 
Heartbeat CPU 0 instructions: 100000000 cycles: 162793637 heartbeat IPC: 0.504357 cumulative IPC: 0.336226 (Simulation time: 0 hr 7 min 20 sec) 
*** Reached end of trace for Core: 0 Repeating trace: traces/spec2k17/server_025.champsimtrace.xz
Heartbeat CPU 0 instructions: 110000000 cycles: 194820043 heartbeat IPC: 0.312242 cumulative IPC: 0.331976 (Simulation time: 0 hr 8 min 17 sec) 
Heartbeat CPU 0 instructions: 120000000 cycles: 226744383 heartbeat IPC: 0.313241 cumulative IPC: 0.329163 (Simulation time: 0 hr 9 min 14 sec) 
Heartbeat CPU 0 instructions: 130000001 cycles: 258919519 heartbeat IPC: 0.310799 cumulative IPC: 0.32675 (Simulation time: 0 hr 10 min 10 sec) 
Heartbeat CPU 0 instructions: 140000002 cycles: 290905366 heartbeat IPC: 0.312638 cumulative IPC: 0.325119 (Simulation time: 0 hr 11 min 5 sec) 
Heartbeat CPU 0 instructions: 150000000 cycles: 322931526 heartbeat IPC: 0.312245 cumulative IPC: 0.323784 (Simulation time: 0 hr 12 min 4 sec) 
Heartbeat CPU 0 instructions: 160000000 cycles: 355127841 heartbeat IPC: 0.310595 cumulative IPC: 0.322539 (Simulation time: 0 hr 12 min 58 sec) 
Heartbeat CPU 0 instructions: 170000000 cycles: 387035001 heartbeat IPC: 0.313409 cumulative IPC: 0.321758 (Simulation time: 0 hr 13 min 52 sec) 
Heartbeat CPU 0 instructions: 180000002 cycles: 419356682 heartbeat IPC: 0.30939 cumulative IPC: 0.320772 (Simulation time: 0 hr 14 min 49 sec) 
Heartbeat CPU 0 instructions: 190000001 cycles: 451583872 heartbeat IPC: 0.310297 cumulative IPC: 0.32 (Simulation time: 0 hr 15 min 45 sec) 
Heartbeat CPU 0 instructions: 200000003 cycles: 475690782 heartbeat IPC: 0.414819 cumulative IPC: 0.324952 (Simulation time: 0 hr 16 min 38 sec) 
*** Reached end of trace for Core: 0 Repeating trace: traces/spec2k17/server_025.champsimtrace.xz
Heartbeat CPU 0 instructions: 210000000 cycles: 503481036 heartbeat IPC: 0.359838 cumulative IPC: 0.326933 (Simulation time: 0 hr 17 min 31 sec) 
Heartbeat CPU 0 instructions: 220000000 cycles: 535448475 heartbeat IPC: 0.312818 cumulative IPC: 0.326068 (Simulation time: 0 hr 18 min 26 sec) 
Heartbeat CPU 0 instructions: 230000000 cycles: 567561317 heartbeat IPC: 0.311402 cumulative IPC: 0.325217 (Simulation time: 0 hr 19 min 26 sec) 
Heartbeat CPU 0 instructions: 240000002 cycles: 599441325 heartbeat IPC: 0.313676 cumulative IPC: 0.324588 (Simulation time: 0 hr 20 min 28 sec) 
Heartbeat CPU 0 instructions: 250000003 cycles: 631574067 heartbeat IPC: 0.311209 cumulative IPC: 0.323892 (Simulation time: 0 hr 21 min 25 sec) 
Finished CPU 0 instructions: 200000002 cycles: 617490004 cumulative IPC: 0.323892 (Simulation time: 0 hr 21 min 25 sec) 

ChampSim completed all CPUs

Region of Interest Statistics

CPU 0 cumulative IPC: 0.323892 instructions: 200000002 cycles: 617490004
ITLB TOTAL     ACCESS:   34733881  HIT:   32823551  MISS:    1910330  HIT %:    94.5001  MISS %:     5.4999   MPKI: 9.55165
ITLB LOAD TRANSLATION ACCESS:   34733881  HIT:   32823551  MISS:    1910330  HIT %:    94.5001  MISS %:     5.4999   MPKI: 9.55165
ITLB PREFETCH  REQUESTED:          0  ISSUED:          0  USEFUL:          0  USELESS:          0
ITLB USEFUL LOAD PREFETCHES:          0 PREFETCH ISSUED TO LOWER LEVEL:          0  ACCURACY: -nan
ITLB TIMELY PREFETCHES:          0 LATE PREFETCHES: 0 DROPPED PREFETCHES: 0
ITLB PREFETCHES SAME FILL-ORIGIN LEVEL: 0 DIFFERENT FILL-ORIGIN LEVEL: 0
ITLB AVERAGE MISS LATENCY: 9.05465 cycles
ITLB RQ	ACCESS:   40850655	FORWARD:          0	MERGED:    5661121	TO_CACHE:   35189534

DTLB TOTAL     ACCESS:   46001903  HIT:   44233403  MISS:    1768500  HIT %:    96.1556  MISS %:    3.84441   MPKI: 8.8425
DTLB LOAD TRANSLATION ACCESS:   46001903  HIT:   44233403  MISS:    1768500  HIT %:    96.1556  MISS %:    3.84441   MPKI: 8.8425
DTLB PREFETCH  REQUESTED:          0  ISSUED:          0  USEFUL:          0  USELESS:          0
DTLB USEFUL LOAD PREFETCHES:          0 PREFETCH ISSUED TO LOWER LEVEL:          0  ACCURACY: -nan
DTLB TIMELY PREFETCHES:          0 LATE PREFETCHES: 0 DROPPED PREFETCHES: 0
DTLB PREFETCHES SAME FILL-ORIGIN LEVEL: 0 DIFFERENT FILL-ORIGIN LEVEL: 0
DTLB AVERAGE MISS LATENCY: 9.22104 cycles
DTLB RQ	ACCESS:   60858193	FORWARD:          0	MERGED:   14794679	TO_CACHE:   46063514

STLB TOTAL     ACCESS:    3728165  HIT:    3719178  MISS:       8987  HIT %:    99.7589  MISS %:   0.241057   MPKI: 0.044935
STLB LOAD TRANSLATION ACCESS:    3678829  HIT:    3669903  MISS:       8926  HIT %:    99.7574  MISS %:   0.242632   MPKI: 0.04463
STLB TRANSLATION FROM L1D PREFETCHER ACCESS:      49336  HIT:      49275  MISS:         61  HIT %:    99.8764  MISS %:   0.123642   MPKI: 0.000305
STLB PREFETCH  REQUESTED:          0  ISSUED:          0  USEFUL:         35  USELESS:         25
STLB USEFUL LOAD PREFETCHES:         35 PREFETCH ISSUED TO LOWER LEVEL:          0  ACCURACY: inf
STLB TIMELY PREFETCHES:         35 LATE PREFETCHES: 0 DROPPED PREFETCHES: 955
STLB PREFETCHES SAME FILL-ORIGIN LEVEL: 0 DIFFERENT FILL-ORIGIN LEVEL: 0
STLB AVERAGE MISS LATENCY: 52.6975 cycles
STLB RQ	ACCESS:    3733238	FORWARD:          0	MERGED:       4118	TO_CACHE:    3729120

STLB Hit, L1D data hit: 0
STLB Hit, L2C data hit: 0
STLB Hit, LLC data hit: 0
STLB Hit, LLC data miss: 0
STLB STLB hints to L2: 0
L1D TOTAL     ACCESS:   59156332  HIT:   55420639  MISS:    3735693  HIT %:     93.685  MISS %:    6.31495   MPKI: 18.6785
L1D LOAD      ACCESS:   33961099  HIT:   31307364  MISS:    2653735  HIT %:     92.186  MISS %:    7.81404   MPKI: 13.2687
L1D RFO       ACCESS:   25145742  HIT:   24099318  MISS:    1046424  HIT %:    95.8386  MISS %:    4.16144   MPKI: 5.23212
L1D PREFETCH  ACCESS:      49491  HIT:      13957  MISS:      35534  HIT %:    28.2011  MISS %:    71.7989   MPKI: 0.17767
AGUS PREFETCH L1 MISS: 0
L1D PREFETCH  REQUESTED:     109906  ISSUED:     109905  USEFUL:       6612  USELESS:      28922
L1D USEFUL LOAD PREFETCHES:       6612 PREFETCH ISSUED TO LOWER LEVEL:      35687  ACCURACY: 18.5278
L1D TIMELY PREFETCHES:       6612 LATE PREFETCHES: 153 DROPPED PREFETCHES: 955
L1D PREFETCHES SAME FILL-ORIGIN LEVEL: 35687 DIFFERENT FILL-ORIGIN LEVEL: 0
L1D AVERAGE MISS LATENCY: 14882.4 cycles
L1D RQ	ACCESS:   47228987	FORWARD:          0	MERGED:   12836822	TO_CACHE:   34077887
L1D WQ	ACCESS:   26938645	FORWARD:     314311	MERGED:     158339	TO_CACHE:   26780306
L1D PQ	ACCESS:      55496	FORWARD:          0	MERGED:       1054	TO_CACHE:      54409

L1D UNIQUE REGIONS ACCESSED: 0
L1D REGIONS CONFLICTS: 0
L1D Cross Page Prefetch Requests: 55496
L1D Same Page Prefetch Requests: 0
L1D ROI Sum of L1D PQ occupancy: 763089
L1D PREFETCHES PUSHED FROM L2C: 0
L1I TOTAL     ACCESS:   39432387  HIT:   29480133  MISS:    9952254  HIT %:    74.7612  MISS %:    25.2388   MPKI: 49.7613
L1I LOAD      ACCESS:   39432387  HIT:   29480133  MISS:    9952254  HIT %:    74.7612  MISS %:    25.2388   MPKI: 49.7613
L1I PREFETCH  REQUESTED:          0  ISSUED:          0  USEFUL:          0  USELESS:          0
L1I USEFUL LOAD PREFETCHES:          0 PREFETCH ISSUED TO LOWER LEVEL:          0  ACCURACY: -nan
L1I TIMELY PREFETCHES:          0 LATE PREFETCHES: 0 DROPPED PREFETCHES: 0
L1I PREFETCHES SAME FILL-ORIGIN LEVEL: 0 DIFFERENT FILL-ORIGIN LEVEL: 0
L1I AVERAGE MISS LATENCY: 16.3481 cycles
L1I RQ	ACCESS:   58625690	FORWARD:          0	MERGED:   17775035	TO_CACHE:   40850655

BTB TOTAL     ACCESS:   30413089  HIT:   18271054  MISS:   12142035  HIT %:    60.0763  MISS %:    39.9237   MPKI: 60.7102
BTB BRANCH_DIRECT_JUMP	ACCESS:    2033451  HIT:    1204611  MISS:     828840
BTB BRANCH_INDIRECT	ACCESS:   12129859  HIT:    7449972  MISS:    4679887
BTB BRANCH_CONDITIONAL	ACCESS:    7365128  HIT:    6117133  MISS:    1247995
BTB BRANCH_DIRECT_CALL	ACCESS:    3753650  HIT:    1796881  MISS:    1956769
BTB BRANCH_INDIRECT_CALL	ACCESS:     688651  HIT:     311222  MISS:     377429
BTB BRANCH_RETURN	ACCESS:    4442350  HIT:    1391235  MISS:    3051115
BTB BRANCH_OTHER ACCESS:          0  HIT:          0  MISS:          0

L2C TOTAL     ACCESS:   15553340  HIT:   14263293  MISS:    1290047  HIT %:    91.7057  MISS %:    8.29434   MPKI: 6.45023
L2C LOAD      ACCESS:   12605834  HIT:   11576969  MISS:    1028865  HIT %:    91.8382  MISS %:    8.16182   MPKI: 5.14432
L2C DATA LOAD MPKI: 1.44799
L2C INSTRUCTION LOAD MPKI: 3.69633
L2C RFO       ACCESS:    1046423  HIT:     865180  MISS:     181243  HIT %:    82.6798  MISS %:    17.3202   MPKI: 0.906215
L2C PREFETCH  ACCESS:      35687  HIT:      20596  MISS:      15091  HIT %:    57.7129  MISS %:    42.2871   MPKI: 0.075455
AGUS PREFETCH L1 MISS: 0
L2C DATA PREFETCH MPKI: 0.075455
L2C INSTRUCTION PREFETCH MPKI: 0
L2C WRITEBACK ACCESS:    1854299  HIT:    1796626  MISS:      57673  HIT %:    96.8898  MISS %:    3.11023   MPKI: 0.288365
L2C LOAD TRANSLATION ACCESS:       9559  HIT:       2934  MISS:       6625  HIT %:    30.6936  MISS %:    69.3064   MPKI: 0.033125
L2C TRANSLATION FROM L1D PREFETCHER ACCESS:       1538  HIT:        988  MISS:        550  HIT %:    64.2393  MISS %:    35.7607   MPKI: 0.00275
L2C PREFETCH  REQUESTED:          0  ISSUED:          0  USEFUL:        654  USELESS:      14981
L2C USEFUL LOAD PREFETCHES:        654 PREFETCH ISSUED TO LOWER LEVEL:      15091  ACCURACY: 4.33371
L2C TIMELY PREFETCHES:        654 LATE PREFETCHES: 0 DROPPED PREFETCHES: 0
L2C PREFETCHES SAME FILL-ORIGIN LEVEL: 0 DIFFERENT FILL-ORIGIN LEVEL: 0
L2C AVERAGE MISS LATENCY: 37.954 cycles
L2C RQ	ACCESS:   13663357	FORWARD:          0	MERGED:          0	TO_CACHE:   13663354
L2C WQ	ACCESS:    1854299	FORWARD:          3	MERGED:          0	TO_CACHE:    1854299
L2C PQ	ACCESS:      35687	FORWARD:          0	MERGED:          0	TO_CACHE:      35687

L2C Instructions Evicting Data 275380
L2C Translations Evicting Data 4092
L2C Data Evicting Data 240579
L2C Instructions Evicting Instructions 460877
L2C Translations Evicting Instructions 2996
L2C Data Evicting Instructions 241406
L2C Instructions Evicting Translations 3010
L2C Translations Evicting Translations 87
L2C Data Evicting Translations 3947
L2C Dense regions hint from L2: 0
PSCL5 TOTAL     ACCESS:       9942  HIT:       9942  MISS:          0  HIT %:        100  MISS %:          0   MPKI: 0
PSCL5 LOAD TRANSLATION ACCESS:       8926  HIT:       8926  MISS:          0  HIT %:        100  MISS %:          0   MPKI: 0
PSCL5 TRANSLATION FROM L1D PREFETCHER ACCESS:       1016  HIT:       1016  MISS:          0  HIT %:        100  MISS %:          0   MPKI: 0
PSCL5 PREFETCH  REQUESTED:          0  ISSUED:          0  USEFUL:          0  USELESS:          0
PSCL5 USEFUL LOAD PREFETCHES:          0 PREFETCH ISSUED TO LOWER LEVEL:          0  ACCURACY: -nan
PSCL5 TIMELY PREFETCHES:          0 LATE PREFETCHES: 0 DROPPED PREFETCHES: 0
PSCL5 PREFETCHES SAME FILL-ORIGIN LEVEL: 0 DIFFERENT FILL-ORIGIN LEVEL: 0

PSCL4 TOTAL     ACCESS:       7594  HIT:       7543  MISS:         51  HIT %:    99.3284  MISS %:   0.671583   MPKI: 0.000255
PSCL4 LOAD TRANSLATION ACCESS:       6894  HIT:       6843  MISS:         51  HIT %:    99.2602  MISS %:   0.739774   MPKI: 0.000255
PSCL4 TRANSLATION FROM L1D PREFETCHER ACCESS:        700  HIT:        700  MISS:          0  HIT %:        100  MISS %:          0   MPKI: 0
PSCL4 PREFETCH  REQUESTED:          0  ISSUED:          0  USEFUL:          0  USELESS:          0
PSCL4 USEFUL LOAD PREFETCHES:          0 PREFETCH ISSUED TO LOWER LEVEL:          0  ACCURACY: -nan
PSCL4 TIMELY PREFETCHES:          0 LATE PREFETCHES: 0 DROPPED PREFETCHES: 0
PSCL4 PREFETCHES SAME FILL-ORIGIN LEVEL: 0 DIFFERENT FILL-ORIGIN LEVEL: 0

PSCL3 TOTAL     ACCESS:       9115  HIT:       9032  MISS:         83  HIT %:    99.0894  MISS %:   0.910587   MPKI: 0.000415
PSCL3 LOAD TRANSLATION ACCESS:       8181  HIT:       8098  MISS:         83  HIT %:    98.9855  MISS %:    1.01455   MPKI: 0.000415
PSCL3 TRANSLATION FROM L1D PREFETCHER ACCESS:        934  HIT:        934  MISS:          0  HIT %:        100  MISS %:          0   MPKI: 0
PSCL3 PREFETCH  REQUESTED:          0  ISSUED:          0  USEFUL:          0  USELESS:          0
PSCL3 USEFUL LOAD PREFETCHES:          0 PREFETCH ISSUED TO LOWER LEVEL:          0  ACCURACY: -nan
PSCL3 TIMELY PREFETCHES:          0 LATE PREFETCHES: 0 DROPPED PREFETCHES: 0
PSCL3 PREFETCHES SAME FILL-ORIGIN LEVEL: 0 DIFFERENT FILL-ORIGIN LEVEL: 0

PSCL2 TOTAL     ACCESS:       9485  HIT:       8982  MISS:        503  HIT %:    94.6969  MISS %:    5.30311   MPKI: 0.002515
PSCL2 LOAD TRANSLATION ACCESS:       8926  HIT:       8423  MISS:        503  HIT %:    94.3648  MISS %:    5.63522   MPKI: 0.002515
PSCL2 TRANSLATION FROM L1D PREFETCHER ACCESS:        559  HIT:        559  MISS:          0  HIT %:        100  MISS %:          0   MPKI: 0
PSCL2 PREFETCH  REQUESTED:          0  ISSUED:          0  USEFUL:          0  USELESS:          0
PSCL2 USEFUL LOAD PREFETCHES:          0 PREFETCH ISSUED TO LOWER LEVEL:          0  ACCURACY: -nan
PSCL2 TIMELY PREFETCHES:          0 LATE PREFETCHES: 0 DROPPED PREFETCHES: 0
PSCL2 PREFETCHES SAME FILL-ORIGIN LEVEL: 0 DIFFERENT FILL-ORIGIN LEVEL: 0

LLC TOTAL     ACCESS:    1477919  HIT:    1403119  MISS:      74800  HIT %:    94.9388  MISS %:    5.06117   MPKI: 0.374
LLC LOAD      ACCESS:    1028865  HIT:     996833  MISS:      32032  HIT %:    96.8867  MISS %:    3.11333   MPKI: 0.16016
LLC RFO       ACCESS:     181240  HIT:     141065  MISS:      40175  HIT %:    77.8333  MISS %:    22.1667   MPKI: 0.200875
LLC PREFETCH  ACCESS:      15091  HIT:      13594  MISS:       1497  HIT %:    90.0802  MISS %:    9.91982   MPKI: 0.007485
AGUS PREFETCH L1 MISS: 0
LLC WRITEBACK ACCESS:     245548  HIT:     244775  MISS:        773  HIT %:    99.6852  MISS %:   0.314806   MPKI: 0.003865
LLC LOAD TRANSLATION ACCESS:       6625  HIT:       6319  MISS:        306  HIT %:    95.3811  MISS %:    4.61887   MPKI: 0.00153
LLC TRANSLATION FROM L1D PREFETCHER ACCESS:        550  HIT:        533  MISS:         17  HIT %:    96.9091  MISS %:    3.09091   MPKI: 8.5e-05
LLC PREFETCH  REQUESTED:          0  ISSUED:          0  USEFUL:         83  USELESS:        600
LLC USEFUL LOAD PREFETCHES:         83 PREFETCH ISSUED TO LOWER LEVEL:       1497  ACCURACY: 5.54442
LLC TIMELY PREFETCHES:         83 LATE PREFETCHES: 0 DROPPED PREFETCHES: 0
LLC PREFETCHES SAME FILL-ORIGIN LEVEL: 0 DIFFERENT FILL-ORIGIN LEVEL: 0
LLC AVERAGE MISS LATENCY: 159.925 cycles
LLC RQ	ACCESS:    1217283	FORWARD:          0	MERGED:          0	TO_CACHE:    1217280
LLC WQ	ACCESS:     245548	FORWARD:          3	MERGED:          0	TO_CACHE:     245548
LLC PQ	ACCESS:      15091	FORWARD:          0	MERGED:          0	TO_CACHE:      15091

LLC Dense regions hint to LLC: 0

RAW hits: 1813997
Loads Generated: 49042986
Loads sent to L1D: 47228987
Stores Generated: 26938645
Stores sent to L1D: 26938645
Major fault: 0 Minor fault: 2563
Allocated PAGES: 2563
CPU 0 L1D 
Prefetch count 91184 BOP and RL 

DRAM Statistics
 CHANNEL 0
 RQ ROW_BUFFER_HIT:      28159  ROW_BUFFER_MISS:      45836
 DBUS_CONGESTED:         41
 WQ ROW_BUFFER_HIT:       4053  ROW_BUFFER_MISS:      37405  FULL:          0

 AVG_CONGESTED_CYCLE: 5
 All warmup complete: 2
Channel 0 Bank busy for read cycles: 0
Channel 0 Bank busy for write cycles: 0
Channel 0
Rank 0
0banks busy for read cycles: 611681910
0banks busy for write cycles: 9692
1banks busy for read cycles: 2072291
1banks busy for write cycles: 1214742
2banks busy for read cycles: 360625
2banks busy for write cycles: 259195
3banks busy for read cycles: 232183
3banks busy for write cycles: 151134
4banks busy for read cycles: 167841
4banks busy for write cycles: 111759
5banks busy for read cycles: 119833
5banks busy for write cycles: 108218
6banks busy for read cycles: 118152
6banks busy for write cycles: 101947
7banks busy for read cycles: 124817
7banks busy for write cycles: 116784
8banks busy for read cycles: 246308
8banks busy for write cycles: 292574

CPU 0 Branch Prediction Accuracy: 99.8625% MPKI: 0.24407 Average ROB Occupancy at Mispredict: 29.794
Branch types
NOT_BRANCH: 164508657 82.2543%
BRANCH_DIRECT_JUMP: 2033451 1.01673%
BRANCH_INDIRECT: 12129859 6.06493%
BRANCH_CONDITIONAL: 12443472 6.22174%
BRANCH_DIRECT_CALL: 3753650 1.87682%
BRANCH_INDIRECT_CALL: 688651 0.344325%
BRANCH_RETURN: 4442350 2.22117%
BRANCH_OTHER: 0 0%

DRAM PAGES: 1048576
Allocated PAGES: 2563
