
*** ChampSim Multicore Out-of-Order Simulator ***

Warmup Instructions: 50000000
Simulation Instructions: 200000000
Number of CPUs: 1
LLC sets: 2048
LLC ways: 16
Off-chip DRAM Size: 4096 MB Channels: 1 Width: 64-bit Data Rate: 6400 MT/s
CPU 0 runs traces/spec2k17/srv_10.champsimtrace.xz
.xz
BTB has LRU replacement policy
ITLB has LRU replacement policy
DTLB has LRU replacement policy
STLB has LRU replacement policy
L1I has LRU replacement policy
CPU 0 l1d next line prefetcher
L1D has LRU replacement policy
Initialize SRRIP state for L2C
Initialize DRRIP state for LLC
Offsets elements: 
Potential of Offsets elements: 
rewards of Offsets elements: 
Printing Sanity1
offset list size2258
Heartbeat CPU 0 instructions: 10000000 cycles: 2780671 heartbeat IPC: 3.59625 cumulative IPC: 3.59625 (Simulation time: 0 hr 0 min 30 sec) 
Heartbeat CPU 0 instructions: 20000002 cycles: 5553822 heartbeat IPC: 3.60601 cumulative IPC: 3.60112 (Simulation time: 0 hr 1 min 2 sec) 
Heartbeat CPU 0 instructions: 30000002 cycles: 8326928 heartbeat IPC: 3.60606 cumulative IPC: 3.60277 (Simulation time: 0 hr 1 min 35 sec) 
*** Reached end of trace for Core: 0 Repeating trace: traces/spec2k17/srv_10.champsimtrace.xz
Heartbeat CPU 0 instructions: 40000001 cycles: 11101744 heartbeat IPC: 3.60384 cumulative IPC: 3.60304 (Simulation time: 0 hr 2 min 5 sec) 
Heartbeat CPU 0 instructions: 50000002 cycles: 13873776 heartbeat IPC: 3.60746 cumulative IPC: 3.60392 (Simulation time: 0 hr 2 min 39 sec) 

Warmup complete CPU 0 instructions: 50000002 cycles: 13873776 (Simulation time: 0 hr 2 min 39 sec) 

Heartbeat CPU 0 instructions: 60000000 cycles: 37025726 heartbeat IPC: 0.431929 cumulative IPC: 0.431929 (Simulation time: 0 hr 3 min 31 sec) 
*** Reached end of trace for Core: 0 Repeating trace: traces/spec2k17/srv_10.champsimtrace.xz
Heartbeat CPU 0 instructions: 70000003 cycles: 60581329 heartbeat IPC: 0.424528 cumulative IPC: 0.428196 (Simulation time: 0 hr 4 min 22 sec) 
Heartbeat CPU 0 instructions: 80000001 cycles: 84049798 heartbeat IPC: 0.426104 cumulative IPC: 0.427496 (Simulation time: 0 hr 5 min 18 sec) 
Heartbeat CPU 0 instructions: 90000000 cycles: 107040271 heartbeat IPC: 0.434963 cumulative IPC: 0.429339 (Simulation time: 0 hr 6 min 11 sec) 
*** Reached end of trace for Core: 0 Repeating trace: traces/spec2k17/srv_10.champsimtrace.xz
Heartbeat CPU 0 instructions: 100000002 cycles: 130521526 heartbeat IPC: 0.425872 cumulative IPC: 0.428641 (Simulation time: 0 hr 7 min 6 sec) 
Offsets elements: 
Potential of Offsets elements: 
rewards of Offsets elements: 0 0 243 237 0 0 0 0 0 0 0 0 0 0 0 0 0 0 0 0 0 0 0 0 0 11 0 1 110 1 6 0 0 0 1 0 0 0 0 0 0 0 0 0 0 0 0 0 0 0 0 72 5 0 144 0 104 0 0 0 0 0 0 0 0 0 0 0 0 4 1 0 0 0 0 0 0 0 0 0 0 9 0 0 0 0 0 0 0 0 0 0 0 0 42 19 1 0 0 69 215 0 20 0 0 0 0 0 0 0 0 0 0 0 1 0 0 0 0 0 179 0 0 7 55 0 0 134 11 0 0 0 0 0 0 0 0 0 0 0 0 0 5 0 0 0 0 0 0 0 3 2 0 0 14 0 0 0 0 0 0 0 0 0 0 0 1 0 0 0 0 0 0 0 0 0 0 0 0 0 0 0 0 0 0 53 0 0 0 0 0 0 0 0 4 0 0 0 0 0 0 0 0 0 0 0 0 171 0 125 28 1 0 0 0 0 0 0 0 0 4 0 0 0 0 0 0 0 1 0 0 0 0 3 0 0 0 0 0 0 0 0 0 0 0 0 0 0 1 0 0 0 0 16 0 2 1 0 0 0 0 0 0 0 0 0 0 0 0 0 0 0 50 0 0 0 0 0 0 0 1 0 0 0 0 0 0 0 0 0 4 0 0 0 0 23 5 0 0 0 0 0 0 0 0 0 0 0 0 0 0 0 1 0 0 0 0 0 0 0 0 1 0 0 4 0 0 0 0 0 0 77 0 0 0 0 0 0 0 0 126 11 8 108 12 5 0 0 0 0 0 0 0 0 0 0 0 0 0 0 0 0 0 0 0 0 0 0 0 0 0 0 0 0 0 0 0 0 0 0 0 178 0 0 0 0 0 0 2 0 0 0 0 0 0 0 0 0 0 111 0 0 1 0 0 0 16 1 0 2 0 0 0 0 0 0 0 0 0 0 0 9 1 2 17 0 0 0 0 0 0 0 0 0 4 0 0 0 0 0 1 0 0 0 0 0 0 0 0 0 0 66 0 19 0 0 0 0 0 37 0 0 0 1 0 0 0 0 0 0 0 0 0 0 0 0 0 0 0 0 0 0 0 0 0 0 0 20 0 0 0 0 0 0 0 0 0 0 4 0 0 0 0 0 1 0 0 0 0 0 0 0 0 0 0 3 0 0 0 0 0 0 1 1 13 16 0 0 0 0 0 0 0 0 0 0 0 0 52 0 0 1 0 0 0 0 0 0 0 0 0 0 1 0 0 21 0 0 0 0 0 0 0 1 1 0 0 0 0 9 1 0 0 0 0 0 0 0 30 194 0 0 0 0 1 1 3 5 21 87 52 24 175 0 0 0 0 1 1 0 0 0 0 0 0 0 0 0 2 0 0 3 0 1 0 0 0 0 0 0 0 2 15 68 0 0 9 16 12 0 0 127 29 0 0 0 0 0 0 0 0 0 0 0 32 0 0 0 0 0 0 0 0 0 1 0 2 0 0 1 0 3 0 0 0 0 0 1 1 0 0 0 46 0 0 0 0 0 0 1 0 0 0 0 0 0 4 0 0 2 0 0 0 0 0 0 0 0 0 0 0 0 0 0 0 0 0 0 0 0 0 0 1 0 0 0 0 0 0 0 0 0 0 0 0 0 0 0 0 0 1 0 0 0 0 7 0 0 0 0 0 0 1 0 0 0 0 0 0 0 0 0 0 0 0 1 0 0 0 0 0 4 4 14 32 0 0 0 0 1 0 127 1 4 0 0 0 0 0 3 0 0 0 0 0 0 0 0 0 0 1 0 0 0 0 0 0 0 0 0 0 0 0 0 0 0 0 0 0 0 0 0 0 0 0 0 0 0 0 0 0 1 0 0 0 0 0 0 0 0 0 0 0 0 0 0 0 0 0 0 0 0 0 0 0 0 0 0 0 0 13 0 0 5 0 0 0 0 0 0 0 0 1 0 0 0 4 0 2 0 0 0 0 0 0 0 0 0 0 1 0 0 0 0 0 0 0 0 0 0 0 0 0 0 0 0 0 0 0 0 0 0 2 3 0 0 0 2 1 0 0 0 0 0 0 0 0 0 0 0 0 0 0 0 0 0 0 8 0 0 0 0 0 0 0 0 0 0 0 0 0 0 0 0 0 0 0 0 0 0 0 2 0 0 0 11 0 4 0 0 0 1 0 3 0 4 0 0 0 0 11 0 0 0 0 0 0 0 0 0 0 0 1 0 0 0 0 0 0 0 0 1 0 1 0 100 109 38 0 0 6 0 0 4 0 0 0 0 3 0 0 0 0 0 0 0 0 0 0 0 0 0 0 0 0 0 0 0 0 0 0 0 0 0 0 0 0 0 0 0 0 0 0 0 62 0 0 0 0 0 0 0 0 0 15 0 0 0 0 0 0 0 0 0 0 0 0 0 0 0 0 0 0 0 0 0 0 0 0 0 0 0 0 0 0 1 0 0 0 0 0 0 0 0 0 0 0 0 0 0 0 0 0 0 0 0 0 0 0 0 0 0 0 0 0 0 0 0 0 1 0 0 0 0 0 0 0 0 2 0 0 0 109 3 4 28 178 14 0 0 0 0 0 0 17 0 0 0 0 0 0 2 0 0 0 0 0 0 0 0 0 0 0 0 0 0 0 0 0 0 0 0 0 0 0 0 0 0 0 0 0 0 0 17 7 0 0 0 14 3 0 0 0 0 0 114 5 105 0 0 0 0 0 0 0 0 5 0 10 2 18 1 0 0 0 0 0 0 0 0 0 0 0 0 0 0 1 0 0 0 0 0 0 6 2 0 16 0 0 2 0 5 9 0 0 0 0 0 0 0 0 0 0 93 0 8 0 2 0 0 0 0 1 0 0 1 0 1 0 0 0 0 3 1 0 0 11 2 0 0 0 1 0 0 0 0 0 0 0 0 0 0 2 15 0 0 0 0 0 3 1 0 141 0 0 1 4 0 0 0 0 0 0 0 0 0 0 0 0 0 0 0 0 0 0 0 0 0 0 0 0 0 2 0 0 0 0 0 0 0 0 0 0 0 0 0 0 0 0 0 0 0 0 0 0 0 0 0 0 0 0 0 0 0 0 0 0 0 0 0 0 0 0 0 0 0 0 0 0 0 0 0 0 0 0 40 0 0 0 0 0 0 0 0 0 0 0 0 0 0 0 0 0 0 0 0 0 0 0 5 0 0 0 0 0 0 0 0 1 0 0 0 0 0 0 0 0 0 1 0 0 0 0 0 0 0 1 0 0 0 0 0 0 0 0 0 0 0 0 0 0 0 1 0 0 0 0 0 0 0 0 0 0 0 0 0 0 0 0 0 0 0 0 0 0 0 0 0 0 0 1 2 0 0 0 0 0 0 0 0 0 0 0 0 0 0 0 0 0 0 0 0 0 0 0 0 0 0 0 1 0 0 0 0 3 0 0 0 0 0 0 0 1 0 0 0 0 0 0 0 0 0 0 0 0 0 0 0 0 0 0 0 0 0 0 0 0 2 0 0 0 0 0 0 0 0 2 0 0 0 0 0 0 0 0 0 0 0 0 0 0 0 0 0 0 0 0 0 0 0 0 0 0 0 0 0 0 11 0 0 0 0 1 0 0 0 0 0 0 0 0 0 0 0 0 0 0 1 0 0 0 0 0 0 0 0 0 0 0 0 0 0 0 2 0 0 0 0 0 0 0 0 0 0 0 0 0 0 0 0 0 1 0 0 0 0 0 0 0 0 1 0 0 0 0 72 0 0 136 0 2 3 0 0 0 0 0 0 0 0 0 0 0 0 0 1 0 0 0 0 0 0 0 0 0 0 0 0 0 3 0 0 0 0 0 0 0 0 0 0 0 0 0 0 0 0 0 0 0 0 0 0 0 0 0 0 0 0 0 0 0 0 0 0 0 0 0 0 0 0 0 0 0 0 0 0 0 0 0 0 0 0 0 0 0 0 0 7 0 0 0 0 0 0 82 0 0 0 0 0 0 0 0 0 0 0 0 0 8 0 0 0 0 2 0 0 0 0 0 0 0 0 0 0 0 0 0 8 0 0 0 0 4 0 0 0 0 4 0 0 0 0 0 0 0 0 0 0 0 0 0 0 0 1 0 0 0 0 0 0 0 0 0 0 0 0 0 0 0 0 0 0 0 0 0 0 0 0 0 0 0 0 0 0 0 0 0 0 0 0 0 0 0 0 0 0 0 0 0 0 0 0 0 0 0 0 0 0 0 0 0 0 0 3 0 0 0 0 0 0 0 0 0 0 0 0 0 0 0 0 0 1 2 1 0 0 0 1 0 0 0 0 0 0 0 0 0 0 0 0 0 0 0 0 1 0 0 0 0 0 0 0 0 0 0 0 3 0 0 0 0 0 0 0 0 0 0 0 0 0 0 0 0 0 0 0 0 0 0 0 0 0 0 0 0 0 0 0 0 2 0 0 0 0 1 0 0 0 0 0 0 0 0 0 0 0 0 0 0 38 0 0 3 1 0 0 0 0 2 0 0 0 0 0 0 0 0 0 0 0 0 0 0 0 0 0 4 0 0 0 0 0 0 0 1 0 3 1 0 0 1 0 0 0 0 0 0 0 0 0 0 8 0 0 0 0 0 0 0 1 0 0 0 0 0 0 0 0 0 0 0 0 5 0 0 0 0 0 0 0 1 0 0 0 0 0 0 0 0 0 0 0 0 0 0 31 0 0 0 0 0 0 0 0 0 0 0 0 0 0 0 0 0 0 0 0 0 0 0 0 0 0 1 0 0 0 0 0 0 0 0 0 0 1 0 14 0 0 0 0 0 0 0 0 0 0 0 0 0 12 123 0 0 0 0 1 0 0 0 0 0 0 0 0 0 0 0 0 0 0 0 0 0 0 8 0 0 0 0 0 0 0 0 0 0 0 0 0 0 0 0 0 0 1 0 3 1 1 5 10 6 0 16 0 4 2 1 0 0 0 0 0 0 0 0 0 0 0 0 1 0 0 0 0 0 0 0 0 0 0 0 0 0 0 0 0 0 0 5 0 0 0 0 0 9 0 0 0 1 0 0 0 0 0 37 0 0 0 0 0 0 0 0 3 1 0 0 0 0 0 0 0 2 0 0 2 0 0 
Printing Sanity2
Heartbeat CPU 0 instructions: 110000000 cycles: 154009593 heartbeat IPC: 0.425748 cumulative IPC: 0.428156 (Simulation time: 0 hr 7 min 59 sec) 
Heartbeat CPU 0 instructions: 120000000 cycles: 177103431 heartbeat IPC: 0.433016 cumulative IPC: 0.428844 (Simulation time: 0 hr 8 min 55 sec) 
*** Reached end of trace for Core: 0 Repeating trace: traces/spec2k17/srv_10.champsimtrace.xz
Heartbeat CPU 0 instructions: 130000002 cycles: 200419854 heartbeat IPC: 0.428882 cumulative IPC: 0.428848 (Simulation time: 0 hr 9 min 48 sec) 
Heartbeat CPU 0 instructions: 140000003 cycles: 223963264 heartbeat IPC: 0.424747 cumulative IPC: 0.428389 (Simulation time: 0 hr 10 min 41 sec) 
Heartbeat CPU 0 instructions: 150000000 cycles: 247107923 heartbeat IPC: 0.432065 cumulative IPC: 0.428754 (Simulation time: 0 hr 11 min 32 sec) 
*** Reached end of trace for Core: 0 Repeating trace: traces/spec2k17/srv_10.champsimtrace.xz
Heartbeat CPU 0 instructions: 160000002 cycles: 270368237 heartbeat IPC: 0.429917 cumulative IPC: 0.428859 (Simulation time: 0 hr 12 min 23 sec) 
Heartbeat CPU 0 instructions: 170000000 cycles: 293736370 heartbeat IPC: 0.427933 cumulative IPC: 0.428782 (Simulation time: 0 hr 13 min 15 sec) 
Heartbeat CPU 0 instructions: 180000000 cycles: 316911204 heartbeat IPC: 0.431503 cumulative IPC: 0.42899 (Simulation time: 0 hr 14 min 8 sec) 
*** Reached end of trace for Core: 0 Repeating trace: traces/spec2k17/srv_10.champsimtrace.xz
Heartbeat CPU 0 instructions: 190000000 cycles: 340186559 heartbeat IPC: 0.429639 cumulative IPC: 0.429036 (Simulation time: 0 hr 15 min 0 sec) 
Heartbeat CPU 0 instructions: 200000001 cycles: 363533613 heartbeat IPC: 0.42832 cumulative IPC: 0.428988 (Simulation time: 0 hr 15 min 55 sec) 
Heartbeat CPU 0 instructions: 210000001 cycles: 386965660 heartbeat IPC: 0.426766 cumulative IPC: 0.428849 (Simulation time: 0 hr 16 min 47 sec) 
*** Reached end of trace for Core: 0 Repeating trace: traces/spec2k17/srv_10.champsimtrace.xz
Heartbeat CPU 0 instructions: 220000000 cycles: 410147656 heartbeat IPC: 0.431369 cumulative IPC: 0.428996 (Simulation time: 0 hr 17 min 41 sec) 
Heartbeat CPU 0 instructions: 230000000 cycles: 433473383 heartbeat IPC: 0.428711 cumulative IPC: 0.42898 (Simulation time: 0 hr 18 min 32 sec) 
Heartbeat CPU 0 instructions: 240000000 cycles: 456496699 heartbeat IPC: 0.434342 cumulative IPC: 0.429259 (Simulation time: 0 hr 19 min 23 sec) 
*** Reached end of trace for Core: 0 Repeating trace: traces/spec2k17/srv_10.champsimtrace.xz
Heartbeat CPU 0 instructions: 250000001 cycles: 479782084 heartbeat IPC: 0.429454 cumulative IPC: 0.429269 (Simulation time: 0 hr 20 min 15 sec) 
Finished CPU 0 instructions: 200000000 cycles: 465908309 cumulative IPC: 0.429269 (Simulation time: 0 hr 20 min 15 sec) 

ChampSim completed all CPUs

Region of Interest Statistics

CPU 0 cumulative IPC: 0.429269 instructions: 200000000 cycles: 465908309
ITLB TOTAL     ACCESS:   31520076  HIT:   30725738  MISS:     794338  HIT %:    97.4799  MISS %:     2.5201   MPKI: 3.97169
ITLB LOAD TRANSLATION ACCESS:   31520076  HIT:   30725738  MISS:     794338  HIT %:    97.4799  MISS %:     2.5201   MPKI: 3.97169
ITLB PREFETCH  REQUESTED:          0  ISSUED:          0  USEFUL:          0  USELESS:          0
ITLB USEFUL LOAD PREFETCHES:          0 PREFETCH ISSUED TO LOWER LEVEL:          0  ACCURACY: -nan
ITLB TIMELY PREFETCHES:          0 LATE PREFETCHES: 0 DROPPED PREFETCHES: 0
ITLB PREFETCHES SAME FILL-ORIGIN LEVEL: 0 DIFFERENT FILL-ORIGIN LEVEL: 0
ITLB AVERAGE MISS LATENCY: 15.7696 cycles
ITLB RQ	ACCESS:   38422941	FORWARD:          0	MERGED:    6711702	TO_CACHE:   31711239

DTLB TOTAL     ACCESS:   37368124  HIT:   34853185  MISS:    2514939  HIT %:    93.2698  MISS %:    6.73017   MPKI: 12.5747
DTLB LOAD TRANSLATION ACCESS:   37368124  HIT:   34853185  MISS:    2514939  HIT %:    93.2698  MISS %:    6.73017   MPKI: 12.5747
DTLB PREFETCH  REQUESTED:          0  ISSUED:          0  USEFUL:          0  USELESS:          0
DTLB USEFUL LOAD PREFETCHES:          0 PREFETCH ISSUED TO LOWER LEVEL:          0  ACCURACY: -nan
DTLB TIMELY PREFETCHES:          0 LATE PREFETCHES: 0 DROPPED PREFETCHES: 0
DTLB PREFETCHES SAME FILL-ORIGIN LEVEL: 0 DIFFERENT FILL-ORIGIN LEVEL: 0
DTLB AVERAGE MISS LATENCY: 13.9859 cycles
DTLB RQ	ACCESS:   47819688	FORWARD:          0	MERGED:   10299131	TO_CACHE:   37520557

STLB TOTAL     ACCESS:    3322630  HIT:    2859006  MISS:     463624  HIT %:    86.0465  MISS %:    13.9535   MPKI: 2.31812
STLB LOAD TRANSLATION ACCESS:    3309277  HIT:    2845671  MISS:     463606  HIT %:    85.9907  MISS %:    14.0093   MPKI: 2.31803
STLB TRANSLATION FROM L1D PREFETCHER ACCESS:      13353  HIT:      13335  MISS:         18  HIT %:    99.8652  MISS %:   0.134801   MPKI: 9e-05
STLB PREFETCH  REQUESTED:          0  ISSUED:          0  USEFUL:         15  USELESS:          3
STLB USEFUL LOAD PREFETCHES:         15 PREFETCH ISSUED TO LOWER LEVEL:          0  ACCURACY: inf
STLB TIMELY PREFETCHES:         15 LATE PREFETCHES: 6 DROPPED PREFETCHES: 62
STLB PREFETCHES SAME FILL-ORIGIN LEVEL: 0 DIFFERENT FILL-ORIGIN LEVEL: 0
STLB AVERAGE MISS LATENCY: 38.4735 cycles
STLB RQ	ACCESS:    3323911	FORWARD:          0	MERGED:       1207	TO_CACHE:    3322704

STLB Hit, L1D data hit: 0
STLB Hit, L2C data hit: 0
STLB Hit, LLC data hit: 0
STLB Hit, LLC data miss: 0
STLB STLB hints to L2: 0
L1D TOTAL     ACCESS:   47244527  HIT:   44706987  MISS:    2537540  HIT %:    94.6289  MISS %:    5.37108   MPKI: 12.6877
L1D LOAD      ACCESS:   27737134  HIT:   25575039  MISS:    2162095  HIT %:    92.2051  MISS %:    7.79495   MPKI: 10.8105
L1D RFO       ACCESS:   19494475  HIT:   19130479  MISS:     363996  HIT %:    98.1328  MISS %:    1.86718   MPKI: 1.81998
L1D PREFETCH  ACCESS:      12918  HIT:       1469  MISS:      11449  HIT %:    11.3717  MISS %:    88.6283   MPKI: 0.057245
AGUS PREFETCH L1 MISS: 0
L1D PREFETCH  REQUESTED:      29428  ISSUED:      29428  USEFUL:       3059  USELESS:       8390
L1D USEFUL LOAD PREFETCHES:       3059 PREFETCH ISSUED TO LOWER LEVEL:      11665  ACCURACY: 26.2237
L1D TIMELY PREFETCHES:       3059 LATE PREFETCHES: 211 DROPPED PREFETCHES: 62
L1D PREFETCHES SAME FILL-ORIGIN LEVEL: 11665 DIFFERENT FILL-ORIGIN LEVEL: 0
L1D AVERAGE MISS LATENCY: 15260.1 cycles
L1D RQ	ACCESS:   42009979	FORWARD:          0	MERGED:   13910061	TO_CACHE:   27885529
L1D WQ	ACCESS:   20227584	FORWARD:     214390	MERGED:     293425	TO_CACHE:   19934159
L1D PQ	ACCESS:      14794	FORWARD:          0	MERGED:        159	TO_CACHE:      14634

L1D UNIQUE REGIONS ACCESSED: 0
L1D REGIONS CONFLICTS: 0
L1D Cross Page Prefetch Requests: 14794
L1D Same Page Prefetch Requests: 0
L1D ROI Sum of L1D PQ occupancy: 201497
L1D PREFETCHES PUSHED FROM L2C: 0
L1I TOTAL     ACCESS:   36764091  HIT:   31720660  MISS:    5043431  HIT %:    86.2816  MISS %:    13.7184   MPKI: 25.2172
L1I LOAD      ACCESS:   36764091  HIT:   31720660  MISS:    5043431  HIT %:    86.2816  MISS %:    13.7184   MPKI: 25.2172
L1I PREFETCH  REQUESTED:          0  ISSUED:          0  USEFUL:          0  USELESS:          0
L1I USEFUL LOAD PREFETCHES:          0 PREFETCH ISSUED TO LOWER LEVEL:          0  ACCURACY: -nan
L1I TIMELY PREFETCHES:          0 LATE PREFETCHES: 0 DROPPED PREFETCHES: 0
L1I PREFETCHES SAME FILL-ORIGIN LEVEL: 0 DIFFERENT FILL-ORIGIN LEVEL: 0
L1I AVERAGE MISS LATENCY: 27.733 cycles
L1I RQ	ACCESS:   57063297	FORWARD:          0	MERGED:   18640356	TO_CACHE:   38422941

BTB TOTAL     ACCESS:   22616971  HIT:   17672573  MISS:    4944398  HIT %:    78.1385  MISS %:    21.8615   MPKI: 24.722
BTB BRANCH_DIRECT_JUMP	ACCESS:    1742577  HIT:    1446257  MISS:     296320
BTB BRANCH_INDIRECT	ACCESS:    9604965  HIT:    7286777  MISS:    2318188
BTB BRANCH_CONDITIONAL	ACCESS:    4679517  HIT:    4209943  MISS:     469574
BTB BRANCH_DIRECT_CALL	ACCESS:    2572130  HIT:    1992728  MISS:     579402
BTB BRANCH_INDIRECT_CALL	ACCESS:     719271  HIT:     661890  MISS:      57381
BTB BRANCH_RETURN	ACCESS:    3298511  HIT:    2074978  MISS:    1223533
BTB BRANCH_OTHER ACCESS:          0  HIT:          0  MISS:          0

L2C TOTAL     ACCESS:    9181076  HIT:    5357904  MISS:    3823172  HIT %:    58.3581  MISS %:    41.6419   MPKI: 19.1159
L2C LOAD      ACCESS:    7205094  HIT:    3842319  MISS:    3362775  HIT %:    53.3278  MISS %:    46.6722   MPKI: 16.8139
L2C DATA LOAD MPKI: 5.58542
L2C INSTRUCTION LOAD MPKI: 11.2285
L2C RFO       ACCESS:     363985  HIT:     184148  MISS:     179837  HIT %:    50.5922  MISS %:    49.4078   MPKI: 0.899185
L2C PREFETCH  ACCESS:      11665  HIT:       2256  MISS:       9409  HIT %:    19.3399  MISS %:    80.6601   MPKI: 0.047045
AGUS PREFETCH L1 MISS: 0
L2C DATA PREFETCH MPKI: 0.047045
L2C INSTRUCTION PREFETCH MPKI: 0
L2C WRITEBACK ACCESS:    1011459  HIT:     956301  MISS:      55158  HIT %:    94.5467  MISS %:    5.45331   MPKI: 0.27579
L2C LOAD TRANSLATION ACCESS:     588750  HIT:     372815  MISS:     215935  HIT %:    63.3231  MISS %:    36.6769   MPKI: 1.07967
L2C TRANSLATION FROM L1D PREFETCHER ACCESS:        123  HIT:         65  MISS:         58  HIT %:    52.8455  MISS %:    47.1545   MPKI: 0.00029
L2C PREFETCH  REQUESTED:          0  ISSUED:          0  USEFUL:        496  USELESS:       8971
L2C USEFUL LOAD PREFETCHES:        496 PREFETCH ISSUED TO LOWER LEVEL:       9409  ACCURACY: 5.27155
L2C TIMELY PREFETCHES:        496 LATE PREFETCHES: 0 DROPPED PREFETCHES: 0
L2C PREFETCHES SAME FILL-ORIGIN LEVEL: 0 DIFFERENT FILL-ORIGIN LEVEL: 0
L2C AVERAGE MISS LATENCY: 39.4123 cycles
L2C RQ	ACCESS:    8158178	FORWARD:          0	MERGED:          0	TO_CACHE:    8157952
L2C WQ	ACCESS:    1011459	FORWARD:        226	MERGED:          0	TO_CACHE:    1011459
L2C PQ	ACCESS:      11665	FORWARD:          0	MERGED:          0	TO_CACHE:      11665

L2C Instructions Evicting Data 796182
L2C Translations Evicting Data 79130
L2C Data Evicting Data 466208
L2C Instructions Evicting Instructions 1323871
L2C Translations Evicting Instructions 125106
L2C Data Evicting Instructions 764779
L2C Instructions Evicting Translations 125637
L2C Translations Evicting Translations 11757
L2C Data Evicting Translations 75344
L2C Dense regions hint from L2: 0
PSCL5 TOTAL     ACCESS:     463686  HIT:     463686  MISS:          0  HIT %:        100  MISS %:          0   MPKI: 0
PSCL5 LOAD TRANSLATION ACCESS:     463600  HIT:     463600  MISS:          0  HIT %:        100  MISS %:          0   MPKI: 0
PSCL5 TRANSLATION FROM L1D PREFETCHER ACCESS:         86  HIT:         86  MISS:          0  HIT %:        100  MISS %:          0   MPKI: 0
PSCL5 PREFETCH  REQUESTED:          0  ISSUED:          0  USEFUL:          0  USELESS:          0
PSCL5 USEFUL LOAD PREFETCHES:          0 PREFETCH ISSUED TO LOWER LEVEL:          0  ACCURACY: -nan
PSCL5 TIMELY PREFETCHES:          0 LATE PREFETCHES: 0 DROPPED PREFETCHES: 0
PSCL5 PREFETCHES SAME FILL-ORIGIN LEVEL: 0 DIFFERENT FILL-ORIGIN LEVEL: 0

PSCL4 TOTAL     ACCESS:     434836  HIT:     433695  MISS:       1141  HIT %:    99.7376  MISS %:   0.262398   MPKI: 0.005705
PSCL4 LOAD TRANSLATION ACCESS:     434751  HIT:     433610  MISS:       1141  HIT %:    99.7376  MISS %:   0.262449   MPKI: 0.005705
PSCL4 TRANSLATION FROM L1D PREFETCHER ACCESS:         85  HIT:         85  MISS:          0  HIT %:        100  MISS %:          0   MPKI: 0
PSCL4 PREFETCH  REQUESTED:          0  ISSUED:          0  USEFUL:          0  USELESS:          0
PSCL4 USEFUL LOAD PREFETCHES:          0 PREFETCH ISSUED TO LOWER LEVEL:          0  ACCURACY: -nan
PSCL4 TIMELY PREFETCHES:          0 LATE PREFETCHES: 0 DROPPED PREFETCHES: 0
PSCL4 PREFETCHES SAME FILL-ORIGIN LEVEL: 0 DIFFERENT FILL-ORIGIN LEVEL: 0

PSCL3 TOTAL     ACCESS:     460283  HIT:     456571  MISS:       3712  HIT %:    99.1935  MISS %:    0.80646   MPKI: 0.01856
PSCL3 LOAD TRANSLATION ACCESS:     460197  HIT:     456485  MISS:       3712  HIT %:    99.1934  MISS %:   0.806611   MPKI: 0.01856
PSCL3 TRANSLATION FROM L1D PREFETCHER ACCESS:         86  HIT:         86  MISS:          0  HIT %:        100  MISS %:          0   MPKI: 0
PSCL3 PREFETCH  REQUESTED:          0  ISSUED:          0  USEFUL:          0  USELESS:          0
PSCL3 USEFUL LOAD PREFETCHES:          0 PREFETCH ISSUED TO LOWER LEVEL:          0  ACCURACY: -nan
PSCL3 TIMELY PREFETCHES:          0 LATE PREFETCHES: 0 DROPPED PREFETCHES: 0
PSCL3 PREFETCHES SAME FILL-ORIGIN LEVEL: 0 DIFFERENT FILL-ORIGIN LEVEL: 0

PSCL2 TOTAL     ACCESS:     463662  HIT:     343352  MISS:     120310  HIT %:    74.0522  MISS %:    25.9478   MPKI: 0.60155
PSCL2 LOAD TRANSLATION ACCESS:     463613  HIT:     343303  MISS:     120310  HIT %:    74.0495  MISS %:    25.9505   MPKI: 0.60155
PSCL2 TRANSLATION FROM L1D PREFETCHER ACCESS:         49  HIT:         49  MISS:          0  HIT %:        100  MISS %:          0   MPKI: 0
PSCL2 PREFETCH  REQUESTED:          0  ISSUED:          0  USEFUL:          0  USELESS:          0
PSCL2 USEFUL LOAD PREFETCHES:          0 PREFETCH ISSUED TO LOWER LEVEL:          0  ACCURACY: -nan
PSCL2 TIMELY PREFETCHES:          0 LATE PREFETCHES: 0 DROPPED PREFETCHES: 0
PSCL2 PREFETCHES SAME FILL-ORIGIN LEVEL: 0 DIFFERENT FILL-ORIGIN LEVEL: 0

LLC TOTAL     ACCESS:    4246368  HIT:    4007488  MISS:     238880  HIT %:    94.3745  MISS %:    5.62551   MPKI: 1.1944
LLC LOAD      ACCESS:    3362774  HIT:    3173214  MISS:     189560  HIT %:     94.363  MISS %:    5.63701   MPKI: 0.9478
LLC RFO       ACCESS:     179837  HIT:     137863  MISS:      41974  HIT %:      76.66  MISS %:      23.34   MPKI: 0.20987
LLC PREFETCH  ACCESS:       9409  HIT:       6231  MISS:       3178  HIT %:    66.2238  MISS %:    33.7762   MPKI: 0.01589
AGUS PREFETCH L1 MISS: 0
LLC WRITEBACK ACCESS:     478355  HIT:     477009  MISS:       1346  HIT %:    99.7186  MISS %:   0.281381   MPKI: 0.00673
LLC LOAD TRANSLATION ACCESS:     215935  HIT:     213125  MISS:       2810  HIT %:    98.6987  MISS %:    1.30132   MPKI: 0.01405
LLC TRANSLATION FROM L1D PREFETCHER ACCESS:         58  HIT:         46  MISS:         12  HIT %:    79.3103  MISS %:    20.6897   MPKI: 6e-05
LLC PREFETCH  REQUESTED:          0  ISSUED:          0  USEFUL:         79  USELESS:       3067
LLC USEFUL LOAD PREFETCHES:         79 PREFETCH ISSUED TO LOWER LEVEL:       3178  ACCURACY: 2.48584
LLC TIMELY PREFETCHES:         79 LATE PREFETCHES: 0 DROPPED PREFETCHES: 0
LLC PREFETCHES SAME FILL-ORIGIN LEVEL: 0 DIFFERENT FILL-ORIGIN LEVEL: 0
LLC AVERAGE MISS LATENCY: 157.559 cycles
LLC RQ	ACCESS:    3758605	FORWARD:          0	MERGED:          0	TO_CACHE:    3758604
LLC WQ	ACCESS:     478355	FORWARD:          1	MERGED:          0	TO_CACHE:     478355
LLC PQ	ACCESS:       9409	FORWARD:          0	MERGED:          0	TO_CACHE:       9409

LLC Dense regions hint to LLC: 0

RAW hits: 2713463
Loads Generated: 44723442
Loads sent to L1D: 42009979
Stores Generated: 20227563
Stores sent to L1D: 20227584
Major fault: 0 Minor fault: 4015
Allocated PAGES: 4015
CPU 0 L1D 
Prefetch count 26459 BOP and RL 

DRAM Statistics
 CHANNEL 0
 RQ ROW_BUFFER_HIT:      30905  ROW_BUFFER_MISS:     206629
 DBUS_CONGESTED:         55
 WQ ROW_BUFFER_HIT:      18174  ROW_BUFFER_MISS:     182144  FULL:          0

 AVG_CONGESTED_CYCLE: 4
 All warmup complete: 2
Channel 0 Bank busy for read cycles: 0
Channel 0 Bank busy for write cycles: 0
Channel 0
Rank 0
0banks busy for read cycles: 416154039
0banks busy for write cycles: 124202
1banks busy for read cycles: 23254231
1banks busy for write cycles: 16891539
2banks busy for read cycles: 2926629
2banks busy for write cycles: 3617277
3banks busy for read cycles: 399368
3banks busy for write cycles: 869627
4banks busy for read cycles: 228416
4banks busy for write cycles: 379082
5banks busy for read cycles: 86450
5banks busy for write cycles: 235685
6banks busy for read cycles: 44065
6banks busy for write cycles: 160774
7banks busy for read cycles: 34338
7banks busy for write cycles: 176869
8banks busy for read cycles: 47955
8banks busy for write cycles: 277764

CPU 0 Branch Prediction Accuracy: 99.8374% MPKI: 0.292835 Average ROB Occupancy at Mispredict: 37.7047
Branch types
NOT_BRANCH: 163982143 81.9911%
BRANCH_DIRECT_JUMP: 1742577 0.871289%
BRANCH_INDIRECT: 9604965 4.80248%
BRANCH_CONDITIONAL: 18080052 9.04003%
BRANCH_DIRECT_CALL: 2572130 1.28607%
BRANCH_INDIRECT_CALL: 719271 0.359635%
BRANCH_RETURN: 3298511 1.64926%
BRANCH_OTHER: 0 0%

DRAM PAGES: 1048576
Allocated PAGES: 4015
