
*** ChampSim Multicore Out-of-Order Simulator ***

Warmup Instructions: 50000000
Simulation Instructions: 200000000
Number of CPUs: 1
LLC sets: 2048
LLC ways: 16
Off-chip DRAM Size: 4096 MB Channels: 1 Width: 64-bit Data Rate: 6400 MT/s
CPU 0 runs traces/spec2k17/srv_39.champsimtrace.xz
.xz
BTB has LRU replacement policy
ITLB has LRU replacement policy
DTLB has LRU replacement policy
STLB has LRU replacement policy
L1I has LRU replacement policy
CPU 0 l1d next line prefetcher
L1D has LRU replacement policy
Initialize SRRIP state for L2C
Initialize DRRIP state for LLC
Offsets elements: 
Potential of Offsets elements: 
rewards of Offsets elements: 
Printing Sanity1
offset list size889
Heartbeat CPU 0 instructions: 10000001 cycles: 2942130 heartbeat IPC: 3.3989 cumulative IPC: 3.3989 (Simulation time: 0 hr 0 min 36 sec) 
Heartbeat CPU 0 instructions: 20000002 cycles: 5875457 heartbeat IPC: 3.4091 cumulative IPC: 3.40399 (Simulation time: 0 hr 1 min 12 sec) 
Offsets elements: 
Potential of Offsets elements: 
rewards of Offsets elements: 0 196 126 0 0 0 0 0 0 0 0 224 0 0 0 0 0 0 0 411 407 0 0 0 0 0 0 0 34 0 0 0 0 0 0 0 0 0 460 214 312 0 0 0 159 0 0 202 330 0 0 0 0 0 0 217 0 0 0 0 251 0 0 0 0 0 0 5 2 36 0 0 11 0 0 0 0 0 0 0 0 0 0 2 0 0 0 0 0 0 0 1 0 0 0 41 11 0 0 0 0 0 0 87 43 0 0 0 0 187 344 0 0 0 0 0 0 5 0 0 195 0 162 140 2 0 0 0 0 0 0 0 0 0 2 0 0 0 17 0 0 0 0 0 0 0 31 0 0 0 0 0 0 0 0 0 0 0 0 10 0 0 0 0 0 0 0 0 0 0 0 0 0 0 0 0 0 0 0 0 0 0 31 7 0 0 0 0 0 0 0 0 0 0 0 355 0 8 0 0 0 0 0 0 232 162 0 0 0 0 0 0 0 0 0 0 81 0 0 0 1 0 0 0 0 2 35 10 0 0 0 0 0 0 0 0 0 0 0 0 0 0 0 0 0 0 0 0 0 0 33 0 0 139 34 0 0 0 0 0 0 0 0 0 0 0 0 0 0 0 35 0 0 0 0 0 0 0 82 0 0 0 0 0 0 0 0 0 0 0 0 0 18 31 6 0 0 4 0 0 0 0 0 42 113 0 0 0 0 0 0 0 0 15 0 0 1 172 0 0 0 0 0 0 0 0 0 446 0 17 65 0 2 0 0 0 0 3 0 0 0 0 0 0 55 13 0 0 0 107 0 0 0 0 0 0 0 0 0 0 0 25 5 0 0 39 0 0 0 0 0 0 1 0 0 0 0 0 70 21 0 0 19 0 0 0 0 0 0 0 1 0 0 0 0 18 0 146 0 0 0 43 0 0 0 0 0 2 3 0 0 0 0 0 114 0 14 0 0 0 0 0 0 0 0 0 0 0 0 0 0 0 0 40 0 0 54 0 0 0 0 0 0 0 0 1 0 0 0 35 5 0 0 0 0 0 0 0 162 0 0 0 0 0 190 0 0 0 0 0 0 0 0 0 0 0 5 0 190 0 0 0 0 0 0 0 0 0 0 0 0 0 0 0 0 22 4 0 0 0 0 0 0 0 242 0 0 0 0 0 0 0 0 0 0 1 0 0 0 0 0 0 0 0 0 0 0 0 0 0 0 0 0 0 0 0 0 0 0 0 0 10 0 0 0 0 0 88 0 0 0 0 0 0 0 0 0 0 0 4 0 0 0 12 0 0 0 27 0 0 0 6 0 0 0 0 0 0 0 0 0 0 0 0 11 0 0 0 0 0 58 0 0 0 0 0 0 0 0 0 0 0 0 0 0 0 5 0 0 0 0 0 0 0 154 0 0 0 0 0 0 0 0 0 0 0 0 0 0 0 0 28 21 0 0 0 0 166 75 0 0 0 0 0 0 0 0 0 0 0 0 0 22 0 0 22 0 0 0 0 0 0 0 0 0 0 0 0 0 0 0 0 0 0 0 10 0 0 0 0 2 0 0 0 0 0 0 0 0 291 0 0 0 0 0 2 2 2 0 0 0 152 0 132 0 1 0 0 0 0 0 2 0 0 0 0 57 0 0 3 7 0 0 0 0 308 0 0 0 0 0 176 0 37 0 0 0 0 0 324 0 0 0 15 0 0 0 0 0 0 0 0 0 0 0 0 0 0 0 0 5 200 0 0 0 0 0 0 0 0 0 0 0 0 0 0 0 0 0 0 0 0 0 7 0 0 0 0 0 0 0 0 0 0 0 0 0 0 0 0 0 0 0 0 0 2 4 0 0 0 4 0 0 0 0 0 0 252 197 0 0 0 377 0 0 0 0 0 0 0 0 0 0 0 0 0 0 0 0 0 0 0 0 0 0 0 0 0 0 0 0 0 11 0 0 0 10 0 2 0 0 0 0 153 347 0 0 0 0 0 0 0 0 0 0 0 0 0 0 0 2 0 0 0 0 0 0 0 0 
Printing Sanity2
Heartbeat CPU 0 instructions: 30000003 cycles: 8816147 heartbeat IPC: 3.40056 cumulative IPC: 3.40285 (Simulation time: 0 hr 1 min 50 sec) 
*** Reached end of trace for Core: 0 Repeating trace: traces/spec2k17/srv_39.champsimtrace.xz
Heartbeat CPU 0 instructions: 40000000 cycles: 11755997 heartbeat IPC: 3.40153 cumulative IPC: 3.40252 (Simulation time: 0 hr 2 min 27 sec) 
Heartbeat CPU 0 instructions: 50000000 cycles: 14690469 heartbeat IPC: 3.40777 cumulative IPC: 3.40357 (Simulation time: 0 hr 3 min 3 sec) 

Warmup complete CPU 0 instructions: 50000004 cycles: 14690470 (Simulation time: 0 hr 3 min 3 sec) 

Heartbeat CPU 0 instructions: 60000003 cycles: 34327237 heartbeat IPC: 0.509249 cumulative IPC: 0.509249 (Simulation time: 0 hr 4 min 9 sec) 
*** Reached end of trace for Core: 0 Repeating trace: traces/spec2k17/srv_39.champsimtrace.xz
Heartbeat CPU 0 instructions: 70000000 cycles: 53909455 heartbeat IPC: 0.510667 cumulative IPC: 0.509957 (Simulation time: 0 hr 5 min 18 sec) 
Heartbeat CPU 0 instructions: 80000001 cycles: 73712647 heartbeat IPC: 0.504969 cumulative IPC: 0.508283 (Simulation time: 0 hr 6 min 28 sec) 
Heartbeat CPU 0 instructions: 90000000 cycles: 93189494 heartbeat IPC: 0.51343 cumulative IPC: 0.50956 (Simulation time: 0 hr 7 min 34 sec) 
*** Reached end of trace for Core: 0 Repeating trace: traces/spec2k17/srv_39.champsimtrace.xz
Heartbeat CPU 0 instructions: 100000000 cycles: 112701909 heartbeat IPC: 0.512494 cumulative IPC: 0.510144 (Simulation time: 0 hr 8 min 45 sec) 
Heartbeat CPU 0 instructions: 110000000 cycles: 132301863 heartbeat IPC: 0.510205 cumulative IPC: 0.510155 (Simulation time: 0 hr 9 min 51 sec) 
Heartbeat CPU 0 instructions: 120000001 cycles: 151849930 heartbeat IPC: 0.51156 cumulative IPC: 0.510355 (Simulation time: 0 hr 10 min 59 sec) 
*** Reached end of trace for Core: 0 Repeating trace: traces/spec2k17/srv_39.champsimtrace.xz
Heartbeat CPU 0 instructions: 130000000 cycles: 171338217 heartbeat IPC: 0.513129 cumulative IPC: 0.5107 (Simulation time: 0 hr 12 min 5 sec) 
Heartbeat CPU 0 instructions: 140000000 cycles: 191032002 heartbeat IPC: 0.507774 cumulative IPC: 0.510373 (Simulation time: 0 hr 13 min 13 sec) 
Heartbeat CPU 0 instructions: 150000003 cycles: 210594901 heartbeat IPC: 0.511172 cumulative IPC: 0.510453 (Simulation time: 0 hr 14 min 19 sec) 
Heartbeat CPU 0 instructions: 160000000 cycles: 230019178 heartbeat IPC: 0.51482 cumulative IPC: 0.510847 (Simulation time: 0 hr 15 min 29 sec) 
*** Reached end of trace for Core: 0 Repeating trace: traces/spec2k17/srv_39.champsimtrace.xz
Heartbeat CPU 0 instructions: 170000001 cycles: 249663123 heartbeat IPC: 0.509063 cumulative IPC: 0.510698 (Simulation time: 0 hr 16 min 35 sec) 
Heartbeat CPU 0 instructions: 180000000 cycles: 269191165 heartbeat IPC: 0.512084 cumulative IPC: 0.510804 (Simulation time: 0 hr 17 min 40 sec) 
Heartbeat CPU 0 instructions: 190000000 cycles: 288699889 heartbeat IPC: 0.512591 cumulative IPC: 0.510931 (Simulation time: 0 hr 18 min 50 sec) 
*** Reached end of trace for Core: 0 Repeating trace: traces/spec2k17/srv_39.champsimtrace.xz
Heartbeat CPU 0 instructions: 200000001 cycles: 308198679 heartbeat IPC: 0.512852 cumulative IPC: 0.511059 (Simulation time: 0 hr 20 min 0 sec) 
Heartbeat CPU 0 instructions: 210000000 cycles: 327808090 heartbeat IPC: 0.509959 cumulative IPC: 0.51099 (Simulation time: 0 hr 21 min 12 sec) 
Heartbeat CPU 0 instructions: 220000000 cycles: 347292362 heartbeat IPC: 0.513234 cumulative IPC: 0.511122 (Simulation time: 0 hr 22 min 20 sec) 
*** Reached end of trace for Core: 0 Repeating trace: traces/spec2k17/srv_39.champsimtrace.xz
Heartbeat CPU 0 instructions: 230000000 cycles: 366801860 heartbeat IPC: 0.512571 cumulative IPC: 0.511202 (Simulation time: 0 hr 23 min 27 sec) 
Heartbeat CPU 0 instructions: 240000001 cycles: 386340718 heartbeat IPC: 0.511801 cumulative IPC: 0.511233 (Simulation time: 0 hr 24 min 37 sec) 
Heartbeat CPU 0 instructions: 250000000 cycles: 405832268 heartbeat IPC: 0.513043 cumulative IPC: 0.511324 (Simulation time: 0 hr 25 min 47 sec) 
Finished CPU 0 instructions: 200000000 cycles: 391141807 cumulative IPC: 0.511324 (Simulation time: 0 hr 25 min 47 sec) 

ChampSim completed all CPUs

Region of Interest Statistics

CPU 0 cumulative IPC: 0.511324 instructions: 200000000 cycles: 391141807
ITLB TOTAL     ACCESS:   33778589  HIT:   32238283  MISS:    1540306  HIT %:      95.44  MISS %:    4.56001   MPKI: 7.70153
ITLB LOAD TRANSLATION ACCESS:   33778589  HIT:   32238283  MISS:    1540306  HIT %:      95.44  MISS %:    4.56001   MPKI: 7.70153
ITLB PREFETCH  REQUESTED:          0  ISSUED:          0  USEFUL:          0  USELESS:          0
ITLB USEFUL LOAD PREFETCHES:          0 PREFETCH ISSUED TO LOWER LEVEL:          0  ACCURACY: -nan
ITLB TIMELY PREFETCHES:          0 LATE PREFETCHES: 0 DROPPED PREFETCHES: 0
ITLB PREFETCHES SAME FILL-ORIGIN LEVEL: 0 DIFFERENT FILL-ORIGIN LEVEL: 0
ITLB AVERAGE MISS LATENCY: 9.21344 cycles
ITLB RQ	ACCESS:   40667420	FORWARD:          0	MERGED:    6393914	TO_CACHE:   34273506

DTLB TOTAL     ACCESS:   40076919  HIT:   38559755  MISS:    1517164  HIT %:    96.2144  MISS %:    3.78563   MPKI: 7.58582
DTLB LOAD TRANSLATION ACCESS:   40076919  HIT:   38559755  MISS:    1517164  HIT %:    96.2144  MISS %:    3.78563   MPKI: 7.58582
DTLB PREFETCH  REQUESTED:          0  ISSUED:          0  USEFUL:          0  USELESS:          0
DTLB USEFUL LOAD PREFETCHES:          0 PREFETCH ISSUED TO LOWER LEVEL:          0  ACCURACY: -nan
DTLB TIMELY PREFETCHES:          0 LATE PREFETCHES: 0 DROPPED PREFETCHES: 0
DTLB PREFETCHES SAME FILL-ORIGIN LEVEL: 0 DIFFERENT FILL-ORIGIN LEVEL: 0
DTLB AVERAGE MISS LATENCY: 14.2036 cycles
DTLB RQ	ACCESS:   61181773	FORWARD:          0	MERGED:   20711767	TO_CACHE:   40470006

STLB TOTAL     ACCESS:    3769782  HIT:    3691440  MISS:      78342  HIT %:    97.9218  MISS %:    2.07816   MPKI: 0.39171
STLB LOAD TRANSLATION ACCESS:    3057470  HIT:    2979978  MISS:      77492  HIT %:    97.4655  MISS %:    2.53451   MPKI: 0.38746
STLB TRANSLATION FROM L1D PREFETCHER ACCESS:     712312  HIT:     711462  MISS:        850  HIT %:    99.8807  MISS %:    0.11933   MPKI: 0.00425
STLB PREFETCH  REQUESTED:          0  ISSUED:          0  USEFUL:        731  USELESS:        121
STLB USEFUL LOAD PREFETCHES:        731 PREFETCH ISSUED TO LOWER LEVEL:          0  ACCURACY: inf
STLB TIMELY PREFETCHES:        731 LATE PREFETCHES: 319 DROPPED PREFETCHES: 1730
STLB PREFETCHES SAME FILL-ORIGIN LEVEL: 0 DIFFERENT FILL-ORIGIN LEVEL: 0
STLB AVERAGE MISS LATENCY: 372706 cycles
STLB RQ	ACCESS:    3987645	FORWARD:          0	MERGED:     215430	TO_CACHE:    3772215

STLB Hit, L1D data hit: 0
STLB Hit, L2C data hit: 0
STLB Hit, LLC data hit: 0
STLB Hit, LLC data miss: 0
STLB STLB hints to L2: 0
L1D TOTAL     ACCESS:   49910563  HIT:   42781462  MISS:    7129101  HIT %:    85.7162  MISS %:    14.2838   MPKI: 35.6455
L1D LOAD      ACCESS:   26763110  HIT:   23842609  MISS:    2920501  HIT %:    89.0876  MISS %:    10.9124   MPKI: 14.6025
L1D RFO       ACCESS:   22533482  HIT:   18848320  MISS:    3685162  HIT %:    83.6458  MISS %:    16.3542   MPKI: 18.4258
L1D PREFETCH  ACCESS:     613971  HIT:      90533  MISS:     523438  HIT %:    14.7455  MISS %:    85.2545   MPKI: 2.61719
AGUS PREFETCH L1 MISS: 0
L1D PREFETCH  REQUESTED:    1908672  ISSUED:    1908639  USEFUL:     184074  USELESS:     339485
L1D USEFUL LOAD PREFETCHES:     184074 PREFETCH ISSUED TO LOWER LEVEL:     652281  ACCURACY: 28.22
L1D TIMELY PREFETCHES:     184074 LATE PREFETCHES: 126475 DROPPED PREFETCHES: 2250
L1D PREFETCHES SAME FILL-ORIGIN LEVEL: 652281 DIFFERENT FILL-ORIGIN LEVEL: 0
L1D AVERAGE MISS LATENCY: 3.91176e+06 cycles
L1D RQ	ACCESS:   45356910	FORWARD:          0	MERGED:   17871029	TO_CACHE:   27205911
L1D WQ	ACCESS:   34178909	FORWARD:     279970	MERGED:     203047	TO_CACHE:   33975862
L1D PQ	ACCESS:     978464	FORWARD:          0	MERGED:      48289	TO_CACHE:     930175

L1D UNIQUE REGIONS ACCESSED: 0
L1D REGIONS CONFLICTS: 0
L1D Cross Page Prefetch Requests: 1082512
L1D Same Page Prefetch Requests: 0
L1D ROI Sum of L1D PQ occupancy: 13370027
L1D PREFETCHES PUSHED FROM L2C: 0
L1I TOTAL     ACCESS:   38007800  HIT:   28902791  MISS:    9105009  HIT %:    76.0444  MISS %:    23.9556   MPKI: 45.525
L1I LOAD      ACCESS:   38007800  HIT:   28902791  MISS:    9105009  HIT %:    76.0444  MISS %:    23.9556   MPKI: 45.525
L1I PREFETCH  REQUESTED:          0  ISSUED:          0  USEFUL:          0  USELESS:          0
L1I USEFUL LOAD PREFETCHES:          0 PREFETCH ISSUED TO LOWER LEVEL:          0  ACCURACY: -nan
L1I TIMELY PREFETCHES:          0 LATE PREFETCHES: 0 DROPPED PREFETCHES: 0
L1I PREFETCHES SAME FILL-ORIGIN LEVEL: 0 DIFFERENT FILL-ORIGIN LEVEL: 0
L1I AVERAGE MISS LATENCY: 16.5934 cycles
L1I RQ	ACCESS:   59005898	FORWARD:          0	MERGED:   18338478	TO_CACHE:   40667420

BTB TOTAL     ACCESS:   25656442  HIT:   24104580  MISS:    1551862  HIT %:    93.9514  MISS %:    6.04863   MPKI: 7.75931
BTB BRANCH_DIRECT_JUMP	ACCESS:    1660636  HIT:    1651091  MISS:       9545
BTB BRANCH_INDIRECT	ACCESS:   10006677  HIT:    9485915  MISS:     520762
BTB BRANCH_CONDITIONAL	ACCESS:    7142248  HIT:    7128880  MISS:      13368
BTB BRANCH_DIRECT_CALL	ACCESS:    2826795  HIT:    2793470  MISS:      33325
BTB BRANCH_INDIRECT_CALL	ACCESS:     596648  HIT:     485314  MISS:     111334
BTB BRANCH_RETURN	ACCESS:    3423438  HIT:    2559910  MISS:     863528
BTB BRANCH_OTHER ACCESS:          0  HIT:          0  MISS:          0

L2C TOTAL     ACCESS:   20672141  HIT:   13842980  MISS:    6829161  HIT %:    66.9644  MISS %:    33.0356   MPKI: 34.1458
L2C LOAD      ACCESS:   11898743  HIT:    9277449  MISS:    2621294  HIT %:      77.97  MISS %:      22.03   MPKI: 13.1065
L2C DATA LOAD MPKI: 10.2182
L2C INSTRUCTION LOAD MPKI: 2.88828
L2C RFO       ACCESS:    3682784  HIT:     165922  MISS:    3516862  HIT %:    4.50534  MISS %:    95.4947   MPKI: 17.5843
L2C PREFETCH  ACCESS:     652280  HIT:     134609  MISS:     517671  HIT %:    20.6367  MISS %:    79.3633   MPKI: 2.58835
AGUS PREFETCH L1 MISS: 0
L2C DATA PREFETCH MPKI: 2.58835
L2C INSTRUCTION PREFETCH MPKI: 0
L2C WRITEBACK ACCESS:    4348586  HIT:    4216452  MISS:     132134  HIT %:    96.9614  MISS %:    3.03855   MPKI: 0.66067
L2C LOAD TRANSLATION ACCESS:      86246  HIT:      46802  MISS:      39444  HIT %:    54.2657  MISS %:    45.7343   MPKI: 0.19722
L2C TRANSLATION FROM L1D PREFETCHER ACCESS:       3502  HIT:       1746  MISS:       1756  HIT %:    49.8572  MISS %:    50.1428   MPKI: 0.00878
L2C PREFETCH  REQUESTED:          0  ISSUED:          0  USEFUL:      21319  USELESS:     498453
L2C USEFUL LOAD PREFETCHES:      21319 PREFETCH ISSUED TO LOWER LEVEL:     517671  ACCURACY: 4.11825
L2C TIMELY PREFETCHES:      21319 LATE PREFETCHES: 0 DROPPED PREFETCHES: 0
L2C PREFETCHES SAME FILL-ORIGIN LEVEL: 0 DIFFERENT FILL-ORIGIN LEVEL: 0
L2C AVERAGE MISS LATENCY: 153.605 cycles
L2C RQ	ACCESS:   15671576	FORWARD:          0	MERGED:          0	TO_CACHE:   15671275
L2C WQ	ACCESS:    4348586	FORWARD:        302	MERGED:          0	TO_CACHE:    4348586
L2C PQ	ACCESS:     652281	FORWARD:          0	MERGED:          0	TO_CACHE:     652280

L2C Instructions Evicting Data 527300
L2C Translations Evicting Data 38207
L2C Data Evicting Data 5526199
L2C Instructions Evicting Instructions 47480
L2C Translations Evicting Instructions 2802
L2C Data Evicting Instructions 514432
L2C Instructions Evicting Translations 2876
L2C Translations Evicting Translations 191
L2C Data Evicting Translations 37540
L2C Dense regions hint from L2: 0
PSCL5 TOTAL     ACCESS:      80072  HIT:      80072  MISS:          0  HIT %:        100  MISS %:          0   MPKI: 0
PSCL5 LOAD TRANSLATION ACCESS:      77173  HIT:      77173  MISS:          0  HIT %:        100  MISS %:          0   MPKI: 0
PSCL5 TRANSLATION FROM L1D PREFETCHER ACCESS:       2899  HIT:       2899  MISS:          0  HIT %:        100  MISS %:          0   MPKI: 0
PSCL5 PREFETCH  REQUESTED:          0  ISSUED:          0  USEFUL:          0  USELESS:          0
PSCL5 USEFUL LOAD PREFETCHES:          0 PREFETCH ISSUED TO LOWER LEVEL:          0  ACCURACY: -nan
PSCL5 TIMELY PREFETCHES:          0 LATE PREFETCHES: 0 DROPPED PREFETCHES: 0
PSCL5 PREFETCHES SAME FILL-ORIGIN LEVEL: 0 DIFFERENT FILL-ORIGIN LEVEL: 0

PSCL4 TOTAL     ACCESS:      75990  HIT:      75787  MISS:        203  HIT %:    99.7329  MISS %:    0.26714   MPKI: 0.001015
PSCL4 LOAD TRANSLATION ACCESS:      73355  HIT:      73152  MISS:        203  HIT %:    99.7233  MISS %:   0.276736   MPKI: 0.001015
PSCL4 TRANSLATION FROM L1D PREFETCHER ACCESS:       2635  HIT:       2635  MISS:          0  HIT %:        100  MISS %:          0   MPKI: 0
PSCL4 PREFETCH  REQUESTED:          0  ISSUED:          0  USEFUL:          0  USELESS:          0
PSCL4 USEFUL LOAD PREFETCHES:          0 PREFETCH ISSUED TO LOWER LEVEL:          0  ACCURACY: -nan
PSCL4 TIMELY PREFETCHES:          0 LATE PREFETCHES: 0 DROPPED PREFETCHES: 0
PSCL4 PREFETCHES SAME FILL-ORIGIN LEVEL: 0 DIFFERENT FILL-ORIGIN LEVEL: 0

PSCL3 TOTAL     ACCESS:      79994  HIT:      79791  MISS:        203  HIT %:    99.7462  MISS %:   0.253769   MPKI: 0.001015
PSCL3 LOAD TRANSLATION ACCESS:      77095  HIT:      76892  MISS:        203  HIT %:    99.7367  MISS %:   0.263311   MPKI: 0.001015
PSCL3 TRANSLATION FROM L1D PREFETCHER ACCESS:       2899  HIT:       2899  MISS:          0  HIT %:        100  MISS %:          0   MPKI: 0
PSCL3 PREFETCH  REQUESTED:          0  ISSUED:          0  USEFUL:          0  USELESS:          0
PSCL3 USEFUL LOAD PREFETCHES:          0 PREFETCH ISSUED TO LOWER LEVEL:          0  ACCURACY: -nan
PSCL3 TIMELY PREFETCHES:          0 LATE PREFETCHES: 0 DROPPED PREFETCHES: 0
PSCL3 PREFETCHES SAME FILL-ORIGIN LEVEL: 0 DIFFERENT FILL-ORIGIN LEVEL: 0

PSCL2 TOTAL     ACCESS:      79518  HIT:      70802  MISS:       8716  HIT %:     89.039  MISS %:     10.961   MPKI: 0.04358
PSCL2 LOAD TRANSLATION ACCESS:      77222  HIT:      68506  MISS:       8716  HIT %:    88.7131  MISS %:    11.2869   MPKI: 0.04358
PSCL2 TRANSLATION FROM L1D PREFETCHER ACCESS:       2296  HIT:       2296  MISS:          0  HIT %:        100  MISS %:          0   MPKI: 0
PSCL2 PREFETCH  REQUESTED:          0  ISSUED:          0  USEFUL:          0  USELESS:          0
PSCL2 USEFUL LOAD PREFETCHES:          0 PREFETCH ISSUED TO LOWER LEVEL:          0  ACCURACY: -nan
PSCL2 TIMELY PREFETCHES:          0 LATE PREFETCHES: 0 DROPPED PREFETCHES: 0
PSCL2 PREFETCHES SAME FILL-ORIGIN LEVEL: 0 DIFFERENT FILL-ORIGIN LEVEL: 0

LLC TOTAL     ACCESS:   10722410  HIT:    4377154  MISS:    6345256  HIT %:    40.8225  MISS %:    59.1775   MPKI: 31.7263
LLC LOAD      ACCESS:    2621292  HIT:    1559105  MISS:    1062187  HIT %:    59.4785  MISS %:    40.5215   MPKI: 5.31093
LLC RFO       ACCESS:    3516850  HIT:     989770  MISS:    2527080  HIT %:    28.1437  MISS %:    71.8563   MPKI: 12.6354
LLC PREFETCH  ACCESS:     517671  HIT:     241717  MISS:     275954  HIT %:    46.6932  MISS %:    53.3068   MPKI: 1.37977
AGUS PREFETCH L1 MISS: 0
LLC WRITEBACK ACCESS:    4025397  HIT:    1569666  MISS:    2455731  HIT %:    38.9941  MISS %:    61.0059   MPKI: 12.2787
LLC LOAD TRANSLATION ACCESS:      39444  HIT:      15613  MISS:      23831  HIT %:    39.5827  MISS %:    60.4173   MPKI: 0.119155
LLC TRANSLATION FROM L1D PREFETCHER ACCESS:       1756  HIT:       1283  MISS:        473  HIT %:    73.0638  MISS %:    26.9362   MPKI: 0.002365
LLC PREFETCH  REQUESTED:          0  ISSUED:          0  USEFUL:        770  USELESS:     275876
LLC USEFUL LOAD PREFETCHES:        770 PREFETCH ISSUED TO LOWER LEVEL:     275954  ACCURACY: 0.279032
LLC TIMELY PREFETCHES:        770 LATE PREFETCHES: 0 DROPPED PREFETCHES: 0
LLC PREFETCHES SAME FILL-ORIGIN LEVEL: 0 DIFFERENT FILL-ORIGIN LEVEL: 0
LLC AVERAGE MISS LATENCY: 133.654 cycles
LLC RQ	ACCESS:    6179356	FORWARD:          0	MERGED:          0	TO_CACHE:    6179342
LLC WQ	ACCESS:    4025397	FORWARD:         14	MERGED:          0	TO_CACHE:    4025397
LLC PQ	ACCESS:     517671	FORWARD:          0	MERGED:          0	TO_CACHE:     517671

LLC Dense regions hint to LLC: 0

RAW hits: 2426311
Loads Generated: 47783216
Loads sent to L1D: 45356910
Stores Generated: 34178908
Stores sent to L1D: 34178909
Major fault: 0 Minor fault: 8494
Allocated PAGES: 8494
CPU 0 L1D 
Prefetch count 1818256 BOP and RL 

DRAM Statistics
 CHANNEL 0
 RQ ROW_BUFFER_HIT:    1831429  ROW_BUFFER_MISS:    2057724
 DBUS_CONGESTED:       2139
 WQ ROW_BUFFER_HIT:     560291  ROW_BUFFER_MISS:    2032814  FULL:      52556

 AVG_CONGESTED_CYCLE: 3
 All warmup complete: 2
Channel 0 Bank busy for read cycles: 0
Channel 0 Bank busy for write cycles: 0
Channel 0
Rank 0
0banks busy for read cycles: 171611934
0banks busy for write cycles: 254657
1banks busy for read cycles: 34294500
1banks busy for write cycles: 34115301
2banks busy for read cycles: 15524456
2banks busy for write cycles: 13761353
3banks busy for read cycles: 16718694
3banks busy for write cycles: 6671688
4banks busy for read cycles: 8394261
4banks busy for write cycles: 4430874
5banks busy for read cycles: 5554735
5banks busy for write cycles: 3581539
6banks busy for read cycles: 9783518
6banks busy for write cycles: 3483791
7banks busy for read cycles: 5424177
7banks busy for write cycles: 6024921
8banks busy for read cycles: 16622961
8banks busy for write cycles: 34888448

CPU 0 Branch Prediction Accuracy: 99.9484% MPKI: 0.078705 Average ROB Occupancy at Mispredict: 126.135
Branch types
NOT_BRANCH: 169466867 84.7334%
BRANCH_DIRECT_JUMP: 1660636 0.830318%
BRANCH_INDIRECT: 10006677 5.00334%
BRANCH_CONDITIONAL: 12018715 6.00936%
BRANCH_DIRECT_CALL: 2826795 1.4134%
BRANCH_INDIRECT_CALL: 596648 0.298324%
BRANCH_RETURN: 3423438 1.71172%
BRANCH_OTHER: 0 0%

DRAM PAGES: 1048576
Allocated PAGES: 8494
