
*** ChampSim Multicore Out-of-Order Simulator ***

Warmup Instructions: 50000000
Simulation Instructions: 200000000
Number of CPUs: 1
LLC sets: 2048
LLC ways: 16
Off-chip DRAM Size: 4096 MB Channels: 1 Width: 64-bit Data Rate: 6400 MT/s
CPU 0 runs traces/spec2k17/srv_13.champsimtrace.xz
.xz
BTB has LRU replacement policy
ITLB has LRU replacement policy
DTLB has LRU replacement policy
STLB has LRU replacement policy
L1I has LRU replacement policy
CPU 0 l1d next line prefetcher
L1D has LRU replacement policy
Initialize SRRIP state for L2C
Initialize DRRIP state for LLC
Offsets elements: 
Potential of Offsets elements: 
rewards of Offsets elements: 
Printing Sanity1
offset list size1564
Heartbeat CPU 0 instructions: 10000002 cycles: 2807126 heartbeat IPC: 3.56236 cumulative IPC: 3.56236 (Simulation time: 0 hr 0 min 34 sec) 
Heartbeat CPU 0 instructions: 20000000 cycles: 5611176 heartbeat IPC: 3.56627 cumulative IPC: 3.56432 (Simulation time: 0 hr 1 min 8 sec) 
Heartbeat CPU 0 instructions: 30000003 cycles: 8417597 heartbeat IPC: 3.56326 cumulative IPC: 3.56396 (Simulation time: 0 hr 1 min 42 sec) 
*** Reached end of trace for Core: 0 Repeating trace: traces/spec2k17/srv_13.champsimtrace.xz
Heartbeat CPU 0 instructions: 40000001 cycles: 11215920 heartbeat IPC: 3.57357 cumulative IPC: 3.56636 (Simulation time: 0 hr 2 min 17 sec) 
Heartbeat CPU 0 instructions: 50000003 cycles: 14020951 heartbeat IPC: 3.56502 cumulative IPC: 3.56609 (Simulation time: 0 hr 2 min 51 sec) 

Warmup complete CPU 0 instructions: 50000003 cycles: 14020951 (Simulation time: 0 hr 2 min 51 sec) 

Offsets elements: 
Potential of Offsets elements: 
rewards of Offsets elements: 0 0 0 0 0 0 0 0 0 1 0 0 246 0 0 0 0 0 0 0 0 0 1 7 2 0 0 0 0 2 0 0 0 0 1 3 0 0 0 0 0 0 1 0 0 0 0 0 138 0 0 0 0 0 0 0 0 0 1 0 33 5 106 0 3 1 0 0 0 0 0 43 0 0 0 1 1 0 1 0 0 0 0 0 0 14 0 0 0 4 0 270 1 0 0 0 0 0 0 0 0 7 0 8 2 0 0 3 0 7 279 2 95 1 0 1 0 2 0 0 0 0 0 0 0 0 47 300 44 3 2 0 0 0 0 0 0 0 0 0 1 0 3 2 2 201 0 0 247 0 0 138 0 1 6 3 0 3 0 0 1 0 0 2 5 0 0 0 0 0 0 1 0 1 0 0 3 0 0 0 0 0 276 0 2 0 0 1 2 0 0 0 4 0 0 570 244 97 0 1 0 0 1 0 0 33 0 0 2 0 3 2 0 0 0 0 0 26 1 0 0 0 0 0 3 10 0 0 0 98 1 0 4 0 0 0 0 1 1 0 70 0 0 0 0 2 0 0 6 1 1 0 0 0 0 0 1 0 0 0 0 0 2 6 0 1 0 0 7 1 2 4 1 14 68 2 0 0 0 0 0 1 4 0 0 0 0 0 0 0 0 1 0 0 0 1 0 1 3 0 0 1 0 0 0 0 0 2 1 0 0 208 0 1 0 1 0 0 1 0 3 0 1 0 0 1 1 4 42 268 0 0 18 18 258 55 0 0 0 2 0 0 0 1 6 1 0 2 0 0 0 0 0 0 0 0 0 0 68 0 34 0 0 0 0 3 0 0 0 0 19 5 0 1 1 0 0 0 0 3 0 0 0 1 1 0 0 0 0 0 6 0 0 1 1 0 3 1 0 0 0 263 0 2 0 4 0 0 0 3 1 0 0 1 0 1 1 0 1 0 0 0 0 0 0 0 0 0 0 0 0 2 0 3 2 0 0 1 0 117 1 2 0 1 0 0 0 0 0 0 0 0 0 2 0 0 0 0 0 0 0 0 0 1 104 0 0 1 0 4 0 1 0 0 1 2 0 0 3 0 0 2 0 0 0 0 0 0 0 0 1 0 0 0 0 0 0 1 4 0 1 0 1 4 0 0 0 3 1 1 0 2 1 0 2 3 2 0 0 0 45 189 6 0 2 3 0 1 0 0 0 4 0 0 0 1 0 0 0 0 0 0 1 0 0 0 3 0 0 0 0 0 2 0 2 4 0 0 0 0 0 0 0 0 0 2 0 5 0 0 0 1 0 1 0 1 0 3 2 0 0 4 1 0 0 0 0 0 1 0 0 0 0 0 0 0 0 0 3 0 0 0 0 0 4 0 0 0 0 0 0 0 0 0 0 0 0 0 0 0 0 0 1 0 0 0 0 0 0 0 0 0 1 0 0 0 0 0 0 0 0 1 0 0 5 2 1 0 0 0 0 0 0 0 0 0 0 0 0 0 0 0 0 2 1 0 0 0 0 0 0 0 0 0 0 0 0 6 0 0 0 0 0 0 0 0 0 0 10 0 0 2 1 0 1 0 0 0 0 0 0 0 1 1 0 4 0 0 0 0 0 0 0 0 0 1 0 0 0 0 0 0 1 0 0 0 0 0 2 80 2 5 0 0 0 0 0 2 0 0 0 0 3 0 2 0 0 0 0 0 1 4 0 2 0 1 0 1 1 0 1 0 1 0 0 0 0 1 0 0 0 1 0 0 0 30 0 0 0 0 5 3 1 0 0 0 0 0 0 5 1 1 1 1 3 0 0 2 4 4 1 1 2 2 0 1 0 0 0 0 0 0 1 0 1 0 0 1 1 2 0 1 0 0 0 0 0 3 0 0 0 0 0 2 0 0 5 3 0 0 0 0 0 0 0 0 0 0 2 19 0 0 2 1 0 0 1 2 0 3 5 1 1 1 0 0 0 0 2 3 0 0 0 0 1 1 0 0 64 0 0 0 0 0 0 0 0 0 0 0 1 2 0 1 6 0 0 0 2 5 1 0 0 0 0 1 0 0 0 0 0 5 0 0 0 4 1 0 0 0 0 0 0 0 0 0 0 0 0 0 92 0 0 0 0 1 1 0 0 0 0 0 0 3 3 2 0 0 0 0 0 1 0 0 0 0 3 0 0 0 0 0 0 17 0 0 0 0 2 0 1 1 2 3 4 0 1 1 0 0 1 2 0 0 15 0 0 3 0 0 0 0 0 0 0 0 0 3 0 0 1 0 0 0 1 0 1 2 0 1 0 0 1 0 0 0 0 0 0 0 3 5 2 0 0 0 0 0 2 0 0 0 0 1 0 0 0 1 0 0 0 0 0 0 2 0 2 8 1 239 2 0 0 0 0 0 0 0 0 0 0 0 0 0 76 39 0 0 1 0 1 0 0 0 0 0 0 0 0 0 1 2 0 0 0 0 0 0 0 0 0 0 0 0 2 0 0 6 0 0 0 2 0 1 219 0 0 0 0 1 3 0 0 0 1 1 0 1 0 0 0 0 2 0 0 2 1 0 0 0 0 0 0 0 0 0 0 3 0 0 187 0 0 0 1 0 4 0 0 0 0 1 0 2 0 0 0 0 20 0 2 0 0 0 2 0 1 1 0 0 0 0 4 2 0 2 2 2 0 0 2 0 0 0 0 0 0 42 212 0 0 0 0 2 0 1 0 0 7 0 0 2 0 1 2 1 1 1 132 3 0 0 0 0 0 0 2 0 2 0 1 2 0 0 0 0 0 0 1 0 3 1 1 1 0 0 0 2 0 37 0 0 0 47 0 1 0 2 0 3 0 0 1 0 0 0 0 0 0 0 0 0 0 0 0 0 2 0 0 0 0 0 1 1 1 1 0 1 0 1 1 0 0 0 4 1 0 0 0 3 0 2 0 0 0 3 0 0 0 0 0 0 6 4 0 0 0 1 0 1 6 0 0 0 1 0 0 0 0 0 0 0 1 0 0 0 0 0 0 0 0 0 3 0 0 0 0 0 0 0 0 0 0 0 0 0 0 0 0 0 0 0 0 1 1 0 1 0 0 0 0 0 0 0 0 0 1 1 2 0 0 1 0 1 1 0 1 0 0 0 0 0 1 0 0 0 1 1 0 0 0 0 1 0 0 0 0 0 0 0 0 2 0 0 0 0 0 4 1 0 3 0 0 0 200 0 0 0 0 0 0 0 0 0 0 0 0 2 0 1 2 0 0 0 1 0 0 0 0 0 0 0 0 1 0 2 0 0 0 0 0 0 1 2 3 0 0 0 0 0 1 0 0 0 0 0 0 0 0 0 0 0 0 0 0 0 0 0 1 0 0 0 0 0 1 0 0 0 2 0 0 1 0 0 4 0 0 0 4 0 1 3 0 0 0 0 0 118 0 0 0 0 6 0 0 0 0 0 0 0 0 0 0 1 0 1 0 0 0 0 0 0 0 0 0 0 0 0 0 0 4 0 2 0 0 0 0 0 2 0 0 0 0 0 0 0 47 0 0 0 0 7 0 0 
Printing Sanity2
Heartbeat CPU 0 instructions: 60000000 cycles: 44204728 heartbeat IPC: 0.331304 cumulative IPC: 0.331304 (Simulation time: 0 hr 3 min 47 sec) 
*** Reached end of trace for Core: 0 Repeating trace: traces/spec2k17/srv_13.champsimtrace.xz
Heartbeat CPU 0 instructions: 70000001 cycles: 73223383 heartbeat IPC: 0.344606 cumulative IPC: 0.337824 (Simulation time: 0 hr 4 min 44 sec) 
Heartbeat CPU 0 instructions: 80000003 cycles: 103067718 heartbeat IPC: 0.335072 cumulative IPC: 0.336902 (Simulation time: 0 hr 5 min 40 sec) 
Heartbeat CPU 0 instructions: 90000001 cycles: 133331888 heartbeat IPC: 0.330424 cumulative IPC: 0.335258 (Simulation time: 0 hr 6 min 38 sec) 
*** Reached end of trace for Core: 0 Repeating trace: traces/spec2k17/srv_13.champsimtrace.xz
Heartbeat CPU 0 instructions: 100000000 cycles: 162587750 heartbeat IPC: 0.341812 cumulative IPC: 0.336549 (Simulation time: 0 hr 7 min 33 sec) 
Heartbeat CPU 0 instructions: 110000000 cycles: 192142477 heartbeat IPC: 0.338355 cumulative IPC: 0.336849 (Simulation time: 0 hr 8 min 29 sec) 
Heartbeat CPU 0 instructions: 120000002 cycles: 222511584 heartbeat IPC: 0.329282 cumulative IPC: 0.335746 (Simulation time: 0 hr 9 min 25 sec) 
*** Reached end of trace for Core: 0 Repeating trace: traces/spec2k17/srv_13.champsimtrace.xz
Heartbeat CPU 0 instructions: 130000001 cycles: 251643014 heartbeat IPC: 0.343272 cumulative IPC: 0.336669 (Simulation time: 0 hr 10 min 21 sec) 
Heartbeat CPU 0 instructions: 140000002 cycles: 281351960 heartbeat IPC: 0.336599 cumulative IPC: 0.336661 (Simulation time: 0 hr 11 min 17 sec) 
Heartbeat CPU 0 instructions: 150000002 cycles: 311553376 heartbeat IPC: 0.33111 cumulative IPC: 0.336098 (Simulation time: 0 hr 12 min 12 sec) 
*** Reached end of trace for Core: 0 Repeating trace: traces/spec2k17/srv_13.champsimtrace.xz
Heartbeat CPU 0 instructions: 160000002 cycles: 340677938 heartbeat IPC: 0.343353 cumulative IPC: 0.336745 (Simulation time: 0 hr 13 min 7 sec) 
Heartbeat CPU 0 instructions: 170000000 cycles: 370471961 heartbeat IPC: 0.335638 cumulative IPC: 0.336652 (Simulation time: 0 hr 14 min 5 sec) 
Heartbeat CPU 0 instructions: 180000003 cycles: 400602254 heartbeat IPC: 0.331892 cumulative IPC: 0.336281 (Simulation time: 0 hr 14 min 59 sec) 
*** Reached end of trace for Core: 0 Repeating trace: traces/spec2k17/srv_13.champsimtrace.xz
Heartbeat CPU 0 instructions: 190000000 cycles: 429880975 heartbeat IPC: 0.341545 cumulative IPC: 0.336652 (Simulation time: 0 hr 15 min 55 sec) 
Heartbeat CPU 0 instructions: 200000001 cycles: 459566647 heartbeat IPC: 0.336863 cumulative IPC: 0.336666 (Simulation time: 0 hr 16 min 51 sec) 
Heartbeat CPU 0 instructions: 210000000 cycles: 489435769 heartbeat IPC: 0.334794 cumulative IPC: 0.336548 (Simulation time: 0 hr 17 min 50 sec) 
*** Reached end of trace for Core: 0 Repeating trace: traces/spec2k17/srv_13.champsimtrace.xz
Heartbeat CPU 0 instructions: 220000000 cycles: 518957029 heartbeat IPC: 0.338739 cumulative IPC: 0.336676 (Simulation time: 0 hr 18 min 46 sec) 
Heartbeat CPU 0 instructions: 230000001 cycles: 548504067 heartbeat IPC: 0.338443 cumulative IPC: 0.336774 (Simulation time: 0 hr 19 min 40 sec) 
Heartbeat CPU 0 instructions: 240000000 cycles: 578401228 heartbeat IPC: 0.33448 cumulative IPC: 0.336652 (Simulation time: 0 hr 20 min 34 sec) 
*** Reached end of trace for Core: 0 Repeating trace: traces/spec2k17/srv_13.champsimtrace.xz
Heartbeat CPU 0 instructions: 250000000 cycles: 608278258 heartbeat IPC: 0.334705 cumulative IPC: 0.336555 (Simulation time: 0 hr 21 min 29 sec) 
Finished CPU 0 instructions: 200000003 cycles: 594257309 cumulative IPC: 0.336555 (Simulation time: 0 hr 21 min 29 sec) 

ChampSim completed all CPUs

Region of Interest Statistics

CPU 0 cumulative IPC: 0.336555 instructions: 200000003 cycles: 594257309
ITLB TOTAL     ACCESS:   34413520  HIT:   32575395  MISS:    1838125  HIT %:    94.6587  MISS %:    5.34129   MPKI: 9.19062
ITLB LOAD TRANSLATION ACCESS:   34413520  HIT:   32575395  MISS:    1838125  HIT %:    94.6587  MISS %:    5.34129   MPKI: 9.19062
ITLB PREFETCH  REQUESTED:          0  ISSUED:          0  USEFUL:          0  USELESS:          0
ITLB USEFUL LOAD PREFETCHES:          0 PREFETCH ISSUED TO LOWER LEVEL:          0  ACCURACY: -nan
ITLB TIMELY PREFETCHES:          0 LATE PREFETCHES: 0 DROPPED PREFETCHES: 0
ITLB PREFETCHES SAME FILL-ORIGIN LEVEL: 0 DIFFERENT FILL-ORIGIN LEVEL: 0
ITLB AVERAGE MISS LATENCY: 9.0392 cycles
ITLB RQ	ACCESS:   40214790	FORWARD:          0	MERGED:    5358262	TO_CACHE:   34856528

DTLB TOTAL     ACCESS:   45327340  HIT:   43533735  MISS:    1793605  HIT %:     96.043  MISS %:      3.957   MPKI: 8.96802
DTLB LOAD TRANSLATION ACCESS:   45327340  HIT:   43533735  MISS:    1793605  HIT %:     96.043  MISS %:      3.957   MPKI: 8.96802
DTLB PREFETCH  REQUESTED:          0  ISSUED:          0  USEFUL:          0  USELESS:          0
DTLB USEFUL LOAD PREFETCHES:          0 PREFETCH ISSUED TO LOWER LEVEL:          0  ACCURACY: -nan
DTLB TIMELY PREFETCHES:          0 LATE PREFETCHES: 0 DROPPED PREFETCHES: 0
DTLB PREFETCHES SAME FILL-ORIGIN LEVEL: 0 DIFFERENT FILL-ORIGIN LEVEL: 0
DTLB AVERAGE MISS LATENCY: 9.20264 cycles
DTLB RQ	ACCESS:   59713991	FORWARD:          0	MERGED:   14321373	TO_CACHE:   45392618

STLB TOTAL     ACCESS:    3715986  HIT:    3706627  MISS:       9359  HIT %:    99.7481  MISS %:   0.251858   MPKI: 0.046795
STLB LOAD TRANSLATION ACCESS:    3631730  HIT:    3622408  MISS:       9322  HIT %:    99.7433  MISS %:   0.256682   MPKI: 0.04661
STLB TRANSLATION FROM L1D PREFETCHER ACCESS:      84256  HIT:      84219  MISS:         37  HIT %:    99.9561  MISS %:  0.0439138   MPKI: 0.000185
STLB PREFETCH  REQUESTED:          0  ISSUED:          0  USEFUL:         33  USELESS:          4
STLB USEFUL LOAD PREFETCHES:         33 PREFETCH ISSUED TO LOWER LEVEL:          0  ACCURACY: inf
STLB TIMELY PREFETCHES:         33 LATE PREFETCHES: 1 DROPPED PREFETCHES: 736
STLB PREFETCHES SAME FILL-ORIGIN LEVEL: 0 DIFFERENT FILL-ORIGIN LEVEL: 0
STLB AVERAGE MISS LATENCY: 37631.6 cycles
STLB RQ	ACCESS:    3722684	FORWARD:          0	MERGED:       5856	TO_CACHE:    3716828

STLB Hit, L1D data hit: 0
STLB Hit, L2C data hit: 0
STLB Hit, LLC data hit: 0
STLB Hit, LLC data miss: 0
STLB STLB hints to L2: 0
L1D TOTAL     ACCESS:   58001782  HIT:   54109172  MISS:    3892610  HIT %:    93.2888  MISS %:    6.71119   MPKI: 19.463
L1D LOAD      ACCESS:   33445666  HIT:   30700646  MISS:    2745020  HIT %:    91.7926  MISS %:     8.2074   MPKI: 13.7251
L1D RFO       ACCESS:   24469773  HIT:   23399689  MISS:    1070084  HIT %:    95.6269  MISS %:    4.37309   MPKI: 5.35042
L1D PREFETCH  ACCESS:      86343  HIT:       8837  MISS:      77506  HIT %:    10.2348  MISS %:    89.7652   MPKI: 0.38753
AGUS PREFETCH L1 MISS: 0
L1D PREFETCH  REQUESTED:     184487  ISSUED:     184487  USEFUL:      13681  USELESS:      63825
L1D USEFUL LOAD PREFETCHES:      13681 PREFETCH ISSUED TO LOWER LEVEL:      79260  ACCURACY: 17.2609
L1D TIMELY PREFETCHES:      13681 LATE PREFETCHES: 1704 DROPPED PREFETCHES: 872
L1D PREFETCHES SAME FILL-ORIGIN LEVEL: 79260 DIFFERENT FILL-ORIGIN LEVEL: 0
L1D AVERAGE MISS LATENCY: 162600 cycles
L1D RQ	ACCESS:   46951532	FORWARD:          0	MERGED:   13079534	TO_CACHE:   33576163
L1D WQ	ACCESS:   26311887	FORWARD:     295835	MERGED:     174059	TO_CACHE:   26137828
L1D PQ	ACCESS:      93533	FORWARD:          0	MERGED:       2579	TO_CACHE:      90954

L1D UNIQUE REGIONS ACCESSED: 0
L1D REGIONS CONFLICTS: 0
L1D Cross Page Prefetch Requests: 93533
L1D Same Page Prefetch Requests: 0
L1D ROI Sum of L1D PQ occupancy: 1236290
L1D PREFETCHES PUSHED FROM L2C: 0
L1I TOTAL     ACCESS:   38813992  HIT:   29173153  MISS:    9640839  HIT %:    75.1614  MISS %:    24.8386   MPKI: 48.2042
L1I LOAD      ACCESS:   38813992  HIT:   29173153  MISS:    9640839  HIT %:    75.1614  MISS %:    24.8386   MPKI: 48.2042
L1I PREFETCH  REQUESTED:          0  ISSUED:          0  USEFUL:          0  USELESS:          0
L1I USEFUL LOAD PREFETCHES:          0 PREFETCH ISSUED TO LOWER LEVEL:          0  ACCURACY: -nan
L1I TIMELY PREFETCHES:          0 LATE PREFETCHES: 0 DROPPED PREFETCHES: 0
L1I PREFETCHES SAME FILL-ORIGIN LEVEL: 0 DIFFERENT FILL-ORIGIN LEVEL: 0
L1I AVERAGE MISS LATENCY: 16.4831 cycles
L1I RQ	ACCESS:   57777199	FORWARD:          0	MERGED:   17562409	TO_CACHE:   40214790

BTB TOTAL     ACCESS:   30281760  HIT:   18910009  MISS:   11371751  HIT %:    62.4469  MISS %:    37.5531   MPKI: 56.8588
BTB BRANCH_DIRECT_JUMP	ACCESS:    2184471  HIT:    1385849  MISS:     798622
BTB BRANCH_INDIRECT	ACCESS:   11367631  HIT:    7108083  MISS:    4259548
BTB BRANCH_CONDITIONAL	ACCESS:    8713184  HIT:    7563917  MISS:    1149267
BTB BRANCH_DIRECT_CALL	ACCESS:    3386061  HIT:    1522950  MISS:    1863111
BTB BRANCH_INDIRECT_CALL	ACCESS:     622186  HIT:     244573  MISS:     377613
BTB BRANCH_RETURN	ACCESS:    4008227  HIT:    1084637  MISS:    2923590
BTB BRANCH_OTHER ACCESS:          0  HIT:          0  MISS:          0

L2C TOTAL     ACCESS:   15338999  HIT:   13859781  MISS:    1479218  HIT %:    90.3565  MISS %:    9.64351   MPKI: 7.39609
L2C LOAD      ACCESS:   12384115  HIT:   11211777  MISS:    1172338  HIT %:    90.5335  MISS %:    9.46647   MPKI: 5.86169
L2C DATA LOAD MPKI: 2.01317
L2C INSTRUCTION LOAD MPKI: 3.84851
L2C RFO       ACCESS:    1070029  HIT:     857404  MISS:     212625  HIT %:     80.129  MISS %:     19.871   MPKI: 1.06312
L2C PREFETCH  ACCESS:      79260  HIT:      42534  MISS:      36726  HIT %:    53.6639  MISS %:    46.3361   MPKI: 0.18363
AGUS PREFETCH L1 MISS: 0
L2C DATA PREFETCH MPKI: 0.18363
L2C INSTRUCTION PREFETCH MPKI: 0
L2C WRITEBACK ACCESS:    1794196  HIT:    1744075  MISS:      50121  HIT %:    97.2065  MISS %:    2.79351   MPKI: 0.250605
L2C LOAD TRANSLATION ACCESS:      10279  HIT:       3468  MISS:       6811  HIT %:    33.7387  MISS %:    66.2613   MPKI: 0.034055
L2C TRANSLATION FROM L1D PREFETCHER ACCESS:       1120  HIT:        523  MISS:        597  HIT %:    46.6964  MISS %:    53.3036   MPKI: 0.002985
L2C PREFETCH  REQUESTED:          0  ISSUED:          0  USEFUL:       1490  USELESS:      35691
L2C USEFUL LOAD PREFETCHES:       1490 PREFETCH ISSUED TO LOWER LEVEL:      36726  ACCURACY: 4.05707
L2C TIMELY PREFETCHES:       1490 LATE PREFETCHES: 0 DROPPED PREFETCHES: 0
L2C PREFETCHES SAME FILL-ORIGIN LEVEL: 0 DIFFERENT FILL-ORIGIN LEVEL: 0
L2C AVERAGE MISS LATENCY: 33.2247 cycles
L2C RQ	ACCESS:   13465590	FORWARD:          0	MERGED:          0	TO_CACHE:   13465545
L2C WQ	ACCESS:    1794196	FORWARD:         45	MERGED:          0	TO_CACHE:    1794196
L2C PQ	ACCESS:      79260	FORWARD:          0	MERGED:          0	TO_CACHE:      79260

L2C Instructions Evicting Data 316538
L2C Translations Evicting Data 5381
L2C Data Evicting Data 358407
L2C Instructions Evicting Instructions 451367
L2C Translations Evicting Instructions 1892
L2C Data Evicting Instructions 288277
L2C Instructions Evicting Translations 1798
L2C Translations Evicting Translations 135
L2C Data Evicting Translations 5302
L2C Dense regions hint from L2: 0
PSCL5 TOTAL     ACCESS:      10095  HIT:      10095  MISS:          0  HIT %:        100  MISS %:          0   MPKI: 0
PSCL5 LOAD TRANSLATION ACCESS:       9321  HIT:       9321  MISS:          0  HIT %:        100  MISS %:          0   MPKI: 0
PSCL5 TRANSLATION FROM L1D PREFETCHER ACCESS:        774  HIT:        774  MISS:          0  HIT %:        100  MISS %:          0   MPKI: 0
PSCL5 PREFETCH  REQUESTED:          0  ISSUED:          0  USEFUL:          0  USELESS:          0
PSCL5 USEFUL LOAD PREFETCHES:          0 PREFETCH ISSUED TO LOWER LEVEL:          0  ACCURACY: -nan
PSCL5 TIMELY PREFETCHES:          0 LATE PREFETCHES: 0 DROPPED PREFETCHES: 0
PSCL5 PREFETCHES SAME FILL-ORIGIN LEVEL: 0 DIFFERENT FILL-ORIGIN LEVEL: 0

PSCL4 TOTAL     ACCESS:       9285  HIT:       9254  MISS:         31  HIT %:    99.6661  MISS %:   0.333872   MPKI: 0.000155
PSCL4 LOAD TRANSLATION ACCESS:       8707  HIT:       8676  MISS:         31  HIT %:     99.644  MISS %:   0.356035   MPKI: 0.000155
PSCL4 TRANSLATION FROM L1D PREFETCHER ACCESS:        578  HIT:        578  MISS:          0  HIT %:        100  MISS %:          0   MPKI: 0
PSCL4 PREFETCH  REQUESTED:          0  ISSUED:          0  USEFUL:          0  USELESS:          0
PSCL4 USEFUL LOAD PREFETCHES:          0 PREFETCH ISSUED TO LOWER LEVEL:          0  ACCURACY: -nan
PSCL4 TIMELY PREFETCHES:          0 LATE PREFETCHES: 0 DROPPED PREFETCHES: 0
PSCL4 PREFETCHES SAME FILL-ORIGIN LEVEL: 0 DIFFERENT FILL-ORIGIN LEVEL: 0

PSCL3 TOTAL     ACCESS:       9985  HIT:       9954  MISS:         31  HIT %:    99.6895  MISS %:   0.310466   MPKI: 0.000155
PSCL3 LOAD TRANSLATION ACCESS:       9238  HIT:       9207  MISS:         31  HIT %:    99.6644  MISS %:    0.33557   MPKI: 0.000155
PSCL3 TRANSLATION FROM L1D PREFETCHER ACCESS:        747  HIT:        747  MISS:          0  HIT %:        100  MISS %:          0   MPKI: 0
PSCL3 PREFETCH  REQUESTED:          0  ISSUED:          0  USEFUL:          0  USELESS:          0
PSCL3 USEFUL LOAD PREFETCHES:          0 PREFETCH ISSUED TO LOWER LEVEL:          0  ACCURACY: -nan
PSCL3 TIMELY PREFETCHES:          0 LATE PREFETCHES: 0 DROPPED PREFETCHES: 0
PSCL3 PREFETCHES SAME FILL-ORIGIN LEVEL: 0 DIFFERENT FILL-ORIGIN LEVEL: 0

PSCL2 TOTAL     ACCESS:       9783  HIT:       8887  MISS:        896  HIT %:    90.8413  MISS %:    9.15874   MPKI: 0.00448
PSCL2 LOAD TRANSLATION ACCESS:       9321  HIT:       8425  MISS:        896  HIT %:    90.3873  MISS %:     9.6127   MPKI: 0.00448
PSCL2 TRANSLATION FROM L1D PREFETCHER ACCESS:        462  HIT:        462  MISS:          0  HIT %:        100  MISS %:          0   MPKI: 0
PSCL2 PREFETCH  REQUESTED:          0  ISSUED:          0  USEFUL:          0  USELESS:          0
PSCL2 USEFUL LOAD PREFETCHES:          0 PREFETCH ISSUED TO LOWER LEVEL:          0  ACCURACY: -nan
PSCL2 TIMELY PREFETCHES:          0 LATE PREFETCHES: 0 DROPPED PREFETCHES: 0
PSCL2 PREFETCHES SAME FILL-ORIGIN LEVEL: 0 DIFFERENT FILL-ORIGIN LEVEL: 0

LLC TOTAL     ACCESS:    1718871  HIT:    1676134  MISS:      42737  HIT %:    97.5137  MISS %:    2.48634   MPKI: 0.213685
LLC LOAD      ACCESS:    1172336  HIT:    1151141  MISS:      21195  HIT %:    98.1921  MISS %:    1.80793   MPKI: 0.105975
LLC RFO       ACCESS:     212625  HIT:     194016  MISS:      18609  HIT %:     91.248  MISS %:    8.75203   MPKI: 0.093045
LLC PREFETCH  ACCESS:      36726  HIT:      34078  MISS:       2648  HIT %:    92.7898  MISS %:    7.21015   MPKI: 0.01324
AGUS PREFETCH L1 MISS: 0
LLC WRITEBACK ACCESS:     289776  HIT:     289624  MISS:        152  HIT %:    99.9475  MISS %:  0.0524543   MPKI: 0.00076
LLC LOAD TRANSLATION ACCESS:       6811  HIT:       6706  MISS:        105  HIT %:    98.4584  MISS %:    1.54162   MPKI: 0.000525
LLC TRANSLATION FROM L1D PREFETCHER ACCESS:        597  HIT:        569  MISS:         28  HIT %:    95.3099  MISS %:    4.69012   MPKI: 0.00014
LLC PREFETCH  REQUESTED:          0  ISSUED:          0  USEFUL:         91  USELESS:        963
LLC USEFUL LOAD PREFETCHES:         91 PREFETCH ISSUED TO LOWER LEVEL:       2648  ACCURACY: 3.43656
LLC TIMELY PREFETCHES:         91 LATE PREFETCHES: 0 DROPPED PREFETCHES: 0
LLC PREFETCHES SAME FILL-ORIGIN LEVEL: 0 DIFFERENT FILL-ORIGIN LEVEL: 0
LLC AVERAGE MISS LATENCY: 146.779 cycles
LLC RQ	ACCESS:    1392371	FORWARD:          0	MERGED:          0	TO_CACHE:    1392369
LLC WQ	ACCESS:     289776	FORWARD:          2	MERGED:          0	TO_CACHE:     289776
LLC PQ	ACCESS:      36726	FORWARD:          0	MERGED:          0	TO_CACHE:      36726

LLC Dense regions hint to LLC: 0

RAW hits: 1390833
Loads Generated: 48342365
Loads sent to L1D: 46951532
Stores Generated: 26311868
Stores sent to L1D: 26311887
Major fault: 0 Minor fault: 1910
Allocated PAGES: 1910
CPU 0 L1D 
Prefetch count 172793 BOP and RL 

DRAM Statistics
 CHANNEL 0
 RQ ROW_BUFFER_HIT:      12696  ROW_BUFFER_MISS:      29862
 DBUS_CONGESTED:         84
 WQ ROW_BUFFER_HIT:       2642  ROW_BUFFER_MISS:      18907  FULL:          0

 AVG_CONGESTED_CYCLE: 5
 All warmup complete: 2
Channel 0 Bank busy for read cycles: 0
Channel 0 Bank busy for write cycles: 0
Channel 0
Rank 0
0banks busy for read cycles: 590078350
0banks busy for write cycles: 6950
1banks busy for read cycles: 1653781
1banks busy for write cycles: 849390
2banks busy for read cycles: 406524
2banks busy for write cycles: 189102
3banks busy for read cycles: 231396
3banks busy for write cycles: 111430
4banks busy for read cycles: 144122
4banks busy for write cycles: 84159
5banks busy for read cycles: 98450
5banks busy for write cycles: 58270
6banks busy for read cycles: 71092
6banks busy for write cycles: 47163
7banks busy for read cycles: 35262
7banks busy for write cycles: 59025
8banks busy for read cycles: 26739
8banks busy for write cycles: 106105

CPU 0 Branch Prediction Accuracy: 99.8429% MPKI: 0.27698 Average ROB Occupancy at Mispredict: 53.0469
Branch types
NOT_BRANCH: 164736751 82.3684%
BRANCH_DIRECT_JUMP: 2184471 1.09224%
BRANCH_INDIRECT: 11367631 5.68382%
BRANCH_CONDITIONAL: 13694607 6.8473%
BRANCH_DIRECT_CALL: 3386061 1.69303%
BRANCH_INDIRECT_CALL: 622186 0.311093%
BRANCH_RETURN: 4008227 2.00411%
BRANCH_OTHER: 0 0%

DRAM PAGES: 1048576
Allocated PAGES: 1910
