
*** ChampSim Multicore Out-of-Order Simulator ***

Warmup Instructions: 50000000
Simulation Instructions: 200000000
Number of CPUs: 1
LLC sets: 2048
LLC ways: 16
Off-chip DRAM Size: 4096 MB Channels: 1 Width: 64-bit Data Rate: 6400 MT/s
CPU 0 runs traces/spec2k17/srv_36.champsimtrace.xz
.xz
BTB has LRU replacement policy
ITLB has LRU replacement policy
DTLB has LRU replacement policy
STLB has LRU replacement policy
L1I has LRU replacement policy
CPU 0 l1d next line prefetcher
L1D has LRU replacement policy
Initialize SRRIP state for L2C
Initialize DRRIP state for LLC
Offsets elements: 
Potential of Offsets elements: 
rewards of Offsets elements: 
Printing Sanity1
offset list size922
Heartbeat CPU 0 instructions: 10000001 cycles: 2943270 heartbeat IPC: 3.39758 cumulative IPC: 3.39758 (Simulation time: 0 hr 0 min 39 sec) 
Heartbeat CPU 0 instructions: 20000003 cycles: 5881096 heartbeat IPC: 3.40388 cumulative IPC: 3.40073 (Simulation time: 0 hr 1 min 15 sec) 
Offsets elements: 
Potential of Offsets elements: 
rewards of Offsets elements: 0 0 343 408 192 0 0 0 339 0 176 168 0 0 202 121 0 0 477 0 0 0 0 0 0 0 2 0 0 0 0 113 2 0 0 0 52 125 2 0 0 0 329 0 221 23 12 2 0 0 0 0 0 418 0 0 0 0 0 167 270 0 0 0 0 0 0 0 0 0 75 0 0 0 0 10 0 0 0 0 0 0 0 0 0 0 0 0 0 0 0 0 0 0 0 0 0 0 0 0 0 305 0 0 0 0 35 0 0 0 0 0 0 0 0 0 0 0 0 234 0 0 0 0 0 0 35 0 0 0 0 0 0 1 0 294 0 88 0 0 0 0 0 0 0 0 1 0 0 0 0 0 0 2 0 0 0 0 0 0 0 0 0 0 0 0 0 0 315 0 4 0 0 2 0 0 0 0 0 0 0 0 0 0 284 0 0 0 0 0 0 0 0 0 0 0 0 0 0 0 0 0 0 1 283 0 0 0 0 56 0 0 0 0 0 0 0 0 0 0 40 152 0 0 0 0 0 0 0 0 0 0 0 0 0 0 0 0 0 0 0 0 0 0 0 0 0 331 179 0 0 0 46 0 3 0 0 0 0 0 11 0 0 0 0 0 0 0 0 0 16 0 0 0 21 0 0 0 0 1 0 0 0 0 13 0 5 0 23 0 0 0 362 0 0 292 0 0 0 0 422 0 0 0 0 0 0 0 0 0 0 0 0 0 0 0 0 0 1 0 0 0 0 0 0 1 0 0 40 0 0 11 0 0 42 0 0 0 0 0 3 0 0 0 0 0 0 0 0 3 0 1 0 0 0 0 0 0 0 0 0 0 0 0 0 0 0 0 0 0 0 0 8 0 0 0 0 0 0 1 0 0 0 0 49 0 0 0 0 0 0 0 0 0 3 2 0 0 12 0 0 0 0 0 0 0 0 0 304 73 0 0 0 0 0 0 0 0 0 0 0 0 0 0 0 0 0 0 0 0 0 0 0 0 0 0 0 0 1 1 0 0 0 0 0 0 0 0 0 0 0 0 0 0 0 0 0 0 0 0 0 0 0 8 0 0 0 0 0 0 0 0 0 0 0 0 0 0 1 0 0 0 0 0 0 18 0 0 0 0 0 0 0 0 0 0 0 0 0 0 0 0 0 0 0 0 31 0 0 0 3 73 24 0 0 0 0 0 0 0 0 0 0 0 0 0 3 0 70 0 0 0 32 0 0 27 0 0 0 0 0 0 0 1 0 0 0 245 0 0 0 0 0 0 35 1 0 3 0 0 0 0 16 0 0 295 0 0 0 0 0 0 0 0 0 10 0 1 0 121 0 0 0 0 0 0 39 0 0 0 0 0 0 0 0 0 0 0 0 0 0 0 63 0 0 0 0 0 0 0 0 0 0 0 0 6 0 0 0 0 0 175 71 0 0 0 256 0 0 0 0 0 0 0 0 0 0 0 0 0 114 31 0 0 0 0 0 0 222 0 0 63 0 0 0 0 0 0 0 0 0 0 0 0 0 0 0 239 9 11 0 0 0 0 0 0 0 27 0 0 0 0 0 0 0 0 0 0 25 8 14 0 0 11 0 0 92 0 0 0 0 0 0 0 0 0 0 5 0 212 3 0 0 0 0 0 0 0 7 0 0 0 0 0 0 0 2 0 0 0 0 0 0 0 0 39 2 0 0 0 0 3 0 1 0 0 0 0 0 0 0 0 0 0 0 0 0 3 26 0 0 0 0 0 0 0 0 0 0 0 0 0 0 0 0 1 1 0 31 0 2 0 0 0 0 0 0 0 0 0 4 0 0 0 3 0 0 0 0 0 0 0 0 0 0 0 0 0 0 0 4 0 0 0 0 0 0 0 0 0 0 0 3 0 0 0 0 22 0 235 3 0 0 0 0 0 65 0 0 0 0 0 0 0 0 0 0 191 0 7 0 0 0 0 0 0 2 0 0 0 0 0 0 0 2 0 0 0 0 0 2 14 0 0 0 0 0 0 0 1 0 0 0 0 0 0 0 1 3 4 8 5 0 0 0 7 0 0 0 0 0 2 0 0 0 0 0 47 0 0 0 0 0 0 5 0 8 0 0 0 0 0 
Printing Sanity2
Heartbeat CPU 0 instructions: 30000000 cycles: 8819710 heartbeat IPC: 3.40296 cumulative IPC: 3.40147 (Simulation time: 0 hr 1 min 51 sec) 
*** Reached end of trace for Core: 0 Repeating trace: traces/spec2k17/srv_36.champsimtrace.xz
Heartbeat CPU 0 instructions: 40000001 cycles: 11761709 heartbeat IPC: 3.39905 cumulative IPC: 3.40087 (Simulation time: 0 hr 2 min 27 sec) 
Heartbeat CPU 0 instructions: 50000002 cycles: 14704286 heartbeat IPC: 3.39838 cumulative IPC: 3.40037 (Simulation time: 0 hr 3 min 6 sec) 

Warmup complete CPU 0 instructions: 50000002 cycles: 14704286 (Simulation time: 0 hr 3 min 6 sec) 

Heartbeat CPU 0 instructions: 60000003 cycles: 34594375 heartbeat IPC: 0.502763 cumulative IPC: 0.502763 (Simulation time: 0 hr 4 min 14 sec) 
*** Reached end of trace for Core: 0 Repeating trace: traces/spec2k17/srv_36.champsimtrace.xz
Heartbeat CPU 0 instructions: 70000001 cycles: 54470753 heartbeat IPC: 0.50311 cumulative IPC: 0.502936 (Simulation time: 0 hr 5 min 18 sec) 
Heartbeat CPU 0 instructions: 80000002 cycles: 74296101 heartbeat IPC: 0.504405 cumulative IPC: 0.503425 (Simulation time: 0 hr 6 min 26 sec) 
Heartbeat CPU 0 instructions: 90000000 cycles: 94113434 heartbeat IPC: 0.504609 cumulative IPC: 0.50372 (Simulation time: 0 hr 7 min 33 sec) 
*** Reached end of trace for Core: 0 Repeating trace: traces/spec2k17/srv_36.champsimtrace.xz
Heartbeat CPU 0 instructions: 100000000 cycles: 113905918 heartbeat IPC: 0.505242 cumulative IPC: 0.504024 (Simulation time: 0 hr 8 min 39 sec) 
Heartbeat CPU 0 instructions: 110000000 cycles: 133684111 heartbeat IPC: 0.505607 cumulative IPC: 0.504287 (Simulation time: 0 hr 9 min 48 sec) 
Heartbeat CPU 0 instructions: 120000000 cycles: 153483476 heartbeat IPC: 0.505067 cumulative IPC: 0.504398 (Simulation time: 0 hr 10 min 54 sec) 
*** Reached end of trace for Core: 0 Repeating trace: traces/spec2k17/srv_36.champsimtrace.xz
Heartbeat CPU 0 instructions: 130000000 cycles: 173223836 heartbeat IPC: 0.506576 cumulative IPC: 0.50467 (Simulation time: 0 hr 12 min 0 sec) 
Heartbeat CPU 0 instructions: 140000002 cycles: 192865800 heartbeat IPC: 0.509114 cumulative IPC: 0.50516 (Simulation time: 0 hr 13 min 7 sec) 
Heartbeat CPU 0 instructions: 150000003 cycles: 212639909 heartbeat IPC: 0.505712 cumulative IPC: 0.505215 (Simulation time: 0 hr 14 min 19 sec) 
Heartbeat CPU 0 instructions: 160000001 cycles: 232341414 heartbeat IPC: 0.507575 cumulative IPC: 0.505428 (Simulation time: 0 hr 15 min 28 sec) 
*** Reached end of trace for Core: 0 Repeating trace: traces/spec2k17/srv_36.champsimtrace.xz
Heartbeat CPU 0 instructions: 170000001 cycles: 252148064 heartbeat IPC: 0.504881 cumulative IPC: 0.505383 (Simulation time: 0 hr 16 min 34 sec) 
Heartbeat CPU 0 instructions: 180000000 cycles: 271821491 heartbeat IPC: 0.5083 cumulative IPC: 0.505606 (Simulation time: 0 hr 17 min 42 sec) 
Heartbeat CPU 0 instructions: 190000000 cycles: 291550663 heartbeat IPC: 0.506864 cumulative IPC: 0.505696 (Simulation time: 0 hr 18 min 50 sec) 
*** Reached end of trace for Core: 0 Repeating trace: traces/spec2k17/srv_36.champsimtrace.xz
Heartbeat CPU 0 instructions: 200000002 cycles: 311318759 heartbeat IPC: 0.505866 cumulative IPC: 0.505707 (Simulation time: 0 hr 20 min 0 sec) 
Heartbeat CPU 0 instructions: 210000001 cycles: 331057132 heartbeat IPC: 0.506627 cumulative IPC: 0.505764 (Simulation time: 0 hr 21 min 11 sec) 
Heartbeat CPU 0 instructions: 220000000 cycles: 350800353 heartbeat IPC: 0.506503 cumulative IPC: 0.505808 (Simulation time: 0 hr 22 min 19 sec) 
*** Reached end of trace for Core: 0 Repeating trace: traces/spec2k17/srv_36.champsimtrace.xz
Heartbeat CPU 0 instructions: 230000001 cycles: 370532708 heartbeat IPC: 0.506782 cumulative IPC: 0.505862 (Simulation time: 0 hr 23 min 30 sec) 
Heartbeat CPU 0 instructions: 240000002 cycles: 390255186 heartbeat IPC: 0.507036 cumulative IPC: 0.505923 (Simulation time: 0 hr 24 min 33 sec) 
Heartbeat CPU 0 instructions: 250000001 cycles: 409914256 heartbeat IPC: 0.508671 cumulative IPC: 0.50606 (Simulation time: 0 hr 25 min 42 sec) 
Finished CPU 0 instructions: 200000000 cycles: 395209971 cumulative IPC: 0.50606 (Simulation time: 0 hr 25 min 42 sec) 

ChampSim completed all CPUs

Region of Interest Statistics

CPU 0 cumulative IPC: 0.50606 instructions: 200000000 cycles: 395209971
ITLB TOTAL     ACCESS:   33778065  HIT:   32243062  MISS:    1535003  HIT %:    95.4556  MISS %:    4.54438   MPKI: 7.67502
ITLB LOAD TRANSLATION ACCESS:   33778065  HIT:   32243062  MISS:    1535003  HIT %:    95.4556  MISS %:    4.54438   MPKI: 7.67502
ITLB PREFETCH  REQUESTED:          0  ISSUED:          0  USEFUL:          0  USELESS:          0
ITLB USEFUL LOAD PREFETCHES:          0 PREFETCH ISSUED TO LOWER LEVEL:          0  ACCURACY: -nan
ITLB TIMELY PREFETCHES:          0 LATE PREFETCHES: 0 DROPPED PREFETCHES: 0
ITLB PREFETCHES SAME FILL-ORIGIN LEVEL: 0 DIFFERENT FILL-ORIGIN LEVEL: 0
ITLB AVERAGE MISS LATENCY: 9.22509 cycles
ITLB RQ	ACCESS:   40656765	FORWARD:          0	MERGED:    6384662	TO_CACHE:   34272103

DTLB TOTAL     ACCESS:   39922450  HIT:   38408797  MISS:    1513653  HIT %:    96.2085  MISS %:    3.79148   MPKI: 7.56827
DTLB LOAD TRANSLATION ACCESS:   39922450  HIT:   38408797  MISS:    1513653  HIT %:    96.2085  MISS %:    3.79148   MPKI: 7.56827
DTLB PREFETCH  REQUESTED:          0  ISSUED:          0  USEFUL:          0  USELESS:          0
DTLB USEFUL LOAD PREFETCHES:          0 PREFETCH ISSUED TO LOWER LEVEL:          0  ACCURACY: -nan
DTLB TIMELY PREFETCHES:          0 LATE PREFETCHES: 0 DROPPED PREFETCHES: 0
DTLB PREFETCHES SAME FILL-ORIGIN LEVEL: 0 DIFFERENT FILL-ORIGIN LEVEL: 0
DTLB AVERAGE MISS LATENCY: 15.2951 cycles
DTLB RQ	ACCESS:   61051536	FORWARD:          0	MERGED:   20727578	TO_CACHE:   40323958

STLB TOTAL     ACCESS:    3404770  HIT:    3324684  MISS:      80086  HIT %:    97.6478  MISS %:    2.35217   MPKI: 0.40043
STLB LOAD TRANSLATION ACCESS:    3048656  HIT:    2969384  MISS:      79272  HIT %:    97.3998  MISS %:    2.60023   MPKI: 0.39636
STLB TRANSLATION FROM L1D PREFETCHER ACCESS:     356114  HIT:     355300  MISS:        814  HIT %:    99.7714  MISS %:   0.228578   MPKI: 0.00407
STLB PREFETCH  REQUESTED:          0  ISSUED:          0  USEFUL:        749  USELESS:         66
STLB USEFUL LOAD PREFETCHES:        749 PREFETCH ISSUED TO LOWER LEVEL:          0  ACCURACY: inf
STLB TIMELY PREFETCHES:        749 LATE PREFETCHES: 272 DROPPED PREFETCHES: 1463
STLB PREFETCHES SAME FILL-ORIGIN LEVEL: 0 DIFFERENT FILL-ORIGIN LEVEL: 0
STLB AVERAGE MISS LATENCY: 383118 cycles
STLB RQ	ACCESS:    3500755	FORWARD:          0	MERGED:      93460	TO_CACHE:    3407295

STLB Hit, L1D data hit: 0
STLB Hit, L2C data hit: 0
STLB Hit, LLC data hit: 0
STLB Hit, LLC data miss: 0
STLB STLB hints to L2: 0
L1D TOTAL     ACCESS:   49424042  HIT:   42446384  MISS:    6977658  HIT %:    85.8821  MISS %:    14.1179   MPKI: 34.8883
L1D LOAD      ACCESS:   26610976  HIT:   23609952  MISS:    3001024  HIT %:    88.7226  MISS %:    11.2774   MPKI: 15.0051
L1D RFO       ACCESS:   22497019  HIT:   18788982  MISS:    3708037  HIT %:    83.5177  MISS %:    16.4823   MPKI: 18.5402
L1D PREFETCH  ACCESS:     316047  HIT:      47450  MISS:     268597  HIT %:    15.0136  MISS %:    84.9864   MPKI: 1.34299
AGUS PREFETCH L1 MISS: 0
L1D PREFETCH  REQUESTED:     927954  ISSUED:     926403  USEFUL:     100394  USELESS:     168158
L1D USEFUL LOAD PREFETCHES:     100394 PREFETCH ISSUED TO LOWER LEVEL:     353944  ACCURACY: 28.3644
L1D TIMELY PREFETCHES:     100394 LATE PREFETCHES: 85341 DROPPED PREFETCHES: 2035
L1D PREFETCHES SAME FILL-ORIGIN LEVEL: 353944 DIFFERENT FILL-ORIGIN LEVEL: 0
L1D AVERAGE MISS LATENCY: 2.72769e+06 cycles
L1D RQ	ACCESS:   45157760	FORWARD:          0	MERGED:   17822060	TO_CACHE:   27058954
L1D WQ	ACCESS:   34191048	FORWARD:     276746	MERGED:     198466	TO_CACHE:   33992582
L1D PQ	ACCESS:     474304	FORWARD:          0	MERGED:      22205	TO_CACHE:     452099

L1D UNIQUE REGIONS ACCESSED: 0
L1D REGIONS CONFLICTS: 0
L1D Cross Page Prefetch Requests: 507464
L1D Same Page Prefetch Requests: 0
L1D ROI Sum of L1D PQ occupancy: 8197705
L1D PREFETCHES PUSHED FROM L2C: 0
L1I TOTAL     ACCESS:   38008546  HIT:   28949551  MISS:    9058995  HIT %:    76.1659  MISS %:    23.8341   MPKI: 45.295
L1I LOAD      ACCESS:   38008546  HIT:   28949551  MISS:    9058995  HIT %:    76.1659  MISS %:    23.8341   MPKI: 45.295
L1I PREFETCH  REQUESTED:          0  ISSUED:          0  USEFUL:          0  USELESS:          0
L1I USEFUL LOAD PREFETCHES:          0 PREFETCH ISSUED TO LOWER LEVEL:          0  ACCURACY: -nan
L1I TIMELY PREFETCHES:          0 LATE PREFETCHES: 0 DROPPED PREFETCHES: 0
L1I PREFETCHES SAME FILL-ORIGIN LEVEL: 0 DIFFERENT FILL-ORIGIN LEVEL: 0
L1I AVERAGE MISS LATENCY: 16.6404 cycles
L1I RQ	ACCESS:   58986941	FORWARD:          0	MERGED:   18330176	TO_CACHE:   40656765

BTB TOTAL     ACCESS:   25729046  HIT:   24193611  MISS:    1535435  HIT %:    94.0323  MISS %:    5.96771   MPKI: 7.67718
BTB BRANCH_DIRECT_JUMP	ACCESS:    1654273  HIT:    1644479  MISS:       9794
BTB BRANCH_INDIRECT	ACCESS:    9941099  HIT:    9432726  MISS:     508373
BTB BRANCH_CONDITIONAL	ACCESS:    7321750  HIT:    7308108  MISS:      13642
BTB BRANCH_DIRECT_CALL	ACCESS:    2814711  HIT:    2781382  MISS:      33329
BTB BRANCH_INDIRECT_CALL	ACCESS:     591266  HIT:     480297  MISS:     110969
BTB BRANCH_RETURN	ACCESS:    3405947  HIT:    2546619  MISS:     859328
BTB BRANCH_OTHER ACCESS:          0  HIT:          0  MISS:          0

L2C TOTAL     ACCESS:   20494122  HIT:   13783754  MISS:    6710368  HIT %:    67.2571  MISS %:    32.7429   MPKI: 33.5518
L2C LOAD      ACCESS:   11974351  HIT:    9261368  MISS:    2712983  HIT %:    77.3434  MISS %:    22.6566   MPKI: 13.5649
L2C DATA LOAD MPKI: 10.7151
L2C INSTRUCTION LOAD MPKI: 2.84985
L2C RFO       ACCESS:    3708013  HIT:     171138  MISS:    3536875  HIT %:    4.61536  MISS %:    95.3846   MPKI: 17.6844
L2C PREFETCH  ACCESS:     353944  HIT:      66510  MISS:     287434  HIT %:    18.7911  MISS %:    81.2089   MPKI: 1.43717
AGUS PREFETCH L1 MISS: 0
L2C DATA PREFETCH MPKI: 1.43717
L2C INSTRUCTION PREFETCH MPKI: 0
L2C WRITEBACK ACCESS:    4363947  HIT:    4234524  MISS:     129423  HIT %:    97.0343  MISS %:    2.96573   MPKI: 0.647115
L2C LOAD TRANSLATION ACCESS:      90587  HIT:      48506  MISS:      42081  HIT %:    53.5463  MISS %:    46.4537   MPKI: 0.210405
L2C TRANSLATION FROM L1D PREFETCHER ACCESS:       3280  HIT:       1708  MISS:       1572  HIT %:    52.0732  MISS %:    47.9268   MPKI: 0.00786
L2C PREFETCH  REQUESTED:          0  ISSUED:          0  USEFUL:      12074  USELESS:     276572
L2C USEFUL LOAD PREFETCHES:      12074 PREFETCH ISSUED TO LOWER LEVEL:     287434  ACCURACY: 4.20062
L2C TIMELY PREFETCHES:      12074 LATE PREFETCHES: 0 DROPPED PREFETCHES: 0
L2C PREFETCHES SAME FILL-ORIGIN LEVEL: 0 DIFFERENT FILL-ORIGIN LEVEL: 0
L2C AVERAGE MISS LATENCY: 157.655 cycles
L2C RQ	ACCESS:   15776575	FORWARD:          0	MERGED:          0	TO_CACHE:   15776231
L2C WQ	ACCESS:    4363947	FORWARD:        344	MERGED:          0	TO_CACHE:    4363947
L2C PQ	ACCESS:     353944	FORWARD:          0	MERGED:          0	TO_CACHE:     353944

L2C Instructions Evicting Data 517831
L2C Translations Evicting Data 39933
L2C Data Evicting Data 5420726
L2C Instructions Evicting Instructions 48642
L2C Translations Evicting Instructions 3421
L2C Data Evicting Instructions 507524
L2C Instructions Evicting Translations 3496
L2C Translations Evicting Translations 299
L2C Data Evicting Translations 39073
L2C Dense regions hint from L2: 0
PSCL5 TOTAL     ACCESS:      81549  HIT:      81549  MISS:          0  HIT %:        100  MISS %:          0   MPKI: 0
PSCL5 LOAD TRANSLATION ACCESS:      79000  HIT:      79000  MISS:          0  HIT %:        100  MISS %:          0   MPKI: 0
PSCL5 TRANSLATION FROM L1D PREFETCHER ACCESS:       2549  HIT:       2549  MISS:          0  HIT %:        100  MISS %:          0   MPKI: 0
PSCL5 PREFETCH  REQUESTED:          0  ISSUED:          0  USEFUL:          0  USELESS:          0
PSCL5 USEFUL LOAD PREFETCHES:          0 PREFETCH ISSUED TO LOWER LEVEL:          0  ACCURACY: -nan
PSCL5 TIMELY PREFETCHES:          0 LATE PREFETCHES: 0 DROPPED PREFETCHES: 0
PSCL5 PREFETCHES SAME FILL-ORIGIN LEVEL: 0 DIFFERENT FILL-ORIGIN LEVEL: 0

PSCL4 TOTAL     ACCESS:      73971  HIT:      73728  MISS:        243  HIT %:    99.6715  MISS %:   0.328507   MPKI: 0.001215
PSCL4 LOAD TRANSLATION ACCESS:      71615  HIT:      71372  MISS:        243  HIT %:    99.6607  MISS %:   0.339314   MPKI: 0.001215
PSCL4 TRANSLATION FROM L1D PREFETCHER ACCESS:       2356  HIT:       2356  MISS:          0  HIT %:        100  MISS %:          0   MPKI: 0
PSCL4 PREFETCH  REQUESTED:          0  ISSUED:          0  USEFUL:          0  USELESS:          0
PSCL4 USEFUL LOAD PREFETCHES:          0 PREFETCH ISSUED TO LOWER LEVEL:          0  ACCURACY: -nan
PSCL4 TIMELY PREFETCHES:          0 LATE PREFETCHES: 0 DROPPED PREFETCHES: 0
PSCL4 PREFETCHES SAME FILL-ORIGIN LEVEL: 0 DIFFERENT FILL-ORIGIN LEVEL: 0

PSCL3 TOTAL     ACCESS:      76294  HIT:      75228  MISS:       1066  HIT %:    98.6028  MISS %:    1.39723   MPKI: 0.00533
PSCL3 LOAD TRANSLATION ACCESS:      73781  HIT:      72715  MISS:       1066  HIT %:    98.5552  MISS %:    1.44482   MPKI: 0.00533
PSCL3 TRANSLATION FROM L1D PREFETCHER ACCESS:       2513  HIT:       2513  MISS:          0  HIT %:        100  MISS %:          0   MPKI: 0
PSCL3 PREFETCH  REQUESTED:          0  ISSUED:          0  USEFUL:          0  USELESS:          0
PSCL3 USEFUL LOAD PREFETCHES:          0 PREFETCH ISSUED TO LOWER LEVEL:          0  ACCURACY: -nan
PSCL3 TIMELY PREFETCHES:          0 LATE PREFETCHES: 0 DROPPED PREFETCHES: 0
PSCL3 PREFETCHES SAME FILL-ORIGIN LEVEL: 0 DIFFERENT FILL-ORIGIN LEVEL: 0

PSCL2 TOTAL     ACCESS:      80880  HIT:      70541  MISS:      10339  HIT %:    87.2169  MISS %:    12.7831   MPKI: 0.051695
PSCL2 LOAD TRANSLATION ACCESS:      79049  HIT:      68710  MISS:      10339  HIT %:    86.9208  MISS %:    13.0792   MPKI: 0.051695
PSCL2 TRANSLATION FROM L1D PREFETCHER ACCESS:       1831  HIT:       1831  MISS:          0  HIT %:        100  MISS %:          0   MPKI: 0
PSCL2 PREFETCH  REQUESTED:          0  ISSUED:          0  USEFUL:          0  USELESS:          0
PSCL2 USEFUL LOAD PREFETCHES:          0 PREFETCH ISSUED TO LOWER LEVEL:          0  ACCURACY: -nan
PSCL2 TIMELY PREFETCHES:          0 LATE PREFETCHES: 0 DROPPED PREFETCHES: 0
PSCL2 PREFETCHES SAME FILL-ORIGIN LEVEL: 0 DIFFERENT FILL-ORIGIN LEVEL: 0

LLC TOTAL     ACCESS:   10615925  HIT:    4237588  MISS:    6378337  HIT %:    39.9173  MISS %:    60.0827   MPKI: 31.8917
LLC LOAD      ACCESS:    2712983  HIT:    1606531  MISS:    1106452  HIT %:    59.2164  MISS %:    40.7836   MPKI: 5.53226
LLC RFO       ACCESS:    3536860  HIT:     983888  MISS:    2552972  HIT %:    27.8181  MISS %:    72.1819   MPKI: 12.7649
LLC PREFETCH  ACCESS:     287434  HIT:      82691  MISS:     204743  HIT %:    28.7687  MISS %:    71.2313   MPKI: 1.02371
AGUS PREFETCH L1 MISS: 0
LLC WRITEBACK ACCESS:    4034995  HIT:    1553533  MISS:    2481462  HIT %:    38.5015  MISS %:    61.4985   MPKI: 12.4073
LLC LOAD TRANSLATION ACCESS:      42081  HIT:      10349  MISS:      31732  HIT %:     24.593  MISS %:     75.407   MPKI: 0.15866
LLC TRANSLATION FROM L1D PREFETCHER ACCESS:       1572  HIT:        596  MISS:        976  HIT %:    37.9135  MISS %:    62.0865   MPKI: 0.00488
LLC PREFETCH  REQUESTED:          0  ISSUED:          0  USEFUL:        605  USELESS:     204906
LLC USEFUL LOAD PREFETCHES:        605 PREFETCH ISSUED TO LOWER LEVEL:     204743  ACCURACY: 0.295492
LLC TIMELY PREFETCHES:        605 LATE PREFETCHES: 0 DROPPED PREFETCHES: 0
LLC PREFETCHES SAME FILL-ORIGIN LEVEL: 0 DIFFERENT FILL-ORIGIN LEVEL: 0
LLC AVERAGE MISS LATENCY: 134.908 cycles
LLC RQ	ACCESS:    6293511	FORWARD:          0	MERGED:          0	TO_CACHE:    6293496
LLC WQ	ACCESS:    4034995	FORWARD:         15	MERGED:          0	TO_CACHE:    4034995
LLC PQ	ACCESS:     287434	FORWARD:          0	MERGED:          0	TO_CACHE:     287434

LLC Dense regions hint to LLC: 0

RAW hits: 2460428
Loads Generated: 47618190
Loads sent to L1D: 45157760
Stores Generated: 34191042
Stores sent to L1D: 34191048
Major fault: 0 Minor fault: 9094
Allocated PAGES: 9094
CPU 0 L1D 
Prefetch count 890081 BOP and RL 

DRAM Statistics
 CHANNEL 0
 RQ ROW_BUFFER_HIT:    1828798  ROW_BUFFER_MISS:    2067738
 DBUS_CONGESTED:       2066
 WQ ROW_BUFFER_HIT:     569266  ROW_BUFFER_MISS:    2050656  FULL:      56116

 AVG_CONGESTED_CYCLE: 3
 All warmup complete: 2
Channel 0 Bank busy for read cycles: 0
Channel 0 Bank busy for write cycles: 0
Channel 0
Rank 0
0banks busy for read cycles: 172378684
0banks busy for write cycles: 257578
1banks busy for read cycles: 34386318
1banks busy for write cycles: 35907751
2banks busy for read cycles: 15477152
2banks busy for write cycles: 13662046
3banks busy for read cycles: 16988218
3banks busy for write cycles: 6365542
4banks busy for read cycles: 8622280
4banks busy for write cycles: 4279954
5banks busy for read cycles: 5827932
5banks busy for write cycles: 3668041
6banks busy for read cycles: 10526200
6banks busy for write cycles: 3586717
7banks busy for read cycles: 5585066
7banks busy for write cycles: 6104109
8banks busy for read cycles: 15743852
8banks busy for write cycles: 35842532

CPU 0 Branch Prediction Accuracy: 99.9484% MPKI: 0.07887 Average ROB Occupancy at Mispredict: 123.155
Branch types
NOT_BRANCH: 169412806 84.7064%
BRANCH_DIRECT_JUMP: 1654273 0.827137%
BRANCH_INDIRECT: 9941099 4.97055%
BRANCH_CONDITIONAL: 12179884 6.08994%
BRANCH_DIRECT_CALL: 2814711 1.40736%
BRANCH_INDIRECT_CALL: 591266 0.295633%
BRANCH_RETURN: 3405947 1.70297%
BRANCH_OTHER: 0 0%

DRAM PAGES: 1048576
Allocated PAGES: 9094
