
*** ChampSim Multicore Out-of-Order Simulator ***

Warmup Instructions: 50000000
Simulation Instructions: 200000000
Number of CPUs: 1
LLC sets: 2048
LLC ways: 16
Off-chip DRAM Size: 4096 MB Channels: 1 Width: 64-bit Data Rate: 6400 MT/s
CPU 0 runs traces/spec2k17/srv_23.champsimtrace.xz
.xz
BTB has LRU replacement policy
ITLB has LRU replacement policy
DTLB has LRU replacement policy
STLB has LRU replacement policy
L1I has LRU replacement policy
CPU 0 l1d next line prefetcher
L1D has LRU replacement policy
Initialize SRRIP state for L2C
Initialize DRRIP state for LLC
Offsets elements: 
Potential of Offsets elements: 
rewards of Offsets elements: 
Printing Sanity1
offset list size1195
Heartbeat CPU 0 instructions: 10000002 cycles: 2849660 heartbeat IPC: 3.50919 cumulative IPC: 3.50919 (Simulation time: 0 hr 0 min 30 sec) 
Heartbeat CPU 0 instructions: 20000003 cycles: 5691838 heartbeat IPC: 3.51843 cumulative IPC: 3.5138 (Simulation time: 0 hr 1 min 1 sec) 
Offsets elements: 
Potential of Offsets elements: 
rewards of Offsets elements: 0 0 0 0 332 0 1 0 0 0 0 0 1 0 0 0 0 0 0 0 0 0 0 0 0 3 366 1 0 138 0 0 0 0 0 0 0 0 10 0 0 0 1 3 0 2 4 0 0 0 0 1 0 0 0 0 0 0 0 0 1 0 0 1 1 4 0 0 0 0 0 0 0 0 2 1 2 2 0 0 1 0 0 0 0 0 0 0 167 0 1 0 7 3 1 0 0 0 1 0 0 0 0 0 1 0 1 0 0 3 0 0 0 0 0 0 0 0 0 0 0 1 0 0 0 0 0 0 2 0 1 1 1 96 0 0 0 0 0 207 12 0 272 0 0 0 0 0 0 0 0 0 0 1 0 6 0 0 0 0 121 0 304 0 0 0 29 53 0 0 1 0 0 0 0 0 0 29 0 339 1 0 0 0 3 0 1 1 0 0 0 0 0 0 0 0 0 1 0 314 1 0 0 0 0 0 0 0 0 0 0 0 0 0 1 0 214 0 1 2 0 4 0 0 0 0 0 44 1 0 0 0 0 0 0 0 2 0 0 0 0 0 0 0 5 0 0 0 0 0 0 1 0 0 1 0 0 0 341 0 0 3 0 0 0 0 0 0 0 0 0 0 0 0 23 2 3 0 3 0 6 2 0 0 5 0 0 0 0 0 0 0 339 0 3 0 0 1 5 3 0 0 16 0 0 0 0 0 0 2 0 0 0 0 1 0 0 0 0 0 0 0 0 0 1 0 0 0 33 205 0 0 0 59 0 0 0 0 1 0 4 2 0 0 4 2 0 0 0 1 0 0 2 1 9 0 0 0 232 13 0 0 0 0 0 3 3 0 0 0 0 0 1 0 0 0 0 4 0 0 0 0 0 1 0 2 0 30 22 145 0 0 0 0 2 0 0 0 133 1 3 1 2 3 112 5 0 0 12 2 0 0 0 0 0 247 0 2 1 1 0 0 1 0 0 0 0 1 0 0 0 0 2 0 0 0 0 0 0 0 0 0 1 0 0 0 1 0 51 305 18 0 5 0 0 0 17 0 0 0 246 0 34 0 0 0 2 0 1 0 0 0 1 0 0 0 0 0 0 0 0 0 0 0 1 0 0 0 0 0 0 0 0 0 0 0 3 0 0 0 0 0 0 3 1 0 0 0 0 0 0 0 0 0 0 14 311 4 2 0 1 0 0 0 47 3 0 0 0 0 0 2 1 0 0 0 0 0 0 0 0 0 148 0 0 0 0 62 34 0 1 7 0 2 0 1 0 0 0 0 0 0 1 50 0 0 1 0 1 0 0 1 1 0 0 0 4 0 1 1 0 0 0 1 0 1 246 2 2 0 6 2 1 0 2 3 0 2 5 0 0 0 0 0 1 0 0 2 0 0 1 0 2 0 0 0 0 0 0 0 0 1 0 5 1 119 1 293 2 0 1 5 7 3 0 1 0 0 0 0 2 0 0 1 0 0 1 1 2 2 0 0 0 0 0 0 2 0 256 141 0 2 1 0 0 3 2 84 1 1 1 0 0 0 3 1 0 0 0 3 0 0 0 2 0 1 141 0 1 2 0 0 1 68 0 0 0 1 0 0 1 0 1 0 0 0 1 0 0 0 0 0 0 0 46 332 0 0 307 0 0 3 1 1 1 24 228 0 0 0 1 0 0 1 2 2 0 0 3 1 0 0 0 1 0 0 3 0 0 0 0 0 0 0 0 0 0 0 0 0 0 0 2 0 0 10 276 2 1 0 1 0 0 2 1 0 0 0 6 1 0 1 0 0 0 0 0 0 0 5 0 2 0 0 80 0 1 0 1 0 0 3 0 0 0 1 0 2 0 0 0 0 0 0 0 1 0 0 0 0 0 0 3 0 0 0 0 0 1 0 0 0 0 0 1 0 0 5 0 0 0 0 0 0 0 3 0 0 0 0 1 0 0 0 0 0 0 277 44 0 0 0 3 0 0 2 1 0 0 2 1 0 0 0 0 0 193 3 3 1 2 0 0 0 0 0 0 1 0 0 1 0 0 1 4 1 0 0 23 79 0 0 0 2 1 0 0 0 2 0 0 0 0 3 0 0 0 0 0 2 0 2 0 1 0 0 0 0 0 0 0 0 0 0 0 0 3 0 0 0 0 0 0 0 0 0 0 0 0 0 0 0 0 0 0 2 0 0 0 0 0 0 0 0 0 1 0 0 0 0 0 0 0 0 0 2 0 0 0 0 0 4 1 0 0 0 0 3 0 0 194 0 2 0 0 0 3 0 1 0 0 2 0 0 0 0 0 1 1 1 3 0 0 253 0 0 0 0 0 0 0 0 1 0 0 0 0 1 0 0 0 0 1 0 0 0 0 140 0 0 194 4 14 291 2 1 211 0 0 0 0 0 0 0 1 45 3 0 0 4 0 0 0 0 0 1 0 0 0 0 0 222 0 0 0 0 1 1 0 0 0 4 0 0 0 0 0 0 0 0 0 0 0 0 0 0 0 0 0 0 0 0 0 0 1 0 0 0 0 1 0 1 0 1 0 0 0 0 0 0 0 0 0 1 0 0 0 0 0 0 0 0 0 0 31 188 0 2 6 0 0 0 0 0 1 0 0 4 3 1 0 0 2 1 0 145 1 0 0 14 0 0 0 0 0 1 0 0 0 0 1 0 0 0 1 0 0 0 0 0 0 0 2 0 0 0 0 0 0 0 0 0 0 0 2 
Printing Sanity2
Heartbeat CPU 0 instructions: 30000003 cycles: 8532190 heartbeat IPC: 3.52069 cumulative IPC: 3.5161 (Simulation time: 0 hr 1 min 33 sec) 
*** Reached end of trace for Core: 0 Repeating trace: traces/spec2k17/srv_23.champsimtrace.xz
Heartbeat CPU 0 instructions: 40000002 cycles: 11373654 heartbeat IPC: 3.51931 cumulative IPC: 3.5169 (Simulation time: 0 hr 2 min 4 sec) 
Heartbeat CPU 0 instructions: 50000003 cycles: 14214622 heartbeat IPC: 3.51993 cumulative IPC: 3.5175 (Simulation time: 0 hr 2 min 35 sec) 

Warmup complete CPU 0 instructions: 50000003 cycles: 14214622 (Simulation time: 0 hr 2 min 35 sec) 

Heartbeat CPU 0 instructions: 60000000 cycles: 46651561 heartbeat IPC: 0.30829 cumulative IPC: 0.30829 (Simulation time: 0 hr 3 min 30 sec) 
*** Reached end of trace for Core: 0 Repeating trace: traces/spec2k17/srv_23.champsimtrace.xz
Heartbeat CPU 0 instructions: 70000000 cycles: 79112745 heartbeat IPC: 0.30806 cumulative IPC: 0.308175 (Simulation time: 0 hr 4 min 27 sec) 
Heartbeat CPU 0 instructions: 80000001 cycles: 111503426 heartbeat IPC: 0.308731 cumulative IPC: 0.30836 (Simulation time: 0 hr 5 min 26 sec) 
Heartbeat CPU 0 instructions: 90000002 cycles: 143943078 heartbeat IPC: 0.308265 cumulative IPC: 0.308336 (Simulation time: 0 hr 6 min 24 sec) 
*** Reached end of trace for Core: 0 Repeating trace: traces/spec2k17/srv_23.champsimtrace.xz
Heartbeat CPU 0 instructions: 100000000 cycles: 176365156 heartbeat IPC: 0.308432 cumulative IPC: 0.308355 (Simulation time: 0 hr 7 min 21 sec) 
Heartbeat CPU 0 instructions: 110000000 cycles: 208661625 heartbeat IPC: 0.309631 cumulative IPC: 0.308567 (Simulation time: 0 hr 8 min 18 sec) 
Heartbeat CPU 0 instructions: 120000001 cycles: 241091873 heartbeat IPC: 0.308354 cumulative IPC: 0.308537 (Simulation time: 0 hr 9 min 16 sec) 
*** Reached end of trace for Core: 0 Repeating trace: traces/spec2k17/srv_23.champsimtrace.xz
Heartbeat CPU 0 instructions: 130000000 cycles: 273495120 heartbeat IPC: 0.308611 cumulative IPC: 0.308546 (Simulation time: 0 hr 10 min 11 sec) 
Heartbeat CPU 0 instructions: 140000000 cycles: 305790915 heartbeat IPC: 0.309638 cumulative IPC: 0.308667 (Simulation time: 0 hr 11 min 7 sec) 
Heartbeat CPU 0 instructions: 150000003 cycles: 338278035 heartbeat IPC: 0.307814 cumulative IPC: 0.308582 (Simulation time: 0 hr 12 min 3 sec) 
*** Reached end of trace for Core: 0 Repeating trace: traces/spec2k17/srv_23.champsimtrace.xz
Heartbeat CPU 0 instructions: 160000002 cycles: 370608042 heartbeat IPC: 0.30931 cumulative IPC: 0.308648 (Simulation time: 0 hr 12 min 59 sec) 
Heartbeat CPU 0 instructions: 170000003 cycles: 402930125 heartbeat IPC: 0.309386 cumulative IPC: 0.308709 (Simulation time: 0 hr 13 min 57 sec) 
Heartbeat CPU 0 instructions: 180000001 cycles: 435428253 heartbeat IPC: 0.30771 cumulative IPC: 0.308632 (Simulation time: 0 hr 14 min 54 sec) 
*** Reached end of trace for Core: 0 Repeating trace: traces/spec2k17/srv_23.champsimtrace.xz
Heartbeat CPU 0 instructions: 190000001 cycles: 467778784 heartbeat IPC: 0.309114 cumulative IPC: 0.308666 (Simulation time: 0 hr 15 min 51 sec) 
Heartbeat CPU 0 instructions: 200000001 cycles: 500082667 heartbeat IPC: 0.30956 cumulative IPC: 0.308726 (Simulation time: 0 hr 16 min 43 sec) 
Heartbeat CPU 0 instructions: 210000001 cycles: 532575949 heartbeat IPC: 0.307756 cumulative IPC: 0.308665 (Simulation time: 0 hr 17 min 41 sec) 
*** Reached end of trace for Core: 0 Repeating trace: traces/spec2k17/srv_23.champsimtrace.xz
Heartbeat CPU 0 instructions: 220000000 cycles: 564881537 heartbeat IPC: 0.309544 cumulative IPC: 0.308717 (Simulation time: 0 hr 18 min 38 sec) 
Heartbeat CPU 0 instructions: 230000002 cycles: 597191813 heartbeat IPC: 0.309499 cumulative IPC: 0.30876 (Simulation time: 0 hr 19 min 34 sec) 
Heartbeat CPU 0 instructions: 240000001 cycles: 629658869 heartbeat IPC: 0.308004 cumulative IPC: 0.30872 (Simulation time: 0 hr 20 min 32 sec) 
Heartbeat CPU 0 instructions: 250000001 cycles: 661995317 heartbeat IPC: 0.309249 cumulative IPC: 0.308746 (Simulation time: 0 hr 21 min 28 sec) 
Finished CPU 0 instructions: 200000000 cycles: 647780696 cumulative IPC: 0.308746 (Simulation time: 0 hr 21 min 28 sec) 

ChampSim completed all CPUs

Region of Interest Statistics

CPU 0 cumulative IPC: 0.308746 instructions: 200000000 cycles: 647780696
ITLB TOTAL     ACCESS:   35724257  HIT:   33470417  MISS:    2253840  HIT %:     93.691  MISS %:    6.30899   MPKI: 11.2692
ITLB LOAD TRANSLATION ACCESS:   35724257  HIT:   33470417  MISS:    2253840  HIT %:     93.691  MISS %:    6.30899   MPKI: 11.2692
ITLB PREFETCH  REQUESTED:          0  ISSUED:          0  USEFUL:          0  USELESS:          0
ITLB USEFUL LOAD PREFETCHES:          0 PREFETCH ISSUED TO LOWER LEVEL:          0  ACCURACY: -nan
ITLB TIMELY PREFETCHES:          0 LATE PREFETCHES: 0 DROPPED PREFETCHES: 0
ITLB PREFETCHES SAME FILL-ORIGIN LEVEL: 0 DIFFERENT FILL-ORIGIN LEVEL: 0
ITLB AVERAGE MISS LATENCY: 9.14791 cycles
ITLB RQ	ACCESS:   41979109	FORWARD:          0	MERGED:    5720010	TO_CACHE:   36259099

DTLB TOTAL     ACCESS:   45779357  HIT:   43751133  MISS:    2028224  HIT %:    95.5696  MISS %:    4.43043   MPKI: 10.1411
DTLB LOAD TRANSLATION ACCESS:   45779357  HIT:   43751133  MISS:    2028224  HIT %:    95.5696  MISS %:    4.43043   MPKI: 10.1411
DTLB PREFETCH  REQUESTED:          0  ISSUED:          0  USEFUL:          0  USELESS:          0
DTLB USEFUL LOAD PREFETCHES:          0 PREFETCH ISSUED TO LOWER LEVEL:          0  ACCURACY: -nan
DTLB TIMELY PREFETCHES:          0 LATE PREFETCHES: 0 DROPPED PREFETCHES: 0
DTLB PREFETCHES SAME FILL-ORIGIN LEVEL: 0 DIFFERENT FILL-ORIGIN LEVEL: 0
DTLB AVERAGE MISS LATENCY: 9.23187 cycles
DTLB RQ	ACCESS:   60516652	FORWARD:          0	MERGED:   14676402	TO_CACHE:   45840250

STLB TOTAL     ACCESS:    4282064  HIT:    4252718  MISS:      29346  HIT %:    99.3147  MISS %:   0.685324   MPKI: 0.14673
STLB LOAD TRANSLATION ACCESS:    4282064  HIT:    4252718  MISS:      29346  HIT %:    99.3147  MISS %:   0.685324   MPKI: 0.14673
STLB PREFETCH  REQUESTED:          0  ISSUED:          0  USEFUL:          0  USELESS:          0
STLB USEFUL LOAD PREFETCHES:          0 PREFETCH ISSUED TO LOWER LEVEL:          0  ACCURACY: -nan
STLB TIMELY PREFETCHES:          0 LATE PREFETCHES: 0 DROPPED PREFETCHES: 0
STLB PREFETCHES SAME FILL-ORIGIN LEVEL: 0 DIFFERENT FILL-ORIGIN LEVEL: 0
STLB AVERAGE MISS LATENCY: 26.4181 cycles
STLB RQ	ACCESS:    4282064	FORWARD:          0	MERGED:          0	TO_CACHE:    4282064

STLB Hit, L1D data hit: 0
STLB Hit, L2C data hit: 0
STLB Hit, LLC data hit: 0
STLB Hit, LLC data miss: 0
STLB STLB hints to L2: 0
L1D TOTAL     ACCESS:   58577354  HIT:   53009463  MISS:    5567891  HIT %:    90.4948  MISS %:    9.50519   MPKI: 27.8395
L1D LOAD      ACCESS:   33910778  HIT:   29555938  MISS:    4354840  HIT %:    87.1579  MISS %:    12.8421   MPKI: 21.7742
L1D RFO       ACCESS:   24666576  HIT:   23453525  MISS:    1213051  HIT %:    95.0822  MISS %:    4.91779   MPKI: 6.06525
L1D PREFETCH  REQUESTED:          0  ISSUED:          0  USEFUL:          0  USELESS:          0
L1D USEFUL LOAD PREFETCHES:          0 PREFETCH ISSUED TO LOWER LEVEL:          0  ACCURACY: -nan
L1D TIMELY PREFETCHES:          0 LATE PREFETCHES: 0 DROPPED PREFETCHES: 0
L1D PREFETCHES SAME FILL-ORIGIN LEVEL: 0 DIFFERENT FILL-ORIGIN LEVEL: 0
L1D AVERAGE MISS LATENCY: 16.822 cycles
L1D RQ	ACCESS:   46430393	FORWARD:          0	MERGED:   12044247	TO_CACHE:   34060056
L1D WQ	ACCESS:   26602425	FORWARD:     326090	MERGED:     145829	TO_CACHE:   26456596

L1D UNIQUE REGIONS ACCESSED: 0
L1D REGIONS CONFLICTS: 0
L1D Cross Page Prefetch Requests: 512
L1D Same Page Prefetch Requests: 0
L1D ROI Sum of L1D PQ occupancy: 0
L1D PREFETCHES PUSHED FROM L2C: 0
L1I TOTAL     ACCESS:   40286845  HIT:   28878027  MISS:   11408818  HIT %:     71.681  MISS %:     28.319   MPKI: 57.0441
L1I LOAD      ACCESS:   40286845  HIT:   28878027  MISS:   11408818  HIT %:     71.681  MISS %:     28.319   MPKI: 57.0441
L1I PREFETCH  REQUESTED:          0  ISSUED:          0  USEFUL:          0  USELESS:          0
L1I USEFUL LOAD PREFETCHES:          0 PREFETCH ISSUED TO LOWER LEVEL:          0  ACCURACY: -nan
L1I TIMELY PREFETCHES:          0 LATE PREFETCHES: 0 DROPPED PREFETCHES: 0
L1I PREFETCHES SAME FILL-ORIGIN LEVEL: 0 DIFFERENT FILL-ORIGIN LEVEL: 0
L1I AVERAGE MISS LATENCY: 15.6617 cycles
L1I RQ	ACCESS:   58335429	FORWARD:          0	MERGED:   16356320	TO_CACHE:   41979109

BTB TOTAL     ACCESS:   30404625  HIT:   17762651  MISS:   12641974  HIT %:    58.4209  MISS %:    41.5791   MPKI: 63.2099
BTB BRANCH_DIRECT_JUMP	ACCESS:    1877215  HIT:    1053364  MISS:     823851
BTB BRANCH_INDIRECT	ACCESS:   12063357  HIT:    7236921  MISS:    4826436
BTB BRANCH_CONDITIONAL	ACCESS:    7180679  HIT:    5895807  MISS:    1284872
BTB BRANCH_DIRECT_CALL	ACCESS:    3903287  HIT:    1841897  MISS:    2061390
BTB BRANCH_INDIRECT_CALL	ACCESS:     738410  HIT:     357792  MISS:     380618
BTB BRANCH_RETURN	ACCESS:    4641677  HIT:    1376870  MISS:    3264807
BTB BRANCH_OTHER ACCESS:          0  HIT:          0  MISS:          0

L2C TOTAL     ACCESS:   19338262  HIT:   18380889  MISS:     957373  HIT %:    95.0493  MISS %:    4.95067   MPKI: 4.78686
L2C LOAD      ACCESS:   15763652  HIT:   14889887  MISS:     873765  HIT %:    94.4571  MISS %:    5.54291   MPKI: 4.36883
L2C DATA LOAD MPKI: 1.35292
L2C INSTRUCTION LOAD MPKI: 3.0159
L2C RFO       ACCESS:    1213051  HIT:    1160212  MISS:      52839  HIT %:    95.6441  MISS %:    4.35588   MPKI: 0.264195
L2C WRITEBACK ACCESS:    2330863  HIT:    2306672  MISS:      24191  HIT %:    98.9621  MISS %:    1.03786   MPKI: 0.120955
L2C LOAD TRANSLATION ACCESS:      30696  HIT:      24118  MISS:       6578  HIT %:    78.5705  MISS %:    21.4295   MPKI: 0.03289
L2C PREFETCH  REQUESTED:          0  ISSUED:          0  USEFUL:          0  USELESS:          0
L2C USEFUL LOAD PREFETCHES:          0 PREFETCH ISSUED TO LOWER LEVEL:          0  ACCURACY: -nan
L2C TIMELY PREFETCHES:          0 LATE PREFETCHES: 0 DROPPED PREFETCHES: 0
L2C PREFETCHES SAME FILL-ORIGIN LEVEL: 0 DIFFERENT FILL-ORIGIN LEVEL: 0
L2C AVERAGE MISS LATENCY: 29.512 cycles
L2C RQ	ACCESS:   17007405	FORWARD:          0	MERGED:          0	TO_CACHE:   17007399
L2C WQ	ACCESS:    2330863	FORWARD:          6	MERGED:          0	TO_CACHE:    2330863

L2C Instructions Evicting Data 178320
L2C Translations Evicting Data 3523
L2C Data Evicting Data 156439
L2C Instructions Evicting Instructions 422041
L2C Translations Evicting Instructions 2949
L2C Data Evicting Instructions 163451
L2C Instructions Evicting Translations 2819
L2C Translations Evicting Translations 106
L2C Data Evicting Translations 3534
L2C Dense regions hint from L2: 0
PSCL5 TOTAL     ACCESS:      29346  HIT:      29346  MISS:          0  HIT %:        100  MISS %:          0   MPKI: 0
PSCL5 LOAD TRANSLATION ACCESS:      29346  HIT:      29346  MISS:          0  HIT %:        100  MISS %:          0   MPKI: 0
PSCL5 PREFETCH  REQUESTED:          0  ISSUED:          0  USEFUL:          0  USELESS:          0
PSCL5 USEFUL LOAD PREFETCHES:          0 PREFETCH ISSUED TO LOWER LEVEL:          0  ACCURACY: -nan
PSCL5 TIMELY PREFETCHES:          0 LATE PREFETCHES: 0 DROPPED PREFETCHES: 0
PSCL5 PREFETCHES SAME FILL-ORIGIN LEVEL: 0 DIFFERENT FILL-ORIGIN LEVEL: 0

PSCL4 TOTAL     ACCESS:      26019  HIT:      25859  MISS:        160  HIT %:    99.3851  MISS %:   0.614935   MPKI: 0.0008
PSCL4 LOAD TRANSLATION ACCESS:      26019  HIT:      25859  MISS:        160  HIT %:    99.3851  MISS %:   0.614935   MPKI: 0.0008
PSCL4 PREFETCH  REQUESTED:          0  ISSUED:          0  USEFUL:          0  USELESS:          0
PSCL4 USEFUL LOAD PREFETCHES:          0 PREFETCH ISSUED TO LOWER LEVEL:          0  ACCURACY: -nan
PSCL4 TIMELY PREFETCHES:          0 LATE PREFETCHES: 0 DROPPED PREFETCHES: 0
PSCL4 PREFETCHES SAME FILL-ORIGIN LEVEL: 0 DIFFERENT FILL-ORIGIN LEVEL: 0

PSCL3 TOTAL     ACCESS:      27741  HIT:      27581  MISS:        160  HIT %:    99.4232  MISS %:   0.576764   MPKI: 0.0008
PSCL3 LOAD TRANSLATION ACCESS:      27741  HIT:      27581  MISS:        160  HIT %:    99.4232  MISS %:   0.576764   MPKI: 0.0008
PSCL3 PREFETCH  REQUESTED:          0  ISSUED:          0  USEFUL:          0  USELESS:          0
PSCL3 USEFUL LOAD PREFETCHES:          0 PREFETCH ISSUED TO LOWER LEVEL:          0  ACCURACY: -nan
PSCL3 TIMELY PREFETCHES:          0 LATE PREFETCHES: 0 DROPPED PREFETCHES: 0
PSCL3 PREFETCHES SAME FILL-ORIGIN LEVEL: 0 DIFFERENT FILL-ORIGIN LEVEL: 0

PSCL2 TOTAL     ACCESS:      29346  HIT:      28316  MISS:       1030  HIT %:    96.4902  MISS %:    3.50985   MPKI: 0.00515
PSCL2 LOAD TRANSLATION ACCESS:      29346  HIT:      28316  MISS:       1030  HIT %:    96.4902  MISS %:    3.50985   MPKI: 0.00515
PSCL2 PREFETCH  REQUESTED:          0  ISSUED:          0  USEFUL:          0  USELESS:          0
PSCL2 USEFUL LOAD PREFETCHES:          0 PREFETCH ISSUED TO LOWER LEVEL:          0  ACCURACY: -nan
PSCL2 TIMELY PREFETCHES:          0 LATE PREFETCHES: 0 DROPPED PREFETCHES: 0
PSCL2 PREFETCHES SAME FILL-ORIGIN LEVEL: 0 DIFFERENT FILL-ORIGIN LEVEL: 0

LLC TOTAL     ACCESS:    1011118  HIT:    1009465  MISS:       1653  HIT %:    99.8365  MISS %:   0.163482   MPKI: 0.008265
LLC LOAD      ACCESS:     873765  HIT:     872209  MISS:       1556  HIT %:    99.8219  MISS %:    0.17808   MPKI: 0.00778
LLC RFO       ACCESS:      52839  HIT:      52765  MISS:         74  HIT %:      99.86  MISS %:   0.140048   MPKI: 0.00037
LLC WRITEBACK ACCESS:      77936  HIT:      77932  MISS:          4  HIT %:    99.9949  MISS %: 0.00513242   MPKI: 2e-05
LLC LOAD TRANSLATION ACCESS:       6578  HIT:       6559  MISS:         19  HIT %:    99.7112  MISS %:   0.288842   MPKI: 9.5e-05
LLC PREFETCH  REQUESTED:          0  ISSUED:          0  USEFUL:          4  USELESS:          6
LLC USEFUL LOAD PREFETCHES:          4 PREFETCH ISSUED TO LOWER LEVEL:          0  ACCURACY: inf
LLC TIMELY PREFETCHES:          4 LATE PREFETCHES: 0 DROPPED PREFETCHES: 0
LLC PREFETCHES SAME FILL-ORIGIN LEVEL: 0 DIFFERENT FILL-ORIGIN LEVEL: 0
LLC AVERAGE MISS LATENCY: 156.39 cycles
LLC RQ	ACCESS:     933182	FORWARD:          0	MERGED:          0	TO_CACHE:     933182
LLC WQ	ACCESS:      77936	FORWARD:          0	MERGED:          0	TO_CACHE:      77936

LLC Dense regions hint to LLC: 0

RAW hits: 1457933
Loads Generated: 47888327
Loads sent to L1D: 46430393
Stores Generated: 26602422
Stores sent to L1D: 26602425
Major fault: 0 Minor fault: 1820
Allocated PAGES: 1820
CPU 0 L1D 
Prefetch count 904 BOP and RL 

DRAM Statistics
 CHANNEL 0
 RQ ROW_BUFFER_HIT:        225  ROW_BUFFER_MISS:       1424
 DBUS_CONGESTED:          0
 WQ ROW_BUFFER_HIT:          1  ROW_BUFFER_MISS:         88  FULL:          0

 AVG_CONGESTED_CYCLE: -
 All warmup complete: 2
Channel 0 Bank busy for read cycles: 0
Channel 0 Bank busy for write cycles: 0
Channel 0
Rank 0
0banks busy for read cycles: 647568121
0banks busy for write cycles: 79
1banks busy for read cycles: 182306
1banks busy for write cycles: 11684
2banks busy for read cycles: 11384
2banks busy for write cycles: 824
3banks busy for read cycles: 4536
3banks busy for write cycles: 278
4banks busy for read cycles: 1257
4banks busy for write cycles: 0
5banks busy for read cycles: 228
5banks busy for write cycles: 0
6banks busy for read cycles: 0
6banks busy for write cycles: 0
7banks busy for read cycles: 0
7banks busy for write cycles: 0
8banks busy for read cycles: 0
8banks busy for write cycles: 0

CPU 0 Branch Prediction Accuracy: 99.8875% MPKI: 0.202445 Average ROB Occupancy at Mispredict: 29.6877
Branch types
NOT_BRANCH: 164016249 82.0081%
BRANCH_DIRECT_JUMP: 1877215 0.938608%
BRANCH_INDIRECT: 12063357 6.03168%
BRANCH_CONDITIONAL: 12759769 6.37988%
BRANCH_DIRECT_CALL: 3903287 1.95164%
BRANCH_INDIRECT_CALL: 738410 0.369205%
BRANCH_RETURN: 4641677 2.32084%
BRANCH_OTHER: 0 0%

DRAM PAGES: 1048576
Allocated PAGES: 1820
