
*** ChampSim Multicore Out-of-Order Simulator ***

Warmup Instructions: 50000000
Simulation Instructions: 200000000
Number of CPUs: 1
LLC sets: 2048
LLC ways: 16
Off-chip DRAM Size: 4096 MB Channels: 1 Width: 64-bit Data Rate: 6400 MT/s
CPU 0 runs traces/spec2k17/srv_54.champsimtrace.xz
.xz
BTB has LRU replacement policy
ITLB has LRU replacement policy
DTLB has LRU replacement policy
STLB has LRU replacement policy
L1I has LRU replacement policy
CPU 0 l1d next line prefetcher
L1D has LRU replacement policy
Initialize SRRIP state for L2C
Initialize DRRIP state for LLC
Offsets elements: 
Potential of Offsets elements: 
rewards of Offsets elements: 
Printing Sanity1
offset list size2011
Heartbeat CPU 0 instructions: 10000000 cycles: 2817581 heartbeat IPC: 3.54914 cumulative IPC: 3.54914 (Simulation time: 0 hr 0 min 34 sec) 
Heartbeat CPU 0 instructions: 20000002 cycles: 5631294 heartbeat IPC: 3.55402 cumulative IPC: 3.55158 (Simulation time: 0 hr 1 min 8 sec) 
Heartbeat CPU 0 instructions: 30000001 cycles: 8451741 heartbeat IPC: 3.54554 cumulative IPC: 3.54956 (Simulation time: 0 hr 1 min 42 sec) 
*** Reached end of trace for Core: 0 Repeating trace: traces/spec2k17/srv_54.champsimtrace.xz
Heartbeat CPU 0 instructions: 40000000 cycles: 11257867 heartbeat IPC: 3.56363 cumulative IPC: 3.55307 (Simulation time: 0 hr 2 min 17 sec) 
Heartbeat CPU 0 instructions: 50000003 cycles: 14079490 heartbeat IPC: 3.54406 cumulative IPC: 3.55127 (Simulation time: 0 hr 2 min 51 sec) 

Warmup complete CPU 0 instructions: 50000003 cycles: 14079490 (Simulation time: 0 hr 2 min 51 sec) 

Heartbeat CPU 0 instructions: 60000003 cycles: 34025462 heartbeat IPC: 0.501354 cumulative IPC: 0.501354 (Simulation time: 0 hr 3 min 44 sec) 
*** Reached end of trace for Core: 0 Repeating trace: traces/spec2k17/srv_54.champsimtrace.xz
Heartbeat CPU 0 instructions: 70000001 cycles: 51881841 heartbeat IPC: 0.560024 cumulative IPC: 0.529068 (Simulation time: 0 hr 4 min 32 sec) 
Heartbeat CPU 0 instructions: 80000002 cycles: 71289811 heartbeat IPC: 0.515252 cumulative IPC: 0.524381 (Simulation time: 0 hr 5 min 23 sec) 
Heartbeat CPU 0 instructions: 90000001 cycles: 91739615 heartbeat IPC: 0.489002 cumulative IPC: 0.515065 (Simulation time: 0 hr 6 min 16 sec) 
*** Reached end of trace for Core: 0 Repeating trace: traces/spec2k17/srv_54.champsimtrace.xz
Heartbeat CPU 0 instructions: 100000002 cycles: 110976130 heartbeat IPC: 0.519845 cumulative IPC: 0.516014 (Simulation time: 0 hr 7 min 8 sec) 
Heartbeat CPU 0 instructions: 110000000 cycles: 128317464 heartbeat IPC: 0.576657 cumulative IPC: 0.525219 (Simulation time: 0 hr 7 min 57 sec) 
Heartbeat CPU 0 instructions: 120000003 cycles: 149647082 heartbeat IPC: 0.468832 cumulative IPC: 0.516348 (Simulation time: 0 hr 8 min 51 sec) 
*** Reached end of trace for Core: 0 Repeating trace: traces/spec2k17/srv_54.champsimtrace.xz
Heartbeat CPU 0 instructions: 130000001 cycles: 168458741 heartbeat IPC: 0.531585 cumulative IPC: 0.518204 (Simulation time: 0 hr 9 min 39 sec) 
Heartbeat CPU 0 instructions: 140000000 cycles: 187133574 heartbeat IPC: 0.53548 cumulative IPC: 0.520069 (Simulation time: 0 hr 10 min 29 sec) 
Heartbeat CPU 0 instructions: 150000000 cycles: 208527214 heartbeat IPC: 0.467429 cumulative IPC: 0.514277 (Simulation time: 0 hr 11 min 19 sec) 
*** Reached end of trace for Core: 0 Repeating trace: traces/spec2k17/srv_54.champsimtrace.xz
Heartbeat CPU 0 instructions: 160000002 cycles: 226238996 heartbeat IPC: 0.564596 cumulative IPC: 0.518478 (Simulation time: 0 hr 12 min 7 sec) 
Heartbeat CPU 0 instructions: 170000001 cycles: 245842740 heartbeat IPC: 0.510107 cumulative IPC: 0.51777 (Simulation time: 0 hr 12 min 55 sec) 
Offsets elements: 
Potential of Offsets elements: 
rewards of Offsets elements: 0 0 0 40 0 0 0 62 33 17 0 1 0 0 0 37 53 265 353 0 65 197 0 0 0 0 1 149 104 5 11 0 0 0 0 0 0 0 0 0 0 0 0 0 0 0 0 0 0 0 0 0 1 2 0 1 0 0 0 0 0 0 0 1 2 1 0 5 17 0 0 0 0 0 0 0 0 0 0 214 0 0 5 2 1 1 0 0 58 5 0 0 0 0 0 106 1 0 0 0 0 0 0 35 232 297 158 169 4 7 0 0 8 0 0 1 0 5 0 0 0 0 3 17 95 0 0 0 70 0 0 7 8 0 0 0 0 0 0 0 0 7 0 0 0 0 37 0 0 0 0 0 0 0 0 0 0 0 6 0 0 1 0 0 0 0 0 0 0 0 0 0 0 0 25 0 0 8 6 0 0 0 17 0 0 0 0 0 0 0 2 234 6 2 16 0 0 0 0 0 0 0 0 0 0 0 0 0 0 9 0 0 0 0 5 0 0 115 0 0 0 0 0 0 0 3 0 6 0 18 0 0 31 71 166 10 10 13 0 0 16 0 0 0 0 0 0 0 2 27 0 0 7 1 0 63 0 0 0 3 0 82 3 28 119 0 3 0 0 0 65 0 1 1 1 0 0 0 18 18 5 7 3 0 0 0 0 0 0 0 0 0 0 0 2 0 5 4 2 0 0 0 0 0 0 0 408 0 0 0 0 0 1 0 0 0 0 0 0 0 12 0 9 0 0 0 7 2 0 0 0 0 11 0 0 41 0 0 0 0 0 0 0 0 0 4 8 3 0 0 174 48 65 2 48 0 0 0 0 0 0 33 0 1 48 0 56 0 0 0 0 0 231 159 80 105 22 0 0 3 24 3 0 0 142 1 5 0 0 0 0 0 0 0 1 7 5 10 4 0 0 0 0 0 0 1 0 7 0 0 0 0 0 6 8 79 8 25 44 13 4 0 9 0 0 0 0 4 4 0 0 0 0 0 0 2 0 0 126 0 0 0 0 0 0 4 0 0 0 0 3 0 0 113 20 9 0 0 298 344 0 1 0 0 0 16 0 0 1 38 0 0 2 8 0 0 0 0 0 0 1 2 0 0 0 0 0 0 0 67 0 0 4 0 54 0 0 3 0 0 36 0 0 0 0 0 0 0 0 1 0 0 0 0 0 0 20 1 0 0 0 0 1 2 1 0 0 0 0 0 0 0 0 0 0 0 0 0 0 0 0 1 1 0 0 0 0 28 0 0 0 0 9 0 0 0 0 0 0 0 0 0 0 0 0 0 0 0 0 0 0 0 0 0 0 0 0 1 30 27 0 0 0 0 0 1 11 0 0 0 0 0 96 2 0 0 19 0 1 1 0 1 18 0 0 2 0 1 8 0 0 1 0 0 0 0 0 0 0 0 0 0 0 0 0 0 6 0 0 1 0 0 0 0 0 0 0 0 0 0 0 0 0 0 0 0 0 0 0 0 0 0 0 0 0 0 0 0 0 0 2 25 0 0 0 0 0 0 0 0 0 22 25 4 0 9 0 21 0 0 7 7 3 4 0 22 0 0 1 0 0 0 0 0 0 0 0 0 0 0 0 0 69 0 9 7 1 1 4 0 23 2 0 58 8 0 0 0 0 0 0 0 28 0 0 0 58 0 0 7 0 0 0 0 0 332 0 0 0 0 0 0 0 0 0 0 0 0 0 69 0 0 0 0 0 0 0 0 0 0 3 0 7 0 0 0 0 0 0 209 0 52 0 0 0 0 0 0 0 0 0 0 0 0 0 0 0 2 0 0 0 160 55 0 0 0 0 0 0 0 139 13 1 7 0 0 0 0 0 0 0 0 0 0 49 0 0 0 0 0 0 0 0 0 0 0 0 25 3 5 0 0 0 0 0 1 2 0 0 0 0 0 0 0 0 0 0 0 0 0 8 0 0 0 5 0 0 0 0 0 0 0 0 0 1 0 0 0 0 0 0 2 0 0 0 0 0 0 0 0 0 41 61 19 0 0 0 6 14 0 0 0 0 0 0 0 1 0 2 0 0 0 0 0 0 0 0 0 0 0 0 0 0 0 0 0 0 0 0 0 0 0 0 0 0 0 0 0 0 0 0 11 0 0 0 23 0 0 0 0 0 0 0 0 0 0 0 0 0 0 0 37 65 0 0 0 0 0 0 0 0 10 0 0 0 0 0 1 0 0 6 4 8 9 0 0 0 0 0 0 0 0 0 0 1 0 0 0 0 0 0 0 11 14 0 0 6 18 7 0 0 0 27 0 2 0 0 0 0 0 0 137 0 0 0 0 0 0 0 0 0 0 0 0 1 0 0 0 0 0 0 0 0 0 0 0 0 0 0 0 0 0 5 0 81 0 0 0 0 0 6 0 0 0 0 0 4 0 0 0 0 0 0 0 0 0 0 0 0 15 0 0 0 0 0 0 0 0 0 0 0 0 27 0 0 1 6 8 0 0 0 0 0 0 0 0 0 0 0 1 8 0 0 0 1 22 0 0 3 21 12 1 0 0 0 0 0 0 1 0 0 0 0 2 13 0 0 0 0 1 0 0 0 0 0 0 0 0 0 0 0 0 0 0 0 0 0 0 0 3 0 0 8 0 0 0 0 0 0 0 0 0 0 0 0 0 276 0 10 1 0 0 0 0 0 0 0 0 0 0 3 0 0 0 8 0 0 0 0 0 0 0 0 0 0 0 0 0 0 0 0 0 0 23 0 0 0 0 0 0 0 0 0 0 0 0 0 0 0 0 0 0 0 0 0 0 12 7 0 0 0 0 0 0 0 0 0 0 0 0 0 0 1 0 0 0 0 0 0 0 0 0 0 0 0 16 4 10 0 0 0 0 3 0 0 0 0 0 0 0 0 0 0 0 0 0 0 0 0 0 0 0 0 0 0 0 0 0 0 0 0 0 0 0 0 0 2 0 0 0 0 0 0 0 0 0 0 0 0 0 0 0 0 0 7 0 0 0 0 0 0 4 0 0 0 0 0 0 0 0 0 0 0 0 0 0 0 0 0 0 0 2 0 0 0 0 0 0 0 0 0 0 0 0 0 0 0 0 0 0 0 0 0 0 0 0 0 0 0 0 0 0 0 0 0 0 23 0 0 0 0 0 0 0 0 0 0 0 0 0 0 0 0 0 0 0 0 0 0 0 0 0 0 0 0 0 0 0 0 0 0 0 0 0 0 0 0 9 0 0 0 0 0 0 0 0 0 0 0 0 0 0 0 0 0 0 0 0 0 0 0 0 0 0 1 0 1 0 0 0 0 234 0 0 0 0 0 0 0 0 0 0 0 0 0 0 0 0 0 0 0 0 0 0 0 12 0 0 0 0 0 0 0 0 0 0 0 0 0 0 0 0 0 0 0 2 0 0 27 27 0 0 0 0 0 0 0 3 8 14 0 2 0 0 0 0 0 0 0 0 3 3 0 0 0 0 0 0 0 0 0 0 0 0 0 0 0 0 0 0 0 0 0 0 0 0 0 0 0 0 0 0 0 0 0 0 0 0 0 0 0 0 0 0 0 0 0 0 0 0 0 0 0 0 0 18 0 0 8 0 7 0 0 0 0 0 0 0 8 0 0 0 0 0 0 0 0 0 0 5 3 0 0 0 2 1 0 0 0 0 0 0 1 0 0 0 0 0 0 0 0 0 0 0 0 0 0 0 0 0 0 0 0 0 0 0 0 0 0 0 0 0 33 13 0 0 14 0 0 0 0 0 0 0 1 0 0 0 0 4 0 0 0 0 0 0 0 0 23 0 0 0 0 0 0 0 7 0 0 0 0 0 0 0 0 0 2 0 0 0 0 0 0 0 0 0 0 0 0 0 0 0 0 0 2 0 0 0 0 0 0 0 0 102 0 0 0 0 0 0 0 0 0 0 0 0 0 0 0 0 0 0 0 0 0 0 0 0 0 0 0 0 3 43 0 0 1 0 0 0 0 0 6 2 0 0 0 75 0 0 0 14 0 0 0 0 0 0 0 0 0 0 0 0 0 10 7 0 0 0 2 1 1 0 0 0 0 0 0 0 3 0 0 0 0 0 93 0 0 0 0 0 0 0 0 0 0 0 0 0 0 0 3 0 4 0 0 0 0 28 22 3 0 0 0 0 0 0 0 0 1 0 0 0 0 0 0 0 0 0 0 0 0 0 0 0 0 0 2 0 0 0 0 7 17 1 0 0 6 0 0 0 0 0 2 0 4 18 0 0 0 0 0 0 5 0 0 0 0 0 0 0 0 0 0 0 0 0 2 2 0 0 0 0 0 0 0 0 0 0 0 0 0 0 0 0 0 0 0 0 9 0 1 0 0 0 0 0 0 0 0 4 0 0 0 0 0 0 0 0 0 0 9 0 0 0 0 0 0 0 0 1 0 0 3 0 0 0 0 0 0 0 0 0 0 0 0 0 0 0 0 0 0 17 0 0 0 28 0 0 0 0 0 0 0 0 43 0 0 0 0 0 46 0 0 0 0 0 0 0 0 0 0 3 0 0 0 0 4 0 0 0 0 0 0 5 0 0 8 0 0 
Printing Sanity2
Heartbeat CPU 0 instructions: 180000001 cycles: 267123834 heartbeat IPC: 0.469901 cumulative IPC: 0.513744 (Simulation time: 0 hr 13 min 46 sec) 
*** Reached end of trace for Core: 0 Repeating trace: traces/spec2k17/srv_54.champsimtrace.xz
Heartbeat CPU 0 instructions: 190000002 cycles: 284384997 heartbeat IPC: 0.579335 cumulative IPC: 0.517932 (Simulation time: 0 hr 14 min 35 sec) 
Heartbeat CPU 0 instructions: 200000000 cycles: 302986492 heartbeat IPC: 0.537591 cumulative IPC: 0.519198 (Simulation time: 0 hr 15 min 26 sec) 
Heartbeat CPU 0 instructions: 210000000 cycles: 325963099 heartbeat IPC: 0.435225 cumulative IPC: 0.513012 (Simulation time: 0 hr 16 min 19 sec) 
*** Reached end of trace for Core: 0 Repeating trace: traces/spec2k17/srv_54.champsimtrace.xz
Heartbeat CPU 0 instructions: 220000000 cycles: 343379382 heartbeat IPC: 0.574175 cumulative IPC: 0.516247 (Simulation time: 0 hr 17 min 7 sec) 
Heartbeat CPU 0 instructions: 230000001 cycles: 359992384 heartbeat IPC: 0.601938 cumulative IPC: 0.520362 (Simulation time: 0 hr 17 min 54 sec) 
Heartbeat CPU 0 instructions: 240000002 cycles: 384875705 heartbeat IPC: 0.401876 cumulative IPC: 0.512411 (Simulation time: 0 hr 18 min 48 sec) 
*** Reached end of trace for Core: 0 Repeating trace: traces/spec2k17/srv_54.champsimtrace.xz
Heartbeat CPU 0 instructions: 250000000 cycles: 401840767 heartbeat IPC: 0.589447 cumulative IPC: 0.515781 (Simulation time: 0 hr 19 min 36 sec) 
Finished CPU 0 instructions: 200000002 cycles: 387761487 cumulative IPC: 0.515781 (Simulation time: 0 hr 19 min 36 sec) 

ChampSim completed all CPUs

Region of Interest Statistics

CPU 0 cumulative IPC: 0.515781 instructions: 200000002 cycles: 387761487
ITLB TOTAL     ACCESS:   33884311  HIT:   33285185  MISS:     599126  HIT %:    98.2318  MISS %:    1.76815   MPKI: 2.99563
ITLB LOAD TRANSLATION ACCESS:   33884311  HIT:   33285185  MISS:     599126  HIT %:    98.2318  MISS %:    1.76815   MPKI: 2.99563
ITLB PREFETCH  REQUESTED:          0  ISSUED:          0  USEFUL:          0  USELESS:          0
ITLB USEFUL LOAD PREFETCHES:          0 PREFETCH ISSUED TO LOWER LEVEL:          0  ACCURACY: -nan
ITLB TIMELY PREFETCHES:          0 LATE PREFETCHES: 0 DROPPED PREFETCHES: 0
ITLB PREFETCHES SAME FILL-ORIGIN LEVEL: 0 DIFFERENT FILL-ORIGIN LEVEL: 0
ITLB AVERAGE MISS LATENCY: 10.6245 cycles
ITLB RQ	ACCESS:   38514840	FORWARD:          0	MERGED:    4457787	TO_CACHE:   34057053

DTLB TOTAL     ACCESS:   39075315  HIT:   38450291  MISS:     625024  HIT %:    98.4005  MISS %:    1.59954   MPKI: 3.12512
DTLB LOAD TRANSLATION ACCESS:   39075315  HIT:   38450291  MISS:     625024  HIT %:    98.4005  MISS %:    1.59954   MPKI: 3.12512
DTLB PREFETCH  REQUESTED:          0  ISSUED:          0  USEFUL:          0  USELESS:          0
DTLB USEFUL LOAD PREFETCHES:          0 PREFETCH ISSUED TO LOWER LEVEL:          0  ACCURACY: -nan
DTLB TIMELY PREFETCHES:          0 LATE PREFETCHES: 0 DROPPED PREFETCHES: 0
DTLB PREFETCHES SAME FILL-ORIGIN LEVEL: 0 DIFFERENT FILL-ORIGIN LEVEL: 0
DTLB AVERAGE MISS LATENCY: 16.2165 cycles
DTLB RQ	ACCESS:   51323999	FORWARD:          0	MERGED:   12200011	TO_CACHE:   39123988

STLB TOTAL     ACCESS:    1404546  HIT:    1326482  MISS:      78064  HIT %:     94.442  MISS %:    5.55795   MPKI: 0.39032
STLB LOAD TRANSLATION ACCESS:    1224150  HIT:    1146333  MISS:      77817  HIT %:    93.6432  MISS %:    6.35682   MPKI: 0.389085
STLB TRANSLATION FROM L1D PREFETCHER ACCESS:     180396  HIT:     180149  MISS:        247  HIT %:    99.8631  MISS %:   0.136921   MPKI: 0.001235
STLB PREFETCH  REQUESTED:          0  ISSUED:          0  USEFUL:        215  USELESS:         32
STLB USEFUL LOAD PREFETCHES:        215 PREFETCH ISSUED TO LOWER LEVEL:          0  ACCURACY: inf
STLB TIMELY PREFETCHES:        215 LATE PREFETCHES: 10 DROPPED PREFETCHES: 796
STLB PREFETCHES SAME FILL-ORIGIN LEVEL: 0 DIFFERENT FILL-ORIGIN LEVEL: 0
STLB AVERAGE MISS LATENCY: 70.2711 cycles
STLB RQ	ACCESS:    1422611	FORWARD:          0	MERGED:      17253	TO_CACHE:    1405358

STLB Hit, L1D data hit: 0
STLB Hit, L2C data hit: 0
STLB Hit, LLC data hit: 0
STLB Hit, LLC data miss: 0
STLB STLB hints to L2: 0
L1D TOTAL     ACCESS:   50609134  HIT:   48835816  MISS:    1773318  HIT %:    96.4961  MISS %:    3.50395   MPKI: 8.86659
L1D LOAD      ACCESS:   31232089  HIT:   30129311  MISS:    1102778  HIT %:    96.4691  MISS %:    3.53091   MPKI: 5.51389
L1D RFO       ACCESS:   19203151  HIT:   18672749  MISS:     530402  HIT %:    97.2379  MISS %:    2.76206   MPKI: 2.65201
L1D PREFETCH  ACCESS:     173894  HIT:      33756  MISS:     140138  HIT %:    19.4118  MISS %:    80.5882   MPKI: 0.70069
AGUS PREFETCH L1 MISS: 0
L1D PREFETCH  REQUESTED:     401121  ISSUED:     401121  USEFUL:      36122  USELESS:     104016
L1D USEFUL LOAD PREFETCHES:      36122 PREFETCH ISSUED TO LOWER LEVEL:     144836  ACCURACY: 24.9399
L1D TIMELY PREFETCHES:      36122 LATE PREFETCHES: 4274 DROPPED PREFETCHES: 796
L1D PREFETCHES SAME FILL-ORIGIN LEVEL: 144836 DIFFERENT FILL-ORIGIN LEVEL: 0
L1D AVERAGE MISS LATENCY: 860718 cycles
L1D RQ	ACCESS:   43761551	FORWARD:          0	MERGED:   12120342	TO_CACHE:   31327114
L1D WQ	ACCESS:   20218308	FORWARD:     314156	MERGED:     221423	TO_CACHE:   19996885
L1D PQ	ACCESS:     202660	FORWARD:          0	MERGED:       4138	TO_CACHE:     198461

L1D UNIQUE REGIONS ACCESSED: 0
L1D REGIONS CONFLICTS: 0
L1D Cross Page Prefetch Requests: 202660
L1D Same Page Prefetch Requests: 0
L1D ROI Sum of L1D PQ occupancy: 2699654
L1D PREFETCHES PUSHED FROM L2C: 0
L1I TOTAL     ACCESS:   37977303  HIT:   34694051  MISS:    3283252  HIT %:    91.3547  MISS %:     8.6453   MPKI: 16.4163
L1I LOAD      ACCESS:   37977303  HIT:   34694051  MISS:    3283252  HIT %:    91.3547  MISS %:     8.6453   MPKI: 16.4163
L1I PREFETCH  REQUESTED:          0  ISSUED:          0  USEFUL:          0  USELESS:          0
L1I USEFUL LOAD PREFETCHES:          0 PREFETCH ISSUED TO LOWER LEVEL:          0  ACCURACY: -nan
L1I TIMELY PREFETCHES:          0 LATE PREFETCHES: 0 DROPPED PREFETCHES: 0
L1I PREFETCHES SAME FILL-ORIGIN LEVEL: 0 DIFFERENT FILL-ORIGIN LEVEL: 0
L1I AVERAGE MISS LATENCY: 22.3449 cycles
L1I RQ	ACCESS:   60215848	FORWARD:          0	MERGED:   21701008	TO_CACHE:   38514840

BTB TOTAL     ACCESS:   31119945  HIT:   26685031  MISS:    4434914  HIT %:     85.749  MISS %:     14.251   MPKI: 22.1746
BTB BRANCH_DIRECT_JUMP	ACCESS:    3483278  HIT:    3224169  MISS:     259109
BTB BRANCH_INDIRECT	ACCESS:   12132846  HIT:   10375979  MISS:    1756867
BTB BRANCH_CONDITIONAL	ACCESS:    9258792  HIT:    8942003  MISS:     316789
BTB BRANCH_DIRECT_CALL	ACCESS:    2660044  HIT:    2167295  MISS:     492749
BTB BRANCH_INDIRECT_CALL	ACCESS:     462477  HIT:     321593  MISS:     140884
BTB BRANCH_RETURN	ACCESS:    3122508  HIT:    1653992  MISS:    1468516
BTB BRANCH_OTHER ACCESS:          0  HIT:          0  MISS:          0

L2C TOTAL     ACCESS:    6075495  HIT:    4180895  MISS:    1894600  HIT %:    68.8157  MISS %:    31.1843   MPKI: 9.473
L2C LOAD      ACCESS:    4381743  HIT:    3015238  MISS:    1366505  HIT %:    68.8137  MISS %:    31.1863   MPKI: 6.83252
L2C DATA LOAD MPKI: 2.50041
L2C INSTRUCTION LOAD MPKI: 4.33211
L2C RFO       ACCESS:     529964  HIT:     209558  MISS:     320406  HIT %:    39.5419  MISS %:    60.4581   MPKI: 1.60203
L2C PREFETCH  ACCESS:     144834  HIT:      59157  MISS:      85677  HIT %:    40.8447  MISS %:    59.1553   MPKI: 0.428385
AGUS PREFETCH L1 MISS: 0
L2C DATA PREFETCH MPKI: 0.428385
L2C INSTRUCTION PREFETCH MPKI: 0
L2C WRITEBACK ACCESS:     899984  HIT:     845042  MISS:      54942  HIT %:    93.8952  MISS %:    6.10478   MPKI: 0.27471
L2C LOAD TRANSLATION ACCESS:     117428  HIT:      51001  MISS:      66427  HIT %:    43.4317  MISS %:    56.5683   MPKI: 0.332135
L2C TRANSLATION FROM L1D PREFETCHER ACCESS:       1542  HIT:        899  MISS:        643  HIT %:    58.3009  MISS %:    41.6991   MPKI: 0.003215
L2C PREFETCH  REQUESTED:          0  ISSUED:          0  USEFUL:       7082  USELESS:      78818
L2C USEFUL LOAD PREFETCHES:       7082 PREFETCH ISSUED TO LOWER LEVEL:      85677  ACCURACY: 8.26593
L2C TIMELY PREFETCHES:       7082 LATE PREFETCHES: 0 DROPPED PREFETCHES: 0
L2C PREFETCHES SAME FILL-ORIGIN LEVEL: 0 DIFFERENT FILL-ORIGIN LEVEL: 0
L2C AVERAGE MISS LATENCY: 59.6258 cycles
L2C RQ	ACCESS:    5030704	FORWARD:          0	MERGED:          0	TO_CACHE:    5030678
L2C WQ	ACCESS:     899984	FORWARD:         28	MERGED:          0	TO_CACHE:     899984
L2C PQ	ACCESS:     144836	FORWARD:          0	MERGED:          0	TO_CACHE:     144834

L2C Instructions Evicting Data 425505
L2C Translations Evicting Data 33630
L2C Data Evicting Data 472847
L2C Instructions Evicting Instructions 410456
L2C Translations Evicting Instructions 30671
L2C Data Evicting Instructions 400818
L2C Instructions Evicting Translations 30462
L2C Translations Evicting Translations 2769
L2C Data Evicting Translations 32500
L2C Dense regions hint from L2: 0
PSCL5 TOTAL     ACCESS:      78860  HIT:      78860  MISS:          0  HIT %:        100  MISS %:          0   MPKI: 0
PSCL5 LOAD TRANSLATION ACCESS:      77807  HIT:      77807  MISS:          0  HIT %:        100  MISS %:          0   MPKI: 0
PSCL5 TRANSLATION FROM L1D PREFETCHER ACCESS:       1053  HIT:       1053  MISS:          0  HIT %:        100  MISS %:          0   MPKI: 0
PSCL5 PREFETCH  REQUESTED:          0  ISSUED:          0  USEFUL:          0  USELESS:          0
PSCL5 USEFUL LOAD PREFETCHES:          0 PREFETCH ISSUED TO LOWER LEVEL:          0  ACCURACY: -nan
PSCL5 TIMELY PREFETCHES:          0 LATE PREFETCHES: 0 DROPPED PREFETCHES: 0
PSCL5 PREFETCHES SAME FILL-ORIGIN LEVEL: 0 DIFFERENT FILL-ORIGIN LEVEL: 0

PSCL4 TOTAL     ACCESS:      77192  HIT:      76638  MISS:        554  HIT %:    99.2823  MISS %:   0.717691   MPKI: 0.00277
PSCL4 LOAD TRANSLATION ACCESS:      76193  HIT:      75639  MISS:        554  HIT %:    99.2729  MISS %:   0.727101   MPKI: 0.00277
PSCL4 TRANSLATION FROM L1D PREFETCHER ACCESS:        999  HIT:        999  MISS:          0  HIT %:        100  MISS %:          0   MPKI: 0
PSCL4 PREFETCH  REQUESTED:          0  ISSUED:          0  USEFUL:          0  USELESS:          0
PSCL4 USEFUL LOAD PREFETCHES:          0 PREFETCH ISSUED TO LOWER LEVEL:          0  ACCURACY: -nan
PSCL4 TIMELY PREFETCHES:          0 LATE PREFETCHES: 0 DROPPED PREFETCHES: 0
PSCL4 PREFETCHES SAME FILL-ORIGIN LEVEL: 0 DIFFERENT FILL-ORIGIN LEVEL: 0

PSCL3 TOTAL     ACCESS:      72342  HIT:      62054  MISS:      10288  HIT %:    85.7787  MISS %:    14.2213   MPKI: 0.05144
PSCL3 LOAD TRANSLATION ACCESS:      71486  HIT:      61198  MISS:      10288  HIT %:    85.6084  MISS %:    14.3916   MPKI: 0.05144
PSCL3 TRANSLATION FROM L1D PREFETCHER ACCESS:        856  HIT:        856  MISS:          0  HIT %:        100  MISS %:          0   MPKI: 0
PSCL3 PREFETCH  REQUESTED:          0  ISSUED:          0  USEFUL:          0  USELESS:          0
PSCL3 USEFUL LOAD PREFETCHES:          0 PREFETCH ISSUED TO LOWER LEVEL:          0  ACCURACY: -nan
PSCL3 TIMELY PREFETCHES:          0 LATE PREFETCHES: 0 DROPPED PREFETCHES: 0
PSCL3 PREFETCHES SAME FILL-ORIGIN LEVEL: 0 DIFFERENT FILL-ORIGIN LEVEL: 0

PSCL2 TOTAL     ACCESS:      78582  HIT:      49746  MISS:      28836  HIT %:    63.3046  MISS %:    36.6954   MPKI: 0.14418
PSCL2 LOAD TRANSLATION ACCESS:      77851  HIT:      49015  MISS:      28836  HIT %:      62.96  MISS %:      37.04   MPKI: 0.14418
PSCL2 TRANSLATION FROM L1D PREFETCHER ACCESS:        731  HIT:        731  MISS:          0  HIT %:        100  MISS %:          0   MPKI: 0
PSCL2 PREFETCH  REQUESTED:          0  ISSUED:          0  USEFUL:          0  USELESS:          0
PSCL2 USEFUL LOAD PREFETCHES:          0 PREFETCH ISSUED TO LOWER LEVEL:          0  ACCURACY: -nan
PSCL2 TIMELY PREFETCHES:          0 LATE PREFETCHES: 0 DROPPED PREFETCHES: 0
PSCL2 PREFETCHES SAME FILL-ORIGIN LEVEL: 0 DIFFERENT FILL-ORIGIN LEVEL: 0

LLC TOTAL     ACCESS:    2335649  HIT:    2040803  MISS:     294846  HIT %:    87.3763  MISS %:    12.6237   MPKI: 1.47423
LLC LOAD      ACCESS:    1366505  HIT:    1223245  MISS:     143260  HIT %:    89.5163  MISS %:    10.4837   MPKI: 0.7163
LLC RFO       ACCESS:     320406  HIT:     199960  MISS:     120446  HIT %:    62.4083  MISS %:    37.5917   MPKI: 0.60223
LLC PREFETCH  ACCESS:      85676  HIT:      64817  MISS:      20859  HIT %:    75.6536  MISS %:    24.3464   MPKI: 0.104295
AGUS PREFETCH L1 MISS: 0
LLC WRITEBACK ACCESS:     495992  HIT:     494111  MISS:       1881  HIT %:    99.6208  MISS %:    0.37924   MPKI: 0.009405
LLC LOAD TRANSLATION ACCESS:      66427  HIT:      58103  MISS:       8324  HIT %:     87.469  MISS %:     12.531   MPKI: 0.04162
LLC TRANSLATION FROM L1D PREFETCHER ACCESS:        643  HIT:        567  MISS:         76  HIT %:    88.1804  MISS %:    11.8196   MPKI: 0.00038
LLC PREFETCH  REQUESTED:          0  ISSUED:          0  USEFUL:       1791  USELESS:      15757
LLC USEFUL LOAD PREFETCHES:       1791 PREFETCH ISSUED TO LOWER LEVEL:      20859  ACCURACY: 8.58622
LLC TIMELY PREFETCHES:       1791 LATE PREFETCHES: 0 DROPPED PREFETCHES: 0
LLC PREFETCHES SAME FILL-ORIGIN LEVEL: 0 DIFFERENT FILL-ORIGIN LEVEL: 0
LLC AVERAGE MISS LATENCY: 195.953 cycles
LLC RQ	ACCESS:    1753981	FORWARD:          0	MERGED:          0	TO_CACHE:    1753981
LLC WQ	ACCESS:     495992	FORWARD:          1	MERGED:          0	TO_CACHE:     495992
LLC PQ	ACCESS:      85677	FORWARD:          0	MERGED:          0	TO_CACHE:      85676

LLC Dense regions hint to LLC: 0

RAW hits: 2291540
Loads Generated: 46053091
Loads sent to L1D: 43761551
Stores Generated: 20218330
Stores sent to L1D: 20218308
Major fault: 0 Minor fault: 4930
Allocated PAGES: 4930
CPU 0 L1D 
Prefetch count 347496 BOP and RL 

DRAM Statistics
 CHANNEL 0
 RQ ROW_BUFFER_HIT:      64595  ROW_BUFFER_MISS:     228366
 DBUS_CONGESTED:        104
 WQ ROW_BUFFER_HIT:      28024  ROW_BUFFER_MISS:     168151  FULL:          0

 AVG_CONGESTED_CYCLE: 4
 All warmup complete: 2
Channel 0 Bank busy for read cycles: 0
Channel 0 Bank busy for write cycles: 0
Channel 0
Rank 0
0banks busy for read cycles: 345456813
0banks busy for write cycles: 81193
1banks busy for read cycles: 18238936
1banks busy for write cycles: 11261185
2banks busy for read cycles: 3959130
2banks busy for write cycles: 3098958
3banks busy for read cycles: 882725
3banks busy for write cycles: 1205094
4banks busy for read cycles: 254773
4banks busy for write cycles: 529856
5banks busy for read cycles: 116270
5banks busy for write cycles: 272243
6banks busy for read cycles: 124661
6banks busy for write cycles: 152848
7banks busy for read cycles: 181375
7banks busy for write cycles: 169429
8banks busy for read cycles: 663516
8banks busy for write cycles: 1112483

CPU 0 Branch Prediction Accuracy: 99.6389% MPKI: 0.649475 Average ROB Occupancy at Mispredict: 29.0451
Branch types
NOT_BRANCH: 164024582 82.0123%
BRANCH_DIRECT_JUMP: 3483278 1.74164%
BRANCH_INDIRECT: 12132846 6.06642%
BRANCH_CONDITIONAL: 14114305 7.05715%
BRANCH_DIRECT_CALL: 2660044 1.33002%
BRANCH_INDIRECT_CALL: 462477 0.231238%
BRANCH_RETURN: 3122508 1.56125%
BRANCH_OTHER: 0 0%

DRAM PAGES: 1048576
Allocated PAGES: 4930
