
*** ChampSim Multicore Out-of-Order Simulator ***

Warmup Instructions: 50000000
Simulation Instructions: 200000000
Number of CPUs: 1
LLC sets: 2048
LLC ways: 16
Off-chip DRAM Size: 4096 MB Channels: 1 Width: 64-bit Data Rate: 6400 MT/s
CPU 0 runs traces/spec2k17/srv_68.champsimtrace.xz
.xz
BTB has LRU replacement policy
ITLB has LRU replacement policy
DTLB has LRU replacement policy
STLB has LRU replacement policy
L1I has LRU replacement policy
CPU 0 l1d next line prefetcher
L1D has LRU replacement policy
Initialize SRRIP state for L2C
Initialize DRRIP state for LLC
Offsets elements: 
Potential of Offsets elements: 
rewards of Offsets elements: 
Printing Sanity1
offset list size2273
Heartbeat CPU 0 instructions: 10000002 cycles: 2768118 heartbeat IPC: 3.61256 cumulative IPC: 3.61256 (Simulation time: 0 hr 0 min 32 sec) 
Heartbeat CPU 0 instructions: 20000003 cycles: 5532203 heartbeat IPC: 3.61783 cumulative IPC: 3.6152 (Simulation time: 0 hr 1 min 6 sec) 
Heartbeat CPU 0 instructions: 30000003 cycles: 8297098 heartbeat IPC: 3.61677 cumulative IPC: 3.61572 (Simulation time: 0 hr 1 min 40 sec) 
*** Reached end of trace for Core: 0 Repeating trace: traces/spec2k17/srv_68.champsimtrace.xz
Heartbeat CPU 0 instructions: 40000001 cycles: 11058502 heartbeat IPC: 3.62135 cumulative IPC: 3.61713 (Simulation time: 0 hr 2 min 14 sec) 
Heartbeat CPU 0 instructions: 50000000 cycles: 13822160 heartbeat IPC: 3.61839 cumulative IPC: 3.61738 (Simulation time: 0 hr 2 min 47 sec) 

Warmup complete CPU 0 instructions: 50000004 cycles: 13822161 (Simulation time: 0 hr 2 min 47 sec) 

Heartbeat CPU 0 instructions: 60000001 cycles: 36345224 heartbeat IPC: 0.443989 cumulative IPC: 0.443989 (Simulation time: 0 hr 3 min 38 sec) 
*** Reached end of trace for Core: 0 Repeating trace: traces/spec2k17/srv_68.champsimtrace.xz
Heartbeat CPU 0 instructions: 70000003 cycles: 58198927 heartbeat IPC: 0.457588 cumulative IPC: 0.450686 (Simulation time: 0 hr 4 min 31 sec) 
Heartbeat CPU 0 instructions: 80000001 cycles: 80207194 heartbeat IPC: 0.454375 cumulative IPC: 0.451909 (Simulation time: 0 hr 5 min 24 sec) 
Heartbeat CPU 0 instructions: 90000000 cycles: 102890510 heartbeat IPC: 0.440853 cumulative IPC: 0.449093 (Simulation time: 0 hr 6 min 16 sec) 
*** Reached end of trace for Core: 0 Repeating trace: traces/spec2k17/srv_68.champsimtrace.xz
Heartbeat CPU 0 instructions: 100000001 cycles: 124297635 heartbeat IPC: 0.467134 cumulative IPC: 0.452589 (Simulation time: 0 hr 7 min 5 sec) 
Offsets elements: 
Potential of Offsets elements: 
rewards of Offsets elements: 0 0 0 0 0 0 2 0 0 0 0 0 0 0 0 0 0 0 0 0 0 3 0 166 0 0 0 0 0 2 0 0 0 16 0 1 141 3 12 0 0 0 1 3 0 0 0 0 1 4 153 0 0 0 0 0 2 0 0 0 0 0 6 0 0 0 0 0 0 0 0 0 0 0 0 0 9 0 0 0 0 0 0 0 0 0 0 0 2 0 0 0 0 0 100 0 30 0 0 0 0 0 0 180 0 0 0 81 205 0 53 0 0 0 1 0 0 0 0 2 0 0 0 0 0 0 0 0 0 0 0 0 0 0 0 0 0 1 1 0 0 0 0 0 0 0 3 3 0 0 1 0 0 0 0 0 0 0 0 0 0 0 0 0 0 0 0 93 11 11 0 45 0 0 0 0 0 72 6 0 0 0 0 0 0 0 71 0 0 0 0 0 0 0 0 0 0 0 0 0 0 0 0 0 0 0 0 0 0 3 33 0 0 0 0 0 0 0 0 0 1 1 0 0 0 0 0 0 0 0 0 0 0 0 0 0 3 0 0 0 0 0 0 0 0 0 0 0 2 0 85 0 6 0 0 0 0 0 0 0 0 0 0 1 0 0 0 0 0 0 0 0 0 0 0 0 1 0 184 0 0 0 0 0 0 0 0 0 0 0 0 0 0 0 0 0 0 0 0 0 0 0 0 0 0 67 4 0 0 1 0 8 0 0 108 8 31 0 0 3 0 0 0 0 0 2 2 0 2 2 0 1 0 0 0 0 0 0 0 0 0 0 0 0 0 0 0 3 0 0 0 0 0 0 0 0 0 0 0 0 0 0 0 0 0 0 0 0 0 0 0 0 0 0 0 0 0 0 0 4 0 0 0 0 0 0 0 0 0 0 0 0 0 0 0 0 0 0 0 0 0 0 0 0 0 0 0 0 0 0 0 0 0 0 0 0 0 4 0 0 0 0 1 2 0 0 0 0 0 0 0 0 0 1 0 0 0 0 0 0 0 4 3 0 0 0 0 0 0 0 1 5 0 0 9 0 0 1 0 0 0 0 0 0 0 0 0 1 0 0 0 2 2 0 0 0 0 0 0 0 0 0 0 0 0 0 0 0 0 0 1 0 0 0 0 0 0 0 0 0 0 0 0 0 0 0 0 2 0 0 0 0 0 0 0 0 0 0 0 1 0 0 0 0 0 0 0 0 0 0 0 20 0 1 0 0 0 0 0 0 0 0 0 0 0 0 0 0 0 0 0 0 0 0 0 0 0 0 0 1 0 30 1 0 0 0 0 0 0 0 0 0 0 0 0 0 0 0 0 0 2 0 0 2 0 0 7 0 0 0 2 1 0 0 0 0 0 0 0 0 0 0 8 0 70 0 0 0 22 0 0 0 0 0 0 0 0 0 0 0 0 0 0 0 6 53 0 0 0 0 0 0 3 0 0 0 0 0 0 0 0 0 0 0 0 0 2 0 0 0 0 0 0 0 0 0 0 0 0 8 7 0 0 0 0 0 0 0 0 0 0 1 9 0 0 0 0 14 0 0 0 0 0 0 0 0 0 0 0 0 0 0 0 0 0 1 0 19 9 0 20 0 0 0 0 0 0 0 0 0 0 0 0 0 0 0 19 0 0 2 0 0 0 0 0 0 0 0 0 0 0 0 0 0 0 0 0 0 0 25 0 0 0 0 0 0 0 0 0 0 0 0 0 0 0 0 0 0 0 0 0 0 2 0 0 0 0 0 0 1 0 0 0 0 0 0 0 0 0 0 0 0 0 0 0 0 0 0 0 0 0 0 0 59 0 0 95 0 0 0 0 0 0 0 0 0 0 0 0 0 0 0 0 0 0 0 0 0 0 0 7 0 0 0 0 0 0 0 0 0 2 0 0 0 10 0 0 0 1 2 0 0 0 0 0 0 0 0 0 0 0 0 0 0 0 0 0 0 0 0 0 0 0 0 0 0 0 0 0 0 0 0 0 0 0 0 0 0 0 0 0 0 0 0 2 0 0 0 0 0 0 0 0 0 0 0 0 0 0 0 0 0 0 1 0 0 1 0 0 0 0 0 0 0 0 0 0 0 1 0 0 0 0 0 2 0 0 0 0 0 0 0 0 0 1 0 0 0 0 0 0 0 0 0 0 0 9 0 0 0 0 0 0 0 0 0 3 0 0 0 0 0 2 0 0 0 0 0 0 0 0 0 0 0 0 0 0 46 0 0 0 0 0 0 2 0 127 0 0 0 0 0 3 0 0 0 0 0 0 0 0 1 0 3 0 1 0 77 0 0 0 0 0 0 0 0 0 0 0 0 0 0 0 0 0 0 0 0 0 0 0 0 8 0 0 0 0 0 0 35 0 0 0 0 0 0 0 7 8 32 0 0 0 0 0 0 0 0 0 0 0 0 1 0 0 0 0 0 0 0 0 0 0 0 0 0 0 0 0 0 0 0 0 0 0 0 2 0 5 5 0 0 0 0 0 0 0 0 0 0 1 0 0 0 0 7 31 0 0 0 0 0 0 0 0 0 0 48 0 0 0 0 0 0 0 0 0 0 0 0 0 0 0 0 0 0 0 0 0 0 0 0 0 0 2 0 1 0 0 0 0 0 0 0 0 0 0 0 0 0 0 0 0 0 0 0 0 0 0 0 0 0 0 0 0 0 0 0 0 1 0 0 0 0 0 0 0 0 0 0 0 0 0 0 0 0 0 0 0 0 0 0 0 0 0 0 0 0 0 0 0 0 0 0 0 3 1 0 0 0 0 0 0 142 93 0 0 0 0 0 0 0 0 0 0 0 0 0 0 0 0 0 11 0 0 20 307 0 0 0 0 0 0 0 0 0 0 0 0 0 0 0 0 0 0 0 0 0 0 0 0 0 0 0 0 0 0 0 2 0 0 0 0 0 0 0 0 0 0 0 0 0 0 0 0 1 0 0 0 0 0 1 0 0 0 0 0 0 0 0 0 0 0 0 72 0 0 0 0 0 0 0 0 0 0 0 0 0 5 0 8 0 7 28 1 0 0 0 0 0 0 2 3 0 0 0 0 0 0 0 0 0 1 0 0 0 0 0 0 6 15 10 0 0 0 0 29 0 0 0 0 0 0 0 0 0 0 0 0 0 1 0 0 5 0 0 0 3 0 0 0 0 0 0 0 2 0 0 0 0 0 0 0 0 0 0 0 0 4 0 0 0 0 5 2 0 0 0 0 0 0 29 0 0 0 0 0 0 0 2 0 26 48 23 0 0 0 0 0 0 0 4 0 0 0 0 0 0 0 0 0 0 0 2 0 0 0 0 0 0 0 0 3 2 94 0 1 1 30 1 0 0 0 0 0 10 0 0 0 0 0 0 70 6 0 0 0 0 0 0 8 0 0 0 162 0 0 41 0 0 2 2 0 0 0 0 0 0 73 0 0 0 0 0 0 0 0 0 0 0 0 0 3 0 0 0 0 0 0 0 0 0 0 0 0 1 0 0 0 0 0 0 0 0 0 0 0 0 0 0 0 0 0 0 0 0 0 0 0 0 0 0 0 0 0 0 0 0 0 0 0 1 0 1 0 0 4 0 2 0 0 0 0 0 0 0 0 0 0 0 0 0 0 0 3 1 45 17 0 0 0 0 4 0 37 0 0 0 0 0 0 0 0 0 11 0 0 0 0 0 0 0 0 0 4 0 0 0 0 0 0 0 0 0 0 0 0 0 0 0 0 0 0 0 0 0 0 0 0 0 0 0 3 0 0 0 0 0 0 0 0 0 0 0 0 17 0 0 0 0 0 0 0 0 1 1 0 0 0 0 0 0 0 0 0 0 0 0 0 0 0 0 0 0 0 0 0 0 0 0 0 0 0 0 0 0 0 0 0 0 0 0 0 0 0 0 0 0 0 0 0 1 0 0 0 0 1 0 0 5 0 0 0 0 0 0 0 0 0 0 0 0 0 0 0 0 0 0 2 0 0 0 0 0 0 0 0 0 0 0 2 1 0 0 0 0 0 0 0 0 0 0 1 0 0 0 0 0 0 0 0 0 0 0 0 0 0 0 0 0 0 1 0 0 0 12 4 65 2 0 0 0 0 0 1 3 0 0 0 0 0 0 0 0 0 0 0 0 0 0 0 0 0 0 0 0 3 0 0 0 0 0 0 0 0 0 0 0 0 0 0 0 0 0 45 0 0 0 0 0 0 0 0 0 0 0 0 0 0 0 0 0 0 0 0 0 0 0 0 0 0 0 0 0 0 0 0 0 0 0 0 0 0 0 0 0 0 0 0 0 0 0 0 0 0 0 0 0 0 1 0 0 0 0 0 0 0 0 0 0 0 0 0 0 0 2 0 0 0 0 0 0 0 0 0 0 0 2 0 0 0 0 0 0 0 0 0 0 0 0 0 0 0 0 0 9 0 1 0 0 0 0 4 0 0 0 0 0 0 0 0 1 0 0 0 0 0 0 0 0 0 0 5 0 1 0 0 0 0 0 0 0 0 0 0 0 0 0 0 0 8 0 0 0 0 0 0 0 0 0 0 0 0 2 0 0 0 0 0 0 0 0 0 0 2 0 0 0 0 0 0 0 0 13 15 18 8 0 0 0 0 0 0 0 0 0 0 0 0 0 0 0 0 0 0 0 0 0 0 0 0 0 0 0 0 0 0 0 0 0 0 0 0 0 0 0 0 0 0 0 0 0 0 0 0 0 0 0 0 0 0 0 0 0 0 0 0 0 0 0 0 0 0 0 0 0 0 0 0 0 0 0 0 0 0 0 0 0 2 0 0 0 0 0 0 0 0 0 0 0 0 2 0 0 0 0 0 0 1 0 0 1 1 0 0 0 0 0 0 3 0 0 7 0 0 0 0 0 2 0 0 0 0 0 0 0 0 0 0 0 0 0 0 0 0 0 0 0 0 0 0 4 0 0 0 0 0 0 0 0 0 0 0 0 0 0 0 0 0 0 0 0 0 0 0 0 0 0 0 0 0 0 0 0 0 0 2 0 1 1 0 0 0 0 0 0 0 0 0 0 3 0 0 0 0 0 0 2 0 1 0 0 0 0 0 0 0 0 0 3 0 0 0 0 0 0 0 0 0 1 0 1 0 0 0 0 0 7 0 0 0 0 8 0 1 0 0 0 0 0 0 0 0 
Printing Sanity2
Heartbeat CPU 0 instructions: 110000000 cycles: 146626548 heartbeat IPC: 0.44785 cumulative IPC: 0.451792 (Simulation time: 0 hr 8 min 0 sec) 
Heartbeat CPU 0 instructions: 120000001 cycles: 169172476 heartbeat IPC: 0.443539 cumulative IPC: 0.450594 (Simulation time: 0 hr 8 min 50 sec) 
*** Reached end of trace for Core: 0 Repeating trace: traces/spec2k17/srv_68.champsimtrace.xz
Heartbeat CPU 0 instructions: 130000001 cycles: 190538478 heartbeat IPC: 0.468033 cumulative IPC: 0.452703 (Simulation time: 0 hr 9 min 46 sec) 
Heartbeat CPU 0 instructions: 140000000 cycles: 213019476 heartbeat IPC: 0.44482 cumulative IPC: 0.451813 (Simulation time: 0 hr 10 min 40 sec) 
Heartbeat CPU 0 instructions: 150000002 cycles: 235511431 heartbeat IPC: 0.444604 cumulative IPC: 0.451082 (Simulation time: 0 hr 11 min 34 sec) 
*** Reached end of trace for Core: 0 Repeating trace: traces/spec2k17/srv_68.champsimtrace.xz
Heartbeat CPU 0 instructions: 160000001 cycles: 257100049 heartbeat IPC: 0.463207 cumulative IPC: 0.452158 (Simulation time: 0 hr 12 min 27 sec) 
Heartbeat CPU 0 instructions: 170000000 cycles: 279481483 heartbeat IPC: 0.446799 cumulative IPC: 0.451706 (Simulation time: 0 hr 13 min 21 sec) 
Heartbeat CPU 0 instructions: 180000001 cycles: 302025619 heartbeat IPC: 0.443574 cumulative IPC: 0.45107 (Simulation time: 0 hr 14 min 14 sec) 
*** Reached end of trace for Core: 0 Repeating trace: traces/spec2k17/srv_68.champsimtrace.xz
Heartbeat CPU 0 instructions: 190000000 cycles: 323592435 heartbeat IPC: 0.463675 cumulative IPC: 0.451948 (Simulation time: 0 hr 14 min 56 sec) 
Heartbeat CPU 0 instructions: 200000000 cycles: 345702034 heartbeat IPC: 0.452292 cumulative IPC: 0.451971 (Simulation time: 0 hr 15 min 40 sec) 
Heartbeat CPU 0 instructions: 210000000 cycles: 368382335 heartbeat IPC: 0.440911 cumulative IPC: 0.451263 (Simulation time: 0 hr 16 min 14 sec) 
*** Reached end of trace for Core: 0 Repeating trace: traces/spec2k17/srv_68.champsimtrace.xz
Heartbeat CPU 0 instructions: 220000000 cycles: 389743435 heartbeat IPC: 0.468141 cumulative IPC: 0.452222 (Simulation time: 0 hr 16 min 46 sec) 
Heartbeat CPU 0 instructions: 230000001 cycles: 412061895 heartbeat IPC: 0.44806 cumulative IPC: 0.451989 (Simulation time: 0 hr 17 min 17 sec) 
Heartbeat CPU 0 instructions: 240000002 cycles: 434605863 heartbeat IPC: 0.443578 cumulative IPC: 0.451538 (Simulation time: 0 hr 17 min 48 sec) 
*** Reached end of trace for Core: 0 Repeating trace: traces/spec2k17/srv_68.champsimtrace.xz
Heartbeat CPU 0 instructions: 250000002 cycles: 456018127 heartbeat IPC: 0.467022 cumulative IPC: 0.452288 (Simulation time: 0 hr 18 min 19 sec) 
Finished CPU 0 instructions: 200000002 cycles: 442195967 cumulative IPC: 0.452288 (Simulation time: 0 hr 18 min 19 sec) 

ChampSim completed all CPUs

Region of Interest Statistics

CPU 0 cumulative IPC: 0.452288 instructions: 200000002 cycles: 442195967
ITLB TOTAL     ACCESS:   31179348  HIT:   30443636  MISS:     735712  HIT %:    97.6404  MISS %:    2.35961   MPKI: 3.67856
ITLB LOAD TRANSLATION ACCESS:   31179348  HIT:   30443636  MISS:     735712  HIT %:    97.6404  MISS %:    2.35961   MPKI: 3.67856
ITLB PREFETCH  REQUESTED:          0  ISSUED:          0  USEFUL:          0  USELESS:          0
ITLB USEFUL LOAD PREFETCHES:          0 PREFETCH ISSUED TO LOWER LEVEL:          0  ACCURACY: -nan
ITLB TIMELY PREFETCHES:          0 LATE PREFETCHES: 0 DROPPED PREFETCHES: 0
ITLB PREFETCHES SAME FILL-ORIGIN LEVEL: 0 DIFFERENT FILL-ORIGIN LEVEL: 0
ITLB AVERAGE MISS LATENCY: 14.7093 cycles
ITLB RQ	ACCESS:   38046596	FORWARD:          0	MERGED:    6687696	TO_CACHE:   31358900

DTLB TOTAL     ACCESS:   36916820  HIT:   34527277  MISS:    2389543  HIT %:    93.5272  MISS %:    6.47278   MPKI: 11.9477
DTLB LOAD TRANSLATION ACCESS:   36916820  HIT:   34527277  MISS:    2389543  HIT %:    93.5272  MISS %:    6.47278   MPKI: 11.9477
DTLB PREFETCH  REQUESTED:          0  ISSUED:          0  USEFUL:          0  USELESS:          0
DTLB USEFUL LOAD PREFETCHES:          0 PREFETCH ISSUED TO LOWER LEVEL:          0  ACCURACY: -nan
DTLB TIMELY PREFETCHES:          0 LATE PREFETCHES: 0 DROPPED PREFETCHES: 0
DTLB PREFETCHES SAME FILL-ORIGIN LEVEL: 0 DIFFERENT FILL-ORIGIN LEVEL: 0
DTLB AVERAGE MISS LATENCY: 14.2203 cycles
DTLB RQ	ACCESS:   47267270	FORWARD:          0	MERGED:   10208396	TO_CACHE:   37058874

STLB TOTAL     ACCESS:    3742453  HIT:    3363412  MISS:     379041  HIT %:    89.8719  MISS %:    10.1281   MPKI: 1.8952
STLB LOAD TRANSLATION ACCESS:    3125254  HIT:    2747885  MISS:     377369  HIT %:    87.9252  MISS %:    12.0748   MPKI: 1.88684
STLB TRANSLATION FROM L1D PREFETCHER ACCESS:     617199  HIT:     615527  MISS:       1672  HIT %:    99.7291  MISS %:   0.270901   MPKI: 0.00836
STLB PREFETCH  REQUESTED:          0  ISSUED:          0  USEFUL:       1313  USELESS:        356
STLB USEFUL LOAD PREFETCHES:       1313 PREFETCH ISSUED TO LOWER LEVEL:          0  ACCURACY: inf
STLB TIMELY PREFETCHES:       1313 LATE PREFETCHES: 116 DROPPED PREFETCHES: 2989
STLB PREFETCHES SAME FILL-ORIGIN LEVEL: 0 DIFFERENT FILL-ORIGIN LEVEL: 0
STLB AVERAGE MISS LATENCY: 43.9541 cycles
STLB RQ	ACCESS:    3808575	FORWARD:          0	MERGED:      62875	TO_CACHE:    3745700

STLB Hit, L1D data hit: 0
STLB Hit, L2C data hit: 0
STLB Hit, LLC data hit: 0
STLB Hit, LLC data miss: 0
STLB STLB hints to L2: 0
L1D TOTAL     ACCESS:   47375816  HIT:   44595937  MISS:    2779879  HIT %:    94.1323  MISS %:    5.86772   MPKI: 13.8994
L1D LOAD      ACCESS:   27499276  HIT:   25554082  MISS:    1945194  HIT %:    92.9264  MISS %:    7.07362   MPKI: 9.72597
L1D RFO       ACCESS:   19274679  HIT:   18967394  MISS:     307285  HIT %:    98.4058  MISS %:    1.59424   MPKI: 1.53642
L1D PREFETCH  ACCESS:     601861  HIT:      74461  MISS:     527400  HIT %:    12.3718  MISS %:    87.6282   MPKI: 2.637
AGUS PREFETCH L1 MISS: 0
L1D PREFETCH  REQUESTED:    1376089  ISSUED:    1376089  USEFUL:     150113  USELESS:     377100
L1D USEFUL LOAD PREFETCHES:     150113 PREFETCH ISSUED TO LOWER LEVEL:     538640  ACCURACY: 27.8689
L1D TIMELY PREFETCHES:     150113 LATE PREFETCHES: 10793 DROPPED PREFETCHES: 2989
L1D PREFETCHES SAME FILL-ORIGIN LEVEL: 538640 DIFFERENT FILL-ORIGIN LEVEL: 0
L1D AVERAGE MISS LATENCY: 1.21332e+06 cycles
L1D RQ	ACCESS:   42642300	FORWARD:          0	MERGED:   14801090	TO_CACHE:   27612997
L1D WQ	ACCESS:   19969250	FORWARD:     228378	MERGED:     314977	TO_CACHE:   19654273
L1D PQ	ACCESS:     692767	FORWARD:          0	MERGED:       9280	TO_CACHE:     683322

L1D UNIQUE REGIONS ACCESSED: 0
L1D REGIONS CONFLICTS: 0
L1D Cross Page Prefetch Requests: 692767
L1D Same Page Prefetch Requests: 0
L1D ROI Sum of L1D PQ occupancy: 9117765
L1D PREFETCHES PUSHED FROM L2C: 0
L1I TOTAL     ACCESS:   36405502  HIT:   31635431  MISS:    4770071  HIT %:    86.8974  MISS %:    13.1026   MPKI: 23.8504
L1I LOAD      ACCESS:   36405502  HIT:   31635431  MISS:    4770071  HIT %:    86.8974  MISS %:    13.1026   MPKI: 23.8504
L1I PREFETCH  REQUESTED:          0  ISSUED:          0  USEFUL:          0  USELESS:          0
L1I USEFUL LOAD PREFETCHES:          0 PREFETCH ISSUED TO LOWER LEVEL:          0  ACCURACY: -nan
L1I TIMELY PREFETCHES:          0 LATE PREFETCHES: 0 DROPPED PREFETCHES: 0
L1I PREFETCHES SAME FILL-ORIGIN LEVEL: 0 DIFFERENT FILL-ORIGIN LEVEL: 0
L1I AVERAGE MISS LATENCY: 27.2244 cycles
L1I RQ	ACCESS:   56568343	FORWARD:          0	MERGED:   18521747	TO_CACHE:   38046596

BTB TOTAL     ACCESS:   21751551  HIT:   17439369  MISS:    4312182  HIT %:    80.1753  MISS %:    19.8247   MPKI: 21.5609
BTB BRANCH_DIRECT_JUMP	ACCESS:    1714565  HIT:    1465961  MISS:     248604
BTB BRANCH_INDIRECT	ACCESS:    9411853  HIT:    7323167  MISS:    2088686
BTB BRANCH_CONDITIONAL	ACCESS:    4498891  HIT:    4091160  MISS:     407731
BTB BRANCH_DIRECT_CALL	ACCESS:    2431594  HIT:    1968834  MISS:     462760
BTB BRANCH_INDIRECT_CALL	ACCESS:     630486  HIT:     593321  MISS:      37165
BTB BRANCH_RETURN	ACCESS:    3064162  HIT:    1996926  MISS:    1067236
BTB BRANCH_OTHER ACCESS:          0  HIT:          0  MISS:          0

L2C TOTAL     ACCESS:    9026772  HIT:    5391307  MISS:    3635465  HIT %:    59.7257  MISS %:    40.2743   MPKI: 18.1773
L2C LOAD      ACCESS:    6704341  HIT:    3787555  MISS:    2916786  HIT %:    56.4941  MISS %:    43.5059   MPKI: 14.5839
L2C DATA LOAD MPKI: 4.62906
L2C INSTRUCTION LOAD MPKI: 9.95487
L2C RFO       ACCESS:     306792  HIT:     165735  MISS:     141057  HIT %:    54.0219  MISS %:    45.9781   MPKI: 0.705285
L2C PREFETCH  ACCESS:     538638  HIT:     204532  MISS:     334106  HIT %:    37.9721  MISS %:    62.0279   MPKI: 1.67053
AGUS PREFETCH L1 MISS: 0
L2C DATA PREFETCH MPKI: 1.67053
L2C INSTRUCTION PREFETCH MPKI: 0
L2C WRITEBACK ACCESS:     983130  HIT:     933976  MISS:      49154  HIT %:    95.0003  MISS %:    4.99975   MPKI: 0.24577
L2C LOAD TRANSLATION ACCESS:     487347  HIT:     294851  MISS:     192496  HIT %:    60.5012  MISS %:    39.4988   MPKI: 0.96248
L2C TRANSLATION FROM L1D PREFETCHER ACCESS:       6524  HIT:       4658  MISS:       1866  HIT %:    71.3979  MISS %:    28.6021   MPKI: 0.00933
L2C PREFETCH  REQUESTED:          0  ISSUED:          0  USEFUL:      20758  USELESS:     314352
L2C USEFUL LOAD PREFETCHES:      20758 PREFETCH ISSUED TO LOWER LEVEL:     334107  ACCURACY: 6.21298
L2C TIMELY PREFETCHES:      20758 LATE PREFETCHES: 0 DROPPED PREFETCHES: 0
L2C PREFETCHES SAME FILL-ORIGIN LEVEL: 0 DIFFERENT FILL-ORIGIN LEVEL: 0
L2C AVERAGE MISS LATENCY: 44.0026 cycles
L2C RQ	ACCESS:    7505181	FORWARD:          0	MERGED:          0	TO_CACHE:    7505004
L2C WQ	ACCESS:     983130	FORWARD:        178	MERGED:          0	TO_CACHE:     983130
L2C PQ	ACCESS:     538640	FORWARD:          0	MERGED:          0	TO_CACHE:     538639

L2C Instructions Evicting Data 787780
L2C Translations Evicting Data 77709
L2C Data Evicting Data 565150
L2C Instructions Evicting Instructions 1096809
L2C Translations Evicting Instructions 106980
L2C Data Evicting Instructions 760118
L2C Instructions Evicting Translations 106385
L2C Translations Evicting Translations 9673
L2C Data Evicting Translations 75707
L2C Dense regions hint from L2: 0
PSCL5 TOTAL     ACCESS:     382029  HIT:     382029  MISS:          0  HIT %:        100  MISS %:          0   MPKI: 0
PSCL5 LOAD TRANSLATION ACCESS:     377252  HIT:     377252  MISS:          0  HIT %:        100  MISS %:          0   MPKI: 0
PSCL5 TRANSLATION FROM L1D PREFETCHER ACCESS:       4777  HIT:       4777  MISS:          0  HIT %:        100  MISS %:          0   MPKI: 0
PSCL5 PREFETCH  REQUESTED:          0  ISSUED:          0  USEFUL:          0  USELESS:          0
PSCL5 USEFUL LOAD PREFETCHES:          0 PREFETCH ISSUED TO LOWER LEVEL:          0  ACCURACY: -nan
PSCL5 TIMELY PREFETCHES:          0 LATE PREFETCHES: 0 DROPPED PREFETCHES: 0
PSCL5 PREFETCHES SAME FILL-ORIGIN LEVEL: 0 DIFFERENT FILL-ORIGIN LEVEL: 0

PSCL4 TOTAL     ACCESS:     343568  HIT:     342913  MISS:        655  HIT %:    99.8094  MISS %:   0.190646   MPKI: 0.003275
PSCL4 LOAD TRANSLATION ACCESS:     339561  HIT:     338906  MISS:        655  HIT %:    99.8071  MISS %:   0.192896   MPKI: 0.003275
PSCL4 TRANSLATION FROM L1D PREFETCHER ACCESS:       4007  HIT:       4007  MISS:          0  HIT %:        100  MISS %:          0   MPKI: 0
PSCL4 PREFETCH  REQUESTED:          0  ISSUED:          0  USEFUL:          0  USELESS:          0
PSCL4 USEFUL LOAD PREFETCHES:          0 PREFETCH ISSUED TO LOWER LEVEL:          0  ACCURACY: -nan
PSCL4 TIMELY PREFETCHES:          0 LATE PREFETCHES: 0 DROPPED PREFETCHES: 0
PSCL4 PREFETCHES SAME FILL-ORIGIN LEVEL: 0 DIFFERENT FILL-ORIGIN LEVEL: 0

PSCL3 TOTAL     ACCESS:     380403  HIT:     378390  MISS:       2013  HIT %:    99.4708  MISS %:   0.529176   MPKI: 0.010065
PSCL3 LOAD TRANSLATION ACCESS:     375627  HIT:     373614  MISS:       2013  HIT %:    99.4641  MISS %:   0.535904   MPKI: 0.010065
PSCL3 TRANSLATION FROM L1D PREFETCHER ACCESS:       4776  HIT:       4776  MISS:          0  HIT %:        100  MISS %:          0   MPKI: 0
PSCL3 PREFETCH  REQUESTED:          0  ISSUED:          0  USEFUL:          0  USELESS:          0
PSCL3 USEFUL LOAD PREFETCHES:          0 PREFETCH ISSUED TO LOWER LEVEL:          0  ACCURACY: -nan
PSCL3 TIMELY PREFETCHES:          0 LATE PREFETCHES: 0 DROPPED PREFETCHES: 0
PSCL3 PREFETCHES SAME FILL-ORIGIN LEVEL: 0 DIFFERENT FILL-ORIGIN LEVEL: 0

PSCL2 TOTAL     ACCESS:     380842  HIT:     272856  MISS:     107986  HIT %:    71.6455  MISS %:    28.3545   MPKI: 0.53993
PSCL2 LOAD TRANSLATION ACCESS:     377812  HIT:     269826  MISS:     107986  HIT %:    71.4181  MISS %:    28.5819   MPKI: 0.53993
PSCL2 TRANSLATION FROM L1D PREFETCHER ACCESS:       3030  HIT:       3030  MISS:          0  HIT %:        100  MISS %:          0   MPKI: 0
PSCL2 PREFETCH  REQUESTED:          0  ISSUED:          0  USEFUL:          0  USELESS:          0
PSCL2 USEFUL LOAD PREFETCHES:          0 PREFETCH ISSUED TO LOWER LEVEL:          0  ACCURACY: -nan
PSCL2 TIMELY PREFETCHES:          0 LATE PREFETCHES: 0 DROPPED PREFETCHES: 0
PSCL2 PREFETCHES SAME FILL-ORIGIN LEVEL: 0 DIFFERENT FILL-ORIGIN LEVEL: 0

LLC TOTAL     ACCESS:    4043416  HIT:    3709839  MISS:     333577  HIT %:    91.7501  MISS %:    8.24988   MPKI: 1.66788
LLC LOAD      ACCESS:    2916777  HIT:    2704120  MISS:     212657  HIT %:    92.7092  MISS %:    7.29082   MPKI: 1.06328
LLC RFO       ACCESS:     141055  HIT:      92519  MISS:      48536  HIT %:    65.5907  MISS %:    34.4093   MPKI: 0.24268
LLC PREFETCH  ACCESS:     334106  HIT:     275498  MISS:      58608  HIT %:    82.4583  MISS %:    17.5417   MPKI: 0.29304
AGUS PREFETCH L1 MISS: 0
LLC WRITEBACK ACCESS:     457116  HIT:     454375  MISS:       2741  HIT %:    99.4004  MISS %:   0.599629   MPKI: 0.013705
LLC LOAD TRANSLATION ACCESS:     192496  HIT:     181547  MISS:      10949  HIT %:    94.3121  MISS %:    5.68791   MPKI: 0.054745
LLC TRANSLATION FROM L1D PREFETCHER ACCESS:       1866  HIT:       1780  MISS:         86  HIT %:    95.3912  MISS %:    4.60879   MPKI: 0.00043
LLC PREFETCH  REQUESTED:          0  ISSUED:          0  USEFUL:       3772  USELESS:      49839
LLC USEFUL LOAD PREFETCHES:       3772 PREFETCH ISSUED TO LOWER LEVEL:      58608  ACCURACY: 6.43598
LLC TIMELY PREFETCHES:       3772 LATE PREFETCHES: 0 DROPPED PREFETCHES: 0
LLC PREFETCHES SAME FILL-ORIGIN LEVEL: 0 DIFFERENT FILL-ORIGIN LEVEL: 0
LLC AVERAGE MISS LATENCY: 157.023 cycles
LLC RQ	ACCESS:    3252205	FORWARD:          0	MERGED:          0	TO_CACHE:    3252194
LLC WQ	ACCESS:     457116	FORWARD:         12	MERGED:          0	TO_CACHE:     457116
LLC PQ	ACCESS:     334107	FORWARD:          0	MERGED:          0	TO_CACHE:     334106

LLC Dense regions hint to LLC: 0

RAW hits: 3111883
Loads Generated: 45754181
Loads sent to L1D: 42642300
Stores Generated: 19969261
Stores sent to L1D: 19969250
Major fault: 0 Minor fault: 5849
Allocated PAGES: 5849
CPU 0 L1D 
Prefetch count 1231407 BOP and RL 

DRAM Statistics
 CHANNEL 0
 RQ ROW_BUFFER_HIT:      63825  ROW_BUFFER_MISS:     267010
 DBUS_CONGESTED:        112
 WQ ROW_BUFFER_HIT:      29310  ROW_BUFFER_MISS:     192993  FULL:          0

 AVG_CONGESTED_CYCLE: 4
 All warmup complete: 2
Channel 0 Bank busy for read cycles: 0
Channel 0 Bank busy for write cycles: 0
Channel 0
Rank 0
0banks busy for read cycles: 385908186
0banks busy for write cycles: 117161
1banks busy for read cycles: 24109341
1banks busy for write cycles: 15157224
2banks busy for read cycles: 6861640
2banks busy for write cycles: 5081947
3banks busy for read cycles: 811341
3banks busy for write cycles: 1538671
4banks busy for read cycles: 283174
4banks busy for write cycles: 782621
5banks busy for read cycles: 87787
5banks busy for write cycles: 463385
6banks busy for read cycles: 51419
6banks busy for write cycles: 304928
7banks busy for read cycles: 43244
7banks busy for write cycles: 221669
8banks busy for read cycles: 102396
8banks busy for write cycles: 269834

CPU 0 Branch Prediction Accuracy: 99.7946% MPKI: 0.361505 Average ROB Occupancy at Mispredict: 43.2757
Branch types
NOT_BRANCH: 164798107 82.3991%
BRANCH_DIRECT_JUMP: 1714565 0.857282%
BRANCH_INDIRECT: 9411853 4.70593%
BRANCH_CONDITIONAL: 17949372 8.97469%
BRANCH_DIRECT_CALL: 2431594 1.2158%
BRANCH_INDIRECT_CALL: 630486 0.315243%
BRANCH_RETURN: 3064162 1.53208%
BRANCH_OTHER: 0 0%

DRAM PAGES: 1048576
Allocated PAGES: 5849
