
*** ChampSim Multicore Out-of-Order Simulator ***

Warmup Instructions: 50000000
Simulation Instructions: 200000000
Number of CPUs: 1
LLC sets: 2048
LLC ways: 16
Off-chip DRAM Size: 4096 MB Channels: 1 Width: 64-bit Data Rate: 6400 MT/s
CPU 0 runs traces/spec2k17/srv_1.champsimtrace.xz
.xz
BTB has LRU replacement policy
ITLB has LRU replacement policy
DTLB has LRU replacement policy
STLB has LRU replacement policy
L1I has LRU replacement policy
CPU 0 l1d next line prefetcher
L1D has LRU replacement policy
Initialize SRRIP state for L2C
Initialize DRRIP state for LLC
Offsets elements: 
Potential of Offsets elements: 
rewards of Offsets elements: 
Printing Sanity1
offset list size2335
Heartbeat CPU 0 instructions: 10000000 cycles: 4031965 heartbeat IPC: 2.48018 cumulative IPC: 2.48018 (Simulation time: 0 hr 0 min 47 sec) 
Offsets elements: 
Potential of Offsets elements: 
rewards of Offsets elements: 0 217 0 0 0 0 0 0 0 141 0 238 0 0 0 0 10 0 0 32 0 0 0 0 0 0 0 0 0 0 28 205 15 2 0 0 0 0 0 0 0 0 15 0 0 0 0 0 0 0 3 0 0 0 0 308 0 0 0 0 0 0 0 0 0 0 0 0 0 0 0 0 0 0 24 32 0 0 0 480 0 0 0 0 0 0 0 0 0 0 0 0 0 0 0 0 0 0 0 0 0 0 0 0 0 0 0 0 0 363 0 224 0 0 0 0 0 0 0 0 0 0 0 0 0 0 0 0 0 0 0 0 868 288 0 0 0 0 0 0 0 0 0 0 0 0 0 0 0 0 0 0 204 0 0 0 0 0 0 0 0 0 0 0 0 0 0 0 0 0 0 0 0 0 0 0 0 0 0 192 0 0 0 0 0 0 0 0 0 0 0 0 385 0 0 0 0 0 0 0 0 0 0 0 0 0 64 0 0 0 0 0 0 0 0 0 0 0 0 0 0 0 0 0 0 0 0 0 0 0 0 0 0 0 0 0 0 0 0 0 0 0 0 0 0 0 0 0 0 0 0 0 0 0 0 0 0 0 0 0 0 0 0 0 0 0 0 0 0 0 0 0 0 0 0 0 0 0 0 0 0 0 0 0 0 0 0 0 0 0 0 0 0 0 0 0 0 0 0 0 0 0 0 0 0 0 0 0 0 0 0 0 0 0 16 401 0 0 0 0 0 0 0 0 0 0 0 0 0 0 0 0 0 0 0 0 0 0 0 0 0 0 0 0 0 0 0 0 0 0 0 0 0 0 0 0 0 0 0 0 0 0 0 0 0 0 0 0 0 0 0 0 0 0 0 0 0 0 0 0 0 0 0 0 0 0 0 0 0 0 0 0 0 0 0 0 0 0 0 0 0 0 0 0 0 0 0 0 0 0 0 0 0 0 0 0 0 0 0 0 0 0 0 0 0 304 0 0 0 0 0 0 0 0 0 0 0 0 0 0 0 0 0 0 0 0 0 0 0 0 0 0 0 0 0 0 0 0 0 0 0 0 0 0 0 0 0 0 0 0 0 0 0 0 0 0 0 0 0 0 0 0 0 0 0 0 0 0 0 0 0 0 0 0 0 0 0 0 0 0 0 0 0 0 0 0 0 0 0 0 0 0 0 0 0 0 0 0 0 0 0 0 0 0 0 0 0 0 0 0 0 0 0 0 444 0 0 0 0 0 0 0 0 0 0 0 0 0 0 0 0 0 0 0 0 0 0 0 0 0 0 0 0 0 0 0 0 0 0 0 0 0 0 0 237 0 0 0 18 0 0 0 0 0 0 0 0 0 0 0 0 0 0 0 0 0 0 0 0 0 0 0 0 0 0 0 0 0 0 0 0 0 0 0 0 0 0 0 0 0 0 0 0 0 0 0 0 0 0 0 0 0 0 0 0 0 0 0 0 0 0 0 0 0 0 0 0 0 0 0 0 0 0 0 0 0 0 0 0 0 0 0 0 0 0 0 0 0 0 0 0 0 0 0 0 0 0 0 0 0 0 0 0 48 0 0 0 0 0 0 0 0 0 0 0 0 0 0 0 0 244 0 0 0 0 0 0 0 0 0 0 0 0 0 0 0 0 0 0 0 0 0 0 0 0 0 0 0 0 0 0 0 0 0 0 0 0 0 0 0 0 0 0 0 0 0 0 0 0 0 0 0 0 0 0 0 416 79 0 0 0 0 0 0 0 0 0 0 0 0 0 0 0 0 0 0 0 0 0 0 0 0 0 0 0 0 0 0 0 0 171 0 0 0 0 0 0 0 0 0 0 0 0 0 0 0 0 0 0 258 0 0 0 0 0 0 0 0 0 0 0 0 0 0 0 0 0 0 0 0 0 0 0 0 0 0 0 0 0 0 0 0 0 0 0 0 0 0 0 0 0 0 0 0 0 0 0 0 0 0 0 0 0 0 0 0 0 0 0 0 0 0 0 0 0 0 0 0 0 0 0 0 0 0 0 0 0 0 0 0 0 0 0 0 0 0 0 0 0 0 0 0 0 0 0 0 0 73 0 0 0 0 0 0 0 0 0 0 0 0 0 0 0 0 0 0 0 0 0 0 0 0 0 0 0 0 0 0 0 0 0 0 0 0 0 0 0 0 0 0 0 0 0 0 0 0 0 0 0 0 0 0 0 0 0 0 0 0 0 0 0 0 0 0 0 0 0 0 0 0 0 0 0 0 0 0 0 0 0 0 0 0 0 45 0 0 0 0 0 0 0 0 0 0 0 0 0 0 0 0 0 0 0 0 0 0 0 0 0 0 0 0 0 0 0 0 0 0 0 0 0 0 0 0 0 0 164 0 0 0 0 0 18 0 0 0 0 0 0 0 0 0 0 0 0 0 0 0 0 0 0 0 0 0 0 0 0 0 0 0 0 0 0 0 0 0 0 0 0 0 0 0 0 0 0 0 0 0 0 0 0 0 0 0 0 0 0 0 0 0 0 0 0 0 0 0 0 0 0 0 0 0 0 0 0 0 0 0 0 0 0 0 0 0 0 0 0 0 0 0 0 0 0 0 0 0 0 0 0 0 0 0 0 0 0 0 0 0 0 0 0 0 0 0 0 0 0 0 0 0 0 0 0 0 0 0 0 0 0 0 0 0 0 0 0 0 0 0 0 0 0 0 0 0 0 0 0 0 0 0 0 18 0 0 0 0 0 0 0 0 0 0 0 0 0 0 0 0 0 0 0 0 0 0 0 0 0 0 0 0 0 32 0 0 0 0 0 0 0 0 0 0 0 0 0 0 0 0 0 0 0 0 0 0 0 0 0 0 0 0 0 0 0 0 0 0 77 121 0 0 0 0 0 0 0 0 0 0 0 0 0 24 0 0 0 0 0 0 0 0 0 0 0 0 0 0 0 0 0 0 0 0 0 0 0 0 0 0 0 0 0 0 0 0 0 0 0 0 18 0 0 0 0 0 0 0 0 0 0 0 0 0 0 0 0 0 0 0 0 0 0 0 0 0 0 0 0 0 0 0 0 0 0 0 0 0 0 0 0 0 0 0 0 0 0 0 0 0 0 0 0 0 0 0 0 0 0 0 0 0 0 0 0 0 0 0 0 0 18 0 0 0 0 0 104 0 0 0 0 0 0 0 0 0 0 0 0 0 0 0 0 0 0 0 0 0 0 0 0 0 0 0 0 0 48 0 0 0 0 0 0 0 0 0 0 0 0 0 0 0 0 0 0 0 0 0 0 0 0 0 0 0 0 0 0 0 0 0 0 164 0 0 0 0 0 0 0 0 0 0 0 0 0 0 0 0 0 0 0 0 0 0 0 0 0 0 0 0 0 0 0 0 0 0 0 0 0 0 0 0 0 0 0 0 0 0 0 0 0 0 0 0 0 0 0 0 0 0 0 0 0 0 0 0 0 0 0 0 0 0 0 0 0 0 0 0 0 0 0 0 0 0 0 0 0 0 0 0 0 0 0 0 0 0 0 0 0 0 0 0 0 0 0 0 0 0 0 0 0 0 0 0 0 0 0 0 0 28 0 0 0 0 0 0 0 0 0 0 0 0 0 0 0 0 0 0 0 0 0 0 0 0 0 0 0 0 0 0 0 0 0 0 0 0 0 0 0 0 0 0 0 0 171 12 0 0 0 0 0 0 0 0 0 0 0 0 0 0 0 0 0 0 0 0 0 0 0 0 0 0 0 0 0 0 0 0 0 0 0 0 0 0 0 0 0 0 0 0 51 0 0 0 0 0 0 0 0 0 0 0 0 0 0 0 0 210 0 0 0 0 0 0 0 0 0 0 0 0 0 0 0 0 0 0 0 0 0 0 0 0 0 0 0 0 0 0 0 0 0 64 0 0 0 0 0 0 0 0 0 0 0 0 0 0 0 0 0 0 0 0 0 0 0 0 0 0 0 0 0 0 0 0 0 0 0 0 0 0 0 0 0 0 0 0 0 0 0 0 0 0 0 0 0 0 0 0 0 0 0 0 0 0 0 0 0 0 0 0 0 0 0 0 0 0 0 0 0 0 0 0 0 0 0 0 0 0 0 0 0 0 0 0 0 0 0 157 0 0 0 0 0 0 0 0 0 0 0 0 0 0 0 0 0 0 0 0 0 0 0 0 0 0 0 0 0 0 0 186 0 0 0 0 0 0 0 0 0 0 0 0 237 0 0 0 0 0 0 0 0 0 0 0 0 0 0 0 0 0 0 0 0 0 0 0 0 0 0 0 0 0 0 0 0 0 0 0 0 0 0 0 0 0 0 0 0 0 0 0 0 0 0 0 0 0 0 0 0 0 0 0 186 0 0 0 0 0 0 0 0 0 0 0 0 0 0 0 0 0 0 0 0 0 0 0 0 0 0 0 0 0 0 0 0 0 0 0 0 0 0 0 0 0 0 0 0 0 0 0 0 0 0 0 0 0 0 0 0 0 0 0 0 0 0 0 0 0 0 0 0 0 0 0 0 0 0 0 188 0 130 0 0 0 0 0 0 0 0 0 0 0 0 0 0 0 0 0 0 0 0 0 0 0 0 0 0 0 0 0 0 0 0 0 0 0 0 0 0 0 0 0 0 0 0 0 0 0 0 0 0 0 0 0 0 0 0 0 0 0 0 0 0 0 0 0 0 0 0 0 0 0 0 0 94 77 0 0 0 0 0 0 0 0 0 0 0 0 0 9 0 0 0 0 0 0 0 0 0 0 0 0 0 0 0 0 0 0 331 0 0 0 0 0 0 0 0 0 0 0 0 0 0 0 0 0 0 0 0 0 0 0 0 0 0 0 0 0 0 0 0 0 0 0 0 0 0 0 0 0 0 0 0 0 0 0 0 0 0 0 0 0 0 0 0 0 0 0 0 0 0 0 0 0 0 0 0 0 0 0 0 0 0 0 0 0 0 0 0 0 0 0 0 0 0 0 0 0 0 0 0 0 0 0 0 0 0 0 0 0 0 0 0 0 0 0 0 0 0 0 0 0 0 0 0 0 0 0 0 0 0 0 0 0 0 0 0 0 0 0 0 0 0 0 0 0 0 0 0 0 32 0 0 0 0 0 0 0 0 0 0 0 0 0 0 0 0 0 0 0 0 0 0 0 0 0 0 0 0 0 0 0 0 0 0 0 0 0 0 0 0 0 0 0 0 0 0 0 0 0 0 0 0 0 0 0 0 0 0 0 0 0 0 0 0 0 0 0 0 0 0 0 0 0 0 0 0 0 0 0 0 0 0 0 0 0 0 0 0 0 0 0 0 0 0 0 0 
Printing Sanity2
Heartbeat CPU 0 instructions: 20000003 cycles: 7359412 heartbeat IPC: 3.00531 cumulative IPC: 2.71761 (Simulation time: 0 hr 1 min 28 sec) 
Heartbeat CPU 0 instructions: 30000003 cycles: 10138676 heartbeat IPC: 3.59807 cumulative IPC: 2.95897 (Simulation time: 0 hr 2 min 0 sec) 
*** Reached end of trace for Core: 0 Repeating trace: traces/spec2k17/srv_1.champsimtrace.xz
Heartbeat CPU 0 instructions: 40000001 cycles: 14038597 heartbeat IPC: 2.56415 cumulative IPC: 2.84929 (Simulation time: 0 hr 2 min 45 sec) 
Heartbeat CPU 0 instructions: 50000001 cycles: 17495202 heartbeat IPC: 2.89301 cumulative IPC: 2.85793 (Simulation time: 0 hr 3 min 25 sec) 

Warmup complete CPU 0 instructions: 50000001 cycles: 17495202 (Simulation time: 0 hr 3 min 25 sec) 

Heartbeat CPU 0 instructions: 60000000 cycles: 41738615 heartbeat IPC: 0.412483 cumulative IPC: 0.412483 (Simulation time: 0 hr 4 min 18 sec) 
*** Reached end of trace for Core: 0 Repeating trace: traces/spec2k17/srv_1.champsimtrace.xz
Heartbeat CPU 0 instructions: 70000003 cycles: 75311063 heartbeat IPC: 0.297863 cumulative IPC: 0.345926 (Simulation time: 0 hr 5 min 27 sec) 
Heartbeat CPU 0 instructions: 80000001 cycles: 106481257 heartbeat IPC: 0.320819 cumulative IPC: 0.337131 (Simulation time: 0 hr 6 min 32 sec) 
Heartbeat CPU 0 instructions: 90000000 cycles: 130827929 heartbeat IPC: 0.410734 cumulative IPC: 0.352943 (Simulation time: 0 hr 7 min 24 sec) 
*** Reached end of trace for Core: 0 Repeating trace: traces/spec2k17/srv_1.champsimtrace.xz
Heartbeat CPU 0 instructions: 100000000 cycles: 163288287 heartbeat IPC: 0.308068 cumulative IPC: 0.342952 (Simulation time: 0 hr 8 min 33 sec) 
Heartbeat CPU 0 instructions: 110000000 cycles: 195537953 heartbeat IPC: 0.310081 cumulative IPC: 0.336998 (Simulation time: 0 hr 9 min 43 sec) 
Heartbeat CPU 0 instructions: 120000001 cycles: 219811306 heartbeat IPC: 0.411974 cumulative IPC: 0.345993 (Simulation time: 0 hr 10 min 38 sec) 
*** Reached end of trace for Core: 0 Repeating trace: traces/spec2k17/srv_1.champsimtrace.xz
Heartbeat CPU 0 instructions: 130000000 cycles: 251168011 heartbeat IPC: 0.318911 cumulative IPC: 0.342359 (Simulation time: 0 hr 11 min 41 sec) 
Heartbeat CPU 0 instructions: 140000002 cycles: 284505428 heartbeat IPC: 0.299963 cumulative IPC: 0.337066 (Simulation time: 0 hr 12 min 51 sec) 
Heartbeat CPU 0 instructions: 150000002 cycles: 308710210 heartbeat IPC: 0.413141 cumulative IPC: 0.343389 (Simulation time: 0 hr 13 min 44 sec) 
*** Reached end of trace for Core: 0 Repeating trace: traces/spec2k17/srv_1.champsimtrace.xz
Heartbeat CPU 0 instructions: 160000000 cycles: 338981895 heartbeat IPC: 0.330342 cumulative IPC: 0.34216 (Simulation time: 0 hr 14 min 43 sec) 
Heartbeat CPU 0 instructions: 170000000 cycles: 373290012 heartbeat IPC: 0.291476 cumulative IPC: 0.337273 (Simulation time: 0 hr 15 min 53 sec) 
Heartbeat CPU 0 instructions: 180000000 cycles: 397572069 heartbeat IPC: 0.411827 cumulative IPC: 0.342036 (Simulation time: 0 hr 16 min 48 sec) 
*** Reached end of trace for Core: 0 Repeating trace: traces/spec2k17/srv_1.champsimtrace.xz
Heartbeat CPU 0 instructions: 190000001 cycles: 426773630 heartbeat IPC: 0.342447 cumulative IPC: 0.342065 (Simulation time: 0 hr 17 min 49 sec) 
Heartbeat CPU 0 instructions: 200000002 cycles: 462164393 heartbeat IPC: 0.28256 cumulative IPC: 0.337329 (Simulation time: 0 hr 19 min 0 sec) 
Heartbeat CPU 0 instructions: 210000002 cycles: 486420481 heartbeat IPC: 0.412268 cumulative IPC: 0.341206 (Simulation time: 0 hr 19 min 51 sec) 
*** Reached end of trace for Core: 0 Repeating trace: traces/spec2k17/srv_1.champsimtrace.xz
Heartbeat CPU 0 instructions: 220000000 cycles: 514537096 heartbeat IPC: 0.355662 cumulative IPC: 0.342023 (Simulation time: 0 hr 20 min 52 sec) 
Heartbeat CPU 0 instructions: 230000000 cycles: 551342854 heartbeat IPC: 0.271697 cumulative IPC: 0.337175 (Simulation time: 0 hr 22 min 8 sec) 
Heartbeat CPU 0 instructions: 240000000 cycles: 575237398 heartbeat IPC: 0.418506 cumulative IPC: 0.340659 (Simulation time: 0 hr 23 min 3 sec) 
*** Reached end of trace for Core: 0 Repeating trace: traces/spec2k17/srv_1.champsimtrace.xz
Heartbeat CPU 0 instructions: 250000001 cycles: 601646725 heartbeat IPC: 0.378654 cumulative IPC: 0.342377 (Simulation time: 0 hr 24 min 2 sec) 
Finished CPU 0 instructions: 200000000 cycles: 584151523 cumulative IPC: 0.342377 (Simulation time: 0 hr 24 min 2 sec) 

ChampSim completed all CPUs

Region of Interest Statistics

CPU 0 cumulative IPC: 0.342377 instructions: 200000000 cycles: 584151523
ITLB TOTAL     ACCESS:   38214033  HIT:   37663706  MISS:     550327  HIT %:    98.5599  MISS %:    1.44012   MPKI: 2.75163
ITLB LOAD TRANSLATION ACCESS:   38214033  HIT:   37663706  MISS:     550327  HIT %:    98.5599  MISS %:    1.44012   MPKI: 2.75163
ITLB PREFETCH  REQUESTED:          0  ISSUED:          0  USEFUL:          0  USELESS:          0
ITLB USEFUL LOAD PREFETCHES:          0 PREFETCH ISSUED TO LOWER LEVEL:          0  ACCURACY: -nan
ITLB TIMELY PREFETCHES:          0 LATE PREFETCHES: 0 DROPPED PREFETCHES: 0
ITLB PREFETCHES SAME FILL-ORIGIN LEVEL: 0 DIFFERENT FILL-ORIGIN LEVEL: 0
ITLB AVERAGE MISS LATENCY: 16.0998 cycles
ITLB RQ	ACCESS:   43868925	FORWARD:          0	MERGED:    5521903	TO_CACHE:   38347022

DTLB TOTAL     ACCESS:   43911168  HIT:   35219936  MISS:    8691232  HIT %:    80.2072  MISS %:    19.7928   MPKI: 43.4562
DTLB LOAD TRANSLATION ACCESS:   43911168  HIT:   35219936  MISS:    8691232  HIT %:    80.2072  MISS %:    19.7928   MPKI: 43.4562
DTLB PREFETCH  REQUESTED:          0  ISSUED:          0  USEFUL:          0  USELESS:          0
DTLB USEFUL LOAD PREFETCHES:          0 PREFETCH ISSUED TO LOWER LEVEL:          0  ACCURACY: -nan
DTLB TIMELY PREFETCHES:          0 LATE PREFETCHES: 0 DROPPED PREFETCHES: 0
DTLB PREFETCHES SAME FILL-ORIGIN LEVEL: 0 DIFFERENT FILL-ORIGIN LEVEL: 0
DTLB AVERAGE MISS LATENCY: 10.066 cycles
DTLB RQ	ACCESS:   59095125	FORWARD:          0	MERGED:   15012552	TO_CACHE:   44082573

STLB TOTAL     ACCESS:    9241559  HIT:    8915626  MISS:     325933  HIT %:    96.4732  MISS %:    3.52682   MPKI: 1.62966
STLB LOAD TRANSLATION ACCESS:    9241559  HIT:    8915626  MISS:     325933  HIT %:    96.4732  MISS %:    3.52682   MPKI: 1.62966
STLB PREFETCH  REQUESTED:          0  ISSUED:          0  USEFUL:          0  USELESS:          0
STLB USEFUL LOAD PREFETCHES:          0 PREFETCH ISSUED TO LOWER LEVEL:          0  ACCURACY: -nan
STLB TIMELY PREFETCHES:          0 LATE PREFETCHES: 0 DROPPED PREFETCHES: 0
STLB PREFETCHES SAME FILL-ORIGIN LEVEL: 0 DIFFERENT FILL-ORIGIN LEVEL: 0
STLB AVERAGE MISS LATENCY: 40.2036 cycles
STLB RQ	ACCESS:    9241559	FORWARD:          0	MERGED:          0	TO_CACHE:    9241559

STLB Hit, L1D data hit: 0
STLB Hit, L2C data hit: 0
STLB Hit, LLC data hit: 0
STLB Hit, LLC data miss: 0
STLB STLB hints to L2: 0
L1D TOTAL     ACCESS:   58700944  HIT:   46567664  MISS:   12133280  HIT %:    79.3303  MISS %:    20.6697   MPKI: 60.6664
L1D LOAD      ACCESS:   41051778  HIT:   29291983  MISS:   11759795  HIT %:    71.3537  MISS %:    28.6463   MPKI: 58.799
L1D RFO       ACCESS:   17649166  HIT:   17275681  MISS:     373485  HIT %:    97.8838  MISS %:    2.11616   MPKI: 1.86742
L1D PREFETCH  REQUESTED:          0  ISSUED:          0  USEFUL:          0  USELESS:          0
L1D USEFUL LOAD PREFETCHES:          0 PREFETCH ISSUED TO LOWER LEVEL:          0  ACCURACY: -nan
L1D TIMELY PREFETCHES:          0 LATE PREFETCHES: 0 DROPPED PREFETCHES: 0
L1D PREFETCHES SAME FILL-ORIGIN LEVEL: 0 DIFFERENT FILL-ORIGIN LEVEL: 0
L1D AVERAGE MISS LATENCY: 20.0224 cycles
L1D RQ	ACCESS:   54058955	FORWARD:          0	MERGED:   12741221	TO_CACHE:   41155583
L1D WQ	ACCESS:   18253453	FORWARD:     162151	MERGED:     313911	TO_CACHE:   17939542

L1D UNIQUE REGIONS ACCESSED: 0
L1D REGIONS CONFLICTS: 0
L1D Cross Page Prefetch Requests: 518281
L1D Same Page Prefetch Requests: 0
L1D ROI Sum of L1D PQ occupancy: 0
L1D PREFETCHES PUSHED FROM L2C: 0
L1I TOTAL     ACCESS:   42790020  HIT:   39343635  MISS:    3446385  HIT %:    91.9458  MISS %:    8.05418   MPKI: 17.2319
L1I LOAD      ACCESS:   42790020  HIT:   39343635  MISS:    3446385  HIT %:    91.9458  MISS %:    8.05418   MPKI: 17.2319
L1I PREFETCH  REQUESTED:          0  ISSUED:          0  USEFUL:          0  USELESS:          0
L1I USEFUL LOAD PREFETCHES:          0 PREFETCH ISSUED TO LOWER LEVEL:          0  ACCURACY: -nan
L1I TIMELY PREFETCHES:          0 LATE PREFETCHES: 0 DROPPED PREFETCHES: 0
L1I PREFETCHES SAME FILL-ORIGIN LEVEL: 0 DIFFERENT FILL-ORIGIN LEVEL: 0
L1I AVERAGE MISS LATENCY: 28.3479 cycles
L1I RQ	ACCESS:   66225331	FORWARD:          0	MERGED:   22356406	TO_CACHE:   43868925

BTB TOTAL     ACCESS:   33996129  HIT:   29348304  MISS:    4647825  HIT %:    86.3284  MISS %:    13.6716   MPKI: 23.2391
BTB BRANCH_DIRECT_JUMP	ACCESS:    1820121  HIT:    1607789  MISS:     212332
BTB BRANCH_INDIRECT	ACCESS:   19847784  HIT:   17441635  MISS:    2406149
BTB BRANCH_CONDITIONAL	ACCESS:    4748982  HIT:    4420071  MISS:     328911
BTB BRANCH_DIRECT_CALL	ACCESS:    3062626  HIT:    2647973  MISS:     414653
BTB BRANCH_INDIRECT_CALL	ACCESS:     723674  HIT:     676539  MISS:      47135
BTB BRANCH_RETURN	ACCESS:    3792942  HIT:    2554297  MISS:    1238645
BTB BRANCH_OTHER ACCESS:          0  HIT:          0  MISS:          0

L2C TOTAL     ACCESS:   16789073  HIT:   14091674  MISS:    2697399  HIT %:    83.9336  MISS %:    16.0664   MPKI: 13.487
L2C LOAD      ACCESS:   15206162  HIT:   12829318  MISS:    2376844  HIT %:    84.3692  MISS %:    15.6308   MPKI: 11.8842
L2C DATA LOAD MPKI: 4.01035
L2C INSTRUCTION LOAD MPKI: 7.87387
L2C RFO       ACCESS:     373485  HIT:     244872  MISS:     128613  HIT %:    65.5641  MISS %:    34.4359   MPKI: 0.643065
L2C WRITEBACK ACCESS:     795527  HIT:     757047  MISS:      38480  HIT %:     95.163  MISS %:    4.83705   MPKI: 0.1924
L2C LOAD TRANSLATION ACCESS:     413899  HIT:     260437  MISS:     153462  HIT %:    62.9228  MISS %:    37.0772   MPKI: 0.76731
L2C PREFETCH  REQUESTED:          0  ISSUED:          0  USEFUL:          0  USELESS:          0
L2C USEFUL LOAD PREFETCHES:          0 PREFETCH ISSUED TO LOWER LEVEL:          0  ACCURACY: -nan
L2C TIMELY PREFETCHES:          0 LATE PREFETCHES: 0 DROPPED PREFETCHES: 0
L2C PREFETCHES SAME FILL-ORIGIN LEVEL: 0 DIFFERENT FILL-ORIGIN LEVEL: 0
L2C AVERAGE MISS LATENCY: 41.6249 cycles
L2C RQ	ACCESS:   15993565	FORWARD:          0	MERGED:          0	TO_CACHE:   15993546
L2C WQ	ACCESS:     795527	FORWARD:         19	MERGED:          0	TO_CACHE:     795527

L2C Instructions Evicting Data 563764
L2C Translations Evicting Data 54956
L2C Data Evicting Data 335736
L2C Instructions Evicting Instructions 921823
L2C Translations Evicting Instructions 88813
L2C Data Evicting Instructions 542452
L2C Instructions Evicting Translations 89186
L2C Translations Evicting Translations 9693
L2C Data Evicting Translations 52496
L2C Dense regions hint from L2: 0
PSCL5 TOTAL     ACCESS:     325933  HIT:     325933  MISS:          0  HIT %:        100  MISS %:          0   MPKI: 0
PSCL5 LOAD TRANSLATION ACCESS:     325933  HIT:     325933  MISS:          0  HIT %:        100  MISS %:          0   MPKI: 0
PSCL5 PREFETCH  REQUESTED:          0  ISSUED:          0  USEFUL:          0  USELESS:          0
PSCL5 USEFUL LOAD PREFETCHES:          0 PREFETCH ISSUED TO LOWER LEVEL:          0  ACCURACY: -nan
PSCL5 TIMELY PREFETCHES:          0 LATE PREFETCHES: 0 DROPPED PREFETCHES: 0
PSCL5 PREFETCHES SAME FILL-ORIGIN LEVEL: 0 DIFFERENT FILL-ORIGIN LEVEL: 0

PSCL4 TOTAL     ACCESS:     315471  HIT:     314663  MISS:        808  HIT %:    99.7439  MISS %:   0.256125   MPKI: 0.00404
PSCL4 LOAD TRANSLATION ACCESS:     315471  HIT:     314663  MISS:        808  HIT %:    99.7439  MISS %:   0.256125   MPKI: 0.00404
PSCL4 PREFETCH  REQUESTED:          0  ISSUED:          0  USEFUL:          0  USELESS:          0
PSCL4 USEFUL LOAD PREFETCHES:          0 PREFETCH ISSUED TO LOWER LEVEL:          0  ACCURACY: -nan
PSCL4 TIMELY PREFETCHES:          0 LATE PREFETCHES: 0 DROPPED PREFETCHES: 0
PSCL4 PREFETCHES SAME FILL-ORIGIN LEVEL: 0 DIFFERENT FILL-ORIGIN LEVEL: 0

PSCL3 TOTAL     ACCESS:     322836  HIT:     320207  MISS:       2629  HIT %:    99.1857  MISS %:   0.814345   MPKI: 0.013145
PSCL3 LOAD TRANSLATION ACCESS:     322836  HIT:     320207  MISS:       2629  HIT %:    99.1857  MISS %:   0.814345   MPKI: 0.013145
PSCL3 PREFETCH  REQUESTED:          0  ISSUED:          0  USEFUL:          0  USELESS:          0
PSCL3 USEFUL LOAD PREFETCHES:          0 PREFETCH ISSUED TO LOWER LEVEL:          0  ACCURACY: -nan
PSCL3 TIMELY PREFETCHES:          0 LATE PREFETCHES: 0 DROPPED PREFETCHES: 0
PSCL3 PREFETCHES SAME FILL-ORIGIN LEVEL: 0 DIFFERENT FILL-ORIGIN LEVEL: 0

PSCL2 TOTAL     ACCESS:     325933  HIT:     241404  MISS:      84529  HIT %:    74.0655  MISS %:    25.9345   MPKI: 0.422645
PSCL2 LOAD TRANSLATION ACCESS:     325933  HIT:     241404  MISS:      84529  HIT %:    74.0655  MISS %:    25.9345   MPKI: 0.422645
PSCL2 PREFETCH  REQUESTED:          0  ISSUED:          0  USEFUL:          0  USELESS:          0
PSCL2 USEFUL LOAD PREFETCHES:          0 PREFETCH ISSUED TO LOWER LEVEL:          0  ACCURACY: -nan
PSCL2 TIMELY PREFETCHES:          0 LATE PREFETCHES: 0 DROPPED PREFETCHES: 0
PSCL2 PREFETCHES SAME FILL-ORIGIN LEVEL: 0 DIFFERENT FILL-ORIGIN LEVEL: 0

LLC TOTAL     ACCESS:    2988598  HIT:    2788528  MISS:     200070  HIT %:    93.3056  MISS %:    6.69444   MPKI: 1.00035
LLC LOAD      ACCESS:    2376844  HIT:    2212790  MISS:     164054  HIT %:    93.0978  MISS %:    6.90218   MPKI: 0.82027
LLC RFO       ACCESS:     128613  HIT:      98308  MISS:      30305  HIT %:    76.4371  MISS %:    23.5629   MPKI: 0.151525
LLC WRITEBACK ACCESS:     329679  HIT:     327991  MISS:       1688  HIT %:     99.488  MISS %:   0.512013   MPKI: 0.00844
LLC LOAD TRANSLATION ACCESS:     153462  HIT:     149439  MISS:       4023  HIT %:    97.3785  MISS %:     2.6215   MPKI: 0.020115
LLC PREFETCH  REQUESTED:          0  ISSUED:          0  USEFUL:          0  USELESS:          0
LLC USEFUL LOAD PREFETCHES:          0 PREFETCH ISSUED TO LOWER LEVEL:          0  ACCURACY: -nan
LLC TIMELY PREFETCHES:          0 LATE PREFETCHES: 0 DROPPED PREFETCHES: 0
LLC PREFETCHES SAME FILL-ORIGIN LEVEL: 0 DIFFERENT FILL-ORIGIN LEVEL: 0
LLC AVERAGE MISS LATENCY: 162.494 cycles
LLC RQ	ACCESS:    2658919	FORWARD:          0	MERGED:          0	TO_CACHE:    2658919
LLC WQ	ACCESS:     329679	FORWARD:          0	MERGED:          0	TO_CACHE:     329679

LLC Dense regions hint to LLC: 0

RAW hits: 2322805
Loads Generated: 56381756
Loads sent to L1D: 54058955
Stores Generated: 18253447
Stores sent to L1D: 18253453
Major fault: 0 Minor fault: 4447
Allocated PAGES: 4447
CPU 0 L1D 
Prefetch count 785302 BOP and RL 

DRAM Statistics
 CHANNEL 0
 RQ ROW_BUFFER_HIT:      43650  ROW_BUFFER_MISS:     154730
 DBUS_CONGESTED:        138
 WQ ROW_BUFFER_HIT:      19002  ROW_BUFFER_MISS:     110362  FULL:          0

 AVG_CONGESTED_CYCLE: 4
 All warmup complete: 2
Channel 0 Bank busy for read cycles: 0
Channel 0 Bank busy for write cycles: 0
Channel 0
Rank 0
0banks busy for read cycles: 549081691
0banks busy for write cycles: 74724
1banks busy for read cycles: 17507349
1banks busy for write cycles: 10731310
2banks busy for read cycles: 2123143
2banks busy for write cycles: 2130240
3banks busy for read cycles: 326058
3banks busy for write cycles: 658384
4banks busy for read cycles: 152374
4banks busy for write cycles: 320750
5banks busy for read cycles: 69543
5banks busy for write cycles: 189315
6banks busy for read cycles: 47875
6banks busy for write cycles: 118310
7banks busy for read cycles: 52946
7banks busy for write cycles: 114165
8banks busy for read cycles: 137430
8banks busy for write cycles: 315917

CPU 0 Branch Prediction Accuracy: 99.8043% MPKI: 0.43045 Average ROB Occupancy at Mispredict: 29.6064
Branch types
NOT_BRANCH: 156016058 78.008%
BRANCH_DIRECT_JUMP: 1820121 0.910061%
BRANCH_INDIRECT: 19847784 9.92389%
BRANCH_CONDITIONAL: 14736604 7.3683%
BRANCH_DIRECT_CALL: 3062626 1.53131%
BRANCH_INDIRECT_CALL: 723674 0.361837%
BRANCH_RETURN: 3792942 1.89647%
BRANCH_OTHER: 0 0%

DRAM PAGES: 1048576
Allocated PAGES: 4447
