
*** ChampSim Multicore Out-of-Order Simulator ***

Warmup Instructions: 50000000
Simulation Instructions: 200000000
Number of CPUs: 1
LLC sets: 2048
LLC ways: 16
Off-chip DRAM Size: 4096 MB Channels: 1 Width: 64-bit Data Rate: 6400 MT/s
CPU 0 runs traces/spec2k17/srv_66.champsimtrace.xz
.xz
BTB has LRU replacement policy
ITLB has LRU replacement policy
DTLB has LRU replacement policy
STLB has LRU replacement policy
L1I has LRU replacement policy
CPU 0 l1d next line prefetcher
L1D has LRU replacement policy
Initialize SRRIP state for L2C
Initialize DRRIP state for LLC
Offsets elements: 
Potential of Offsets elements: 
rewards of Offsets elements: 
Printing Sanity1
offset list size2264
Heartbeat CPU 0 instructions: 10000000 cycles: 2771476 heartbeat IPC: 3.60819 cumulative IPC: 3.60819 (Simulation time: 0 hr 0 min 33 sec) 
Heartbeat CPU 0 instructions: 20000000 cycles: 5532131 heartbeat IPC: 3.62233 cumulative IPC: 3.61524 (Simulation time: 0 hr 1 min 6 sec) 
Heartbeat CPU 0 instructions: 30000002 cycles: 8294402 heartbeat IPC: 3.62021 cumulative IPC: 3.6169 (Simulation time: 0 hr 1 min 39 sec) 
*** Reached end of trace for Core: 0 Repeating trace: traces/spec2k17/srv_66.champsimtrace.xz
Heartbeat CPU 0 instructions: 40000003 cycles: 11058980 heartbeat IPC: 3.61719 cumulative IPC: 3.61697 (Simulation time: 0 hr 2 min 13 sec) 
Heartbeat CPU 0 instructions: 50000001 cycles: 13820362 heartbeat IPC: 3.62137 cumulative IPC: 3.61785 (Simulation time: 0 hr 2 min 46 sec) 

Warmup complete CPU 0 instructions: 50000001 cycles: 13820362 (Simulation time: 0 hr 2 min 46 sec) 

Heartbeat CPU 0 instructions: 60000000 cycles: 35247553 heartbeat IPC: 0.466697 cumulative IPC: 0.466697 (Simulation time: 0 hr 3 min 38 sec) 
*** Reached end of trace for Core: 0 Repeating trace: traces/spec2k17/srv_66.champsimtrace.xz
Heartbeat CPU 0 instructions: 70000001 cycles: 57410100 heartbeat IPC: 0.451212 cumulative IPC: 0.458824 (Simulation time: 0 hr 4 min 32 sec) 
Heartbeat CPU 0 instructions: 80000002 cycles: 78840330 heartbeat IPC: 0.466631 cumulative IPC: 0.461397 (Simulation time: 0 hr 5 min 25 sec) 
Heartbeat CPU 0 instructions: 90000000 cycles: 100159435 heartbeat IPC: 0.469063 cumulative IPC: 0.46329 (Simulation time: 0 hr 6 min 17 sec) 
*** Reached end of trace for Core: 0 Repeating trace: traces/spec2k17/srv_66.champsimtrace.xz
Heartbeat CPU 0 instructions: 100000001 cycles: 122270503 heartbeat IPC: 0.452262 cumulative IPC: 0.461041 (Simulation time: 0 hr 7 min 7 sec) 
Offsets elements: 
Potential of Offsets elements: 
rewards of Offsets elements: 0 1 0 0 0 0 0 0 1 0 0 0 0 0 0 0 0 0 0 3 1 1 0 2 0 0 0 0 0 0 0 0 1 0 0 0 0 0 0 0 0 0 0 0 3 0 0 117 0 0 0 0 1 0 0 0 0 0 0 0 0 0 0 0 9 0 2 0 0 0 0 0 0 0 0 0 0 0 0 0 0 1 2 0 0 0 0 0 0 0 0 12 18 0 3 12 3 0 0 54 171 220 0 17 0 0 0 0 0 0 0 0 0 0 0 0 0 0 0 0 0 114 99 0 0 0 97 50 0 0 0 0 0 0 0 3 0 133 1 0 0 0 0 0 0 0 241 0 0 0 0 0 0 0 1 0 0 2 0 1 2 0 0 0 0 0 0 0 5 0 0 2 0 0 12 0 0 0 0 0 38 0 0 0 2 0 0 0 0 0 0 0 0 7 0 0 1 3 0 2 54 11 0 0 0 0 1 0 2 0 0 0 0 2 0 0 0 0 0 0 0 0 0 0 0 1 0 0 0 0 0 0 0 0 0 0 0 0 0 0 0 0 0 0 0 0 0 0 0 0 0 0 3 0 46 0 0 0 0 0 0 0 0 0 0 0 0 15 0 0 0 0 0 6 0 0 0 0 0 0 0 0 0 0 9 0 0 0 5 0 0 0 0 0 0 1 0 0 0 0 0 0 5 0 0 0 107 0 0 6 0 0 0 0 0 0 0 0 0 0 0 0 0 0 0 0 0 104 0 1 0 0 0 0 0 0 165 201 6 11 29 13 0 0 0 0 0 142 0 0 0 0 1 0 0 0 0 1 0 0 0 0 0 0 0 0 0 0 0 0 0 1 0 0 13 0 0 0 0 0 0 0 0 0 0 0 0 0 0 0 1 0 0 0 0 0 0 0 0 1 0 0 0 0 0 0 0 0 0 0 0 0 0 0 0 0 0 151 0 0 0 60 2 0 0 0 22 0 0 0 0 0 0 0 0 0 0 0 0 0 0 0 2 0 0 1 0 0 0 0 0 36 0 1 0 0 1 25 0 0 0 0 0 5 0 0 0 0 0 0 0 0 16 11 0 8 0 0 0 0 0 0 0 0 0 0 0 0 0 0 0 0 0 0 0 0 0 0 0 0 0 0 0 0 0 0 0 0 2 0 0 0 0 0 0 0 0 5 0 0 0 0 0 0 1 4 0 0 0 1 0 0 0 0 0 0 0 0 0 0 0 0 0 0 0 0 0 0 0 0 2 0 0 0 0 0 0 0 0 0 0 0 0 0 0 0 0 0 0 0 0 0 0 0 108 0 0 0 0 0 45 0 0 0 2 0 1 3 4 0 0 0 0 0 0 14 0 0 0 0 0 0 38 1 3 4 41 71 91 49 0 0 0 0 0 0 1 1 0 0 0 0 0 0 0 0 0 8 0 0 0 0 0 0 0 0 1 6 113 2 74 0 0 9 37 1 0 0 62 53 0 0 1 0 0 44 0 0 0 1 0 147 0 0 0 0 0 0 0 8 0 0 0 0 0 2 0 0 3 1 0 0 0 0 0 0 0 1 0 0 0 0 0 0 0 0 0 0 0 0 0 6 3 0 0 0 0 3 0 0 0 2 2 1 0 0 0 0 0 1 0 0 0 0 0 0 0 0 0 0 0 0 0 0 0 0 0 0 0 0 0 0 0 0 0 0 0 0 0 1 0 5 1 0 0 0 0 0 0 0 0 0 0 0 0 0 0 0 0 0 0 2 1 0 0 0 0 2 0 43 2 4 0 0 0 0 0 0 0 0 0 1 0 0 0 0 0 2 0 0 0 0 0 0 0 0 2 0 0 0 0 0 0 0 0 0 0 0 0 0 0 1 0 0 0 2 0 0 0 0 0 0 0 0 0 0 1 0 0 0 0 2 2 11 16 1 0 0 0 0 0 0 0 0 2 0 0 0 0 0 0 0 0 0 0 0 0 0 0 10 0 0 0 0 0 0 0 0 0 0 0 0 0 0 0 0 0 0 0 0 0 0 0 0 0 0 0 0 0 0 1 1 14 0 0 0 0 0 2 0 0 0 0 0 0 0 0 1 0 0 0 0 0 0 0 0 0 0 0 0 0 0 0 0 0 1 0 0 0 0 0 0 0 0 0 0 0 0 0 0 0 0 2 0 0 4 5 77 0 0 0 0 0 5 0 0 0 0 0 0 0 0 0 0 0 0 0 0 58 0 0 0 0 0 0 0 0 0 0 2 0 0 0 0 0 1 0 0 0 0 0 0 0 0 0 0 0 0 0 0 0 0 0 0 0 0 0 0 0 0 0 0 0 0 0 0 0 0 0 0 0 2 0 0 0 0 0 0 0 0 0 0 0 0 69 18 16 0 0 0 0 0 0 0 0 0 0 0 0 0 0 0 0 0 0 0 0 2 0 0 0 8 0 0 0 0 0 0 0 0 0 0 0 0 0 0 0 0 0 0 0 0 0 0 0 0 0 0 0 0 0 0 0 0 0 0 0 0 11 0 0 0 0 0 0 0 0 0 0 0 0 2 0 0 0 0 0 0 7 0 0 0 0 2 0 1 0 0 0 0 0 0 0 0 0 0 1 0 0 0 0 2 0 30 0 0 0 0 0 0 0 0 0 0 1 1 0 0 0 0 0 2 0 0 0 0 0 0 0 0 0 0 0 0 0 0 0 0 2 0 0 0 0 0 0 0 0 0 0 0 0 0 0 0 0 0 0 0 0 15 0 0 0 0 0 0 0 0 1 2 0 0 0 0 0 0 0 0 0 0 0 0 0 0 0 0 0 0 0 5 0 0 0 0 0 0 0 9 0 0 0 0 0 0 0 0 0 0 0 0 0 0 0 0 0 0 0 0 0 0 0 0 0 2 0 0 0 0 0 0 0 2 0 0 0 0 0 0 0 0 0 0 0 2 0 0 2 0 2 0 0 0 0 0 0 0 0 0 0 5 0 0 3 0 4 0 0 0 0 0 0 0 0 2 0 2 1 0 0 0 0 0 0 0 0 0 0 0 0 0 0 0 2 0 0 0 0 0 0 0 0 0 0 0 0 2 0 0 0 0 0 2 0 0 0 0 6 0 0 0 0 1 0 0 0 0 0 0 0 0 0 0 0 0 0 2 4 0 0 0 0 0 1 0 0 0 0 0 0 0 0 0 0 0 0 0 0 0 0 0 0 0 0 0 0 0 0 0 0 0 0 0 0 0 0 0 0 1 0 0 0 0 0 0 0 0 1 0 0 0 0 0 0 0 0 0 0 0 1 0 0 0 0 0 25 0 0 0 0 1 0 0 0 0 0 0 0 0 0 0 0 0 0 0 1 0 0 0 0 0 0 0 1 0 0 0 0 0 0 0 0 0 0 0 0 0 2 3 0 6 0 0 0 0 0 0 0 0 1 0 0 0 0 0 0 0 0 2 0 0 0 0 0 0 0 0 0 0 0 0 0 0 7 0 0 0 0 0 0 1 0 2 0 0 0 0 0 0 0 0 50 0 0 0 0 0 0 0 0 0 0 1 0 0 17 0 2 0 0 0 0 0 0 0 0 0 0 0 0 0 1 0 0 0 0 0 0 0 0 0 0 0 0 0 0 0 0 1 0 0 0 0 0 0 0 1 0 0 0 0 0 0 0 0 0 0 0 0 0 0 0 0 0 0 0 1 0 0 0 0 0 0 0 0 0 0 0 0 0 0 0 0 0 0 0 0 0 0 0 1 0 0 0 0 0 0 0 0 0 0 0 0 0 0 0 0 0 0 0 0 0 0 2 0 2 0 0 0 1 0 0 0 0 0 0 4 0 1 0 0 0 0 0 0 0 0 0 0 0 0 0 0 0 0 0 0 0 0 0 0 0 0 0 0 0 0 0 0 0 0 0 0 0 0 0 0 0 0 0 0 0 0 4 0 0 0 0 0 0 0 0 0 0 0 0 0 0 0 0 0 0 0 0 0 0 2 0 24 0 0 0 0 0 0 0 0 0 0 0 0 0 0 0 0 0 0 0 0 0 24 0 0 2 0 0 0 0 0 0 0 0 0 1 0 0 0 0 0 0 0 0 0 0 3 0 0 0 1 0 0 0 0 0 0 0 0 0 0 0 5 0 0 0 0 0 0 0 0 0 0 0 0 0 0 0 0 0 0 0 57 0 0 0 3 0 0 0 0 0 0 0 0 0 0 0 0 1 0 0 4 0 0 0 0 0 0 0 0 0 0 0 0 0 0 0 0 0 0 0 0 0 0 1 0 0 27 0 0 0 0 0 0 0 0 1 0 0 0 0 0 1 0 0 0 0 0 0 3 0 0 0 0 0 0 1 0 0 0 0 0 0 0 0 0 2 4 0 0 0 0 0 0 0 64 11 0 2 4 0 0 1 0 0 0 2 0 0 0 0 0 0 0 0 0 0 0 0 0 0 0 0 0 0 0 0 0 0 0 0 0 0 0 0 0 0 0 0 0 0 0 0 0 0 0 0 25 0 1 0 0 0 0 0 0 0 0 2 0 0 0 1 0 0 0 0 0 0 0 0 0 0 0 0 0 0 0 0 0 0 0 0 0 0 0 0 0 0 0 0 7 0 0 2 0 0 0 0 0 0 0 0 0 0 0 0 0 0 0 0 0 2 0 0 0 0 0 1 0 0 0 0 0 0 0 0 0 0 0 0 0 0 0 0 0 0 0 0 0 0 0 0 0 0 0 0 0 2 0 0 0 0 0 0 0 0 0 1 0 0 1 0 0 0 0 0 0 0 0 0 0 0 0 0 0 0 1 0 0 0 0 0 0 0 0 0 0 14 99 0 0 0 0 0 0 0 0 0 0 0 0 0 0 0 0 0 0 0 0 0 0 0 0 0 0 0 0 0 0 1 5 0 0 11 0 0 0 0 0 0 0 0 0 0 0 0 0 0 0 0 0 0 0 0 3 1 0 0 11 1 0 0 0 0 0 0 0 0 0 0 0 0 0 0 0 1 0 0 0 0 0 0 0 0 3 0 0 0 0 0 0 0 1 0 0 13 0 0 0 0 0 0 0 0 0 0 0 0 0 15 0 0 1 95 0 0 0 0 0 0 0 0 0 1 0 0 0 0 0 0 0 0 0 2 3 
Printing Sanity2
Heartbeat CPU 0 instructions: 110000000 cycles: 143550623 heartbeat IPC: 0.469922 cumulative IPC: 0.462498 (Simulation time: 0 hr 7 min 59 sec) 
Heartbeat CPU 0 instructions: 120000002 cycles: 165221528 heartbeat IPC: 0.461448 cumulative IPC: 0.462348 (Simulation time: 0 hr 8 min 52 sec) 
*** Reached end of trace for Core: 0 Repeating trace: traces/spec2k17/srv_66.champsimtrace.xz
Heartbeat CPU 0 instructions: 130000003 cycles: 187385210 heartbeat IPC: 0.451189 cumulative IPC: 0.460923 (Simulation time: 0 hr 9 min 45 sec) 
Heartbeat CPU 0 instructions: 140000002 cycles: 208824462 heartbeat IPC: 0.466434 cumulative IPC: 0.461529 (Simulation time: 0 hr 10 min 39 sec) 
Heartbeat CPU 0 instructions: 150000003 cycles: 230556361 heartbeat IPC: 0.460153 cumulative IPC: 0.461391 (Simulation time: 0 hr 11 min 33 sec) 
*** Reached end of trace for Core: 0 Repeating trace: traces/spec2k17/srv_66.champsimtrace.xz
Heartbeat CPU 0 instructions: 160000002 cycles: 252447668 heartbeat IPC: 0.456802 cumulative IPC: 0.46097 (Simulation time: 0 hr 12 min 23 sec) 
Heartbeat CPU 0 instructions: 170000003 cycles: 274098679 heartbeat IPC: 0.461872 cumulative IPC: 0.461045 (Simulation time: 0 hr 13 min 16 sec) 
Heartbeat CPU 0 instructions: 180000002 cycles: 295834258 heartbeat IPC: 0.460075 cumulative IPC: 0.46097 (Simulation time: 0 hr 14 min 6 sec) 
*** Reached end of trace for Core: 0 Repeating trace: traces/spec2k17/srv_66.champsimtrace.xz
Heartbeat CPU 0 instructions: 190000003 cycles: 317689367 heartbeat IPC: 0.457559 cumulative IPC: 0.460725 (Simulation time: 0 hr 14 min 57 sec) 
Heartbeat CPU 0 instructions: 200000002 cycles: 339234821 heartbeat IPC: 0.464135 cumulative IPC: 0.460951 (Simulation time: 0 hr 15 min 41 sec) 
Heartbeat CPU 0 instructions: 210000003 cycles: 361076454 heartbeat IPC: 0.457841 cumulative IPC: 0.460755 (Simulation time: 0 hr 16 min 18 sec) 
*** Reached end of trace for Core: 0 Repeating trace: traces/spec2k17/srv_66.champsimtrace.xz
Heartbeat CPU 0 instructions: 220000000 cycles: 382767603 heartbeat IPC: 0.461017 cumulative IPC: 0.46077 (Simulation time: 0 hr 16 min 51 sec) 
Heartbeat CPU 0 instructions: 230000002 cycles: 404416125 heartbeat IPC: 0.461925 cumulative IPC: 0.460835 (Simulation time: 0 hr 17 min 24 sec) 
Heartbeat CPU 0 instructions: 240000002 cycles: 426184909 heartbeat IPC: 0.459373 cumulative IPC: 0.460757 (Simulation time: 0 hr 17 min 56 sec) 
*** Reached end of trace for Core: 0 Repeating trace: traces/spec2k17/srv_66.champsimtrace.xz
Heartbeat CPU 0 instructions: 250000003 cycles: 447726964 heartbeat IPC: 0.464208 cumulative IPC: 0.460929 (Simulation time: 0 hr 18 min 27 sec) 
Finished CPU 0 instructions: 200000002 cycles: 433906602 cumulative IPC: 0.460929 (Simulation time: 0 hr 18 min 27 sec) 

ChampSim completed all CPUs

Region of Interest Statistics

CPU 0 cumulative IPC: 0.460929 instructions: 200000002 cycles: 433906602
ITLB TOTAL     ACCESS:   31542891  HIT:   30749129  MISS:     793762  HIT %:    97.4835  MISS %:    2.51645   MPKI: 3.96881
ITLB LOAD TRANSLATION ACCESS:   31542891  HIT:   30749129  MISS:     793762  HIT %:    97.4835  MISS %:    2.51645   MPKI: 3.96881
ITLB PREFETCH  REQUESTED:          0  ISSUED:          0  USEFUL:          0  USELESS:          0
ITLB USEFUL LOAD PREFETCHES:          0 PREFETCH ISSUED TO LOWER LEVEL:          0  ACCURACY: -nan
ITLB TIMELY PREFETCHES:          0 LATE PREFETCHES: 0 DROPPED PREFETCHES: 0
ITLB PREFETCHES SAME FILL-ORIGIN LEVEL: 0 DIFFERENT FILL-ORIGIN LEVEL: 0
ITLB AVERAGE MISS LATENCY: 14.0291 cycles
ITLB RQ	ACCESS:   38319163	FORWARD:          0	MERGED:    6582167	TO_CACHE:   31736996

DTLB TOTAL     ACCESS:   37023860  HIT:   34455097  MISS:    2568763  HIT %:    93.0619  MISS %:    6.93813   MPKI: 12.8438
DTLB LOAD TRANSLATION ACCESS:   37023860  HIT:   34455097  MISS:    2568763  HIT %:    93.0619  MISS %:    6.93813   MPKI: 12.8438
DTLB PREFETCH  REQUESTED:          0  ISSUED:          0  USEFUL:          0  USELESS:          0
DTLB USEFUL LOAD PREFETCHES:          0 PREFETCH ISSUED TO LOWER LEVEL:          0  ACCURACY: -nan
DTLB TIMELY PREFETCHES:          0 LATE PREFETCHES: 0 DROPPED PREFETCHES: 0
DTLB PREFETCHES SAME FILL-ORIGIN LEVEL: 0 DIFFERENT FILL-ORIGIN LEVEL: 0
DTLB AVERAGE MISS LATENCY: 13.776 cycles
DTLB RQ	ACCESS:   47542852	FORWARD:          0	MERGED:   10370469	TO_CACHE:   37172383

STLB TOTAL     ACCESS:    4023768  HIT:    3680505  MISS:     343263  HIT %:    91.4691  MISS %:    8.53088   MPKI: 1.71631
STLB LOAD TRANSLATION ACCESS:    3362525  HIT:    3020777  MISS:     341748  HIT %:    89.8366  MISS %:    10.1634   MPKI: 1.70874
STLB TRANSLATION FROM L1D PREFETCHER ACCESS:     661243  HIT:     659728  MISS:       1515  HIT %:    99.7709  MISS %:   0.229114   MPKI: 0.007575
STLB PREFETCH  REQUESTED:          0  ISSUED:          0  USEFUL:       1141  USELESS:        374
STLB USEFUL LOAD PREFETCHES:       1141 PREFETCH ISSUED TO LOWER LEVEL:          0  ACCURACY: inf
STLB TIMELY PREFETCHES:       1141 LATE PREFETCHES: 40 DROPPED PREFETCHES: 3111
STLB PREFETCHES SAME FILL-ORIGIN LEVEL: 0 DIFFERENT FILL-ORIGIN LEVEL: 0
STLB AVERAGE MISS LATENCY: 47.2842 cycles
STLB RQ	ACCESS:    4097451	FORWARD:          0	MERGED:      70372	TO_CACHE:    4027079

STLB Hit, L1D data hit: 0
STLB Hit, L2C data hit: 0
STLB Hit, LLC data hit: 0
STLB Hit, LLC data miss: 0
STLB STLB hints to L2: 0
L1D TOTAL     ACCESS:   47649155  HIT:   44728145  MISS:    2921010  HIT %:    93.8698  MISS %:    6.13025   MPKI: 14.605
L1D LOAD      ACCESS:   27434924  HIT:   25407733  MISS:    2027191  HIT %:    92.6109  MISS %:    7.38909   MPKI: 10.136
L1D RFO       ACCESS:   19569119  HIT:   19239258  MISS:     329861  HIT %:    98.3144  MISS %:    1.68562   MPKI: 1.6493
L1D PREFETCH  ACCESS:     645112  HIT:      81154  MISS:     563958  HIT %:    12.5798  MISS %:    87.4202   MPKI: 2.81979
AGUS PREFETCH L1 MISS: 0
L1D PREFETCH  REQUESTED:    1480897  ISSUED:    1480897  USEFUL:     154131  USELESS:     409827
L1D USEFUL LOAD PREFETCHES:     154131 PREFETCH ISSUED TO LOWER LEVEL:     576667  ACCURACY: 26.7279
L1D TIMELY PREFETCHES:     154131 LATE PREFETCHES: 12189 DROPPED PREFETCHES: 3111
L1D PREFETCHES SAME FILL-ORIGIN LEVEL: 576667 DIFFERENT FILL-ORIGIN LEVEL: 0
L1D AVERAGE MISS LATENCY: 1.26333e+06 cycles
L1D RQ	ACCESS:   42130120	FORWARD:          0	MERGED:   14319418	TO_CACHE:   27562769
L1D WQ	ACCESS:   20281804	FORWARD:     248191	MERGED:     301721	TO_CACHE:   19980083
L1D PQ	ACCESS:     745971	FORWARD:          0	MERGED:      10787	TO_CACHE:     734926

L1D UNIQUE REGIONS ACCESSED: 0
L1D REGIONS CONFLICTS: 0
L1D Cross Page Prefetch Requests: 745971
L1D Same Page Prefetch Requests: 0
L1D ROI Sum of L1D PQ occupancy: 9781877
L1D PREFETCHES PUSHED FROM L2C: 0
L1I TOTAL     ACCESS:   36538290  HIT:   31499826  MISS:    5038464  HIT %:    86.2105  MISS %:    13.7895   MPKI: 25.1923
L1I LOAD      ACCESS:   36538290  HIT:   31499826  MISS:    5038464  HIT %:    86.2105  MISS %:    13.7895   MPKI: 25.1923
L1I PREFETCH  REQUESTED:          0  ISSUED:          0  USEFUL:          0  USELESS:          0
L1I USEFUL LOAD PREFETCHES:          0 PREFETCH ISSUED TO LOWER LEVEL:          0  ACCURACY: -nan
L1I TIMELY PREFETCHES:          0 LATE PREFETCHES: 0 DROPPED PREFETCHES: 0
L1I PREFETCHES SAME FILL-ORIGIN LEVEL: 0 DIFFERENT FILL-ORIGIN LEVEL: 0
L1I AVERAGE MISS LATENCY: 25.7511 cycles
L1I RQ	ACCESS:   57203355	FORWARD:          0	MERGED:   18884192	TO_CACHE:   38319163

BTB TOTAL     ACCESS:   22223393  HIT:   18065540  MISS:    4157853  HIT %:    81.2906  MISS %:    18.7094   MPKI: 20.7893
BTB BRANCH_DIRECT_JUMP	ACCESS:    1718257  HIT:    1473997  MISS:     244260
BTB BRANCH_INDIRECT	ACCESS:    9436323  HIT:    7433911  MISS:    2002412
BTB BRANCH_CONDITIONAL	ACCESS:    4754690  HIT:    4374903  MISS:     379787
BTB BRANCH_DIRECT_CALL	ACCESS:    2480173  HIT:    2032253  MISS:     447920
BTB BRANCH_INDIRECT_CALL	ACCESS:     676469  HIT:     636836  MISS:      39633
BTB BRANCH_RETURN	ACCESS:    3157481  HIT:    2113640  MISS:    1043841
BTB BRANCH_OTHER ACCESS:          0  HIT:          0  MISS:          0

L2C TOTAL     ACCESS:    9448856  HIT:    6006632  MISS:    3442224  HIT %:    63.5699  MISS %:    36.4301   MPKI: 17.2111
L2C LOAD      ACCESS:    7053402  HIT:    4333554  MISS:    2719848  HIT %:    61.4392  MISS %:    38.5608   MPKI: 13.5992
L2C DATA LOAD MPKI: 4.30107
L2C INSTRUCTION LOAD MPKI: 9.29817
L2C RFO       ACCESS:     329341  HIT:     182929  MISS:     146412  HIT %:    55.5439  MISS %:    44.4561   MPKI: 0.73206
L2C PREFETCH  ACCESS:     576665  HIT:     240393  MISS:     336272  HIT %:    41.6868  MISS %:    58.3132   MPKI: 1.68136
AGUS PREFETCH L1 MISS: 0
L2C DATA PREFETCH MPKI: 1.68136
L2C INSTRUCTION PREFETCH MPKI: 0
L2C WRITEBACK ACCESS:    1029207  HIT:     976933  MISS:      52274  HIT %:    94.9209  MISS %:    5.07906   MPKI: 0.26137
L2C LOAD TRANSLATION ACCESS:     453753  HIT:     268233  MISS:     185520  HIT %:    59.1143  MISS %:    40.8857   MPKI: 0.9276
L2C TRANSLATION FROM L1D PREFETCHER ACCESS:       6488  HIT:       4590  MISS:       1898  HIT %:     70.746  MISS %:     29.254   MPKI: 0.00949
L2C PREFETCH  REQUESTED:          0  ISSUED:          0  USEFUL:      21685  USELESS:     316057
L2C USEFUL LOAD PREFETCHES:      21685 PREFETCH ISSUED TO LOWER LEVEL:     336272  ACCURACY: 6.44865
L2C TIMELY PREFETCHES:      21685 LATE PREFETCHES: 0 DROPPED PREFETCHES: 0
L2C PREFETCHES SAME FILL-ORIGIN LEVEL: 0 DIFFERENT FILL-ORIGIN LEVEL: 0
L2C AVERAGE MISS LATENCY: 44.1005 cycles
L2C RQ	ACCESS:    7843049	FORWARD:          0	MERGED:          0	TO_CACHE:    7842985
L2C WQ	ACCESS:    1029207	FORWARD:         66	MERGED:          0	TO_CACHE:    1029207
L2C PQ	ACCESS:     576667	FORWARD:          0	MERGED:          0	TO_CACHE:     576665

L2C Instructions Evicting Data 726204
L2C Translations Evicting Data 78445
L2C Data Evicting Data 569094
L2C Instructions Evicting Instructions 1036167
L2C Translations Evicting Instructions 96529
L2C Data Evicting Instructions 698489
L2C Instructions Evicting Translations 97263
L2C Translations Evicting Translations 12444
L2C Data Evicting Translations 75315
L2C Dense regions hint from L2: 0
PSCL5 TOTAL     ACCESS:     346374  HIT:     346374  MISS:          0  HIT %:        100  MISS %:          0   MPKI: 0
PSCL5 LOAD TRANSLATION ACCESS:     341708  HIT:     341708  MISS:          0  HIT %:        100  MISS %:          0   MPKI: 0
PSCL5 TRANSLATION FROM L1D PREFETCHER ACCESS:       4666  HIT:       4666  MISS:          0  HIT %:        100  MISS %:          0   MPKI: 0
PSCL5 PREFETCH  REQUESTED:          0  ISSUED:          0  USEFUL:          0  USELESS:          0
PSCL5 USEFUL LOAD PREFETCHES:          0 PREFETCH ISSUED TO LOWER LEVEL:          0  ACCURACY: -nan
PSCL5 TIMELY PREFETCHES:          0 LATE PREFETCHES: 0 DROPPED PREFETCHES: 0
PSCL5 PREFETCHES SAME FILL-ORIGIN LEVEL: 0 DIFFERENT FILL-ORIGIN LEVEL: 0

PSCL4 TOTAL     ACCESS:     336496  HIT:     335236  MISS:       1260  HIT %:    99.6256  MISS %:   0.374447   MPKI: 0.0063
PSCL4 LOAD TRANSLATION ACCESS:     332143  HIT:     330883  MISS:       1260  HIT %:    99.6206  MISS %:   0.379355   MPKI: 0.0063
PSCL4 TRANSLATION FROM L1D PREFETCHER ACCESS:       4353  HIT:       4353  MISS:          0  HIT %:        100  MISS %:          0   MPKI: 0
PSCL4 PREFETCH  REQUESTED:          0  ISSUED:          0  USEFUL:          0  USELESS:          0
PSCL4 USEFUL LOAD PREFETCHES:          0 PREFETCH ISSUED TO LOWER LEVEL:          0  ACCURACY: -nan
PSCL4 TIMELY PREFETCHES:          0 LATE PREFETCHES: 0 DROPPED PREFETCHES: 0
PSCL4 PREFETCHES SAME FILL-ORIGIN LEVEL: 0 DIFFERENT FILL-ORIGIN LEVEL: 0

PSCL3 TOTAL     ACCESS:     343666  HIT:     342406  MISS:       1260  HIT %:    99.6334  MISS %:   0.366635   MPKI: 0.0063
PSCL3 LOAD TRANSLATION ACCESS:     339002  HIT:     337742  MISS:       1260  HIT %:    99.6283  MISS %:   0.371679   MPKI: 0.0063
PSCL3 TRANSLATION FROM L1D PREFETCHER ACCESS:       4664  HIT:       4664  MISS:          0  HIT %:        100  MISS %:          0   MPKI: 0
PSCL3 PREFETCH  REQUESTED:          0  ISSUED:          0  USEFUL:          0  USELESS:          0
PSCL3 USEFUL LOAD PREFETCHES:          0 PREFETCH ISSUED TO LOWER LEVEL:          0  ACCURACY: -nan
PSCL3 TIMELY PREFETCHES:          0 LATE PREFETCHES: 0 DROPPED PREFETCHES: 0
PSCL3 PREFETCHES SAME FILL-ORIGIN LEVEL: 0 DIFFERENT FILL-ORIGIN LEVEL: 0

PSCL2 TOTAL     ACCESS:     344973  HIT:     235027  MISS:     109946  HIT %:    68.1291  MISS %:    31.8709   MPKI: 0.54973
PSCL2 LOAD TRANSLATION ACCESS:     342129  HIT:     232183  MISS:     109946  HIT %:    67.8642  MISS %:    32.1358   MPKI: 0.54973
PSCL2 TRANSLATION FROM L1D PREFETCHER ACCESS:       2844  HIT:       2844  MISS:          0  HIT %:        100  MISS %:          0   MPKI: 0
PSCL2 PREFETCH  REQUESTED:          0  ISSUED:          0  USEFUL:          0  USELESS:          0
PSCL2 USEFUL LOAD PREFETCHES:          0 PREFETCH ISSUED TO LOWER LEVEL:          0  ACCURACY: -nan
PSCL2 TIMELY PREFETCHES:          0 LATE PREFETCHES: 0 DROPPED PREFETCHES: 0
PSCL2 PREFETCHES SAME FILL-ORIGIN LEVEL: 0 DIFFERENT FILL-ORIGIN LEVEL: 0

LLC TOTAL     ACCESS:    3834939  HIT:    3500278  MISS:     334661  HIT %:    91.2734  MISS %:    8.72663   MPKI: 1.6733
LLC LOAD      ACCESS:    2719848  HIT:    2506607  MISS:     213241  HIT %:    92.1598  MISS %:    7.84018   MPKI: 1.0662
LLC RFO       ACCESS:     146409  HIT:      99368  MISS:      47041  HIT %:    67.8701  MISS %:    32.1299   MPKI: 0.235205
LLC PREFETCH  ACCESS:     336272  HIT:     277233  MISS:      59039  HIT %:    82.4431  MISS %:    17.5569   MPKI: 0.295195
AGUS PREFETCH L1 MISS: 0
LLC WRITEBACK ACCESS:     444992  HIT:     443000  MISS:       1992  HIT %:    99.5524  MISS %:   0.447648   MPKI: 0.00996
LLC LOAD TRANSLATION ACCESS:     185520  HIT:     172256  MISS:      13264  HIT %:    92.8504  MISS %:    7.14963   MPKI: 0.06632
LLC TRANSLATION FROM L1D PREFETCHER ACCESS:       1898  HIT:       1814  MISS:         84  HIT %:    95.5743  MISS %:    4.42571   MPKI: 0.00042
LLC PREFETCH  REQUESTED:          0  ISSUED:          0  USEFUL:       2805  USELESS:      51162
LLC USEFUL LOAD PREFETCHES:       2805 PREFETCH ISSUED TO LOWER LEVEL:      59039  ACCURACY: 4.7511
LLC TIMELY PREFETCHES:       2805 LATE PREFETCHES: 0 DROPPED PREFETCHES: 0
LLC PREFETCHES SAME FILL-ORIGIN LEVEL: 0 DIFFERENT FILL-ORIGIN LEVEL: 0
LLC AVERAGE MISS LATENCY: 149.715 cycles
LLC RQ	ACCESS:    3053679	FORWARD:          0	MERGED:          0	TO_CACHE:    3053676
LLC WQ	ACCESS:     444992	FORWARD:          3	MERGED:          0	TO_CACHE:     444992
LLC PQ	ACCESS:     336272	FORWARD:          0	MERGED:          0	TO_CACHE:     336272

LLC Dense regions hint to LLC: 0

RAW hits: 2838120
Loads Generated: 44968240
Loads sent to L1D: 42130120
Stores Generated: 20281799
Stores sent to L1D: 20281804
Major fault: 0 Minor fault: 6269
Allocated PAGES: 6269
CPU 0 L1D 
Prefetch count 1322638 BOP and RL 

DRAM Statistics
 CHANNEL 0
 RQ ROW_BUFFER_HIT:      70931  ROW_BUFFER_MISS:     261732
 DBUS_CONGESTED:        180
 WQ ROW_BUFFER_HIT:      30391  ROW_BUFFER_MISS:     193032  FULL:          0

 AVG_CONGESTED_CYCLE: 4
 All warmup complete: 2
Channel 0 Bank busy for read cycles: 0
Channel 0 Bank busy for write cycles: 0
Channel 0
Rank 0
0banks busy for read cycles: 379183204
0banks busy for write cycles: 111180
1banks busy for read cycles: 22858562
1banks busy for write cycles: 14157423
2banks busy for read cycles: 6950856
2banks busy for write cycles: 5009518
3banks busy for read cycles: 1015905
3banks busy for write cycles: 1585046
4banks busy for read cycles: 318686
4banks busy for write cycles: 859526
5banks busy for read cycles: 110008
5banks busy for write cycles: 530255
6banks busy for read cycles: 69209
6banks busy for write cycles: 388237
7banks busy for read cycles: 44100
7banks busy for write cycles: 332921
8banks busy for read cycles: 56322
8banks busy for write cycles: 325645

CPU 0 Branch Prediction Accuracy: 99.8407% MPKI: 0.28518 Average ROB Occupancy at Mispredict: 47.6411
Branch types
NOT_BRANCH: 164201241 82.1006%
BRANCH_DIRECT_JUMP: 1718257 0.859128%
BRANCH_INDIRECT: 9436323 4.71816%
BRANCH_CONDITIONAL: 18329755 9.16488%
BRANCH_DIRECT_CALL: 2480173 1.24009%
BRANCH_INDIRECT_CALL: 676469 0.338234%
BRANCH_RETURN: 3157481 1.57874%
BRANCH_OTHER: 0 0%

DRAM PAGES: 1048576
Allocated PAGES: 6269
