
*** ChampSim Multicore Out-of-Order Simulator ***

Warmup Instructions: 50000000
Simulation Instructions: 200000000
Number of CPUs: 1
LLC sets: 2048
LLC ways: 16
Off-chip DRAM Size: 4096 MB Channels: 1 Width: 64-bit Data Rate: 6400 MT/s
CPU 0 runs traces/spec2k17/srv_67.champsimtrace.xz
.xz
BTB has LRU replacement policy
ITLB has LRU replacement policy
DTLB has LRU replacement policy
STLB has LRU replacement policy
L1I has LRU replacement policy
CPU 0 l1d next line prefetcher
L1D has LRU replacement policy
Initialize SRRIP state for L2C
Initialize DRRIP state for LLC
Offsets elements: 
Potential of Offsets elements: 
rewards of Offsets elements: 
Printing Sanity1
offset list size2313
Heartbeat CPU 0 instructions: 10000001 cycles: 2764401 heartbeat IPC: 3.61742 cumulative IPC: 3.61742 (Simulation time: 0 hr 0 min 33 sec) 
Heartbeat CPU 0 instructions: 20000002 cycles: 5524176 heartbeat IPC: 3.62348 cumulative IPC: 3.62045 (Simulation time: 0 hr 1 min 7 sec) 
Heartbeat CPU 0 instructions: 30000003 cycles: 8285444 heartbeat IPC: 3.62153 cumulative IPC: 3.62081 (Simulation time: 0 hr 1 min 39 sec) 
*** Reached end of trace for Core: 0 Repeating trace: traces/spec2k17/srv_67.champsimtrace.xz
Heartbeat CPU 0 instructions: 40000003 cycles: 11044924 heartbeat IPC: 3.62387 cumulative IPC: 3.62157 (Simulation time: 0 hr 2 min 11 sec) 
Heartbeat CPU 0 instructions: 50000003 cycles: 13806452 heartbeat IPC: 3.62118 cumulative IPC: 3.6215 (Simulation time: 0 hr 2 min 43 sec) 

Warmup complete CPU 0 instructions: 50000003 cycles: 13806452 (Simulation time: 0 hr 2 min 43 sec) 

Heartbeat CPU 0 instructions: 60000001 cycles: 35517396 heartbeat IPC: 0.460597 cumulative IPC: 0.460597 (Simulation time: 0 hr 3 min 36 sec) 
*** Reached end of trace for Core: 0 Repeating trace: traces/spec2k17/srv_67.champsimtrace.xz
Heartbeat CPU 0 instructions: 70000003 cycles: 56702490 heartbeat IPC: 0.47203 cumulative IPC: 0.466244 (Simulation time: 0 hr 4 min 31 sec) 
Heartbeat CPU 0 instructions: 80000001 cycles: 78342198 heartbeat IPC: 0.462113 cumulative IPC: 0.464859 (Simulation time: 0 hr 5 min 25 sec) 
Heartbeat CPU 0 instructions: 90000001 cycles: 99803743 heartbeat IPC: 0.46595 cumulative IPC: 0.465131 (Simulation time: 0 hr 6 min 16 sec) 
*** Reached end of trace for Core: 0 Repeating trace: traces/spec2k17/srv_67.champsimtrace.xz
Heartbeat CPU 0 instructions: 100000003 cycles: 121051577 heartbeat IPC: 0.470636 cumulative IPC: 0.466222 (Simulation time: 0 hr 7 min 6 sec) 
Offsets elements: 
Potential of Offsets elements: 
rewards of Offsets elements: 0 6 0 7 0 0 0 1 0 0 0 4 6 0 0 0 0 0 0 0 0 0 2 2 0 173 0 0 0 0 0 0 0 0 0 108 0 2 0 0 0 0 0 0 0 0 0 2 0 131 0 0 0 0 0 0 0 0 0 0 0 0 0 0 2 0 1 0 0 0 0 0 0 0 0 0 0 0 0 1 0 0 0 179 0 1 0 3 0 0 3 0 0 0 0 0 0 187 0 0 0 0 11 0 0 0 0 0 0 0 0 0 0 0 0 2 0 0 0 1 13 125 2 0 0 0 0 198 0 0 2 0 0 0 0 0 0 0 0 0 0 0 1 0 0 0 0 0 0 0 0 0 0 0 0 0 0 0 0 0 0 0 0 0 0 0 4 0 0 0 6 0 30 0 0 0 0 0 0 0 0 11 0 0 0 13 0 0 0 0 0 0 0 0 0 0 0 0 0 0 0 0 5 0 0 1 0 0 1 90 0 0 0 0 1 0 0 0 0 0 0 5 0 0 0 66 0 0 8 0 0 0 0 0 0 0 0 4 0 0 0 0 0 0 0 0 203 1 0 0 0 0 0 0 0 158 9 5 132 85 24 20 0 0 0 0 0 0 0 0 9 0 0 0 0 1 0 0 0 0 0 0 0 0 0 0 0 4 0 0 0 0 0 2 0 0 0 0 0 0 0 0 0 0 0 0 0 0 0 0 0 0 0 0 0 9 0 0 0 38 0 0 0 0 0 4 1 17 0 0 71 0 0 0 2 0 67 0 49 0 0 0 0 0 0 0 0 2 0 0 0 0 0 0 0 53 0 0 0 0 0 0 0 0 0 0 0 0 0 0 0 0 0 0 0 0 0 2 1 0 0 0 0 0 2 0 148 0 0 0 0 5 0 0 0 0 0 0 0 0 0 0 0 0 0 0 2 3 0 0 1 4 0 0 0 0 0 0 0 1 0 0 1 0 0 1 0 2 2 0 0 0 0 0 0 0 0 0 0 0 0 0 0 28 0 0 0 0 11 4 0 3 1 0 0 0 0 0 1 0 0 0 0 0 0 0 0 0 0 0 0 0 0 0 0 0 0 0 0 0 0 0 0 0 0 0 0 0 0 0 0 0 0 0 0 0 6 0 1 0 0 0 0 0 0 9 0 0 0 0 0 0 0 0 0 0 0 0 0 0 0 0 0 0 1 0 8 0 0 0 0 0 0 0 0 0 0 0 0 0 0 67 0 0 0 0 0 0 0 0 0 0 0 0 0 0 0 0 0 6 0 0 53 0 0 0 0 0 61 0 0 0 0 0 0 0 0 0 0 0 0 0 0 15 2 0 0 0 98 0 2 23 1 3 12 46 153 78 36 1 0 0 0 0 3 0 2 0 0 0 0 0 0 0 0 0 5 0 1 0 0 1 0 0 3 9 11 3 69 109 0 0 9 8 2 0 0 44 24 0 0 0 0 0 0 0 0 0 0 5 0 0 0 0 0 0 0 2 1 0 0 1 2 5 0 5 1 0 0 3 1 0 0 0 0 0 0 0 0 0 0 0 0 0 0 0 1 2 0 0 0 0 0 1 0 0 0 1 0 0 0 0 0 0 0 0 0 0 0 0 0 0 0 0 0 0 0 0 0 0 0 0 0 0 0 0 0 0 0 4 0 0 0 1 1 0 1 0 0 0 0 0 0 0 0 0 0 0 0 0 0 0 0 0 6 0 0 0 0 0 11 0 63 0 0 0 0 0 0 0 0 0 0 0 1 1 0 0 0 0 0 0 0 0 0 0 0 0 0 0 0 0 0 0 0 0 0 0 0 0 0 0 0 0 0 0 0 4 0 0 0 0 0 0 0 0 0 0 0 2 10 1 2 0 0 0 0 0 7 1 4 1 0 0 0 0 0 0 0 0 4 0 0 0 0 0 0 0 0 0 0 0 0 0 0 0 0 0 0 0 0 0 0 0 0 1 0 0 0 0 0 0 0 0 0 1 0 0 0 0 0 0 0 0 0 1 5 3 0 0 0 6 0 0 0 0 0 0 0 0 0 0 0 0 0 0 4 0 0 0 0 0 27 0 0 0 0 0 0 0 1 0 0 0 0 0 0 0 0 0 0 0 0 0 5 0 0 0 0 0 1 1 16 17 3 0 0 0 0 0 4 0 0 0 0 0 0 0 0 0 0 0 0 0 0 0 0 0 0 0 0 33 21 0 0 0 0 0 0 0 0 0 0 0 0 0 0 0 0 0 0 0 0 0 0 0 0 0 0 0 1 0 0 0 0 0 0 0 0 0 0 0 0 0 0 0 0 0 1 0 0 0 0 0 0 0 0 0 0 2 1 0 0 0 0 0 0 0 7 9 16 0 0 0 0 0 0 0 0 0 0 0 0 2 0 0 0 0 0 0 0 0 0 0 0 0 0 0 0 0 0 0 0 0 0 0 0 0 0 0 0 0 0 0 0 0 0 0 0 0 0 0 0 0 0 0 0 0 0 0 0 0 1 0 0 0 0 0 0 0 1 0 0 0 0 0 1 1 2 0 0 0 0 0 0 0 10 0 0 0 1 0 0 0 0 0 0 0 0 0 1 0 0 0 3 0 0 0 0 0 4 0 0 0 0 0 0 0 0 0 0 1 0 0 0 0 0 0 0 0 0 0 0 0 0 0 0 0 0 0 0 0 0 0 0 0 0 0 0 0 0 0 0 0 0 0 0 0 0 0 0 0 0 8 18 0 0 0 0 0 6 0 0 0 0 0 0 0 0 0 0 0 0 0 0 0 0 0 0 0 0 0 0 0 0 0 0 0 0 0 14 0 0 0 0 0 0 0 0 0 0 0 0 0 0 0 0 0 0 0 0 0 0 0 0 0 0 0 0 0 0 0 0 0 0 0 0 0 0 0 0 0 0 0 0 0 0 0 0 0 1 0 0 0 0 0 0 0 0 0 1 0 0 2 0 4 0 0 0 0 0 0 0 0 2 0 0 0 0 0 0 0 0 0 0 0 0 0 0 0 4 1 0 0 0 1 0 0 0 0 0 0 11 0 1 0 0 0 0 0 0 0 0 0 0 0 10 0 0 32 0 0 0 0 0 91 0 0 0 0 0 0 0 0 0 0 0 0 0 0 0 0 0 0 0 0 0 0 0 0 0 0 0 0 0 0 0 0 0 0 8 0 0 0 0 0 0 0 0 0 0 0 0 0 0 0 0 0 0 0 0 0 0 0 0 0 1 0 0 0 0 0 0 0 0 0 0 0 0 0 1 0 0 0 0 0 19 0 0 0 0 0 0 0 0 0 0 0 0 0 0 0 0 0 0 0 0 0 0 0 0 0 0 0 100 2 5 0 0 0 0 0 0 0 0 0 0 0 0 0 0 2 1 4 10 0 0 0 0 0 0 1 0 0 0 0 0 0 0 0 0 0 0 0 0 0 0 0 0 0 0 0 0 2 32 0 0 0 0 0 0 0 1 0 3 0 3 0 2 0 0 0 0 0 31 80 0 0 0 0 0 0 0 0 0 0 0 0 0 0 1 0 0 0 0 0 2 0 0 0 0 0 0 0 0 0 0 0 0 0 0 0 0 0 0 0 0 0 0 0 0 0 0 0 0 0 0 0 0 0 0 0 1 0 0 1 0 0 0 0 0 0 0 0 0 0 0 0 0 0 0 0 0 0 0 0 0 0 0 0 0 0 0 0 2 1 0 0 2 0 0 0 0 0 0 0 3 0 0 1 1 0 0 0 0 1 0 0 0 0 0 0 0 0 0 0 0 0 0 0 0 0 0 0 2 1 0 0 0 0 0 0 0 0 0 0 0 0 0 0 12 0 0 0 0 0 0 0 0 0 0 0 0 0 0 0 0 0 0 0 5 0 0 0 1 0 0 0 0 0 0 0 0 0 0 0 0 0 0 5 1 0 0 0 0 0 0 0 0 0 0 0 0 0 0 0 0 0 0 0 7 0 0 0 0 0 0 0 0 0 0 0 0 0 0 0 0 0 0 0 0 0 0 0 0 0 0 0 0 0 0 0 0 0 0 0 0 0 0 0 15 0 0 0 0 0 0 0 0 0 227 0 0 0 0 0 0 0 0 0 0 0 0 0 1 0 0 0 0 0 0 0 0 0 0 0 0 0 0 0 0 0 0 0 0 0 11 0 0 0 0 0 0 0 0 0 0 0 0 0 0 0 0 0 0 0 0 0 0 3 0 0 0 0 0 0 0 0 0 0 0 0 0 0 0 0 0 0 0 0 0 0 0 1 0 0 0 0 0 0 0 1 0 0 0 0 0 0 0 0 0 0 0 0 0 0 0 0 0 0 0 0 0 0 0 0 2 0 0 0 0 0 7 0 1 0 0 0 0 0 0 0 0 0 0 0 0 169 0 0 0 194 19 0 0 2 0 0 0 0 0 0 0 0 0 0 0 0 0 0 0 0 0 0 0 0 0 0 0 0 0 0 0 0 0 0 0 0 0 0 0 1 0 0 0 0 0 0 1 0 2 0 0 0 2 0 12 0 0 0 0 0 0 0 0 0 0 0 0 0 0 0 0 0 0 0 0 0 0 0 0 0 0 0 0 0 0 0 0 0 0 0 0 0 1 0 0 0 0 2 0 0 0 0 0 0 0 0 0 0 0 0 0 0 0 0 0 2 0 0 0 0 0 0 0 0 0 0 0 0 0 1 0 0 0 0 0 0 0 0 0 0 0 0 0 0 0 0 0 0 0 0 0 0 0 0 0 0 0 0 0 0 0 0 0 0 0 0 0 0 0 0 0 4 0 0 0 0 0 0 0 0 0 0 0 0 0 0 0 20 0 0 0 0 0 0 0 0 0 0 0 0 0 4 0 0 0 0 0 0 0 0 0 0 0 4 5 3 0 0 0 0 0 0 27 0 0 0 0 0 0 0 5 0 0 1 0 0 0 0 0 0 0 0 0 0 0 0 0 0 1 1 0 0 3 0 1 0 0 0 0 0 0 0 0 0 0 0 0 0 0 0 0 0 0 0 0 0 0 0 0 0 0 0 0 0 0 0 0 0 0 0 0 0 0 0 0 0 0 0 0 0 0 0 0 0 45 36 4 1 0 0 0 0 0 0 0 0 0 0 0 0 0 13 0 13 0 0 0 0 0 0 0 0 0 0 0 0 2 0 0 0 7 0 0 0 0 0 0 0 0 0 0 4 1 0 2 1 0 0 0 0 0 0 0 0 0 0 0 0 0 0 0 
Printing Sanity2
Heartbeat CPU 0 instructions: 110000000 cycles: 142702029 heartbeat IPC: 0.461884 cumulative IPC: 0.465493 (Simulation time: 0 hr 7 min 57 sec) 
Heartbeat CPU 0 instructions: 120000000 cycles: 164145219 heartbeat IPC: 0.466349 cumulative IPC: 0.465615 (Simulation time: 0 hr 8 min 51 sec) 
*** Reached end of trace for Core: 0 Repeating trace: traces/spec2k17/srv_67.champsimtrace.xz
Heartbeat CPU 0 instructions: 130000001 cycles: 185455865 heartbeat IPC: 0.469249 cumulative IPC: 0.466066 (Simulation time: 0 hr 9 min 43 sec) 
Heartbeat CPU 0 instructions: 140000000 cycles: 207226843 heartbeat IPC: 0.459327 cumulative IPC: 0.465308 (Simulation time: 0 hr 10 min 37 sec) 
Heartbeat CPU 0 instructions: 150000002 cycles: 228308868 heartbeat IPC: 0.474338 cumulative IPC: 0.466195 (Simulation time: 0 hr 11 min 27 sec) 
*** Reached end of trace for Core: 0 Repeating trace: traces/spec2k17/srv_67.champsimtrace.xz
Heartbeat CPU 0 instructions: 160000000 cycles: 249783669 heartbeat IPC: 0.465662 cumulative IPC: 0.466147 (Simulation time: 0 hr 12 min 20 sec) 
Heartbeat CPU 0 instructions: 170000001 cycles: 271573313 heartbeat IPC: 0.458934 cumulative IPC: 0.465537 (Simulation time: 0 hr 13 min 11 sec) 
Heartbeat CPU 0 instructions: 180000001 cycles: 292711507 heartbeat IPC: 0.473077 cumulative IPC: 0.466108 (Simulation time: 0 hr 14 min 3 sec) 
*** Reached end of trace for Core: 0 Repeating trace: traces/spec2k17/srv_67.champsimtrace.xz
Heartbeat CPU 0 instructions: 190000000 cycles: 314048634 heartbeat IPC: 0.468667 cumulative IPC: 0.46629 (Simulation time: 0 hr 14 min 48 sec) 
Heartbeat CPU 0 instructions: 200000001 cycles: 335677268 heartbeat IPC: 0.46235 cumulative IPC: 0.466025 (Simulation time: 0 hr 15 min 41 sec) 
Heartbeat CPU 0 instructions: 210000003 cycles: 357019570 heartbeat IPC: 0.468553 cumulative IPC: 0.466183 (Simulation time: 0 hr 16 min 20 sec) 
*** Reached end of trace for Core: 0 Repeating trace: traces/spec2k17/srv_67.champsimtrace.xz
Heartbeat CPU 0 instructions: 220000000 cycles: 378253823 heartbeat IPC: 0.470937 cumulative IPC: 0.46646 (Simulation time: 0 hr 16 min 54 sec) 
Heartbeat CPU 0 instructions: 230000000 cycles: 399837924 heartbeat IPC: 0.463304 cumulative IPC: 0.466283 (Simulation time: 0 hr 17 min 27 sec) 
Heartbeat CPU 0 instructions: 240000001 cycles: 421335087 heartbeat IPC: 0.465178 cumulative IPC: 0.466225 (Simulation time: 0 hr 17 min 59 sec) 
*** Reached end of trace for Core: 0 Repeating trace: traces/spec2k17/srv_67.champsimtrace.xz
Heartbeat CPU 0 instructions: 250000003 cycles: 442540515 heartbeat IPC: 0.471577 cumulative IPC: 0.46649 (Simulation time: 0 hr 18 min 30 sec) 
Finished CPU 0 instructions: 200000000 cycles: 428734063 cumulative IPC: 0.46649 (Simulation time: 0 hr 18 min 30 sec) 

ChampSim completed all CPUs

Region of Interest Statistics

CPU 0 cumulative IPC: 0.46649 instructions: 200000000 cycles: 428734063
ITLB TOTAL     ACCESS:   31350850  HIT:   30557713  MISS:     793137  HIT %:    97.4701  MISS %:    2.52987   MPKI: 3.96569
ITLB LOAD TRANSLATION ACCESS:   31350850  HIT:   30557713  MISS:     793137  HIT %:    97.4701  MISS %:    2.52987   MPKI: 3.96569
ITLB PREFETCH  REQUESTED:          0  ISSUED:          0  USEFUL:          0  USELESS:          0
ITLB USEFUL LOAD PREFETCHES:          0 PREFETCH ISSUED TO LOWER LEVEL:          0  ACCURACY: -nan
ITLB TIMELY PREFETCHES:          0 LATE PREFETCHES: 0 DROPPED PREFETCHES: 0
ITLB PREFETCHES SAME FILL-ORIGIN LEVEL: 0 DIFFERENT FILL-ORIGIN LEVEL: 0
ITLB AVERAGE MISS LATENCY: 13.7295 cycles
ITLB RQ	ACCESS:   38248594	FORWARD:          0	MERGED:    6704038	TO_CACHE:   31544556

DTLB TOTAL     ACCESS:   36932476  HIT:   34353705  MISS:    2578771  HIT %:    93.0176  MISS %:    6.98239   MPKI: 12.8939
DTLB LOAD TRANSLATION ACCESS:   36932476  HIT:   34353705  MISS:    2578771  HIT %:    93.0176  MISS %:    6.98239   MPKI: 12.8939
DTLB PREFETCH  REQUESTED:          0  ISSUED:          0  USEFUL:          0  USELESS:          0
DTLB USEFUL LOAD PREFETCHES:          0 PREFETCH ISSUED TO LOWER LEVEL:          0  ACCURACY: -nan
DTLB TIMELY PREFETCHES:          0 LATE PREFETCHES: 0 DROPPED PREFETCHES: 0
DTLB PREFETCHES SAME FILL-ORIGIN LEVEL: 0 DIFFERENT FILL-ORIGIN LEVEL: 0
DTLB AVERAGE MISS LATENCY: 13.3456 cycles
DTLB RQ	ACCESS:   47454293	FORWARD:          0	MERGED:   10372830	TO_CACHE:   37081463

STLB TOTAL     ACCESS:    3373256  HIT:    3046530  MISS:     326726  HIT %:    90.3142  MISS %:    9.68578   MPKI: 1.63363
STLB LOAD TRANSLATION ACCESS:    3371908  HIT:    3045187  MISS:     326721  HIT %:    90.3105  MISS %:     9.6895   MPKI: 1.6336
STLB TRANSLATION FROM L1D PREFETCHER ACCESS:       1348  HIT:       1343  MISS:          5  HIT %:    99.6291  MISS %:    0.37092   MPKI: 2.5e-05
STLB PREFETCH  REQUESTED:          0  ISSUED:          0  USEFUL:          3  USELESS:          2
STLB USEFUL LOAD PREFETCHES:          3 PREFETCH ISSUED TO LOWER LEVEL:          0  ACCURACY: inf
STLB TIMELY PREFETCHES:          3 LATE PREFETCHES: 0 DROPPED PREFETCHES: 9
STLB PREFETCHES SAME FILL-ORIGIN LEVEL: 0 DIFFERENT FILL-ORIGIN LEVEL: 0
STLB AVERAGE MISS LATENCY: 45.5176 cycles
STLB RQ	ACCESS:    3373410	FORWARD:          0	MERGED:        144	TO_CACHE:    3373266

STLB Hit, L1D data hit: 0
STLB Hit, L2C data hit: 0
STLB Hit, LLC data hit: 0
STLB Hit, LLC data miss: 0
STLB STLB hints to L2: 0
L1D TOTAL     ACCESS:   46912384  HIT:   44500425  MISS:    2411959  HIT %:    94.8586  MISS %:    5.14141   MPKI: 12.0598
L1D LOAD      ACCESS:   27321495  HIT:   25239824  MISS:    2081671  HIT %:    92.3808  MISS %:    7.61917   MPKI: 10.4084
L1D RFO       ACCESS:   19589592  HIT:   19260405  MISS:     329187  HIT %:    98.3196  MISS %:    1.68042   MPKI: 1.64593
L1D PREFETCH  ACCESS:       1297  HIT:        196  MISS:       1101  HIT %:    15.1118  MISS %:    84.8882   MPKI: 0.005505
AGUS PREFETCH L1 MISS: 0
L1D PREFETCH  REQUESTED:       3035  ISSUED:       3035  USEFUL:        264  USELESS:        837
L1D USEFUL LOAD PREFETCHES:        264 PREFETCH ISSUED TO LOWER LEVEL:       1132  ACCURACY: 23.3216
L1D TIMELY PREFETCHES:        264 LATE PREFETCHES: 29 DROPPED PREFETCHES: 9
L1D PREFETCHES SAME FILL-ORIGIN LEVEL: 1132 DIFFERENT FILL-ORIGIN LEVEL: 0
L1D AVERAGE MISS LATENCY: 2180.5 cycles
L1D RQ	ACCESS:   42004761	FORWARD:          0	MERGED:   14289302	TO_CACHE:   27460963
L1D WQ	ACCESS:   20323448	FORWARD:     254497	MERGED:     330118	TO_CACHE:   19993330
L1D PQ	ACCESS:       1533	FORWARD:          0	MERGED:         30	TO_CACHE:       1502

L1D UNIQUE REGIONS ACCESSED: 0
L1D REGIONS CONFLICTS: 0
L1D Cross Page Prefetch Requests: 1533
L1D Same Page Prefetch Requests: 0
L1D ROI Sum of L1D PQ occupancy: 24740
L1D PREFETCHES PUSHED FROM L2C: 0
L1I TOTAL     ACCESS:   36476297  HIT:   31454536  MISS:    5021761  HIT %:    86.2328  MISS %:    13.7672   MPKI: 25.1088
L1I LOAD      ACCESS:   36476297  HIT:   31454536  MISS:    5021761  HIT %:    86.2328  MISS %:    13.7672   MPKI: 25.1088
L1I PREFETCH  REQUESTED:          0  ISSUED:          0  USEFUL:          0  USELESS:          0
L1I USEFUL LOAD PREFETCHES:          0 PREFETCH ISSUED TO LOWER LEVEL:          0  ACCURACY: -nan
L1I TIMELY PREFETCHES:          0 LATE PREFETCHES: 0 DROPPED PREFETCHES: 0
L1I PREFETCHES SAME FILL-ORIGIN LEVEL: 0 DIFFERENT FILL-ORIGIN LEVEL: 0
L1I AVERAGE MISS LATENCY: 24.7969 cycles
L1I RQ	ACCESS:   57198840	FORWARD:          0	MERGED:   18950246	TO_CACHE:   38248594

BTB TOTAL     ACCESS:   22385295  HIT:   18261967  MISS:    4123328  HIT %:    81.5802  MISS %:    18.4198   MPKI: 20.6166
BTB BRANCH_DIRECT_JUMP	ACCESS:    1763864  HIT:    1523664  MISS:     240200
BTB BRANCH_INDIRECT	ACCESS:    9441713  HIT:    7464419  MISS:    1977294
BTB BRANCH_CONDITIONAL	ACCESS:    4809987  HIT:    4436732  MISS:     373255
BTB BRANCH_DIRECT_CALL	ACCESS:    2503051  HIT:    2063439  MISS:     439612
BTB BRANCH_INDIRECT_CALL	ACCESS:     681117  HIT:     639848  MISS:      41269
BTB BRANCH_RETURN	ACCESS:    3185563  HIT:    2133865  MISS:    1051698
BTB BRANCH_OTHER ACCESS:          0  HIT:          0  MISS:          0

L2C TOTAL     ACCESS:    8864564  HIT:    5941794  MISS:    2922770  HIT %:    67.0286  MISS %:    32.9714   MPKI: 14.6138
L2C LOAD      ACCESS:    7103322  HIT:    4538693  MISS:    2564629  HIT %:    63.8954  MISS %:    36.1046   MPKI: 12.8231
L2C DATA LOAD MPKI: 4.36577
L2C INSTRUCTION LOAD MPKI: 8.45738
L2C RFO       ACCESS:     329179  HIT:     192268  MISS:     136911  HIT %:    58.4083  MISS %:    41.5917   MPKI: 0.684555
L2C PREFETCH  ACCESS:       1132  HIT:        203  MISS:        929  HIT %:    17.9329  MISS %:    82.0671   MPKI: 0.004645
AGUS PREFETCH L1 MISS: 0
L2C DATA PREFETCH MPKI: 0.004645
L2C INSTRUCTION PREFETCH MPKI: 0
L2C WRITEBACK ACCESS:     995948  HIT:     944046  MISS:      51902  HIT %:    94.7887  MISS %:    5.21132   MPKI: 0.25951
L2C LOAD TRANSLATION ACCESS:     434961  HIT:     266573  MISS:     168388  HIT %:    61.2866  MISS %:    38.7134   MPKI: 0.84194
L2C TRANSLATION FROM L1D PREFETCHER ACCESS:         22  HIT:         11  MISS:         11  HIT %:         50  MISS %:         50   MPKI: 5.5e-05
L2C PREFETCH  REQUESTED:          0  ISSUED:          0  USEFUL:         30  USELESS:        910
L2C USEFUL LOAD PREFETCHES:         30 PREFETCH ISSUED TO LOWER LEVEL:        929  ACCURACY: 3.22928
L2C TIMELY PREFETCHES:         30 LATE PREFETCHES: 0 DROPPED PREFETCHES: 0
L2C PREFETCHES SAME FILL-ORIGIN LEVEL: 0 DIFFERENT FILL-ORIGIN LEVEL: 0
L2C AVERAGE MISS LATENCY: 45.1562 cycles
L2C RQ	ACCESS:    7867571	FORWARD:          0	MERGED:          0	TO_CACHE:    7867484
L2C WQ	ACCESS:     995948	FORWARD:         87	MERGED:          0	TO_CACHE:     995948
L2C PQ	ACCESS:       1132	FORWARD:          0	MERGED:          0	TO_CACHE:       1132

L2C Instructions Evicting Data 596091
L2C Translations Evicting Data 62365
L2C Data Evicting Data 384623
L2C Instructions Evicting Instructions 1002155
L2C Translations Evicting Instructions 94563
L2C Data Evicting Instructions 564973
L2C Instructions Evicting Translations 93229
L2C Translations Evicting Translations 11471
L2C Data Evicting Translations 61398
L2C Dense regions hint from L2: 0
PSCL5 TOTAL     ACCESS:     326735  HIT:     326735  MISS:          0  HIT %:        100  MISS %:          0   MPKI: 0
PSCL5 LOAD TRANSLATION ACCESS:     326721  HIT:     326721  MISS:          0  HIT %:        100  MISS %:          0   MPKI: 0
PSCL5 TRANSLATION FROM L1D PREFETCHER ACCESS:         14  HIT:         14  MISS:          0  HIT %:        100  MISS %:          0   MPKI: 0
PSCL5 PREFETCH  REQUESTED:          0  ISSUED:          0  USEFUL:          0  USELESS:          0
PSCL5 USEFUL LOAD PREFETCHES:          0 PREFETCH ISSUED TO LOWER LEVEL:          0  ACCURACY: -nan
PSCL5 TIMELY PREFETCHES:          0 LATE PREFETCHES: 0 DROPPED PREFETCHES: 0
PSCL5 PREFETCHES SAME FILL-ORIGIN LEVEL: 0 DIFFERENT FILL-ORIGIN LEVEL: 0

PSCL4 TOTAL     ACCESS:     308880  HIT:     308194  MISS:        686  HIT %:    99.7779  MISS %:   0.222093   MPKI: 0.00343
PSCL4 LOAD TRANSLATION ACCESS:     308866  HIT:     308180  MISS:        686  HIT %:    99.7779  MISS %:   0.222103   MPKI: 0.00343
PSCL4 TRANSLATION FROM L1D PREFETCHER ACCESS:         14  HIT:         14  MISS:          0  HIT %:        100  MISS %:          0   MPKI: 0
PSCL4 PREFETCH  REQUESTED:          0  ISSUED:          0  USEFUL:          0  USELESS:          0
PSCL4 USEFUL LOAD PREFETCHES:          0 PREFETCH ISSUED TO LOWER LEVEL:          0  ACCURACY: -nan
PSCL4 TIMELY PREFETCHES:          0 LATE PREFETCHES: 0 DROPPED PREFETCHES: 0
PSCL4 PREFETCHES SAME FILL-ORIGIN LEVEL: 0 DIFFERENT FILL-ORIGIN LEVEL: 0

PSCL3 TOTAL     ACCESS:     325720  HIT:     324349  MISS:       1371  HIT %:    99.5791  MISS %:   0.420914   MPKI: 0.006855
PSCL3 LOAD TRANSLATION ACCESS:     325706  HIT:     324335  MISS:       1371  HIT %:    99.5791  MISS %:   0.420932   MPKI: 0.006855
PSCL3 TRANSLATION FROM L1D PREFETCHER ACCESS:         14  HIT:         14  MISS:          0  HIT %:        100  MISS %:          0   MPKI: 0
PSCL3 PREFETCH  REQUESTED:          0  ISSUED:          0  USEFUL:          0  USELESS:          0
PSCL3 USEFUL LOAD PREFETCHES:          0 PREFETCH ISSUED TO LOWER LEVEL:          0  ACCURACY: -nan
PSCL3 TIMELY PREFETCHES:          0 LATE PREFETCHES: 0 DROPPED PREFETCHES: 0
PSCL3 PREFETCHES SAME FILL-ORIGIN LEVEL: 0 DIFFERENT FILL-ORIGIN LEVEL: 0

PSCL2 TOTAL     ACCESS:     326729  HIT:     220544  MISS:     106185  HIT %:    67.5006  MISS %:    32.4994   MPKI: 0.530925
PSCL2 LOAD TRANSLATION ACCESS:     326723  HIT:     220538  MISS:     106185  HIT %:       67.5  MISS %:       32.5   MPKI: 0.530925
PSCL2 TRANSLATION FROM L1D PREFETCHER ACCESS:          6  HIT:          6  MISS:          0  HIT %:        100  MISS %:          0   MPKI: 0
PSCL2 PREFETCH  REQUESTED:          0  ISSUED:          0  USEFUL:          0  USELESS:          0
PSCL2 USEFUL LOAD PREFETCHES:          0 PREFETCH ISSUED TO LOWER LEVEL:          0  ACCURACY: -nan
PSCL2 TIMELY PREFETCHES:          0 LATE PREFETCHES: 0 DROPPED PREFETCHES: 0
PSCL2 PREFETCHES SAME FILL-ORIGIN LEVEL: 0 DIFFERENT FILL-ORIGIN LEVEL: 0

LLC TOTAL     ACCESS:    3280834  HIT:    2974733  MISS:     306101  HIT %:      90.67  MISS %:    9.32998   MPKI: 1.53051
LLC LOAD      ACCESS:    2564629  HIT:    2319451  MISS:     245178  HIT %:      90.44  MISS %:    9.55998   MPKI: 1.22589
LLC RFO       ACCESS:     136911  HIT:      89910  MISS:      47001  HIT %:    65.6704  MISS %:    34.3296   MPKI: 0.235005
LLC PREFETCH  ACCESS:        929  HIT:        123  MISS:        806  HIT %:      13.24  MISS %:      86.76   MPKI: 0.00403
AGUS PREFETCH L1 MISS: 0
LLC WRITEBACK ACCESS:     409966  HIT:     408204  MISS:       1762  HIT %:    99.5702  MISS %:   0.429792   MPKI: 0.00881
LLC LOAD TRANSLATION ACCESS:     168388  HIT:     157040  MISS:      11348  HIT %:    93.2608  MISS %:     6.7392   MPKI: 0.05674
LLC TRANSLATION FROM L1D PREFETCHER ACCESS:         11  HIT:          5  MISS:          6  HIT %:    45.4545  MISS %:    54.5455   MPKI: 3e-05
LLC PREFETCH  REQUESTED:          0  ISSUED:          0  USEFUL:          8  USELESS:        799
LLC USEFUL LOAD PREFETCHES:          8 PREFETCH ISSUED TO LOWER LEVEL:        806  ACCURACY: 0.992556
LLC TIMELY PREFETCHES:          8 LATE PREFETCHES: 0 DROPPED PREFETCHES: 0
LLC PREFETCHES SAME FILL-ORIGIN LEVEL: 0 DIFFERENT FILL-ORIGIN LEVEL: 0
LLC AVERAGE MISS LATENCY: 149.8 cycles
LLC RQ	ACCESS:    2869939	FORWARD:          0	MERGED:          0	TO_CACHE:    2869939
LLC WQ	ACCESS:     409966	FORWARD:          0	MERGED:          0	TO_CACHE:     409966
LLC PQ	ACCESS:        929	FORWARD:          0	MERGED:          0	TO_CACHE:        929

LLC Dense regions hint to LLC: 0

RAW hits: 2859501
Loads Generated: 44864262
Loads sent to L1D: 42004761
Stores Generated: 20323447
Stores sent to L1D: 20323448
Major fault: 0 Minor fault: 6122
Allocated PAGES: 6122
CPU 0 L1D 
Prefetch count 2665 BOP and RL 

DRAM Statistics
 CHANNEL 0
 RQ ROW_BUFFER_HIT:      64569  ROW_BUFFER_MISS:     239770
 DBUS_CONGESTED:        144
 WQ ROW_BUFFER_HIT:      34170  ROW_BUFFER_MISS:     175868  FULL:          0

 AVG_CONGESTED_CYCLE: 4
 All warmup complete: 2
Channel 0 Bank busy for read cycles: 0
Channel 0 Bank busy for write cycles: 0
Channel 0
Rank 0
0banks busy for read cycles: 372126237
0banks busy for write cycles: 114633
1banks busy for read cycles: 27758753
1banks busy for write cycles: 16414965
2banks busy for read cycles: 3747557
2banks busy for write cycles: 4107445
3banks busy for read cycles: 486744
3banks busy for write cycles: 1488881
4banks busy for read cycles: 204653
4banks busy for write cycles: 782839
5banks busy for read cycles: 101507
5banks busy for write cycles: 442025
6banks busy for read cycles: 67920
6banks busy for write cycles: 297170
7banks busy for read cycles: 46933
7banks busy for write cycles: 244964
8banks busy for read cycles: 52312
8banks busy for write cycles: 248526

CPU 0 Branch Prediction Accuracy: 99.8315% MPKI: 0.301655 Average ROB Occupancy at Mispredict: 46.1079
Branch types
NOT_BRANCH: 164189943 82.095%
BRANCH_DIRECT_JUMP: 1763864 0.881932%
BRANCH_INDIRECT: 9441713 4.72086%
BRANCH_CONDITIONAL: 18234424 9.11721%
BRANCH_DIRECT_CALL: 2503051 1.25153%
BRANCH_INDIRECT_CALL: 681117 0.340558%
BRANCH_RETURN: 3185563 1.59278%
BRANCH_OTHER: 0 0%

DRAM PAGES: 1048576
Allocated PAGES: 6122
