
*** ChampSim Multicore Out-of-Order Simulator ***

Warmup Instructions: 50000000
Simulation Instructions: 200000000
Number of CPUs: 1
LLC sets: 2048
LLC ways: 16
Off-chip DRAM Size: 4096 MB Channels: 1 Width: 64-bit Data Rate: 6400 MT/s
CPU 0 runs traces/spec2k17/srv_75.champsimtrace.xz
.xz
BTB has LRU replacement policy
ITLB has LRU replacement policy
DTLB has LRU replacement policy
STLB has LRU replacement policy
L1I has LRU replacement policy
CPU 0 l1d next line prefetcher
L1D has LRU replacement policy
Initialize SRRIP state for L2C
Initialize DRRIP state for LLC
Offsets elements: 
Potential of Offsets elements: 
rewards of Offsets elements: 
Printing Sanity1
offset list size875
Heartbeat CPU 0 instructions: 10000003 cycles: 2944171 heartbeat IPC: 3.39654 cumulative IPC: 3.39654 (Simulation time: 0 hr 0 min 36 sec) 
Heartbeat CPU 0 instructions: 20000002 cycles: 5879146 heartbeat IPC: 3.40718 cumulative IPC: 3.40185 (Simulation time: 0 hr 1 min 14 sec) 
Offsets elements: 
Potential of Offsets elements: 
rewards of Offsets elements: 0 0 0 0 0 0 52 0 0 17 0 0 0 0 0 0 0 0 0 0 0 0 0 0 0 0 0 274 0 0 2 35 339 18 0 0 0 0 53 0 0 29 0 0 123 0 0 6 0 0 0 0 0 0 0 0 0 0 0 0 0 0 254 0 0 288 307 0 0 0 0 0 0 0 0 0 0 0 0 0 10 2 0 0 0 0 0 0 0 0 488 0 0 0 0 0 0 0 0 35 0 0 0 0 0 0 0 0 0 0 0 260 0 0 0 0 0 0 0 0 2 0 0 334 251 0 0 0 0 0 0 0 0 0 0 0 0 0 0 0 0 0 0 0 0 9 0 0 0 0 0 184 0 0 0 0 0 0 0 0 0 0 0 0 0 0 0 11 0 0 0 0 0 0 0 0 0 0 0 0 0 77 0 0 0 390 0 0 0 0 2 0 0 0 0 0 0 0 0 0 0 0 0 0 0 0 0 0 0 0 0 0 2 0 5 1 95 0 0 0 0 0 0 58 0 0 0 0 0 0 0 0 0 0 0 0 0 0 143 0 0 0 0 0 0 0 0 0 0 1 103 162 0 0 1 0 232 0 29 0 9 31 0 0 0 0 0 0 0 0 0 0 0 1 0 1 0 24 0 40 0 0 19 0 0 0 0 0 0 0 0 72 14 0 0 0 0 2 0 0 0 29 12 0 0 15 0 0 202 0 0 0 0 0 0 0 135 1 0 246 0 0 26 0 46 0 23 0 6 0 63 2 0 0 0 5 0 0 0 0 0 77 0 222 0 32 26 0 10 0 11 8 1 0 0 0 0 0 0 0 0 0 0 1 0 0 0 0 0 0 0 0 0 62 0 0 0 0 20 0 0 0 374 0 318 0 0 313 0 0 0 146 0 31 0 0 0 132 0 391 0 0 0 0 0 0 0 0 0 0 0 0 0 0 0 0 0 0 0 0 0 0 0 0 0 0 0 0 0 0 0 0 0 0 0 0 0 0 0 0 0 33 0 9 0 0 0 0 0 0 231 0 0 0 0 0 0 0 0 0 0 48 0 0 1 0 0 2 39 0 0 0 0 0 0 0 0 1 51 3 0 0 0 0 0 0 0 159 354 0 0 0 0 0 404 0 0 0 0 209 0 0 4 24 0 0 7 0 0 54 0 0 0 0 0 0 0 0 0 0 118 0 0 0 1 0 0 0 0 0 0 0 0 0 0 0 0 0 0 0 0 80 0 1 0 0 0 1 0 23 10 0 0 0 1 0 0 0 0 0 0 245 84 0 0 0 0 0 0 0 0 0 0 0 0 0 0 0 190 7 0 0 0 0 15 0 0 0 0 0 0 1 1 36 0 25 0 0 0 0 0 3 235 0 0 0 0 0 0 0 0 0 0 0 24 0 2 0 37 0 0 0 0 58 0 0 0 0 0 0 0 0 0 0 0 0 0 0 0 0 0 0 41 0 0 0 0 0 0 278 0 0 308 0 0 0 0 0 0 0 0 0 0 0 0 0 0 0 0 0 30 0 0 0 0 0 0 0 0 0 0 0 0 9 0 0 0 0 0 0 0 5 0 0 0 0 0 0 0 0 264 0 15 0 0 0 0 0 0 0 0 0 0 0 0 0 0 0 1 0 0 0 0 0 0 0 0 0 0 0 0 0 0 0 0 0 0 2 0 0 1 0 0 0 0 161 0 0 0 0 0 0 0 2 0 0 0 0 0 0 0 0 0 0 0 0 0 0 1 24 75 0 0 32 0 0 10 0 0 0 0 0 1 0 0 0 1 55 0 0 0 0 25 89 0 0 0 35 0 0 0 0 0 0 0 0 0 0 1 0 0 0 0 180 0 0 0 0 0 0 0 0 0 0 0 0 0 0 0 0 0 0 0 0 0 0 0 10 0 0 0 0 0 0 2 0 0 0 0 0 2 0 0 0 0 0 0 0 0 0 0 0 0 0 34 0 0 0 0 0 0 0 0 0 77 
Printing Sanity2
Heartbeat CPU 0 instructions: 30000001 cycles: 8820296 heartbeat IPC: 3.40003 cumulative IPC: 3.40125 (Simulation time: 0 hr 1 min 53 sec) 
*** Reached end of trace for Core: 0 Repeating trace: traces/spec2k17/srv_75.champsimtrace.xz
Heartbeat CPU 0 instructions: 40000000 cycles: 11760231 heartbeat IPC: 3.40144 cumulative IPC: 3.40129 (Simulation time: 0 hr 2 min 31 sec) 
Heartbeat CPU 0 instructions: 50000001 cycles: 14699508 heartbeat IPC: 3.4022 cumulative IPC: 3.40147 (Simulation time: 0 hr 3 min 9 sec) 

Warmup complete CPU 0 instructions: 50000001 cycles: 14699508 (Simulation time: 0 hr 3 min 9 sec) 

Heartbeat CPU 0 instructions: 60000003 cycles: 34611794 heartbeat IPC: 0.502203 cumulative IPC: 0.502203 (Simulation time: 0 hr 4 min 17 sec) 
*** Reached end of trace for Core: 0 Repeating trace: traces/spec2k17/srv_75.champsimtrace.xz
Heartbeat CPU 0 instructions: 70000000 cycles: 54464659 heartbeat IPC: 0.503706 cumulative IPC: 0.502953 (Simulation time: 0 hr 5 min 22 sec) 
Heartbeat CPU 0 instructions: 80000000 cycles: 74324315 heartbeat IPC: 0.503533 cumulative IPC: 0.503146 (Simulation time: 0 hr 6 min 26 sec) 
Heartbeat CPU 0 instructions: 90000002 cycles: 94090097 heartbeat IPC: 0.505925 cumulative IPC: 0.503838 (Simulation time: 0 hr 7 min 30 sec) 
*** Reached end of trace for Core: 0 Repeating trace: traces/spec2k17/srv_75.champsimtrace.xz
Heartbeat CPU 0 instructions: 100000000 cycles: 113910871 heartbeat IPC: 0.504521 cumulative IPC: 0.503974 (Simulation time: 0 hr 8 min 20 sec) 
Heartbeat CPU 0 instructions: 110000000 cycles: 133777429 heartbeat IPC: 0.503358 cumulative IPC: 0.503872 (Simulation time: 0 hr 9 min 6 sec) 
Heartbeat CPU 0 instructions: 120000000 cycles: 153577396 heartbeat IPC: 0.505051 cumulative IPC: 0.50404 (Simulation time: 0 hr 9 min 48 sec) 
*** Reached end of trace for Core: 0 Repeating trace: traces/spec2k17/srv_75.champsimtrace.xz
Heartbeat CPU 0 instructions: 130000002 cycles: 173370659 heartbeat IPC: 0.505222 cumulative IPC: 0.504187 (Simulation time: 0 hr 10 min 30 sec) 
Heartbeat CPU 0 instructions: 140000000 cycles: 193193559 heartbeat IPC: 0.504467 cumulative IPC: 0.504218 (Simulation time: 0 hr 11 min 9 sec) 
Heartbeat CPU 0 instructions: 150000001 cycles: 212967072 heartbeat IPC: 0.505727 cumulative IPC: 0.504369 (Simulation time: 0 hr 11 min 49 sec) 
Heartbeat CPU 0 instructions: 160000000 cycles: 232744297 heartbeat IPC: 0.505632 cumulative IPC: 0.504484 (Simulation time: 0 hr 12 min 26 sec) 
*** Reached end of trace for Core: 0 Repeating trace: traces/spec2k17/srv_75.champsimtrace.xz
Heartbeat CPU 0 instructions: 170000001 cycles: 252471542 heartbeat IPC: 0.506913 cumulative IPC: 0.504685 (Simulation time: 0 hr 13 min 3 sec) 
Heartbeat CPU 0 instructions: 180000002 cycles: 272327534 heartbeat IPC: 0.503626 cumulative IPC: 0.504604 (Simulation time: 0 hr 13 min 40 sec) 
Heartbeat CPU 0 instructions: 190000000 cycles: 292094997 heartbeat IPC: 0.505882 cumulative IPC: 0.504695 (Simulation time: 0 hr 14 min 17 sec) 
*** Reached end of trace for Core: 0 Repeating trace: traces/spec2k17/srv_75.champsimtrace.xz
Heartbeat CPU 0 instructions: 200000002 cycles: 311862773 heartbeat IPC: 0.505874 cumulative IPC: 0.504773 (Simulation time: 0 hr 14 min 54 sec) 
Heartbeat CPU 0 instructions: 210000000 cycles: 331651247 heartbeat IPC: 0.505345 cumulative IPC: 0.504809 (Simulation time: 0 hr 15 min 28 sec) 
Heartbeat CPU 0 instructions: 220000000 cycles: 351378778 heartbeat IPC: 0.506906 cumulative IPC: 0.504932 (Simulation time: 0 hr 15 min 59 sec) 
*** Reached end of trace for Core: 0 Repeating trace: traces/spec2k17/srv_75.champsimtrace.xz
Heartbeat CPU 0 instructions: 230000003 cycles: 371101614 heartbeat IPC: 0.507027 cumulative IPC: 0.505048 (Simulation time: 0 hr 16 min 30 sec) 
Heartbeat CPU 0 instructions: 240000000 cycles: 390932165 heartbeat IPC: 0.504272 cumulative IPC: 0.505007 (Simulation time: 0 hr 17 min 1 sec) 
Heartbeat CPU 0 instructions: 250000002 cycles: 410692933 heartbeat IPC: 0.506053 cumulative IPC: 0.505059 (Simulation time: 0 hr 17 min 32 sec) 
Finished CPU 0 instructions: 200000001 cycles: 395993425 cumulative IPC: 0.505059 (Simulation time: 0 hr 17 min 32 sec) 

ChampSim completed all CPUs

Region of Interest Statistics

CPU 0 cumulative IPC: 0.505059 instructions: 200000001 cycles: 395993425
ITLB TOTAL     ACCESS:   33773315  HIT:   32236572  MISS:    1536743  HIT %:    95.4498  MISS %:    4.55017   MPKI: 7.68371
ITLB LOAD TRANSLATION ACCESS:   33773315  HIT:   32236572  MISS:    1536743  HIT %:    95.4498  MISS %:    4.55017   MPKI: 7.68371
ITLB PREFETCH  REQUESTED:          0  ISSUED:          0  USEFUL:          0  USELESS:          0
ITLB USEFUL LOAD PREFETCHES:          0 PREFETCH ISSUED TO LOWER LEVEL:          0  ACCURACY: -nan
ITLB TIMELY PREFETCHES:          0 LATE PREFETCHES: 0 DROPPED PREFETCHES: 0
ITLB PREFETCHES SAME FILL-ORIGIN LEVEL: 0 DIFFERENT FILL-ORIGIN LEVEL: 0
ITLB AVERAGE MISS LATENCY: 9.1778 cycles
ITLB RQ	ACCESS:   40664429	FORWARD:          0	MERGED:    6395752	TO_CACHE:   34268677

DTLB TOTAL     ACCESS:   39976561  HIT:   38452978  MISS:    1523583  HIT %:    96.1888  MISS %:    3.81119   MPKI: 7.61791
DTLB LOAD TRANSLATION ACCESS:   39976561  HIT:   38452978  MISS:    1523583  HIT %:    96.1888  MISS %:    3.81119   MPKI: 7.61791
DTLB PREFETCH  REQUESTED:          0  ISSUED:          0  USEFUL:          0  USELESS:          0
DTLB USEFUL LOAD PREFETCHES:          0 PREFETCH ISSUED TO LOWER LEVEL:          0  ACCURACY: -nan
DTLB TIMELY PREFETCHES:          0 LATE PREFETCHES: 0 DROPPED PREFETCHES: 0
DTLB PREFETCHES SAME FILL-ORIGIN LEVEL: 0 DIFFERENT FILL-ORIGIN LEVEL: 0
DTLB AVERAGE MISS LATENCY: 13.8177 cycles
DTLB RQ	ACCESS:   61151576	FORWARD:          0	MERGED:   20779398	TO_CACHE:   40372178

STLB TOTAL     ACCESS:    3061677  HIT:    2986468  MISS:      75209  HIT %:    97.5435  MISS %:    2.45646   MPKI: 0.376045
STLB LOAD TRANSLATION ACCESS:    3060326  HIT:    2985117  MISS:      75209  HIT %:    97.5425  MISS %:    2.45755   MPKI: 0.376045
STLB TRANSLATION FROM L1D PREFETCHER ACCESS:       1351  HIT:       1351  MISS:          0  HIT %:        100  MISS %:          0   MPKI: 0
STLB PREFETCH  REQUESTED:          0  ISSUED:          0  USEFUL:          0  USELESS:          0
STLB USEFUL LOAD PREFETCHES:          0 PREFETCH ISSUED TO LOWER LEVEL:          0  ACCURACY: -nan
STLB TIMELY PREFETCHES:          0 LATE PREFETCHES: 0 DROPPED PREFETCHES: 1
STLB PREFETCHES SAME FILL-ORIGIN LEVEL: 0 DIFFERENT FILL-ORIGIN LEVEL: 0
STLB AVERAGE MISS LATENCY: 100.895 cycles
STLB RQ	ACCESS:    3061955	FORWARD:          0	MERGED:        277	TO_CACHE:    3061678

STLB Hit, L1D data hit: 0
STLB Hit, L2C data hit: 0
STLB Hit, LLC data hit: 0
STLB Hit, LLC data miss: 0
STLB STLB hints to L2: 0
L1D TOTAL     ACCESS:   49171370  HIT:   42383973  MISS:    6787397  HIT %:    86.1964  MISS %:    13.8036   MPKI: 33.937
L1D LOAD      ACCESS:   26612211  HIT:   23543802  MISS:    3068409  HIT %:    88.4699  MISS %:    11.5301   MPKI: 15.342
L1D RFO       ACCESS:   22558161  HIT:   18839976  MISS:    3718185  HIT %:    83.5173  MISS %:    16.4827   MPKI: 18.5909
L1D PREFETCH  ACCESS:        998  HIT:        195  MISS:        803  HIT %:    19.5391  MISS %:    80.4609   MPKI: 0.004015
AGUS PREFETCH L1 MISS: 0
L1D PREFETCH  REQUESTED:       3297  ISSUED:       3297  USEFUL:        281  USELESS:        522
L1D USEFUL LOAD PREFETCHES:        281 PREFETCH ISSUED TO LOWER LEVEL:        948  ACCURACY: 29.6414
L1D TIMELY PREFETCHES:        281 LATE PREFETCHES: 137 DROPPED PREFETCHES: 1
L1D PREFETCHES SAME FILL-ORIGIN LEVEL: 948 DIFFERENT FILL-ORIGIN LEVEL: 0
L1D AVERAGE MISS LATENCY: 505.902 cycles
L1D RQ	ACCESS:   45243808	FORWARD:          0	MERGED:   17872864	TO_CACHE:   27088928
L1D WQ	ACCESS:   34266000	FORWARD:     282016	MERGED:     203352	TO_CACHE:   34062648
L1D PQ	ACCESS:       1668	FORWARD:          0	MERGED:         39	TO_CACHE:       1629

L1D UNIQUE REGIONS ACCESSED: 0
L1D REGIONS CONFLICTS: 0
L1D Cross Page Prefetch Requests: 2060
L1D Same Page Prefetch Requests: 0
L1D ROI Sum of L1D PQ occupancy: 21189
L1D PREFETCHES PUSHED FROM L2C: 0
L1I TOTAL     ACCESS:   38018530  HIT:   28965105  MISS:    9053425  HIT %:    76.1868  MISS %:    23.8132   MPKI: 45.2671
L1I LOAD      ACCESS:   38018530  HIT:   28965105  MISS:    9053425  HIT %:    76.1868  MISS %:    23.8132   MPKI: 45.2671
L1I PREFETCH  REQUESTED:          0  ISSUED:          0  USEFUL:          0  USELESS:          0
L1I USEFUL LOAD PREFETCHES:          0 PREFETCH ISSUED TO LOWER LEVEL:          0  ACCURACY: -nan
L1I TIMELY PREFETCHES:          0 LATE PREFETCHES: 0 DROPPED PREFETCHES: 0
L1I PREFETCHES SAME FILL-ORIGIN LEVEL: 0 DIFFERENT FILL-ORIGIN LEVEL: 0
L1I AVERAGE MISS LATENCY: 16.4465 cycles
L1I RQ	ACCESS:   58988835	FORWARD:          0	MERGED:   18324406	TO_CACHE:   40664429

BTB TOTAL     ACCESS:   25661075  HIT:   24120507  MISS:    1540568  HIT %:    93.9965  MISS %:    6.00352   MPKI: 7.70284
BTB BRANCH_DIRECT_JUMP	ACCESS:    1658498  HIT:    1648884  MISS:       9614
BTB BRANCH_INDIRECT	ACCESS:    9965680  HIT:    9453518  MISS:     512162
BTB BRANCH_CONDITIONAL	ACCESS:    7213546  HIT:    7200102  MISS:      13444
BTB BRANCH_DIRECT_CALL	ACCESS:    2819430  HIT:    2786168  MISS:      33262
BTB BRANCH_INDIRECT_CALL	ACCESS:     592212  HIT:     481174  MISS:     111038
BTB BRANCH_RETURN	ACCESS:    3411709  HIT:    2550661  MISS:     861048
BTB BRANCH_OTHER ACCESS:          0  HIT:          0  MISS:          0

L2C TOTAL     ACCESS:   20289113  HIT:   13690663  MISS:    6598450  HIT %:    67.4779  MISS %:    32.5221   MPKI: 32.9922
L2C LOAD      ACCESS:   12121508  HIT:    9247043  MISS:    2874465  HIT %:    76.2862  MISS %:    23.7138   MPKI: 14.3723
L2C DATA LOAD MPKI: 11.619
L2C INSTRUCTION LOAD MPKI: 2.75332
L2C RFO       ACCESS:    3718175  HIT:     173126  MISS:    3545049  HIT %:    4.65621  MISS %:    95.3438   MPKI: 17.7252
L2C PREFETCH  ACCESS:        948  HIT:        118  MISS:        830  HIT %:    12.4473  MISS %:    87.5527   MPKI: 0.00415
AGUS PREFETCH L1 MISS: 0
L2C DATA PREFETCH MPKI: 0.00415
L2C INSTRUCTION PREFETCH MPKI: 0
L2C WRITEBACK ACCESS:    4366484  HIT:    4223577  MISS:     142907  HIT %:    96.7272  MISS %:    3.27282   MPKI: 0.714535
L2C LOAD TRANSLATION ACCESS:      81997  HIT:      46799  MISS:      35198  HIT %:     57.074  MISS %:     42.926   MPKI: 0.17599
L2C TRANSLATION FROM L1D PREFETCHER ACCESS:          1  HIT:          0  MISS:          1  HIT %:          0  MISS %:        100   MPKI: 5e-06
L2C PREFETCH  REQUESTED:          0  ISSUED:          0  USEFUL:         60  USELESS:        771
L2C USEFUL LOAD PREFETCHES:         60 PREFETCH ISSUED TO LOWER LEVEL:        830  ACCURACY: 7.22892
L2C TIMELY PREFETCHES:         60 LATE PREFETCHES: 0 DROPPED PREFETCHES: 0
L2C PREFETCHES SAME FILL-ORIGIN LEVEL: 0 DIFFERENT FILL-ORIGIN LEVEL: 0
L2C AVERAGE MISS LATENCY: 159.6 cycles
L2C RQ	ACCESS:   15921875	FORWARD:          0	MERGED:          0	TO_CACHE:   15921685
L2C WQ	ACCESS:    4366484	FORWARD:        190	MERGED:          0	TO_CACHE:    4366484
L2C PQ	ACCESS:        948	FORWARD:          0	MERGED:          0	TO_CACHE:        948

L2C Instructions Evicting Data 502331
L2C Translations Evicting Data 31720
L2C Data Evicting Data 5346986
L2C Instructions Evicting Instructions 44909
L2C Translations Evicting Instructions 3342
L2C Data Evicting Instructions 491619
L2C Instructions Evicting Translations 3425
L2C Translations Evicting Translations 137
L2C Data Evicting Translations 31074
L2C Dense regions hint from L2: 0
PSCL5 TOTAL     ACCESS:      75210  HIT:      75210  MISS:          0  HIT %:        100  MISS %:          0   MPKI: 0
PSCL5 LOAD TRANSLATION ACCESS:      75209  HIT:      75209  MISS:          0  HIT %:        100  MISS %:          0   MPKI: 0
PSCL5 TRANSLATION FROM L1D PREFETCHER ACCESS:          1  HIT:          1  MISS:          0  HIT %:        100  MISS %:          0   MPKI: 0
PSCL5 PREFETCH  REQUESTED:          0  ISSUED:          0  USEFUL:          0  USELESS:          0
PSCL5 USEFUL LOAD PREFETCHES:          0 PREFETCH ISSUED TO LOWER LEVEL:          0  ACCURACY: -nan
PSCL5 TIMELY PREFETCHES:          0 LATE PREFETCHES: 0 DROPPED PREFETCHES: 0
PSCL5 PREFETCHES SAME FILL-ORIGIN LEVEL: 0 DIFFERENT FILL-ORIGIN LEVEL: 0

PSCL4 TOTAL     ACCESS:      65249  HIT:      65155  MISS:         94  HIT %:    99.8559  MISS %:   0.144064   MPKI: 0.00047
PSCL4 LOAD TRANSLATION ACCESS:      65248  HIT:      65154  MISS:         94  HIT %:    99.8559  MISS %:   0.144066   MPKI: 0.00047
PSCL4 TRANSLATION FROM L1D PREFETCHER ACCESS:          1  HIT:          1  MISS:          0  HIT %:        100  MISS %:          0   MPKI: 0
PSCL4 PREFETCH  REQUESTED:          0  ISSUED:          0  USEFUL:          0  USELESS:          0
PSCL4 USEFUL LOAD PREFETCHES:          0 PREFETCH ISSUED TO LOWER LEVEL:          0  ACCURACY: -nan
PSCL4 TIMELY PREFETCHES:          0 LATE PREFETCHES: 0 DROPPED PREFETCHES: 0
PSCL4 PREFETCHES SAME FILL-ORIGIN LEVEL: 0 DIFFERENT FILL-ORIGIN LEVEL: 0

PSCL3 TOTAL     ACCESS:      74282  HIT:      74093  MISS:        189  HIT %:    99.7456  MISS %:   0.254436   MPKI: 0.000945
PSCL3 LOAD TRANSLATION ACCESS:      74281  HIT:      74092  MISS:        189  HIT %:    99.7456  MISS %:   0.254439   MPKI: 0.000945
PSCL3 TRANSLATION FROM L1D PREFETCHER ACCESS:          1  HIT:          1  MISS:          0  HIT %:        100  MISS %:          0   MPKI: 0
PSCL3 PREFETCH  REQUESTED:          0  ISSUED:          0  USEFUL:          0  USELESS:          0
PSCL3 USEFUL LOAD PREFETCHES:          0 PREFETCH ISSUED TO LOWER LEVEL:          0  ACCURACY: -nan
PSCL3 TIMELY PREFETCHES:          0 LATE PREFETCHES: 0 DROPPED PREFETCHES: 0
PSCL3 PREFETCHES SAME FILL-ORIGIN LEVEL: 0 DIFFERENT FILL-ORIGIN LEVEL: 0

PSCL2 TOTAL     ACCESS:      75210  HIT:      68705  MISS:       6505  HIT %:    91.3509  MISS %:    8.64912   MPKI: 0.032525
PSCL2 LOAD TRANSLATION ACCESS:      75209  HIT:      68704  MISS:       6505  HIT %:    91.3508  MISS %:    8.64923   MPKI: 0.032525
PSCL2 TRANSLATION FROM L1D PREFETCHER ACCESS:          1  HIT:          1  MISS:          0  HIT %:        100  MISS %:          0   MPKI: 0
PSCL2 PREFETCH  REQUESTED:          0  ISSUED:          0  USEFUL:          0  USELESS:          0
PSCL2 USEFUL LOAD PREFETCHES:          0 PREFETCH ISSUED TO LOWER LEVEL:          0  ACCURACY: -nan
PSCL2 TIMELY PREFETCHES:          0 LATE PREFETCHES: 0 DROPPED PREFETCHES: 0
PSCL2 PREFETCHES SAME FILL-ORIGIN LEVEL: 0 DIFFERENT FILL-ORIGIN LEVEL: 0

LLC TOTAL     ACCESS:   10493075  HIT:    4158672  MISS:    6334403  HIT %:    39.6325  MISS %:    60.3675   MPKI: 31.672
LLC LOAD      ACCESS:    2874465  HIT:    1643197  MISS:    1231268  HIT %:    57.1653  MISS %:    42.8347   MPKI: 6.15634
LLC RFO       ACCESS:    3545040  HIT:     968774  MISS:    2576266  HIT %:    27.3276  MISS %:    72.6724   MPKI: 12.8813
LLC PREFETCH  ACCESS:        830  HIT:        273  MISS:        557  HIT %:    32.8916  MISS %:    67.1084   MPKI: 0.002785
AGUS PREFETCH L1 MISS: 0
LLC WRITEBACK ACCESS:    4037541  HIT:    1532511  MISS:    2505030  HIT %:    37.9565  MISS %:    62.0435   MPKI: 12.5251
LLC LOAD TRANSLATION ACCESS:      35198  HIT:      13917  MISS:      21281  HIT %:    39.5392  MISS %:    60.4608   MPKI: 0.106405
LLC TRANSLATION FROM L1D PREFETCHER ACCESS:          1  HIT:          0  MISS:          1  HIT %:          0  MISS %:        100   MPKI: 5e-06
LLC PREFETCH  REQUESTED:          0  ISSUED:          0  USEFUL:          3  USELESS:        555
LLC USEFUL LOAD PREFETCHES:          3 PREFETCH ISSUED TO LOWER LEVEL:        557  ACCURACY: 0.5386
LLC TIMELY PREFETCHES:          3 LATE PREFETCHES: 0 DROPPED PREFETCHES: 0
LLC PREFETCHES SAME FILL-ORIGIN LEVEL: 0 DIFFERENT FILL-ORIGIN LEVEL: 0
LLC AVERAGE MISS LATENCY: 135.679 cycles
LLC RQ	ACCESS:    6454714	FORWARD:          0	MERGED:          0	TO_CACHE:    6454705
LLC WQ	ACCESS:    4037543	FORWARD:          9	MERGED:          0	TO_CACHE:    4037543
LLC PQ	ACCESS:        830	FORWARD:          0	MERGED:          0	TO_CACHE:        830

LLC Dense regions hint to LLC: 0

RAW hits: 2485864
Loads Generated: 47729674
Loads sent to L1D: 45243808
Stores Generated: 34266005
Stores sent to L1D: 34266000
Major fault: 0 Minor fault: 8372
Allocated PAGES: 8372
CPU 0 L1D 
Prefetch count 3318 BOP and RL 

DRAM Statistics
 CHANNEL 0
 RQ ROW_BUFFER_HIT:    1787658  ROW_BUFFER_MISS:    2041296
 DBUS_CONGESTED:       2094
 WQ ROW_BUFFER_HIT:     585821  ROW_BUFFER_MISS:    2056116  FULL:      64730

 AVG_CONGESTED_CYCLE: 3
 All warmup complete: 2
Channel 0 Bank busy for read cycles: 0
Channel 0 Bank busy for write cycles: 0
Channel 0
Rank 0
0banks busy for read cycles: 177196008
0banks busy for write cycles: 271885
1banks busy for read cycles: 30057410
1banks busy for write cycles: 38306916
2banks busy for read cycles: 13768217
2banks busy for write cycles: 13457098
3banks busy for read cycles: 16854642
3banks busy for write cycles: 5689201
4banks busy for read cycles: 9366304
4banks busy for write cycles: 3639102
5banks busy for read cycles: 6135141
5banks busy for write cycles: 3271882
6banks busy for read cycles: 11564410
6banks busy for write cycles: 3412896
7banks busy for read cycles: 5055796
7banks busy for write cycles: 6086644
8banks busy for read cycles: 15169510
8banks busy for write cycles: 36690364

CPU 0 Branch Prediction Accuracy: 99.9491% MPKI: 0.077685 Average ROB Occupancy at Mispredict: 129.544
Branch types
NOT_BRANCH: 169475776 84.7379%
BRANCH_DIRECT_JUMP: 1658498 0.829249%
BRANCH_INDIRECT: 9965680 4.98284%
BRANCH_CONDITIONAL: 12076911 6.03846%
BRANCH_DIRECT_CALL: 2819430 1.40971%
BRANCH_INDIRECT_CALL: 592212 0.296106%
BRANCH_RETURN: 3411709 1.70585%
BRANCH_OTHER: 0 0%

DRAM PAGES: 1048576
Allocated PAGES: 8372
