
*** ChampSim Multicore Out-of-Order Simulator ***

Warmup Instructions: 50000000
Simulation Instructions: 200000000
Number of CPUs: 1
LLC sets: 2048
LLC ways: 16
Off-chip DRAM Size: 4096 MB Channels: 1 Width: 64-bit Data Rate: 6400 MT/s
CPU 0 runs traces/spec2k17/srv_5.champsimtrace.xz
.xz
BTB has LRU replacement policy
ITLB has LRU replacement policy
DTLB has LRU replacement policy
STLB has LRU replacement policy
L1I has LRU replacement policy
CPU 0 l1d next line prefetcher
L1D has LRU replacement policy
Initialize SRRIP state for L2C
Initialize DRRIP state for LLC
Offsets elements: 
Potential of Offsets elements: 
rewards of Offsets elements: 
Printing Sanity1
offset list size2284
Heartbeat CPU 0 instructions: 10000002 cycles: 2764514 heartbeat IPC: 3.61727 cumulative IPC: 3.61727 (Simulation time: 0 hr 0 min 35 sec) 
Heartbeat CPU 0 instructions: 20000003 cycles: 5518550 heartbeat IPC: 3.63103 cumulative IPC: 3.62414 (Simulation time: 0 hr 1 min 7 sec) 
Heartbeat CPU 0 instructions: 30000002 cycles: 8275404 heartbeat IPC: 3.62732 cumulative IPC: 3.6252 (Simulation time: 0 hr 1 min 40 sec) 
*** Reached end of trace for Core: 0 Repeating trace: traces/spec2k17/srv_5.champsimtrace.xz
Heartbeat CPU 0 instructions: 40000002 cycles: 11033047 heartbeat IPC: 3.62629 cumulative IPC: 3.62547 (Simulation time: 0 hr 2 min 13 sec) 
Heartbeat CPU 0 instructions: 50000002 cycles: 13786123 heartbeat IPC: 3.6323 cumulative IPC: 3.62684 (Simulation time: 0 hr 2 min 46 sec) 

Warmup complete CPU 0 instructions: 50000002 cycles: 13786123 (Simulation time: 0 hr 2 min 46 sec) 

Heartbeat CPU 0 instructions: 60000001 cycles: 35696494 heartbeat IPC: 0.456405 cumulative IPC: 0.456405 (Simulation time: 0 hr 3 min 38 sec) 
*** Reached end of trace for Core: 0 Repeating trace: traces/spec2k17/srv_5.champsimtrace.xz
Heartbeat CPU 0 instructions: 70000003 cycles: 57604901 heartbeat IPC: 0.456446 cumulative IPC: 0.456425 (Simulation time: 0 hr 4 min 30 sec) 
Heartbeat CPU 0 instructions: 80000001 cycles: 78878668 heartbeat IPC: 0.470062 cumulative IPC: 0.460882 (Simulation time: 0 hr 5 min 23 sec) 
Heartbeat CPU 0 instructions: 90000002 cycles: 100890810 heartbeat IPC: 0.454295 cumulative IPC: 0.459218 (Simulation time: 0 hr 6 min 18 sec) 
*** Reached end of trace for Core: 0 Repeating trace: traces/spec2k17/srv_5.champsimtrace.xz
Heartbeat CPU 0 instructions: 100000001 cycles: 122425655 heartbeat IPC: 0.464364 cumulative IPC: 0.460238 (Simulation time: 0 hr 7 min 11 sec) 
Offsets elements: 
Potential of Offsets elements: 
rewards of Offsets elements: 0 0 0 0 0 0 4 0 5 0 225 0 0 0 0 0 0 0 0 0 0 3 0 0 0 0 5 0 0 0 1 0 0 0 0 0 0 0 0 0 0 0 0 0 0 0 2 0 0 0 0 0 0 0 0 0 0 0 0 0 0 0 0 0 0 0 0 0 4 0 0 0 0 0 0 0 0 0 0 0 0 5 0 0 0 0 0 0 0 0 4 0 0 0 3 0 0 66 153 213 0 24 0 0 0 0 0 0 0 0 0 0 0 0 0 0 0 0 0 0 101 94 0 0 0 79 0 0 0 0 0 0 0 0 0 104 0 0 0 0 0 3 0 0 0 0 1 0 0 20 4 0 3 0 0 21 0 0 0 0 0 8 0 0 1 0 0 4 0 0 0 0 0 0 0 0 0 0 217 1 0 0 0 0 0 0 0 0 1 0 0 0 0 1 0 0 0 1 0 0 0 0 0 0 0 0 0 0 0 0 0 2 2 3 0 0 0 0 1 0 0 0 0 0 0 43 0 0 0 0 0 0 0 0 0 0 0 0 0 0 0 0 0 0 0 0 0 0 0 2 0 0 0 4 0 0 0 0 35 0 0 0 0 0 2 0 0 0 36 0 0 0 0 0 0 0 0 0 5 0 0 0 10 0 0 0 0 0 0 0 0 0 0 0 0 0 0 5 0 0 0 0 25 0 0 0 0 0 0 0 0 0 0 0 0 0 0 78 0 0 0 0 0 0 0 0 0 2 0 0 0 0 0 0 0 0 17 4 0 0 0 0 0 0 0 155 3 11 10 11 0 0 0 0 0 0 0 0 0 0 0 0 0 0 0 0 0 0 0 0 15 0 0 0 0 0 1 0 0 0 0 4 0 0 0 86 0 0 0 0 0 0 2 0 0 18 66 0 20 0 0 0 0 0 0 0 0 20 0 1 0 0 0 0 0 0 0 0 0 0 0 4 2 0 96 0 0 0 0 0 1 0 0 0 0 0 3 0 0 0 0 0 0 0 0 0 0 0 0 0 0 10 42 44 0 0 1 0 0 0 0 0 0 0 0 10 13 0 0 0 0 0 2 0 0 0 0 0 0 0 0 0 0 0 0 0 0 0 0 0 0 0 0 0 6 0 28 0 0 0 0 0 0 0 0 0 0 0 0 0 0 0 0 0 0 0 0 0 0 0 0 7 0 0 0 0 0 1 0 0 0 0 2 0 0 0 0 0 0 0 1 0 0 0 0 0 0 0 0 1 0 0 1 0 0 0 0 0 0 0 0 0 0 0 0 0 0 0 1 0 0 0 0 0 0 0 0 0 0 0 0 58 0 0 0 0 0 1 0 0 0 0 0 0 0 0 52 9 0 0 0 0 1 138 0 0 0 0 0 0 0 2 1 0 0 0 0 0 0 27 112 0 0 0 0 1 0 37 3 2 1 19 70 93 40 82 41 52 0 0 81 0 0 0 0 6 0 0 0 0 0 0 0 0 0 0 0 0 0 3 0 0 0 0 0 0 0 0 0 85 45 0 0 27 35 1 0 0 0 0 0 0 99 0 0 0 0 0 0 10 0 0 0 0 0 0 0 0 1 1 0 0 0 117 0 0 0 0 3 0 4 2 0 0 0 2 0 0 0 0 0 0 0 0 0 0 0 0 0 0 4 3 0 0 0 0 0 0 2 0 0 0 0 0 0 0 0 0 0 0 0 0 0 0 0 0 0 0 0 0 0 0 0 0 0 0 0 0 0 0 0 0 0 0 0 0 0 0 0 0 0 0 0 4 0 0 0 0 0 0 0 0 0 0 0 0 0 0 0 0 0 0 0 0 1 1 2 55 0 0 0 16 0 0 4 0 2 0 0 0 0 0 0 0 0 0 0 0 0 0 0 2 0 0 0 0 0 0 0 0 0 0 0 0 0 0 0 0 0 0 0 0 0 0 0 0 0 0 2 0 0 0 0 0 0 0 0 0 0 0 0 3 0 0 0 0 0 0 0 0 0 0 0 0 0 0 0 0 0 0 0 0 0 0 0 0 0 6 0 0 0 0 0 0 0 0 0 0 0 0 0 0 0 0 0 0 0 0 0 0 0 0 0 0 0 0 0 7 8 8 4 0 0 0 0 0 0 0 0 1 0 0 0 0 0 0 0 0 0 3 0 0 0 0 0 0 0 0 0 0 0 0 0 0 0 0 0 0 0 0 0 0 0 0 4 0 0 0 0 0 0 0 0 0 0 0 0 0 0 0 0 0 0 0 0 0 1 56 9 0 0 0 0 9 0 0 0 0 0 0 0 2 0 0 0 0 0 0 0 0 0 0 2 0 0 0 0 0 0 0 0 0 0 0 2 173 0 0 50 0 0 0 0 0 4 0 0 0 0 1 0 2 0 0 0 0 2 0 0 0 0 23 0 0 0 0 0 0 0 0 0 0 0 0 0 0 0 0 0 0 0 0 0 0 1 0 0 0 0 0 3 1 0 3 108 6 25 0 0 0 1 0 0 0 0 0 3 0 0 19 30 0 0 0 0 0 0 0 0 0 0 0 0 0 0 0 0 1 0 0 2 0 0 0 0 0 0 0 0 0 0 0 0 0 0 0 0 0 0 0 0 0 0 0 0 0 0 0 0 1 0 0 0 0 0 0 0 0 0 0 0 1 0 0 0 1 0 0 1 0 0 0 0 0 0 0 0 0 0 0 0 0 0 0 0 0 0 1 0 0 0 0 0 2 0 1 0 0 0 2 3 0 0 0 0 29 0 0 1 2 1 0 0 5 0 1 0 0 0 0 0 0 0 0 0 0 0 0 0 0 0 2 0 0 0 0 0 0 0 0 0 0 0 0 0 0 0 0 0 0 2 0 0 0 0 0 0 0 0 0 0 0 0 0 0 0 0 0 0 0 0 0 0 0 0 0 0 0 0 0 0 0 0 0 0 0 0 0 0 1 0 0 0 0 7 0 0 0 0 0 0 0 0 0 0 0 0 0 0 0 0 0 0 0 0 0 0 0 0 0 0 0 0 0 0 0 0 0 0 0 0 0 0 0 0 0 0 0 0 0 0 0 0 0 0 0 0 0 0 0 0 0 0 0 0 0 0 0 0 7 0 0 1 7 0 0 0 0 0 0 0 0 0 0 1 1 1 0 0 0 0 3 3 36 0 0 0 0 2 9 0 0 0 1 0 0 0 0 0 1 0 1 0 0 0 0 0 0 0 0 8 0 0 0 0 0 0 3 0 0 0 0 0 0 0 0 0 18 0 0 7 0 0 0 0 0 1 0 0 0 0 0 0 0 0 0 1 0 0 0 0 0 0 0 0 0 0 0 0 0 0 0 0 0 0 0 0 0 0 0 0 0 0 0 0 0 0 0 0 0 0 0 0 0 0 3 0 0 0 0 0 0 0 0 0 0 0 0 0 0 0 0 0 0 0 0 0 0 13 0 0 0 0 0 0 0 0 0 0 0 0 0 0 0 0 0 0 0 0 0 1 0 0 0 0 0 0 1 0 0 0 0 0 0 1 0 1 6 1 8 1 0 0 0 0 0 0 0 0 0 0 0 0 0 0 0 0 0 0 0 0 0 0 0 0 0 0 0 0 0 0 0 0 9 0 0 0 0 0 0 0 0 0 0 0 0 0 0 0 0 73 10 0 0 0 0 0 0 0 0 0 0 0 0 0 0 0 0 0 0 0 0 1 0 0 0 0 0 0 0 0 0 0 0 0 0 0 0 0 0 0 0 0 0 0 0 0 0 0 0 0 0 0 0 1 0 0 0 0 0 0 0 0 0 0 0 0 0 33 0 0 0 0 0 0 3 0 0 0 0 1 0 0 0 0 0 0 0 0 0 0 0 1 0 0 0 0 0 2 0 0 0 0 1 0 0 0 3 0 0 0 0 0 0 0 0 0 0 0 0 0 0 0 0 0 0 0 0 0 0 0 0 0 0 0 0 0 0 0 0 0 0 0 2 0 0 0 0 0 0 0 0 8 0 0 0 0 0 0 0 0 0 0 0 0 0 0 0 0 0 0 0 0 0 0 5 0 0 0 0 0 0 0 0 24 0 0 0 0 2 0 0 0 0 0 0 0 0 0 0 0 0 0 0 0 0 0 0 0 1 34 0 0 0 0 0 0 0 2 0 0 0 0 0 0 0 0 0 2 0 0 0 0 0 0 0 0 0 0 0 0 2 0 0 0 0 0 0 0 0 0 0 0 0 4 0 0 0 0 0 0 0 0 0 0 0 0 0 0 0 0 0 0 0 0 0 1 0 0 9 0 0 0 0 0 0 0 0 0 0 0 0 0 0 0 0 0 0 0 0 0 0 0 0 0 0 0 0 0 0 0 0 0 0 0 0 0 0 1 2 2 3 0 0 0 0 0 0 0 0 0 0 1 0 0 0 0 0 0 0 2 0 0 0 0 0 6 2 0 0 0 0 0 0 0 0 1 0 0 0 1 0 0 0 0 0 0 0 0 0 0 0 0 0 0 0 1 0 0 0 0 17 0 0 0 0 0 0 0 0 0 0 0 0 0 0 0 30 0 1 1 0 0 0 0 0 0 0 0 0 0 0 0 0 0 0 0 0 0 0 0 0 0 0 0 0 0 0 0 0 0 0 0 0 0 0 0 0 0 0 0 0 0 0 0 6 0 0 1 0 0 0 0 0 0 0 0 0 0 0 0 0 0 4 1 0 0 0 1 0 0 7 0 0 0 0 0 3 0 0 0 0 0 0 0 0 0 0 0 0 0 0 0 0 0 0 0 0 0 0 0 0 0 0 0 0 0 0 0 0 0 0 0 0 0 0 0 0 0 0 0 0 0 0 0 0 0 0 0 0 1 0 0 0 0 0 0 0 0 0 1 0 0 31 0 0 0 0 0 0 0 0 0 0 0 0 0 0 0 0 0 0 0 0 0 0 0 0 0 0 0 0 0 8 2 12 0 0 0 0 6 0 0 0 0 0 0 0 0 0 0 0 0 1 0 0 0 0 0 0 0 0 1 1 0 0 0 0 18 0 0 0 3 0 0 0 0 0 0 0 0 0 0 0 0 0 0 0 0 0 0 0 0 0 0 0 0 0 0 0 0 0 0 0 0 0 0 0 0 0 0 0 0 0 0 1 1 0 0 0 0 0 2 0 0 0 0 0 3 9 0 0 0 0 
Printing Sanity2
Heartbeat CPU 0 instructions: 110000000 cycles: 143946906 heartbeat IPC: 0.464657 cumulative IPC: 0.460968 (Simulation time: 0 hr 8 min 4 sec) 
Heartbeat CPU 0 instructions: 120000001 cycles: 165848293 heartbeat IPC: 0.456592 cumulative IPC: 0.460338 (Simulation time: 0 hr 8 min 54 sec) 
*** Reached end of trace for Core: 0 Repeating trace: traces/spec2k17/srv_5.champsimtrace.xz
Heartbeat CPU 0 instructions: 130000001 cycles: 187324437 heartbeat IPC: 0.465633 cumulative IPC: 0.460993 (Simulation time: 0 hr 9 min 47 sec) 
Heartbeat CPU 0 instructions: 140000003 cycles: 208855710 heartbeat IPC: 0.464441 cumulative IPC: 0.461374 (Simulation time: 0 hr 10 min 42 sec) 
Heartbeat CPU 0 instructions: 150000000 cycles: 230529243 heartbeat IPC: 0.461392 cumulative IPC: 0.461376 (Simulation time: 0 hr 11 min 35 sec) 
*** Reached end of trace for Core: 0 Repeating trace: traces/spec2k17/srv_5.champsimtrace.xz
Heartbeat CPU 0 instructions: 160000000 cycles: 251957934 heartbeat IPC: 0.466664 cumulative IPC: 0.461851 (Simulation time: 0 hr 12 min 28 sec) 
Heartbeat CPU 0 instructions: 170000002 cycles: 273774348 heartbeat IPC: 0.458371 cumulative IPC: 0.461559 (Simulation time: 0 hr 13 min 21 sec) 
Heartbeat CPU 0 instructions: 180000000 cycles: 295320305 heartbeat IPC: 0.464124 cumulative IPC: 0.461756 (Simulation time: 0 hr 14 min 10 sec) 
*** Reached end of trace for Core: 0 Repeating trace: traces/spec2k17/srv_5.champsimtrace.xz
Heartbeat CPU 0 instructions: 190000000 cycles: 316795946 heartbeat IPC: 0.465644 cumulative IPC: 0.462031 (Simulation time: 0 hr 15 min 6 sec) 
Heartbeat CPU 0 instructions: 200000003 cycles: 338697004 heartbeat IPC: 0.456599 cumulative IPC: 0.461665 (Simulation time: 0 hr 15 min 55 sec) 
Heartbeat CPU 0 instructions: 210000000 cycles: 360088935 heartbeat IPC: 0.467466 cumulative IPC: 0.462023 (Simulation time: 0 hr 16 min 47 sec) 
*** Reached end of trace for Core: 0 Repeating trace: traces/spec2k17/srv_5.champsimtrace.xz
Heartbeat CPU 0 instructions: 220000000 cycles: 381630113 heartbeat IPC: 0.464227 cumulative IPC: 0.462152 (Simulation time: 0 hr 17 min 33 sec) 
Heartbeat CPU 0 instructions: 230000003 cycles: 403578308 heartbeat IPC: 0.455618 cumulative IPC: 0.461785 (Simulation time: 0 hr 18 min 8 sec) 
Heartbeat CPU 0 instructions: 240000002 cycles: 424999462 heartbeat IPC: 0.466828 cumulative IPC: 0.462047 (Simulation time: 0 hr 18 min 45 sec) 
*** Reached end of trace for Core: 0 Repeating trace: traces/spec2k17/srv_5.champsimtrace.xz
Heartbeat CPU 0 instructions: 250000001 cycles: 446537784 heartbeat IPC: 0.464289 cumulative IPC: 0.462159 (Simulation time: 0 hr 19 min 18 sec) 
Finished CPU 0 instructions: 200000000 cycles: 432751662 cumulative IPC: 0.462159 (Simulation time: 0 hr 19 min 18 sec) 

ChampSim completed all CPUs

Region of Interest Statistics

CPU 0 cumulative IPC: 0.462159 instructions: 200000000 cycles: 432751662
ITLB TOTAL     ACCESS:   31215827  HIT:   30408056  MISS:     807771  HIT %:    97.4123  MISS %:     2.5877   MPKI: 4.03885
ITLB LOAD TRANSLATION ACCESS:   31215827  HIT:   30408056  MISS:     807771  HIT %:    97.4123  MISS %:     2.5877   MPKI: 4.03885
ITLB PREFETCH  REQUESTED:          0  ISSUED:          0  USEFUL:          0  USELESS:          0
ITLB USEFUL LOAD PREFETCHES:          0 PREFETCH ISSUED TO LOWER LEVEL:          0  ACCURACY: -nan
ITLB TIMELY PREFETCHES:          0 LATE PREFETCHES: 0 DROPPED PREFETCHES: 0
ITLB PREFETCHES SAME FILL-ORIGIN LEVEL: 0 DIFFERENT FILL-ORIGIN LEVEL: 0
ITLB AVERAGE MISS LATENCY: 13.3777 cycles
ITLB RQ	ACCESS:   38118680	FORWARD:          0	MERGED:    6698894	TO_CACHE:   31419786

DTLB TOTAL     ACCESS:   36968695  HIT:   34355481  MISS:    2613214  HIT %:    92.9313  MISS %:    7.06872   MPKI: 13.0661
DTLB LOAD TRANSLATION ACCESS:   36968695  HIT:   34355481  MISS:    2613214  HIT %:    92.9313  MISS %:    7.06872   MPKI: 13.0661
DTLB PREFETCH  REQUESTED:          0  ISSUED:          0  USEFUL:          0  USELESS:          0
DTLB USEFUL LOAD PREFETCHES:          0 PREFETCH ISSUED TO LOWER LEVEL:          0  ACCURACY: -nan
DTLB TIMELY PREFETCHES:          0 LATE PREFETCHES: 0 DROPPED PREFETCHES: 0
DTLB PREFETCHES SAME FILL-ORIGIN LEVEL: 0 DIFFERENT FILL-ORIGIN LEVEL: 0
DTLB AVERAGE MISS LATENCY: 13.272 cycles
DTLB RQ	ACCESS:   47412260	FORWARD:          0	MERGED:   10296430	TO_CACHE:   37115830

STLB TOTAL     ACCESS:    3432818  HIT:    3113559  MISS:     319259  HIT %:    90.6998  MISS %:     9.3002   MPKI: 1.5963
STLB LOAD TRANSLATION ACCESS:    3420985  HIT:    3101750  MISS:     319235  HIT %:    90.6683  MISS %:    9.33167   MPKI: 1.59617
STLB TRANSLATION FROM L1D PREFETCHER ACCESS:      11833  HIT:      11809  MISS:         24  HIT %:    99.7972  MISS %:   0.202823   MPKI: 0.00012
STLB PREFETCH  REQUESTED:          0  ISSUED:          0  USEFUL:         11  USELESS:         13
STLB USEFUL LOAD PREFETCHES:         11 PREFETCH ISSUED TO LOWER LEVEL:          0  ACCURACY: inf
STLB TIMELY PREFETCHES:         11 LATE PREFETCHES: 0 DROPPED PREFETCHES: 55
STLB PREFETCHES SAME FILL-ORIGIN LEVEL: 0 DIFFERENT FILL-ORIGIN LEVEL: 0
STLB AVERAGE MISS LATENCY: 45.7634 cycles
STLB RQ	ACCESS:    3434200	FORWARD:          0	MERGED:       1323	TO_CACHE:    3432877

STLB Hit, L1D data hit: 0
STLB Hit, L2C data hit: 0
STLB Hit, LLC data hit: 0
STLB Hit, LLC data miss: 0
STLB STLB hints to L2: 0
L1D TOTAL     ACCESS:   46878901  HIT:   44411930  MISS:    2466971  HIT %:    94.7376  MISS %:    5.26243   MPKI: 12.3349
L1D LOAD      ACCESS:   27397786  HIT:   25273585  MISS:    2124201  HIT %:    92.2468  MISS %:    7.75318   MPKI: 10.621
L1D RFO       ACCESS:   19469528  HIT:   19136986  MISS:     332542  HIT %:     98.292  MISS %:    1.70801   MPKI: 1.66271
L1D PREFETCH  ACCESS:      11587  HIT:       1359  MISS:      10228  HIT %:    11.7287  MISS %:    88.2713   MPKI: 0.05114
AGUS PREFETCH L1 MISS: 0
L1D PREFETCH  REQUESTED:      26630  ISSUED:      26630  USEFUL:       2813  USELESS:       7415
L1D USEFUL LOAD PREFETCHES:       2813 PREFETCH ISSUED TO LOWER LEVEL:      10461  ACCURACY: 26.8904
L1D TIMELY PREFETCHES:       2813 LATE PREFETCHES: 222 DROPPED PREFETCHES: 55
L1D PREFETCHES SAME FILL-ORIGIN LEVEL: 10461 DIFFERENT FILL-ORIGIN LEVEL: 0
L1D AVERAGE MISS LATENCY: 17979.9 cycles
L1D RQ	ACCESS:   41949774	FORWARD:          0	MERGED:   14187425	TO_CACHE:   27539295
L1D WQ	ACCESS:   20207881	FORWARD:     223057	MERGED:     334916	TO_CACHE:   19872965
L1D PQ	ACCESS:      13415	FORWARD:          0	MERGED:        197	TO_CACHE:      13215

L1D UNIQUE REGIONS ACCESSED: 0
L1D REGIONS CONFLICTS: 0
L1D Cross Page Prefetch Requests: 13415
L1D Same Page Prefetch Requests: 0
L1D ROI Sum of L1D PQ occupancy: 182175
L1D PREFETCHES PUSHED FROM L2C: 0
L1I TOTAL     ACCESS:   36285003  HIT:   31133547  MISS:    5151456  HIT %:    85.8028  MISS %:    14.1972   MPKI: 25.7573
L1I LOAD      ACCESS:   36285003  HIT:   31133547  MISS:    5151456  HIT %:    85.8028  MISS %:    14.1972   MPKI: 25.7573
L1I PREFETCH  REQUESTED:          0  ISSUED:          0  USEFUL:          0  USELESS:          0
L1I USEFUL LOAD PREFETCHES:          0 PREFETCH ISSUED TO LOWER LEVEL:          0  ACCURACY: -nan
L1I TIMELY PREFETCHES:          0 LATE PREFETCHES: 0 DROPPED PREFETCHES: 0
L1I PREFETCHES SAME FILL-ORIGIN LEVEL: 0 DIFFERENT FILL-ORIGIN LEVEL: 0
L1I AVERAGE MISS LATENCY: 24.5009 cycles
L1I RQ	ACCESS:   57137872	FORWARD:          0	MERGED:   19019192	TO_CACHE:   38118680

BTB TOTAL     ACCESS:   22212153  HIT:   17957529  MISS:    4254624  HIT %:    80.8455  MISS %:    19.1545   MPKI: 21.2731
BTB BRANCH_DIRECT_JUMP	ACCESS:    1780172  HIT:    1545024  MISS:     235148
BTB BRANCH_INDIRECT	ACCESS:    9535407  HIT:    7469894  MISS:    2065513
BTB BRANCH_CONDITIONAL	ACCESS:    4548641  HIT:    4163963  MISS:     384678
BTB BRANCH_DIRECT_CALL	ACCESS:    2494547  HIT:    2037677  MISS:     456870
BTB BRANCH_INDIRECT_CALL	ACCESS:     678804  HIT:     637539  MISS:      41265
BTB BRANCH_RETURN	ACCESS:    3174582  HIT:    2103432  MISS:    1071150
BTB BRANCH_OTHER ACCESS:          0  HIT:          0  MISS:          0

L2C TOTAL     ACCESS:    9055149  HIT:    6001751  MISS:    3053398  HIT %:      66.28  MISS %:      33.72   MPKI: 15.267
L2C LOAD      ACCESS:    7275330  HIT:    4592754  MISS:    2682576  HIT %:    63.1278  MISS %:    36.8722   MPKI: 13.4129
L2C DATA LOAD MPKI: 4.62436
L2C INSTRUCTION LOAD MPKI: 8.78852
L2C RFO       ACCESS:     332525  HIT:     192106  MISS:     140419  HIT %:    57.7719  MISS %:    42.2281   MPKI: 0.702095
L2C PREFETCH  ACCESS:      10461  HIT:       2207  MISS:       8254  HIT %:    21.0974  MISS %:    78.9026   MPKI: 0.04127
AGUS PREFETCH L1 MISS: 0
L2C DATA PREFETCH MPKI: 0.04127
L2C INSTRUCTION PREFETCH MPKI: 0
L2C WRITEBACK ACCESS:    1014952  HIT:     961134  MISS:      53818  HIT %:    94.6975  MISS %:    5.30252   MPKI: 0.26909
L2C LOAD TRANSLATION ACCESS:     421768  HIT:     253484  MISS:     168284  HIT %:    60.1003  MISS %:    39.8997   MPKI: 0.84142
L2C TRANSLATION FROM L1D PREFETCHER ACCESS:        113  HIT:         66  MISS:         47  HIT %:    58.4071  MISS %:    41.5929   MPKI: 0.000235
L2C PREFETCH  REQUESTED:          0  ISSUED:          0  USEFUL:        448  USELESS:       7853
L2C USEFUL LOAD PREFETCHES:        448 PREFETCH ISSUED TO LOWER LEVEL:       8254  ACCURACY: 5.42767
L2C TIMELY PREFETCHES:        448 LATE PREFETCHES: 0 DROPPED PREFETCHES: 0
L2C PREFETCHES SAME FILL-ORIGIN LEVEL: 0 DIFFERENT FILL-ORIGIN LEVEL: 0
L2C AVERAGE MISS LATENCY: 44.1427 cycles
L2C RQ	ACCESS:    8029848	FORWARD:          0	MERGED:          0	TO_CACHE:    8029736
L2C WQ	ACCESS:    1014952	FORWARD:        112	MERGED:          0	TO_CACHE:    1014952
L2C PQ	ACCESS:      10461	FORWARD:          0	MERGED:          0	TO_CACHE:      10461

L2C Instructions Evicting Data 638318
L2C Translations Evicting Data 66234
L2C Data Evicting Data 403164
L2C Instructions Evicting Instructions 1027001
L2C Translations Evicting Instructions 92830
L2C Data Evicting Instructions 606806
L2C Instructions Evicting Translations 92386
L2C Translations Evicting Translations 9267
L2C Data Evicting Translations 63574
L2C Dense regions hint from L2: 0
PSCL5 TOTAL     ACCESS:     319314  HIT:     319314  MISS:          0  HIT %:        100  MISS %:          0   MPKI: 0
PSCL5 LOAD TRANSLATION ACCESS:     319235  HIT:     319235  MISS:          0  HIT %:        100  MISS %:          0   MPKI: 0
PSCL5 TRANSLATION FROM L1D PREFETCHER ACCESS:         79  HIT:         79  MISS:          0  HIT %:        100  MISS %:          0   MPKI: 0
PSCL5 PREFETCH  REQUESTED:          0  ISSUED:          0  USEFUL:          0  USELESS:          0
PSCL5 USEFUL LOAD PREFETCHES:          0 PREFETCH ISSUED TO LOWER LEVEL:          0  ACCURACY: -nan
PSCL5 TIMELY PREFETCHES:          0 LATE PREFETCHES: 0 DROPPED PREFETCHES: 0
PSCL5 PREFETCHES SAME FILL-ORIGIN LEVEL: 0 DIFFERENT FILL-ORIGIN LEVEL: 0

PSCL4 TOTAL     ACCESS:     284075  HIT:     283534  MISS:        541  HIT %:    99.8096  MISS %:   0.190443   MPKI: 0.002705
PSCL4 LOAD TRANSLATION ACCESS:     284015  HIT:     283474  MISS:        541  HIT %:    99.8095  MISS %:   0.190483   MPKI: 0.002705
PSCL4 TRANSLATION FROM L1D PREFETCHER ACCESS:         60  HIT:         60  MISS:          0  HIT %:        100  MISS %:          0   MPKI: 0
PSCL4 PREFETCH  REQUESTED:          0  ISSUED:          0  USEFUL:          0  USELESS:          0
PSCL4 USEFUL LOAD PREFETCHES:          0 PREFETCH ISSUED TO LOWER LEVEL:          0  ACCURACY: -nan
PSCL4 TIMELY PREFETCHES:          0 LATE PREFETCHES: 0 DROPPED PREFETCHES: 0
PSCL4 PREFETCHES SAME FILL-ORIGIN LEVEL: 0 DIFFERENT FILL-ORIGIN LEVEL: 0

PSCL3 TOTAL     ACCESS:     316717  HIT:     315093  MISS:       1624  HIT %:    99.4872  MISS %:   0.512761   MPKI: 0.00812
PSCL3 LOAD TRANSLATION ACCESS:     316638  HIT:     315014  MISS:       1624  HIT %:    99.4871  MISS %:   0.512889   MPKI: 0.00812
PSCL3 TRANSLATION FROM L1D PREFETCHER ACCESS:         79  HIT:         79  MISS:          0  HIT %:        100  MISS %:          0   MPKI: 0
PSCL3 PREFETCH  REQUESTED:          0  ISSUED:          0  USEFUL:          0  USELESS:          0
PSCL3 USEFUL LOAD PREFETCHES:          0 PREFETCH ISSUED TO LOWER LEVEL:          0  ACCURACY: -nan
PSCL3 TIMELY PREFETCHES:          0 LATE PREFETCHES: 0 DROPPED PREFETCHES: 0
PSCL3 PREFETCHES SAME FILL-ORIGIN LEVEL: 0 DIFFERENT FILL-ORIGIN LEVEL: 0

PSCL2 TOTAL     ACCESS:     319287  HIT:     218912  MISS:     100375  HIT %:    68.5628  MISS %:    31.4372   MPKI: 0.501875
PSCL2 LOAD TRANSLATION ACCESS:     319242  HIT:     218867  MISS:     100375  HIT %:    68.5583  MISS %:    31.4417   MPKI: 0.501875
PSCL2 TRANSLATION FROM L1D PREFETCHER ACCESS:         45  HIT:         45  MISS:          0  HIT %:        100  MISS %:          0   MPKI: 0
PSCL2 PREFETCH  REQUESTED:          0  ISSUED:          0  USEFUL:          0  USELESS:          0
PSCL2 USEFUL LOAD PREFETCHES:          0 PREFETCH ISSUED TO LOWER LEVEL:          0  ACCURACY: -nan
PSCL2 TIMELY PREFETCHES:          0 LATE PREFETCHES: 0 DROPPED PREFETCHES: 0
PSCL2 PREFETCHES SAME FILL-ORIGIN LEVEL: 0 DIFFERENT FILL-ORIGIN LEVEL: 0

LLC TOTAL     ACCESS:    3420579  HIT:    3124257  MISS:     296322  HIT %:    91.3371  MISS %:    8.66292   MPKI: 1.48161
LLC LOAD      ACCESS:    2682576  HIT:    2448331  MISS:     234245  HIT %:    91.2679  MISS %:    8.73209   MPKI: 1.17122
LLC RFO       ACCESS:     140415  HIT:      93537  MISS:      46878  HIT %:    66.6147  MISS %:    33.3853   MPKI: 0.23439
LLC PREFETCH  ACCESS:       8254  HIT:       4514  MISS:       3740  HIT %:    54.6886  MISS %:    45.3114   MPKI: 0.0187
AGUS PREFETCH L1 MISS: 0
LLC WRITEBACK ACCESS:     421003  HIT:     419434  MISS:       1569  HIT %:    99.6273  MISS %:   0.372681   MPKI: 0.007845
LLC LOAD TRANSLATION ACCESS:     168284  HIT:     158405  MISS:       9879  HIT %:    94.1296  MISS %:    5.87043   MPKI: 0.049395
LLC TRANSLATION FROM L1D PREFETCHER ACCESS:         47  HIT:         36  MISS:         11  HIT %:    76.5957  MISS %:    23.4043   MPKI: 5.5e-05
LLC PREFETCH  REQUESTED:          0  ISSUED:          0  USEFUL:         93  USELESS:       3458
LLC USEFUL LOAD PREFETCHES:         93 PREFETCH ISSUED TO LOWER LEVEL:       3740  ACCURACY: 2.48663
LLC TIMELY PREFETCHES:         93 LATE PREFETCHES: 0 DROPPED PREFETCHES: 0
LLC PREFETCHES SAME FILL-ORIGIN LEVEL: 0 DIFFERENT FILL-ORIGIN LEVEL: 0
LLC AVERAGE MISS LATENCY: 151.175 cycles
LLC RQ	ACCESS:    2991326	FORWARD:          0	MERGED:          0	TO_CACHE:    2991322
LLC WQ	ACCESS:     421003	FORWARD:          4	MERGED:          0	TO_CACHE:     421003
LLC PQ	ACCESS:       8254	FORWARD:          0	MERGED:          0	TO_CACHE:       8254

LLC Dense regions hint to LLC: 0

RAW hits: 2854154
Loads Generated: 44803929
Loads sent to L1D: 41949774
Stores Generated: 20207846
Stores sent to L1D: 20207881
Major fault: 0 Minor fault: 5869
Allocated PAGES: 5869
CPU 0 L1D 
Prefetch count 23876 BOP and RL 

DRAM Statistics
 CHANNEL 0
 RQ ROW_BUFFER_HIT:      59314  ROW_BUFFER_MISS:     235439
 DBUS_CONGESTED:        179
 WQ ROW_BUFFER_HIT:      27966  ROW_BUFFER_MISS:     184222  FULL:          0

 AVG_CONGESTED_CYCLE: 4
 All warmup complete: 2
Channel 0 Bank busy for read cycles: 0
Channel 0 Bank busy for write cycles: 0
Channel 0
Rank 0
0banks busy for read cycles: 377373613
0banks busy for write cycles: 117950
1banks busy for read cycles: 26765623
1banks busy for write cycles: 16550592
2banks busy for read cycles: 3732549
2banks busy for write cycles: 3983869
3banks busy for read cycles: 474277
3banks busy for write cycles: 1327567
4banks busy for read cycles: 192937
4banks busy for write cycles: 725989
5banks busy for read cycles: 102400
5banks busy for write cycles: 436484
6banks busy for read cycles: 73055
6banks busy for write cycles: 286234
7banks busy for read cycles: 53232
7banks busy for write cycles: 249557
8banks busy for read cycles: 66785
8banks busy for write cycles: 238950

CPU 0 Branch Prediction Accuracy: 99.8674% MPKI: 0.23804 Average ROB Occupancy at Mispredict: 58.4373
Branch types
NOT_BRANCH: 164099013 82.0495%
BRANCH_DIRECT_JUMP: 1780172 0.890086%
BRANCH_INDIRECT: 9535407 4.7677%
BRANCH_CONDITIONAL: 18237136 9.11857%
BRANCH_DIRECT_CALL: 2494547 1.24727%
BRANCH_INDIRECT_CALL: 678804 0.339402%
BRANCH_RETURN: 3174582 1.58729%
BRANCH_OTHER: 0 0%

DRAM PAGES: 1048576
Allocated PAGES: 5869
