
*** ChampSim Multicore Out-of-Order Simulator ***

Warmup Instructions: 50000000
Simulation Instructions: 200000000
Number of CPUs: 1
LLC sets: 2048
LLC ways: 16
Off-chip DRAM Size: 4096 MB Channels: 1 Width: 64-bit Data Rate: 6400 MT/s
CPU 0 runs traces/spec2k17/srv_63.champsimtrace.xz
.xz
BTB has LRU replacement policy
ITLB has LRU replacement policy
DTLB has LRU replacement policy
STLB has LRU replacement policy
L1I has LRU replacement policy
CPU 0 l1d next line prefetcher
L1D has LRU replacement policy
Initialize SRRIP state for L2C
Initialize DRRIP state for LLC
Offsets elements: 
Potential of Offsets elements: 
rewards of Offsets elements: 
Printing Sanity1
offset list size2367
Heartbeat CPU 0 instructions: 10000000 cycles: 2772322 heartbeat IPC: 3.60708 cumulative IPC: 3.60708 (Simulation time: 0 hr 0 min 32 sec) 
Heartbeat CPU 0 instructions: 20000003 cycles: 5538848 heartbeat IPC: 3.61464 cumulative IPC: 3.61086 (Simulation time: 0 hr 1 min 5 sec) 
Heartbeat CPU 0 instructions: 30000002 cycles: 8305313 heartbeat IPC: 3.61472 cumulative IPC: 3.61215 (Simulation time: 0 hr 1 min 37 sec) 
*** Reached end of trace for Core: 0 Repeating trace: traces/spec2k17/srv_63.champsimtrace.xz
Heartbeat CPU 0 instructions: 40000001 cycles: 11069492 heartbeat IPC: 3.61771 cumulative IPC: 3.61354 (Simulation time: 0 hr 2 min 9 sec) 
Heartbeat CPU 0 instructions: 50000001 cycles: 13834493 heartbeat IPC: 3.61664 cumulative IPC: 3.61415 (Simulation time: 0 hr 2 min 42 sec) 

Warmup complete CPU 0 instructions: 50000001 cycles: 13834493 (Simulation time: 0 hr 2 min 42 sec) 

Heartbeat CPU 0 instructions: 60000000 cycles: 36427615 heartbeat IPC: 0.442613 cumulative IPC: 0.442613 (Simulation time: 0 hr 3 min 34 sec) 
*** Reached end of trace for Core: 0 Repeating trace: traces/spec2k17/srv_63.champsimtrace.xz
Heartbeat CPU 0 instructions: 70000001 cycles: 58407360 heartbeat IPC: 0.454964 cumulative IPC: 0.448703 (Simulation time: 0 hr 4 min 27 sec) 
Heartbeat CPU 0 instructions: 80000001 cycles: 80552887 heartbeat IPC: 0.451558 cumulative IPC: 0.449651 (Simulation time: 0 hr 5 min 19 sec) 
Heartbeat CPU 0 instructions: 90000000 cycles: 102904168 heartbeat IPC: 0.447402 cumulative IPC: 0.449087 (Simulation time: 0 hr 6 min 13 sec) 
*** Reached end of trace for Core: 0 Repeating trace: traces/spec2k17/srv_63.champsimtrace.xz
Heartbeat CPU 0 instructions: 100000002 cycles: 125075109 heartbeat IPC: 0.451041 cumulative IPC: 0.449476 (Simulation time: 0 hr 7 min 7 sec) 
Offsets elements: 
Potential of Offsets elements: 
rewards of Offsets elements: 0 0 0 0 19 242 0 1 0 0 0 0 0 2 0 0 3 0 0 0 0 0 0 0 0 0 0 0 0 0 0 0 0 0 0 0 0 6 0 0 141 0 0 0 0 0 2 0 0 0 0 8 0 0 145 0 0 0 0 0 0 0 1 0 0 0 108 0 0 0 0 4 0 0 0 0 118 5 0 0 0 98 186 0 28 0 0 0 0 0 0 0 109 0 0 0 0 0 1 1 0 0 0 0 0 0 0 0 0 0 0 0 0 0 0 0 0 0 0 0 0 3 0 0 0 0 5 0 2 1 0 0 0 1 0 0 0 0 0 0 0 0 0 0 0 0 0 0 0 70 154 16 47 0 10 0 0 0 0 0 1 0 0 0 0 0 0 0 0 0 0 0 1 0 0 0 0 0 0 0 0 0 0 0 0 0 0 0 0 0 5 0 0 0 0 0 0 0 0 1 0 0 0 0 0 0 0 0 0 0 1 0 0 0 0 11 0 0 0 0 5 0 8 0 0 0 0 0 223 0 0 0 0 0 0 0 0 0 0 0 0 0 0 0 0 0 0 0 1 0 1 0 0 0 0 80 68 1 0 0 0 0 0 0 0 0 0 0 0 0 0 0 12 0 0 1 0 0 0 1 0 0 0 0 0 0 0 0 0 0 1 22 0 0 0 0 0 0 0 0 0 0 0 1 1 0 0 32 46 50 0 25 0 0 13 2 0 0 196 1 3 0 170 0 0 0 0 0 1 1 0 3 1 0 1 0 0 0 0 0 0 0 0 0 0 0 0 0 0 0 36 0 0 0 0 0 0 0 0 0 0 0 0 0 0 0 0 0 0 0 0 0 0 0 0 0 0 0 0 0 0 0 4 0 3 0 0 0 0 0 0 0 0 0 0 0 0 0 0 0 0 0 0 0 0 0 0 0 0 0 3 0 0 0 0 0 0 0 0 0 0 0 0 0 0 0 0 0 0 0 3 0 0 1 0 0 0 0 0 0 13 0 1 0 0 0 0 0 1 0 0 0 0 0 0 0 0 0 0 0 0 3 0 0 0 0 0 0 0 0 0 1 4 0 0 10 0 69 72 0 0 3 2 0 0 0 0 0 0 0 0 0 0 0 0 5 1 0 0 0 3 1 0 44 1 0 0 0 0 0 0 1 5 0 0 0 4 0 0 0 0 0 0 0 0 0 0 2 0 0 0 0 0 0 0 0 0 0 12 0 0 0 0 0 0 0 0 0 0 0 0 2 0 0 0 1 0 54 3 92 0 0 0 0 33 0 0 0 0 0 0 0 0 0 2 4 1 0 0 0 0 0 0 0 0 0 0 0 0 0 0 0 0 0 0 0 0 0 1 0 0 0 0 0 0 0 0 0 0 0 0 0 0 0 0 0 0 0 0 0 0 0 0 0 0 0 0 0 0 14 0 0 0 2 0 0 0 0 1 0 0 0 0 0 0 0 0 0 0 2 0 0 5 0 0 0 0 0 0 0 5 0 0 0 0 0 0 0 0 0 0 0 74 0 0 53 0 0 0 0 0 0 0 0 0 0 0 0 0 0 0 0 83 0 0 0 0 0 0 0 0 0 0 0 0 0 0 0 0 0 0 0 0 0 1 0 0 0 0 0 0 0 0 0 7 10 19 0 0 0 2 0 0 2 0 0 0 0 0 0 2 0 0 0 0 10 0 0 0 0 0 0 0 0 0 0 0 0 0 0 0 0 0 0 0 0 0 0 0 0 0 0 0 0 0 0 0 0 0 0 0 0 0 0 5 0 0 63 0 0 2 97 1 0 0 0 0 0 0 1 0 56 0 0 0 0 0 0 0 0 0 0 0 0 0 80 1 13 16 0 0 0 0 0 0 0 0 0 1 0 0 0 0 0 0 0 0 0 0 0 0 1 0 0 0 19 0 0 16 0 0 0 0 0 0 0 0 0 0 0 0 0 2 0 1 0 0 0 0 0 0 0 0 0 0 0 0 0 0 0 0 0 0 21 67 0 0 0 0 0 0 0 0 0 0 0 0 0 0 0 0 0 0 0 0 0 12 0 0 0 0 0 0 0 0 1 2 0 0 0 0 0 0 0 0 0 0 0 0 0 0 0 0 0 0 0 0 0 0 0 0 0 0 0 0 2 0 0 0 0 0 0 0 0 60 0 0 0 0 0 0 0 0 0 0 0 0 0 0 0 0 0 0 0 0 0 0 0 0 4 0 0 0 0 0 0 5 1 0 0 0 0 0 0 23 0 0 0 0 0 0 0 0 0 0 0 0 0 0 0 0 10 0 0 1 0 0 0 0 1 0 1 0 0 0 0 0 1 0 0 0 5 0 0 0 0 0 0 0 7 0 2 0 0 0 4 7 0 0 0 0 0 0 0 0 1 0 0 0 0 0 0 0 0 0 0 0 3 0 0 0 0 92 0 0 0 0 0 0 0 0 0 0 0 0 0 0 0 0 0 0 0 0 0 0 0 0 0 6 0 0 2 0 2 0 0 1 0 0 0 0 0 0 16 0 0 0 113 0 0 0 0 0 0 0 0 0 0 0 0 10 0 0 0 0 0 0 171 0 1 0 0 0 0 0 0 0 0 0 57 0 0 0 0 0 0 0 0 0 0 0 0 0 0 0 0 0 0 0 0 0 0 0 6 0 0 0 0 0 0 0 1 0 0 0 0 4 0 0 0 0 0 0 0 0 0 0 0 0 0 0 0 1 0 0 0 1 0 0 0 0 0 0 0 0 1 66 0 0 0 0 0 0 0 0 0 0 0 0 0 0 0 0 0 0 0 0 3 0 0 0 0 0 0 0 0 0 3 0 0 1 0 0 1 0 2 0 0 0 0 0 0 0 0 2 106 0 13 0 0 0 0 1 0 0 0 0 0 0 0 0 0 0 25 0 0 0 0 0 5 0 0 0 0 0 0 0 0 0 0 0 0 0 7 0 0 0 0 0 0 0 0 0 0 0 0 0 0 0 0 0 0 0 4 0 1 7 0 0 0 0 0 0 0 0 0 0 0 0 0 0 0 0 0 0 0 0 0 0 0 0 0 0 0 0 0 0 0 0 0 18 0 0 0 0 0 0 0 0 0 0 0 0 0 0 0 0 0 0 0 0 0 0 0 1 0 0 0 0 0 0 3 0 0 0 0 0 0 0 0 0 0 0 0 5 0 0 0 0 0 0 0 0 0 0 0 0 0 0 0 0 0 0 0 0 0 0 0 0 0 0 0 0 0 0 0 0 0 0 0 0 0 0 0 0 0 0 0 0 0 0 0 0 0 0 0 0 0 1 0 0 0 0 0 0 0 0 0 0 0 0 9 29 0 0 0 0 0 0 0 0 0 0 0 0 0 0 0 0 0 1 0 0 0 0 0 0 0 2 0 0 0 0 0 0 10 0 0 0 0 0 0 0 4 0 0 5 2 1 0 0 0 0 0 0 0 0 0 0 0 13 200 0 0 0 0 0 10 0 0 0 0 0 0 0 0 0 0 0 0 3 0 0 1 0 0 0 0 0 0 1 4 5 0 0 0 0 0 121 3 2 0 125 1 0 0 0 0 0 0 0 0 0 0 5 0 0 0 0 0 0 0 1 0 0 0 0 0 0 4 1 2 2 0 0 0 0 0 0 0 0 0 0 0 0 0 0 0 6 0 0 0 1 0 0 0 2 0 1 0 0 2 0 0 0 0 0 0 0 0 1 0 0 0 0 0 0 0 0 0 0 0 0 0 0 0 0 0 0 0 0 0 0 0 0 0 0 0 0 0 0 0 0 0 0 0 0 0 0 0 0 0 0 1 0 0 0 0 0 0 6 0 43 0 0 0 9 0 54 10 0 0 0 0 0 0 1 0 0 0 0 0 0 0 0 0 0 2 0 0 0 0 0 0 0 0 0 0 0 0 0 0 0 0 0 0 1 0 0 0 0 1 0 0 1 4 0 0 0 0 0 0 0 0 0 0 0 0 13 0 0 0 0 4 1 0 0 0 1 0 0 0 0 1 0 1 0 0 0 0 0 0 0 0 0 0 0 0 0 0 0 0 0 0 0 0 0 0 0 0 0 0 0 0 0 0 0 0 0 0 0 0 0 0 2 0 0 0 4 0 0 0 0 0 0 0 0 0 0 0 0 0 0 0 0 0 0 0 0 0 0 0 0 0 8 12 0 0 0 0 0 0 0 0 0 0 0 0 0 0 0 0 0 3 0 0 0 0 2 0 0 0 0 0 0 0 0 0 0 0 0 0 0 0 0 0 0 0 0 0 0 0 0 0 0 0 0 0 0 0 0 1 0 0 0 0 0 0 0 0 0 0 0 0 0 0 0 0 0 0 0 0 0 1 0 0 0 0 6 41 0 0 0 0 0 1 0 0 1 0 0 0 0 0 0 0 0 0 0 0 0 0 0 0 0 0 0 2 0 0 0 0 0 0 0 0 0 0 0 0 0 0 0 0 0 0 0 0 0 0 0 0 0 0 0 0 0 1 1 0 0 1 0 0 0 0 0 1 0 0 0 3 0 0 0 0 0 1 0 0 0 0 0 0 0 0 0 0 0 0 0 2 1 1 0 0 0 0 7 0 0 0 4 0 3 0 0 0 0 0 0 0 0 162 0 0 0 1 0 0 8 0 0 0 0 0 0 0 0 0 0 0 0 0 0 0 0 0 0 0 0 0 2 0 0 0 0 0 0 16 0 0 0 0 0 0 0 0 0 109 0 0 0 0 0 0 0 0 0 0 0 0 0 0 0 0 3 0 0 0 0 0 35 8 1 0 1 0 0 0 0 0 0 0 0 0 0 0 0 0 0 0 0 0 0 0 0 0 0 0 0 0 0 0 0 0 0 0 0 0 0 0 0 0 0 0 0 0 0 0 0 0 0 0 0 0 0 0 0 0 0 2 0 0 0 0 0 0 0 0 0 0 0 0 0 0 0 0 0 0 0 0 0 0 0 0 0 0 0 0 0 0 0 0 0 0 0 0 0 1 0 0 0 0 0 0 0 2 0 0 0 0 0 0 2 0 0 0 0 0 0 0 0 0 0 0 0 0 0 2 2 0 0 0 0 1 0 0 0 0 0 0 0 0 0 0 0 0 0 0 0 0 0 0 4 1 5 0 0 1 0 0 0 0 0 0 2 0 0 0 0 0 0 0 0 0 0 0 0 2 0 0 0 0 0 0 0 0 0 0 0 0 0 0 0 0 0 0 0 0 0 0 0 0 0 0 0 0 0 0 1 0 1 0 1 0 0 0 0 0 0 0 2 0 0 0 0 0 0 0 0 1 45 0 0 0 0 3 0 0 0 0 0 0 0 0 0 1 0 0 0 0 0 0 0 0 0 
Printing Sanity2
Heartbeat CPU 0 instructions: 110000000 cycles: 147011680 heartbeat IPC: 0.45586 cumulative IPC: 0.450528 (Simulation time: 0 hr 8 min 2 sec) 
Heartbeat CPU 0 instructions: 120000000 cycles: 169233749 heartbeat IPC: 0.450003 cumulative IPC: 0.450453 (Simulation time: 0 hr 8 min 53 sec) 
*** Reached end of trace for Core: 0 Repeating trace: traces/spec2k17/srv_63.champsimtrace.xz
Heartbeat CPU 0 instructions: 130000000 cycles: 191623179 heartbeat IPC: 0.446639 cumulative IPC: 0.449972 (Simulation time: 0 hr 9 min 47 sec) 
Heartbeat CPU 0 instructions: 140000003 cycles: 213725348 heartbeat IPC: 0.452444 cumulative IPC: 0.450246 (Simulation time: 0 hr 10 min 39 sec) 
Heartbeat CPU 0 instructions: 150000003 cycles: 235629785 heartbeat IPC: 0.456529 cumulative IPC: 0.450866 (Simulation time: 0 hr 11 min 32 sec) 
*** Reached end of trace for Core: 0 Repeating trace: traces/spec2k17/srv_63.champsimtrace.xz
Heartbeat CPU 0 instructions: 160000000 cycles: 258282566 heartbeat IPC: 0.441447 cumulative IPC: 0.449993 (Simulation time: 0 hr 12 min 23 sec) 
Heartbeat CPU 0 instructions: 170000003 cycles: 280214888 heartbeat IPC: 0.455948 cumulative IPC: 0.450484 (Simulation time: 0 hr 13 min 16 sec) 
Heartbeat CPU 0 instructions: 180000003 cycles: 302179451 heartbeat IPC: 0.455279 cumulative IPC: 0.450849 (Simulation time: 0 hr 14 min 7 sec) 
*** Reached end of trace for Core: 0 Repeating trace: traces/spec2k17/srv_63.champsimtrace.xz
Heartbeat CPU 0 instructions: 190000000 cycles: 324737788 heartbeat IPC: 0.443295 cumulative IPC: 0.450301 (Simulation time: 0 hr 15 min 2 sec) 
Heartbeat CPU 0 instructions: 200000000 cycles: 346664719 heartbeat IPC: 0.45606 cumulative IPC: 0.45068 (Simulation time: 0 hr 15 min 48 sec) 
Heartbeat CPU 0 instructions: 210000002 cycles: 368512795 heartbeat IPC: 0.457706 cumulative IPC: 0.451113 (Simulation time: 0 hr 16 min 29 sec) 
*** Reached end of trace for Core: 0 Repeating trace: traces/spec2k17/srv_63.champsimtrace.xz
Heartbeat CPU 0 instructions: 220000000 cycles: 391020154 heartbeat IPC: 0.444299 cumulative IPC: 0.450706 (Simulation time: 0 hr 17 min 10 sec) 
Heartbeat CPU 0 instructions: 230000001 cycles: 412910939 heartbeat IPC: 0.456813 cumulative IPC: 0.451041 (Simulation time: 0 hr 17 min 46 sec) 
Heartbeat CPU 0 instructions: 240000002 cycles: 435157831 heartbeat IPC: 0.449501 cumulative IPC: 0.45096 (Simulation time: 0 hr 18 min 19 sec) 
*** Reached end of trace for Core: 0 Repeating trace: traces/spec2k17/srv_63.champsimtrace.xz
Heartbeat CPU 0 instructions: 250000000 cycles: 457290324 heartbeat IPC: 0.451824 cumulative IPC: 0.451003 (Simulation time: 0 hr 18 min 51 sec) 
Finished CPU 0 instructions: 200000001 cycles: 443455832 cumulative IPC: 0.451003 (Simulation time: 0 hr 18 min 51 sec) 

ChampSim completed all CPUs

Region of Interest Statistics

CPU 0 cumulative IPC: 0.451003 instructions: 200000001 cycles: 443455832
ITLB TOTAL     ACCESS:   31327842  HIT:   30547264  MISS:     780578  HIT %:    97.5084  MISS %:    2.49164   MPKI: 3.90289
ITLB LOAD TRANSLATION ACCESS:   31327842  HIT:   30547264  MISS:     780578  HIT %:    97.5084  MISS %:    2.49164   MPKI: 3.90289
ITLB PREFETCH  REQUESTED:          0  ISSUED:          0  USEFUL:          0  USELESS:          0
ITLB USEFUL LOAD PREFETCHES:          0 PREFETCH ISSUED TO LOWER LEVEL:          0  ACCURACY: -nan
ITLB TIMELY PREFETCHES:          0 LATE PREFETCHES: 0 DROPPED PREFETCHES: 0
ITLB PREFETCHES SAME FILL-ORIGIN LEVEL: 0 DIFFERENT FILL-ORIGIN LEVEL: 0
ITLB AVERAGE MISS LATENCY: 13.8837 cycles
ITLB RQ	ACCESS:   38371612	FORWARD:          0	MERGED:    6848073	TO_CACHE:   31523539

DTLB TOTAL     ACCESS:   37036748  HIT:   34426815  MISS:    2609933  HIT %:    92.9531  MISS %:    7.04687   MPKI: 13.0497
DTLB LOAD TRANSLATION ACCESS:   37036748  HIT:   34426815  MISS:    2609933  HIT %:    92.9531  MISS %:    7.04687   MPKI: 13.0497
DTLB PREFETCH  REQUESTED:          0  ISSUED:          0  USEFUL:          0  USELESS:          0
DTLB USEFUL LOAD PREFETCHES:          0 PREFETCH ISSUED TO LOWER LEVEL:          0  ACCURACY: -nan
DTLB TIMELY PREFETCHES:          0 LATE PREFETCHES: 0 DROPPED PREFETCHES: 0
DTLB PREFETCHES SAME FILL-ORIGIN LEVEL: 0 DIFFERENT FILL-ORIGIN LEVEL: 0
DTLB AVERAGE MISS LATENCY: 13.7575 cycles
DTLB RQ	ACCESS:   47561673	FORWARD:          0	MERGED:   10375045	TO_CACHE:   37186628

STLB TOTAL     ACCESS:    3485603  HIT:    3129840  MISS:     355763  HIT %:    89.7934  MISS %:    10.2066   MPKI: 1.77881
STLB LOAD TRANSLATION ACCESS:    3390511  HIT:    3035179  MISS:     355332  HIT %:    89.5198  MISS %:    10.4802   MPKI: 1.77666
STLB TRANSLATION FROM L1D PREFETCHER ACCESS:      95092  HIT:      94661  MISS:        431  HIT %:    99.5468  MISS %:   0.453245   MPKI: 0.002155
STLB PREFETCH  REQUESTED:          0  ISSUED:          0  USEFUL:        363  USELESS:         68
STLB USEFUL LOAD PREFETCHES:        363 PREFETCH ISSUED TO LOWER LEVEL:          0  ACCURACY: inf
STLB TIMELY PREFETCHES:        363 LATE PREFETCHES: 5 DROPPED PREFETCHES: 1035
STLB PREFETCHES SAME FILL-ORIGIN LEVEL: 0 DIFFERENT FILL-ORIGIN LEVEL: 0
STLB AVERAGE MISS LATENCY: 45.4229 cycles
STLB RQ	ACCESS:    3495568	FORWARD:          0	MERGED:       8902	TO_CACHE:    3486666

STLB Hit, L1D data hit: 0
STLB Hit, L2C data hit: 0
STLB Hit, LLC data hit: 0
STLB Hit, LLC data miss: 0
STLB STLB hints to L2: 0
L1D TOTAL     ACCESS:   47137623  HIT:   44612056  MISS:    2525567  HIT %:    94.6421  MISS %:    5.35786   MPKI: 12.6278
L1D LOAD      ACCESS:   27481043  HIT:   25378415  MISS:    2102628  HIT %:    92.3488  MISS %:    7.65119   MPKI: 10.5131
L1D RFO       ACCESS:   19558019  HIT:   19223180  MISS:     334839  HIT %:     98.288  MISS %:    1.71203   MPKI: 1.67419
L1D PREFETCH  ACCESS:      98561  HIT:      10461  MISS:      88100  HIT %:    10.6137  MISS %:    89.3863   MPKI: 0.4405
AGUS PREFETCH L1 MISS: 0
L1D PREFETCH  REQUESTED:     211457  ISSUED:     211457  USEFUL:      17539  USELESS:      70561
L1D USEFUL LOAD PREFETCHES:      17539 PREFETCH ISSUED TO LOWER LEVEL:      88611  ACCURACY: 19.7933
L1D TIMELY PREFETCHES:      17539 LATE PREFETCHES: 487 DROPPED PREFETCHES: 1274
L1D PREFETCHES SAME FILL-ORIGIN LEVEL: 88611 DIFFERENT FILL-ORIGIN LEVEL: 0
L1D AVERAGE MISS LATENCY: 57232.7 cycles
L1D RQ	ACCESS:   42082665	FORWARD:          0	MERGED:   14218355	TO_CACHE:   27611857
L1D WQ	ACCESS:   20271818	FORWARD:     252454	MERGED:     322002	TO_CACHE:   19949816
L1D PQ	ACCESS:     106400	FORWARD:          0	MERGED:       1342	TO_CACHE:     105057

L1D UNIQUE REGIONS ACCESSED: 0
L1D REGIONS CONFLICTS: 0
L1D Cross Page Prefetch Requests: 106400
L1D Same Page Prefetch Requests: 0
L1D ROI Sum of L1D PQ occupancy: 1439873
L1D PREFETCHES PUSHED FROM L2C: 0
L1I TOTAL     ACCESS:   36573914  HIT:   31429400  MISS:    5144514  HIT %:    85.9339  MISS %:    14.0661   MPKI: 25.7226
L1I LOAD      ACCESS:   36573914  HIT:   31429400  MISS:    5144514  HIT %:    85.9339  MISS %:    14.0661   MPKI: 25.7226
L1I PREFETCH  REQUESTED:          0  ISSUED:          0  USEFUL:          0  USELESS:          0
L1I USEFUL LOAD PREFETCHES:          0 PREFETCH ISSUED TO LOWER LEVEL:          0  ACCURACY: -nan
L1I TIMELY PREFETCHES:          0 LATE PREFETCHES: 0 DROPPED PREFETCHES: 0
L1I PREFETCHES SAME FILL-ORIGIN LEVEL: 0 DIFFERENT FILL-ORIGIN LEVEL: 0
L1I AVERAGE MISS LATENCY: 25.2733 cycles
L1I RQ	ACCESS:   57232036	FORWARD:          0	MERGED:   18860424	TO_CACHE:   38371612

BTB TOTAL     ACCESS:   22132994  HIT:   17703037  MISS:    4429957  HIT %:    79.9848  MISS %:    20.0152   MPKI: 22.1498
BTB BRANCH_DIRECT_JUMP	ACCESS:    1771716  HIT:    1521380  MISS:     250336
BTB BRANCH_INDIRECT	ACCESS:    9488973  HIT:    7332684  MISS:    2156289
BTB BRANCH_CONDITIONAL	ACCESS:    4504476  HIT:    4096603  MISS:     407873
BTB BRANCH_DIRECT_CALL	ACCESS:    2499396  HIT:    2015019  MISS:     484377
BTB BRANCH_INDIRECT_CALL	ACCESS:     683762  HIT:     642808  MISS:      40954
BTB BRANCH_RETURN	ACCESS:    3184671  HIT:    2094543  MISS:    1090128
BTB BRANCH_OTHER ACCESS:          0  HIT:          0  MISS:          0

L2C TOTAL     ACCESS:    9154604  HIT:    5939241  MISS:    3215363  HIT %:    64.8771  MISS %:    35.1229   MPKI: 16.0768
L2C LOAD      ACCESS:    7246405  HIT:    4456017  MISS:    2790388  HIT %:    61.4928  MISS %:    38.5072   MPKI: 13.9519
L2C DATA LOAD MPKI: 4.66203
L2C INSTRUCTION LOAD MPKI: 9.28991
L2C RFO       ACCESS:     334814  HIT:     197735  MISS:     137079  HIT %:    59.0582  MISS %:    40.9418   MPKI: 0.685395
L2C PREFETCH  ACCESS:      88610  HIT:      28535  MISS:      60075  HIT %:    32.2029  MISS %:    67.7971   MPKI: 0.300375
AGUS PREFETCH L1 MISS: 0
L2C DATA PREFETCH MPKI: 0.300375
L2C INSTRUCTION PREFETCH MPKI: 0
L2C WRITEBACK ACCESS:    1017351  HIT:     970013  MISS:      47338  HIT %:    95.3469  MISS %:    4.65306   MPKI: 0.23669
L2C LOAD TRANSLATION ACCESS:     465336  HIT:     285454  MISS:     179882  HIT %:    61.3436  MISS %:    38.6564   MPKI: 0.89941
L2C TRANSLATION FROM L1D PREFETCHER ACCESS:       2088  HIT:       1487  MISS:        601  HIT %:    71.2165  MISS %:    28.7835   MPKI: 0.003005
L2C PREFETCH  REQUESTED:          0  ISSUED:          0  USEFUL:       2961  USELESS:      57711
L2C USEFUL LOAD PREFETCHES:       2961 PREFETCH ISSUED TO LOWER LEVEL:      60075  ACCURACY: 4.92884
L2C TIMELY PREFETCHES:       2961 LATE PREFETCHES: 0 DROPPED PREFETCHES: 0
L2C PREFETCHES SAME FILL-ORIGIN LEVEL: 0 DIFFERENT FILL-ORIGIN LEVEL: 0
L2C AVERAGE MISS LATENCY: 44.3595 cycles
L2C RQ	ACCESS:    8048895	FORWARD:          0	MERGED:          0	TO_CACHE:    8048644
L2C WQ	ACCESS:    1017351	FORWARD:        252	MERGED:          0	TO_CACHE:    1017351
L2C PQ	ACCESS:      88611	FORWARD:          0	MERGED:          0	TO_CACHE:      88610

L2C Instructions Evicting Data 679092
L2C Translations Evicting Data 67086
L2C Data Evicting Data 413731
L2C Instructions Evicting Instructions 1077131
L2C Translations Evicting Instructions 101819
L2C Data Evicting Instructions 651233
L2C Instructions Evicting Translations 101759
L2C Translations Evicting Translations 11578
L2C Data Evicting Translations 64596
L2C Dense regions hint from L2: 0
PSCL5 TOTAL     ACCESS:     356798  HIT:     356798  MISS:          0  HIT %:        100  MISS %:          0   MPKI: 0
PSCL5 LOAD TRANSLATION ACCESS:     355327  HIT:     355327  MISS:          0  HIT %:        100  MISS %:          0   MPKI: 0
PSCL5 TRANSLATION FROM L1D PREFETCHER ACCESS:       1471  HIT:       1471  MISS:          0  HIT %:        100  MISS %:          0   MPKI: 0
PSCL5 PREFETCH  REQUESTED:          0  ISSUED:          0  USEFUL:          0  USELESS:          0
PSCL5 USEFUL LOAD PREFETCHES:          0 PREFETCH ISSUED TO LOWER LEVEL:          0  ACCURACY: -nan
PSCL5 TIMELY PREFETCHES:          0 LATE PREFETCHES: 0 DROPPED PREFETCHES: 0
PSCL5 PREFETCHES SAME FILL-ORIGIN LEVEL: 0 DIFFERENT FILL-ORIGIN LEVEL: 0

PSCL4 TOTAL     ACCESS:     336502  HIT:     336067  MISS:        435  HIT %:    99.8707  MISS %:   0.129271   MPKI: 0.002175
PSCL4 LOAD TRANSLATION ACCESS:     335195  HIT:     334760  MISS:        435  HIT %:    99.8702  MISS %:   0.129775   MPKI: 0.002175
PSCL4 TRANSLATION FROM L1D PREFETCHER ACCESS:       1307  HIT:       1307  MISS:          0  HIT %:        100  MISS %:          0   MPKI: 0
PSCL4 PREFETCH  REQUESTED:          0  ISSUED:          0  USEFUL:          0  USELESS:          0
PSCL4 USEFUL LOAD PREFETCHES:          0 PREFETCH ISSUED TO LOWER LEVEL:          0  ACCURACY: -nan
PSCL4 TIMELY PREFETCHES:          0 LATE PREFETCHES: 0 DROPPED PREFETCHES: 0
PSCL4 PREFETCHES SAME FILL-ORIGIN LEVEL: 0 DIFFERENT FILL-ORIGIN LEVEL: 0

PSCL3 TOTAL     ACCESS:     355829  HIT:     354961  MISS:        868  HIT %:    99.7561  MISS %:   0.243937   MPKI: 0.00434
PSCL3 LOAD TRANSLATION ACCESS:     354371  HIT:     353503  MISS:        868  HIT %:    99.7551  MISS %:   0.244941   MPKI: 0.00434
PSCL3 TRANSLATION FROM L1D PREFETCHER ACCESS:       1458  HIT:       1458  MISS:          0  HIT %:        100  MISS %:          0   MPKI: 0
PSCL3 PREFETCH  REQUESTED:          0  ISSUED:          0  USEFUL:          0  USELESS:          0
PSCL3 USEFUL LOAD PREFETCHES:          0 PREFETCH ISSUED TO LOWER LEVEL:          0  ACCURACY: -nan
PSCL3 TIMELY PREFETCHES:          0 LATE PREFETCHES: 0 DROPPED PREFETCHES: 0
PSCL3 PREFETCHES SAME FILL-ORIGIN LEVEL: 0 DIFFERENT FILL-ORIGIN LEVEL: 0

PSCL2 TOTAL     ACCESS:     356287  HIT:     247478  MISS:     108809  HIT %:    69.4603  MISS %:    30.5397   MPKI: 0.544045
PSCL2 LOAD TRANSLATION ACCESS:     355420  HIT:     246611  MISS:     108809  HIT %:    69.3858  MISS %:    30.6142   MPKI: 0.544045
PSCL2 TRANSLATION FROM L1D PREFETCHER ACCESS:        867  HIT:        867  MISS:          0  HIT %:        100  MISS %:          0   MPKI: 0
PSCL2 PREFETCH  REQUESTED:          0  ISSUED:          0  USEFUL:          0  USELESS:          0
PSCL2 USEFUL LOAD PREFETCHES:          0 PREFETCH ISSUED TO LOWER LEVEL:          0  ACCURACY: -nan
PSCL2 TIMELY PREFETCHES:          0 LATE PREFETCHES: 0 DROPPED PREFETCHES: 0
PSCL2 PREFETCHES SAME FILL-ORIGIN LEVEL: 0 DIFFERENT FILL-ORIGIN LEVEL: 0

LLC TOTAL     ACCESS:    3582057  HIT:    3268370  MISS:     313687  HIT %:    91.2428  MISS %:    8.75717   MPKI: 1.56843
LLC LOAD      ACCESS:    2790388  HIT:    2552906  MISS:     237482  HIT %:    91.4893  MISS %:    8.51072   MPKI: 1.18741
LLC RFO       ACCESS:     137075  HIT:      90464  MISS:      46611  HIT %:     65.996  MISS %:     34.004   MPKI: 0.233055
LLC PREFETCH  ACCESS:      60075  HIT:      45433  MISS:      14642  HIT %:    75.6271  MISS %:    24.3729   MPKI: 0.07321
AGUS PREFETCH L1 MISS: 0
LLC WRITEBACK ACCESS:     414036  HIT:     411515  MISS:       2521  HIT %:    99.3911  MISS %:   0.608884   MPKI: 0.012605
LLC LOAD TRANSLATION ACCESS:     179882  HIT:     167470  MISS:      12412  HIT %:    93.0999  MISS %:    6.90008   MPKI: 0.06206
LLC TRANSLATION FROM L1D PREFETCHER ACCESS:        601  HIT:        582  MISS:         19  HIT %:    96.8386  MISS %:     3.1614   MPKI: 9.5e-05
LLC PREFETCH  REQUESTED:          0  ISSUED:          0  USEFUL:        635  USELESS:      11805
LLC USEFUL LOAD PREFETCHES:        635 PREFETCH ISSUED TO LOWER LEVEL:      14642  ACCURACY: 4.33684
LLC TIMELY PREFETCHES:        635 LATE PREFETCHES: 0 DROPPED PREFETCHES: 0
LLC PREFETCHES SAME FILL-ORIGIN LEVEL: 0 DIFFERENT FILL-ORIGIN LEVEL: 0
LLC AVERAGE MISS LATENCY: 151.711 cycles
LLC RQ	ACCESS:    3107950	FORWARD:          0	MERGED:          0	TO_CACHE:    3107946
LLC WQ	ACCESS:     414036	FORWARD:          4	MERGED:          0	TO_CACHE:     414036
LLC PQ	ACCESS:      60075	FORWARD:          0	MERGED:          0	TO_CACHE:      60075

LLC Dense regions hint to LLC: 0

RAW hits: 2770009
Loads Generated: 44852676
Loads sent to L1D: 42082665
Stores Generated: 20271815
Stores sent to L1D: 20271818
Major fault: 0 Minor fault: 6260
Allocated PAGES: 6260
CPU 0 L1D 
Prefetch count 195011 BOP and RL 

DRAM Statistics
 CHANNEL 0
 RQ ROW_BUFFER_HIT:      59135  ROW_BUFFER_MISS:     252029
 DBUS_CONGESTED:        190
 WQ ROW_BUFFER_HIT:      30104  ROW_BUFFER_MISS:     187896  FULL:          0

 AVG_CONGESTED_CYCLE: 4
 All warmup complete: 2
Channel 0 Bank busy for read cycles: 0
Channel 0 Bank busy for write cycles: 0
Channel 0
Rank 0
0banks busy for read cycles: 385481143
0banks busy for write cycles: 121528
1banks busy for read cycles: 27919829
1banks busy for write cycles: 16963921
2banks busy for read cycles: 4308863
2banks busy for write cycles: 4242355
3banks busy for read cycles: 514144
3banks busy for write cycles: 1392518
4banks busy for read cycles: 249176
4banks busy for write cycles: 726513
5banks busy for read cycles: 97643
5banks busy for write cycles: 411937
6banks busy for read cycles: 72882
6banks busy for write cycles: 304622
7banks busy for read cycles: 45621
7banks busy for write cycles: 257721
8banks busy for read cycles: 55062
8banks busy for write cycles: 290355

CPU 0 Branch Prediction Accuracy: 99.8245% MPKI: 0.314415 Average ROB Occupancy at Mispredict: 43.1767
Branch types
NOT_BRANCH: 164177126 82.0886%
BRANCH_DIRECT_JUMP: 1771716 0.885858%
BRANCH_INDIRECT: 9488973 4.74449%
BRANCH_CONDITIONAL: 18194015 9.09701%
BRANCH_DIRECT_CALL: 2499396 1.2497%
BRANCH_INDIRECT_CALL: 683762 0.341881%
BRANCH_RETURN: 3184671 1.59234%
BRANCH_OTHER: 0 0%

DRAM PAGES: 1048576
Allocated PAGES: 6260
