
*** ChampSim Multicore Out-of-Order Simulator ***

Warmup Instructions: 50000000
Simulation Instructions: 200000000
Number of CPUs: 1
LLC sets: 2048
LLC ways: 16
Off-chip DRAM Size: 4096 MB Channels: 1 Width: 64-bit Data Rate: 6400 MT/s
CPU 0 runs traces/spec2k17/client_002.champsimtrace.xz
.xz
BTB has LRU replacement policy
ITLB has LRU replacement policy
DTLB has LRU replacement policy
STLB has LRU replacement policy
L1I has LRU replacement policy
CPU 0 L1D IP-based stride prefetcher
L1D has LRU replacement policy
Initialize SRRIP state for L2C
Initialize DRRIP state for LLC
Heartbeat CPU 0 instructions: 10000002 cycles: 2799534 heartbeat IPC: 3.57202 cumulative IPC: 3.57202 (Simulation time: 0 hr 0 min 40 sec) 
Heartbeat CPU 0 instructions: 20000002 cycles: 5611864 heartbeat IPC: 3.55577 cumulative IPC: 3.56388 (Simulation time: 0 hr 1 min 25 sec) 
Heartbeat CPU 0 instructions: 30000000 cycles: 8405351 heartbeat IPC: 3.57975 cumulative IPC: 3.56915 (Simulation time: 0 hr 2 min 8 sec) 
Heartbeat CPU 0 instructions: 40000003 cycles: 11220300 heartbeat IPC: 3.55246 cumulative IPC: 3.56497 (Simulation time: 0 hr 2 min 53 sec) 
Heartbeat CPU 0 instructions: 50000001 cycles: 14034482 heartbeat IPC: 3.55343 cumulative IPC: 3.56265 (Simulation time: 0 hr 3 min 36 sec) 

Warmup complete CPU 0 instructions: 50000001 cycles: 14034482 (Simulation time: 0 hr 3 min 36 sec) 

Heartbeat CPU 0 instructions: 60000001 cycles: 29716261 heartbeat IPC: 0.637683 cumulative IPC: 0.637683 (Simulation time: 0 hr 4 min 23 sec) 
Heartbeat CPU 0 instructions: 70000002 cycles: 45489730 heartbeat IPC: 0.633976 cumulative IPC: 0.635824 (Simulation time: 0 hr 5 min 9 sec) 
Heartbeat CPU 0 instructions: 80000000 cycles: 60983319 heartbeat IPC: 0.645428 cumulative IPC: 0.638993 (Simulation time: 0 hr 5 min 58 sec) 
Heartbeat CPU 0 instructions: 90000000 cycles: 77566451 heartbeat IPC: 0.603022 cumulative IPC: 0.629604 (Simulation time: 0 hr 6 min 42 sec) 
Heartbeat CPU 0 instructions: 100000002 cycles: 93465187 heartbeat IPC: 0.628981 cumulative IPC: 0.62948 (Simulation time: 0 hr 7 min 32 sec) 
*** Reached end of trace for Core: 0 Repeating trace: traces/spec2k17/client_002.champsimtrace.xz
Heartbeat CPU 0 instructions: 110000000 cycles: 109551989 heartbeat IPC: 0.621627 cumulative IPC: 0.628157 (Simulation time: 0 hr 8 min 26 sec) 
Heartbeat CPU 0 instructions: 120000000 cycles: 125387597 heartbeat IPC: 0.631488 cumulative IPC: 0.628631 (Simulation time: 0 hr 9 min 19 sec) 
Heartbeat CPU 0 instructions: 130000003 cycles: 140750567 heartbeat IPC: 0.650916 cumulative IPC: 0.631333 (Simulation time: 0 hr 10 min 11 sec) 
Heartbeat CPU 0 instructions: 140000002 cycles: 156328077 heartbeat IPC: 0.641951 cumulative IPC: 0.632495 (Simulation time: 0 hr 11 min 0 sec) 
Heartbeat CPU 0 instructions: 150000002 cycles: 171910795 heartbeat IPC: 0.641737 cumulative IPC: 0.633407 (Simulation time: 0 hr 11 min 45 sec) 
Heartbeat CPU 0 instructions: 160000000 cycles: 187478499 heartbeat IPC: 0.642355 cumulative IPC: 0.63421 (Simulation time: 0 hr 12 min 35 sec) 
Heartbeat CPU 0 instructions: 170000000 cycles: 202985081 heartbeat IPC: 0.644887 cumulative IPC: 0.635087 (Simulation time: 0 hr 13 min 22 sec) 
Heartbeat CPU 0 instructions: 180000001 cycles: 218593869 heartbeat IPC: 0.640665 cumulative IPC: 0.635512 (Simulation time: 0 hr 14 min 12 sec) 
Heartbeat CPU 0 instructions: 190000000 cycles: 234389231 heartbeat IPC: 0.633097 cumulative IPC: 0.635339 (Simulation time: 0 hr 15 min 2 sec) 
Heartbeat CPU 0 instructions: 200000000 cycles: 250749310 heartbeat IPC: 0.611244 cumulative IPC: 0.633674 (Simulation time: 0 hr 15 min 50 sec) 
*** Reached end of trace for Core: 0 Repeating trace: traces/spec2k17/client_002.champsimtrace.xz
Heartbeat CPU 0 instructions: 210000002 cycles: 266860527 heartbeat IPC: 0.620686 cumulative IPC: 0.632846 (Simulation time: 0 hr 16 min 42 sec) 
Heartbeat CPU 0 instructions: 220000000 cycles: 282257397 heartbeat IPC: 0.649483 cumulative IPC: 0.633801 (Simulation time: 0 hr 17 min 33 sec) 
Heartbeat CPU 0 instructions: 230000000 cycles: 297711836 heartbeat IPC: 0.647063 cumulative IPC: 0.634524 (Simulation time: 0 hr 18 min 24 sec) 
Heartbeat CPU 0 instructions: 240000003 cycles: 313287261 heartbeat IPC: 0.642037 cumulative IPC: 0.634915 (Simulation time: 0 hr 19 min 14 sec) 
Heartbeat CPU 0 instructions: 250000003 cycles: 328796005 heartbeat IPC: 0.644798 cumulative IPC: 0.635402 (Simulation time: 0 hr 20 min 2 sec) 
Finished CPU 0 instructions: 200000002 cycles: 314761523 cumulative IPC: 0.635402 (Simulation time: 0 hr 20 min 2 sec) 

ChampSim completed all CPUs

Region of Interest Statistics

CPU 0 cumulative IPC: 0.635402 instructions: 200000002 cycles: 314761523
ITLB TOTAL     ACCESS:   33365959  HIT:   32926967  MISS:     438992  HIT %:    98.6843  MISS %:    1.31569   MPKI: 2.19496
ITLB LOAD TRANSLATION ACCESS:   33365959  HIT:   32926967  MISS:     438992  HIT %:    98.6843  MISS %:    1.31569   MPKI: 2.19496
ITLB PREFETCH  REQUESTED:          0  ISSUED:          0  USEFUL:          0  USELESS:          0
ITLB USEFUL LOAD PREFETCHES:          0 PREFETCH ISSUED TO LOWER LEVEL:          0  ACCURACY: -nan
ITLB TIMELY PREFETCHES:          0 LATE PREFETCHES: 0 DROPPED PREFETCHES: 0
ITLB PREFETCHES SAME FILL-ORIGIN LEVEL: 0 DIFFERENT FILL-ORIGIN LEVEL: 0
ITLB AVERAGE MISS LATENCY: 9.43146 cycles
ITLB RQ	ACCESS:   39504336	FORWARD:          0	MERGED:    5994602	TO_CACHE:   33509734

DTLB TOTAL     ACCESS:   39113688  HIT:   38499629  MISS:     614059  HIT %:    98.4301  MISS %:    1.56993   MPKI: 3.07029
DTLB LOAD TRANSLATION ACCESS:   39113688  HIT:   38499629  MISS:     614059  HIT %:    98.4301  MISS %:    1.56993   MPKI: 3.07029
DTLB PREFETCH  REQUESTED:          0  ISSUED:          0  USEFUL:          0  USELESS:          0
DTLB USEFUL LOAD PREFETCHES:          0 PREFETCH ISSUED TO LOWER LEVEL:          0  ACCURACY: -nan
DTLB TIMELY PREFETCHES:          0 LATE PREFETCHES: 0 DROPPED PREFETCHES: 0
DTLB PREFETCHES SAME FILL-ORIGIN LEVEL: 0 DIFFERENT FILL-ORIGIN LEVEL: 0
DTLB AVERAGE MISS LATENCY: 10.5048 cycles
DTLB RQ	ACCESS:   54252703	FORWARD:          0	MERGED:   15084485	TO_CACHE:   39168218

STLB TOTAL     ACCESS:    1294667  HIT:    1261818  MISS:      32849  HIT %:    97.4627  MISS %:    2.53725   MPKI: 0.164245
STLB LOAD TRANSLATION ACCESS:    1053051  HIT:    1020202  MISS:      32849  HIT %:    96.8806  MISS %:    3.11941   MPKI: 0.164245
STLB TRANSLATION FROM L1D PREFETCHER ACCESS:     241616  HIT:     241616  MISS:          0  HIT %:        100  MISS %:          0   MPKI: 0
STLB PREFETCH  REQUESTED:          0  ISSUED:          0  USEFUL:          0  USELESS:          0
STLB USEFUL LOAD PREFETCHES:          0 PREFETCH ISSUED TO LOWER LEVEL:          0  ACCURACY: -nan
STLB TIMELY PREFETCHES:          0 LATE PREFETCHES: 0 DROPPED PREFETCHES: 0
STLB PREFETCHES SAME FILL-ORIGIN LEVEL: 0 DIFFERENT FILL-ORIGIN LEVEL: 0
STLB AVERAGE MISS LATENCY: 33.4755 cycles
STLB RQ	ACCESS:    1782695	FORWARD:          0	MERGED:     488028	TO_CACHE:    1294667

STLB Hit, L1D data hit: 0
STLB Hit, L2C data hit: 0
STLB Hit, LLC data hit: 0
STLB Hit, LLC data miss: 0
STLB STLB hints to L2: 0
L1D TOTAL     ACCESS:   54037305  HIT:   53092816  MISS:     944489  HIT %:    98.2522  MISS %:    1.74785   MPKI: 4.72244
L1D LOAD      ACCESS:   28532145  HIT:   28035087  MISS:     497058  HIT %:    98.2579  MISS %:     1.7421   MPKI: 2.48529
L1D RFO       ACCESS:   24813454  HIT:   24448054  MISS:     365400  HIT %:    98.5274  MISS %:    1.47259   MPKI: 1.827
L1D PREFETCH  ACCESS:     691706  HIT:     609675  MISS:      82031  HIT %:    88.1408  MISS %:    11.8592   MPKI: 0.410155
AGUS PREFETCH L1 MISS: 0
L1D PREFETCH  REQUESTED:    1526084  ISSUED:    1526084  USEFUL:      58663  USELESS:      23362
L1D USEFUL LOAD PREFETCHES:      58663 PREFETCH ISSUED TO LOWER LEVEL:     108134  ACCURACY: 54.2503
L1D TIMELY PREFETCHES:      58663 LATE PREFETCHES: 5472 DROPPED PREFETCHES: 0
L1D PREFETCHES SAME FILL-ORIGIN LEVEL: 87794 DIFFERENT FILL-ORIGIN LEVEL: 20340
L1D AVERAGE MISS LATENCY: 1.04435e+06 cycles
L1D RQ	ACCESS:   45644782	FORWARD:          0	MERGED:   16370978	TO_CACHE:   28560640
L1D WQ	ACCESS:   26301615	FORWARD:     713340	MERGED:     609552	TO_CACHE:   25692063
L1D PQ	ACCESS:     796440	FORWARD:          0	MERGED:      66620	TO_CACHE:     729644

L1D UNIQUE REGIONS ACCESSED: 0
L1D REGIONS CONFLICTS: 0
L1D Cross Page Prefetch Requests: 0
L1D Same Page Prefetch Requests: 985661
L1D ROI Sum of L1D PQ occupancy: 9711167
L1D PREFETCHES PUSHED FROM L2C: 0
L1I TOTAL     ACCESS:   39089444  HIT:   37292594  MISS:    1796850  HIT %:    95.4032  MISS %:    4.59677   MPKI: 8.98425
L1I LOAD      ACCESS:   39089444  HIT:   37292594  MISS:    1796850  HIT %:    95.4032  MISS %:    4.59677   MPKI: 8.98425
L1I PREFETCH  REQUESTED:          0  ISSUED:          0  USEFUL:          0  USELESS:          0
L1I USEFUL LOAD PREFETCHES:          0 PREFETCH ISSUED TO LOWER LEVEL:          0  ACCURACY: -nan
L1I TIMELY PREFETCHES:          0 LATE PREFETCHES: 0 DROPPED PREFETCHES: 0
L1I PREFETCHES SAME FILL-ORIGIN LEVEL: 0 DIFFERENT FILL-ORIGIN LEVEL: 0
L1I AVERAGE MISS LATENCY: 19.6459 cycles
L1I RQ	ACCESS:   60708612	FORWARD:          0	MERGED:   21204276	TO_CACHE:   39504336

BTB TOTAL     ACCESS:   30231228  HIT:   27084386  MISS:    3146842  HIT %:    89.5908  MISS %:    10.4092   MPKI: 15.7342
BTB BRANCH_DIRECT_JUMP	ACCESS:    1998705  HIT:    1920221  MISS:      78484
BTB BRANCH_INDIRECT	ACCESS:    8495012  HIT:    7557989  MISS:     937023
BTB BRANCH_CONDITIONAL	ACCESS:   11359976  HIT:   11215254  MISS:     144722
BTB BRANCH_DIRECT_CALL	ACCESS:    3711340  HIT:    3545021  MISS:     166319
BTB BRANCH_INDIRECT_CALL	ACCESS:     476971  HIT:     364345  MISS:     112626
BTB BRANCH_RETURN	ACCESS:    4189224  HIT:    2481556  MISS:    1707668
BTB BRANCH_OTHER ACCESS:          0  HIT:          0  MISS:          0

L2C TOTAL     ACCESS:    3243954  HIT:    2529677  MISS:     714277  HIT %:    77.9813  MISS %:    22.0187   MPKI: 3.57138
L2C LOAD      ACCESS:    2288433  HIT:    1861333  MISS:     427100  HIT %:    81.3366  MISS %:    18.6634   MPKI: 2.1355
L2C DATA LOAD MPKI: 0.745775
L2C INSTRUCTION LOAD MPKI: 1.38972
L2C RFO       ACCESS:     365103  HIT:     136481  MISS:     228622  HIT %:    37.3815  MISS %:    62.6185   MPKI: 1.14311
L2C PREFETCH  ACCESS:     103006  HIT:      66899  MISS:      36107  HIT %:    64.9467  MISS %:    35.0533   MPKI: 0.180535
AGUS PREFETCH L1 MISS: 0
L2C DATA PREFETCH MPKI: 0.180535
L2C INSTRUCTION PREFETCH MPKI: 0
L2C WRITEBACK ACCESS:     453717  HIT:     437352  MISS:      16365  HIT %:    96.3931  MISS %:    3.60687   MPKI: 0.081825
L2C LOAD TRANSLATION ACCESS:      33695  HIT:      27612  MISS:       6083  HIT %:    81.9469  MISS %:    18.0531   MPKI: 0.030415
L2C PREFETCH  REQUESTED:          0  ISSUED:          0  USEFUL:       4558  USELESS:      31587
L2C USEFUL LOAD PREFETCHES:       4558 PREFETCH ISSUED TO LOWER LEVEL:      36233  ACCURACY: 12.5797
L2C TIMELY PREFETCHES:       4558 LATE PREFETCHES: 126 DROPPED PREFETCHES: 0
L2C PREFETCHES SAME FILL-ORIGIN LEVEL: 6131 DIFFERENT FILL-ORIGIN LEVEL: 0
L2C AVERAGE MISS LATENCY: 64.414 cycles
L2C RQ	ACCESS:    2687240	FORWARD:          0	MERGED:          0	TO_CACHE:    2687231
L2C WQ	ACCESS:     453717	FORWARD:         13	MERGED:          0	TO_CACHE:     453717
L2C PQ	ACCESS:     108134	FORWARD:          0	MERGED:          1	TO_CACHE:     108129

L2C Instructions Evicting Data 168441
L2C Translations Evicting Data 3590
L2C Data Evicting Data 247968
L2C Instructions Evicting Instructions 107260
L2C Translations Evicting Instructions 2390
L2C Data Evicting Instructions 162314
L2C Instructions Evicting Translations 2244
L2C Translations Evicting Translations 103
L2C Data Evicting Translations 3602
L2C Dense regions hint from L2: 0
PSCL5 TOTAL     ACCESS:      32849  HIT:      32849  MISS:          0  HIT %:        100  MISS %:          0   MPKI: 0
PSCL5 LOAD TRANSLATION ACCESS:      32849  HIT:      32849  MISS:          0  HIT %:        100  MISS %:          0   MPKI: 0
PSCL5 PREFETCH  REQUESTED:          0  ISSUED:          0  USEFUL:          0  USELESS:          0
PSCL5 USEFUL LOAD PREFETCHES:          0 PREFETCH ISSUED TO LOWER LEVEL:          0  ACCURACY: -nan
PSCL5 TIMELY PREFETCHES:          0 LATE PREFETCHES: 0 DROPPED PREFETCHES: 0
PSCL5 PREFETCHES SAME FILL-ORIGIN LEVEL: 0 DIFFERENT FILL-ORIGIN LEVEL: 0

PSCL4 TOTAL     ACCESS:      32849  HIT:      32849  MISS:          0  HIT %:        100  MISS %:          0   MPKI: 0
PSCL4 LOAD TRANSLATION ACCESS:      32849  HIT:      32849  MISS:          0  HIT %:        100  MISS %:          0   MPKI: 0
PSCL4 PREFETCH  REQUESTED:          0  ISSUED:          0  USEFUL:          0  USELESS:          0
PSCL4 USEFUL LOAD PREFETCHES:          0 PREFETCH ISSUED TO LOWER LEVEL:          0  ACCURACY: -nan
PSCL4 TIMELY PREFETCHES:          0 LATE PREFETCHES: 0 DROPPED PREFETCHES: 0
PSCL4 PREFETCHES SAME FILL-ORIGIN LEVEL: 0 DIFFERENT FILL-ORIGIN LEVEL: 0

PSCL3 TOTAL     ACCESS:      32739  HIT:      32699  MISS:         40  HIT %:    99.8778  MISS %:   0.122178   MPKI: 0.0002
PSCL3 LOAD TRANSLATION ACCESS:      32739  HIT:      32699  MISS:         40  HIT %:    99.8778  MISS %:   0.122178   MPKI: 0.0002
PSCL3 PREFETCH  REQUESTED:          0  ISSUED:          0  USEFUL:          0  USELESS:          0
PSCL3 USEFUL LOAD PREFETCHES:          0 PREFETCH ISSUED TO LOWER LEVEL:          0  ACCURACY: -nan
PSCL3 TIMELY PREFETCHES:          0 LATE PREFETCHES: 0 DROPPED PREFETCHES: 0
PSCL3 PREFETCHES SAME FILL-ORIGIN LEVEL: 0 DIFFERENT FILL-ORIGIN LEVEL: 0

PSCL2 TOTAL     ACCESS:      32849  HIT:      32040  MISS:        809  HIT %:    97.5372  MISS %:    2.46278   MPKI: 0.004045
PSCL2 LOAD TRANSLATION ACCESS:      32849  HIT:      32040  MISS:        809  HIT %:    97.5372  MISS %:    2.46278   MPKI: 0.004045
PSCL2 PREFETCH  REQUESTED:          0  ISSUED:          0  USEFUL:          0  USELESS:          0
PSCL2 USEFUL LOAD PREFETCHES:          0 PREFETCH ISSUED TO LOWER LEVEL:          0  ACCURACY: -nan
PSCL2 TIMELY PREFETCHES:          0 LATE PREFETCHES: 0 DROPPED PREFETCHES: 0
PSCL2 PREFETCHES SAME FILL-ORIGIN LEVEL: 0 DIFFERENT FILL-ORIGIN LEVEL: 0

LLC TOTAL     ACCESS:     952556  HIT:     761016  MISS:     191540  HIT %:     79.892  MISS %:     20.108   MPKI: 0.9577
LLC LOAD      ACCESS:     426974  HIT:     378465  MISS:      48509  HIT %:    88.6389  MISS %:    11.3611   MPKI: 0.242545
LLC RFO       ACCESS:     228622  HIT:     106224  MISS:     122398  HIT %:    46.4627  MISS %:    53.5373   MPKI: 0.61199
LLC PREFETCH  ACCESS:      36232  HIT:      18492  MISS:      17740  HIT %:    51.0378  MISS %:    48.9622   MPKI: 0.0887
AGUS PREFETCH L1 MISS: 0
LLC WRITEBACK ACCESS:     254645  HIT:     252695  MISS:       1950  HIT %:    99.2342  MISS %:   0.765772   MPKI: 0.00975
LLC LOAD TRANSLATION ACCESS:       6083  HIT:       5140  MISS:        943  HIT %:    84.4978  MISS %:    15.5022   MPKI: 0.004715
LLC PREFETCH  REQUESTED:          0  ISSUED:          0  USEFUL:        946  USELESS:      16572
LLC USEFUL LOAD PREFETCHES:        946 PREFETCH ISSUED TO LOWER LEVEL:      17740  ACCURACY: 5.33258
LLC TIMELY PREFETCHES:        946 LATE PREFETCHES: 0 DROPPED PREFETCHES: 0
LLC PREFETCHES SAME FILL-ORIGIN LEVEL: 0 DIFFERENT FILL-ORIGIN LEVEL: 0
LLC AVERAGE MISS LATENCY: 130.71 cycles
LLC RQ	ACCESS:     661679	FORWARD:          0	MERGED:          0	TO_CACHE:     661679
LLC WQ	ACCESS:     254645	FORWARD:          1	MERGED:          0	TO_CACHE:     254645
LLC PQ	ACCESS:      36233	FORWARD:          0	MERGED:          0	TO_CACHE:      36232

LLC Dense regions hint to LLC: 0

RAW hits: 4828707
Loads Generated: 50473486
Loads sent to L1D: 45644782
Stores Generated: 26301595
Stores sent to L1D: 26301615
Major fault: 0 Minor fault: 3152
Allocated PAGES: 3152
CPU 0 L1D PC-based stride prefetcher final stats
Degree: 3

DRAM Statistics
 CHANNEL 0
 RQ ROW_BUFFER_HIT:      87566  ROW_BUFFER_MISS:     102024
 DBUS_CONGESTED:        197
 WQ ROW_BUFFER_HIT:      22205  ROW_BUFFER_MISS:     106718  FULL:          0

 AVG_CONGESTED_CYCLE: 5
 All warmup complete: 2
Channel 0 Bank busy for read cycles: 0
Channel 0 Bank busy for write cycles: 0
Channel 0
Rank 0
0banks busy for read cycles: 291589894
0banks busy for write cycles: 52216
1banks busy for read cycles: 10545478
1banks busy for write cycles: 7314617
2banks busy for read cycles: 1063414
2banks busy for write cycles: 1209756
3banks busy for read cycles: 455668
3banks busy for write cycles: 406944
4banks busy for read cycles: 208175
4banks busy for write cycles: 222539
5banks busy for read cycles: 77577
5banks busy for write cycles: 128243
6banks busy for read cycles: 94585
6banks busy for write cycles: 116665
7banks busy for read cycles: 138254
7banks busy for write cycles: 174351
8banks busy for read cycles: 362415
8banks busy for write cycles: 600733

CPU 0 Branch Prediction Accuracy: 99.6381% MPKI: 0.661605 Average ROB Occupancy at Mispredict: 23.0973
Branch types
NOT_BRANCH: 163436879 81.7184%
BRANCH_DIRECT_JUMP: 1998705 0.999352%
BRANCH_INDIRECT: 8495012 4.24751%
BRANCH_CONDITIONAL: 17691516 8.84576%
BRANCH_DIRECT_CALL: 3711340 1.85567%
BRANCH_INDIRECT_CALL: 476971 0.238485%
BRANCH_RETURN: 4189224 2.09461%
BRANCH_OTHER: 0 0%

DRAM PAGES: 1048576
Allocated PAGES: 3152
