
*** ChampSim Multicore Out-of-Order Simulator ***

Warmup Instructions: 50000000
Simulation Instructions: 200000000
Number of CPUs: 1
LLC sets: 2048
LLC ways: 16
Off-chip DRAM Size: 4096 MB Channels: 1 Width: 64-bit Data Rate: 6400 MT/s
CPU 0 runs traces/spec2k17/server_016.champsimtrace.xz
.xz
BTB has LRU replacement policy
ITLB has LRU replacement policy
DTLB has LRU replacement policy
STLB has LRU replacement policy
L1I has LRU replacement policy
CPU 0 L1D IP-based stride prefetcher
L1D has LRU replacement policy
Initialize SRRIP state for L2C
Initialize DRRIP state for LLC
Heartbeat CPU 0 instructions: 10000000 cycles: 2810524 heartbeat IPC: 3.55806 cumulative IPC: 3.55806 (Simulation time: 0 hr 0 min 36 sec) 
Heartbeat CPU 0 instructions: 20000001 cycles: 5615144 heartbeat IPC: 3.56555 cumulative IPC: 3.5618 (Simulation time: 0 hr 1 min 14 sec) 
Heartbeat CPU 0 instructions: 30000000 cycles: 8417937 heartbeat IPC: 3.56787 cumulative IPC: 3.56382 (Simulation time: 0 hr 1 min 56 sec) 
Heartbeat CPU 0 instructions: 40000000 cycles: 11522035 heartbeat IPC: 3.22155 cumulative IPC: 3.47161 (Simulation time: 0 hr 2 min 23 sec) 
Heartbeat CPU 0 instructions: 50000001 cycles: 14788509 heartbeat IPC: 3.06141 cumulative IPC: 3.381 (Simulation time: 0 hr 2 min 37 sec) 

Warmup complete CPU 0 instructions: 50000001 cycles: 14788509 (Simulation time: 0 hr 2 min 37 sec) 

Heartbeat CPU 0 instructions: 60000001 cycles: 29226540 heartbeat IPC: 0.692615 cumulative IPC: 0.692615 (Simulation time: 0 hr 3 min 20 sec) 
Heartbeat CPU 0 instructions: 70000001 cycles: 58855157 heartbeat IPC: 0.337512 cumulative IPC: 0.453858 (Simulation time: 0 hr 4 min 11 sec) 
Heartbeat CPU 0 instructions: 80000000 cycles: 89425101 heartbeat IPC: 0.327119 cumulative IPC: 0.401948 (Simulation time: 0 hr 5 min 3 sec) 
Heartbeat CPU 0 instructions: 90000000 cycles: 118954551 heartbeat IPC: 0.338645 cumulative IPC: 0.384002 (Simulation time: 0 hr 6 min 2 sec) 
Heartbeat CPU 0 instructions: 100000000 cycles: 148998917 heartbeat IPC: 0.332841 cumulative IPC: 0.372549 (Simulation time: 0 hr 7 min 0 sec) 
*** Reached end of trace for Core: 0 Repeating trace: traces/spec2k17/server_016.champsimtrace.xz
Heartbeat CPU 0 instructions: 110000000 cycles: 178396739 heartbeat IPC: 0.340161 cumulative IPC: 0.36673 (Simulation time: 0 hr 7 min 57 sec) 
Heartbeat CPU 0 instructions: 120000003 cycles: 208436172 heartbeat IPC: 0.332896 cumulative IPC: 0.361481 (Simulation time: 0 hr 8 min 52 sec) 
Heartbeat CPU 0 instructions: 130000000 cycles: 238161752 heartbeat IPC: 0.33641 cumulative IPC: 0.358145 (Simulation time: 0 hr 9 min 58 sec) 
Heartbeat CPU 0 instructions: 140000000 cycles: 262440814 heartbeat IPC: 0.411878 cumulative IPC: 0.363413 (Simulation time: 0 hr 10 min 49 sec) 
Heartbeat CPU 0 instructions: 150000003 cycles: 276877970 heartbeat IPC: 0.692657 cumulative IPC: 0.381549 (Simulation time: 0 hr 11 min 22 sec) 
Heartbeat CPU 0 instructions: 160000001 cycles: 291315216 heartbeat IPC: 0.692653 cumulative IPC: 0.397792 (Simulation time: 0 hr 12 min 2 sec) 
Heartbeat CPU 0 instructions: 170000000 cycles: 316356679 heartbeat IPC: 0.399338 cumulative IPC: 0.39792 (Simulation time: 0 hr 12 min 57 sec) 
Heartbeat CPU 0 instructions: 180000003 cycles: 346655542 heartbeat IPC: 0.330045 cumulative IPC: 0.391723 (Simulation time: 0 hr 13 min 59 sec) 
Heartbeat CPU 0 instructions: 190000000 cycles: 376789312 heartbeat IPC: 0.331854 cumulative IPC: 0.386739 (Simulation time: 0 hr 14 min 53 sec) 
Heartbeat CPU 0 instructions: 200000000 cycles: 406132264 heartbeat IPC: 0.340797 cumulative IPC: 0.383295 (Simulation time: 0 hr 15 min 47 sec) 
*** Reached end of trace for Core: 0 Repeating trace: traces/spec2k17/server_016.champsimtrace.xz
Heartbeat CPU 0 instructions: 210000000 cycles: 435887510 heartbeat IPC: 0.336075 cumulative IPC: 0.379958 (Simulation time: 0 hr 16 min 47 sec) 
Heartbeat CPU 0 instructions: 220000000 cycles: 465706223 heartbeat IPC: 0.33536 cumulative IPC: 0.377009 (Simulation time: 0 hr 17 min 34 sec) 
Heartbeat CPU 0 instructions: 230000000 cycles: 495333827 heartbeat IPC: 0.337523 cumulative IPC: 0.374574 (Simulation time: 0 hr 18 min 31 sec) 
Heartbeat CPU 0 instructions: 240000000 cycles: 524111902 heartbeat IPC: 0.347487 cumulative IPC: 0.373044 (Simulation time: 0 hr 19 min 28 sec) 
Heartbeat CPU 0 instructions: 250000003 cycles: 538583253 heartbeat IPC: 0.691021 cumulative IPC: 0.381829 (Simulation time: 0 hr 20 min 11 sec) 
Finished CPU 0 instructions: 200000002 cycles: 523794744 cumulative IPC: 0.381829 (Simulation time: 0 hr 20 min 11 sec) 

ChampSim completed all CPUs

Region of Interest Statistics

CPU 0 cumulative IPC: 0.381829 instructions: 200000002 cycles: 523794744
ITLB TOTAL     ACCESS:   37651550  HIT:   36241342  MISS:    1410208  HIT %:    96.2546  MISS %:    3.74542   MPKI: 7.05104
ITLB LOAD TRANSLATION ACCESS:   37651550  HIT:   36241342  MISS:    1410208  HIT %:    96.2546  MISS %:    3.74542   MPKI: 7.05104
ITLB PREFETCH  REQUESTED:          0  ISSUED:          0  USEFUL:          0  USELESS:          0
ITLB USEFUL LOAD PREFETCHES:          0 PREFETCH ISSUED TO LOWER LEVEL:          0  ACCURACY: -nan
ITLB TIMELY PREFETCHES:          0 LATE PREFETCHES: 0 DROPPED PREFETCHES: 0
ITLB PREFETCHES SAME FILL-ORIGIN LEVEL: 0 DIFFERENT FILL-ORIGIN LEVEL: 0
ITLB AVERAGE MISS LATENCY: 9.05415 cycles
ITLB RQ	ACCESS:   42292201	FORWARD:          0	MERGED:    4300824	TO_CACHE:   37991377

DTLB TOTAL     ACCESS:   39326119  HIT:   37955260  MISS:    1370859  HIT %:    96.5141  MISS %:    3.48587   MPKI: 6.85429
DTLB LOAD TRANSLATION ACCESS:   39326119  HIT:   37955260  MISS:    1370859  HIT %:    96.5141  MISS %:    3.48587   MPKI: 6.85429
DTLB PREFETCH  REQUESTED:          0  ISSUED:          0  USEFUL:          0  USELESS:          0
DTLB USEFUL LOAD PREFETCHES:          0 PREFETCH ISSUED TO LOWER LEVEL:          0  ACCURACY: -nan
DTLB TIMELY PREFETCHES:          0 LATE PREFETCHES: 0 DROPPED PREFETCHES: 0
DTLB PREFETCHES SAME FILL-ORIGIN LEVEL: 0 DIFFERENT FILL-ORIGIN LEVEL: 0
DTLB AVERAGE MISS LATENCY: 9.29783 cycles
DTLB RQ	ACCESS:   50763102	FORWARD:          0	MERGED:   11385028	TO_CACHE:   39378074

STLB TOTAL     ACCESS:    5657769  HIT:    5650000  MISS:       7769  HIT %:    99.8627  MISS %:   0.137316   MPKI: 0.038845
STLB LOAD TRANSLATION ACCESS:    2781067  HIT:    2773298  MISS:       7769  HIT %:    99.7206  MISS %:   0.279353   MPKI: 0.038845
STLB TRANSLATION FROM L1D PREFETCHER ACCESS:    2876702  HIT:    2876702  MISS:          0  HIT %:        100  MISS %:          0   MPKI: 0
STLB PREFETCH  REQUESTED:          0  ISSUED:          0  USEFUL:          0  USELESS:          0
STLB USEFUL LOAD PREFETCHES:          0 PREFETCH ISSUED TO LOWER LEVEL:          0  ACCURACY: -nan
STLB TIMELY PREFETCHES:          0 LATE PREFETCHES: 0 DROPPED PREFETCHES: 0
STLB PREFETCHES SAME FILL-ORIGIN LEVEL: 0 DIFFERENT FILL-ORIGIN LEVEL: 0
STLB AVERAGE MISS LATENCY: 60.0263 cycles
STLB RQ	ACCESS:   11257136	FORWARD:          0	MERGED:    5599366	TO_CACHE:    5657770

STLB Hit, L1D data hit: 0
STLB Hit, L2C data hit: 0
STLB Hit, LLC data hit: 0
STLB Hit, LLC data miss: 0
STLB STLB hints to L2: 0
L1D TOTAL     ACCESS:   57686270  HIT:   54646484  MISS:    3039786  HIT %:    94.7305  MISS %:    5.26951   MPKI: 15.1989
L1D LOAD      ACCESS:   29956944  HIT:   27918068  MISS:    2038876  HIT %:     93.194  MISS %:    6.80602   MPKI: 10.1944
L1D RFO       ACCESS:   19428505  HIT:   18600365  MISS:     828140  HIT %:    95.7375  MISS %:     4.2625   MPKI: 4.1407
L1D PREFETCH  ACCESS:    8300821  HIT:    8128051  MISS:     172770  HIT %:    97.9186  MISS %:    2.08136   MPKI: 0.86385
AGUS PREFETCH L1 MISS: 0
L1D PREFETCH  REQUESTED:   17318786  ISSUED:   17318786  USEFUL:     106692  USELESS:      66081
L1D USEFUL LOAD PREFETCHES:     106692 PREFETCH ISSUED TO LOWER LEVEL:     266566  ACCURACY: 40.0246
L1D TIMELY PREFETCHES:     106692 LATE PREFETCHES: 40767 DROPPED PREFETCHES: 0
L1D PREFETCHES SAME FILL-ORIGIN LEVEL: 213537 DIFFERENT FILL-ORIGIN LEVEL: 53029
L1D AVERAGE MISS LATENCY: 3.7723e+06 cycles
L1D RQ	ACCESS:   40500480	FORWARD:          0	MERGED:   10219194	TO_CACHE:   30035564
L1D WQ	ACCESS:   20857481	FORWARD:     245722	MERGED:     129943	TO_CACHE:   20727538
L1D PQ	ACCESS:    8842717	FORWARD:          0	MERGED:     366648	TO_CACHE:    8476069

L1D UNIQUE REGIONS ACCESSED: 0
L1D REGIONS CONFLICTS: 0
L1D Cross Page Prefetch Requests: 0
L1D Same Page Prefetch Requests: 11680470
L1D ROI Sum of L1D PQ occupancy: 113096199
L1D PREFETCHES PUSHED FROM L2C: 0
L1I TOTAL     ACCESS:   41215334  HIT:   33840122  MISS:    7375212  HIT %:    82.1057  MISS %:    17.8943   MPKI: 36.8761
L1I LOAD      ACCESS:   41215334  HIT:   33840122  MISS:    7375212  HIT %:    82.1057  MISS %:    17.8943   MPKI: 36.8761
L1I PREFETCH  REQUESTED:          0  ISSUED:          0  USEFUL:          0  USELESS:          0
L1I USEFUL LOAD PREFETCHES:          0 PREFETCH ISSUED TO LOWER LEVEL:          0  ACCURACY: -nan
L1I TIMELY PREFETCHES:          0 LATE PREFETCHES: 0 DROPPED PREFETCHES: 0
L1I PREFETCHES SAME FILL-ORIGIN LEVEL: 0 DIFFERENT FILL-ORIGIN LEVEL: 0
L1I AVERAGE MISS LATENCY: 16.4326 cycles
L1I RQ	ACCESS:   59992635	FORWARD:          0	MERGED:   17700434	TO_CACHE:   42292201

BTB TOTAL     ACCESS:   31149502  HIT:   22487623  MISS:    8661879  HIT %:    72.1926  MISS %:    27.8074   MPKI: 43.3094
BTB BRANCH_DIRECT_JUMP	ACCESS:    1790889  HIT:    1185918  MISS:     604971
BTB BRANCH_INDIRECT	ACCESS:    9233189  HIT:    5986023  MISS:    3247166
BTB BRANCH_CONDITIONAL	ACCESS:   13716226  HIT:   12843151  MISS:     873075
BTB BRANCH_DIRECT_CALL	ACCESS:    2729399  HIT:    1310065  MISS:    1419334
BTB BRANCH_INDIRECT_CALL	ACCESS:     475210  HIT:     188709  MISS:     286501
BTB BRANCH_RETURN	ACCESS:    3204589  HIT:     973757  MISS:    2230832
BTB BRANCH_OTHER ACCESS:          0  HIT:          0  MISS:          0

L2C TOTAL     ACCESS:   11844064  HIT:   10751318  MISS:    1092746  HIT %:    90.7739  MISS %:    9.22611   MPKI: 5.46373
L2C LOAD      ACCESS:    9373311  HIT:    8541044  MISS:     832267  HIT %:    91.1209  MISS %:    8.87911   MPKI: 4.16133
L2C DATA LOAD MPKI: 1.34933
L2C INSTRUCTION LOAD MPKI: 2.812
L2C RFO       ACCESS:     828137  HIT:     680616  MISS:     147521  HIT %:    82.1864  MISS %:    17.8136   MPKI: 0.737605
L2C PREFETCH  ACCESS:     238627  HIT:     167919  MISS:      70708  HIT %:    70.3688  MISS %:    29.6312   MPKI: 0.35354
AGUS PREFETCH L1 MISS: 0
L2C DATA PREFETCH MPKI: 0.35354
L2C INSTRUCTION PREFETCH MPKI: 0
L2C WRITEBACK ACCESS:    1395298  HIT:    1359184  MISS:      36114  HIT %:    97.4117  MISS %:    2.58826   MPKI: 0.18057
L2C LOAD TRANSLATION ACCESS:       8691  HIT:       2555  MISS:       6136  HIT %:    29.3982  MISS %:    70.6018   MPKI: 0.03068
L2C PREFETCH  REQUESTED:          0  ISSUED:          0  USEFUL:       8679  USELESS:      62919
L2C USEFUL LOAD PREFETCHES:       8679 PREFETCH ISSUED TO LOWER LEVEL:      80941  ACCURACY: 10.7226
L2C TIMELY PREFETCHES:       8679 LATE PREFETCHES: 10233 DROPPED PREFETCHES: 0
L2C PREFETCHES SAME FILL-ORIGIN LEVEL: 25034 DIFFERENT FILL-ORIGIN LEVEL: 0
L2C AVERAGE MISS LATENCY: 45.1201 cycles
L2C RQ	ACCESS:   10210152	FORWARD:          0	MERGED:          0	TO_CACHE:   10210139
L2C WQ	ACCESS:    1395298	FORWARD:         13	MERGED:          0	TO_CACHE:    1395298
L2C PQ	ACCESS:     266566	FORWARD:          0	MERGED:          3	TO_CACHE:     266563

L2C Instructions Evicting Data 237573
L2C Translations Evicting Data 4352
L2C Data Evicting Data 267600
L2C Instructions Evicting Instructions 323183
L2C Translations Evicting Instructions 1707
L2C Data Evicting Instructions 216137
L2C Instructions Evicting Translations 1645
L2C Translations Evicting Translations 77
L2C Data Evicting Translations 4358
L2C Dense regions hint from L2: 0
PSCL5 TOTAL     ACCESS:       7769  HIT:       7769  MISS:          0  HIT %:        100  MISS %:          0   MPKI: 0
PSCL5 LOAD TRANSLATION ACCESS:       7769  HIT:       7769  MISS:          0  HIT %:        100  MISS %:          0   MPKI: 0
PSCL5 PREFETCH  REQUESTED:          0  ISSUED:          0  USEFUL:          0  USELESS:          0
PSCL5 USEFUL LOAD PREFETCHES:          0 PREFETCH ISSUED TO LOWER LEVEL:          0  ACCURACY: -nan
PSCL5 TIMELY PREFETCHES:          0 LATE PREFETCHES: 0 DROPPED PREFETCHES: 0
PSCL5 PREFETCHES SAME FILL-ORIGIN LEVEL: 0 DIFFERENT FILL-ORIGIN LEVEL: 0

PSCL4 TOTAL     ACCESS:       7163  HIT:       7118  MISS:         45  HIT %:    99.3718  MISS %:   0.628228   MPKI: 0.000225
PSCL4 LOAD TRANSLATION ACCESS:       7163  HIT:       7118  MISS:         45  HIT %:    99.3718  MISS %:   0.628228   MPKI: 0.000225
PSCL4 PREFETCH  REQUESTED:          0  ISSUED:          0  USEFUL:          0  USELESS:          0
PSCL4 USEFUL LOAD PREFETCHES:          0 PREFETCH ISSUED TO LOWER LEVEL:          0  ACCURACY: -nan
PSCL4 TIMELY PREFETCHES:          0 LATE PREFETCHES: 0 DROPPED PREFETCHES: 0
PSCL4 PREFETCHES SAME FILL-ORIGIN LEVEL: 0 DIFFERENT FILL-ORIGIN LEVEL: 0

PSCL3 TOTAL     ACCESS:       7641  HIT:       7596  MISS:         45  HIT %:    99.4111  MISS %:   0.588928   MPKI: 0.000225
PSCL3 LOAD TRANSLATION ACCESS:       7641  HIT:       7596  MISS:         45  HIT %:    99.4111  MISS %:   0.588928   MPKI: 0.000225
PSCL3 PREFETCH  REQUESTED:          0  ISSUED:          0  USEFUL:          0  USELESS:          0
PSCL3 USEFUL LOAD PREFETCHES:          0 PREFETCH ISSUED TO LOWER LEVEL:          0  ACCURACY: -nan
PSCL3 TIMELY PREFETCHES:          0 LATE PREFETCHES: 0 DROPPED PREFETCHES: 0
PSCL3 PREFETCHES SAME FILL-ORIGIN LEVEL: 0 DIFFERENT FILL-ORIGIN LEVEL: 0

PSCL2 TOTAL     ACCESS:       7769  HIT:       6933  MISS:        836  HIT %:    89.2393  MISS %:    10.7607   MPKI: 0.00418
PSCL2 LOAD TRANSLATION ACCESS:       7769  HIT:       6933  MISS:        836  HIT %:    89.2393  MISS %:    10.7607   MPKI: 0.00418
PSCL2 PREFETCH  REQUESTED:          0  ISSUED:          0  USEFUL:          0  USELESS:          0
PSCL2 USEFUL LOAD PREFETCHES:          0 PREFETCH ISSUED TO LOWER LEVEL:          0  ACCURACY: -nan
PSCL2 TIMELY PREFETCHES:          0 LATE PREFETCHES: 0 DROPPED PREFETCHES: 0
PSCL2 PREFETCHES SAME FILL-ORIGIN LEVEL: 0 DIFFERENT FILL-ORIGIN LEVEL: 0

LLC TOTAL     ACCESS:    1260124  HIT:    1154288  MISS:     105836  HIT %:    91.6011  MISS %:    8.39886   MPKI: 0.52918
LLC LOAD      ACCESS:     822034  HIT:     798153  MISS:      23881  HIT %:    97.0949  MISS %:    2.90511   MPKI: 0.119405
LLC RFO       ACCESS:     147519  HIT:      94915  MISS:      52604  HIT %:    64.3409  MISS %:    35.6591   MPKI: 0.26302
LLC PREFETCH  ACCESS:      80941  HIT:      53009  MISS:      27932  HIT %:    65.4909  MISS %:    34.5091   MPKI: 0.13966
AGUS PREFETCH L1 MISS: 0
LLC WRITEBACK ACCESS:     203494  HIT:     202553  MISS:        941  HIT %:    99.5376  MISS %:   0.462421   MPKI: 0.004705
LLC LOAD TRANSLATION ACCESS:       6136  HIT:       5658  MISS:        478  HIT %:    92.2099  MISS %:    7.79009   MPKI: 0.00239
LLC PREFETCH  REQUESTED:          0  ISSUED:          0  USEFUL:       1622  USELESS:      27621
LLC USEFUL LOAD PREFETCHES:       1622 PREFETCH ISSUED TO LOWER LEVEL:      27932  ACCURACY: 5.80696
LLC TIMELY PREFETCHES:       1622 LATE PREFETCHES: 0 DROPPED PREFETCHES: 0
LLC PREFETCHES SAME FILL-ORIGIN LEVEL: 0 DIFFERENT FILL-ORIGIN LEVEL: 0
LLC AVERAGE MISS LATENCY: 170.198 cycles
LLC RQ	ACCESS:     975691	FORWARD:          0	MERGED:          0	TO_CACHE:     975689
LLC WQ	ACCESS:     203494	FORWARD:          2	MERGED:          0	TO_CACHE:     203494
LLC PQ	ACCESS:      80941	FORWARD:          0	MERGED:          0	TO_CACHE:      80941

LLC Dense regions hint to LLC: 0

RAW hits: 1232559
Loads Generated: 41733040
Loads sent to L1D: 40500480
Stores Generated: 20857481
Stores sent to L1D: 20857481
Major fault: 0 Minor fault: 2472
Allocated PAGES: 2472
CPU 0 L1D PC-based stride prefetcher final stats
Degree: 3

DRAM Statistics
 CHANNEL 0
 RQ ROW_BUFFER_HIT:      42920  ROW_BUFFER_MISS:      61966
 DBUS_CONGESTED:         64
 WQ ROW_BUFFER_HIT:       5081  ROW_BUFFER_MISS:      52486  FULL:          0

 AVG_CONGESTED_CYCLE: 4
 All warmup complete: 2
Channel 0 Bank busy for read cycles: 0
Channel 0 Bank busy for write cycles: 0
Channel 0
Rank 0
0banks busy for read cycles: 515867013
0banks busy for write cycles: 13437
1banks busy for read cycles: 2844836
1banks busy for write cycles: 1680654
2banks busy for read cycles: 450921
2banks busy for write cycles: 395507
3banks busy for read cycles: 329718
3banks busy for write cycles: 192726
4banks busy for read cycles: 179510
4banks busy for write cycles: 145155
5banks busy for read cycles: 137365
5banks busy for write cycles: 132391
6banks busy for read cycles: 134936
6banks busy for write cycles: 133268
7banks busy for read cycles: 171693
7banks busy for write cycles: 158068
8banks busy for read cycles: 417229
8banks busy for write cycles: 410318

CPU 0 Branch Prediction Accuracy: 99.773% MPKI: 0.39801 Average ROB Occupancy at Mispredict: 36.1762
Branch types
NOT_BRANCH: 164926668 82.4633%
BRANCH_DIRECT_JUMP: 1790889 0.895444%
BRANCH_INDIRECT: 9233189 4.61659%
BRANCH_CONDITIONAL: 17640059 8.82003%
BRANCH_DIRECT_CALL: 2729399 1.3647%
BRANCH_INDIRECT_CALL: 475210 0.237605%
BRANCH_RETURN: 3204589 1.60229%
BRANCH_OTHER: 0 0%

DRAM PAGES: 1048576
Allocated PAGES: 2472
