
*** ChampSim Multicore Out-of-Order Simulator ***

Warmup Instructions: 50000000
Simulation Instructions: 200000000
Number of CPUs: 1
LLC sets: 2048
LLC ways: 16
Off-chip DRAM Size: 4096 MB Channels: 1 Width: 64-bit Data Rate: 6400 MT/s
CPU 0 runs traces/spec2k17/server_038.champsimtrace.xz
.xz
BTB has LRU replacement policy
ITLB has LRU replacement policy
DTLB has LRU replacement policy
STLB has LRU replacement policy
L1I has LRU replacement policy
CPU 0 L1D IP-based stride prefetcher
L1D has LRU replacement policy
Initialize SRRIP state for L2C
Initialize DRRIP state for LLC
Heartbeat CPU 0 instructions: 10000000 cycles: 2787080 heartbeat IPC: 3.58798 cumulative IPC: 3.58798 (Simulation time: 0 hr 0 min 35 sec) 
Heartbeat CPU 0 instructions: 20000002 cycles: 5572105 heartbeat IPC: 3.59063 cumulative IPC: 3.58931 (Simulation time: 0 hr 1 min 13 sec) 
Heartbeat CPU 0 instructions: 30000003 cycles: 8355885 heartbeat IPC: 3.59224 cumulative IPC: 3.59028 (Simulation time: 0 hr 1 min 41 sec) 
Heartbeat CPU 0 instructions: 40000001 cycles: 11140130 heartbeat IPC: 3.59164 cumulative IPC: 3.59062 (Simulation time: 0 hr 2 min 12 sec) 
Heartbeat CPU 0 instructions: 50000001 cycles: 13924660 heartbeat IPC: 3.59127 cumulative IPC: 3.59075 (Simulation time: 0 hr 2 min 46 sec) 

Warmup complete CPU 0 instructions: 50000001 cycles: 13924660 (Simulation time: 0 hr 2 min 46 sec) 

Heartbeat CPU 0 instructions: 60000000 cycles: 34084286 heartbeat IPC: 0.496041 cumulative IPC: 0.496041 (Simulation time: 0 hr 3 min 36 sec) 
Heartbeat CPU 0 instructions: 70000000 cycles: 54057777 heartbeat IPC: 0.500664 cumulative IPC: 0.498342 (Simulation time: 0 hr 4 min 25 sec) 
Heartbeat CPU 0 instructions: 80000000 cycles: 74025955 heartbeat IPC: 0.500797 cumulative IPC: 0.499157 (Simulation time: 0 hr 5 min 17 sec) 
Heartbeat CPU 0 instructions: 90000001 cycles: 94019581 heartbeat IPC: 0.500159 cumulative IPC: 0.499407 (Simulation time: 0 hr 6 min 11 sec) 
Heartbeat CPU 0 instructions: 100000002 cycles: 114007543 heartbeat IPC: 0.500301 cumulative IPC: 0.499586 (Simulation time: 0 hr 7 min 1 sec) 
*** Reached end of trace for Core: 0 Repeating trace: traces/spec2k17/server_038.champsimtrace.xz
Heartbeat CPU 0 instructions: 110000000 cycles: 134107607 heartbeat IPC: 0.497511 cumulative IPC: 0.499239 (Simulation time: 0 hr 7 min 50 sec) 
Heartbeat CPU 0 instructions: 120000003 cycles: 154149277 heartbeat IPC: 0.498961 cumulative IPC: 0.499199 (Simulation time: 0 hr 8 min 42 sec) 
Heartbeat CPU 0 instructions: 130000001 cycles: 174123285 heartbeat IPC: 0.500651 cumulative IPC: 0.49938 (Simulation time: 0 hr 9 min 34 sec) 
Heartbeat CPU 0 instructions: 140000001 cycles: 194103676 heartbeat IPC: 0.500491 cumulative IPC: 0.499503 (Simulation time: 0 hr 10 min 30 sec) 
Heartbeat CPU 0 instructions: 150000002 cycles: 214083664 heartbeat IPC: 0.500501 cumulative IPC: 0.499603 (Simulation time: 0 hr 11 min 22 sec) 
Heartbeat CPU 0 instructions: 160000000 cycles: 234113526 heartbeat IPC: 0.499254 cumulative IPC: 0.499571 (Simulation time: 0 hr 12 min 3 sec) 
Heartbeat CPU 0 instructions: 170000002 cycles: 254045694 heartbeat IPC: 0.501702 cumulative IPC: 0.499748 (Simulation time: 0 hr 12 min 55 sec) 
Heartbeat CPU 0 instructions: 180000000 cycles: 273962886 heartbeat IPC: 0.502079 cumulative IPC: 0.499927 (Simulation time: 0 hr 13 min 46 sec) 
Heartbeat CPU 0 instructions: 190000002 cycles: 293889716 heartbeat IPC: 0.501836 cumulative IPC: 0.500062 (Simulation time: 0 hr 14 min 38 sec) 
Heartbeat CPU 0 instructions: 200000001 cycles: 313822598 heartbeat IPC: 0.501684 cumulative IPC: 0.50017 (Simulation time: 0 hr 15 min 23 sec) 
*** Reached end of trace for Core: 0 Repeating trace: traces/spec2k17/server_038.champsimtrace.xz
Heartbeat CPU 0 instructions: 210000003 cycles: 333878146 heartbeat IPC: 0.498615 cumulative IPC: 0.500073 (Simulation time: 0 hr 16 min 16 sec) 
Heartbeat CPU 0 instructions: 220000000 cycles: 353923696 heartbeat IPC: 0.498864 cumulative IPC: 0.500001 (Simulation time: 0 hr 17 min 8 sec) 
Heartbeat CPU 0 instructions: 230000003 cycles: 373860225 heartbeat IPC: 0.501592 cumulative IPC: 0.50009 (Simulation time: 0 hr 17 min 59 sec) 
Heartbeat CPU 0 instructions: 240000001 cycles: 393868784 heartbeat IPC: 0.499786 cumulative IPC: 0.500074 (Simulation time: 0 hr 18 min 50 sec) 
Heartbeat CPU 0 instructions: 250000001 cycles: 413852417 heartbeat IPC: 0.500409 cumulative IPC: 0.50009 (Simulation time: 0 hr 19 min 41 sec) 
Finished CPU 0 instructions: 200000000 cycles: 399927757 cumulative IPC: 0.50009 (Simulation time: 0 hr 19 min 41 sec) 

ChampSim completed all CPUs

Region of Interest Statistics

CPU 0 cumulative IPC: 0.50009 instructions: 200000000 cycles: 399927757
ITLB TOTAL     ACCESS:   35174316  HIT:   32681605  MISS:    2492711  HIT %:    92.9133  MISS %:    7.08674   MPKI: 12.4636
ITLB LOAD TRANSLATION ACCESS:   35174316  HIT:   32681605  MISS:    2492711  HIT %:    92.9133  MISS %:    7.08674   MPKI: 12.4636
ITLB PREFETCH  REQUESTED:          0  ISSUED:          0  USEFUL:          0  USELESS:          0
ITLB USEFUL LOAD PREFETCHES:          0 PREFETCH ISSUED TO LOWER LEVEL:          0  ACCURACY: -nan
ITLB TIMELY PREFETCHES:          0 LATE PREFETCHES: 0 DROPPED PREFETCHES: 0
ITLB PREFETCHES SAME FILL-ORIGIN LEVEL: 0 DIFFERENT FILL-ORIGIN LEVEL: 0
ITLB AVERAGE MISS LATENCY: 9.01473 cycles
ITLB RQ	ACCESS:   41437030	FORWARD:          0	MERGED:    5451550	TO_CACHE:   35985480

DTLB TOTAL     ACCESS:   40143500  HIT:   38147270  MISS:    1996230  HIT %:    95.0273  MISS %:    4.97274   MPKI: 9.98115
DTLB LOAD TRANSLATION ACCESS:   40143500  HIT:   38147270  MISS:    1996230  HIT %:    95.0273  MISS %:    4.97274   MPKI: 9.98115
DTLB PREFETCH  REQUESTED:          0  ISSUED:          0  USEFUL:          0  USELESS:          0
DTLB USEFUL LOAD PREFETCHES:          0 PREFETCH ISSUED TO LOWER LEVEL:          0  ACCURACY: -nan
DTLB TIMELY PREFETCHES:          0 LATE PREFETCHES: 0 DROPPED PREFETCHES: 0
DTLB PREFETCHES SAME FILL-ORIGIN LEVEL: 0 DIFFERENT FILL-ORIGIN LEVEL: 0
DTLB AVERAGE MISS LATENCY: 9.64391 cycles
DTLB RQ	ACCESS:   55971789	FORWARD:          0	MERGED:   15675166	TO_CACHE:   40296623

STLB TOTAL     ACCESS:    4510483  HIT:    4487674  MISS:      22809  HIT %:    99.4943  MISS %:   0.505689   MPKI: 0.114045
STLB LOAD TRANSLATION ACCESS:    4488941  HIT:    4466132  MISS:      22809  HIT %:    99.4919  MISS %:   0.508115   MPKI: 0.114045
STLB TRANSLATION FROM L1D PREFETCHER ACCESS:      21542  HIT:      21542  MISS:          0  HIT %:        100  MISS %:          0   MPKI: 0
STLB PREFETCH  REQUESTED:          0  ISSUED:          0  USEFUL:          0  USELESS:          0
STLB USEFUL LOAD PREFETCHES:          0 PREFETCH ISSUED TO LOWER LEVEL:          0  ACCURACY: -nan
STLB TIMELY PREFETCHES:          0 LATE PREFETCHES: 0 DROPPED PREFETCHES: 0
STLB PREFETCHES SAME FILL-ORIGIN LEVEL: 0 DIFFERENT FILL-ORIGIN LEVEL: 0
STLB AVERAGE MISS LATENCY: 57.0306 cycles
STLB RQ	ACCESS:    4551807	FORWARD:          0	MERGED:      41324	TO_CACHE:    4510483

STLB Hit, L1D data hit: 0
STLB Hit, L2C data hit: 0
STLB Hit, LLC data hit: 0
STLB Hit, LLC data miss: 0
STLB STLB hints to L2: 0
L1D TOTAL     ACCESS:   55617361  HIT:   53926599  MISS:    1690762  HIT %:      96.96  MISS %:    3.03999   MPKI: 8.45381
L1D LOAD      ACCESS:   31355293  HIT:   29920091  MISS:    1435202  HIT %:    95.4228  MISS %:    4.57722   MPKI: 7.17601
L1D RFO       ACCESS:   24205768  HIT:   23950507  MISS:     255261  HIT %:    98.9455  MISS %:    1.05455   MPKI: 1.27631
L1D PREFETCH  ACCESS:      56300  HIT:      56001  MISS:        299  HIT %:    99.4689  MISS %:   0.531083   MPKI: 0.001495
AGUS PREFETCH L1 MISS: 0
L1D PREFETCH  REQUESTED:     145998  ISSUED:     145998  USEFUL:         68  USELESS:        231
L1D USEFUL LOAD PREFETCHES:         68 PREFETCH ISSUED TO LOWER LEVEL:       3108  ACCURACY: 2.1879
L1D TIMELY PREFETCHES:         68 LATE PREFETCHES: 258 DROPPED PREFETCHES: 0
L1D PREFETCHES SAME FILL-ORIGIN LEVEL: 557 DIFFERENT FILL-ORIGIN LEVEL: 2551
L1D AVERAGE MISS LATENCY: 35724.6 cycles
L1D RQ	ACCESS:   46004982	FORWARD:          0	MERGED:   14290634	TO_CACHE:   31463764
L1D WQ	ACCESS:   24697059	FORWARD:     250584	MERGED:     189034	TO_CACHE:   24508025
L1D PQ	ACCESS:      83132	FORWARD:          0	MERGED:      20266	TO_CACHE:      62866

L1D UNIQUE REGIONS ACCESSED: 0
L1D REGIONS CONFLICTS: 0
L1D Cross Page Prefetch Requests: 0
L1D Same Page Prefetch Requests: 101459
L1D ROI Sum of L1D PQ occupancy: 922943
L1D PREFETCHES PUSHED FROM L2C: 0
L1I TOTAL     ACCESS:   37494572  HIT:   22056080  MISS:   15438492  HIT %:    58.8247  MISS %:    41.1753   MPKI: 77.1925
L1I LOAD      ACCESS:   37494572  HIT:   22056080  MISS:   15438492  HIT %:    58.8247  MISS %:    41.1753   MPKI: 77.1925
L1I PREFETCH  REQUESTED:          0  ISSUED:          0  USEFUL:          0  USELESS:          0
L1I USEFUL LOAD PREFETCHES:          0 PREFETCH ISSUED TO LOWER LEVEL:          0  ACCURACY: -nan
L1I TIMELY PREFETCHES:          0 LATE PREFETCHES: 0 DROPPED PREFETCHES: 0
L1I PREFETCHES SAME FILL-ORIGIN LEVEL: 0 DIFFERENT FILL-ORIGIN LEVEL: 0
L1I AVERAGE MISS LATENCY: 14.1231 cycles
L1I RQ	ACCESS:   62467825	FORWARD:          0	MERGED:   21030795	TO_CACHE:   41437030

BTB TOTAL     ACCESS:   28064303  HIT:   24482602  MISS:    3581701  HIT %:    87.2375  MISS %:    12.7625   MPKI: 17.9085
BTB BRANCH_DIRECT_JUMP	ACCESS:    2068715  HIT:    1958904  MISS:     109811
BTB BRANCH_INDIRECT	ACCESS:   12589489  HIT:   11340070  MISS:    1249419
BTB BRANCH_CONDITIONAL	ACCESS:    3946651  HIT:    3830860  MISS:     115791
BTB BRANCH_DIRECT_CALL	ACCESS:    3834255  HIT:    3580644  MISS:     253611
BTB BRANCH_INDIRECT_CALL	ACCESS:     895479  HIT:     719752  MISS:     175727
BTB BRANCH_RETURN	ACCESS:    4729714  HIT:    3052372  MISS:    1677342
BTB BRANCH_OTHER ACCESS:          0  HIT:          0  MISS:          0

L2C TOTAL     ACCESS:   18056940  HIT:   17509313  MISS:     547627  HIT %:    96.9672  MISS %:    3.03278   MPKI: 2.73814
L2C LOAD      ACCESS:   16873373  HIT:   16456524  MISS:     416849  HIT %:    97.5295  MISS %:    2.47045   MPKI: 2.08425
L2C DATA LOAD MPKI: 1.97866
L2C INSTRUCTION LOAD MPKI: 0.105585
L2C RFO       ACCESS:     255261  HIT:     158874  MISS:      96387  HIT %:    62.2398  MISS %:    37.7602   MPKI: 0.481935
L2C PREFETCH  ACCESS:       1367  HIT:        144  MISS:       1223  HIT %:     10.534  MISS %:     89.466   MPKI: 0.006115
AGUS PREFETCH L1 MISS: 0
L2C DATA PREFETCH MPKI: 0.006115
L2C INSTRUCTION PREFETCH MPKI: 0
L2C WRITEBACK ACCESS:     895465  HIT:     881029  MISS:      14436  HIT %:    98.3879  MISS %:    1.61212   MPKI: 0.07218
L2C LOAD TRANSLATION ACCESS:      31474  HIT:      12742  MISS:      18732  HIT %:    40.4842  MISS %:    59.5158   MPKI: 0.09366
L2C PREFETCH  REQUESTED:          0  ISSUED:          0  USEFUL:        636  USELESS:        703
L2C USEFUL LOAD PREFETCHES:        636 PREFETCH ISSUED TO LOWER LEVEL:       2581  ACCURACY: 24.6416
L2C TIMELY PREFETCHES:        636 LATE PREFETCHES: 1358 DROPPED PREFETCHES: 0
L2C PREFETCHES SAME FILL-ORIGIN LEVEL: 2135 DIFFERENT FILL-ORIGIN LEVEL: 0
L2C AVERAGE MISS LATENCY: 51.0862 cycles
L2C RQ	ACCESS:   17160171	FORWARD:          0	MERGED:          0	TO_CACHE:   17160108
L2C WQ	ACCESS:     895465	FORWARD:         63	MERGED:          0	TO_CACHE:     895465
L2C PQ	ACCESS:       3108	FORWARD:          0	MERGED:          1	TO_CACHE:       3107

L2C Instructions Evicting Data 18985
L2C Translations Evicting Data 17210
L2C Data Evicting Data 458127
L2C Instructions Evicting Instructions 1296
L2C Translations Evicting Instructions 825
L2C Data Evicting Instructions 18269
L2C Instructions Evicting Translations 836
L2C Translations Evicting Translations 697
L2C Data Evicting Translations 16946
L2C Dense regions hint from L2: 0
PSCL5 TOTAL     ACCESS:      22809  HIT:      22809  MISS:          0  HIT %:        100  MISS %:          0   MPKI: 0
PSCL5 LOAD TRANSLATION ACCESS:      22809  HIT:      22809  MISS:          0  HIT %:        100  MISS %:          0   MPKI: 0
PSCL5 PREFETCH  REQUESTED:          0  ISSUED:          0  USEFUL:          0  USELESS:          0
PSCL5 USEFUL LOAD PREFETCHES:          0 PREFETCH ISSUED TO LOWER LEVEL:          0  ACCURACY: -nan
PSCL5 TIMELY PREFETCHES:          0 LATE PREFETCHES: 0 DROPPED PREFETCHES: 0
PSCL5 PREFETCHES SAME FILL-ORIGIN LEVEL: 0 DIFFERENT FILL-ORIGIN LEVEL: 0

PSCL4 TOTAL     ACCESS:      22207  HIT:      22197  MISS:         10  HIT %:     99.955  MISS %:  0.0450308   MPKI: 5e-05
PSCL4 LOAD TRANSLATION ACCESS:      22207  HIT:      22197  MISS:         10  HIT %:     99.955  MISS %:  0.0450308   MPKI: 5e-05
PSCL4 PREFETCH  REQUESTED:          0  ISSUED:          0  USEFUL:          0  USELESS:          0
PSCL4 USEFUL LOAD PREFETCHES:          0 PREFETCH ISSUED TO LOWER LEVEL:          0  ACCURACY: -nan
PSCL4 TIMELY PREFETCHES:          0 LATE PREFETCHES: 0 DROPPED PREFETCHES: 0
PSCL4 PREFETCHES SAME FILL-ORIGIN LEVEL: 0 DIFFERENT FILL-ORIGIN LEVEL: 0

PSCL3 TOTAL     ACCESS:      22744  HIT:      22675  MISS:         69  HIT %:    99.6966  MISS %:   0.303377   MPKI: 0.000345
PSCL3 LOAD TRANSLATION ACCESS:      22744  HIT:      22675  MISS:         69  HIT %:    99.6966  MISS %:   0.303377   MPKI: 0.000345
PSCL3 PREFETCH  REQUESTED:          0  ISSUED:          0  USEFUL:          0  USELESS:          0
PSCL3 USEFUL LOAD PREFETCHES:          0 PREFETCH ISSUED TO LOWER LEVEL:          0  ACCURACY: -nan
PSCL3 TIMELY PREFETCHES:          0 LATE PREFETCHES: 0 DROPPED PREFETCHES: 0
PSCL3 PREFETCHES SAME FILL-ORIGIN LEVEL: 0 DIFFERENT FILL-ORIGIN LEVEL: 0

PSCL2 TOTAL     ACCESS:      22809  HIT:      14200  MISS:       8609  HIT %:    62.2561  MISS %:    37.7439   MPKI: 0.043045
PSCL2 LOAD TRANSLATION ACCESS:      22809  HIT:      14200  MISS:       8609  HIT %:    62.2561  MISS %:    37.7439   MPKI: 0.043045
PSCL2 PREFETCH  REQUESTED:          0  ISSUED:          0  USEFUL:          0  USELESS:          0
PSCL2 USEFUL LOAD PREFETCHES:          0 PREFETCH ISSUED TO LOWER LEVEL:          0  ACCURACY: -nan
PSCL2 TIMELY PREFETCHES:          0 LATE PREFETCHES: 0 DROPPED PREFETCHES: 0
PSCL2 PREFETCHES SAME FILL-ORIGIN LEVEL: 0 DIFFERENT FILL-ORIGIN LEVEL: 0

LLC TOTAL     ACCESS:     792818  HIT:     715659  MISS:      77159  HIT %:    90.2678  MISS %:    9.73225   MPKI: 0.385795
LLC LOAD      ACCESS:     415490  HIT:     360431  MISS:      55059  HIT %:    86.7484  MISS %:    13.2516   MPKI: 0.275295
LLC RFO       ACCESS:      96383  HIT:      77505  MISS:      18878  HIT %:    80.4136  MISS %:    19.5864   MPKI: 0.09439
LLC PREFETCH  ACCESS:       2581  HIT:        305  MISS:       2276  HIT %:    11.8171  MISS %:    88.1829   MPKI: 0.01138
AGUS PREFETCH L1 MISS: 0
LLC WRITEBACK ACCESS:     259632  HIT:     259114  MISS:        518  HIT %:    99.8005  MISS %:   0.199513   MPKI: 0.00259
LLC LOAD TRANSLATION ACCESS:      18732  HIT:      18304  MISS:        428  HIT %:    97.7151  MISS %:    2.28486   MPKI: 0.00214
LLC PREFETCH  REQUESTED:          0  ISSUED:          0  USEFUL:        116  USELESS:       2882
LLC USEFUL LOAD PREFETCHES:        116 PREFETCH ISSUED TO LOWER LEVEL:       2276  ACCURACY: 5.09666
LLC TIMELY PREFETCHES:        116 LATE PREFETCHES: 0 DROPPED PREFETCHES: 0
LLC PREFETCHES SAME FILL-ORIGIN LEVEL: 0 DIFFERENT FILL-ORIGIN LEVEL: 0
LLC AVERAGE MISS LATENCY: 156.382 cycles
LLC RQ	ACCESS:     530610	FORWARD:          0	MERGED:          0	TO_CACHE:     530605
LLC WQ	ACCESS:     259632	FORWARD:          5	MERGED:          0	TO_CACHE:     259632
LLC PQ	ACCESS:       2581	FORWARD:          0	MERGED:          0	TO_CACHE:       2581

LLC Dense regions hint to LLC: 0

RAW hits: 2094768
Loads Generated: 48099750
Loads sent to L1D: 46004982
Stores Generated: 24697058
Stores sent to L1D: 24697059
Major fault: 0 Minor fault: 5748
Allocated PAGES: 5748
CPU 0 L1D PC-based stride prefetcher final stats
Degree: 3

DRAM Statistics
 CHANNEL 0
 RQ ROW_BUFFER_HIT:      19613  ROW_BUFFER_MISS:      57025
 DBUS_CONGESTED:          6
 WQ ROW_BUFFER_HIT:       3629  ROW_BUFFER_MISS:      26672  FULL:          0

 AVG_CONGESTED_CYCLE: 6
 All warmup complete: 2
Channel 0 Bank busy for read cycles: 0
Channel 0 Bank busy for write cycles: 0
Channel 0
Rank 0
0banks busy for read cycles: 388004691
0banks busy for write cycles: 20907
1banks busy for read cycles: 6977860
1banks busy for write cycles: 3223517
2banks busy for read cycles: 761372
2banks busy for write cycles: 591894
3banks busy for read cycles: 25434
3banks busy for write cycles: 57429
4banks busy for read cycles: 24333
4banks busy for write cycles: 63282
5banks busy for read cycles: 28577
5banks busy for write cycles: 15972
6banks busy for read cycles: 31788
6banks busy for write cycles: 11284
7banks busy for read cycles: 34857
7banks busy for write cycles: 10455
8banks busy for read cycles: 36989
8banks busy for write cycles: 7117

CPU 0 Branch Prediction Accuracy: 99.9778% MPKI: 0.038155 Average ROB Occupancy at Mispredict: 24.2625
Branch types
NOT_BRANCH: 165656544 82.8283%
BRANCH_DIRECT_JUMP: 2068715 1.03436%
BRANCH_INDIRECT: 12589489 6.29474%
BRANCH_CONDITIONAL: 10225815 5.11291%
BRANCH_DIRECT_CALL: 3834255 1.91713%
BRANCH_INDIRECT_CALL: 895479 0.44774%
BRANCH_RETURN: 4729714 2.36486%
BRANCH_OTHER: 0 0%

DRAM PAGES: 1048576
Allocated PAGES: 5748
