
*** ChampSim Multicore Out-of-Order Simulator ***

Warmup Instructions: 50000000
Simulation Instructions: 200000000
Number of CPUs: 1
LLC sets: 2048
LLC ways: 16
Off-chip DRAM Size: 4096 MB Channels: 1 Width: 64-bit Data Rate: 6400 MT/s
CPU 0 runs traces/spec2k17/server_029.champsimtrace.xz
.xz
BTB has LRU replacement policy
ITLB has LRU replacement policy
DTLB has LRU replacement policy
STLB has LRU replacement policy
L1I has LRU replacement policy
CPU 0 L1D IP-based stride prefetcher
L1D has LRU replacement policy
Initialize SRRIP state for L2C
Initialize DRRIP state for LLC
Heartbeat CPU 0 instructions: 10000002 cycles: 2844940 heartbeat IPC: 3.51501 cumulative IPC: 3.51501 (Simulation time: 0 hr 0 min 25 sec) 
Heartbeat CPU 0 instructions: 20000001 cycles: 5683822 heartbeat IPC: 3.52251 cumulative IPC: 3.51876 (Simulation time: 0 hr 0 min 57 sec) 
Heartbeat CPU 0 instructions: 30000002 cycles: 8523254 heartbeat IPC: 3.52183 cumulative IPC: 3.51978 (Simulation time: 0 hr 1 min 33 sec) 
Heartbeat CPU 0 instructions: 40000001 cycles: 11363319 heartbeat IPC: 3.52105 cumulative IPC: 3.5201 (Simulation time: 0 hr 2 min 12 sec) 
Heartbeat CPU 0 instructions: 50000000 cycles: 14203479 heartbeat IPC: 3.52093 cumulative IPC: 3.52026 (Simulation time: 0 hr 2 min 47 sec) 

Warmup complete CPU 0 instructions: 50000004 cycles: 14203480 (Simulation time: 0 hr 2 min 47 sec) 

Heartbeat CPU 0 instructions: 60000002 cycles: 47302635 heartbeat IPC: 0.302123 cumulative IPC: 0.302122 (Simulation time: 0 hr 3 min 43 sec) 
Heartbeat CPU 0 instructions: 70000001 cycles: 80586833 heartbeat IPC: 0.300443 cumulative IPC: 0.30128 (Simulation time: 0 hr 4 min 37 sec) 
Heartbeat CPU 0 instructions: 80000002 cycles: 113484303 heartbeat IPC: 0.303975 cumulative IPC: 0.302173 (Simulation time: 0 hr 5 min 38 sec) 
*** Reached end of trace for Core: 0 Repeating trace: traces/spec2k17/server_029.champsimtrace.xz
Heartbeat CPU 0 instructions: 90000000 cycles: 146322331 heartbeat IPC: 0.304525 cumulative IPC: 0.302758 (Simulation time: 0 hr 6 min 36 sec) 
Heartbeat CPU 0 instructions: 100000003 cycles: 178711011 heartbeat IPC: 0.30875 cumulative IPC: 0.303937 (Simulation time: 0 hr 7 min 28 sec) 
Heartbeat CPU 0 instructions: 110000000 cycles: 210998475 heartbeat IPC: 0.309718 cumulative IPC: 0.304886 (Simulation time: 0 hr 8 min 25 sec) 
Heartbeat CPU 0 instructions: 120000002 cycles: 243665130 heartbeat IPC: 0.306123 cumulative IPC: 0.305062 (Simulation time: 0 hr 9 min 24 sec) 
Heartbeat CPU 0 instructions: 130000000 cycles: 276513489 heartbeat IPC: 0.304429 cumulative IPC: 0.304983 (Simulation time: 0 hr 10 min 17 sec) 
Heartbeat CPU 0 instructions: 140000002 cycles: 309328272 heartbeat IPC: 0.304741 cumulative IPC: 0.304956 (Simulation time: 0 hr 11 min 11 sec) 
Heartbeat CPU 0 instructions: 150000000 cycles: 342227258 heartbeat IPC: 0.303961 cumulative IPC: 0.304856 (Simulation time: 0 hr 12 min 3 sec) 
Heartbeat CPU 0 instructions: 160000001 cycles: 375219481 heartbeat IPC: 0.303102 cumulative IPC: 0.304696 (Simulation time: 0 hr 13 min 1 sec) 
Heartbeat CPU 0 instructions: 170000001 cycles: 408134828 heartbeat IPC: 0.30381 cumulative IPC: 0.304622 (Simulation time: 0 hr 13 min 55 sec) 
*** Reached end of trace for Core: 0 Repeating trace: traces/spec2k17/server_029.champsimtrace.xz
Heartbeat CPU 0 instructions: 180000002 cycles: 440642479 heartbeat IPC: 0.30762 cumulative IPC: 0.30485 (Simulation time: 0 hr 14 min 56 sec) 
Heartbeat CPU 0 instructions: 190000000 cycles: 472911205 heartbeat IPC: 0.309898 cumulative IPC: 0.305205 (Simulation time: 0 hr 15 min 48 sec) 
Heartbeat CPU 0 instructions: 200000002 cycles: 505432884 heartbeat IPC: 0.307487 cumulative IPC: 0.305356 (Simulation time: 0 hr 16 min 41 sec) 
Heartbeat CPU 0 instructions: 210000003 cycles: 538079660 heartbeat IPC: 0.306309 cumulative IPC: 0.305416 (Simulation time: 0 hr 17 min 40 sec) 
Heartbeat CPU 0 instructions: 220000000 cycles: 570755016 heartbeat IPC: 0.306041 cumulative IPC: 0.305452 (Simulation time: 0 hr 18 min 35 sec) 
Heartbeat CPU 0 instructions: 230000003 cycles: 603629282 heartbeat IPC: 0.304189 cumulative IPC: 0.305382 (Simulation time: 0 hr 19 min 25 sec) 
Heartbeat CPU 0 instructions: 240000003 cycles: 636637845 heartbeat IPC: 0.302952 cumulative IPC: 0.305253 (Simulation time: 0 hr 20 min 22 sec) 
Heartbeat CPU 0 instructions: 250000000 cycles: 669584196 heartbeat IPC: 0.303524 cumulative IPC: 0.305166 (Simulation time: 0 hr 21 min 15 sec) 
Finished CPU 0 instructions: 200000000 cycles: 655380723 cumulative IPC: 0.305166 (Simulation time: 0 hr 21 min 15 sec) 

ChampSim completed all CPUs

Region of Interest Statistics

CPU 0 cumulative IPC: 0.305166 instructions: 200000000 cycles: 655380723
ITLB TOTAL     ACCESS:   35637586  HIT:   33436567  MISS:    2201019  HIT %:    93.8239  MISS %:    6.17612   MPKI: 11.0051
ITLB LOAD TRANSLATION ACCESS:   35637586  HIT:   33436567  MISS:    2201019  HIT %:    93.8239  MISS %:    6.17612   MPKI: 11.0051
ITLB PREFETCH  REQUESTED:          0  ISSUED:          0  USEFUL:          0  USELESS:          0
ITLB USEFUL LOAD PREFETCHES:          0 PREFETCH ISSUED TO LOWER LEVEL:          0  ACCURACY: -nan
ITLB TIMELY PREFETCHES:          0 LATE PREFETCHES: 0 DROPPED PREFETCHES: 0
ITLB PREFETCHES SAME FILL-ORIGIN LEVEL: 0 DIFFERENT FILL-ORIGIN LEVEL: 0
ITLB AVERAGE MISS LATENCY: 9.15679 cycles
ITLB RQ	ACCESS:   41820777	FORWARD:          0	MERGED:    5661605	TO_CACHE:   36159172

DTLB TOTAL     ACCESS:   45188856  HIT:   43094041  MISS:    2094815  HIT %:    95.3643  MISS %:    4.63569   MPKI: 10.4741
DTLB LOAD TRANSLATION ACCESS:   45188856  HIT:   43094041  MISS:    2094815  HIT %:    95.3643  MISS %:    4.63569   MPKI: 10.4741
DTLB PREFETCH  REQUESTED:          0  ISSUED:          0  USEFUL:          0  USELESS:          0
DTLB USEFUL LOAD PREFETCHES:          0 PREFETCH ISSUED TO LOWER LEVEL:          0  ACCURACY: -nan
DTLB TIMELY PREFETCHES:          0 LATE PREFETCHES: 0 DROPPED PREFETCHES: 0
DTLB PREFETCHES SAME FILL-ORIGIN LEVEL: 0 DIFFERENT FILL-ORIGIN LEVEL: 0
DTLB AVERAGE MISS LATENCY: 10.4235 cycles
DTLB RQ	ACCESS:   59832241	FORWARD:          0	MERGED:   14587307	TO_CACHE:   45244934

STLB TOTAL     ACCESS:    4864381  HIT:    4809739  MISS:      54642  HIT %:    98.8767  MISS %:    1.12331   MPKI: 0.27321
STLB LOAD TRANSLATION ACCESS:    4295834  HIT:    4241192  MISS:      54642  HIT %:     98.728  MISS %:    1.27198   MPKI: 0.27321
STLB TRANSLATION FROM L1D PREFETCHER ACCESS:     568547  HIT:     568547  MISS:          0  HIT %:        100  MISS %:          0   MPKI: 0
STLB PREFETCH  REQUESTED:          0  ISSUED:          0  USEFUL:          0  USELESS:          0
STLB USEFUL LOAD PREFETCHES:          0 PREFETCH ISSUED TO LOWER LEVEL:          0  ACCURACY: -nan
STLB TIMELY PREFETCHES:          0 LATE PREFETCHES: 0 DROPPED PREFETCHES: 0
STLB PREFETCHES SAME FILL-ORIGIN LEVEL: 0 DIFFERENT FILL-ORIGIN LEVEL: 0
STLB AVERAGE MISS LATENCY: 60.3924 cycles
STLB RQ	ACCESS:    5981113	FORWARD:          0	MERGED:    1116732	TO_CACHE:    4864381

STLB Hit, L1D data hit: 0
STLB Hit, L2C data hit: 0
STLB Hit, LLC data hit: 0
STLB Hit, LLC data miss: 0
STLB STLB hints to L2: 0
L1D TOTAL     ACCESS:   59424379  HIT:   53675847  MISS:    5748532  HIT %:    90.3263  MISS %:    9.67369   MPKI: 28.7427
L1D LOAD      ACCESS:   33586582  HIT:   29491733  MISS:    4094849  HIT %:    87.8081  MISS %:    12.1919   MPKI: 20.4742
L1D RFO       ACCESS:   24338409  HIT:   23126979  MISS:    1211430  HIT %:    95.0226  MISS %:    4.97744   MPKI: 6.05715
L1D PREFETCH  ACCESS:    1499388  HIT:    1057135  MISS:     442253  HIT %:    70.5044  MISS %:    29.4956   MPKI: 2.21127
AGUS PREFETCH L1 MISS: 0
L1D PREFETCH  REQUESTED:    3629146  ISSUED:    3629146  USEFUL:     348267  USELESS:      93985
L1D USEFUL LOAD PREFETCHES:     348267 PREFETCH ISSUED TO LOWER LEVEL:     547469  ACCURACY: 63.614
L1D TIMELY PREFETCHES:     348267 LATE PREFETCHES: 55771 DROPPED PREFETCHES: 0
L1D PREFETCHES SAME FILL-ORIGIN LEVEL: 498024 DIFFERENT FILL-ORIGIN LEVEL: 49445
L1D AVERAGE MISS LATENCY: 3.31544e+06 cycles
L1D RQ	ACCESS:   46135109	FORWARD:          0	MERGED:   12107828	TO_CACHE:   33717915
L1D WQ	ACCESS:   26256733	FORWARD:     309366	MERGED:     142407	TO_CACHE:   26114326
L1D PQ	ACCESS:    1943867	FORWARD:          0	MERGED:     258588	TO_CACHE:    1685279

L1D UNIQUE REGIONS ACCESSED: 0
L1D REGIONS CONFLICTS: 0
L1D Cross Page Prefetch Requests: 0
L1D Same Page Prefetch Requests: 2207728
L1D ROI Sum of L1D PQ occupancy: 22354416
L1D PREFETCHES PUSHED FROM L2C: 0
L1I TOTAL     ACCESS:   40197729  HIT:   29019002  MISS:   11178727  HIT %:    72.1907  MISS %:    27.8093   MPKI: 55.8936
L1I LOAD      ACCESS:   40197729  HIT:   29019002  MISS:   11178727  HIT %:    72.1907  MISS %:    27.8093   MPKI: 55.8936
L1I PREFETCH  REQUESTED:          0  ISSUED:          0  USEFUL:          0  USELESS:          0
L1I USEFUL LOAD PREFETCHES:          0 PREFETCH ISSUED TO LOWER LEVEL:          0  ACCURACY: -nan
L1I TIMELY PREFETCHES:          0 LATE PREFETCHES: 0 DROPPED PREFETCHES: 0
L1I PREFETCHES SAME FILL-ORIGIN LEVEL: 0 DIFFERENT FILL-ORIGIN LEVEL: 0
L1I AVERAGE MISS LATENCY: 15.8486 cycles
L1I RQ	ACCESS:   58307346	FORWARD:          0	MERGED:   16486569	TO_CACHE:   41820777

BTB TOTAL     ACCESS:   30539919  HIT:   18140103  MISS:   12399816  HIT %:     59.398  MISS %:     40.602   MPKI: 61.9991
BTB BRANCH_DIRECT_JUMP	ACCESS:    2018954  HIT:    1218809  MISS:     800145
BTB BRANCH_INDIRECT	ACCESS:   11947792  HIT:    7156444  MISS:    4791348
BTB BRANCH_CONDITIONAL	ACCESS:    7548510  HIT:    6291453  MISS:    1257057
BTB BRANCH_DIRECT_CALL	ACCESS:    3801012  HIT:    1784913  MISS:    2016099
BTB BRANCH_INDIRECT_CALL	ACCESS:     711313  HIT:     347925  MISS:     363388
BTB BRANCH_RETURN	ACCESS:    4512338  HIT:    1340559  MISS:    3171779
BTB BRANCH_OTHER ACCESS:          0  HIT:          0  MISS:          0

L2C TOTAL     ACCESS:   19319945  HIT:   18095335  MISS:    1224610  HIT %:    93.6614  MISS %:    6.33858   MPKI: 6.12305
L2C LOAD      ACCESS:   15217805  HIT:   14213724  MISS:    1004081  HIT %:    93.4019  MISS %:    6.59807   MPKI: 5.02041
L2C DATA LOAD MPKI: 1.80128
L2C INSTRUCTION LOAD MPKI: 3.21913
L2C RFO       ACCESS:    1211430  HIT:    1123539  MISS:      87891  HIT %:    92.7449  MISS %:    7.25514   MPKI: 0.439455
L2C PREFETCH  ACCESS:     506662  HIT:     443228  MISS:      63434  HIT %:      87.48  MISS %:      12.52   MPKI: 0.31717
AGUS PREFETCH L1 MISS: 0
L2C DATA PREFETCH MPKI: 0.31717
L2C INSTRUCTION PREFETCH MPKI: 0
L2C WRITEBACK ACCESS:    2301872  HIT:    2274703  MISS:      27169  HIT %:    98.8197  MISS %:     1.1803   MPKI: 0.135845
L2C LOAD TRANSLATION ACCESS:      82176  HIT:      40141  MISS:      42035  HIT %:    48.8476  MISS %:    51.1524   MPKI: 0.210175
L2C PREFETCH  REQUESTED:          0  ISSUED:          0  USEFUL:       3337  USELESS:      60198
L2C USEFUL LOAD PREFETCHES:       3337 PREFETCH ISSUED TO LOWER LEVEL:      76604  ACCURACY: 4.35617
L2C TIMELY PREFETCHES:       3337 LATE PREFETCHES: 13170 DROPPED PREFETCHES: 0
L2C PREFETCHES SAME FILL-ORIGIN LEVEL: 24127 DIFFERENT FILL-ORIGIN LEVEL: 0
L2C AVERAGE MISS LATENCY: 43.7974 cycles
L2C RQ	ACCESS:   16511411	FORWARD:          0	MERGED:          0	TO_CACHE:   16511411
L2C WQ	ACCESS:    2301872	FORWARD:          0	MERGED:          0	TO_CACHE:    2301872
L2C PQ	ACCESS:     547469	FORWARD:          0	MERGED:         42	TO_CACHE:     547427

L2C Instructions Evicting Data 227332
L2C Translations Evicting Data 27615
L2C Data Evicting Data 271074
L2C Instructions Evicting Instructions 405245
L2C Translations Evicting Instructions 10697
L2C Data Evicting Instructions 213823
L2C Instructions Evicting Translations 11248
L2C Translations Evicting Translations 3723
L2C Data Evicting Translations 26684
L2C Dense regions hint from L2: 0
PSCL5 TOTAL     ACCESS:      54642  HIT:      54642  MISS:          0  HIT %:        100  MISS %:          0   MPKI: 0
PSCL5 LOAD TRANSLATION ACCESS:      54642  HIT:      54642  MISS:          0  HIT %:        100  MISS %:          0   MPKI: 0
PSCL5 PREFETCH  REQUESTED:          0  ISSUED:          0  USEFUL:          0  USELESS:          0
PSCL5 USEFUL LOAD PREFETCHES:          0 PREFETCH ISSUED TO LOWER LEVEL:          0  ACCURACY: -nan
PSCL5 TIMELY PREFETCHES:          0 LATE PREFETCHES: 0 DROPPED PREFETCHES: 0
PSCL5 PREFETCHES SAME FILL-ORIGIN LEVEL: 0 DIFFERENT FILL-ORIGIN LEVEL: 0

PSCL4 TOTAL     ACCESS:      53062  HIT:      52390  MISS:        672  HIT %:    98.7336  MISS %:    1.26644   MPKI: 0.00336
PSCL4 LOAD TRANSLATION ACCESS:      53062  HIT:      52390  MISS:        672  HIT %:    98.7336  MISS %:    1.26644   MPKI: 0.00336
PSCL4 PREFETCH  REQUESTED:          0  ISSUED:          0  USEFUL:          0  USELESS:          0
PSCL4 USEFUL LOAD PREFETCHES:          0 PREFETCH ISSUED TO LOWER LEVEL:          0  ACCURACY: -nan
PSCL4 TIMELY PREFETCHES:          0 LATE PREFETCHES: 0 DROPPED PREFETCHES: 0
PSCL4 PREFETCHES SAME FILL-ORIGIN LEVEL: 0 DIFFERENT FILL-ORIGIN LEVEL: 0

PSCL3 TOTAL     ACCESS:      54538  HIT:      53865  MISS:        673  HIT %:     98.766  MISS %:      1.234   MPKI: 0.003365
PSCL3 LOAD TRANSLATION ACCESS:      54538  HIT:      53865  MISS:        673  HIT %:     98.766  MISS %:      1.234   MPKI: 0.003365
PSCL3 PREFETCH  REQUESTED:          0  ISSUED:          0  USEFUL:          0  USELESS:          0
PSCL3 USEFUL LOAD PREFETCHES:          0 PREFETCH ISSUED TO LOWER LEVEL:          0  ACCURACY: -nan
PSCL3 TIMELY PREFETCHES:          0 LATE PREFETCHES: 0 DROPPED PREFETCHES: 0
PSCL3 PREFETCHES SAME FILL-ORIGIN LEVEL: 0 DIFFERENT FILL-ORIGIN LEVEL: 0

PSCL2 TOTAL     ACCESS:      54642  HIT:      28446  MISS:      26196  HIT %:    52.0589  MISS %:    47.9411   MPKI: 0.13098
PSCL2 LOAD TRANSLATION ACCESS:      54642  HIT:      28446  MISS:      26196  HIT %:    52.0589  MISS %:    47.9411   MPKI: 0.13098
PSCL2 PREFETCH  REQUESTED:          0  ISSUED:          0  USEFUL:          0  USELESS:          0
PSCL2 USEFUL LOAD PREFETCHES:          0 PREFETCH ISSUED TO LOWER LEVEL:          0  ACCURACY: -nan
PSCL2 TIMELY PREFETCHES:          0 LATE PREFETCHES: 0 DROPPED PREFETCHES: 0
PSCL2 PREFETCHES SAME FILL-ORIGIN LEVEL: 0 DIFFERENT FILL-ORIGIN LEVEL: 0

LLC TOTAL     ACCESS:    1317899  HIT:    1186554  MISS:     131345  HIT %:    90.0338  MISS %:    9.96624   MPKI: 0.656725
LLC LOAD      ACCESS:     990911  HIT:     914568  MISS:      76343  HIT %:    92.2957  MISS %:    7.70432   MPKI: 0.381715
LLC RFO       ACCESS:      87888  HIT:      75484  MISS:      12404  HIT %:    85.8866  MISS %:    14.1134   MPKI: 0.06202
LLC PREFETCH  ACCESS:      76604  HIT:      38049  MISS:      38555  HIT %:    49.6697  MISS %:    50.3303   MPKI: 0.192775
AGUS PREFETCH L1 MISS: 0
LLC WRITEBACK ACCESS:     120461  HIT:     119804  MISS:        657  HIT %:    99.4546  MISS %:   0.545405   MPKI: 0.003285
LLC LOAD TRANSLATION ACCESS:      42035  HIT:      38649  MISS:       3386  HIT %:    91.9448  MISS %:    8.05519   MPKI: 0.01693
LLC PREFETCH  REQUESTED:          0  ISSUED:          0  USEFUL:        986  USELESS:      38788
LLC USEFUL LOAD PREFETCHES:        986 PREFETCH ISSUED TO LOWER LEVEL:      38555  ACCURACY: 2.55739
LLC TIMELY PREFETCHES:        986 LATE PREFETCHES: 0 DROPPED PREFETCHES: 0
LLC PREFETCHES SAME FILL-ORIGIN LEVEL: 0 DIFFERENT FILL-ORIGIN LEVEL: 0
LLC AVERAGE MISS LATENCY: 139.673 cycles
LLC RQ	ACCESS:    1120837	FORWARD:          0	MERGED:          0	TO_CACHE:    1120834
LLC WQ	ACCESS:     120461	FORWARD:          3	MERGED:          0	TO_CACHE:     120461
LLC PQ	ACCESS:      76604	FORWARD:          0	MERGED:          0	TO_CACHE:      76604

LLC Dense regions hint to LLC: 0

RAW hits: 1427189
Loads Generated: 47562298
Loads sent to L1D: 46135109
Stores Generated: 26256735
Stores sent to L1D: 26256733
Major fault: 0 Minor fault: 6134
Allocated PAGES: 6134
CPU 0 L1D PC-based stride prefetcher final stats
Degree: 3

DRAM Statistics
 CHANNEL 0
 RQ ROW_BUFFER_HIT:      53036  ROW_BUFFER_MISS:      77604
 DBUS_CONGESTED:         73
 WQ ROW_BUFFER_HIT:       2012  ROW_BUFFER_MISS:      11359  FULL:          0

 AVG_CONGESTED_CYCLE: 5
 All warmup complete: 2
Channel 0 Bank busy for read cycles: 0
Channel 0 Bank busy for write cycles: 0
Channel 0
Rank 0
0banks busy for read cycles: 644821269
0banks busy for write cycles: 7812
1banks busy for read cycles: 6900098
1banks busy for write cycles: 1215057
2banks busy for read cycles: 960447
2banks busy for write cycles: 215326
3banks busy for read cycles: 297088
3banks busy for write cycles: 95554
4banks busy for read cycles: 184477
4banks busy for write cycles: 41601
5banks busy for read cycles: 119118
5banks busy for write cycles: 20048
6banks busy for read cycles: 133873
6banks busy for write cycles: 7834
7banks busy for read cycles: 163191
7banks busy for write cycles: 4859
8banks busy for read cycles: 164050
8banks busy for write cycles: 29022

CPU 0 Branch Prediction Accuracy: 99.7832% MPKI: 0.392085 Average ROB Occupancy at Mispredict: 44.98
Branch types
NOT_BRANCH: 163831453 81.9157%
BRANCH_DIRECT_JUMP: 2018954 1.00948%
BRANCH_INDIRECT: 11947792 5.9739%
BRANCH_CONDITIONAL: 13177116 6.58856%
BRANCH_DIRECT_CALL: 3801012 1.90051%
BRANCH_INDIRECT_CALL: 711313 0.355656%
BRANCH_RETURN: 4512338 2.25617%
BRANCH_OTHER: 0 0%

DRAM PAGES: 1048576
Allocated PAGES: 6134
