
*** ChampSim Multicore Out-of-Order Simulator ***

Warmup Instructions: 50000000
Simulation Instructions: 200000000
Number of CPUs: 1
LLC sets: 2048
LLC ways: 16
Off-chip DRAM Size: 4096 MB Channels: 1 Width: 64-bit Data Rate: 6400 MT/s
CPU 0 runs traces/spec2k17/srv_22.champsimtrace.xz
.xz
BTB has LRU replacement policy
ITLB has LRU replacement policy
DTLB has LRU replacement policy
STLB has LRU replacement policy
L1I has LRU replacement policy
CPU 0 L1D IP-based stride prefetcher
L1D has LRU replacement policy
Initialize SRRIP state for L2C
Initialize DRRIP state for LLC
Heartbeat CPU 0 instructions: 10000000 cycles: 2810546 heartbeat IPC: 3.55803 cumulative IPC: 3.55803 (Simulation time: 0 hr 0 min 38 sec) 
Heartbeat CPU 0 instructions: 20000000 cycles: 5619829 heartbeat IPC: 3.55963 cumulative IPC: 3.55883 (Simulation time: 0 hr 1 min 17 sec) 
Heartbeat CPU 0 instructions: 30000000 cycles: 8430366 heartbeat IPC: 3.55804 cumulative IPC: 3.55856 (Simulation time: 0 hr 1 min 55 sec) 
*** Reached end of trace for Core: 0 Repeating trace: traces/spec2k17/srv_22.champsimtrace.xz
Heartbeat CPU 0 instructions: 40000003 cycles: 11235371 heartbeat IPC: 3.56506 cumulative IPC: 3.56019 (Simulation time: 0 hr 2 min 30 sec) 
Heartbeat CPU 0 instructions: 50000003 cycles: 14043586 heartbeat IPC: 3.56098 cumulative IPC: 3.56034 (Simulation time: 0 hr 3 min 7 sec) 

Warmup complete CPU 0 instructions: 50000003 cycles: 14043586 (Simulation time: 0 hr 3 min 7 sec) 

Heartbeat CPU 0 instructions: 60000001 cycles: 44434056 heartbeat IPC: 0.32905 cumulative IPC: 0.32905 (Simulation time: 0 hr 3 min 57 sec) 
*** Reached end of trace for Core: 0 Repeating trace: traces/spec2k17/srv_22.champsimtrace.xz
Heartbeat CPU 0 instructions: 70000001 cycles: 74273433 heartbeat IPC: 0.335128 cumulative IPC: 0.332061 (Simulation time: 0 hr 4 min 47 sec) 
Heartbeat CPU 0 instructions: 80000001 cycles: 104557194 heartbeat IPC: 0.33021 cumulative IPC: 0.331442 (Simulation time: 0 hr 5 min 38 sec) 
Heartbeat CPU 0 instructions: 90000000 cycles: 134370958 heartbeat IPC: 0.335416 cumulative IPC: 0.332426 (Simulation time: 0 hr 6 min 36 sec) 
*** Reached end of trace for Core: 0 Repeating trace: traces/spec2k17/srv_22.champsimtrace.xz
Heartbeat CPU 0 instructions: 100000002 cycles: 164261669 heartbeat IPC: 0.334552 cumulative IPC: 0.332849 (Simulation time: 0 hr 7 min 29 sec) 
Heartbeat CPU 0 instructions: 110000000 cycles: 194395738 heartbeat IPC: 0.33185 cumulative IPC: 0.332682 (Simulation time: 0 hr 8 min 23 sec) 
Heartbeat CPU 0 instructions: 120000000 cycles: 224247432 heartbeat IPC: 0.334989 cumulative IPC: 0.33301 (Simulation time: 0 hr 9 min 17 sec) 
*** Reached end of trace for Core: 0 Repeating trace: traces/spec2k17/srv_22.champsimtrace.xz
Heartbeat CPU 0 instructions: 130000000 cycles: 254229567 heartbeat IPC: 0.333532 cumulative IPC: 0.333075 (Simulation time: 0 hr 10 min 9 sec) 
Heartbeat CPU 0 instructions: 140000002 cycles: 284289532 heartbeat IPC: 0.332668 cumulative IPC: 0.33303 (Simulation time: 0 hr 11 min 2 sec) 
Heartbeat CPU 0 instructions: 150000003 cycles: 314299042 heartbeat IPC: 0.333228 cumulative IPC: 0.33305 (Simulation time: 0 hr 11 min 57 sec) 
*** Reached end of trace for Core: 0 Repeating trace: traces/spec2k17/srv_22.champsimtrace.xz
Heartbeat CPU 0 instructions: 160000000 cycles: 344434011 heartbeat IPC: 0.33184 cumulative IPC: 0.332939 (Simulation time: 0 hr 12 min 50 sec) 
Heartbeat CPU 0 instructions: 170000001 cycles: 374089841 heartbeat IPC: 0.337202 cumulative IPC: 0.333291 (Simulation time: 0 hr 13 min 41 sec) 
Heartbeat CPU 0 instructions: 180000001 cycles: 404302651 heartbeat IPC: 0.330985 cumulative IPC: 0.333112 (Simulation time: 0 hr 14 min 31 sec) 
*** Reached end of trace for Core: 0 Repeating trace: traces/spec2k17/srv_22.champsimtrace.xz
Heartbeat CPU 0 instructions: 190000003 cycles: 434253970 heartbeat IPC: 0.333875 cumulative IPC: 0.333166 (Simulation time: 0 hr 15 min 26 sec) 
Heartbeat CPU 0 instructions: 200000001 cycles: 464057286 heartbeat IPC: 0.335533 cumulative IPC: 0.333323 (Simulation time: 0 hr 16 min 19 sec) 
Heartbeat CPU 0 instructions: 210000000 cycles: 494176565 heartbeat IPC: 0.332013 cumulative IPC: 0.333241 (Simulation time: 0 hr 17 min 14 sec) 
*** Reached end of trace for Core: 0 Repeating trace: traces/spec2k17/srv_22.champsimtrace.xz
Heartbeat CPU 0 instructions: 220000000 cycles: 524148200 heartbeat IPC: 0.333649 cumulative IPC: 0.333265 (Simulation time: 0 hr 18 min 5 sec) 
Heartbeat CPU 0 instructions: 230000001 cycles: 553718434 heartbeat IPC: 0.338178 cumulative IPC: 0.333534 (Simulation time: 0 hr 19 min 2 sec) 
Heartbeat CPU 0 instructions: 240000001 cycles: 583884158 heartbeat IPC: 0.331502 cumulative IPC: 0.333427 (Simulation time: 0 hr 19 min 56 sec) 
*** Reached end of trace for Core: 0 Repeating trace: traces/spec2k17/srv_22.champsimtrace.xz
Heartbeat CPU 0 instructions: 250000001 cycles: 613828875 heartbeat IPC: 0.333949 cumulative IPC: 0.333453 (Simulation time: 0 hr 20 min 43 sec) 
Finished CPU 0 instructions: 200000000 cycles: 599785301 cumulative IPC: 0.333453 (Simulation time: 0 hr 20 min 43 sec) 

ChampSim completed all CPUs

Region of Interest Statistics

CPU 0 cumulative IPC: 0.333453 instructions: 200000000 cycles: 599785301
ITLB TOTAL     ACCESS:   34463561  HIT:   32607672  MISS:    1855889  HIT %:    94.6149  MISS %:    5.38508   MPKI: 9.27945
ITLB LOAD TRANSLATION ACCESS:   34463561  HIT:   32607672  MISS:    1855889  HIT %:    94.6149  MISS %:    5.38508   MPKI: 9.27945
ITLB PREFETCH  REQUESTED:          0  ISSUED:          0  USEFUL:          0  USELESS:          0
ITLB USEFUL LOAD PREFETCHES:          0 PREFETCH ISSUED TO LOWER LEVEL:          0  ACCURACY: -nan
ITLB TIMELY PREFETCHES:          0 LATE PREFETCHES: 0 DROPPED PREFETCHES: 0
ITLB PREFETCHES SAME FILL-ORIGIN LEVEL: 0 DIFFERENT FILL-ORIGIN LEVEL: 0
ITLB AVERAGE MISS LATENCY: 9.04782 cycles
ITLB RQ	ACCESS:   40289524	FORWARD:          0	MERGED:    5378000	TO_CACHE:   34911524

DTLB TOTAL     ACCESS:   45319145  HIT:   43524467  MISS:    1794678  HIT %:    96.0399  MISS %:    3.96009   MPKI: 8.97339
DTLB LOAD TRANSLATION ACCESS:   45319145  HIT:   43524467  MISS:    1794678  HIT %:    96.0399  MISS %:    3.96009   MPKI: 8.97339
DTLB PREFETCH  REQUESTED:          0  ISSUED:          0  USEFUL:          0  USELESS:          0
DTLB USEFUL LOAD PREFETCHES:          0 PREFETCH ISSUED TO LOWER LEVEL:          0  ACCURACY: -nan
DTLB TIMELY PREFETCHES:          0 LATE PREFETCHES: 0 DROPPED PREFETCHES: 0
DTLB PREFETCHES SAME FILL-ORIGIN LEVEL: 0 DIFFERENT FILL-ORIGIN LEVEL: 0
DTLB AVERAGE MISS LATENCY: 9.22409 cycles
DTLB RQ	ACCESS:   59831148	FORWARD:          0	MERGED:   14448338	TO_CACHE:   45382810

STLB TOTAL     ACCESS:    4160682  HIT:    4150832  MISS:       9850  HIT %:    99.7633  MISS %:    0.23674   MPKI: 0.04925
STLB LOAD TRANSLATION ACCESS:    3650566  HIT:    3640716  MISS:       9850  HIT %:    99.7302  MISS %:   0.269821   MPKI: 0.04925
STLB TRANSLATION FROM L1D PREFETCHER ACCESS:     510116  HIT:     510116  MISS:          0  HIT %:        100  MISS %:          0   MPKI: 0
STLB PREFETCH  REQUESTED:          0  ISSUED:          0  USEFUL:          0  USELESS:          0
STLB USEFUL LOAD PREFETCHES:          0 PREFETCH ISSUED TO LOWER LEVEL:          0  ACCURACY: -nan
STLB TIMELY PREFETCHES:          0 LATE PREFETCHES: 0 DROPPED PREFETCHES: 0
STLB PREFETCHES SAME FILL-ORIGIN LEVEL: 0 DIFFERENT FILL-ORIGIN LEVEL: 0
STLB AVERAGE MISS LATENCY: 47.2663 cycles
STLB RQ	ACCESS:    5188970	FORWARD:          0	MERGED:    1028288	TO_CACHE:    4160682

STLB Hit, L1D data hit: 0
STLB Hit, L2C data hit: 0
STLB Hit, LLC data hit: 0
STLB Hit, LLC data miss: 0
STLB STLB hints to L2: 0
L1D TOTAL     ACCESS:   59423881  HIT:   55429818  MISS:    3994063  HIT %:    93.2787  MISS %:    6.72131   MPKI: 19.9703
L1D LOAD      ACCESS:   33599899  HIT:   30936171  MISS:    2663728  HIT %:    92.0722  MISS %:    7.92779   MPKI: 13.3186
L1D RFO       ACCESS:   24473119  HIT:   23390040  MISS:    1083079  HIT %:    95.5744  MISS %:    4.42559   MPKI: 5.4154
L1D PREFETCH  ACCESS:    1350863  HIT:    1103607  MISS:     247256  HIT %:    81.6964  MISS %:    18.3036   MPKI: 1.23628
AGUS PREFETCH L1 MISS: 0
L1D PREFETCH  REQUESTED:    3372659  ISSUED:    3372659  USEFUL:     148795  USELESS:      98462
L1D USEFUL LOAD PREFETCHES:     148795 PREFETCH ISSUED TO LOWER LEVEL:     315773  ACCURACY: 47.1209
L1D TIMELY PREFETCHES:     148795 LATE PREFETCHES: 57579 DROPPED PREFETCHES: 0
L1D PREFETCHES SAME FILL-ORIGIN LEVEL: 304835 DIFFERENT FILL-ORIGIN LEVEL: 10938
L1D AVERAGE MISS LATENCY: 4.5511e+06 cycles
L1D RQ	ACCESS:   46886279	FORWARD:          0	MERGED:   12892681	TO_CACHE:   33696400
L1D WQ	ACCESS:   26309150	FORWARD:     297199	MERGED:     174402	TO_CACHE:   26134748
L1D PQ	ACCESS:    1834255	FORWARD:          0	MERGED:     295850	TO_CACHE:    1538404

L1D UNIQUE REGIONS ACCESSED: 0
L1D REGIONS CONFLICTS: 0
L1D Cross Page Prefetch Requests: 0
L1D Same Page Prefetch Requests: 2232896
L1D ROI Sum of L1D PQ occupancy: 20330728
L1D PREFETCHES PUSHED FROM L2C: 0
L1I TOTAL     ACCESS:   38870718  HIT:   29160460  MISS:    9710258  HIT %:    75.0191  MISS %:    24.9809   MPKI: 48.5513
L1I LOAD      ACCESS:   38870718  HIT:   29160460  MISS:    9710258  HIT %:    75.0191  MISS %:    24.9809   MPKI: 48.5513
L1I PREFETCH  REQUESTED:          0  ISSUED:          0  USEFUL:          0  USELESS:          0
L1I USEFUL LOAD PREFETCHES:          0 PREFETCH ISSUED TO LOWER LEVEL:          0  ACCURACY: -nan
L1I TIMELY PREFETCHES:          0 LATE PREFETCHES: 0 DROPPED PREFETCHES: 0
L1I PREFETCHES SAME FILL-ORIGIN LEVEL: 0 DIFFERENT FILL-ORIGIN LEVEL: 0
L1I AVERAGE MISS LATENCY: 16.73 cycles
L1I RQ	ACCESS:   57822137	FORWARD:          0	MERGED:   17532613	TO_CACHE:   40289524

BTB TOTAL     ACCESS:   30330112  HIT:   18855293  MISS:   11474819  HIT %:    62.1669  MISS %:    37.8331   MPKI: 57.3741
BTB BRANCH_DIRECT_JUMP	ACCESS:    2183492  HIT:    1381264  MISS:     802228
BTB BRANCH_INDIRECT	ACCESS:   11409987  HIT:    7107186  MISS:    4302801
BTB BRANCH_CONDITIONAL	ACCESS:    8659441  HIT:    7498829  MISS:    1160612
BTB BRANCH_DIRECT_CALL	ACCESS:    3412328  HIT:    1528915  MISS:    1883413
BTB BRANCH_INDIRECT_CALL	ACCESS:     626274  HIT:     246325  MISS:     379949
BTB BRANCH_RETURN	ACCESS:    4038590  HIT:    1092774  MISS:    2945816
BTB BRANCH_OTHER ACCESS:          0  HIT:          0  MISS:          0

L2C TOTAL     ACCESS:   15551276  HIT:   13958031  MISS:    1593245  HIT %:    89.7549  MISS %:    10.2451   MPKI: 7.96622
L2C LOAD      ACCESS:   12316384  HIT:   11104309  MISS:    1212075  HIT %:    90.1588  MISS %:    9.84116   MPKI: 6.06037
L2C DATA LOAD MPKI: 1.78313
L2C INSTRUCTION LOAD MPKI: 4.27724
L2C RFO       ACCESS:    1083078  HIT:     874396  MISS:     208682  HIT %:    80.7325  MISS %:    19.2675   MPKI: 1.04341
L2C PREFETCH  ACCESS:     310108  HIT:     205644  MISS:     104464  HIT %:    66.3137  MISS %:    33.6863   MPKI: 0.52232
AGUS PREFETCH L1 MISS: 0
L2C DATA PREFETCH MPKI: 0.52232
L2C INSTRUCTION PREFETCH MPKI: 0
L2C WRITEBACK ACCESS:    1830872  HIT:    1771089  MISS:      59783  HIT %:    96.7347  MISS %:    3.26527   MPKI: 0.298915
L2C LOAD TRANSLATION ACCESS:      10834  HIT:       2593  MISS:       8241  HIT %:    23.9339  MISS %:    76.0661   MPKI: 0.041205
L2C PREFETCH  REQUESTED:          0  ISSUED:          0  USEFUL:       2244  USELESS:     102176
L2C USEFUL LOAD PREFETCHES:       2244 PREFETCH ISSUED TO LOWER LEVEL:     105744  ACCURACY: 2.12211
L2C TIMELY PREFETCHES:       2244 LATE PREFETCHES: 1280 DROPPED PREFETCHES: 0
L2C PREFETCHES SAME FILL-ORIGIN LEVEL: 5616 DIFFERENT FILL-ORIGIN LEVEL: 0
L2C AVERAGE MISS LATENCY: 31.0933 cycles
L2C RQ	ACCESS:   13410320	FORWARD:          0	MERGED:          0	TO_CACHE:   13410296
L2C WQ	ACCESS:    1830872	FORWARD:         30	MERGED:          0	TO_CACHE:    1830872
L2C PQ	ACCESS:     315773	FORWARD:          0	MERGED:          0	TO_CACHE:     315767

L2C Instructions Evicting Data 342157
L2C Translations Evicting Data 4808
L2C Data Evicting Data 353605
L2C Instructions Evicting Instructions 510138
L2C Translations Evicting Instructions 3294
L2C Data Evicting Instructions 311298
L2C Instructions Evicting Translations 3153
L2C Translations Evicting Translations 139
L2C Data Evicting Translations 4870
L2C Dense regions hint from L2: 0
PSCL5 TOTAL     ACCESS:       9850  HIT:       9850  MISS:          0  HIT %:        100  MISS %:          0   MPKI: 0
PSCL5 LOAD TRANSLATION ACCESS:       9850  HIT:       9850  MISS:          0  HIT %:        100  MISS %:          0   MPKI: 0
PSCL5 PREFETCH  REQUESTED:          0  ISSUED:          0  USEFUL:          0  USELESS:          0
PSCL5 USEFUL LOAD PREFETCHES:          0 PREFETCH ISSUED TO LOWER LEVEL:          0  ACCURACY: -nan
PSCL5 TIMELY PREFETCHES:          0 LATE PREFETCHES: 0 DROPPED PREFETCHES: 0
PSCL5 PREFETCHES SAME FILL-ORIGIN LEVEL: 0 DIFFERENT FILL-ORIGIN LEVEL: 0

PSCL4 TOTAL     ACCESS:       9796  HIT:       9766  MISS:         30  HIT %:    99.6938  MISS %:   0.306247   MPKI: 0.00015
PSCL4 LOAD TRANSLATION ACCESS:       9796  HIT:       9766  MISS:         30  HIT %:    99.6938  MISS %:   0.306247   MPKI: 0.00015
PSCL4 PREFETCH  REQUESTED:          0  ISSUED:          0  USEFUL:          0  USELESS:          0
PSCL4 USEFUL LOAD PREFETCHES:          0 PREFETCH ISSUED TO LOWER LEVEL:          0  ACCURACY: -nan
PSCL4 TIMELY PREFETCHES:          0 LATE PREFETCHES: 0 DROPPED PREFETCHES: 0
PSCL4 PREFETCHES SAME FILL-ORIGIN LEVEL: 0 DIFFERENT FILL-ORIGIN LEVEL: 0

PSCL3 TOTAL     ACCESS:       9832  HIT:       9802  MISS:         30  HIT %:    99.6949  MISS %:   0.305126   MPKI: 0.00015
PSCL3 LOAD TRANSLATION ACCESS:       9832  HIT:       9802  MISS:         30  HIT %:    99.6949  MISS %:   0.305126   MPKI: 0.00015
PSCL3 PREFETCH  REQUESTED:          0  ISSUED:          0  USEFUL:          0  USELESS:          0
PSCL3 USEFUL LOAD PREFETCHES:          0 PREFETCH ISSUED TO LOWER LEVEL:          0  ACCURACY: -nan
PSCL3 TIMELY PREFETCHES:          0 LATE PREFETCHES: 0 DROPPED PREFETCHES: 0
PSCL3 PREFETCHES SAME FILL-ORIGIN LEVEL: 0 DIFFERENT FILL-ORIGIN LEVEL: 0

PSCL2 TOTAL     ACCESS:       9850  HIT:       8926  MISS:        924  HIT %:    90.6193  MISS %:    9.38071   MPKI: 0.00462
PSCL2 LOAD TRANSLATION ACCESS:       9850  HIT:       8926  MISS:        924  HIT %:    90.6193  MISS %:    9.38071   MPKI: 0.00462
PSCL2 PREFETCH  REQUESTED:          0  ISSUED:          0  USEFUL:          0  USELESS:          0
PSCL2 USEFUL LOAD PREFETCHES:          0 PREFETCH ISSUED TO LOWER LEVEL:          0  ACCURACY: -nan
PSCL2 TIMELY PREFETCHES:          0 LATE PREFETCHES: 0 DROPPED PREFETCHES: 0
PSCL2 PREFETCHES SAME FILL-ORIGIN LEVEL: 0 DIFFERENT FILL-ORIGIN LEVEL: 0

LLC TOTAL     ACCESS:    1823673  HIT:    1798342  MISS:      25331  HIT %:     98.611  MISS %:    1.38901   MPKI: 0.126655
LLC LOAD      ACCESS:    1210795  HIT:    1203163  MISS:       7632  HIT %:    99.3697  MISS %:    0.63033   MPKI: 0.03816
LLC RFO       ACCESS:     208672  HIT:     199747  MISS:       8925  HIT %:     95.723  MISS %:    4.27705   MPKI: 0.044625
LLC PREFETCH  ACCESS:     105744  HIT:      97157  MISS:       8587  HIT %:    91.8794  MISS %:    8.12056   MPKI: 0.042935
AGUS PREFETCH L1 MISS: 0
LLC WRITEBACK ACCESS:     290221  HIT:     290151  MISS:         70  HIT %:    99.9759  MISS %:  0.0241196   MPKI: 0.00035
LLC LOAD TRANSLATION ACCESS:       8241  HIT:       8124  MISS:        117  HIT %:    98.5803  MISS %:    1.41973   MPKI: 0.000585
LLC PREFETCH  REQUESTED:          0  ISSUED:          0  USEFUL:       1576  USELESS:       7715
LLC USEFUL LOAD PREFETCHES:       1576 PREFETCH ISSUED TO LOWER LEVEL:       8587  ACCURACY: 18.3533
LLC TIMELY PREFETCHES:       1576 LATE PREFETCHES: 0 DROPPED PREFETCHES: 0
LLC PREFETCHES SAME FILL-ORIGIN LEVEL: 0 DIFFERENT FILL-ORIGIN LEVEL: 0
LLC AVERAGE MISS LATENCY: 141.177 cycles
LLC RQ	ACCESS:    1427718	FORWARD:          0	MERGED:          0	TO_CACHE:    1427708
LLC WQ	ACCESS:     290221	FORWARD:         10	MERGED:          0	TO_CACHE:     290221
LLC PQ	ACCESS:     105744	FORWARD:          0	MERGED:          0	TO_CACHE:     105744

LLC Dense regions hint to LLC: 0

RAW hits: 1402519
Loads Generated: 48288798
Loads sent to L1D: 46886279
Stores Generated: 26309147
Stores sent to L1D: 26309150
Major fault: 0 Minor fault: 1865
Allocated PAGES: 1865
CPU 0 L1D PC-based stride prefetcher final stats
Degree: 3

DRAM Statistics
 CHANNEL 0
 RQ ROW_BUFFER_HIT:       8094  ROW_BUFFER_MISS:      17167
 DBUS_CONGESTED:         32
 WQ ROW_BUFFER_HIT:        885  ROW_BUFFER_MISS:       9539  FULL:          0

 AVG_CONGESTED_CYCLE: 5
 All warmup complete: 2
Channel 0 Bank busy for read cycles: 0
Channel 0 Bank busy for write cycles: 0
Channel 0
Rank 0
0banks busy for read cycles: 597055815
0banks busy for write cycles: 5048
1banks busy for read cycles: 1244559
1banks busy for write cycles: 624812
2banks busy for read cycles: 266504
2banks busy for write cycles: 134068
3banks busy for read cycles: 114813
3banks busy for write cycles: 69802
4banks busy for read cycles: 57953
4banks busy for write cycles: 38382
5banks busy for read cycles: 38852
5banks busy for write cycles: 29463
6banks busy for read cycles: 25597
6banks busy for write cycles: 19293
7banks busy for read cycles: 21609
7banks busy for write cycles: 14082
8banks busy for read cycles: 15892
8banks busy for write cycles: 8758

CPU 0 Branch Prediction Accuracy: 99.8462% MPKI: 0.271815 Average ROB Occupancy at Mispredict: 55.5651
Branch types
NOT_BRANCH: 164663063 82.3315%
BRANCH_DIRECT_JUMP: 2183492 1.09175%
BRANCH_INDIRECT: 11409987 5.70499%
BRANCH_CONDITIONAL: 13666237 6.83312%
BRANCH_DIRECT_CALL: 3412328 1.70616%
BRANCH_INDIRECT_CALL: 626274 0.313137%
BRANCH_RETURN: 4038590 2.0193%
BRANCH_OTHER: 0 0%

DRAM PAGES: 1048576
Allocated PAGES: 1865
