
*** ChampSim Multicore Out-of-Order Simulator ***

Warmup Instructions: 50000000
Simulation Instructions: 200000000
Number of CPUs: 1
LLC sets: 2048
LLC ways: 16
Off-chip DRAM Size: 4096 MB Channels: 1 Width: 64-bit Data Rate: 6400 MT/s
CPU 0 runs traces/spec2k17/srv_51.champsimtrace.xz
.xz
BTB has LRU replacement policy
ITLB has LRU replacement policy
DTLB has LRU replacement policy
STLB has LRU replacement policy
L1I has LRU replacement policy
CPU 0 L1D IP-based stride prefetcher
L1D has LRU replacement policy
Initialize SRRIP state for L2C
Initialize DRRIP state for LLC
Heartbeat CPU 0 instructions: 10000001 cycles: 2876400 heartbeat IPC: 3.47657 cumulative IPC: 3.47657 (Simulation time: 0 hr 0 min 39 sec) 
Heartbeat CPU 0 instructions: 20000003 cycles: 5680296 heartbeat IPC: 3.56647 cumulative IPC: 3.52094 (Simulation time: 0 hr 1 min 16 sec) 
Heartbeat CPU 0 instructions: 30000003 cycles: 8553135 heartbeat IPC: 3.48088 cumulative IPC: 3.50749 (Simulation time: 0 hr 1 min 49 sec) 
*** Reached end of trace for Core: 0 Repeating trace: traces/spec2k17/srv_51.champsimtrace.xz
Heartbeat CPU 0 instructions: 40000002 cycles: 11419238 heartbeat IPC: 3.48906 cumulative IPC: 3.50286 (Simulation time: 0 hr 2 min 29 sec) 
Heartbeat CPU 0 instructions: 50000001 cycles: 14222675 heartbeat IPC: 3.56705 cumulative IPC: 3.51551 (Simulation time: 0 hr 3 min 9 sec) 

Warmup complete CPU 0 instructions: 50000001 cycles: 14222675 (Simulation time: 0 hr 3 min 9 sec) 

Heartbeat CPU 0 instructions: 60000000 cycles: 40230313 heartbeat IPC: 0.384502 cumulative IPC: 0.384502 (Simulation time: 0 hr 4 min 8 sec) 
*** Reached end of trace for Core: 0 Repeating trace: traces/spec2k17/srv_51.champsimtrace.xz
Heartbeat CPU 0 instructions: 70000002 cycles: 67709724 heartbeat IPC: 0.363909 cumulative IPC: 0.373922 (Simulation time: 0 hr 5 min 3 sec) 
Heartbeat CPU 0 instructions: 80000001 cycles: 84603122 heartbeat IPC: 0.591947 cumulative IPC: 0.426255 (Simulation time: 0 hr 5 min 48 sec) 
Heartbeat CPU 0 instructions: 90000001 cycles: 112093498 heartbeat IPC: 0.363764 cumulative IPC: 0.408702 (Simulation time: 0 hr 6 min 41 sec) 
*** Reached end of trace for Core: 0 Repeating trace: traces/spec2k17/srv_51.champsimtrace.xz
Heartbeat CPU 0 instructions: 100000001 cycles: 138578616 heartbeat IPC: 0.377571 cumulative IPC: 0.402072 (Simulation time: 0 hr 7 min 35 sec) 
Heartbeat CPU 0 instructions: 110000000 cycles: 156108531 heartbeat IPC: 0.570453 cumulative IPC: 0.422875 (Simulation time: 0 hr 8 min 28 sec) 
Heartbeat CPU 0 instructions: 120000000 cycles: 182666377 heartbeat IPC: 0.376537 cumulative IPC: 0.415569 (Simulation time: 0 hr 9 min 20 sec) 
*** Reached end of trace for Core: 0 Repeating trace: traces/spec2k17/srv_51.champsimtrace.xz
Heartbeat CPU 0 instructions: 130000000 cycles: 209413275 heartbeat IPC: 0.373875 cumulative IPC: 0.409856 (Simulation time: 0 hr 10 min 14 sec) 
Heartbeat CPU 0 instructions: 140000000 cycles: 228654899 heartbeat IPC: 0.519707 cumulative IPC: 0.419713 (Simulation time: 0 hr 11 min 5 sec) 
Heartbeat CPU 0 instructions: 150000000 cycles: 252769414 heartbeat IPC: 0.414688 cumulative IPC: 0.419205 (Simulation time: 0 hr 12 min 3 sec) 
*** Reached end of trace for Core: 0 Repeating trace: traces/spec2k17/srv_51.champsimtrace.xz
Heartbeat CPU 0 instructions: 160000003 cycles: 280720803 heartbeat IPC: 0.357764 cumulative IPC: 0.412761 (Simulation time: 0 hr 12 min 55 sec) 
Heartbeat CPU 0 instructions: 170000001 cycles: 300748549 heartbeat IPC: 0.499307 cumulative IPC: 0.41881 (Simulation time: 0 hr 13 min 45 sec) 
Heartbeat CPU 0 instructions: 180000002 cycles: 324940395 heartbeat IPC: 0.413362 cumulative IPC: 0.418386 (Simulation time: 0 hr 14 min 36 sec) 
*** Reached end of trace for Core: 0 Repeating trace: traces/spec2k17/srv_51.champsimtrace.xz
Heartbeat CPU 0 instructions: 190000001 cycles: 351064177 heartbeat IPC: 0.382793 cumulative IPC: 0.415626 (Simulation time: 0 hr 15 min 31 sec) 
Heartbeat CPU 0 instructions: 200000001 cycles: 373182811 heartbeat IPC: 0.452107 cumulative IPC: 0.417874 (Simulation time: 0 hr 16 min 19 sec) 
Heartbeat CPU 0 instructions: 210000002 cycles: 396929503 heartbeat IPC: 0.421111 cumulative IPC: 0.418075 (Simulation time: 0 hr 17 min 13 sec) 
*** Reached end of trace for Core: 0 Repeating trace: traces/spec2k17/srv_51.champsimtrace.xz
Heartbeat CPU 0 instructions: 220000000 cycles: 421115746 heartbeat IPC: 0.413458 cumulative IPC: 0.4178 (Simulation time: 0 hr 17 min 58 sec) 
Heartbeat CPU 0 instructions: 230000002 cycles: 445497364 heartbeat IPC: 0.410145 cumulative IPC: 0.417367 (Simulation time: 0 hr 18 min 56 sec) 
Heartbeat CPU 0 instructions: 240000001 cycles: 468913030 heartbeat IPC: 0.427064 cumulative IPC: 0.417867 (Simulation time: 0 hr 19 min 49 sec) 
*** Reached end of trace for Core: 0 Repeating trace: traces/spec2k17/srv_51.champsimtrace.xz
Heartbeat CPU 0 instructions: 250000003 cycles: 492570336 heartbeat IPC: 0.422702 cumulative IPC: 0.418106 (Simulation time: 0 hr 20 min 38 sec) 
Finished CPU 0 instructions: 200000002 cycles: 478347661 cumulative IPC: 0.418106 (Simulation time: 0 hr 20 min 38 sec) 

ChampSim completed all CPUs

Region of Interest Statistics

CPU 0 cumulative IPC: 0.418106 instructions: 200000002 cycles: 478347661
ITLB TOTAL     ACCESS:   34146858  HIT:   33255871  MISS:     890987  HIT %:    97.3907  MISS %:    2.60928   MPKI: 4.45493
ITLB LOAD TRANSLATION ACCESS:   34146858  HIT:   33255871  MISS:     890987  HIT %:    97.3907  MISS %:    2.60928   MPKI: 4.45493
ITLB PREFETCH  REQUESTED:          0  ISSUED:          0  USEFUL:          0  USELESS:          0
ITLB USEFUL LOAD PREFETCHES:          0 PREFETCH ISSUED TO LOWER LEVEL:          0  ACCURACY: -nan
ITLB TIMELY PREFETCHES:          0 LATE PREFETCHES: 0 DROPPED PREFETCHES: 0
ITLB PREFETCHES SAME FILL-ORIGIN LEVEL: 0 DIFFERENT FILL-ORIGIN LEVEL: 0
ITLB AVERAGE MISS LATENCY: 9.98119 cycles
ITLB RQ	ACCESS:   39346144	FORWARD:          0	MERGED:    4957915	TO_CACHE:   34388229

DTLB TOTAL     ACCESS:   42022527  HIT:   40975058  MISS:    1047469  HIT %:    97.5074  MISS %:    2.49264   MPKI: 5.23734
DTLB LOAD TRANSLATION ACCESS:   42022527  HIT:   40975058  MISS:    1047469  HIT %:    97.5074  MISS %:    2.49264   MPKI: 5.23734
DTLB PREFETCH  REQUESTED:          0  ISSUED:          0  USEFUL:          0  USELESS:          0
DTLB USEFUL LOAD PREFETCHES:          0 PREFETCH ISSUED TO LOWER LEVEL:          0  ACCURACY: -nan
DTLB TIMELY PREFETCHES:          0 LATE PREFETCHES: 0 DROPPED PREFETCHES: 0
DTLB PREFETCHES SAME FILL-ORIGIN LEVEL: 0 DIFFERENT FILL-ORIGIN LEVEL: 0
DTLB AVERAGE MISS LATENCY: 14.8069 cycles
DTLB RQ	ACCESS:   55070713	FORWARD:          0	MERGED:   12981590	TO_CACHE:   42089123

STLB TOTAL     ACCESS:    2050544  HIT:    1966120  MISS:      84424  HIT %:    95.8828  MISS %:    4.11715   MPKI: 0.42212
STLB LOAD TRANSLATION ACCESS:    1938456  HIT:    1854032  MISS:      84424  HIT %:    95.6448  MISS %:    4.35522   MPKI: 0.42212
STLB TRANSLATION FROM L1D PREFETCHER ACCESS:     112088  HIT:     112088  MISS:          0  HIT %:        100  MISS %:          0   MPKI: 0
STLB PREFETCH  REQUESTED:          0  ISSUED:          0  USEFUL:          0  USELESS:          0
STLB USEFUL LOAD PREFETCHES:          0 PREFETCH ISSUED TO LOWER LEVEL:          0  ACCURACY: -nan
STLB TIMELY PREFETCHES:          0 LATE PREFETCHES: 0 DROPPED PREFETCHES: 0
STLB PREFETCHES SAME FILL-ORIGIN LEVEL: 0 DIFFERENT FILL-ORIGIN LEVEL: 0
STLB AVERAGE MISS LATENCY: 82.2983 cycles
STLB RQ	ACCESS:    2275592	FORWARD:          0	MERGED:     225048	TO_CACHE:    2050544

STLB Hit, L1D data hit: 0
STLB Hit, L2C data hit: 0
STLB Hit, LLC data hit: 0
STLB Hit, LLC data miss: 0
STLB STLB hints to L2: 0
L1D TOTAL     ACCESS:   54292337  HIT:   51829356  MISS:    2462981  HIT %:    95.4635  MISS %:    4.53652   MPKI: 12.3149
L1D LOAD      ACCESS:   34032418  HIT:   32364254  MISS:    1668164  HIT %:    95.0983  MISS %:    4.90169   MPKI: 8.34082
L1D RFO       ACCESS:   19975214  HIT:   19234328  MISS:     740886  HIT %:     96.291  MISS %:    3.70903   MPKI: 3.70443
L1D PREFETCH  ACCESS:     284705  HIT:     230774  MISS:      53931  HIT %:    81.0572  MISS %:    18.9428   MPKI: 0.269655
AGUS PREFETCH L1 MISS: 0
L1D PREFETCH  REQUESTED:     756038  ISSUED:     756038  USEFUL:      23908  USELESS:      30046
L1D USEFUL LOAD PREFETCHES:      23908 PREFETCH ISSUED TO LOWER LEVEL:      86114  ACCURACY: 27.7632
L1D TIMELY PREFETCHES:      23908 LATE PREFETCHES: 9765 DROPPED PREFETCHES: 0
L1D PREFETCHES SAME FILL-ORIGIN LEVEL: 64068 DIFFERENT FILL-ORIGIN LEVEL: 22046
L1D AVERAGE MISS LATENCY: 1.04524e+06 cycles
L1D RQ	ACCESS:   46039296	FORWARD:          0	MERGED:   11597593	TO_CACHE:   34148328
L1D WQ	ACCESS:   21239484	FORWARD:     293382	MERGED:     317099	TO_CACHE:   20922385
L1D PQ	ACCESS:     418902	FORWARD:          0	MERGED:      81759	TO_CACHE:     337136

L1D UNIQUE REGIONS ACCESSED: 0
L1D REGIONS CONFLICTS: 0
L1D Cross Page Prefetch Requests: 0
L1D Same Page Prefetch Requests: 533120
L1D ROI Sum of L1D PQ occupancy: 5008868
L1D PREFETCHES PUSHED FROM L2C: 0
L1I TOTAL     ACCESS:   38621155  HIT:   33877050  MISS:    4744105  HIT %:    87.7163  MISS %:    12.2837   MPKI: 23.7205
L1I LOAD      ACCESS:   38621155  HIT:   33877050  MISS:    4744105  HIT %:    87.7163  MISS %:    12.2837   MPKI: 23.7205
L1I PREFETCH  REQUESTED:          0  ISSUED:          0  USEFUL:          0  USELESS:          0
L1I USEFUL LOAD PREFETCHES:          0 PREFETCH ISSUED TO LOWER LEVEL:          0  ACCURACY: -nan
L1I TIMELY PREFETCHES:          0 LATE PREFETCHES: 0 DROPPED PREFETCHES: 0
L1I PREFETCHES SAME FILL-ORIGIN LEVEL: 0 DIFFERENT FILL-ORIGIN LEVEL: 0
L1I AVERAGE MISS LATENCY: 23.3871 cycles
L1I RQ	ACCESS:   59219162	FORWARD:          0	MERGED:   19873018	TO_CACHE:   39346144

BTB TOTAL     ACCESS:   30738842  HIT:   24217545  MISS:    6521297  HIT %:    78.7848  MISS %:    21.2152   MPKI: 32.6065
BTB BRANCH_DIRECT_JUMP	ACCESS:    3651900  HIT:    3183732  MISS:     468168
BTB BRANCH_INDIRECT	ACCESS:   11989101  HIT:    9519360  MISS:    2469741
BTB BRANCH_CONDITIONAL	ACCESS:    8587084  HIT:    8036020  MISS:     551064
BTB BRANCH_DIRECT_CALL	ACCESS:    2662247  HIT:    1824351  MISS:     837896
BTB BRANCH_INDIRECT_CALL	ACCESS:     593188  HIT:     320085  MISS:     273103
BTB BRANCH_RETURN	ACCESS:    3255322  HIT:    1333997  MISS:    1921325
BTB BRANCH_OTHER ACCESS:          0  HIT:          0  MISS:          0

L2C TOTAL     ACCESS:    8579339  HIT:    5887768  MISS:    2691571  HIT %:    68.6273  MISS %:    31.3727   MPKI: 13.4579
L2C LOAD      ACCESS:    6402482  HIT:    4284385  MISS:    2118097  HIT %:    66.9176  MISS %:    33.0824   MPKI: 10.5905
L2C DATA LOAD MPKI: 3.61323
L2C INSTRUCTION LOAD MPKI: 6.97725
L2C RFO       ACCESS:     740514  HIT:     358185  MISS:     382329  HIT %:    48.3698  MISS %:    51.6302   MPKI: 1.91164
L2C PREFETCH  ACCESS:      77927  HIT:      29161  MISS:      48766  HIT %:    37.4209  MISS %:    62.5791   MPKI: 0.24383
AGUS PREFETCH L1 MISS: 0
L2C DATA PREFETCH MPKI: 0.24383
L2C INSTRUCTION PREFETCH MPKI: 0
L2C WRITEBACK ACCESS:    1225400  HIT:    1152933  MISS:      72467  HIT %:    94.0863  MISS %:    5.91374   MPKI: 0.362335
L2C LOAD TRANSLATION ACCESS:     133016  HIT:      63104  MISS:      69912  HIT %:    47.4409  MISS %:    52.5591   MPKI: 0.34956
L2C PREFETCH  REQUESTED:          0  ISSUED:          0  USEFUL:       4239  USELESS:      44516
L2C USEFUL LOAD PREFETCHES:       4239 PREFETCH ISSUED TO LOWER LEVEL:      54148  ACCURACY: 7.82854
L2C TIMELY PREFETCHES:       4239 LATE PREFETCHES: 5382 DROPPED PREFETCHES: 0
L2C PREFETCHES SAME FILL-ORIGIN LEVEL: 12251 DIFFERENT FILL-ORIGIN LEVEL: 0
L2C AVERAGE MISS LATENCY: 58.0528 cycles
L2C RQ	ACCESS:    7276034	FORWARD:          0	MERGED:          0	TO_CACHE:    7276012
L2C WQ	ACCESS:    1225400	FORWARD:         24	MERGED:          0	TO_CACHE:    1225400
L2C PQ	ACCESS:      86114	FORWARD:          0	MERGED:          0	TO_CACHE:      86112

L2C Instructions Evicting Data 552607
L2C Translations Evicting Data 40448
L2C Data Evicting Data 595821
L2C Instructions Evicting Instructions 816073
L2C Translations Evicting Instructions 26842
L2C Data Evicting Instructions 519171
L2C Instructions Evicting Translations 26771
L2C Translations Evicting Translations 2622
L2C Data Evicting Translations 38749
L2C Dense regions hint from L2: 0
PSCL5 TOTAL     ACCESS:      84424  HIT:      84424  MISS:          0  HIT %:        100  MISS %:          0   MPKI: 0
PSCL5 LOAD TRANSLATION ACCESS:      84424  HIT:      84424  MISS:          0  HIT %:        100  MISS %:          0   MPKI: 0
PSCL5 PREFETCH  REQUESTED:          0  ISSUED:          0  USEFUL:          0  USELESS:          0
PSCL5 USEFUL LOAD PREFETCHES:          0 PREFETCH ISSUED TO LOWER LEVEL:          0  ACCURACY: -nan
PSCL5 TIMELY PREFETCHES:          0 LATE PREFETCHES: 0 DROPPED PREFETCHES: 0
PSCL5 PREFETCHES SAME FILL-ORIGIN LEVEL: 0 DIFFERENT FILL-ORIGIN LEVEL: 0

PSCL4 TOTAL     ACCESS:      83816  HIT:      83393  MISS:        423  HIT %:    99.4953  MISS %:   0.504677   MPKI: 0.002115
PSCL4 LOAD TRANSLATION ACCESS:      83816  HIT:      83393  MISS:        423  HIT %:    99.4953  MISS %:   0.504677   MPKI: 0.002115
PSCL4 PREFETCH  REQUESTED:          0  ISSUED:          0  USEFUL:          0  USELESS:          0
PSCL4 USEFUL LOAD PREFETCHES:          0 PREFETCH ISSUED TO LOWER LEVEL:          0  ACCURACY: -nan
PSCL4 TIMELY PREFETCHES:          0 LATE PREFETCHES: 0 DROPPED PREFETCHES: 0
PSCL4 PREFETCHES SAME FILL-ORIGIN LEVEL: 0 DIFFERENT FILL-ORIGIN LEVEL: 0

PSCL3 TOTAL     ACCESS:      78580  HIT:      65347  MISS:      13233  HIT %:    83.1598  MISS %:    16.8402   MPKI: 0.066165
PSCL3 LOAD TRANSLATION ACCESS:      78580  HIT:      65347  MISS:      13233  HIT %:    83.1598  MISS %:    16.8402   MPKI: 0.066165
PSCL3 PREFETCH  REQUESTED:          0  ISSUED:          0  USEFUL:          0  USELESS:          0
PSCL3 USEFUL LOAD PREFETCHES:          0 PREFETCH ISSUED TO LOWER LEVEL:          0  ACCURACY: -nan
PSCL3 TIMELY PREFETCHES:          0 LATE PREFETCHES: 0 DROPPED PREFETCHES: 0
PSCL3 PREFETCHES SAME FILL-ORIGIN LEVEL: 0 DIFFERENT FILL-ORIGIN LEVEL: 0

PSCL2 TOTAL     ACCESS:      84424  HIT:      49488  MISS:      34936  HIT %:    58.6184  MISS %:    41.3816   MPKI: 0.17468
PSCL2 LOAD TRANSLATION ACCESS:      84424  HIT:      49488  MISS:      34936  HIT %:    58.6184  MISS %:    41.3816   MPKI: 0.17468
PSCL2 PREFETCH  REQUESTED:          0  ISSUED:          0  USEFUL:          0  USELESS:          0
PSCL2 USEFUL LOAD PREFETCHES:          0 PREFETCH ISSUED TO LOWER LEVEL:          0  ACCURACY: -nan
PSCL2 TIMELY PREFETCHES:          0 LATE PREFETCHES: 0 DROPPED PREFETCHES: 0
PSCL2 PREFETCHES SAME FILL-ORIGIN LEVEL: 0 DIFFERENT FILL-ORIGIN LEVEL: 0

LLC TOTAL     ACCESS:    3209036  HIT:    2807770  MISS:     401266  HIT %:    87.4957  MISS %:    12.5043   MPKI: 2.00633
LLC LOAD      ACCESS:    2112715  HIT:    1903059  MISS:     209656  HIT %:    90.0765  MISS %:    9.92353   MPKI: 1.04828
LLC RFO       ACCESS:     382323  HIT:     231534  MISS:     150789  HIT %:    60.5598  MISS %:    39.4402   MPKI: 0.753945
LLC PREFETCH  ACCESS:      54148  HIT:      30949  MISS:      23199  HIT %:    57.1563  MISS %:    42.8437   MPKI: 0.115995
AGUS PREFETCH L1 MISS: 0
LLC WRITEBACK ACCESS:     589938  HIT:     586976  MISS:       2962  HIT %:    99.4979  MISS %:   0.502087   MPKI: 0.01481
LLC LOAD TRANSLATION ACCESS:      69912  HIT:      55252  MISS:      14660  HIT %:    79.0308  MISS %:    20.9692   MPKI: 0.0733
LLC PREFETCH  REQUESTED:          0  ISSUED:          0  USEFUL:        323  USELESS:      23683
LLC USEFUL LOAD PREFETCHES:        323 PREFETCH ISSUED TO LOWER LEVEL:      23199  ACCURACY: 1.3923
LLC TIMELY PREFETCHES:        323 LATE PREFETCHES: 0 DROPPED PREFETCHES: 0
LLC PREFETCHES SAME FILL-ORIGIN LEVEL: 0 DIFFERENT FILL-ORIGIN LEVEL: 0
LLC AVERAGE MISS LATENCY: 195.169 cycles
LLC RQ	ACCESS:    2564956	FORWARD:          0	MERGED:          0	TO_CACHE:    2564950
LLC WQ	ACCESS:     589938	FORWARD:          6	MERGED:          0	TO_CACHE:     589938
LLC PQ	ACCESS:      54148	FORWARD:          0	MERGED:          0	TO_CACHE:      54148

LLC Dense regions hint to LLC: 0

RAW hits: 2339784
Loads Generated: 48379080
Loads sent to L1D: 46039296
Stores Generated: 21239482
Stores sent to L1D: 21239484
Major fault: 0 Minor fault: 6400
Allocated PAGES: 6400
CPU 0 L1D PC-based stride prefetcher final stats
Degree: 3

DRAM Statistics
 CHANNEL 0
 RQ ROW_BUFFER_HIT:     100722  ROW_BUFFER_MISS:     297579
 DBUS_CONGESTED:        187
 WQ ROW_BUFFER_HIT:      40502  ROW_BUFFER_MISS:     205818  FULL:          0

 AVG_CONGESTED_CYCLE: 4
 All warmup complete: 2
Channel 0 Bank busy for read cycles: 0
Channel 0 Bank busy for write cycles: 0
Channel 0
Rank 0
0banks busy for read cycles: 421978617
0banks busy for write cycles: 101717
1banks busy for read cycles: 25919863
1banks busy for write cycles: 14829149
2banks busy for read cycles: 4448945
2banks busy for write cycles: 3922971
3banks busy for read cycles: 1057564
3banks busy for write cycles: 1521588
4banks busy for read cycles: 280883
4banks busy for write cycles: 624190
5banks busy for read cycles: 153092
5banks busy for write cycles: 314631
6banks busy for read cycles: 161672
6banks busy for write cycles: 178459
7banks busy for read cycles: 263566
7banks busy for write cycles: 229367
8banks busy for read cycles: 901619
8banks busy for write cycles: 1459769

CPU 0 Branch Prediction Accuracy: 99.6854% MPKI: 0.56232 Average ROB Occupancy at Mispredict: 39.4473
Branch types
NOT_BRANCH: 164252984 82.1265%
BRANCH_DIRECT_JUMP: 3651900 1.82595%
BRANCH_INDIRECT: 11989101 5.99455%
BRANCH_CONDITIONAL: 13594936 6.79747%
BRANCH_DIRECT_CALL: 2662247 1.33112%
BRANCH_INDIRECT_CALL: 593188 0.296594%
BRANCH_RETURN: 3255322 1.62766%
BRANCH_OTHER: 0 0%

DRAM PAGES: 1048576
Allocated PAGES: 6400
