
*** ChampSim Multicore Out-of-Order Simulator ***

Warmup Instructions: 50000000
Simulation Instructions: 200000000
Number of CPUs: 1
LLC sets: 2048
LLC ways: 16
Off-chip DRAM Size: 4096 MB Channels: 1 Width: 64-bit Data Rate: 6400 MT/s
CPU 0 runs traces/spec2k17/srv_65.champsimtrace.xz
.xz
BTB has LRU replacement policy
ITLB has LRU replacement policy
DTLB has LRU replacement policy
STLB has LRU replacement policy
L1I has LRU replacement policy
CPU 0 L1D IP-based stride prefetcher
L1D has LRU replacement policy
Initialize SRRIP state for L2C
Initialize DRRIP state for LLC
Heartbeat CPU 0 instructions: 10000001 cycles: 2764077 heartbeat IPC: 3.61784 cumulative IPC: 3.61784 (Simulation time: 0 hr 0 min 39 sec) 
Heartbeat CPU 0 instructions: 20000001 cycles: 5522431 heartbeat IPC: 3.62535 cumulative IPC: 3.62159 (Simulation time: 0 hr 1 min 14 sec) 
Heartbeat CPU 0 instructions: 30000003 cycles: 8278650 heartbeat IPC: 3.62816 cumulative IPC: 3.62378 (Simulation time: 0 hr 1 min 52 sec) 
*** Reached end of trace for Core: 0 Repeating trace: traces/spec2k17/srv_65.champsimtrace.xz
Heartbeat CPU 0 instructions: 40000003 cycles: 11035910 heartbeat IPC: 3.62679 cumulative IPC: 3.62453 (Simulation time: 0 hr 2 min 25 sec) 
Heartbeat CPU 0 instructions: 50000001 cycles: 13794071 heartbeat IPC: 3.6256 cumulative IPC: 3.62475 (Simulation time: 0 hr 3 min 5 sec) 

Warmup complete CPU 0 instructions: 50000001 cycles: 13794071 (Simulation time: 0 hr 3 min 5 sec) 

Heartbeat CPU 0 instructions: 60000003 cycles: 35040305 heartbeat IPC: 0.470672 cumulative IPC: 0.470672 (Simulation time: 0 hr 3 min 54 sec) 
*** Reached end of trace for Core: 0 Repeating trace: traces/spec2k17/srv_65.champsimtrace.xz
Heartbeat CPU 0 instructions: 70000002 cycles: 56553013 heartbeat IPC: 0.464841 cumulative IPC: 0.467738 (Simulation time: 0 hr 4 min 50 sec) 
Heartbeat CPU 0 instructions: 80000003 cycles: 78065265 heartbeat IPC: 0.464851 cumulative IPC: 0.466772 (Simulation time: 0 hr 5 min 43 sec) 
Heartbeat CPU 0 instructions: 90000001 cycles: 99514442 heartbeat IPC: 0.466218 cumulative IPC: 0.466634 (Simulation time: 0 hr 6 min 33 sec) 
*** Reached end of trace for Core: 0 Repeating trace: traces/spec2k17/srv_65.champsimtrace.xz
Heartbeat CPU 0 instructions: 100000002 cycles: 121026548 heartbeat IPC: 0.464855 cumulative IPC: 0.466277 (Simulation time: 0 hr 7 min 23 sec) 
Heartbeat CPU 0 instructions: 110000000 cycles: 142377211 heartbeat IPC: 0.468369 cumulative IPC: 0.466624 (Simulation time: 0 hr 8 min 18 sec) 
Heartbeat CPU 0 instructions: 120000003 cycles: 163947672 heartbeat IPC: 0.463597 cumulative IPC: 0.466189 (Simulation time: 0 hr 9 min 11 sec) 
*** Reached end of trace for Core: 0 Repeating trace: traces/spec2k17/srv_65.champsimtrace.xz
Heartbeat CPU 0 instructions: 130000000 cycles: 185400314 heartbeat IPC: 0.466143 cumulative IPC: 0.466184 (Simulation time: 0 hr 10 min 0 sec) 
Heartbeat CPU 0 instructions: 140000003 cycles: 206786255 heartbeat IPC: 0.467597 cumulative IPC: 0.46634 (Simulation time: 0 hr 10 min 52 sec) 
Heartbeat CPU 0 instructions: 150000001 cycles: 228286551 heartbeat IPC: 0.46511 cumulative IPC: 0.466217 (Simulation time: 0 hr 11 min 43 sec) 
*** Reached end of trace for Core: 0 Repeating trace: traces/spec2k17/srv_65.champsimtrace.xz
Heartbeat CPU 0 instructions: 160000003 cycles: 249660978 heartbeat IPC: 0.467849 cumulative IPC: 0.466365 (Simulation time: 0 hr 12 min 26 sec) 
Heartbeat CPU 0 instructions: 170000002 cycles: 271178487 heartbeat IPC: 0.464738 cumulative IPC: 0.466229 (Simulation time: 0 hr 13 min 24 sec) 
Heartbeat CPU 0 instructions: 180000000 cycles: 292669577 heartbeat IPC: 0.465309 cumulative IPC: 0.466158 (Simulation time: 0 hr 14 min 14 sec) 
*** Reached end of trace for Core: 0 Repeating trace: traces/spec2k17/srv_65.champsimtrace.xz
Heartbeat CPU 0 instructions: 190000003 cycles: 313816909 heartbeat IPC: 0.472873 cumulative IPC: 0.466631 (Simulation time: 0 hr 15 min 8 sec) 
Heartbeat CPU 0 instructions: 200000002 cycles: 335442960 heartbeat IPC: 0.462405 cumulative IPC: 0.466347 (Simulation time: 0 hr 16 min 0 sec) 
Heartbeat CPU 0 instructions: 210000000 cycles: 356953883 heartbeat IPC: 0.46488 cumulative IPC: 0.466255 (Simulation time: 0 hr 16 min 59 sec) 
*** Reached end of trace for Core: 0 Repeating trace: traces/spec2k17/srv_65.champsimtrace.xz
Heartbeat CPU 0 instructions: 220000000 cycles: 378053370 heartbeat IPC: 0.473945 cumulative IPC: 0.4667 (Simulation time: 0 hr 17 min 51 sec) 
Heartbeat CPU 0 instructions: 230000003 cycles: 399589980 heartbeat IPC: 0.464326 cumulative IPC: 0.466568 (Simulation time: 0 hr 18 min 42 sec) 
Heartbeat CPU 0 instructions: 240000000 cycles: 421159740 heartbeat IPC: 0.463612 cumulative IPC: 0.466411 (Simulation time: 0 hr 19 min 32 sec) 
*** Reached end of trace for Core: 0 Repeating trace: traces/spec2k17/srv_65.champsimtrace.xz
Heartbeat CPU 0 instructions: 250000002 cycles: 442290667 heartbeat IPC: 0.47324 cumulative IPC: 0.466748 (Simulation time: 0 hr 20 min 28 sec) 
Finished CPU 0 instructions: 200000001 cycles: 428496596 cumulative IPC: 0.466748 (Simulation time: 0 hr 20 min 28 sec) 

ChampSim completed all CPUs

Region of Interest Statistics

CPU 0 cumulative IPC: 0.466748 instructions: 200000001 cycles: 428496596
ITLB TOTAL     ACCESS:   31224261  HIT:   30421551  MISS:     802710  HIT %:    97.4292  MISS %:    2.57079   MPKI: 4.01355
ITLB LOAD TRANSLATION ACCESS:   31224261  HIT:   30421551  MISS:     802710  HIT %:    97.4292  MISS %:    2.57079   MPKI: 4.01355
ITLB PREFETCH  REQUESTED:          0  ISSUED:          0  USEFUL:          0  USELESS:          0
ITLB USEFUL LOAD PREFETCHES:          0 PREFETCH ISSUED TO LOWER LEVEL:          0  ACCURACY: -nan
ITLB TIMELY PREFETCHES:          0 LATE PREFETCHES: 0 DROPPED PREFETCHES: 0
ITLB PREFETCHES SAME FILL-ORIGIN LEVEL: 0 DIFFERENT FILL-ORIGIN LEVEL: 0
ITLB AVERAGE MISS LATENCY: 13.2354 cycles
ITLB RQ	ACCESS:   38108342	FORWARD:          0	MERGED:    6681108	TO_CACHE:   31427234

DTLB TOTAL     ACCESS:   36933620  HIT:   34584618  MISS:    2349002  HIT %:    93.6399  MISS %:    6.36006   MPKI: 11.745
DTLB LOAD TRANSLATION ACCESS:   36933620  HIT:   34584618  MISS:    2349002  HIT %:    93.6399  MISS %:    6.36006   MPKI: 11.745
DTLB PREFETCH  REQUESTED:          0  ISSUED:          0  USEFUL:          0  USELESS:          0
DTLB USEFUL LOAD PREFETCHES:          0 PREFETCH ISSUED TO LOWER LEVEL:          0  ACCURACY: -nan
DTLB TIMELY PREFETCHES:          0 LATE PREFETCHES: 0 DROPPED PREFETCHES: 0
DTLB PREFETCHES SAME FILL-ORIGIN LEVEL: 0 DIFFERENT FILL-ORIGIN LEVEL: 0
DTLB AVERAGE MISS LATENCY: 13.6989 cycles
DTLB RQ	ACCESS:   47390316	FORWARD:          0	MERGED:   10304436	TO_CACHE:   37085880

STLB TOTAL     ACCESS:    3221883  HIT:    2907601  MISS:     314282  HIT %:    90.2454  MISS %:    9.75461   MPKI: 1.57141
STLB LOAD TRANSLATION ACCESS:    3151712  HIT:    2837430  MISS:     314282  HIT %:    90.0282  MISS %:    9.97179   MPKI: 1.57141
STLB TRANSLATION FROM L1D PREFETCHER ACCESS:      70171  HIT:      70171  MISS:          0  HIT %:        100  MISS %:          0   MPKI: 0
STLB PREFETCH  REQUESTED:          0  ISSUED:          0  USEFUL:          0  USELESS:          0
STLB USEFUL LOAD PREFETCHES:          0 PREFETCH ISSUED TO LOWER LEVEL:          0  ACCURACY: -nan
STLB TIMELY PREFETCHES:          0 LATE PREFETCHES: 0 DROPPED PREFETCHES: 0
STLB PREFETCHES SAME FILL-ORIGIN LEVEL: 0 DIFFERENT FILL-ORIGIN LEVEL: 0
STLB AVERAGE MISS LATENCY: 45.6483 cycles
STLB RQ	ACCESS:    3379266	FORWARD:          0	MERGED:     157383	TO_CACHE:    3221883

STLB Hit, L1D data hit: 0
STLB Hit, L2C data hit: 0
STLB Hit, LLC data hit: 0
STLB Hit, LLC data miss: 0
STLB STLB hints to L2: 0
L1D TOTAL     ACCESS:   47067562  HIT:   44576418  MISS:    2491144  HIT %:    94.7073  MISS %:     5.2927   MPKI: 12.4557
L1D LOAD      ACCESS:   27384553  HIT:   25276146  MISS:    2108407  HIT %:    92.3007  MISS %:    7.69926   MPKI: 10.542
L1D RFO       ACCESS:   19458704  HIT:   19126538  MISS:     332166  HIT %:     98.293  MISS %:    1.70703   MPKI: 1.66083
L1D PREFETCH  ACCESS:     224305  HIT:     173734  MISS:      50571  HIT %:    77.4544  MISS %:    22.5456   MPKI: 0.252855
AGUS PREFETCH L1 MISS: 0
L1D PREFETCH  REQUESTED:     496708  ISSUED:     496705  USEFUL:       9816  USELESS:      40759
L1D USEFUL LOAD PREFETCHES:       9816 PREFETCH ISSUED TO LOWER LEVEL:      51239  ACCURACY: 19.1573
L1D TIMELY PREFETCHES:       9816 LATE PREFETCHES: 662 DROPPED PREFETCHES: 0
L1D PREFETCHES SAME FILL-ORIGIN LEVEL: 51233 DIFFERENT FILL-ORIGIN LEVEL: 6
L1D AVERAGE MISS LATENCY: 60174.7 cycles
L1D RQ	ACCESS:   41969379	FORWARD:          0	MERGED:   14224507	TO_CACHE:   27522382
L1D WQ	ACCESS:   20212215	FORWARD:     222657	MERGED:     344281	TO_CACHE:   19867934
L1D PQ	ACCESS:     269151	FORWARD:          0	MERGED:      41430	TO_CACHE:     227554

L1D UNIQUE REGIONS ACCESSED: 0
L1D REGIONS CONFLICTS: 0
L1D Cross Page Prefetch Requests: 0
L1D Same Page Prefetch Requests: 340981
L1D ROI Sum of L1D PQ occupancy: 3015798
L1D PREFETCHES PUSHED FROM L2C: 0
L1I TOTAL     ACCESS:   36279864  HIT:   31175430  MISS:    5104434  HIT %:    85.9304  MISS %:    14.0696   MPKI: 25.5222
L1I LOAD      ACCESS:   36279864  HIT:   31175430  MISS:    5104434  HIT %:    85.9304  MISS %:    14.0696   MPKI: 25.5222
L1I PREFETCH  REQUESTED:          0  ISSUED:          0  USEFUL:          0  USELESS:          0
L1I USEFUL LOAD PREFETCHES:          0 PREFETCH ISSUED TO LOWER LEVEL:          0  ACCURACY: -nan
L1I TIMELY PREFETCHES:          0 LATE PREFETCHES: 0 DROPPED PREFETCHES: 0
L1I PREFETCHES SAME FILL-ORIGIN LEVEL: 0 DIFFERENT FILL-ORIGIN LEVEL: 0
L1I AVERAGE MISS LATENCY: 24.6015 cycles
L1I RQ	ACCESS:   57190597	FORWARD:          0	MERGED:   19082255	TO_CACHE:   38108342

BTB TOTAL     ACCESS:   22272077  HIT:   18096398  MISS:    4175679  HIT %:    81.2515  MISS %:    18.7485   MPKI: 20.8784
BTB BRANCH_DIRECT_JUMP	ACCESS:    1788227  HIT:    1559566  MISS:     228661
BTB BRANCH_INDIRECT	ACCESS:    9557706  HIT:    7536372  MISS:    2021334
BTB BRANCH_CONDITIONAL	ACCESS:    4545175  HIT:    4171652  MISS:     373523
BTB BRANCH_DIRECT_CALL	ACCESS:    2503115  HIT:    2056656  MISS:     446459
BTB BRANCH_INDIRECT_CALL	ACCESS:     686553  HIT:     645372  MISS:      41181
BTB BRANCH_RETURN	ACCESS:    3191301  HIT:    2126780  MISS:    1064521
BTB BRANCH_OTHER ACCESS:          0  HIT:          0  MISS:          0

L2C TOTAL     ACCESS:    9023677  HIT:    5971605  MISS:    3052072  HIT %:    66.1771  MISS %:    33.8229   MPKI: 15.2604
L2C LOAD      ACCESS:    7212125  HIT:    4548030  MISS:    2664095  HIT %:    63.0609  MISS %:    36.9391   MPKI: 13.3205
L2C DATA LOAD MPKI: 4.48808
L2C INSTRUCTION LOAD MPKI: 8.83239
L2C RFO       ACCESS:     332166  HIT:     188630  MISS:     143536  HIT %:    56.7879  MISS %:    43.2121   MPKI: 0.71768
L2C PREFETCH  ACCESS:      51239  HIT:      23784  MISS:      27455  HIT %:    46.4178  MISS %:    53.5822   MPKI: 0.137275
AGUS PREFETCH L1 MISS: 0
L2C DATA PREFETCH MPKI: 0.137275
L2C INSTRUCTION PREFETCH MPKI: 0
L2C WRITEBACK ACCESS:    1012131  HIT:     960736  MISS:      51395  HIT %:    94.9221  MISS %:     5.0779   MPKI: 0.256975
L2C LOAD TRANSLATION ACCESS:     416016  HIT:     250425  MISS:     165591  HIT %:     60.196  MISS %:     39.804   MPKI: 0.827955
L2C PREFETCH  REQUESTED:          0  ISSUED:          0  USEFUL:       1607  USELESS:      25842
L2C USEFUL LOAD PREFETCHES:       1607 PREFETCH ISSUED TO LOWER LEVEL:      27455  ACCURACY: 5.85321
L2C TIMELY PREFETCHES:       1607 LATE PREFETCHES: 0 DROPPED PREFETCHES: 0
L2C PREFETCHES SAME FILL-ORIGIN LEVEL: 6 DIFFERENT FILL-ORIGIN LEVEL: 0
L2C AVERAGE MISS LATENCY: 43.6548 cycles
L2C RQ	ACCESS:    7960361	FORWARD:          0	MERGED:          0	TO_CACHE:    7960307
L2C WQ	ACCESS:    1012131	FORWARD:         54	MERGED:          0	TO_CACHE:    1012131
L2C PQ	ACCESS:      51239	FORWARD:          0	MERGED:          0	TO_CACHE:      51239

L2C Instructions Evicting Data 639021
L2C Translations Evicting Data 62125
L2C Data Evicting Data 399832
L2C Instructions Evicting Instructions 1034123
L2C Translations Evicting Instructions 94244
L2C Data Evicting Instructions 608050
L2C Instructions Evicting Translations 93334
L2C Translations Evicting Translations 9222
L2C Data Evicting Translations 60726
L2C Dense regions hint from L2: 0
PSCL5 TOTAL     ACCESS:     314282  HIT:     314282  MISS:          0  HIT %:        100  MISS %:          0   MPKI: 0
PSCL5 LOAD TRANSLATION ACCESS:     314282  HIT:     314282  MISS:          0  HIT %:        100  MISS %:          0   MPKI: 0
PSCL5 PREFETCH  REQUESTED:          0  ISSUED:          0  USEFUL:          0  USELESS:          0
PSCL5 USEFUL LOAD PREFETCHES:          0 PREFETCH ISSUED TO LOWER LEVEL:          0  ACCURACY: -nan
PSCL5 TIMELY PREFETCHES:          0 LATE PREFETCHES: 0 DROPPED PREFETCHES: 0
PSCL5 PREFETCHES SAME FILL-ORIGIN LEVEL: 0 DIFFERENT FILL-ORIGIN LEVEL: 0

PSCL4 TOTAL     ACCESS:     307477  HIT:     305925  MISS:       1552  HIT %:    99.4952  MISS %:   0.504753   MPKI: 0.00776
PSCL4 LOAD TRANSLATION ACCESS:     307477  HIT:     305925  MISS:       1552  HIT %:    99.4952  MISS %:   0.504753   MPKI: 0.00776
PSCL4 PREFETCH  REQUESTED:          0  ISSUED:          0  USEFUL:          0  USELESS:          0
PSCL4 USEFUL LOAD PREFETCHES:          0 PREFETCH ISSUED TO LOWER LEVEL:          0  ACCURACY: -nan
PSCL4 TIMELY PREFETCHES:          0 LATE PREFETCHES: 0 DROPPED PREFETCHES: 0
PSCL4 PREFETCHES SAME FILL-ORIGIN LEVEL: 0 DIFFERENT FILL-ORIGIN LEVEL: 0

PSCL3 TOTAL     ACCESS:     313111  HIT:     311559  MISS:       1552  HIT %:    99.5043  MISS %:   0.495671   MPKI: 0.00776
PSCL3 LOAD TRANSLATION ACCESS:     313111  HIT:     311559  MISS:       1552  HIT %:    99.5043  MISS %:   0.495671   MPKI: 0.00776
PSCL3 PREFETCH  REQUESTED:          0  ISSUED:          0  USEFUL:          0  USELESS:          0
PSCL3 USEFUL LOAD PREFETCHES:          0 PREFETCH ISSUED TO LOWER LEVEL:          0  ACCURACY: -nan
PSCL3 TIMELY PREFETCHES:          0 LATE PREFETCHES: 0 DROPPED PREFETCHES: 0
PSCL3 PREFETCHES SAME FILL-ORIGIN LEVEL: 0 DIFFERENT FILL-ORIGIN LEVEL: 0

PSCL2 TOTAL     ACCESS:     314282  HIT:     215652  MISS:      98630  HIT %:    68.6174  MISS %:    31.3826   MPKI: 0.49315
PSCL2 LOAD TRANSLATION ACCESS:     314282  HIT:     215652  MISS:      98630  HIT %:    68.6174  MISS %:    31.3826   MPKI: 0.49315
PSCL2 PREFETCH  REQUESTED:          0  ISSUED:          0  USEFUL:          0  USELESS:          0
PSCL2 USEFUL LOAD PREFETCHES:          0 PREFETCH ISSUED TO LOWER LEVEL:          0  ACCURACY: -nan
PSCL2 TIMELY PREFETCHES:          0 LATE PREFETCHES: 0 DROPPED PREFETCHES: 0
PSCL2 PREFETCHES SAME FILL-ORIGIN LEVEL: 0 DIFFERENT FILL-ORIGIN LEVEL: 0

LLC TOTAL     ACCESS:    3423073  HIT:    3138484  MISS:     284589  HIT %:    91.6862  MISS %:    8.31385   MPKI: 1.42294
LLC LOAD      ACCESS:    2664095  HIT:    2443258  MISS:     220837  HIT %:    91.7106  MISS %:    8.28938   MPKI: 1.10418
LLC RFO       ACCESS:     143536  HIT:      96446  MISS:      47090  HIT %:    67.1929  MISS %:    32.8071   MPKI: 0.23545
LLC PREFETCH  ACCESS:      27455  HIT:      22184  MISS:       5271  HIT %:    80.8013  MISS %:    19.1987   MPKI: 0.026355
AGUS PREFETCH L1 MISS: 0
LLC WRITEBACK ACCESS:     422396  HIT:     420591  MISS:       1805  HIT %:    99.5727  MISS %:   0.427324   MPKI: 0.009025
LLC LOAD TRANSLATION ACCESS:     165591  HIT:     156005  MISS:       9586  HIT %:     94.211  MISS %:    5.78896   MPKI: 0.04793
LLC PREFETCH  REQUESTED:          0  ISSUED:          0  USEFUL:        662  USELESS:       4757
LLC USEFUL LOAD PREFETCHES:        662 PREFETCH ISSUED TO LOWER LEVEL:       5271  ACCURACY: 12.5593
LLC TIMELY PREFETCHES:        662 LATE PREFETCHES: 0 DROPPED PREFETCHES: 0
LLC PREFETCHES SAME FILL-ORIGIN LEVEL: 0 DIFFERENT FILL-ORIGIN LEVEL: 0
LLC AVERAGE MISS LATENCY: 151.854 cycles
LLC RQ	ACCESS:    2973222	FORWARD:          0	MERGED:          0	TO_CACHE:    2973222
LLC WQ	ACCESS:     422396	FORWARD:          0	MERGED:          0	TO_CACHE:     422396
LLC PQ	ACCESS:      27455	FORWARD:          0	MERGED:          0	TO_CACHE:      27455

LLC Dense regions hint to LLC: 0

RAW hits: 2858016
Loads Generated: 44827397
Loads sent to L1D: 41969379
Stores Generated: 20212209
Stores sent to L1D: 20212215
Major fault: 0 Minor fault: 5727
Allocated PAGES: 5727
CPU 0 L1D PC-based stride prefetcher final stats
Degree: 3

DRAM Statistics
 CHANNEL 0
 RQ ROW_BUFFER_HIT:      54198  ROW_BUFFER_MISS:     228586
 DBUS_CONGESTED:        165
 WQ ROW_BUFFER_HIT:      26255  ROW_BUFFER_MISS:     183000  FULL:          0

 AVG_CONGESTED_CYCLE: 4
 All warmup complete: 2
Channel 0 Bank busy for read cycles: 0
Channel 0 Bank busy for write cycles: 0
Channel 0
Rank 0
0banks busy for read cycles: 375215949
0banks busy for write cycles: 116756
1banks busy for read cycles: 25370010
1banks busy for write cycles: 16161490
2banks busy for read cycles: 3533083
2banks busy for write cycles: 3770115
3banks busy for read cycles: 519669
3banks busy for write cycles: 1258984
4banks busy for read cycles: 285875
4banks busy for write cycles: 709836
5banks busy for read cycles: 106873
5banks busy for write cycles: 441790
6banks busy for read cycles: 72517
6banks busy for write cycles: 306741
7banks busy for read cycles: 53995
7banks busy for write cycles: 254898
8banks busy for read cycles: 64062
8banks busy for write cycles: 253954

CPU 0 Branch Prediction Accuracy: 99.8638% MPKI: 0.244845 Average ROB Occupancy at Mispredict: 56.3272
Branch types
NOT_BRANCH: 164053662 82.0268%
BRANCH_DIRECT_JUMP: 1788227 0.894113%
BRANCH_INDIRECT: 9557706 4.77885%
BRANCH_CONDITIONAL: 18219125 9.10956%
BRANCH_DIRECT_CALL: 2503115 1.25156%
BRANCH_INDIRECT_CALL: 686553 0.343276%
BRANCH_RETURN: 3191301 1.59565%
BRANCH_OTHER: 0 0%

DRAM PAGES: 1048576
Allocated PAGES: 5727
