
*** ChampSim Multicore Out-of-Order Simulator ***

Warmup Instructions: 50000000
Simulation Instructions: 200000000
Number of CPUs: 1
LLC sets: 2048
LLC ways: 16
Off-chip DRAM Size: 4096 MB Channels: 1 Width: 64-bit Data Rate: 6400 MT/s
CPU 0 runs traces/spec2k17/srv_49.champsimtrace.xz
.xz
BTB has LRU replacement policy
ITLB has LRU replacement policy
DTLB has LRU replacement policy
STLB has LRU replacement policy
L1I has LRU replacement policy
CPU 0 L1D IP-based stride prefetcher
L1D has LRU replacement policy
Initialize SRRIP state for L2C
Initialize DRRIP state for LLC
Heartbeat CPU 0 instructions: 10000002 cycles: 2893761 heartbeat IPC: 3.45571 cumulative IPC: 3.45571 (Simulation time: 0 hr 0 min 41 sec) 
Heartbeat CPU 0 instructions: 20000001 cycles: 5821152 heartbeat IPC: 3.41601 cumulative IPC: 3.43575 (Simulation time: 0 hr 1 min 18 sec) 
Heartbeat CPU 0 instructions: 30000003 cycles: 8734293 heartbeat IPC: 3.43272 cumulative IPC: 3.43474 (Simulation time: 0 hr 2 min 1 sec) 
*** Reached end of trace for Core: 0 Repeating trace: traces/spec2k17/srv_49.champsimtrace.xz
Heartbeat CPU 0 instructions: 40000000 cycles: 11623432 heartbeat IPC: 3.46124 cumulative IPC: 3.44132 (Simulation time: 0 hr 2 min 42 sec) 
Heartbeat CPU 0 instructions: 50000001 cycles: 14550613 heartbeat IPC: 3.41626 cumulative IPC: 3.43628 (Simulation time: 0 hr 3 min 25 sec) 

Warmup complete CPU 0 instructions: 50000001 cycles: 14550613 (Simulation time: 0 hr 3 min 25 sec) 

Heartbeat CPU 0 instructions: 60000003 cycles: 35655351 heartbeat IPC: 0.473827 cumulative IPC: 0.473827 (Simulation time: 0 hr 4 min 17 sec) 
*** Reached end of trace for Core: 0 Repeating trace: traces/spec2k17/srv_49.champsimtrace.xz
Heartbeat CPU 0 instructions: 70000001 cycles: 58592027 heartbeat IPC: 0.435983 cumulative IPC: 0.454118 (Simulation time: 0 hr 5 min 8 sec) 
Heartbeat CPU 0 instructions: 80000003 cycles: 81474630 heartbeat IPC: 0.437013 cumulative IPC: 0.44827 (Simulation time: 0 hr 6 min 3 sec) 
Heartbeat CPU 0 instructions: 90000000 cycles: 104082189 heartbeat IPC: 0.44233 cumulative IPC: 0.44677 (Simulation time: 0 hr 7 min 1 sec) 
*** Reached end of trace for Core: 0 Repeating trace: traces/spec2k17/srv_49.champsimtrace.xz
Heartbeat CPU 0 instructions: 100000000 cycles: 127266052 heartbeat IPC: 0.431334 cumulative IPC: 0.443595 (Simulation time: 0 hr 7 min 52 sec) 
Heartbeat CPU 0 instructions: 110000000 cycles: 149010662 heartbeat IPC: 0.459884 cumulative IPC: 0.446229 (Simulation time: 0 hr 8 min 42 sec) 
Heartbeat CPU 0 instructions: 120000003 cycles: 173105055 heartbeat IPC: 0.415034 cumulative IPC: 0.441489 (Simulation time: 0 hr 9 min 32 sec) 
*** Reached end of trace for Core: 0 Repeating trace: traces/spec2k17/srv_49.champsimtrace.xz
Heartbeat CPU 0 instructions: 130000001 cycles: 194081259 heartbeat IPC: 0.476731 cumulative IPC: 0.445606 (Simulation time: 0 hr 10 min 32 sec) 
Heartbeat CPU 0 instructions: 140000002 cycles: 216562911 heartbeat IPC: 0.444807 cumulative IPC: 0.445517 (Simulation time: 0 hr 11 min 24 sec) 
Heartbeat CPU 0 instructions: 150000002 cycles: 241053904 heartbeat IPC: 0.408313 cumulative IPC: 0.441495 (Simulation time: 0 hr 12 min 15 sec) 
*** Reached end of trace for Core: 0 Repeating trace: traces/spec2k17/srv_49.champsimtrace.xz
Heartbeat CPU 0 instructions: 160000003 cycles: 261782854 heartbeat IPC: 0.482417 cumulative IPC: 0.444926 (Simulation time: 0 hr 13 min 7 sec) 
Heartbeat CPU 0 instructions: 170000002 cycles: 284427057 heartbeat IPC: 0.441614 cumulative IPC: 0.444648 (Simulation time: 0 hr 13 min 57 sec) 
Heartbeat CPU 0 instructions: 180000000 cycles: 308361384 heartbeat IPC: 0.41781 cumulative IPC: 0.442462 (Simulation time: 0 hr 14 min 54 sec) 
*** Reached end of trace for Core: 0 Repeating trace: traces/spec2k17/srv_49.champsimtrace.xz
Heartbeat CPU 0 instructions: 190000003 cycles: 329596384 heartbeat IPC: 0.470921 cumulative IPC: 0.44438 (Simulation time: 0 hr 15 min 46 sec) 
Heartbeat CPU 0 instructions: 200000001 cycles: 351846798 heartbeat IPC: 0.44943 cumulative IPC: 0.444713 (Simulation time: 0 hr 16 min 38 sec) 
Heartbeat CPU 0 instructions: 210000000 cycles: 375155658 heartbeat IPC: 0.429021 cumulative IPC: 0.443699 (Simulation time: 0 hr 17 min 36 sec) 
*** Reached end of trace for Core: 0 Repeating trace: traces/spec2k17/srv_49.champsimtrace.xz
Heartbeat CPU 0 instructions: 220000000 cycles: 397303656 heartbeat IPC: 0.451508 cumulative IPC: 0.444151 (Simulation time: 0 hr 18 min 33 sec) 
Heartbeat CPU 0 instructions: 230000003 cycles: 418611189 heartbeat IPC: 0.469318 cumulative IPC: 0.445478 (Simulation time: 0 hr 19 min 27 sec) 
Heartbeat CPU 0 instructions: 240000002 cycles: 441937325 heartbeat IPC: 0.428704 cumulative IPC: 0.444562 (Simulation time: 0 hr 20 min 20 sec) 
*** Reached end of trace for Core: 0 Repeating trace: traces/spec2k17/srv_49.champsimtrace.xz
Heartbeat CPU 0 instructions: 250000002 cycles: 464561410 heartbeat IPC: 0.442007 cumulative IPC: 0.444434 (Simulation time: 0 hr 21 min 20 sec) 
Finished CPU 0 instructions: 200000001 cycles: 450010797 cumulative IPC: 0.444434 (Simulation time: 0 hr 21 min 20 sec) 

ChampSim completed all CPUs

Region of Interest Statistics

CPU 0 cumulative IPC: 0.444434 instructions: 200000001 cycles: 450010797
ITLB TOTAL     ACCESS:   34598180  HIT:   33557092  MISS:    1041088  HIT %:    96.9909  MISS %:    3.00908   MPKI: 5.20544
ITLB LOAD TRANSLATION ACCESS:   34598180  HIT:   33557092  MISS:    1041088  HIT %:    96.9909  MISS %:    3.00908   MPKI: 5.20544
ITLB PREFETCH  REQUESTED:          0  ISSUED:          0  USEFUL:          0  USELESS:          0
ITLB USEFUL LOAD PREFETCHES:          0 PREFETCH ISSUED TO LOWER LEVEL:          0  ACCURACY: -nan
ITLB TIMELY PREFETCHES:          0 LATE PREFETCHES: 0 DROPPED PREFETCHES: 0
ITLB PREFETCHES SAME FILL-ORIGIN LEVEL: 0 DIFFERENT FILL-ORIGIN LEVEL: 0
ITLB AVERAGE MISS LATENCY: 10.1 cycles
ITLB RQ	ACCESS:   39429910	FORWARD:          0	MERGED:    4538515	TO_CACHE:   34891395

DTLB TOTAL     ACCESS:   43099797  HIT:   42043543  MISS:    1056254  HIT %:    97.5493  MISS %:    2.45072   MPKI: 5.28127
DTLB LOAD TRANSLATION ACCESS:   43099797  HIT:   42043543  MISS:    1056254  HIT %:    97.5493  MISS %:    2.45072   MPKI: 5.28127
DTLB PREFETCH  REQUESTED:          0  ISSUED:          0  USEFUL:          0  USELESS:          0
DTLB USEFUL LOAD PREFETCHES:          0 PREFETCH ISSUED TO LOWER LEVEL:          0  ACCURACY: -nan
DTLB TIMELY PREFETCHES:          0 LATE PREFETCHES: 0 DROPPED PREFETCHES: 0
DTLB PREFETCHES SAME FILL-ORIGIN LEVEL: 0 DIFFERENT FILL-ORIGIN LEVEL: 0
DTLB AVERAGE MISS LATENCY: 15.0461 cycles
DTLB RQ	ACCESS:   57835183	FORWARD:          0	MERGED:   14661804	TO_CACHE:   43173379

STLB TOTAL     ACCESS:    2257507  HIT:    2169623  MISS:      87884  HIT %:     96.107  MISS %:    3.89297   MPKI: 0.43942
STLB LOAD TRANSLATION ACCESS:    2097342  HIT:    2009458  MISS:      87884  HIT %:    95.8097  MISS %:    4.19026   MPKI: 0.43942
STLB TRANSLATION FROM L1D PREFETCHER ACCESS:     160165  HIT:     160165  MISS:          0  HIT %:        100  MISS %:          0   MPKI: 0
STLB PREFETCH  REQUESTED:          0  ISSUED:          0  USEFUL:          0  USELESS:          0
STLB USEFUL LOAD PREFETCHES:          0 PREFETCH ISSUED TO LOWER LEVEL:          0  ACCURACY: -nan
STLB TIMELY PREFETCHES:          0 LATE PREFETCHES: 0 DROPPED PREFETCHES: 0
STLB PREFETCHES SAME FILL-ORIGIN LEVEL: 0 DIFFERENT FILL-ORIGIN LEVEL: 0
STLB AVERAGE MISS LATENCY: 85.5342 cycles
STLB RQ	ACCESS:    2544557	FORWARD:          0	MERGED:     287050	TO_CACHE:    2257507

STLB Hit, L1D data hit: 0
STLB Hit, L2C data hit: 0
STLB Hit, LLC data hit: 0
STLB Hit, LLC data miss: 0
STLB STLB hints to L2: 0
L1D TOTAL     ACCESS:   56236925  HIT:   53986743  MISS:    2250182  HIT %:    95.9987  MISS %:    4.00125   MPKI: 11.2509
L1D LOAD      ACCESS:   34887065  HIT:   33411785  MISS:    1475280  HIT %:    95.7713  MISS %:    4.22873   MPKI: 7.3764
L1D RFO       ACCESS:   20973059  HIT:   20249135  MISS:     723924  HIT %:    96.5483  MISS %:    3.45169   MPKI: 3.61962
L1D PREFETCH  ACCESS:     376801  HIT:     325823  MISS:      50978  HIT %:    86.4708  MISS %:    13.5292   MPKI: 0.25489
AGUS PREFETCH L1 MISS: 0
L1D PREFETCH  REQUESTED:    1000248  ISSUED:    1000248  USEFUL:      31033  USELESS:      19952
L1D USEFUL LOAD PREFETCHES:      31033 PREFETCH ISSUED TO LOWER LEVEL:      97712  ACCURACY: 31.7597
L1D TIMELY PREFETCHES:      31033 LATE PREFETCHES: 8334 DROPPED PREFETCHES: 0
L1D PREFETCHES SAME FILL-ORIGIN LEVEL: 59516 DIFFERENT FILL-ORIGIN LEVEL: 38196
L1D AVERAGE MISS LATENCY: 911386 cycles
L1D RQ	ACCESS:   50586593	FORWARD:          0	MERGED:   15377831	TO_CACHE:   35004549
L1D WQ	ACCESS:   23216834	FORWARD:     204306	MERGED:     386200	TO_CACHE:   22830634
L1D PQ	ACCESS:     553033	FORWARD:          0	MERGED:     105725	TO_CACHE:     447215

L1D UNIQUE REGIONS ACCESSED: 0
L1D REGIONS CONFLICTS: 0
L1D Cross Page Prefetch Requests: 0
L1D Same Page Prefetch Requests: 712379
L1D ROI Sum of L1D PQ occupancy: 6401214
L1D PREFETCHES PUSHED FROM L2C: 0
L1I TOTAL     ACCESS:   38830807  HIT:   34551263  MISS:    4279544  HIT %:     88.979  MISS %:     11.021   MPKI: 21.3977
L1I LOAD      ACCESS:   38830807  HIT:   34551263  MISS:    4279544  HIT %:     88.979  MISS %:     11.021   MPKI: 21.3977
L1I PREFETCH  REQUESTED:          0  ISSUED:          0  USEFUL:          0  USELESS:          0
L1I USEFUL LOAD PREFETCHES:          0 PREFETCH ISSUED TO LOWER LEVEL:          0  ACCURACY: -nan
L1I TIMELY PREFETCHES:          0 LATE PREFETCHES: 0 DROPPED PREFETCHES: 0
L1I PREFETCHES SAME FILL-ORIGIN LEVEL: 0 DIFFERENT FILL-ORIGIN LEVEL: 0
L1I AVERAGE MISS LATENCY: 21.9266 cycles
L1I RQ	ACCESS:   60387361	FORWARD:          0	MERGED:   20957451	TO_CACHE:   39429910

BTB TOTAL     ACCESS:   31621999  HIT:   25926549  MISS:    5695450  HIT %:     81.989  MISS %:     18.011   MPKI: 28.4772
BTB BRANCH_DIRECT_JUMP	ACCESS:    3058145  HIT:    2682154  MISS:     375991
BTB BRANCH_INDIRECT	ACCESS:   12869399  HIT:   10666785  MISS:    2202614
BTB BRANCH_CONDITIONAL	ACCESS:    8093722  HIT:    7632458  MISS:     461264
BTB BRANCH_DIRECT_CALL	ACCESS:    2838199  HIT:    2154241  MISS:     683958
BTB BRANCH_INDIRECT_CALL	ACCESS:     962232  HIT:     678614  MISS:     283618
BTB BRANCH_RETURN	ACCESS:    3800302  HIT:    2112297  MISS:    1688005
BTB BRANCH_OTHER ACCESS:          0  HIT:          0  MISS:          0

L2C TOTAL     ACCESS:    7811543  HIT:    5660448  MISS:    2151095  HIT %:    72.4626  MISS %:    27.5374   MPKI: 10.7555
L2C LOAD      ACCESS:    5746460  HIT:    4167609  MISS:    1578851  HIT %:    72.5248  MISS %:    27.4752   MPKI: 7.89425
L2C DATA LOAD MPKI: 2.86582
L2C INSTRUCTION LOAD MPKI: 5.02843
L2C RFO       ACCESS:     723720  HIT:     324032  MISS:     399688  HIT %:    44.7731  MISS %:    55.2269   MPKI: 1.99844
L2C PREFETCH  ACCESS:      92246  HIT:      62727  MISS:      29519  HIT %:    67.9997  MISS %:    32.0003   MPKI: 0.147595
AGUS PREFETCH L1 MISS: 0
L2C DATA PREFETCH MPKI: 0.147595
L2C INSTRUCTION PREFETCH MPKI: 0
L2C WRITEBACK ACCESS:    1120832  HIT:    1050758  MISS:      70074  HIT %:     93.748  MISS %:    6.25196   MPKI: 0.35037
L2C LOAD TRANSLATION ACCESS:     128285  HIT:      55322  MISS:      72963  HIT %:    43.1243  MISS %:    56.8757   MPKI: 0.364815
L2C PREFETCH  REQUESTED:          0  ISSUED:          0  USEFUL:       3826  USELESS:      25702
L2C USEFUL LOAD PREFETCHES:       3826 PREFETCH ISSUED TO LOWER LEVEL:      32538  ACCURACY: 11.7586
L2C TIMELY PREFETCHES:       3826 LATE PREFETCHES: 3019 DROPPED PREFETCHES: 0
L2C PREFETCHES SAME FILL-ORIGIN LEVEL: 7483 DIFFERENT FILL-ORIGIN LEVEL: 0
L2C AVERAGE MISS LATENCY: 66.7725 cycles
L2C RQ	ACCESS:    6598495	FORWARD:          0	MERGED:          0	TO_CACHE:    6598465
L2C WQ	ACCESS:    1120832	FORWARD:         57	MERGED:          0	TO_CACHE:    1120832
L2C PQ	ACCESS:      97712	FORWARD:          0	MERGED:          0	TO_CACHE:      97685

L2C Instructions Evicting Data 482770
L2C Translations Evicting Data 39447
L2C Data Evicting Data 513763
L2C Instructions Evicting Instructions 491972
L2C Translations Evicting Instructions 30927
L2C Data Evicting Instructions 450785
L2C Instructions Evicting Translations 30945
L2C Translations Evicting Translations 2589
L2C Data Evicting Translations 37823
L2C Dense regions hint from L2: 0
PSCL5 TOTAL     ACCESS:      87884  HIT:      87884  MISS:          0  HIT %:        100  MISS %:          0   MPKI: 0
PSCL5 LOAD TRANSLATION ACCESS:      87884  HIT:      87884  MISS:          0  HIT %:        100  MISS %:          0   MPKI: 0
PSCL5 PREFETCH  REQUESTED:          0  ISSUED:          0  USEFUL:          0  USELESS:          0
PSCL5 USEFUL LOAD PREFETCHES:          0 PREFETCH ISSUED TO LOWER LEVEL:          0  ACCURACY: -nan
PSCL5 TIMELY PREFETCHES:          0 LATE PREFETCHES: 0 DROPPED PREFETCHES: 0
PSCL5 PREFETCHES SAME FILL-ORIGIN LEVEL: 0 DIFFERENT FILL-ORIGIN LEVEL: 0

PSCL4 TOTAL     ACCESS:      86408  HIT:      85780  MISS:        628  HIT %:    99.2732  MISS %:   0.726785   MPKI: 0.00314
PSCL4 LOAD TRANSLATION ACCESS:      86408  HIT:      85780  MISS:        628  HIT %:    99.2732  MISS %:   0.726785   MPKI: 0.00314
PSCL4 PREFETCH  REQUESTED:          0  ISSUED:          0  USEFUL:          0  USELESS:          0
PSCL4 USEFUL LOAD PREFETCHES:          0 PREFETCH ISSUED TO LOWER LEVEL:          0  ACCURACY: -nan
PSCL4 TIMELY PREFETCHES:          0 LATE PREFETCHES: 0 DROPPED PREFETCHES: 0
PSCL4 PREFETCHES SAME FILL-ORIGIN LEVEL: 0 DIFFERENT FILL-ORIGIN LEVEL: 0

PSCL3 TOTAL     ACCESS:      81406  HIT:      71489  MISS:       9917  HIT %:    87.8179  MISS %:    12.1821   MPKI: 0.049585
PSCL3 LOAD TRANSLATION ACCESS:      81406  HIT:      71489  MISS:       9917  HIT %:    87.8179  MISS %:    12.1821   MPKI: 0.049585
PSCL3 PREFETCH  REQUESTED:          0  ISSUED:          0  USEFUL:          0  USELESS:          0
PSCL3 USEFUL LOAD PREFETCHES:          0 PREFETCH ISSUED TO LOWER LEVEL:          0  ACCURACY: -nan
PSCL3 TIMELY PREFETCHES:          0 LATE PREFETCHES: 0 DROPPED PREFETCHES: 0
PSCL3 PREFETCHES SAME FILL-ORIGIN LEVEL: 0 DIFFERENT FILL-ORIGIN LEVEL: 0

PSCL2 TOTAL     ACCESS:      87884  HIT:      58028  MISS:      29856  HIT %:    66.0279  MISS %:    33.9721   MPKI: 0.14928
PSCL2 LOAD TRANSLATION ACCESS:      87884  HIT:      58028  MISS:      29856  HIT %:    66.0279  MISS %:    33.9721   MPKI: 0.14928
PSCL2 PREFETCH  REQUESTED:          0  ISSUED:          0  USEFUL:          0  USELESS:          0
PSCL2 USEFUL LOAD PREFETCHES:          0 PREFETCH ISSUED TO LOWER LEVEL:          0  ACCURACY: -nan
PSCL2 TIMELY PREFETCHES:          0 LATE PREFETCHES: 0 DROPPED PREFETCHES: 0
PSCL2 PREFETCHES SAME FILL-ORIGIN LEVEL: 0 DIFFERENT FILL-ORIGIN LEVEL: 0

LLC TOTAL     ACCESS:    2634138  HIT:    2145043  MISS:     489095  HIT %:    81.4324  MISS %:    18.5676   MPKI: 2.44547
LLC LOAD      ACCESS:    1575832  HIT:    1326004  MISS:     249828  HIT %:    84.1463  MISS %:    15.8537   MPKI: 1.24914
LLC RFO       ACCESS:     399688  HIT:     199848  MISS:     199840  HIT %:     50.001  MISS %:     49.999   MPKI: 0.9992
LLC PREFETCH  ACCESS:      32538  HIT:      13128  MISS:      19410  HIT %:    40.3467  MISS %:    59.6533   MPKI: 0.09705
AGUS PREFETCH L1 MISS: 0
LLC WRITEBACK ACCESS:     553117  HIT:     549242  MISS:       3875  HIT %:    99.2994  MISS %:   0.700575   MPKI: 0.019375
LLC LOAD TRANSLATION ACCESS:      72963  HIT:      56821  MISS:      16142  HIT %:    77.8765  MISS %:    22.1235   MPKI: 0.08071
LLC PREFETCH  REQUESTED:          0  ISSUED:          0  USEFUL:        938  USELESS:      18655
LLC USEFUL LOAD PREFETCHES:        938 PREFETCH ISSUED TO LOWER LEVEL:      19410  ACCURACY: 4.83256
LLC TIMELY PREFETCHES:        938 LATE PREFETCHES: 0 DROPPED PREFETCHES: 0
LLC PREFETCHES SAME FILL-ORIGIN LEVEL: 0 DIFFERENT FILL-ORIGIN LEVEL: 0
LLC AVERAGE MISS LATENCY: 166.725 cycles
LLC RQ	ACCESS:    2048483	FORWARD:          0	MERGED:          0	TO_CACHE:    2048483
LLC WQ	ACCESS:     553117	FORWARD:          0	MERGED:          0	TO_CACHE:     553117
LLC PQ	ACCESS:      32538	FORWARD:          0	MERGED:          0	TO_CACHE:      32538

LLC Dense regions hint to LLC: 0

RAW hits: 2565854
Loads Generated: 53152447
Loads sent to L1D: 50586593
Stores Generated: 23216828
Stores sent to L1D: 23216834
Major fault: 0 Minor fault: 6099
Allocated PAGES: 6099
CPU 0 L1D PC-based stride prefetcher final stats
Degree: 3

DRAM Statistics
 CHANNEL 0
 RQ ROW_BUFFER_HIT:     122184  ROW_BUFFER_MISS:     363036
 DBUS_CONGESTED:        238
 WQ ROW_BUFFER_HIT:      51714  ROW_BUFFER_MISS:     228091  FULL:          0

 AVG_CONGESTED_CYCLE: 4
 All warmup complete: 2
Channel 0 Bank busy for read cycles: 0
Channel 0 Bank busy for write cycles: 0
Channel 0
Rank 0
0banks busy for read cycles: 379368367
0banks busy for write cycles: 128322
1banks busy for read cycles: 31638550
1banks busy for write cycles: 18212962
2banks busy for read cycles: 7579343
2banks busy for write cycles: 5530517
3banks busy for read cycles: 1366480
3banks busy for write cycles: 1777555
4banks busy for read cycles: 366463
4banks busy for write cycles: 827577
5banks busy for read cycles: 231153
5banks busy for write cycles: 438891
6banks busy for read cycles: 191467
6banks busy for write cycles: 290949
7banks busy for read cycles: 202261
7banks busy for write cycles: 263004
8banks busy for read cycles: 586539
8banks busy for write cycles: 1010398

CPU 0 Branch Prediction Accuracy: 99.5147% MPKI: 0.87397 Average ROB Occupancy at Mispredict: 23.0975
Branch types
NOT_BRANCH: 163984830 81.9924%
BRANCH_DIRECT_JUMP: 3058145 1.52907%
BRANCH_INDIRECT: 12869399 6.4347%
BRANCH_CONDITIONAL: 12486555 6.24328%
BRANCH_DIRECT_CALL: 2838199 1.4191%
BRANCH_INDIRECT_CALL: 962232 0.481116%
BRANCH_RETURN: 3800302 1.90015%
BRANCH_OTHER: 0 0%

DRAM PAGES: 1048576
Allocated PAGES: 6099
