
*** ChampSim Multicore Out-of-Order Simulator ***

Warmup Instructions: 50000000
Simulation Instructions: 200000000
Number of CPUs: 1
LLC sets: 2048
LLC ways: 16
Off-chip DRAM Size: 4096 MB Channels: 1 Width: 64-bit Data Rate: 6400 MT/s
CPU 0 runs traces/spec2k17/srv_34.champsimtrace.xz
.xz
BTB has LRU replacement policy
ITLB has LRU replacement policy
DTLB has LRU replacement policy
STLB has LRU replacement policy
L1I has LRU replacement policy
CPU 0 L1D IP-based stride prefetcher
L1D has LRU replacement policy
Initialize SRRIP state for L2C
Initialize DRRIP state for LLC
Heartbeat CPU 0 instructions: 10000001 cycles: 2935863 heartbeat IPC: 3.40615 cumulative IPC: 3.40615 (Simulation time: 0 hr 0 min 43 sec) 
Heartbeat CPU 0 instructions: 20000002 cycles: 5877524 heartbeat IPC: 3.39944 cumulative IPC: 3.40279 (Simulation time: 0 hr 1 min 18 sec) 
Heartbeat CPU 0 instructions: 30000001 cycles: 8810156 heartbeat IPC: 3.40991 cumulative IPC: 3.40516 (Simulation time: 0 hr 2 min 4 sec) 
*** Reached end of trace for Core: 0 Repeating trace: traces/spec2k17/srv_34.champsimtrace.xz
Heartbeat CPU 0 instructions: 40000001 cycles: 11746590 heartbeat IPC: 3.40549 cumulative IPC: 3.40524 (Simulation time: 0 hr 2 min 50 sec) 
Heartbeat CPU 0 instructions: 50000003 cycles: 14686512 heartbeat IPC: 3.40145 cumulative IPC: 3.40448 (Simulation time: 0 hr 3 min 36 sec) 

Warmup complete CPU 0 instructions: 50000003 cycles: 14686512 (Simulation time: 0 hr 3 min 36 sec) 

Heartbeat CPU 0 instructions: 60000001 cycles: 33956531 heartbeat IPC: 0.518941 cumulative IPC: 0.518941 (Simulation time: 0 hr 4 min 40 sec) 
*** Reached end of trace for Core: 0 Repeating trace: traces/spec2k17/srv_34.champsimtrace.xz
Heartbeat CPU 0 instructions: 70000001 cycles: 53082102 heartbeat IPC: 0.52286 cumulative IPC: 0.520893 (Simulation time: 0 hr 5 min 51 sec) 
Heartbeat CPU 0 instructions: 80000003 cycles: 72319272 heartbeat IPC: 0.519827 cumulative IPC: 0.520537 (Simulation time: 0 hr 6 min 57 sec) 
Heartbeat CPU 0 instructions: 90000001 cycles: 91517213 heartbeat IPC: 0.520889 cumulative IPC: 0.520625 (Simulation time: 0 hr 8 min 9 sec) 
*** Reached end of trace for Core: 0 Repeating trace: traces/spec2k17/srv_34.champsimtrace.xz
Heartbeat CPU 0 instructions: 100000000 cycles: 110582075 heartbeat IPC: 0.524525 cumulative IPC: 0.521401 (Simulation time: 0 hr 9 min 14 sec) 
Heartbeat CPU 0 instructions: 110000000 cycles: 129779716 heartbeat IPC: 0.520897 cumulative IPC: 0.521317 (Simulation time: 0 hr 10 min 23 sec) 
Heartbeat CPU 0 instructions: 120000000 cycles: 148880234 heartbeat IPC: 0.523546 cumulative IPC: 0.521634 (Simulation time: 0 hr 11 min 31 sec) 
*** Reached end of trace for Core: 0 Repeating trace: traces/spec2k17/srv_34.champsimtrace.xz
Heartbeat CPU 0 instructions: 130000002 cycles: 167965057 heartbeat IPC: 0.523977 cumulative IPC: 0.521926 (Simulation time: 0 hr 12 min 39 sec) 
Heartbeat CPU 0 instructions: 140000001 cycles: 187104159 heartbeat IPC: 0.522491 cumulative IPC: 0.521988 (Simulation time: 0 hr 13 min 49 sec) 
Heartbeat CPU 0 instructions: 150000001 cycles: 206238784 heartbeat IPC: 0.522613 cumulative IPC: 0.522051 (Simulation time: 0 hr 14 min 55 sec) 
Heartbeat CPU 0 instructions: 160000000 cycles: 225323637 heartbeat IPC: 0.523976 cumulative IPC: 0.522225 (Simulation time: 0 hr 16 min 7 sec) 
*** Reached end of trace for Core: 0 Repeating trace: traces/spec2k17/srv_34.champsimtrace.xz
Heartbeat CPU 0 instructions: 170000000 cycles: 244406984 heartbeat IPC: 0.524017 cumulative IPC: 0.522374 (Simulation time: 0 hr 17 min 8 sec) 
Heartbeat CPU 0 instructions: 180000001 cycles: 263570258 heartbeat IPC: 0.521832 cumulative IPC: 0.522332 (Simulation time: 0 hr 18 min 16 sec) 
Heartbeat CPU 0 instructions: 190000000 cycles: 282646926 heartbeat IPC: 0.5242 cumulative IPC: 0.522465 (Simulation time: 0 hr 19 min 17 sec) 
*** Reached end of trace for Core: 0 Repeating trace: traces/spec2k17/srv_34.champsimtrace.xz
Heartbeat CPU 0 instructions: 200000000 cycles: 301680711 heartbeat IPC: 0.525382 cumulative IPC: 0.522659 (Simulation time: 0 hr 20 min 27 sec) 
Heartbeat CPU 0 instructions: 210000000 cycles: 320847684 heartbeat IPC: 0.521731 cumulative IPC: 0.522601 (Simulation time: 0 hr 21 min 32 sec) 
Heartbeat CPU 0 instructions: 220000000 cycles: 339880334 heartbeat IPC: 0.525413 cumulative IPC: 0.522765 (Simulation time: 0 hr 22 min 41 sec) 
*** Reached end of trace for Core: 0 Repeating trace: traces/spec2k17/srv_34.champsimtrace.xz
Heartbeat CPU 0 instructions: 230000003 cycles: 358955524 heartbeat IPC: 0.524241 cumulative IPC: 0.522847 (Simulation time: 0 hr 23 min 52 sec) 
Heartbeat CPU 0 instructions: 240000000 cycles: 378136684 heartbeat IPC: 0.521345 cumulative IPC: 0.522768 (Simulation time: 0 hr 24 min 49 sec) 
Heartbeat CPU 0 instructions: 250000001 cycles: 397184092 heartbeat IPC: 0.525006 cumulative IPC: 0.522879 (Simulation time: 0 hr 25 min 58 sec) 
Finished CPU 0 instructions: 200000000 cycles: 382497581 cumulative IPC: 0.522879 (Simulation time: 0 hr 25 min 58 sec) 

ChampSim completed all CPUs

Region of Interest Statistics

CPU 0 cumulative IPC: 0.522879 instructions: 200000000 cycles: 382497581
ITLB TOTAL     ACCESS:   33762738  HIT:   32220583  MISS:    1542155  HIT %:    95.4324  MISS %:    4.56762   MPKI: 7.71077
ITLB LOAD TRANSLATION ACCESS:   33762738  HIT:   32220583  MISS:    1542155  HIT %:    95.4324  MISS %:    4.56762   MPKI: 7.71077
ITLB PREFETCH  REQUESTED:          0  ISSUED:          0  USEFUL:          0  USELESS:          0
ITLB USEFUL LOAD PREFETCHES:          0 PREFETCH ISSUED TO LOWER LEVEL:          0  ACCURACY: -nan
ITLB TIMELY PREFETCHES:          0 LATE PREFETCHES: 0 DROPPED PREFETCHES: 0
ITLB PREFETCHES SAME FILL-ORIGIN LEVEL: 0 DIFFERENT FILL-ORIGIN LEVEL: 0
ITLB AVERAGE MISS LATENCY: 9.19214 cycles
ITLB RQ	ACCESS:   40661888	FORWARD:          0	MERGED:    6404552	TO_CACHE:   34257336

DTLB TOTAL     ACCESS:   40029866  HIT:   38520145  MISS:    1509721  HIT %:    96.2285  MISS %:    3.77149   MPKI: 7.54861
DTLB LOAD TRANSLATION ACCESS:   40029866  HIT:   38520145  MISS:    1509721  HIT %:    96.2285  MISS %:    3.77149   MPKI: 7.54861
DTLB PREFETCH  REQUESTED:          0  ISSUED:          0  USEFUL:          0  USELESS:          0
DTLB USEFUL LOAD PREFETCHES:          0 PREFETCH ISSUED TO LOWER LEVEL:          0  ACCURACY: -nan
DTLB TIMELY PREFETCHES:          0 LATE PREFETCHES: 0 DROPPED PREFETCHES: 0
DTLB PREFETCHES SAME FILL-ORIGIN LEVEL: 0 DIFFERENT FILL-ORIGIN LEVEL: 0
DTLB AVERAGE MISS LATENCY: 14.8157 cycles
DTLB RQ	ACCESS:   61108167	FORWARD:          0	MERGED:   20673995	TO_CACHE:   40434172

STLB TOTAL     ACCESS:    4873259  HIT:    4796990  MISS:      76269  HIT %:    98.4349  MISS %:    1.56505   MPKI: 0.381345
STLB LOAD TRANSLATION ACCESS:    3051876  HIT:    2975607  MISS:      76269  HIT %:    97.5009  MISS %:    2.49909   MPKI: 0.381345
STLB TRANSLATION FROM L1D PREFETCHER ACCESS:    1821383  HIT:    1821383  MISS:          0  HIT %:        100  MISS %:          0   MPKI: 0
STLB PREFETCH  REQUESTED:          0  ISSUED:          0  USEFUL:          0  USELESS:          0
STLB USEFUL LOAD PREFETCHES:          0 PREFETCH ISSUED TO LOWER LEVEL:          0  ACCURACY: -nan
STLB TIMELY PREFETCHES:          0 LATE PREFETCHES: 0 DROPPED PREFETCHES: 0
STLB PREFETCHES SAME FILL-ORIGIN LEVEL: 0 DIFFERENT FILL-ORIGIN LEVEL: 0
STLB AVERAGE MISS LATENCY: 118.679 cycles
STLB RQ	ACCESS:    8884890	FORWARD:          0	MERGED:    4011630	TO_CACHE:    4873260

STLB Hit, L1D data hit: 0
STLB Hit, L2C data hit: 0
STLB Hit, LLC data hit: 0
STLB Hit, LLC data miss: 0
STLB STLB hints to L2: 0
L1D TOTAL     ACCESS:   53036033  HIT:   46262281  MISS:    6773752  HIT %:     87.228  MISS %:     12.772   MPKI: 33.8688
L1D LOAD      ACCESS:   26743017  HIT:   23889637  MISS:    2853380  HIT %:    89.3304  MISS %:    10.6696   MPKI: 14.2669
L1D RFO       ACCESS:   22225751  HIT:   18542989  MISS:    3682762  HIT %:    83.4302  MISS %:    16.5698   MPKI: 18.4138
L1D PREFETCH  ACCESS:    4067265  HIT:    3829655  MISS:     237610  HIT %:     94.158  MISS %:    5.84201   MPKI: 1.18805
AGUS PREFETCH L1 MISS: 0
L1D PREFETCH  REQUESTED:   15008520  ISSUED:   15008520  USEFUL:     213256  USELESS:      24359
L1D USEFUL LOAD PREFETCHES:     213256 PREFETCH ISSUED TO LOWER LEVEL:    1315521  ACCURACY: 16.2108
L1D TIMELY PREFETCHES:     213256 LATE PREFETCHES: 508691 DROPPED PREFETCHES: 0
L1D PREFETCHES SAME FILL-ORIGIN LEVEL: 746302 DIFFERENT FILL-ORIGIN LEVEL: 569219
L1D AVERAGE MISS LATENCY: 1.54995e+07 cycles
L1D RQ	ACCESS:   45261768	FORWARD:          0	MERGED:   17843109	TO_CACHE:   27135767
L1D WQ	ACCESS:   34174261	FORWARD:     282892	MERGED:     201861	TO_CACHE:   33972400
L1D PQ	ACCESS:    9175506	FORWARD:          0	MERGED:    3342492	TO_CACHE:    5833014

L1D UNIQUE REGIONS ACCESSED: 0
L1D REGIONS CONFLICTS: 0
L1D Cross Page Prefetch Requests: 0
L1D Same Page Prefetch Requests: 10806453
L1D ROI Sum of L1D PQ occupancy: 79175342
L1D PREFETCHES PUSHED FROM L2C: 0
L1I TOTAL     ACCESS:   37995123  HIT:   28865432  MISS:    9129691  HIT %:    75.9714  MISS %:    24.0286   MPKI: 45.6485
L1I LOAD      ACCESS:   37995123  HIT:   28865432  MISS:    9129691  HIT %:    75.9714  MISS %:    24.0286   MPKI: 45.6485
L1I PREFETCH  REQUESTED:          0  ISSUED:          0  USEFUL:          0  USELESS:          0
L1I USEFUL LOAD PREFETCHES:          0 PREFETCH ISSUED TO LOWER LEVEL:          0  ACCURACY: -nan
L1I TIMELY PREFETCHES:          0 LATE PREFETCHES: 0 DROPPED PREFETCHES: 0
L1I PREFETCHES SAME FILL-ORIGIN LEVEL: 0 DIFFERENT FILL-ORIGIN LEVEL: 0
L1I AVERAGE MISS LATENCY: 16.4952 cycles
L1I RQ	ACCESS:   58950051	FORWARD:          0	MERGED:   18288163	TO_CACHE:   40661888

BTB TOTAL     ACCESS:   25683983  HIT:   24137267  MISS:    1546716  HIT %:    93.9779  MISS %:     6.0221   MPKI: 7.73358
BTB BRANCH_DIRECT_JUMP	ACCESS:    1661224  HIT:    1651564  MISS:       9660
BTB BRANCH_INDIRECT	ACCESS:    9989440  HIT:    9473851  MISS:     515589
BTB BRANCH_CONDITIONAL	ACCESS:    7185443  HIT:    7172058  MISS:      13385
BTB BRANCH_DIRECT_CALL	ACCESS:    2827619  HIT:    2794301  MISS:      33318
BTB BRANCH_INDIRECT_CALL	ACCESS:     596257  HIT:     484762  MISS:     111495
BTB BRANCH_RETURN	ACCESS:    3424000  HIT:    2560731  MISS:     863269
BTB BRANCH_OTHER ACCESS:          0  HIT:          0  MISS:          0

L2C TOTAL     ACCESS:   20683619  HIT:   14057932  MISS:    6625687  HIT %:    67.9665  MISS %:    32.0335   MPKI: 33.1284
L2C LOAD      ACCESS:   11474155  HIT:    9371942  MISS:    2102213  HIT %:    81.6787  MISS %:    18.3213   MPKI: 10.5111
L2C DATA LOAD MPKI: 7.72927
L2C INSTRUCTION LOAD MPKI: 2.78179
L2C RFO       ACCESS:    3682764  HIT:     167260  MISS:    3515504  HIT %:     4.5417  MISS %:    95.4583   MPKI: 17.5775
L2C PREFETCH  ACCESS:    1105457  HIT:     287311  MISS:     818146  HIT %:    25.9902  MISS %:    74.0098   MPKI: 4.09073
AGUS PREFETCH L1 MISS: 0
L2C DATA PREFETCH MPKI: 4.09073
L2C INSTRUCTION PREFETCH MPKI: 0
L2C WRITEBACK ACCESS:    4334843  HIT:    4185549  MISS:     149294  HIT %:     96.556  MISS %:    3.44405   MPKI: 0.74647
L2C LOAD TRANSLATION ACCESS:      86400  HIT:      45870  MISS:      40530  HIT %:    53.0903  MISS %:    46.9097   MPKI: 0.20265
L2C PREFETCH  REQUESTED:          0  ISSUED:          0  USEFUL:     143482  USELESS:     675015
L2C USEFUL LOAD PREFETCHES:     143482 PREFETCH ISSUED TO LOWER LEVEL:     927962  ACCURACY: 15.4621
L2C TIMELY PREFETCHES:     143482 LATE PREFETCHES: 109816 DROPPED PREFETCHES: 0
L2C PREFETCHES SAME FILL-ORIGIN LEVEL: 373612 DIFFERENT FILL-ORIGIN LEVEL: 0
L2C AVERAGE MISS LATENCY: 159.626 cycles
L2C RQ	ACCESS:   15243557	FORWARD:          0	MERGED:          0	TO_CACHE:   15243331
L2C WQ	ACCESS:    4334843	FORWARD:        226	MERGED:          0	TO_CACHE:    4334843
L2C PQ	ACCESS:    1315521	FORWARD:          0	MERGED:         23	TO_CACHE:    1315498

L2C Instructions Evicting Data 513382
L2C Translations Evicting Data 36866
L2C Data Evicting Data 5342638
L2C Instructions Evicting Instructions 39318
L2C Translations Evicting Instructions 3511
L2C Data Evicting Instructions 500852
L2C Instructions Evicting Translations 3659
L2C Translations Evicting Translations 153
L2C Data Evicting Translations 36014
L2C Dense regions hint from L2: 0
PSCL5 TOTAL     ACCESS:      76269  HIT:      76269  MISS:          0  HIT %:        100  MISS %:          0   MPKI: 0
PSCL5 LOAD TRANSLATION ACCESS:      76269  HIT:      76269  MISS:          0  HIT %:        100  MISS %:          0   MPKI: 0
PSCL5 PREFETCH  REQUESTED:          0  ISSUED:          0  USEFUL:          0  USELESS:          0
PSCL5 USEFUL LOAD PREFETCHES:          0 PREFETCH ISSUED TO LOWER LEVEL:          0  ACCURACY: -nan
PSCL5 TIMELY PREFETCHES:          0 LATE PREFETCHES: 0 DROPPED PREFETCHES: 0
PSCL5 PREFETCHES SAME FILL-ORIGIN LEVEL: 0 DIFFERENT FILL-ORIGIN LEVEL: 0

PSCL4 TOTAL     ACCESS:      65617  HIT:      65510  MISS:        107  HIT %:    99.8369  MISS %:   0.163067   MPKI: 0.000535
PSCL4 LOAD TRANSLATION ACCESS:      65617  HIT:      65510  MISS:        107  HIT %:    99.8369  MISS %:   0.163067   MPKI: 0.000535
PSCL4 PREFETCH  REQUESTED:          0  ISSUED:          0  USEFUL:          0  USELESS:          0
PSCL4 USEFUL LOAD PREFETCHES:          0 PREFETCH ISSUED TO LOWER LEVEL:          0  ACCURACY: -nan
PSCL4 TIMELY PREFETCHES:          0 LATE PREFETCHES: 0 DROPPED PREFETCHES: 0
PSCL4 PREFETCHES SAME FILL-ORIGIN LEVEL: 0 DIFFERENT FILL-ORIGIN LEVEL: 0

PSCL3 TOTAL     ACCESS:      76190  HIT:      75974  MISS:        216  HIT %:    99.7165  MISS %:   0.283502   MPKI: 0.00108
PSCL3 LOAD TRANSLATION ACCESS:      76190  HIT:      75974  MISS:        216  HIT %:    99.7165  MISS %:   0.283502   MPKI: 0.00108
PSCL3 PREFETCH  REQUESTED:          0  ISSUED:          0  USEFUL:          0  USELESS:          0
PSCL3 USEFUL LOAD PREFETCHES:          0 PREFETCH ISSUED TO LOWER LEVEL:          0  ACCURACY: -nan
PSCL3 TIMELY PREFETCHES:          0 LATE PREFETCHES: 0 DROPPED PREFETCHES: 0
PSCL3 PREFETCHES SAME FILL-ORIGIN LEVEL: 0 DIFFERENT FILL-ORIGIN LEVEL: 0

PSCL2 TOTAL     ACCESS:      76269  HIT:      66461  MISS:       9808  HIT %:    87.1403  MISS %:    12.8597   MPKI: 0.04904
PSCL2 LOAD TRANSLATION ACCESS:      76269  HIT:      66461  MISS:       9808  HIT %:    87.1403  MISS %:    12.8597   MPKI: 0.04904
PSCL2 PREFETCH  REQUESTED:          0  ISSUED:          0  USEFUL:          0  USELESS:          0
PSCL2 USEFUL LOAD PREFETCHES:          0 PREFETCH ISSUED TO LOWER LEVEL:          0  ACCURACY: -nan
PSCL2 TIMELY PREFETCHES:          0 LATE PREFETCHES: 0 DROPPED PREFETCHES: 0
PSCL2 PREFETCHES SAME FILL-ORIGIN LEVEL: 0 DIFFERENT FILL-ORIGIN LEVEL: 0

LLC TOTAL     ACCESS:   10493314  HIT:    4186078  MISS:    6307236  HIT %:    39.8928  MISS %:    60.1072   MPKI: 31.5362
LLC LOAD      ACCESS:    1992396  HIT:    1615232  MISS:     377164  HIT %:    81.0698  MISS %:    18.9302   MPKI: 1.88582
LLC RFO       ACCESS:    3515468  HIT:     969991  MISS:    2545477  HIT %:    27.5921  MISS %:    72.4079   MPKI: 12.7274
LLC PREFETCH  ACCESS:     927962  HIT:      47128  MISS:     880834  HIT %:    5.07866  MISS %:    94.9213   MPKI: 4.40417
AGUS PREFETCH L1 MISS: 0
LLC WRITEBACK ACCESS:    4016958  HIT:    1541662  MISS:    2475296  HIT %:    38.3788  MISS %:    61.6212   MPKI: 12.3765
LLC LOAD TRANSLATION ACCESS:      40530  HIT:      12065  MISS:      28465  HIT %:    29.7681  MISS %:    70.2319   MPKI: 0.142325
LLC PREFETCH  REQUESTED:          0  ISSUED:          0  USEFUL:       1631  USELESS:     879927
LLC USEFUL LOAD PREFETCHES:       1631 PREFETCH ISSUED TO LOWER LEVEL:     880834  ACCURACY: 0.185165
LLC TIMELY PREFETCHES:       1631 LATE PREFETCHES: 0 DROPPED PREFETCHES: 0
LLC PREFETCHES SAME FILL-ORIGIN LEVEL: 0 DIFFERENT FILL-ORIGIN LEVEL: 0
LLC AVERAGE MISS LATENCY: 138.132 cycles
LLC RQ	ACCESS:    5548443	FORWARD:          0	MERGED:          0	TO_CACHE:    5548402
LLC WQ	ACCESS:    4016962	FORWARD:         41	MERGED:          0	TO_CACHE:    4016962
LLC PQ	ACCESS:     927962	FORWARD:          0	MERGED:          0	TO_CACHE:     927962

LLC Dense regions hint to LLC: 0

RAW hits: 2483273
Loads Generated: 47745046
Loads sent to L1D: 45261768
Stores Generated: 34174248
Stores sent to L1D: 34174261
Major fault: 0 Minor fault: 8817
Allocated PAGES: 8817
CPU 0 L1D PC-based stride prefetcher final stats
Degree: 3

DRAM Statistics
 CHANNEL 0
 RQ ROW_BUFFER_HIT:    1904361  ROW_BUFFER_MISS:    1926939
 DBUS_CONGESTED:       2457
 WQ ROW_BUFFER_HIT:     519588  ROW_BUFFER_MISS:    2094650  FULL:      66925

 AVG_CONGESTED_CYCLE: 3
 All warmup complete: 2
Channel 0 Bank busy for read cycles: 0
Channel 0 Bank busy for write cycles: 0
Channel 0
Rank 0
0banks busy for read cycles: 178468893
0banks busy for write cycles: 270576
1banks busy for read cycles: 28489123
1banks busy for write cycles: 38156317
2banks busy for read cycles: 11070341
2banks busy for write cycles: 13221339
3banks busy for read cycles: 14221146
3banks busy for write cycles: 5494826
4banks busy for read cycles: 5340619
4banks busy for write cycles: 3421110
5banks busy for read cycles: 4456914
5banks busy for write cycles: 2965731
6banks busy for read cycles: 5322186
6banks busy for write cycles: 2970331
7banks busy for read cycles: 7836289
7banks busy for write cycles: 5479622
8banks busy for read cycles: 21027260
8banks busy for write cycles: 34284959

CPU 0 Branch Prediction Accuracy: 99.9482% MPKI: 0.079205 Average ROB Occupancy at Mispredict: 121.347
Branch types
NOT_BRANCH: 169447800 84.7239%
BRANCH_DIRECT_JUMP: 1661224 0.830612%
BRANCH_INDIRECT: 9989440 4.99472%
BRANCH_CONDITIONAL: 12053307 6.02665%
BRANCH_DIRECT_CALL: 2827619 1.41381%
BRANCH_INDIRECT_CALL: 596257 0.298129%
BRANCH_RETURN: 3424000 1.712%
BRANCH_OTHER: 0 0%

DRAM PAGES: 1048576
Allocated PAGES: 8817
