
*** ChampSim Multicore Out-of-Order Simulator ***

Warmup Instructions: 50000000
Simulation Instructions: 200000000
Number of CPUs: 1
LLC sets: 2048
LLC ways: 16
Off-chip DRAM Size: 4096 MB Channels: 1 Width: 64-bit Data Rate: 6400 MT/s
CPU 0 runs traces/spec2k17/srv_28.champsimtrace.xz
.xz
BTB has LRU replacement policy
ITLB has LRU replacement policy
DTLB has LRU replacement policy
STLB has LRU replacement policy
L1I has LRU replacement policy
CPU 0 L1D IP-based stride prefetcher
L1D has LRU replacement policy
Initialize SRRIP state for L2C
Initialize DRRIP state for LLC
Heartbeat CPU 0 instructions: 10000001 cycles: 2807749 heartbeat IPC: 3.56157 cumulative IPC: 3.56157 (Simulation time: 0 hr 0 min 42 sec) 
Heartbeat CPU 0 instructions: 20000003 cycles: 5612703 heartbeat IPC: 3.56512 cumulative IPC: 3.56335 (Simulation time: 0 hr 1 min 25 sec) 
Heartbeat CPU 0 instructions: 30000003 cycles: 8418382 heartbeat IPC: 3.5642 cumulative IPC: 3.56363 (Simulation time: 0 hr 2 min 7 sec) 
*** Reached end of trace for Core: 0 Repeating trace: traces/spec2k17/srv_28.champsimtrace.xz
Heartbeat CPU 0 instructions: 40000003 cycles: 11220462 heartbeat IPC: 3.56878 cumulative IPC: 3.56492 (Simulation time: 0 hr 2 min 51 sec) 
Heartbeat CPU 0 instructions: 50000002 cycles: 14024425 heartbeat IPC: 3.56638 cumulative IPC: 3.56521 (Simulation time: 0 hr 3 min 33 sec) 

Warmup complete CPU 0 instructions: 50000002 cycles: 14024425 (Simulation time: 0 hr 3 min 33 sec) 

Heartbeat CPU 0 instructions: 60000000 cycles: 27945527 heartbeat IPC: 0.718334 cumulative IPC: 0.718334 (Simulation time: 0 hr 4 min 23 sec) 
*** Reached end of trace for Core: 0 Repeating trace: traces/spec2k17/srv_28.champsimtrace.xz
Heartbeat CPU 0 instructions: 70000003 cycles: 41994809 heartbeat IPC: 0.71178 cumulative IPC: 0.715042 (Simulation time: 0 hr 5 min 10 sec) 
Heartbeat CPU 0 instructions: 80000000 cycles: 55967801 heartbeat IPC: 0.715666 cumulative IPC: 0.71525 (Simulation time: 0 hr 5 min 58 sec) 
Heartbeat CPU 0 instructions: 90000001 cycles: 69786542 heartbeat IPC: 0.723655 cumulative IPC: 0.717333 (Simulation time: 0 hr 6 min 44 sec) 
*** Reached end of trace for Core: 0 Repeating trace: traces/spec2k17/srv_28.champsimtrace.xz
Heartbeat CPU 0 instructions: 100000000 cycles: 83866178 heartbeat IPC: 0.710246 cumulative IPC: 0.715904 (Simulation time: 0 hr 7 min 29 sec) 
Heartbeat CPU 0 instructions: 110000000 cycles: 97593200 heartbeat IPC: 0.72849 cumulative IPC: 0.717972 (Simulation time: 0 hr 8 min 17 sec) 
Heartbeat CPU 0 instructions: 120000001 cycles: 111612124 heartbeat IPC: 0.713322 cumulative IPC: 0.717304 (Simulation time: 0 hr 9 min 6 sec) 
*** Reached end of trace for Core: 0 Repeating trace: traces/spec2k17/srv_28.champsimtrace.xz
Heartbeat CPU 0 instructions: 130000000 cycles: 125544565 heartbeat IPC: 0.717749 cumulative IPC: 0.717359 (Simulation time: 0 hr 9 min 59 sec) 
Heartbeat CPU 0 instructions: 140000001 cycles: 139260403 heartbeat IPC: 0.729084 cumulative IPC: 0.718643 (Simulation time: 0 hr 10 min 49 sec) 
Heartbeat CPU 0 instructions: 150000001 cycles: 153411588 heartbeat IPC: 0.706655 cumulative IPC: 0.717426 (Simulation time: 0 hr 11 min 35 sec) 
*** Reached end of trace for Core: 0 Repeating trace: traces/spec2k17/srv_28.champsimtrace.xz
Heartbeat CPU 0 instructions: 160000000 cycles: 167374136 heartbeat IPC: 0.716202 cumulative IPC: 0.717315 (Simulation time: 0 hr 12 min 24 sec) 
Heartbeat CPU 0 instructions: 170000003 cycles: 181056274 heartbeat IPC: 0.73088 cumulative IPC: 0.718426 (Simulation time: 0 hr 13 min 10 sec) 
Heartbeat CPU 0 instructions: 180000001 cycles: 195176682 heartbeat IPC: 0.708195 cumulative IPC: 0.717628 (Simulation time: 0 hr 13 min 54 sec) 
Heartbeat CPU 0 instructions: 190000001 cycles: 208932122 heartbeat IPC: 0.726985 cumulative IPC: 0.718289 (Simulation time: 0 hr 14 min 42 sec) 
*** Reached end of trace for Core: 0 Repeating trace: traces/spec2k17/srv_28.champsimtrace.xz
Heartbeat CPU 0 instructions: 200000000 cycles: 222831570 heartbeat IPC: 0.719453 cumulative IPC: 0.718366 (Simulation time: 0 hr 15 min 34 sec) 
Heartbeat CPU 0 instructions: 210000001 cycles: 236806834 heartbeat IPC: 0.71555 cumulative IPC: 0.71819 (Simulation time: 0 hr 16 min 23 sec) 
Heartbeat CPU 0 instructions: 220000000 cycles: 250624313 heartbeat IPC: 0.723721 cumulative IPC: 0.718513 (Simulation time: 0 hr 17 min 8 sec) 
*** Reached end of trace for Core: 0 Repeating trace: traces/spec2k17/srv_28.champsimtrace.xz
Heartbeat CPU 0 instructions: 230000001 cycles: 264622511 heartbeat IPC: 0.714378 cumulative IPC: 0.718282 (Simulation time: 0 hr 17 min 55 sec) 
Heartbeat CPU 0 instructions: 240000003 cycles: 278545920 heartbeat IPC: 0.718215 cumulative IPC: 0.718278 (Simulation time: 0 hr 18 min 43 sec) 
Heartbeat CPU 0 instructions: 250000001 cycles: 292366930 heartbeat IPC: 0.723536 cumulative IPC: 0.718539 (Simulation time: 0 hr 19 min 35 sec) 
Finished CPU 0 instructions: 200000001 cycles: 278342506 cumulative IPC: 0.718539 (Simulation time: 0 hr 19 min 35 sec) 

ChampSim completed all CPUs

Region of Interest Statistics

CPU 0 cumulative IPC: 0.718539 instructions: 200000001 cycles: 278342506
ITLB TOTAL     ACCESS:   32445103  HIT:   32339170  MISS:     105933  HIT %:    99.6735  MISS %:   0.326499   MPKI: 0.529665
ITLB LOAD TRANSLATION ACCESS:   32445103  HIT:   32339170  MISS:     105933  HIT %:    99.6735  MISS %:   0.326499   MPKI: 0.529665
ITLB PREFETCH  REQUESTED:          0  ISSUED:          0  USEFUL:          0  USELESS:          0
ITLB USEFUL LOAD PREFETCHES:          0 PREFETCH ISSUED TO LOWER LEVEL:          0  ACCURACY: -nan
ITLB TIMELY PREFETCHES:          0 LATE PREFETCHES: 0 DROPPED PREFETCHES: 0
ITLB PREFETCHES SAME FILL-ORIGIN LEVEL: 0 DIFFERENT FILL-ORIGIN LEVEL: 0
ITLB AVERAGE MISS LATENCY: 10.6844 cycles
ITLB RQ	ACCESS:   38244922	FORWARD:          0	MERGED:    5765271	TO_CACHE:   32479651

DTLB TOTAL     ACCESS:   40740677  HIT:   38942120  MISS:    1798557  HIT %:    95.5854  MISS %:    4.41465   MPKI: 8.99278
DTLB LOAD TRANSLATION ACCESS:   40740677  HIT:   38942120  MISS:    1798557  HIT %:    95.5854  MISS %:    4.41465   MPKI: 8.99278
DTLB PREFETCH  REQUESTED:          0  ISSUED:          0  USEFUL:          0  USELESS:          0
DTLB USEFUL LOAD PREFETCHES:          0 PREFETCH ISSUED TO LOWER LEVEL:          0  ACCURACY: -nan
DTLB TIMELY PREFETCHES:          0 LATE PREFETCHES: 0 DROPPED PREFETCHES: 0
DTLB PREFETCHES SAME FILL-ORIGIN LEVEL: 0 DIFFERENT FILL-ORIGIN LEVEL: 0
DTLB AVERAGE MISS LATENCY: 10.7429 cycles
DTLB RQ	ACCESS:   54720758	FORWARD:          0	MERGED:   13778298	TO_CACHE:   40942460

STLB TOTAL     ACCESS:    3441536  HIT:    3354410  MISS:      87126  HIT %:    97.4684  MISS %:     2.5316   MPKI: 0.43563
STLB LOAD TRANSLATION ACCESS:    1904490  HIT:    1817373  MISS:      87117  HIT %:    95.4257  MISS %:     4.5743   MPKI: 0.435585
STLB TRANSLATION FROM L1D PREFETCHER ACCESS:    1537046  HIT:    1537037  MISS:          9  HIT %:    99.9994  MISS %: 0.000585539   MPKI: 4.5e-05
STLB PREFETCH  REQUESTED:          0  ISSUED:          0  USEFUL:          8  USELESS:          0
STLB USEFUL LOAD PREFETCHES:          8 PREFETCH ISSUED TO LOWER LEVEL:          0  ACCURACY: inf
STLB TIMELY PREFETCHES:          8 LATE PREFETCHES: 0 DROPPED PREFETCHES: 0
STLB PREFETCHES SAME FILL-ORIGIN LEVEL: 0 DIFFERENT FILL-ORIGIN LEVEL: 0
STLB AVERAGE MISS LATENCY: 37.9759 cycles
STLB RQ	ACCESS:    7741957	FORWARD:          0	MERGED:    4300420	TO_CACHE:    3441537

STLB Hit, L1D data hit: 0
STLB Hit, L2C data hit: 0
STLB Hit, LLC data hit: 0
STLB Hit, LLC data miss: 0
STLB STLB hints to L2: 0
L1D TOTAL     ACCESS:   59803608  HIT:   59284637  MISS:     518971  HIT %:    99.1322  MISS %:   0.867792   MPKI: 2.59485
L1D LOAD      ACCESS:   30678983  HIT:   30332725  MISS:     346258  HIT %:    98.8714  MISS %:    1.12865   MPKI: 1.73129
L1D RFO       ACCESS:   23399897  HIT:   23265841  MISS:     134056  HIT %:    99.4271  MISS %:   0.572891   MPKI: 0.67028
L1D PREFETCH  ACCESS:    5724728  HIT:    5686071  MISS:      38657  HIT %:    99.3247  MISS %:   0.675264   MPKI: 0.193285
AGUS PREFETCH L1 MISS: 0
L1D PREFETCH  REQUESTED:   14518595  ISSUED:   14518595  USEFUL:      34289  USELESS:       4373
L1D USEFUL LOAD PREFETCHES:      34289 PREFETCH ISSUED TO LOWER LEVEL:      96941  ACCURACY: 35.371
L1D TIMELY PREFETCHES:      34289 LATE PREFETCHES: 18498 DROPPED PREFETCHES: 0
L1D PREFETCHES SAME FILL-ORIGIN LEVEL: 57155 DIFFERENT FILL-ORIGIN LEVEL: 39786
L1D AVERAGE MISS LATENCY: 5.5042e+06 cycles
L1D RQ	ACCESS:   49512459	FORWARD:          0	MERGED:   18596824	TO_CACHE:   30793869
L1D WQ	ACCESS:   24183739	FORWARD:     121766	MERGED:     256850	TO_CACHE:   23926889
L1D PQ	ACCESS:    8681128	FORWARD:          0	MERGED:    2843661	TO_CACHE:    5837467

L1D UNIQUE REGIONS ACCESSED: 0
L1D REGIONS CONFLICTS: 0
L1D Cross Page Prefetch Requests: 0
L1D Same Page Prefetch Requests: 11139738
L1D ROI Sum of L1D PQ occupancy: 76107275
L1D PREFETCHES PUSHED FROM L2C: 0
L1I TOTAL     ACCESS:   38053950  HIT:   37421421  MISS:     632529  HIT %:    98.3378  MISS %:    1.66219   MPKI: 3.16264
L1I LOAD      ACCESS:   38053950  HIT:   37421421  MISS:     632529  HIT %:    98.3378  MISS %:    1.66219   MPKI: 3.16264
L1I PREFETCH  REQUESTED:          0  ISSUED:          0  USEFUL:          0  USELESS:          0
L1I USEFUL LOAD PREFETCHES:          0 PREFETCH ISSUED TO LOWER LEVEL:          0  ACCURACY: -nan
L1I TIMELY PREFETCHES:          0 LATE PREFETCHES: 0 DROPPED PREFETCHES: 0
L1I PREFETCHES SAME FILL-ORIGIN LEVEL: 0 DIFFERENT FILL-ORIGIN LEVEL: 0
L1I AVERAGE MISS LATENCY: 16.6123 cycles
L1I RQ	ACCESS:   60430221	FORWARD:          0	MERGED:   22185299	TO_CACHE:   38244922

BTB TOTAL     ACCESS:   29604974  HIT:   27951083  MISS:    1653891  HIT %:    94.4135  MISS %:    5.58653   MPKI: 8.26945
BTB BRANCH_DIRECT_JUMP	ACCESS:    2284365  HIT:    2283256  MISS:       1109
BTB BRANCH_INDIRECT	ACCESS:   12536315  HIT:   11991074  MISS:     545241
BTB BRANCH_CONDITIONAL	ACCESS:    7228322  HIT:    7226630  MISS:       1692
BTB BRANCH_DIRECT_CALL	ACCESS:    3327463  HIT:    3324379  MISS:       3084
BTB BRANCH_INDIRECT_CALL	ACCESS:     450518  HIT:     257027  MISS:     193491
BTB BRANCH_RETURN	ACCESS:    3777991  HIT:    2868717  MISS:     909274
BTB BRANCH_OTHER ACCESS:          0  HIT:          0  MISS:          0

L2C TOTAL     ACCESS:    1467985  HIT:     949871  MISS:     518114  HIT %:    64.7058  MISS %:    35.2942   MPKI: 2.59057
L2C LOAD      ACCESS:     960166  HIT:     645077  MISS:     315089  HIT %:    67.1839  MISS %:    32.8161   MPKI: 1.57544
L2C DATA LOAD MPKI: 1.39081
L2C INSTRUCTION LOAD MPKI: 0.184635
L2C RFO       ACCESS:     134056  HIT:      10051  MISS:     124005  HIT %:    7.49761  MISS %:    92.5024   MPKI: 0.620025
L2C PREFETCH  ACCESS:      70830  HIT:      24167  MISS:      46663  HIT %:    34.1197  MISS %:    65.8803   MPKI: 0.233315
AGUS PREFETCH L1 MISS: 0
L2C DATA PREFETCH MPKI: 0.233315
L2C INSTRUCTION PREFETCH MPKI: 0
L2C WRITEBACK ACCESS:     178154  HIT:     172306  MISS:       5848  HIT %:    96.7174  MISS %:    3.28255   MPKI: 0.02924
L2C LOAD TRANSLATION ACCESS:     124761  HIT:      98256  MISS:      26505  HIT %:    78.7554  MISS %:    21.2446   MPKI: 0.132525
L2C TRANSLATION FROM L1D PREFETCHER ACCESS:         18  HIT:         14  MISS:          4  HIT %:    77.7778  MISS %:    22.2222   MPKI: 2e-05
L2C PREFETCH  REQUESTED:          0  ISSUED:          0  USEFUL:       7940  USELESS:      39015
L2C USEFUL LOAD PREFETCHES:       7940 PREFETCH ISSUED TO LOWER LEVEL:      60636  ACCURACY: 13.0945
L2C TIMELY PREFETCHES:       7940 LATE PREFETCHES: 13973 DROPPED PREFETCHES: 0
L2C PREFETCHES SAME FILL-ORIGIN LEVEL: 27344 DIFFERENT FILL-ORIGIN LEVEL: 0
L2C AVERAGE MISS LATENCY: 111.847 cycles
L2C RQ	ACCESS:    1219124	FORWARD:          0	MERGED:          0	TO_CACHE:    1219001
L2C WQ	ACCESS:     178154	FORWARD:        123	MERGED:          0	TO_CACHE:     178154
L2C PQ	ACCESS:      96941	FORWARD:          0	MERGED:          8	TO_CACHE:      96933

L2C Instructions Evicting Data 33192
L2C Translations Evicting Data 23353
L2C Data Evicting Data 393062
L2C Instructions Evicting Instructions 1972
L2C Translations Evicting Instructions 2046
L2C Data Evicting Instructions 32855
L2C Instructions Evicting Translations 1763
L2C Translations Evicting Translations 1110
L2C Data Evicting Translations 22913
L2C Dense regions hint from L2: 0
PSCL5 TOTAL     ACCESS:      87126  HIT:      87126  MISS:          0  HIT %:        100  MISS %:          0   MPKI: 0
PSCL5 LOAD TRANSLATION ACCESS:      87117  HIT:      87117  MISS:          0  HIT %:        100  MISS %:          0   MPKI: 0
PSCL5 TRANSLATION FROM L1D PREFETCHER ACCESS:          9  HIT:          9  MISS:          0  HIT %:        100  MISS %:          0   MPKI: 0
PSCL5 PREFETCH  REQUESTED:          0  ISSUED:          0  USEFUL:          0  USELESS:          0
PSCL5 USEFUL LOAD PREFETCHES:          0 PREFETCH ISSUED TO LOWER LEVEL:          0  ACCURACY: -nan
PSCL5 TIMELY PREFETCHES:          0 LATE PREFETCHES: 0 DROPPED PREFETCHES: 0
PSCL5 PREFETCHES SAME FILL-ORIGIN LEVEL: 0 DIFFERENT FILL-ORIGIN LEVEL: 0

PSCL4 TOTAL     ACCESS:      84170  HIT:      84038  MISS:        132  HIT %:    99.8432  MISS %:   0.156825   MPKI: 0.00066
PSCL4 LOAD TRANSLATION ACCESS:      84161  HIT:      84029  MISS:        132  HIT %:    99.8432  MISS %:   0.156842   MPKI: 0.00066
PSCL4 TRANSLATION FROM L1D PREFETCHER ACCESS:          9  HIT:          9  MISS:          0  HIT %:        100  MISS %:          0   MPKI: 0
PSCL4 PREFETCH  REQUESTED:          0  ISSUED:          0  USEFUL:          0  USELESS:          0
PSCL4 USEFUL LOAD PREFETCHES:          0 PREFETCH ISSUED TO LOWER LEVEL:          0  ACCURACY: -nan
PSCL4 TIMELY PREFETCHES:          0 LATE PREFETCHES: 0 DROPPED PREFETCHES: 0
PSCL4 PREFETCHES SAME FILL-ORIGIN LEVEL: 0 DIFFERENT FILL-ORIGIN LEVEL: 0

PSCL3 TOTAL     ACCESS:      86725  HIT:      86278  MISS:        447  HIT %:    99.4846  MISS %:   0.515422   MPKI: 0.002235
PSCL3 LOAD TRANSLATION ACCESS:      86716  HIT:      86269  MISS:        447  HIT %:    99.4845  MISS %:   0.515476   MPKI: 0.002235
PSCL3 TRANSLATION FROM L1D PREFETCHER ACCESS:          9  HIT:          9  MISS:          0  HIT %:        100  MISS %:          0   MPKI: 0
PSCL3 PREFETCH  REQUESTED:          0  ISSUED:          0  USEFUL:          0  USELESS:          0
PSCL3 USEFUL LOAD PREFETCHES:          0 PREFETCH ISSUED TO LOWER LEVEL:          0  ACCURACY: -nan
PSCL3 TIMELY PREFETCHES:          0 LATE PREFETCHES: 0 DROPPED PREFETCHES: 0
PSCL3 PREFETCHES SAME FILL-ORIGIN LEVEL: 0 DIFFERENT FILL-ORIGIN LEVEL: 0

PSCL2 TOTAL     ACCESS:      87126  HIT:      50052  MISS:      37074  HIT %:    57.4478  MISS %:    42.5522   MPKI: 0.18537
PSCL2 LOAD TRANSLATION ACCESS:      87126  HIT:      50052  MISS:      37074  HIT %:    57.4478  MISS %:    42.5522   MPKI: 0.18537
PSCL2 PREFETCH  REQUESTED:          0  ISSUED:          0  USEFUL:          0  USELESS:          0
PSCL2 USEFUL LOAD PREFETCHES:          0 PREFETCH ISSUED TO LOWER LEVEL:          0  ACCURACY: -nan
PSCL2 TIMELY PREFETCHES:          0 LATE PREFETCHES: 0 DROPPED PREFETCHES: 0
PSCL2 PREFETCHES SAME FILL-ORIGIN LEVEL: 0 DIFFERENT FILL-ORIGIN LEVEL: 0

LLC TOTAL     ACCESS:     672332  HIT:     391744  MISS:     280588  HIT %:    58.2665  MISS %:    41.7335   MPKI: 1.40294
LLC LOAD      ACCESS:     301116  HIT:     110476  MISS:     190640  HIT %:    36.6889  MISS %:    63.3111   MPKI: 0.9532
LLC RFO       ACCESS:     124005  HIT:      77865  MISS:      46140  HIT %:    62.7918  MISS %:    37.2082   MPKI: 0.2307
LLC PREFETCH  ACCESS:      60636  HIT:      20285  MISS:      40351  HIT %:    33.4537  MISS %:    66.5463   MPKI: 0.201755
AGUS PREFETCH L1 MISS: 0
LLC WRITEBACK ACCESS:     160066  HIT:     159101  MISS:        965  HIT %:    99.3971  MISS %:   0.602876   MPKI: 0.004825
LLC LOAD TRANSLATION ACCESS:      26505  HIT:      24013  MISS:       2492  HIT %:     90.598  MISS %:      9.402   MPKI: 0.01246
LLC TRANSLATION FROM L1D PREFETCHER ACCESS:          4  HIT:          4  MISS:          0  HIT %:        100  MISS %:          0   MPKI: 0
LLC PREFETCH  REQUESTED:          0  ISSUED:          0  USEFUL:        959  USELESS:      39732
LLC USEFUL LOAD PREFETCHES:        959 PREFETCH ISSUED TO LOWER LEVEL:      40351  ACCURACY: 2.37664
LLC TIMELY PREFETCHES:        959 LATE PREFETCHES: 0 DROPPED PREFETCHES: 0
LLC PREFETCHES SAME FILL-ORIGIN LEVEL: 0 DIFFERENT FILL-ORIGIN LEVEL: 0
LLC AVERAGE MISS LATENCY: 154.531 cycles
LLC RQ	ACCESS:     451630	FORWARD:          0	MERGED:          0	TO_CACHE:     451630
LLC WQ	ACCESS:     160066	FORWARD:          0	MERGED:          0	TO_CACHE:     160066
LLC PQ	ACCESS:      60636	FORWARD:          0	MERGED:          0	TO_CACHE:      60636

LLC Dense regions hint to LLC: 0

RAW hits: 2384794
Loads Generated: 51897258
Loads sent to L1D: 49512459
Stores Generated: 24183727
Stores sent to L1D: 24183739
Major fault: 0 Minor fault: 6201
Allocated PAGES: 6201
CPU 0 L1D PC-based stride prefetcher final stats
Degree: 3

DRAM Statistics
 CHANNEL 0
 RQ ROW_BUFFER_HIT:      71384  ROW_BUFFER_MISS:     208218
 DBUS_CONGESTED:        276
 WQ ROW_BUFFER_HIT:      11919  ROW_BUFFER_MISS:      47448  FULL:          0

 AVG_CONGESTED_CYCLE: 5
 All warmup complete: 2
Channel 0 Bank busy for read cycles: 0
Channel 0 Bank busy for write cycles: 0
Channel 0
Rank 0
0banks busy for read cycles: 245513929
0banks busy for write cycles: 31623
1banks busy for read cycles: 22576936
1banks busy for write cycles: 5613324
2banks busy for read cycles: 1307311
2banks busy for write cycles: 689292
3banks busy for read cycles: 473828
3banks busy for write cycles: 172574
4banks busy for read cycles: 311122
4banks busy for write cycles: 116358
5banks busy for read cycles: 253017
5banks busy for write cycles: 95735
6banks busy for read cycles: 251005
6banks busy for write cycles: 95058
7banks busy for read cycles: 244131
7banks busy for write cycles: 112605
8banks busy for read cycles: 309276
8banks busy for write cycles: 175383

CPU 0 Branch Prediction Accuracy: 99.7863% MPKI: 0.390065 Average ROB Occupancy at Mispredict: 19.9279
Branch types
NOT_BRANCH: 163487732 81.7439%
BRANCH_DIRECT_JUMP: 2284365 1.14218%
BRANCH_INDIRECT: 12536315 6.26816%
BRANCH_CONDITIONAL: 14135281 7.06764%
BRANCH_DIRECT_CALL: 3327463 1.66373%
BRANCH_INDIRECT_CALL: 450518 0.225259%
BRANCH_RETURN: 3777991 1.889%
BRANCH_OTHER: 0 0%

DRAM PAGES: 1048576
Allocated PAGES: 6201
