
*** ChampSim Multicore Out-of-Order Simulator ***

Warmup Instructions: 50000000
Simulation Instructions: 200000000
Number of CPUs: 1
LLC sets: 2048
LLC ways: 16
Off-chip DRAM Size: 4096 MB Channels: 1 Width: 64-bit Data Rate: 6400 MT/s
CPU 0 runs traces/spec2k17/srv_38.champsimtrace.xz
.xz
BTB has LRU replacement policy
ITLB has LRU replacement policy
DTLB has LRU replacement policy
STLB has LRU replacement policy
L1I has LRU replacement policy
CPU 0 L1D IP-based stride prefetcher
L1D has LRU replacement policy
Initialize SRRIP state for L2C
Initialize DRRIP state for LLC
Heartbeat CPU 0 instructions: 10000003 cycles: 2943172 heartbeat IPC: 3.3977 cumulative IPC: 3.3977 (Simulation time: 0 hr 0 min 45 sec) 
Heartbeat CPU 0 instructions: 20000002 cycles: 5877475 heartbeat IPC: 3.40796 cumulative IPC: 3.40282 (Simulation time: 0 hr 1 min 31 sec) 
Heartbeat CPU 0 instructions: 30000000 cycles: 8818241 heartbeat IPC: 3.40047 cumulative IPC: 3.40204 (Simulation time: 0 hr 2 min 6 sec) 
*** Reached end of trace for Core: 0 Repeating trace: traces/spec2k17/srv_38.champsimtrace.xz
Heartbeat CPU 0 instructions: 40000003 cycles: 11759682 heartbeat IPC: 3.3997 cumulative IPC: 3.40145 (Simulation time: 0 hr 2 min 49 sec) 
Heartbeat CPU 0 instructions: 50000002 cycles: 14692398 heartbeat IPC: 3.40981 cumulative IPC: 3.40312 (Simulation time: 0 hr 3 min 28 sec) 

Warmup complete CPU 0 instructions: 50000002 cycles: 14692398 (Simulation time: 0 hr 3 min 28 sec) 

Heartbeat CPU 0 instructions: 60000000 cycles: 34083465 heartbeat IPC: 0.515701 cumulative IPC: 0.515701 (Simulation time: 0 hr 4 min 40 sec) 
*** Reached end of trace for Core: 0 Repeating trace: traces/spec2k17/srv_38.champsimtrace.xz
Heartbeat CPU 0 instructions: 70000001 cycles: 53185095 heartbeat IPC: 0.523516 cumulative IPC: 0.519579 (Simulation time: 0 hr 5 min 45 sec) 
Heartbeat CPU 0 instructions: 80000000 cycles: 72272332 heartbeat IPC: 0.52391 cumulative IPC: 0.521015 (Simulation time: 0 hr 6 min 49 sec) 
Heartbeat CPU 0 instructions: 90000003 cycles: 91352059 heartbeat IPC: 0.524117 cumulative IPC: 0.521787 (Simulation time: 0 hr 7 min 55 sec) 
*** Reached end of trace for Core: 0 Repeating trace: traces/spec2k17/srv_38.champsimtrace.xz
Heartbeat CPU 0 instructions: 100000002 cycles: 110453091 heartbeat IPC: 0.523532 cumulative IPC: 0.522135 (Simulation time: 0 hr 9 min 0 sec) 
Heartbeat CPU 0 instructions: 110000000 cycles: 129497832 heartbeat IPC: 0.525079 cumulative IPC: 0.522623 (Simulation time: 0 hr 10 min 8 sec) 
Heartbeat CPU 0 instructions: 120000000 cycles: 148507502 heartbeat IPC: 0.526048 cumulative IPC: 0.52311 (Simulation time: 0 hr 11 min 13 sec) 
*** Reached end of trace for Core: 0 Repeating trace: traces/spec2k17/srv_38.champsimtrace.xz
Heartbeat CPU 0 instructions: 130000003 cycles: 167652338 heartbeat IPC: 0.522334 cumulative IPC: 0.523013 (Simulation time: 0 hr 12 min 19 sec) 
Heartbeat CPU 0 instructions: 140000001 cycles: 186660352 heartbeat IPC: 0.526094 cumulative IPC: 0.523353 (Simulation time: 0 hr 13 min 22 sec) 
Heartbeat CPU 0 instructions: 150000000 cycles: 205655162 heartbeat IPC: 0.52646 cumulative IPC: 0.523662 (Simulation time: 0 hr 14 min 28 sec) 
Heartbeat CPU 0 instructions: 160000002 cycles: 224788456 heartbeat IPC: 0.522649 cumulative IPC: 0.52357 (Simulation time: 0 hr 15 min 35 sec) 
*** Reached end of trace for Core: 0 Repeating trace: traces/spec2k17/srv_38.champsimtrace.xz
Heartbeat CPU 0 instructions: 170000000 cycles: 243860012 heartbeat IPC: 0.524341 cumulative IPC: 0.523634 (Simulation time: 0 hr 16 min 35 sec) 
Heartbeat CPU 0 instructions: 180000000 cycles: 262901613 heartbeat IPC: 0.525166 cumulative IPC: 0.523752 (Simulation time: 0 hr 17 min 46 sec) 
Heartbeat CPU 0 instructions: 190000000 cycles: 281963939 heartbeat IPC: 0.524595 cumulative IPC: 0.523812 (Simulation time: 0 hr 18 min 52 sec) 
*** Reached end of trace for Core: 0 Repeating trace: traces/spec2k17/srv_38.champsimtrace.xz
Heartbeat CPU 0 instructions: 200000000 cycles: 301026047 heartbeat IPC: 0.524601 cumulative IPC: 0.523864 (Simulation time: 0 hr 19 min 59 sec) 
Heartbeat CPU 0 instructions: 210000002 cycles: 320044973 heartbeat IPC: 0.525792 cumulative IPC: 0.523984 (Simulation time: 0 hr 21 min 11 sec) 
Heartbeat CPU 0 instructions: 220000000 cycles: 339075548 heartbeat IPC: 0.52547 cumulative IPC: 0.524072 (Simulation time: 0 hr 22 min 10 sec) 
*** Reached end of trace for Core: 0 Repeating trace: traces/spec2k17/srv_38.champsimtrace.xz
Heartbeat CPU 0 instructions: 230000001 cycles: 358123758 heartbeat IPC: 0.524984 cumulative IPC: 0.524122 (Simulation time: 0 hr 23 min 20 sec) 
Heartbeat CPU 0 instructions: 240000003 cycles: 377184652 heartbeat IPC: 0.524634 cumulative IPC: 0.524149 (Simulation time: 0 hr 24 min 21 sec) 
Heartbeat CPU 0 instructions: 250000002 cycles: 396239527 heartbeat IPC: 0.5248 cumulative IPC: 0.524182 (Simulation time: 0 hr 25 min 31 sec) 
Finished CPU 0 instructions: 200000000 cycles: 381547129 cumulative IPC: 0.524182 (Simulation time: 0 hr 25 min 31 sec) 

ChampSim completed all CPUs

Region of Interest Statistics

CPU 0 cumulative IPC: 0.524182 instructions: 200000000 cycles: 381547129
ITLB TOTAL     ACCESS:   33734203  HIT:   32210068  MISS:    1524135  HIT %:    95.4819  MISS %:    4.51807   MPKI: 7.62068
ITLB LOAD TRANSLATION ACCESS:   33734203  HIT:   32210068  MISS:    1524135  HIT %:    95.4819  MISS %:    4.51807   MPKI: 7.62068
ITLB PREFETCH  REQUESTED:          0  ISSUED:          0  USEFUL:          0  USELESS:          0
ITLB USEFUL LOAD PREFETCHES:          0 PREFETCH ISSUED TO LOWER LEVEL:          0  ACCURACY: -nan
ITLB TIMELY PREFETCHES:          0 LATE PREFETCHES: 0 DROPPED PREFETCHES: 0
ITLB PREFETCHES SAME FILL-ORIGIN LEVEL: 0 DIFFERENT FILL-ORIGIN LEVEL: 0
ITLB AVERAGE MISS LATENCY: 9.19189 cycles
ITLB RQ	ACCESS:   40611366	FORWARD:          0	MERGED:    6384821	TO_CACHE:   34226545

DTLB TOTAL     ACCESS:   39900003  HIT:   38409504  MISS:    1490499  HIT %:    96.2644  MISS %:    3.73559   MPKI: 7.45249
DTLB LOAD TRANSLATION ACCESS:   39900003  HIT:   38409504  MISS:    1490499  HIT %:    96.2644  MISS %:    3.73559   MPKI: 7.45249
DTLB PREFETCH  REQUESTED:          0  ISSUED:          0  USEFUL:          0  USELESS:          0
DTLB USEFUL LOAD PREFETCHES:          0 PREFETCH ISSUED TO LOWER LEVEL:          0  ACCURACY: -nan
DTLB TIMELY PREFETCHES:          0 LATE PREFETCHES: 0 DROPPED PREFETCHES: 0
DTLB PREFETCHES SAME FILL-ORIGIN LEVEL: 0 DIFFERENT FILL-ORIGIN LEVEL: 0
DTLB AVERAGE MISS LATENCY: 13.9268 cycles
DTLB RQ	ACCESS:   60938894	FORWARD:          0	MERGED:   20634722	TO_CACHE:   40304172

STLB TOTAL     ACCESS:    4849319  HIT:    4775327  MISS:      73992  HIT %:    98.4742  MISS %:    1.52582   MPKI: 0.36996
STLB LOAD TRANSLATION ACCESS:    3014634  HIT:    2940642  MISS:      73992  HIT %:    97.5456  MISS %:    2.45443   MPKI: 0.36996
STLB TRANSLATION FROM L1D PREFETCHER ACCESS:    1834685  HIT:    1834685  MISS:          0  HIT %:        100  MISS %:          0   MPKI: 0
STLB PREFETCH  REQUESTED:          0  ISSUED:          0  USEFUL:          0  USELESS:          0
STLB USEFUL LOAD PREFETCHES:          0 PREFETCH ISSUED TO LOWER LEVEL:          0  ACCURACY: -nan
STLB TIMELY PREFETCHES:          0 LATE PREFETCHES: 0 DROPPED PREFETCHES: 0
STLB PREFETCHES SAME FILL-ORIGIN LEVEL: 0 DIFFERENT FILL-ORIGIN LEVEL: 0
STLB AVERAGE MISS LATENCY: 102.884 cycles
STLB RQ	ACCESS:    8887894	FORWARD:          0	MERGED:    4038574	TO_CACHE:    4849320

STLB Hit, L1D data hit: 0
STLB Hit, L2C data hit: 0
STLB Hit, LLC data hit: 0
STLB Hit, LLC data miss: 0
STLB STLB hints to L2: 0
L1D TOTAL     ACCESS:   52802233  HIT:   45998158  MISS:    6804075  HIT %:     87.114  MISS %:     12.886   MPKI: 34.0204
L1D LOAD      ACCESS:   26623109  HIT:   23766567  MISS:    2856542  HIT %:    89.2704  MISS %:    10.7296   MPKI: 14.2827
L1D RFO       ACCESS:   22087418  HIT:   18377640  MISS:    3709778  HIT %:    83.2041  MISS %:    16.7959   MPKI: 18.5489
L1D PREFETCH  ACCESS:    4091706  HIT:    3853951  MISS:     237755  HIT %:    94.1893  MISS %:    5.81066   MPKI: 1.18877
AGUS PREFETCH L1 MISS: 0
L1D PREFETCH  REQUESTED:   15114927  ISSUED:   15114927  USEFUL:     213751  USELESS:      24006
L1D USEFUL LOAD PREFETCHES:     213751 PREFETCH ISSUED TO LOWER LEVEL:    1326627  ACCURACY: 16.1124
L1D TIMELY PREFETCHES:     213751 LATE PREFETCHES: 511604 DROPPED PREFETCHES: 0
L1D PREFETCHES SAME FILL-ORIGIN LEVEL: 749359 DIFFERENT FILL-ORIGIN LEVEL: 577268
L1D AVERAGE MISS LATENCY: 1.5483e+07 cycles
L1D RQ	ACCESS:   45116820	FORWARD:          0	MERGED:   17817062	TO_CACHE:   27017927
L1D WQ	ACCESS:   34120710	FORWARD:     281831	MERGED:     199743	TO_CACHE:   33920967
L1D PQ	ACCESS:    9241667	FORWARD:          0	MERGED:    3368407	TO_CACHE:    5873260

L1D UNIQUE REGIONS ACCESSED: 0
L1D REGIONS CONFLICTS: 0
L1D Cross Page Prefetch Requests: 0
L1D Same Page Prefetch Requests: 10884323
L1D ROI Sum of L1D PQ occupancy: 79866961
L1D PREFETCHES PUSHED FROM L2C: 0
L1I TOTAL     ACCESS:   37983730  HIT:   28982706  MISS:    9001024  HIT %:    76.3029  MISS %:    23.6971   MPKI: 45.0051
L1I LOAD      ACCESS:   37983730  HIT:   28982706  MISS:    9001024  HIT %:    76.3029  MISS %:    23.6971   MPKI: 45.0051
L1I PREFETCH  REQUESTED:          0  ISSUED:          0  USEFUL:          0  USELESS:          0
L1I USEFUL LOAD PREFETCHES:          0 PREFETCH ISSUED TO LOWER LEVEL:          0  ACCURACY: -nan
L1I TIMELY PREFETCHES:          0 LATE PREFETCHES: 0 DROPPED PREFETCHES: 0
L1I PREFETCHES SAME FILL-ORIGIN LEVEL: 0 DIFFERENT FILL-ORIGIN LEVEL: 0
L1I AVERAGE MISS LATENCY: 16.5797 cycles
L1I RQ	ACCESS:   58893043	FORWARD:          0	MERGED:   18281677	TO_CACHE:   40611366

BTB TOTAL     ACCESS:   25785291  HIT:   24238540  MISS:    1546751  HIT %:    94.0014  MISS %:    5.99858   MPKI: 7.73376
BTB BRANCH_DIRECT_JUMP	ACCESS:    1652264  HIT:    1642590  MISS:       9674
BTB BRANCH_INDIRECT	ACCESS:    9950804  HIT:    9430277  MISS:     520527
BTB BRANCH_CONDITIONAL	ACCESS:    7377327  HIT:    7363709  MISS:      13618
BTB BRANCH_DIRECT_CALL	ACCESS:    2809801  HIT:    2776203  MISS:      33598
BTB BRANCH_INDIRECT_CALL	ACCESS:     592726  HIT:     482250  MISS:     110476
BTB BRANCH_RETURN	ACCESS:    3402369  HIT:    2543511  MISS:     858858
BTB BRANCH_OTHER ACCESS:          0  HIT:          0  MISS:          0

L2C TOTAL     ACCESS:   20600596  HIT:   13959375  MISS:    6641221  HIT %:     67.762  MISS %:     32.238   MPKI: 33.2061
L2C LOAD      ACCESS:   11345748  HIT:    9253367  MISS:    2092381  HIT %:     81.558  MISS %:     18.442   MPKI: 10.4619
L2C DATA LOAD MPKI: 7.64147
L2C INSTRUCTION LOAD MPKI: 2.82043
L2C RFO       ACCESS:    3709775  HIT:     162416  MISS:    3547359  HIT %:    4.37806  MISS %:    95.6219   MPKI: 17.7368
L2C PREFETCH  ACCESS:    1113005  HIT:     288659  MISS:     824346  HIT %:    25.9351  MISS %:    74.0649   MPKI: 4.12173
AGUS PREFETCH L1 MISS: 0
L2C DATA PREFETCH MPKI: 4.12173
L2C INSTRUCTION PREFETCH MPKI: 0
L2C WRITEBACK ACCESS:    4353126  HIT:    4209019  MISS:     144107  HIT %:    96.6896  MISS %:    3.31043   MPKI: 0.720535
L2C LOAD TRANSLATION ACCESS:      78942  HIT:      45914  MISS:      33028  HIT %:    58.1617  MISS %:    41.8383   MPKI: 0.16514
L2C PREFETCH  REQUESTED:          0  ISSUED:          0  USEFUL:     146119  USELESS:     678032
L2C USEFUL LOAD PREFETCHES:     146119 PREFETCH ISSUED TO LOWER LEVEL:     935783  ACCURACY: 15.6146
L2C TIMELY PREFETCHES:     146119 LATE PREFETCHES: 111437 DROPPED PREFETCHES: 0
L2C PREFETCHES SAME FILL-ORIGIN LEVEL: 379276 DIFFERENT FILL-ORIGIN LEVEL: 0
L2C AVERAGE MISS LATENCY: 159.481 cycles
L2C RQ	ACCESS:   15134689	FORWARD:          0	MERGED:          0	TO_CACHE:   15134472
L2C WQ	ACCESS:    4353126	FORWARD:        217	MERGED:          0	TO_CACHE:    4353126
L2C PQ	ACCESS:    1326627	FORWARD:          0	MERGED:         33	TO_CACHE:    1326594

L2C Instructions Evicting Data 521799
L2C Translations Evicting Data 29906
L2C Data Evicting Data 5360357
L2C Instructions Evicting Instructions 39245
L2C Translations Evicting Instructions 2825
L2C Data Evicting Instructions 510475
L2C Instructions Evicting Translations 3042
L2C Translations Evicting Translations 297
L2C Data Evicting Translations 29168
L2C Dense regions hint from L2: 0
PSCL5 TOTAL     ACCESS:      73992  HIT:      73992  MISS:          0  HIT %:        100  MISS %:          0   MPKI: 0
PSCL5 LOAD TRANSLATION ACCESS:      73992  HIT:      73992  MISS:          0  HIT %:        100  MISS %:          0   MPKI: 0
PSCL5 PREFETCH  REQUESTED:          0  ISSUED:          0  USEFUL:          0  USELESS:          0
PSCL5 USEFUL LOAD PREFETCHES:          0 PREFETCH ISSUED TO LOWER LEVEL:          0  ACCURACY: -nan
PSCL5 TIMELY PREFETCHES:          0 LATE PREFETCHES: 0 DROPPED PREFETCHES: 0
PSCL5 PREFETCHES SAME FILL-ORIGIN LEVEL: 0 DIFFERENT FILL-ORIGIN LEVEL: 0

PSCL4 TOTAL     ACCESS:      71678  HIT:      71523  MISS:        155  HIT %:    99.7838  MISS %:   0.216245   MPKI: 0.000775
PSCL4 LOAD TRANSLATION ACCESS:      71678  HIT:      71523  MISS:        155  HIT %:    99.7838  MISS %:   0.216245   MPKI: 0.000775
PSCL4 PREFETCH  REQUESTED:          0  ISSUED:          0  USEFUL:          0  USELESS:          0
PSCL4 USEFUL LOAD PREFETCHES:          0 PREFETCH ISSUED TO LOWER LEVEL:          0  ACCURACY: -nan
PSCL4 TIMELY PREFETCHES:          0 LATE PREFETCHES: 0 DROPPED PREFETCHES: 0
PSCL4 PREFETCHES SAME FILL-ORIGIN LEVEL: 0 DIFFERENT FILL-ORIGIN LEVEL: 0

PSCL3 TOTAL     ACCESS:      72736  HIT:      72581  MISS:        155  HIT %:    99.7869  MISS %:   0.213099   MPKI: 0.000775
PSCL3 LOAD TRANSLATION ACCESS:      72736  HIT:      72581  MISS:        155  HIT %:    99.7869  MISS %:   0.213099   MPKI: 0.000775
PSCL3 PREFETCH  REQUESTED:          0  ISSUED:          0  USEFUL:          0  USELESS:          0
PSCL3 USEFUL LOAD PREFETCHES:          0 PREFETCH ISSUED TO LOWER LEVEL:          0  ACCURACY: -nan
PSCL3 TIMELY PREFETCHES:          0 LATE PREFETCHES: 0 DROPPED PREFETCHES: 0
PSCL3 PREFETCHES SAME FILL-ORIGIN LEVEL: 0 DIFFERENT FILL-ORIGIN LEVEL: 0

PSCL2 TOTAL     ACCESS:      73992  HIT:      69352  MISS:       4640  HIT %:    93.7291  MISS %:    6.27095   MPKI: 0.0232
PSCL2 LOAD TRANSLATION ACCESS:      73992  HIT:      69352  MISS:       4640  HIT %:    93.7291  MISS %:    6.27095   MPKI: 0.0232
PSCL2 PREFETCH  REQUESTED:          0  ISSUED:          0  USEFUL:          0  USELESS:          0
PSCL2 USEFUL LOAD PREFETCHES:          0 PREFETCH ISSUED TO LOWER LEVEL:          0  ACCURACY: -nan
PSCL2 TIMELY PREFETCHES:          0 LATE PREFETCHES: 0 DROPPED PREFETCHES: 0
PSCL2 PREFETCHES SAME FILL-ORIGIN LEVEL: 0 DIFFERENT FILL-ORIGIN LEVEL: 0

LLC TOTAL     ACCESS:   10535725  HIT:    4224915  MISS:    6310810  HIT %:    40.1008  MISS %:    59.8992   MPKI: 31.5541
LLC LOAD      ACCESS:    1980944  HIT:    1601842  MISS:     379102  HIT %:    80.8626  MISS %:    19.1374   MPKI: 1.89551
LLC RFO       ACCESS:    3547325  HIT:     980190  MISS:    2567135  HIT %:    27.6318  MISS %:    72.3682   MPKI: 12.8357
LLC PREFETCH  ACCESS:     935783  HIT:      68730  MISS:     867053  HIT %:    7.34465  MISS %:    92.6553   MPKI: 4.33526
AGUS PREFETCH L1 MISS: 0
LLC WRITEBACK ACCESS:    4038645  HIT:    1562574  MISS:    2476071  HIT %:    38.6906  MISS %:    61.3094   MPKI: 12.3804
LLC LOAD TRANSLATION ACCESS:      33028  HIT:      11579  MISS:      21449  HIT %:    35.0581  MISS %:    64.9419   MPKI: 0.107245
LLC PREFETCH  REQUESTED:          0  ISSUED:          0  USEFUL:       1802  USELESS:     869743
LLC USEFUL LOAD PREFETCHES:       1802 PREFETCH ISSUED TO LOWER LEVEL:     867053  ACCURACY: 0.20783
LLC TIMELY PREFETCHES:       1802 LATE PREFETCHES: 0 DROPPED PREFETCHES: 0
LLC PREFETCHES SAME FILL-ORIGIN LEVEL: 0 DIFFERENT FILL-ORIGIN LEVEL: 0
LLC AVERAGE MISS LATENCY: 138.181 cycles
LLC RQ	ACCESS:    5561337	FORWARD:          0	MERGED:          0	TO_CACHE:    5561302
LLC WQ	ACCESS:    4038646	FORWARD:         35	MERGED:          0	TO_CACHE:    4038646
LLC PQ	ACCESS:     935783	FORWARD:          0	MERGED:          0	TO_CACHE:     935783

LLC Dense regions hint to LLC: 0

RAW hits: 2455526
Loads Generated: 47572346
Loads sent to L1D: 45116820
Stores Generated: 34120702
Stores sent to L1D: 34120710
Major fault: 0 Minor fault: 8128
Allocated PAGES: 8128
CPU 0 L1D PC-based stride prefetcher final stats
Degree: 3

DRAM Statistics
 CHANNEL 0
 RQ ROW_BUFFER_HIT:    1909149  ROW_BUFFER_MISS:    1925154
 DBUS_CONGESTED:       2328
 WQ ROW_BUFFER_HIT:     549415  ROW_BUFFER_MISS:    2077240  FULL:      65628

 AVG_CONGESTED_CYCLE: 3
 All warmup complete: 2
Channel 0 Bank busy for read cycles: 0
Channel 0 Bank busy for write cycles: 0
Channel 0
Rank 0
0banks busy for read cycles: 179199022
0banks busy for write cycles: 265394
1banks busy for read cycles: 28074066
1banks busy for write cycles: 37151351
2banks busy for read cycles: 11241995
2banks busy for write cycles: 12867028
3banks busy for read cycles: 14325457
3banks busy for write cycles: 5372870
4banks busy for read cycles: 5460907
4banks busy for write cycles: 3365863
5banks busy for read cycles: 4519952
5banks busy for write cycles: 2913439
6banks busy for read cycles: 5354420
6banks busy for write cycles: 2943609
7banks busy for read cycles: 7684444
7banks busy for write cycles: 5438115
8banks busy for read cycles: 20973871
8banks busy for write cycles: 34395327

CPU 0 Branch Prediction Accuracy: 99.9481% MPKI: 0.07946 Average ROB Occupancy at Mispredict: 124.288
Branch types
NOT_BRANCH: 169359711 84.6799%
BRANCH_DIRECT_JUMP: 1652264 0.826132%
BRANCH_INDIRECT: 9950804 4.9754%
BRANCH_CONDITIONAL: 12232163 6.11608%
BRANCH_DIRECT_CALL: 2809801 1.4049%
BRANCH_INDIRECT_CALL: 592726 0.296363%
BRANCH_RETURN: 3402369 1.70118%
BRANCH_OTHER: 0 0%

DRAM PAGES: 1048576
Allocated PAGES: 8128
