
*** ChampSim Multicore Out-of-Order Simulator ***

Warmup Instructions: 50000000
Simulation Instructions: 200000000
Number of CPUs: 1
LLC sets: 2048
LLC ways: 16
Off-chip DRAM Size: 4096 MB Channels: 1 Width: 64-bit Data Rate: 6400 MT/s
CPU 0 runs traces/spec2k17/srv_6.champsimtrace.xz
.xz
BTB has LRU replacement policy
ITLB has LRU replacement policy
DTLB has LRU replacement policy
STLB has LRU replacement policy
L1I has LRU replacement policy
CPU 0 L1D IP-based stride prefetcher
L1D has LRU replacement policy
Initialize SRRIP state for L2C
Initialize DRRIP state for LLC
Heartbeat CPU 0 instructions: 10000003 cycles: 2766900 heartbeat IPC: 3.61415 cumulative IPC: 3.61415 (Simulation time: 0 hr 0 min 36 sec) 
Heartbeat CPU 0 instructions: 20000002 cycles: 5529626 heartbeat IPC: 3.61961 cumulative IPC: 3.61688 (Simulation time: 0 hr 1 min 13 sec) 
Heartbeat CPU 0 instructions: 30000001 cycles: 8291654 heartbeat IPC: 3.62053 cumulative IPC: 3.6181 (Simulation time: 0 hr 1 min 47 sec) 
*** Reached end of trace for Core: 0 Repeating trace: traces/spec2k17/srv_6.champsimtrace.xz
Heartbeat CPU 0 instructions: 40000002 cycles: 11050922 heartbeat IPC: 3.62415 cumulative IPC: 3.61961 (Simulation time: 0 hr 2 min 21 sec) 
Heartbeat CPU 0 instructions: 50000003 cycles: 13814562 heartbeat IPC: 3.61842 cumulative IPC: 3.61937 (Simulation time: 0 hr 2 min 57 sec) 

Warmup complete CPU 0 instructions: 50000003 cycles: 13814562 (Simulation time: 0 hr 2 min 57 sec) 

Heartbeat CPU 0 instructions: 60000001 cycles: 35368586 heartbeat IPC: 0.46395 cumulative IPC: 0.46395 (Simulation time: 0 hr 3 min 53 sec) 
*** Reached end of trace for Core: 0 Repeating trace: traces/spec2k17/srv_6.champsimtrace.xz
Heartbeat CPU 0 instructions: 70000000 cycles: 56863809 heartbeat IPC: 0.46522 cumulative IPC: 0.464584 (Simulation time: 0 hr 4 min 48 sec) 
Heartbeat CPU 0 instructions: 80000001 cycles: 78542085 heartbeat IPC: 0.461291 cumulative IPC: 0.463481 (Simulation time: 0 hr 5 min 37 sec) 
Heartbeat CPU 0 instructions: 90000000 cycles: 99648392 heartbeat IPC: 0.473792 cumulative IPC: 0.466017 (Simulation time: 0 hr 6 min 29 sec) 
*** Reached end of trace for Core: 0 Repeating trace: traces/spec2k17/srv_6.champsimtrace.xz
Heartbeat CPU 0 instructions: 100000003 cycles: 121543397 heartbeat IPC: 0.456725 cumulative IPC: 0.464128 (Simulation time: 0 hr 7 min 19 sec) 
Heartbeat CPU 0 instructions: 110000000 cycles: 143103545 heartbeat IPC: 0.463819 cumulative IPC: 0.464077 (Simulation time: 0 hr 8 min 18 sec) 
Heartbeat CPU 0 instructions: 120000002 cycles: 164500224 heartbeat IPC: 0.467362 cumulative IPC: 0.464543 (Simulation time: 0 hr 9 min 8 sec) 
*** Reached end of trace for Core: 0 Repeating trace: traces/spec2k17/srv_6.champsimtrace.xz
Heartbeat CPU 0 instructions: 130000001 cycles: 186197205 heartbeat IPC: 0.460894 cumulative IPC: 0.464084 (Simulation time: 0 hr 10 min 3 sec) 
Heartbeat CPU 0 instructions: 140000003 cycles: 207763970 heartbeat IPC: 0.463676 cumulative IPC: 0.464039 (Simulation time: 0 hr 10 min 55 sec) 
Heartbeat CPU 0 instructions: 150000000 cycles: 229116378 heartbeat IPC: 0.468331 cumulative IPC: 0.464464 (Simulation time: 0 hr 11 min 51 sec) 
*** Reached end of trace for Core: 0 Repeating trace: traces/spec2k17/srv_6.champsimtrace.xz
Heartbeat CPU 0 instructions: 160000000 cycles: 250842128 heartbeat IPC: 0.460283 cumulative IPC: 0.464081 (Simulation time: 0 hr 12 min 39 sec) 
Heartbeat CPU 0 instructions: 170000000 cycles: 272053913 heartbeat IPC: 0.471436 cumulative IPC: 0.464685 (Simulation time: 0 hr 13 min 31 sec) 
Heartbeat CPU 0 instructions: 180000000 cycles: 293789387 heartbeat IPC: 0.460077 cumulative IPC: 0.464327 (Simulation time: 0 hr 14 min 20 sec) 
*** Reached end of trace for Core: 0 Repeating trace: traces/spec2k17/srv_6.champsimtrace.xz
Heartbeat CPU 0 instructions: 190000002 cycles: 315395643 heartbeat IPC: 0.462829 cumulative IPC: 0.46422 (Simulation time: 0 hr 15 min 18 sec) 
Heartbeat CPU 0 instructions: 200000000 cycles: 336677435 heartbeat IPC: 0.469885 cumulative IPC: 0.464594 (Simulation time: 0 hr 16 min 10 sec) 
Heartbeat CPU 0 instructions: 210000000 cycles: 358252579 heartbeat IPC: 0.463496 cumulative IPC: 0.464525 (Simulation time: 0 hr 17 min 2 sec) 
*** Reached end of trace for Core: 0 Repeating trace: traces/spec2k17/srv_6.champsimtrace.xz
Heartbeat CPU 0 instructions: 220000000 cycles: 380001731 heartbeat IPC: 0.459788 cumulative IPC: 0.464243 (Simulation time: 0 hr 17 min 49 sec) 
Heartbeat CPU 0 instructions: 230000002 cycles: 401174299 heartbeat IPC: 0.472309 cumulative IPC: 0.464684 (Simulation time: 0 hr 18 min 43 sec) 
Heartbeat CPU 0 instructions: 240000000 cycles: 422882704 heartbeat IPC: 0.460651 cumulative IPC: 0.46447 (Simulation time: 0 hr 19 min 41 sec) 
*** Reached end of trace for Core: 0 Repeating trace: traces/spec2k17/srv_6.champsimtrace.xz
Heartbeat CPU 0 instructions: 250000000 cycles: 444420999 heartbeat IPC: 0.464289 cumulative IPC: 0.464461 (Simulation time: 0 hr 20 min 34 sec) 
Finished CPU 0 instructions: 200000001 cycles: 430606496 cumulative IPC: 0.464461 (Simulation time: 0 hr 20 min 34 sec) 

ChampSim completed all CPUs

Region of Interest Statistics

CPU 0 cumulative IPC: 0.464461 instructions: 200000001 cycles: 430606496
ITLB TOTAL     ACCESS:   31254787  HIT:   30464980  MISS:     789807  HIT %:     97.473  MISS %:      2.527   MPKI: 3.94903
ITLB LOAD TRANSLATION ACCESS:   31254787  HIT:   30464980  MISS:     789807  HIT %:     97.473  MISS %:      2.527   MPKI: 3.94903
ITLB PREFETCH  REQUESTED:          0  ISSUED:          0  USEFUL:          0  USELESS:          0
ITLB USEFUL LOAD PREFETCHES:          0 PREFETCH ISSUED TO LOWER LEVEL:          0  ACCURACY: -nan
ITLB TIMELY PREFETCHES:          0 LATE PREFETCHES: 0 DROPPED PREFETCHES: 0
ITLB PREFETCHES SAME FILL-ORIGIN LEVEL: 0 DIFFERENT FILL-ORIGIN LEVEL: 0
ITLB AVERAGE MISS LATENCY: 13.872 cycles
ITLB RQ	ACCESS:   38236132	FORWARD:          0	MERGED:    6788773	TO_CACHE:   31447359

DTLB TOTAL     ACCESS:   36887010  HIT:   34311293  MISS:    2575717  HIT %:    93.0173  MISS %:    6.98272   MPKI: 12.8786
DTLB LOAD TRANSLATION ACCESS:   36887010  HIT:   34311293  MISS:    2575717  HIT %:    93.0173  MISS %:    6.98272   MPKI: 12.8786
DTLB PREFETCH  REQUESTED:          0  ISSUED:          0  USEFUL:          0  USELESS:          0
DTLB USEFUL LOAD PREFETCHES:          0 PREFETCH ISSUED TO LOWER LEVEL:          0  ACCURACY: -nan
DTLB TIMELY PREFETCHES:          0 LATE PREFETCHES: 0 DROPPED PREFETCHES: 0
DTLB PREFETCHES SAME FILL-ORIGIN LEVEL: 0 DIFFERENT FILL-ORIGIN LEVEL: 0
DTLB AVERAGE MISS LATENCY: 13.6049 cycles
DTLB RQ	ACCESS:   47414924	FORWARD:          0	MERGED:   10378392	TO_CACHE:   37036532

STLB TOTAL     ACCESS:    3427784  HIT:    3083531  MISS:     344253  HIT %:     89.957  MISS %:     10.043   MPKI: 1.72126
STLB LOAD TRANSLATION ACCESS:    3365524  HIT:    3021271  MISS:     344253  HIT %:    89.7712  MISS %:    10.2288   MPKI: 1.72126
STLB TRANSLATION FROM L1D PREFETCHER ACCESS:      62260  HIT:      62260  MISS:          0  HIT %:        100  MISS %:          0   MPKI: 0
STLB PREFETCH  REQUESTED:          0  ISSUED:          0  USEFUL:          0  USELESS:          0
STLB USEFUL LOAD PREFETCHES:          0 PREFETCH ISSUED TO LOWER LEVEL:          0  ACCURACY: -nan
STLB TIMELY PREFETCHES:          0 LATE PREFETCHES: 0 DROPPED PREFETCHES: 0
STLB PREFETCHES SAME FILL-ORIGIN LEVEL: 0 DIFFERENT FILL-ORIGIN LEVEL: 0
STLB AVERAGE MISS LATENCY: 45.3766 cycles
STLB RQ	ACCESS:    3563563	FORWARD:          0	MERGED:     135779	TO_CACHE:    3427784

STLB Hit, L1D data hit: 0
STLB Hit, L2C data hit: 0
STLB Hit, LLC data hit: 0
STLB Hit, LLC data miss: 0
STLB STLB hints to L2: 0
L1D TOTAL     ACCESS:   47061426  HIT:   44578333  MISS:    2483093  HIT %:    94.7237  MISS %:    5.27628   MPKI: 12.4155
L1D LOAD      ACCESS:   27314304  HIT:   25211799  MISS:    2102505  HIT %:    92.3025  MISS %:    7.69745   MPKI: 10.5125
L1D RFO       ACCESS:   19553739  HIT:   19221833  MISS:     331906  HIT %:    98.3026  MISS %:     1.6974   MPKI: 1.65953
L1D PREFETCH  ACCESS:     193383  HIT:     144701  MISS:      48682  HIT %:    74.8261  MISS %:    25.1739   MPKI: 0.24341
AGUS PREFETCH L1 MISS: 0
L1D PREFETCH  REQUESTED:     435055  ISSUED:     435028  USEFUL:      10016  USELESS:      38666
L1D USEFUL LOAD PREFETCHES:      10016 PREFETCH ISSUED TO LOWER LEVEL:      49619  ACCURACY: 20.1858
L1D TIMELY PREFETCHES:      10016 LATE PREFETCHES: 841 DROPPED PREFETCHES: 0
L1D PREFETCHES SAME FILL-ORIGIN LEVEL: 49523 DIFFERENT FILL-ORIGIN LEVEL: 96
L1D AVERAGE MISS LATENCY: 77541.8 cycles
L1D RQ	ACCESS:   42029407	FORWARD:          0	MERGED:   14308799	TO_CACHE:   27455605
L1D WQ	ACCESS:   20260083	FORWARD:     265274	MERGED:     300764	TO_CACHE:   19959319
L1D PQ	ACCESS:     236989	FORWARD:          0	MERGED:      38679	TO_CACHE:     198039

L1D UNIQUE REGIONS ACCESSED: 0
L1D REGIONS CONFLICTS: 0
L1D Cross Page Prefetch Requests: 0
L1D Same Page Prefetch Requests: 307157
L1D ROI Sum of L1D PQ occupancy: 2626802
L1D PREFETCHES PUSHED FROM L2C: 0
L1I TOTAL     ACCESS:   36468870  HIT:   31453618  MISS:    5015252  HIT %:    86.2479  MISS %:    13.7521   MPKI: 25.0763
L1I LOAD      ACCESS:   36468870  HIT:   31453618  MISS:    5015252  HIT %:    86.2479  MISS %:    13.7521   MPKI: 25.0763
L1I PREFETCH  REQUESTED:          0  ISSUED:          0  USEFUL:          0  USELESS:          0
L1I USEFUL LOAD PREFETCHES:          0 PREFETCH ISSUED TO LOWER LEVEL:          0  ACCURACY: -nan
L1I TIMELY PREFETCHES:          0 LATE PREFETCHES: 0 DROPPED PREFETCHES: 0
L1I PREFETCHES SAME FILL-ORIGIN LEVEL: 0 DIFFERENT FILL-ORIGIN LEVEL: 0
L1I AVERAGE MISS LATENCY: 24.941 cycles
L1I RQ	ACCESS:   57082135	FORWARD:          0	MERGED:   18846003	TO_CACHE:   38236132

BTB TOTAL     ACCESS:   21970785  HIT:   17815516  MISS:    4155269  HIT %:    81.0873  MISS %:    18.9127   MPKI: 20.7763
BTB BRANCH_DIRECT_JUMP	ACCESS:    1710626  HIT:    1467386  MISS:     243240
BTB BRANCH_INDIRECT	ACCESS:    9437218  HIT:    7430900  MISS:    2006318
BTB BRANCH_CONDITIONAL	ACCESS:    4508285  HIT:    4128634  MISS:     379651
BTB BRANCH_DIRECT_CALL	ACCESS:    2475370  HIT:    2029087  MISS:     446283
BTB BRANCH_INDIRECT_CALL	ACCESS:     681721  HIT:     642211  MISS:      39510
BTB BRANCH_RETURN	ACCESS:    3157565  HIT:    2117298  MISS:    1040267
BTB BRANCH_OTHER ACCESS:          0  HIT:          0  MISS:          0

L2C TOTAL     ACCESS:    8963345  HIT:    5947787  MISS:    3015558  HIT %:    66.3568  MISS %:    33.6432   MPKI: 15.0778
L2C LOAD      ACCESS:    7116896  HIT:    4502469  MISS:    2614427  HIT %:    63.2645  MISS %:    36.7355   MPKI: 13.0721
L2C DATA LOAD MPKI: 4.55325
L2C INSTRUCTION LOAD MPKI: 8.51888
L2C RFO       ACCESS:     331906  HIT:     190132  MISS:     141774  HIT %:    57.2849  MISS %:    42.7151   MPKI: 0.70887
L2C PREFETCH  ACCESS:      49585  HIT:      19932  MISS:      29653  HIT %:    40.1976  MISS %:    59.8024   MPKI: 0.148265
AGUS PREFETCH L1 MISS: 0
L2C DATA PREFETCH MPKI: 0.148265
L2C INSTRUCTION PREFETCH MPKI: 0
L2C WRITEBACK ACCESS:    1004764  HIT:     952293  MISS:      52471  HIT %:    94.7778  MISS %:    5.22222   MPKI: 0.262355
L2C LOAD TRANSLATION ACCESS:     460194  HIT:     282961  MISS:     177233  HIT %:    61.4873  MISS %:    38.5127   MPKI: 0.886165
L2C PREFETCH  REQUESTED:          0  ISSUED:          0  USEFUL:       1216  USELESS:      28436
L2C USEFUL LOAD PREFETCHES:       1216 PREFETCH ISSUED TO LOWER LEVEL:      29656  ACCURACY: 4.10035
L2C TIMELY PREFETCHES:       1216 LATE PREFETCHES: 3 DROPPED PREFETCHES: 0
L2C PREFETCHES SAME FILL-ORIGIN LEVEL: 60 DIFFERENT FILL-ORIGIN LEVEL: 0
L2C AVERAGE MISS LATENCY: 44.7189 cycles
L2C RQ	ACCESS:    7909017	FORWARD:          0	MERGED:          0	TO_CACHE:    7908997
L2C WQ	ACCESS:    1004764	FORWARD:         20	MERGED:          0	TO_CACHE:    1004764
L2C PQ	ACCESS:      49619	FORWARD:          0	MERGED:          0	TO_CACHE:      49619

L2C Instructions Evicting Data 630725
L2C Translations Evicting Data 68693
L2C Data Evicting Data 415759
L2C Instructions Evicting Instructions 973061
L2C Translations Evicting Instructions 99180
L2C Data Evicting Instructions 601135
L2C Instructions Evicting Translations 99991
L2C Translations Evicting Translations 9360
L2C Data Evicting Translations 65183
L2C Dense regions hint from L2: 0
PSCL5 TOTAL     ACCESS:     344253  HIT:     344253  MISS:          0  HIT %:        100  MISS %:          0   MPKI: 0
PSCL5 LOAD TRANSLATION ACCESS:     344253  HIT:     344253  MISS:          0  HIT %:        100  MISS %:          0   MPKI: 0
PSCL5 PREFETCH  REQUESTED:          0  ISSUED:          0  USEFUL:          0  USELESS:          0
PSCL5 USEFUL LOAD PREFETCHES:          0 PREFETCH ISSUED TO LOWER LEVEL:          0  ACCURACY: -nan
PSCL5 TIMELY PREFETCHES:          0 LATE PREFETCHES: 0 DROPPED PREFETCHES: 0
PSCL5 PREFETCHES SAME FILL-ORIGIN LEVEL: 0 DIFFERENT FILL-ORIGIN LEVEL: 0

PSCL4 TOTAL     ACCESS:     335596  HIT:     334396  MISS:       1200  HIT %:    99.6424  MISS %:   0.357573   MPKI: 0.006
PSCL4 LOAD TRANSLATION ACCESS:     335596  HIT:     334396  MISS:       1200  HIT %:    99.6424  MISS %:   0.357573   MPKI: 0.006
PSCL4 PREFETCH  REQUESTED:          0  ISSUED:          0  USEFUL:          0  USELESS:          0
PSCL4 USEFUL LOAD PREFETCHES:          0 PREFETCH ISSUED TO LOWER LEVEL:          0  ACCURACY: -nan
PSCL4 TIMELY PREFETCHES:          0 LATE PREFETCHES: 0 DROPPED PREFETCHES: 0
PSCL4 PREFETCHES SAME FILL-ORIGIN LEVEL: 0 DIFFERENT FILL-ORIGIN LEVEL: 0

PSCL3 TOTAL     ACCESS:     342637  HIT:     341437  MISS:       1200  HIT %:    99.6498  MISS %:   0.350225   MPKI: 0.006
PSCL3 LOAD TRANSLATION ACCESS:     342637  HIT:     341437  MISS:       1200  HIT %:    99.6498  MISS %:   0.350225   MPKI: 0.006
PSCL3 PREFETCH  REQUESTED:          0  ISSUED:          0  USEFUL:          0  USELESS:          0
PSCL3 USEFUL LOAD PREFETCHES:          0 PREFETCH ISSUED TO LOWER LEVEL:          0  ACCURACY: -nan
PSCL3 TIMELY PREFETCHES:          0 LATE PREFETCHES: 0 DROPPED PREFETCHES: 0
PSCL3 PREFETCHES SAME FILL-ORIGIN LEVEL: 0 DIFFERENT FILL-ORIGIN LEVEL: 0

PSCL2 TOTAL     ACCESS:     344253  HIT:     230712  MISS:     113541  HIT %:    67.0182  MISS %:    32.9818   MPKI: 0.567705
PSCL2 LOAD TRANSLATION ACCESS:     344253  HIT:     230712  MISS:     113541  HIT %:    67.0182  MISS %:    32.9818   MPKI: 0.567705
PSCL2 PREFETCH  REQUESTED:          0  ISSUED:          0  USEFUL:          0  USELESS:          0
PSCL2 USEFUL LOAD PREFETCHES:          0 PREFETCH ISSUED TO LOWER LEVEL:          0  ACCURACY: -nan
PSCL2 TIMELY PREFETCHES:          0 LATE PREFETCHES: 0 DROPPED PREFETCHES: 0
PSCL2 PREFETCHES SAME FILL-ORIGIN LEVEL: 0 DIFFERENT FILL-ORIGIN LEVEL: 0

LLC TOTAL     ACCESS:    3384756  HIT:    3078389  MISS:     306367  HIT %:    90.9486  MISS %:    9.05138   MPKI: 1.53183
LLC LOAD      ACCESS:    2614424  HIT:    2374259  MISS:     240165  HIT %:    90.8138  MISS %:    9.18615   MPKI: 1.20082
LLC RFO       ACCESS:     141774  HIT:      95212  MISS:      46562  HIT %:    67.1576  MISS %:    32.8424   MPKI: 0.23281
LLC PREFETCH  ACCESS:      29656  HIT:      23066  MISS:       6590  HIT %:    77.7785  MISS %:    22.2215   MPKI: 0.03295
AGUS PREFETCH L1 MISS: 0
LLC WRITEBACK ACCESS:     421669  HIT:     420128  MISS:       1541  HIT %:    99.6345  MISS %:   0.365453   MPKI: 0.007705
LLC LOAD TRANSLATION ACCESS:     177233  HIT:     165724  MISS:      11509  HIT %:    93.5063  MISS %:    6.49371   MPKI: 0.057545
LLC PREFETCH  REQUESTED:          0  ISSUED:          0  USEFUL:        442  USELESS:       6222
LLC USEFUL LOAD PREFETCHES:        442 PREFETCH ISSUED TO LOWER LEVEL:       6590  ACCURACY: 6.70713
LLC TIMELY PREFETCHES:        442 LATE PREFETCHES: 0 DROPPED PREFETCHES: 0
LLC PREFETCHES SAME FILL-ORIGIN LEVEL: 0 DIFFERENT FILL-ORIGIN LEVEL: 0
LLC AVERAGE MISS LATENCY: 150.011 cycles
LLC RQ	ACCESS:    2933432	FORWARD:          0	MERGED:          0	TO_CACHE:    2933432
LLC WQ	ACCESS:     421669	FORWARD:          0	MERGED:          0	TO_CACHE:     421669
LLC PQ	ACCESS:      29656	FORWARD:          0	MERGED:          0	TO_CACHE:      29656

LLC Dense regions hint to LLC: 0

RAW hits: 2839339
Loads Generated: 44868747
Loads sent to L1D: 42029407
Stores Generated: 20260072
Stores sent to L1D: 20260083
Major fault: 0 Minor fault: 6173
Allocated PAGES: 6173
CPU 0 L1D PC-based stride prefetcher final stats
Degree: 3

DRAM Statistics
 CHANNEL 0
 RQ ROW_BUFFER_HIT:      64683  ROW_BUFFER_MISS:     240143
 DBUS_CONGESTED:        204
 WQ ROW_BUFFER_HIT:      35180  ROW_BUFFER_MISS:     178709  FULL:          0

 AVG_CONGESTED_CYCLE: 4
 All warmup complete: 2
Channel 0 Bank busy for read cycles: 0
Channel 0 Bank busy for write cycles: 0
Channel 0
Rank 0
0banks busy for read cycles: 374292852
0banks busy for write cycles: 114651
1banks busy for read cycles: 27310351
1banks busy for write cycles: 16304113
2banks busy for read cycles: 3674271
2banks busy for write cycles: 4143737
3banks busy for read cycles: 543753
3banks busy for write cycles: 1540189
4banks busy for read cycles: 280473
4banks busy for write cycles: 809881
5banks busy for read cycles: 108381
5banks busy for write cycles: 452582
6banks busy for read cycles: 72402
6banks busy for write cycles: 302155
7banks busy for read cycles: 50660
7banks busy for write cycles: 261990
8banks busy for read cycles: 64204
8banks busy for write cycles: 279852

CPU 0 Branch Prediction Accuracy: 99.8427% MPKI: 0.281055 Average ROB Occupancy at Mispredict: 47.6592
Branch types
NOT_BRANCH: 164271149 82.1356%
BRANCH_DIRECT_JUMP: 1710626 0.855313%
BRANCH_INDIRECT: 9437218 4.71861%
BRANCH_CONDITIONAL: 18266186 9.13309%
BRANCH_DIRECT_CALL: 2475370 1.23768%
BRANCH_INDIRECT_CALL: 681721 0.34086%
BRANCH_RETURN: 3157565 1.57878%
BRANCH_OTHER: 0 0%

DRAM PAGES: 1048576
Allocated PAGES: 6173
