
*** ChampSim Multicore Out-of-Order Simulator ***

Warmup Instructions: 50000000
Simulation Instructions: 200000000
Number of CPUs: 1
LLC sets: 2048
LLC ways: 16
Off-chip DRAM Size: 4096 MB Channels: 1 Width: 64-bit Data Rate: 6400 MT/s
CPU 0 runs traces/spec2k17/srv_45.champsimtrace.xz
.xz
BTB has LRU replacement policy
ITLB has LRU replacement policy
DTLB has LRU replacement policy
STLB has LRU replacement policy
L1I has LRU replacement policy
CPU 0 L1D IP-based stride prefetcher
L1D has LRU replacement policy
Initialize SRRIP state for L2C
Initialize DRRIP state for LLC
Heartbeat CPU 0 instructions: 10000003 cycles: 2933355 heartbeat IPC: 3.40907 cumulative IPC: 3.40907 (Simulation time: 0 hr 0 min 39 sec) 
Heartbeat CPU 0 instructions: 20000002 cycles: 5866801 heartbeat IPC: 3.40896 cumulative IPC: 3.40901 (Simulation time: 0 hr 1 min 17 sec) 
Heartbeat CPU 0 instructions: 30000000 cycles: 8796485 heartbeat IPC: 3.41334 cumulative IPC: 3.41045 (Simulation time: 0 hr 1 min 58 sec) 
*** Reached end of trace for Core: 0 Repeating trace: traces/spec2k17/srv_45.champsimtrace.xz
Heartbeat CPU 0 instructions: 40000000 cycles: 11723391 heartbeat IPC: 3.41658 cumulative IPC: 3.41198 (Simulation time: 0 hr 2 min 40 sec) 
Heartbeat CPU 0 instructions: 50000001 cycles: 14653170 heartbeat IPC: 3.41323 cumulative IPC: 3.41223 (Simulation time: 0 hr 3 min 19 sec) 

Warmup complete CPU 0 instructions: 50000001 cycles: 14653170 (Simulation time: 0 hr 3 min 19 sec) 

Heartbeat CPU 0 instructions: 60000000 cycles: 54141567 heartbeat IPC: 0.253239 cumulative IPC: 0.253239 (Simulation time: 0 hr 4 min 22 sec) 
*** Reached end of trace for Core: 0 Repeating trace: traces/spec2k17/srv_45.champsimtrace.xz
Heartbeat CPU 0 instructions: 70000000 cycles: 93544889 heartbeat IPC: 0.253786 cumulative IPC: 0.253512 (Simulation time: 0 hr 5 min 24 sec) 
Heartbeat CPU 0 instructions: 80000001 cycles: 133063989 heartbeat IPC: 0.253042 cumulative IPC: 0.253355 (Simulation time: 0 hr 6 min 26 sec) 
Heartbeat CPU 0 instructions: 90000003 cycles: 172382375 heartbeat IPC: 0.254334 cumulative IPC: 0.253599 (Simulation time: 0 hr 7 min 29 sec) 
*** Reached end of trace for Core: 0 Repeating trace: traces/spec2k17/srv_45.champsimtrace.xz
Heartbeat CPU 0 instructions: 100000003 cycles: 211816391 heartbeat IPC: 0.253588 cumulative IPC: 0.253597 (Simulation time: 0 hr 8 min 26 sec) 
Heartbeat CPU 0 instructions: 110000000 cycles: 251426697 heartbeat IPC: 0.252459 cumulative IPC: 0.253407 (Simulation time: 0 hr 9 min 31 sec) 
Heartbeat CPU 0 instructions: 120000000 cycles: 290685590 heartbeat IPC: 0.254719 cumulative IPC: 0.253593 (Simulation time: 0 hr 10 min 29 sec) 
*** Reached end of trace for Core: 0 Repeating trace: traces/spec2k17/srv_45.champsimtrace.xz
Heartbeat CPU 0 instructions: 130000002 cycles: 330028659 heartbeat IPC: 0.254174 cumulative IPC: 0.253666 (Simulation time: 0 hr 11 min 31 sec) 
Heartbeat CPU 0 instructions: 140000003 cycles: 369421859 heartbeat IPC: 0.253851 cumulative IPC: 0.253686 (Simulation time: 0 hr 12 min 26 sec) 
Heartbeat CPU 0 instructions: 150000000 cycles: 408839942 heartbeat IPC: 0.253691 cumulative IPC: 0.253687 (Simulation time: 0 hr 13 min 23 sec) 
*** Reached end of trace for Core: 0 Repeating trace: traces/spec2k17/srv_45.champsimtrace.xz
Heartbeat CPU 0 instructions: 160000001 cycles: 448059489 heartbeat IPC: 0.254975 cumulative IPC: 0.253803 (Simulation time: 0 hr 14 min 19 sec) 
Heartbeat CPU 0 instructions: 170000001 cycles: 487370535 heartbeat IPC: 0.254381 cumulative IPC: 0.253851 (Simulation time: 0 hr 15 min 19 sec) 
Heartbeat CPU 0 instructions: 180000000 cycles: 526931033 heartbeat IPC: 0.252777 cumulative IPC: 0.253769 (Simulation time: 0 hr 16 min 24 sec) 
*** Reached end of trace for Core: 0 Repeating trace: traces/spec2k17/srv_45.champsimtrace.xz
Heartbeat CPU 0 instructions: 190000001 cycles: 566003943 heartbeat IPC: 0.255932 cumulative IPC: 0.253922 (Simulation time: 0 hr 17 min 27 sec) 
Heartbeat CPU 0 instructions: 200000000 cycles: 605466658 heartbeat IPC: 0.253404 cumulative IPC: 0.253887 (Simulation time: 0 hr 18 min 26 sec) 
Heartbeat CPU 0 instructions: 210000003 cycles: 644612198 heartbeat IPC: 0.255457 cumulative IPC: 0.253985 (Simulation time: 0 hr 19 min 29 sec) 
*** Reached end of trace for Core: 0 Repeating trace: traces/spec2k17/srv_45.champsimtrace.xz
Heartbeat CPU 0 instructions: 220000000 cycles: 683640562 heartbeat IPC: 0.256224 cumulative IPC: 0.254115 (Simulation time: 0 hr 20 min 26 sec) 
Heartbeat CPU 0 instructions: 230000000 cycles: 723017485 heartbeat IPC: 0.253956 cumulative IPC: 0.254107 (Simulation time: 0 hr 21 min 33 sec) 
Heartbeat CPU 0 instructions: 240000000 cycles: 762346892 heartbeat IPC: 0.254263 cumulative IPC: 0.254115 (Simulation time: 0 hr 22 min 30 sec) 
*** Reached end of trace for Core: 0 Repeating trace: traces/spec2k17/srv_45.champsimtrace.xz
Heartbeat CPU 0 instructions: 250000003 cycles: 801423837 heartbeat IPC: 0.255905 cumulative IPC: 0.254204 (Simulation time: 0 hr 23 min 31 sec) 
Finished CPU 0 instructions: 200000002 cycles: 786770667 cumulative IPC: 0.254204 (Simulation time: 0 hr 23 min 31 sec) 

ChampSim completed all CPUs

Region of Interest Statistics

CPU 0 cumulative IPC: 0.254204 instructions: 200000002 cycles: 786770667
ITLB TOTAL     ACCESS:   36319598  HIT:   33571772  MISS:    2747826  HIT %:    92.4343  MISS %:    7.56568   MPKI: 13.7391
ITLB LOAD TRANSLATION ACCESS:   36319598  HIT:   33571772  MISS:    2747826  HIT %:    92.4343  MISS %:    7.56568   MPKI: 13.7391
ITLB PREFETCH  REQUESTED:          0  ISSUED:          0  USEFUL:          0  USELESS:          0
ITLB USEFUL LOAD PREFETCHES:          0 PREFETCH ISSUED TO LOWER LEVEL:          0  ACCURACY: -nan
ITLB TIMELY PREFETCHES:          0 LATE PREFETCHES: 0 DROPPED PREFETCHES: 0
ITLB PREFETCHES SAME FILL-ORIGIN LEVEL: 0 DIFFERENT FILL-ORIGIN LEVEL: 0
ITLB AVERAGE MISS LATENCY: 9.30353 cycles
ITLB RQ	ACCESS:   42976043	FORWARD:          0	MERGED:    5917161	TO_CACHE:   37058882

DTLB TOTAL     ACCESS:   49779019  HIT:   47321383  MISS:    2457636  HIT %:    95.0629  MISS %:    4.93709   MPKI: 12.2882
DTLB LOAD TRANSLATION ACCESS:   49779019  HIT:   47321383  MISS:    2457636  HIT %:    95.0629  MISS %:    4.93709   MPKI: 12.2882
DTLB PREFETCH  REQUESTED:          0  ISSUED:          0  USEFUL:          0  USELESS:          0
DTLB USEFUL LOAD PREFETCHES:          0 PREFETCH ISSUED TO LOWER LEVEL:          0  ACCURACY: -nan
DTLB TIMELY PREFETCHES:          0 LATE PREFETCHES: 0 DROPPED PREFETCHES: 0
DTLB PREFETCHES SAME FILL-ORIGIN LEVEL: 0 DIFFERENT FILL-ORIGIN LEVEL: 0
DTLB AVERAGE MISS LATENCY: 12.1108 cycles
DTLB RQ	ACCESS:   66026673	FORWARD:          0	MERGED:   16104238	TO_CACHE:   49922435

STLB TOTAL     ACCESS:    5314650  HIT:    5206557  MISS:     108093  HIT %:    97.9661  MISS %:    2.03387   MPKI: 0.540465
STLB LOAD TRANSLATION ACCESS:    5205462  HIT:    5097369  MISS:     108093  HIT %:    97.9235  MISS %:    2.07653   MPKI: 0.540465
STLB TRANSLATION FROM L1D PREFETCHER ACCESS:     109188  HIT:     109188  MISS:          0  HIT %:        100  MISS %:          0   MPKI: 0
STLB PREFETCH  REQUESTED:          0  ISSUED:          0  USEFUL:          0  USELESS:          0
STLB USEFUL LOAD PREFETCHES:          0 PREFETCH ISSUED TO LOWER LEVEL:          0  ACCURACY: -nan
STLB TIMELY PREFETCHES:          0 LATE PREFETCHES: 0 DROPPED PREFETCHES: 0
STLB PREFETCHES SAME FILL-ORIGIN LEVEL: 0 DIFFERENT FILL-ORIGIN LEVEL: 0
STLB AVERAGE MISS LATENCY: 78.0215 cycles
STLB RQ	ACCESS:    5528871	FORWARD:          0	MERGED:     214221	TO_CACHE:    5314650

STLB Hit, L1D data hit: 0
STLB Hit, L2C data hit: 0
STLB Hit, LLC data hit: 0
STLB Hit, LLC data miss: 0
STLB STLB hints to L2: 0
L1D TOTAL     ACCESS:   63487552  HIT:   57737604  MISS:    5749948  HIT %:    90.9432  MISS %:    9.05681   MPKI: 28.7497
L1D LOAD      ACCESS:   39533718  HIT:   35590799  MISS:    3942919  HIT %:    90.0264  MISS %:    9.97356   MPKI: 19.7146
L1D RFO       ACCESS:   23735309  HIT:   22005401  MISS:    1729908  HIT %:    92.7117  MISS %:    7.28833   MPKI: 8.64954
L1D PREFETCH  ACCESS:     218525  HIT:     141404  MISS:      77121  HIT %:    64.7084  MISS %:    35.2916   MPKI: 0.385605
AGUS PREFETCH L1 MISS: 0
L1D PREFETCH  REQUESTED:     759048  ISSUED:     759048  USEFUL:      43446  USELESS:      33677
L1D USEFUL LOAD PREFETCHES:      43446 PREFETCH ISSUED TO LOWER LEVEL:     135510  ACCURACY: 32.0611
L1D TIMELY PREFETCHES:      43446 LATE PREFETCHES: 27857 DROPPED PREFETCHES: 0
L1D PREFETCHES SAME FILL-ORIGIN LEVEL: 104978 DIFFERENT FILL-ORIGIN LEVEL: 30532
L1D AVERAGE MISS LATENCY: 1.99876e+06 cycles
L1D RQ	ACCESS:   50621821	FORWARD:          0	MERGED:   10737058	TO_CACHE:   39709267
L1D WQ	ACCESS:   26484793	FORWARD:     175496	MERGED:     167387	TO_CACHE:   26317406
L1D PQ	ACCESS:     435639	FORWARD:          0	MERGED:     112230	TO_CACHE:     323409

L1D UNIQUE REGIONS ACCESSED: 0
L1D REGIONS CONFLICTS: 0
L1D Cross Page Prefetch Requests: 0
L1D Same Page Prefetch Requests: 536398
L1D ROI Sum of L1D PQ occupancy: 4346343
L1D PREFETCHES PUSHED FROM L2C: 0
L1I TOTAL     ACCESS:   41298374  HIT:   28144648  MISS:   13153726  HIT %:    68.1495  MISS %:    31.8505   MPKI: 65.7686
L1I LOAD      ACCESS:   41298374  HIT:   28144648  MISS:   13153726  HIT %:    68.1495  MISS %:    31.8505   MPKI: 65.7686
L1I PREFETCH  REQUESTED:          0  ISSUED:          0  USEFUL:          0  USELESS:          0
L1I USEFUL LOAD PREFETCHES:          0 PREFETCH ISSUED TO LOWER LEVEL:          0  ACCURACY: -nan
L1I TIMELY PREFETCHES:          0 LATE PREFETCHES: 0 DROPPED PREFETCHES: 0
L1I PREFETCHES SAME FILL-ORIGIN LEVEL: 0 DIFFERENT FILL-ORIGIN LEVEL: 0
L1I AVERAGE MISS LATENCY: 16.0358 cycles
L1I RQ	ACCESS:   59961120	FORWARD:          0	MERGED:   16985077	TO_CACHE:   42976043

BTB TOTAL     ACCESS:   31973433  HIT:   16686947  MISS:   15286486  HIT %:      52.19  MISS %:      47.81   MPKI: 76.4324
BTB BRANCH_DIRECT_JUMP	ACCESS:    2345713  HIT:    1227110  MISS:    1118603
BTB BRANCH_INDIRECT	ACCESS:   14157352  HIT:    8110274  MISS:    6047078
BTB BRANCH_CONDITIONAL	ACCESS:    4344280  HIT:    3034534  MISS:    1309746
BTB BRANCH_DIRECT_CALL	ACCESS:    4151171  HIT:    2145079  MISS:    2006092
BTB BRANCH_INDIRECT_CALL	ACCESS:    1411897  HIT:     576080  MISS:     835817
BTB BRANCH_RETURN	ACCESS:    5563020  HIT:    1593870  MISS:    3969150
BTB BRANCH_OTHER ACCESS:          0  HIT:          0  MISS:          0

L2C TOTAL     ACCESS:   21895158  HIT:   19136354  MISS:    2758804  HIT %:    87.3999  MISS %:    12.6001   MPKI: 13.794
L2C LOAD      ACCESS:   17068753  HIT:   15205631  MISS:    1863122  HIT %:    89.0846  MISS %:    10.9154   MPKI: 9.31561
L2C DATA LOAD MPKI: 5.1112
L2C INSTRUCTION LOAD MPKI: 4.20441
L2C RFO       ACCESS:    1729908  HIT:    1129831  MISS:     600077  HIT %:    65.3116  MISS %:    34.6884   MPKI: 3.00038
L2C PREFETCH  ACCESS:     116471  HIT:      53925  MISS:      62546  HIT %:    46.2991  MISS %:    53.7009   MPKI: 0.31273
AGUS PREFETCH L1 MISS: 0
L2C DATA PREFETCH MPKI: 0.31273
L2C INSTRUCTION PREFETCH MPKI: 0
L2C WRITEBACK ACCESS:    2805083  HIT:    2661116  MISS:     143967  HIT %:    94.8676  MISS %:    5.13236   MPKI: 0.719835
L2C LOAD TRANSLATION ACCESS:     174943  HIT:      85851  MISS:      89092  HIT %:    49.0737  MISS %:    50.9263   MPKI: 0.44546
L2C PREFETCH  REQUESTED:          0  ISSUED:          0  USEFUL:       6459  USELESS:      56138
L2C USEFUL LOAD PREFETCHES:       6459 PREFETCH ISSUED TO LOWER LEVEL:      74475  ACCURACY: 8.67271
L2C TIMELY PREFETCHES:       6459 LATE PREFETCHES: 11929 DROPPED PREFETCHES: 0
L2C PREFETCHES SAME FILL-ORIGIN LEVEL: 23840 DIFFERENT FILL-ORIGIN LEVEL: 0
L2C AVERAGE MISS LATENCY: 49.6059 cycles
L2C RQ	ACCESS:   18973639	FORWARD:          0	MERGED:          0	TO_CACHE:   18973605
L2C WQ	ACCESS:    2805083	FORWARD:         41	MERGED:          0	TO_CACHE:    2805083
L2C PQ	ACCESS:     135510	FORWARD:          0	MERGED:          4	TO_CACHE:     135499

L2C Instructions Evicting Data 430885
L2C Translations Evicting Data 70517
L2C Data Evicting Data 1238817
L2C Instructions Evicting Instructions 395350
L2C Translations Evicting Instructions 14877
L2C Data Evicting Instructions 378264
L2C Instructions Evicting Translations 14647
L2C Translations Evicting Translations 3698
L2C Data Evicting Translations 67782
L2C Dense regions hint from L2: 0
PSCL5 TOTAL     ACCESS:     108093  HIT:     108093  MISS:          0  HIT %:        100  MISS %:          0   MPKI: 0
PSCL5 LOAD TRANSLATION ACCESS:     108093  HIT:     108093  MISS:          0  HIT %:        100  MISS %:          0   MPKI: 0
PSCL5 PREFETCH  REQUESTED:          0  ISSUED:          0  USEFUL:          0  USELESS:          0
PSCL5 USEFUL LOAD PREFETCHES:          0 PREFETCH ISSUED TO LOWER LEVEL:          0  ACCURACY: -nan
PSCL5 TIMELY PREFETCHES:          0 LATE PREFETCHES: 0 DROPPED PREFETCHES: 0
PSCL5 PREFETCHES SAME FILL-ORIGIN LEVEL: 0 DIFFERENT FILL-ORIGIN LEVEL: 0

PSCL4 TOTAL     ACCESS:     106360  HIT:     105585  MISS:        775  HIT %:    99.2713  MISS %:   0.728657   MPKI: 0.003875
PSCL4 LOAD TRANSLATION ACCESS:     106360  HIT:     105585  MISS:        775  HIT %:    99.2713  MISS %:   0.728657   MPKI: 0.003875
PSCL4 PREFETCH  REQUESTED:          0  ISSUED:          0  USEFUL:          0  USELESS:          0
PSCL4 USEFUL LOAD PREFETCHES:          0 PREFETCH ISSUED TO LOWER LEVEL:          0  ACCURACY: -nan
PSCL4 TIMELY PREFETCHES:          0 LATE PREFETCHES: 0 DROPPED PREFETCHES: 0
PSCL4 PREFETCHES SAME FILL-ORIGIN LEVEL: 0 DIFFERENT FILL-ORIGIN LEVEL: 0

PSCL3 TOTAL     ACCESS:      94658  HIT:      75099  MISS:      19559  HIT %:    79.3372  MISS %:    20.6628   MPKI: 0.097795
PSCL3 LOAD TRANSLATION ACCESS:      94658  HIT:      75099  MISS:      19559  HIT %:    79.3372  MISS %:    20.6628   MPKI: 0.097795
PSCL3 PREFETCH  REQUESTED:          0  ISSUED:          0  USEFUL:          0  USELESS:          0
PSCL3 USEFUL LOAD PREFETCHES:          0 PREFETCH ISSUED TO LOWER LEVEL:          0  ACCURACY: -nan
PSCL3 TIMELY PREFETCHES:          0 LATE PREFETCHES: 0 DROPPED PREFETCHES: 0
PSCL3 PREFETCHES SAME FILL-ORIGIN LEVEL: 0 DIFFERENT FILL-ORIGIN LEVEL: 0

PSCL2 TOTAL     ACCESS:     108093  HIT:      61577  MISS:      46516  HIT %:    56.9667  MISS %:    43.0333   MPKI: 0.23258
PSCL2 LOAD TRANSLATION ACCESS:     108093  HIT:      61577  MISS:      46516  HIT %:    56.9667  MISS %:    43.0333   MPKI: 0.23258
PSCL2 PREFETCH  REQUESTED:          0  ISSUED:          0  USEFUL:          0  USELESS:          0
PSCL2 USEFUL LOAD PREFETCHES:          0 PREFETCH ISSUED TO LOWER LEVEL:          0  ACCURACY: -nan
PSCL2 TIMELY PREFETCHES:          0 LATE PREFETCHES: 0 DROPPED PREFETCHES: 0
PSCL2 PREFETCHES SAME FILL-ORIGIN LEVEL: 0 DIFFERENT FILL-ORIGIN LEVEL: 0

LLC TOTAL     ACCESS:    3564545  HIT:    3279977  MISS:     284568  HIT %:    92.0167  MISS %:    7.98329   MPKI: 1.42284
LLC LOAD      ACCESS:    1851189  HIT:    1744541  MISS:     106648  HIT %:    94.2389  MISS %:    5.76105   MPKI: 0.53324
LLC RFO       ACCESS:     600077  HIT:     492865  MISS:     107212  HIT %:    82.1336  MISS %:    17.8664   MPKI: 0.53606
LLC PREFETCH  ACCESS:      74475  HIT:      31510  MISS:      42965  HIT %:    42.3095  MISS %:    57.6905   MPKI: 0.214825
AGUS PREFETCH L1 MISS: 0
LLC WRITEBACK ACCESS:     949712  HIT:     935118  MISS:      14594  HIT %:    98.4633  MISS %:    1.53668   MPKI: 0.07297
LLC LOAD TRANSLATION ACCESS:      89092  HIT:      75943  MISS:      13149  HIT %:    85.2411  MISS %:    14.7589   MPKI: 0.065745
LLC PREFETCH  REQUESTED:          0  ISSUED:          0  USEFUL:         47  USELESS:      44854
LLC USEFUL LOAD PREFETCHES:         47 PREFETCH ISSUED TO LOWER LEVEL:      42965  ACCURACY: 0.109391
LLC TIMELY PREFETCHES:         47 LATE PREFETCHES: 0 DROPPED PREFETCHES: 0
LLC PREFETCHES SAME FILL-ORIGIN LEVEL: 0 DIFFERENT FILL-ORIGIN LEVEL: 0
LLC AVERAGE MISS LATENCY: 208.941 cycles
LLC RQ	ACCESS:    2540363	FORWARD:          0	MERGED:          0	TO_CACHE:    2540358
LLC WQ	ACCESS:     949712	FORWARD:          5	MERGED:          0	TO_CACHE:     949712
LLC PQ	ACCESS:      74475	FORWARD:          0	MERGED:          0	TO_CACHE:      74475

LLC Dense regions hint to LLC: 0

RAW hits: 1583560
Loads Generated: 52205381
Loads sent to L1D: 50621821
Stores Generated: 26484783
Stores sent to L1D: 26484793
Major fault: 0 Minor fault: 6405
Allocated PAGES: 6405
CPU 0 L1D PC-based stride prefetcher final stats
Degree: 3

DRAM Statistics
 CHANNEL 0
 RQ ROW_BUFFER_HIT:      95118  ROW_BUFFER_MISS:     174855
 DBUS_CONGESTED:        153
 WQ ROW_BUFFER_HIT:      25496  ROW_BUFFER_MISS:     114545  FULL:        114

 AVG_CONGESTED_CYCLE: 5
 All warmup complete: 2
Channel 0 Bank busy for read cycles: 0
Channel 0 Bank busy for write cycles: 0
Channel 0
Rank 0
0banks busy for read cycles: 757827421
0banks busy for write cycles: 47748
1banks busy for read cycles: 13420659
1banks busy for write cycles: 7265956
2banks busy for read cycles: 2090880
2banks busy for write cycles: 1428367
3banks busy for read cycles: 500908
3banks busy for write cycles: 458076
4banks busy for read cycles: 160281
4banks busy for write cycles: 202333
5banks busy for read cycles: 120670
5banks busy for write cycles: 136124
6banks busy for read cycles: 142749
6banks busy for write cycles: 113251
7banks busy for read cycles: 255779
7banks busy for write cycles: 179542
8banks busy for read cycles: 1031212
8banks busy for write cycles: 1388712

CPU 0 Branch Prediction Accuracy: 99.9107% MPKI: 0.163205 Average ROB Occupancy at Mispredict: 42.5617
Branch types
NOT_BRANCH: 163456044 81.728%
BRANCH_DIRECT_JUMP: 2345713 1.17286%
BRANCH_INDIRECT: 14157352 7.07868%
BRANCH_CONDITIONAL: 8914733 4.45737%
BRANCH_DIRECT_CALL: 4151171 2.07559%
BRANCH_INDIRECT_CALL: 1411897 0.705948%
BRANCH_RETURN: 5563020 2.78151%
BRANCH_OTHER: 0 0%

DRAM PAGES: 1048576
Allocated PAGES: 6405
