
*** ChampSim Multicore Out-of-Order Simulator ***

Warmup Instructions: 50000000
Simulation Instructions: 200000000
Number of CPUs: 1
LLC sets: 2048
LLC ways: 16
Off-chip DRAM Size: 4096 MB Channels: 1 Width: 64-bit Data Rate: 6400 MT/s
CPU 0 runs traces/spec2k17/srv_52.champsimtrace.xz
.xz
BTB has LRU replacement policy
ITLB has LRU replacement policy
DTLB has LRU replacement policy
STLB has LRU replacement policy
L1I has LRU replacement policy
CPU 0 L1D IP-based stride prefetcher
L1D has LRU replacement policy
Initialize SRRIP state for L2C
Initialize DRRIP state for LLC
Heartbeat CPU 0 instructions: 10000000 cycles: 2944800 heartbeat IPC: 3.39582 cumulative IPC: 3.39582 (Simulation time: 0 hr 0 min 35 sec) 
Heartbeat CPU 0 instructions: 20000003 cycles: 5882943 heartbeat IPC: 3.40351 cumulative IPC: 3.39966 (Simulation time: 0 hr 1 min 14 sec) 
Heartbeat CPU 0 instructions: 30000000 cycles: 8813631 heartbeat IPC: 3.41217 cumulative IPC: 3.40382 (Simulation time: 0 hr 1 min 51 sec) 
*** Reached end of trace for Core: 0 Repeating trace: traces/spec2k17/srv_52.champsimtrace.xz
Heartbeat CPU 0 instructions: 40000001 cycles: 11751580 heartbeat IPC: 3.40374 cumulative IPC: 3.4038 (Simulation time: 0 hr 2 min 31 sec) 
Heartbeat CPU 0 instructions: 50000001 cycles: 14689057 heartbeat IPC: 3.40428 cumulative IPC: 3.40389 (Simulation time: 0 hr 3 min 10 sec) 

Warmup complete CPU 0 instructions: 50000001 cycles: 14689057 (Simulation time: 0 hr 3 min 10 sec) 

Heartbeat CPU 0 instructions: 60000000 cycles: 47681618 heartbeat IPC: 0.303099 cumulative IPC: 0.303099 (Simulation time: 0 hr 3 min 57 sec) 
*** Reached end of trace for Core: 0 Repeating trace: traces/spec2k17/srv_52.champsimtrace.xz
Heartbeat CPU 0 instructions: 70000000 cycles: 80194226 heartbeat IPC: 0.307573 cumulative IPC: 0.305319 (Simulation time: 0 hr 4 min 52 sec) 
Heartbeat CPU 0 instructions: 80000000 cycles: 114467021 heartbeat IPC: 0.291777 cumulative IPC: 0.300668 (Simulation time: 0 hr 5 min 47 sec) 
Heartbeat CPU 0 instructions: 90000000 cycles: 147363922 heartbeat IPC: 0.30398 cumulative IPC: 0.301489 (Simulation time: 0 hr 6 min 47 sec) 
*** Reached end of trace for Core: 0 Repeating trace: traces/spec2k17/srv_52.champsimtrace.xz
Heartbeat CPU 0 instructions: 100000000 cycles: 180065138 heartbeat IPC: 0.305799 cumulative IPC: 0.302341 (Simulation time: 0 hr 7 min 41 sec) 
Heartbeat CPU 0 instructions: 110000000 cycles: 213524282 heartbeat IPC: 0.298872 cumulative IPC: 0.301757 (Simulation time: 0 hr 8 min 36 sec) 
Heartbeat CPU 0 instructions: 120000000 cycles: 246985570 heartbeat IPC: 0.298853 cumulative IPC: 0.301339 (Simulation time: 0 hr 9 min 35 sec) 
*** Reached end of trace for Core: 0 Repeating trace: traces/spec2k17/srv_52.champsimtrace.xz
Heartbeat CPU 0 instructions: 130000002 cycles: 279497463 heartbeat IPC: 0.30758 cumulative IPC: 0.302105 (Simulation time: 0 hr 10 min 24 sec) 
Heartbeat CPU 0 instructions: 140000000 cycles: 313114793 heartbeat IPC: 0.297466 cumulative IPC: 0.301583 (Simulation time: 0 hr 11 min 19 sec) 
Heartbeat CPU 0 instructions: 150000000 cycles: 346249233 heartbeat IPC: 0.301801 cumulative IPC: 0.301604 (Simulation time: 0 hr 12 min 17 sec) 
*** Reached end of trace for Core: 0 Repeating trace: traces/spec2k17/srv_52.champsimtrace.xz
Heartbeat CPU 0 instructions: 160000000 cycles: 378699879 heartbeat IPC: 0.30816 cumulative IPC: 0.302189 (Simulation time: 0 hr 13 min 10 sec) 
Heartbeat CPU 0 instructions: 170000000 cycles: 412591061 heartbeat IPC: 0.295062 cumulative IPC: 0.301582 (Simulation time: 0 hr 14 min 4 sec) 
Heartbeat CPU 0 instructions: 180000000 cycles: 445428607 heartbeat IPC: 0.304529 cumulative IPC: 0.301807 (Simulation time: 0 hr 14 min 57 sec) 
*** Reached end of trace for Core: 0 Repeating trace: traces/spec2k17/srv_52.champsimtrace.xz
Heartbeat CPU 0 instructions: 190000001 cycles: 478107636 heartbeat IPC: 0.306007 cumulative IPC: 0.302103 (Simulation time: 0 hr 15 min 54 sec) 
Heartbeat CPU 0 instructions: 200000001 cycles: 511775144 heartbeat IPC: 0.297022 cumulative IPC: 0.301759 (Simulation time: 0 hr 16 min 45 sec) 
Heartbeat CPU 0 instructions: 210000003 cycles: 544981356 heartbeat IPC: 0.301149 cumulative IPC: 0.30172 (Simulation time: 0 hr 17 min 45 sec) 
*** Reached end of trace for Core: 0 Repeating trace: traces/spec2k17/srv_52.champsimtrace.xz
Heartbeat CPU 0 instructions: 220000000 cycles: 577697364 heartbeat IPC: 0.305661 cumulative IPC: 0.301949 (Simulation time: 0 hr 18 min 40 sec) 
Heartbeat CPU 0 instructions: 230000001 cycles: 611146200 heartbeat IPC: 0.298964 cumulative IPC: 0.301782 (Simulation time: 0 hr 19 min 32 sec) 
Heartbeat CPU 0 instructions: 240000000 cycles: 644193807 heartbeat IPC: 0.302594 cumulative IPC: 0.301825 (Simulation time: 0 hr 20 min 30 sec) 
*** Reached end of trace for Core: 0 Repeating trace: traces/spec2k17/srv_52.champsimtrace.xz
Heartbeat CPU 0 instructions: 250000000 cycles: 677241778 heartbeat IPC: 0.30259 cumulative IPC: 0.301863 (Simulation time: 0 hr 21 min 34 sec) 
Finished CPU 0 instructions: 200000003 cycles: 662552722 cumulative IPC: 0.301863 (Simulation time: 0 hr 21 min 34 sec) 

ChampSim completed all CPUs

Region of Interest Statistics

CPU 0 cumulative IPC: 0.301863 instructions: 200000003 cycles: 662552722
ITLB TOTAL     ACCESS:   34829711  HIT:   33188622  MISS:    1641089  HIT %:    95.2882  MISS %:    4.71175   MPKI: 8.20544
ITLB LOAD TRANSLATION ACCESS:   34829711  HIT:   33188622  MISS:    1641089  HIT %:    95.2882  MISS %:    4.71175   MPKI: 8.20544
ITLB PREFETCH  REQUESTED:          0  ISSUED:          0  USEFUL:          0  USELESS:          0
ITLB USEFUL LOAD PREFETCHES:          0 PREFETCH ISSUED TO LOWER LEVEL:          0  ACCURACY: -nan
ITLB TIMELY PREFETCHES:          0 LATE PREFETCHES: 0 DROPPED PREFETCHES: 0
ITLB PREFETCHES SAME FILL-ORIGIN LEVEL: 0 DIFFERENT FILL-ORIGIN LEVEL: 0
ITLB AVERAGE MISS LATENCY: 10.1117 cycles
ITLB RQ	ACCESS:   41089387	FORWARD:          0	MERGED:    5806393	TO_CACHE:   35282994

DTLB TOTAL     ACCESS:   43502713  HIT:   41813469  MISS:    1689244  HIT %:    96.1169  MISS %:    3.88308   MPKI: 8.44622
DTLB LOAD TRANSLATION ACCESS:   43502713  HIT:   41813469  MISS:    1689244  HIT %:    96.1169  MISS %:    3.88308   MPKI: 8.44622
DTLB PREFETCH  REQUESTED:          0  ISSUED:          0  USEFUL:          0  USELESS:          0
DTLB USEFUL LOAD PREFETCHES:          0 PREFETCH ISSUED TO LOWER LEVEL:          0  ACCURACY: -nan
DTLB TIMELY PREFETCHES:          0 LATE PREFETCHES: 0 DROPPED PREFETCHES: 0
DTLB PREFETCHES SAME FILL-ORIGIN LEVEL: 0 DIFFERENT FILL-ORIGIN LEVEL: 0
DTLB AVERAGE MISS LATENCY: 13.0603 cycles
DTLB RQ	ACCESS:   58952605	FORWARD:          0	MERGED:   15335663	TO_CACHE:   43616942

STLB TOTAL     ACCESS:    3468748  HIT:    3323147  MISS:     145601  HIT %:    95.8025  MISS %:    4.19751   MPKI: 0.728005
STLB LOAD TRANSLATION ACCESS:    3330333  HIT:    3184732  MISS:     145601  HIT %:     95.628  MISS %:    4.37197   MPKI: 0.728005
STLB TRANSLATION FROM L1D PREFETCHER ACCESS:     138415  HIT:     138415  MISS:          0  HIT %:        100  MISS %:          0   MPKI: 0
STLB PREFETCH  REQUESTED:          0  ISSUED:          0  USEFUL:          0  USELESS:          0
STLB USEFUL LOAD PREFETCHES:          0 PREFETCH ISSUED TO LOWER LEVEL:          0  ACCURACY: -nan
STLB TIMELY PREFETCHES:          0 LATE PREFETCHES: 0 DROPPED PREFETCHES: 0
STLB PREFETCHES SAME FILL-ORIGIN LEVEL: 0 DIFFERENT FILL-ORIGIN LEVEL: 0
STLB AVERAGE MISS LATENCY: 59.4932 cycles
STLB RQ	ACCESS:    3728904	FORWARD:          0	MERGED:     260156	TO_CACHE:    3468748

STLB Hit, L1D data hit: 0
STLB Hit, L2C data hit: 0
STLB Hit, LLC data hit: 0
STLB Hit, LLC data miss: 0
STLB STLB hints to L2: 0
L1D TOTAL     ACCESS:   57408496  HIT:   53270556  MISS:    4137940  HIT %:    92.7921  MISS %:    7.20789   MPKI: 20.6897
L1D LOAD      ACCESS:   35377636  HIT:   32490981  MISS:    2886655  HIT %:    91.8405  MISS %:    8.15955   MPKI: 14.4333
L1D RFO       ACCESS:   21717514  HIT:   20528262  MISS:    1189252  HIT %:     94.524  MISS %:      5.476   MPKI: 5.94626
L1D PREFETCH  ACCESS:     313346  HIT:     251313  MISS:      62033  HIT %:     80.203  MISS %:     19.797   MPKI: 0.310165
AGUS PREFETCH L1 MISS: 0
L1D PREFETCH  REQUESTED:     931684  ISSUED:     931684  USEFUL:      18713  USELESS:      43320
L1D USEFUL LOAD PREFETCHES:      18713 PREFETCH ISSUED TO LOWER LEVEL:     115244  ACCURACY: 16.2377
L1D TIMELY PREFETCHES:      18713 LATE PREFETCHES: 21055 DROPPED PREFETCHES: 0
L1D PREFETCHES SAME FILL-ORIGIN LEVEL: 83660 DIFFERENT FILL-ORIGIN LEVEL: 31584
L1D AVERAGE MISS LATENCY: 1.81906e+06 cycles
L1D RQ	ACCESS:   45978957	FORWARD:          0	MERGED:   10244862	TO_CACHE:   35547933
L1D WQ	ACCESS:   23620808	FORWARD:     186162	MERGED:     216136	TO_CACHE:   23404672
L1D PQ	ACCESS:     533113	FORWARD:          0	MERGED:     134542	TO_CACHE:     398571

L1D UNIQUE REGIONS ACCESSED: 0
L1D REGIONS CONFLICTS: 0
L1D Cross Page Prefetch Requests: 0
L1D Same Page Prefetch Requests: 661912
L1D ROI Sum of L1D PQ occupancy: 5521040
L1D PREFETCHES PUSHED FROM L2C: 0
L1I TOTAL     ACCESS:   39834312  HIT:   31334564  MISS:    8499748  HIT %:    78.6622  MISS %:    21.3378   MPKI: 42.4987
L1I LOAD      ACCESS:   39834312  HIT:   31334564  MISS:    8499748  HIT %:    78.6622  MISS %:    21.3378   MPKI: 42.4987
L1I PREFETCH  REQUESTED:          0  ISSUED:          0  USEFUL:          0  USELESS:          0
L1I USEFUL LOAD PREFETCHES:          0 PREFETCH ISSUED TO LOWER LEVEL:          0  ACCURACY: -nan
L1I TIMELY PREFETCHES:          0 LATE PREFETCHES: 0 DROPPED PREFETCHES: 0
L1I PREFETCHES SAME FILL-ORIGIN LEVEL: 0 DIFFERENT FILL-ORIGIN LEVEL: 0
L1I AVERAGE MISS LATENCY: 21.6856 cycles
L1I RQ	ACCESS:   60221341	FORWARD:          0	MERGED:   19131954	TO_CACHE:   41089387

BTB TOTAL     ACCESS:   30246495  HIT:   19435977  MISS:   10810518  HIT %:    64.2586  MISS %:    35.7414   MPKI: 54.0526
BTB BRANCH_DIRECT_JUMP	ACCESS:    1982982  HIT:    1218303  MISS:     764679
BTB BRANCH_INDIRECT	ACCESS:   12253769  HIT:    7844105  MISS:    4409664
BTB BRANCH_CONDITIONAL	ACCESS:    7055935  HIT:    6130160  MISS:     925775
BTB BRANCH_DIRECT_CALL	ACCESS:    3467834  HIT:    2019941  MISS:    1447893
BTB BRANCH_INDIRECT_CALL	ACCESS:    1009127  HIT:     529624  MISS:     479503
BTB BRANCH_RETURN	ACCESS:    4476848  HIT:    1693844  MISS:    2783004
BTB BRANCH_OTHER ACCESS:          0  HIT:          0  MISS:          0

L2C TOTAL     ACCESS:   14975688  HIT:   10765613  MISS:    4210075  HIT %:    71.8873  MISS %:    28.1127   MPKI: 21.0504
L2C LOAD      ACCESS:   11365341  HIT:    8119318  MISS:    3246023  HIT %:    71.4393  MISS %:    28.5607   MPKI: 16.2301
L2C DATA LOAD MPKI: 5.60896
L2C INSTRUCTION LOAD MPKI: 10.6211
L2C RFO       ACCESS:    1188681  HIT:     547318  MISS:     641363  HIT %:    46.0441  MISS %:    53.9559   MPKI: 3.20681
L2C PREFETCH  ACCESS:      94127  HIT:      28966  MISS:      65161  HIT %:    30.7733  MISS %:    69.2267   MPKI: 0.325805
AGUS PREFETCH L1 MISS: 0
L2C DATA PREFETCH MPKI: 0.325805
L2C INSTRUCTION PREFETCH MPKI: 0
L2C WRITEBACK ACCESS:    2103871  HIT:    1961572  MISS:     142299  HIT %:    93.2363  MISS %:    6.76368   MPKI: 0.711495
L2C LOAD TRANSLATION ACCESS:     223668  HIT:     108439  MISS:     115229  HIT %:    48.4821  MISS %:    51.5179   MPKI: 0.576145
L2C PREFETCH  REQUESTED:          0  ISSUED:          0  USEFUL:       6468  USELESS:      58803
L2C USEFUL LOAD PREFETCHES:       6468 PREFETCH ISSUED TO LOWER LEVEL:      78834  ACCURACY: 8.20458
L2C TIMELY PREFETCHES:       6468 LATE PREFETCHES: 13673 DROPPED PREFETCHES: 0
L2C PREFETCHES SAME FILL-ORIGIN LEVEL: 25021 DIFFERENT FILL-ORIGIN LEVEL: 0
L2C AVERAGE MISS LATENCY: 47.5025 cycles
L2C RQ	ACCESS:   12777712	FORWARD:          0	MERGED:          0	TO_CACHE:   12777705
L2C WQ	ACCESS:    2103874	FORWARD:          7	MERGED:          0	TO_CACHE:    2103874
L2C PQ	ACCESS:     115244	FORWARD:          0	MERGED:          4	TO_CACHE:     115240

L2C Instructions Evicting Data 870214
L2C Translations Evicting Data 63929
L2C Data Evicting Data 964876
L2C Instructions Evicting Instructions 1207406
L2C Translations Evicting Instructions 46747
L2C Data Evicting Instructions 802699
L2C Instructions Evicting Translations 46610
L2C Translations Evicting Translations 4553
L2C Data Evicting Translations 60742
L2C Dense regions hint from L2: 0
PSCL5 TOTAL     ACCESS:     145601  HIT:     145601  MISS:          0  HIT %:        100  MISS %:          0   MPKI: 0
PSCL5 LOAD TRANSLATION ACCESS:     145601  HIT:     145601  MISS:          0  HIT %:        100  MISS %:          0   MPKI: 0
PSCL5 PREFETCH  REQUESTED:          0  ISSUED:          0  USEFUL:          0  USELESS:          0
PSCL5 USEFUL LOAD PREFETCHES:          0 PREFETCH ISSUED TO LOWER LEVEL:          0  ACCURACY: -nan
PSCL5 TIMELY PREFETCHES:          0 LATE PREFETCHES: 0 DROPPED PREFETCHES: 0
PSCL5 PREFETCHES SAME FILL-ORIGIN LEVEL: 0 DIFFERENT FILL-ORIGIN LEVEL: 0

PSCL4 TOTAL     ACCESS:     142475  HIT:     141219  MISS:       1256  HIT %:    99.1184  MISS %:   0.881558   MPKI: 0.00628
PSCL4 LOAD TRANSLATION ACCESS:     142475  HIT:     141219  MISS:       1256  HIT %:    99.1184  MISS %:   0.881558   MPKI: 0.00628
PSCL4 PREFETCH  REQUESTED:          0  ISSUED:          0  USEFUL:          0  USELESS:          0
PSCL4 USEFUL LOAD PREFETCHES:          0 PREFETCH ISSUED TO LOWER LEVEL:          0  ACCURACY: -nan
PSCL4 TIMELY PREFETCHES:          0 LATE PREFETCHES: 0 DROPPED PREFETCHES: 0
PSCL4 PREFETCHES SAME FILL-ORIGIN LEVEL: 0 DIFFERENT FILL-ORIGIN LEVEL: 0

PSCL3 TOTAL     ACCESS:     134602  HIT:     115443  MISS:      19159  HIT %:    85.7662  MISS %:    14.2338   MPKI: 0.095795
PSCL3 LOAD TRANSLATION ACCESS:     134602  HIT:     115443  MISS:      19159  HIT %:    85.7662  MISS %:    14.2338   MPKI: 0.095795
PSCL3 PREFETCH  REQUESTED:          0  ISSUED:          0  USEFUL:          0  USELESS:          0
PSCL3 USEFUL LOAD PREFETCHES:          0 PREFETCH ISSUED TO LOWER LEVEL:          0  ACCURACY: -nan
PSCL3 TIMELY PREFETCHES:          0 LATE PREFETCHES: 0 DROPPED PREFETCHES: 0
PSCL3 PREFETCHES SAME FILL-ORIGIN LEVEL: 0 DIFFERENT FILL-ORIGIN LEVEL: 0

PSCL2 TOTAL     ACCESS:     145601  HIT:      87949  MISS:      57652  HIT %:    60.4041  MISS %:    39.5959   MPKI: 0.28826
PSCL2 LOAD TRANSLATION ACCESS:     145601  HIT:      87949  MISS:      57652  HIT %:    60.4041  MISS %:    39.5959   MPKI: 0.28826
PSCL2 PREFETCH  REQUESTED:          0  ISSUED:          0  USEFUL:          0  USELESS:          0
PSCL2 USEFUL LOAD PREFETCHES:          0 PREFETCH ISSUED TO LOWER LEVEL:          0  ACCURACY: -nan
PSCL2 TIMELY PREFETCHES:          0 LATE PREFETCHES: 0 DROPPED PREFETCHES: 0
PSCL2 PREFETCHES SAME FILL-ORIGIN LEVEL: 0 DIFFERENT FILL-ORIGIN LEVEL: 0

LLC TOTAL     ACCESS:    5127894  HIT:    4790805  MISS:     337089  HIT %:    93.4264  MISS %:    6.57363   MPKI: 1.68544
LLC LOAD      ACCESS:    3232350  HIT:    3097702  MISS:     134648  HIT %:    95.8344  MISS %:    4.16564   MPKI: 0.67324
LLC RFO       ACCESS:     641356  HIT:     488684  MISS:     152672  HIT %:    76.1954  MISS %:    23.8046   MPKI: 0.76336
LLC PREFETCH  ACCESS:      78834  HIT:      38833  MISS:      40001  HIT %:    49.2592  MISS %:    50.7408   MPKI: 0.200005
AGUS PREFETCH L1 MISS: 0
LLC WRITEBACK ACCESS:    1060125  HIT:    1058737  MISS:       1388  HIT %:    99.8691  MISS %:   0.130928   MPKI: 0.00694
LLC LOAD TRANSLATION ACCESS:     115229  HIT:     106849  MISS:       8380  HIT %:    92.7275  MISS %:    7.27247   MPKI: 0.0419
LLC PREFETCH  REQUESTED:          0  ISSUED:          0  USEFUL:        163  USELESS:      40492
LLC USEFUL LOAD PREFETCHES:        163 PREFETCH ISSUED TO LOWER LEVEL:      40001  ACCURACY: 0.40749
LLC TIMELY PREFETCHES:        163 LATE PREFETCHES: 0 DROPPED PREFETCHES: 0
LLC PREFETCHES SAME FILL-ORIGIN LEVEL: 0 DIFFERENT FILL-ORIGIN LEVEL: 0
LLC AVERAGE MISS LATENCY: 236.355 cycles
LLC RQ	ACCESS:    3988950	FORWARD:          0	MERGED:          0	TO_CACHE:    3988943
LLC WQ	ACCESS:    1060125	FORWARD:          7	MERGED:          0	TO_CACHE:    1060125
LLC PQ	ACCESS:      78834	FORWARD:          0	MERGED:          0	TO_CACHE:      78834

LLC Dense regions hint to LLC: 0

RAW hits: 1995943
Loads Generated: 47974900
Loads sent to L1D: 45978957
Stores Generated: 23620827
Stores sent to L1D: 23620808
Major fault: 0 Minor fault: 5016
Allocated PAGES: 5016
CPU 0 L1D PC-based stride prefetcher final stats
Degree: 3

DRAM Statistics
 CHANNEL 0
 RQ ROW_BUFFER_HIT:      86802  ROW_BUFFER_MISS:     248897
 DBUS_CONGESTED:         99
 WQ ROW_BUFFER_HIT:      30567  ROW_BUFFER_MISS:     203359  FULL:          0

 AVG_CONGESTED_CYCLE: 4
 All warmup complete: 2
Channel 0 Bank busy for read cycles: 0
Channel 0 Bank busy for write cycles: 0
Channel 0
Rank 0
0banks busy for read cycles: 617796907
0banks busy for write cycles: 88505
1banks busy for read cycles: 19379659
1banks busy for write cycles: 12364841
2banks busy for read cycles: 3364856
2banks busy for write cycles: 3048949
3banks busy for read cycles: 808483
3banks busy for write cycles: 1043486
4banks busy for read cycles: 164628
4banks busy for write cycles: 412240
5banks busy for read cycles: 127486
5banks busy for write cycles: 182258
6banks busy for read cycles: 126514
6banks busy for write cycles: 103168
7banks busy for read cycles: 238725
7banks busy for write cycles: 170836
8banks busy for read cycles: 1216262
8banks busy for write cycles: 1914920

CPU 0 Branch Prediction Accuracy: 99.8298% MPKI: 0.297015 Average ROB Occupancy at Mispredict: 21.7572
Branch types
NOT_BRANCH: 165095757 82.5479%
BRANCH_DIRECT_JUMP: 1982982 0.991491%
BRANCH_INDIRECT: 12253769 6.12688%
BRANCH_CONDITIONAL: 11713939 5.85697%
BRANCH_DIRECT_CALL: 3467834 1.73392%
BRANCH_INDIRECT_CALL: 1009127 0.504563%
BRANCH_RETURN: 4476848 2.23842%
BRANCH_OTHER: 0 0%

DRAM PAGES: 1048576
Allocated PAGES: 5016
