
*** ChampSim Multicore Out-of-Order Simulator ***

Warmup Instructions: 50000000
Simulation Instructions: 200000000
Number of CPUs: 1
LLC sets: 2048
LLC ways: 16
Off-chip DRAM Size: 4096 MB Channels: 1 Width: 64-bit Data Rate: 6400 MT/s
CPU 0 runs traces/spec2k17/client_002.champsimtrace.xz
.xz
BTB has LRU replacement policy
ITLB has LRU replacement policy
DTLB has LRU replacement policy
STLB has LRU replacement policy
L1I has LRU replacement policy
Bingo PHT WAYS: 16 and PHT_SIZE: 16384
L1D has LRU replacement policy
Initialize SRRIP state for L2C
Initialize DRRIP state for LLC
Heartbeat CPU 0 instructions: 10000002 cycles: 2799208 heartbeat IPC: 3.57244 cumulative IPC: 3.57244 (Simulation time: 0 hr 0 min 25 sec) 
Heartbeat CPU 0 instructions: 20000002 cycles: 5611100 heartbeat IPC: 3.55632 cumulative IPC: 3.56436 (Simulation time: 0 hr 0 min 49 sec) 
Heartbeat CPU 0 instructions: 30000000 cycles: 8403935 heartbeat IPC: 3.58059 cumulative IPC: 3.56976 (Simulation time: 0 hr 1 min 13 sec) 
Heartbeat CPU 0 instructions: 40000003 cycles: 11218206 heartbeat IPC: 3.55332 cumulative IPC: 3.56563 (Simulation time: 0 hr 1 min 39 sec) 
Heartbeat CPU 0 instructions: 50000001 cycles: 14031784 heartbeat IPC: 3.55419 cumulative IPC: 3.56334 (Simulation time: 0 hr 2 min 3 sec) 

Warmup complete CPU 0 instructions: 50000001 cycles: 14031784 (Simulation time: 0 hr 2 min 3 sec) 

Heartbeat CPU 0 instructions: 60000001 cycles: 29432376 heartbeat IPC: 0.649326 cumulative IPC: 0.649326 (Simulation time: 0 hr 2 min 34 sec) 
Heartbeat CPU 0 instructions: 70000002 cycles: 45031423 heartbeat IPC: 0.641065 cumulative IPC: 0.645169 (Simulation time: 0 hr 3 min 11 sec) 
Heartbeat CPU 0 instructions: 80000000 cycles: 60364849 heartbeat IPC: 0.65217 cumulative IPC: 0.647486 (Simulation time: 0 hr 3 min 53 sec) 
Heartbeat CPU 0 instructions: 90000000 cycles: 76692419 heartbeat IPC: 0.612461 cumulative IPC: 0.638359 (Simulation time: 0 hr 4 min 25 sec) 
Heartbeat CPU 0 instructions: 100000002 cycles: 92502977 heartbeat IPC: 0.632489 cumulative IPC: 0.637177 (Simulation time: 0 hr 4 min 57 sec) 
*** Reached end of trace for Core: 0 Repeating trace: traces/spec2k17/client_002.champsimtrace.xz
Heartbeat CPU 0 instructions: 110000000 cycles: 108346597 heartbeat IPC: 0.631169 cumulative IPC: 0.636167 (Simulation time: 0 hr 5 min 40 sec) 
Heartbeat CPU 0 instructions: 120000000 cycles: 123900505 heartbeat IPC: 0.642925 cumulative IPC: 0.637124 (Simulation time: 0 hr 6 min 31 sec) 
Heartbeat CPU 0 instructions: 130000003 cycles: 139077964 heartbeat IPC: 0.658872 cumulative IPC: 0.639764 (Simulation time: 0 hr 7 min 21 sec) 
Heartbeat CPU 0 instructions: 140000002 cycles: 154479463 heartbeat IPC: 0.649287 cumulative IPC: 0.640808 (Simulation time: 0 hr 8 min 11 sec) 
Heartbeat CPU 0 instructions: 150000002 cycles: 169751846 heartbeat IPC: 0.654777 cumulative IPC: 0.642178 (Simulation time: 0 hr 8 min 54 sec) 
Heartbeat CPU 0 instructions: 160000000 cycles: 185128942 heartbeat IPC: 0.650318 cumulative IPC: 0.64291 (Simulation time: 0 hr 9 min 26 sec) 
Heartbeat CPU 0 instructions: 170000000 cycles: 200454668 heartbeat IPC: 0.652498 cumulative IPC: 0.643698 (Simulation time: 0 hr 9 min 58 sec) 
Heartbeat CPU 0 instructions: 180000001 cycles: 215750486 heartbeat IPC: 0.653774 cumulative IPC: 0.644462 (Simulation time: 0 hr 10 min 30 sec) 
Heartbeat CPU 0 instructions: 190000000 cycles: 231258152 heartbeat IPC: 0.644842 cumulative IPC: 0.644489 (Simulation time: 0 hr 11 min 1 sec) 
Heartbeat CPU 0 instructions: 200000000 cycles: 247471036 heartbeat IPC: 0.616793 cumulative IPC: 0.642565 (Simulation time: 0 hr 11 min 34 sec) 
*** Reached end of trace for Core: 0 Repeating trace: traces/spec2k17/client_002.champsimtrace.xz
Heartbeat CPU 0 instructions: 210000002 cycles: 263286239 heartbeat IPC: 0.632303 cumulative IPC: 0.641914 (Simulation time: 0 hr 12 min 5 sec) 
Heartbeat CPU 0 instructions: 220000000 cycles: 278519294 heartbeat IPC: 0.656467 cumulative IPC: 0.642752 (Simulation time: 0 hr 12 min 37 sec) 
Heartbeat CPU 0 instructions: 230000000 cycles: 293816611 heartbeat IPC: 0.653709 cumulative IPC: 0.643352 (Simulation time: 0 hr 13 min 9 sec) 
Heartbeat CPU 0 instructions: 240000003 cycles: 309090000 heartbeat IPC: 0.654734 cumulative IPC: 0.643941 (Simulation time: 0 hr 13 min 41 sec) 
Heartbeat CPU 0 instructions: 250000003 cycles: 324409326 heartbeat IPC: 0.65277 cumulative IPC: 0.644377 (Simulation time: 0 hr 14 min 12 sec) 
Finished CPU 0 instructions: 200000002 cycles: 310377542 cumulative IPC: 0.644377 (Simulation time: 0 hr 14 min 12 sec) 

ChampSim completed all CPUs

Region of Interest Statistics

CPU 0 cumulative IPC: 0.644377 instructions: 200000002 cycles: 310377542
ITLB TOTAL     ACCESS:   33366352  HIT:   32927360  MISS:     438992  HIT %:    98.6843  MISS %:    1.31567   MPKI: 2.19496
ITLB LOAD TRANSLATION ACCESS:   33366352  HIT:   32927360  MISS:     438992  HIT %:    98.6843  MISS %:    1.31567   MPKI: 2.19496
ITLB PREFETCH  REQUESTED:          0  ISSUED:          0  USEFUL:          0  USELESS:          0
ITLB USEFUL LOAD PREFETCHES:          0 PREFETCH ISSUED TO LOWER LEVEL:          0  ACCURACY: -nan
ITLB TIMELY PREFETCHES:          0 LATE PREFETCHES: 0 DROPPED PREFETCHES: 0
ITLB PREFETCHES SAME FILL-ORIGIN LEVEL: 0 DIFFERENT FILL-ORIGIN LEVEL: 0
ITLB AVERAGE MISS LATENCY: 9.44933 cycles
ITLB RQ	ACCESS:   39505954	FORWARD:          0	MERGED:    5995803	TO_CACHE:   33510151

DTLB TOTAL     ACCESS:   39125716  HIT:   38511615  MISS:     614101  HIT %:    98.4304  MISS %:    1.56956   MPKI: 3.0705
DTLB LOAD TRANSLATION ACCESS:   39125716  HIT:   38511615  MISS:     614101  HIT %:    98.4304  MISS %:    1.56956   MPKI: 3.0705
DTLB PREFETCH  REQUESTED:          0  ISSUED:          0  USEFUL:          0  USELESS:          0
DTLB USEFUL LOAD PREFETCHES:          0 PREFETCH ISSUED TO LOWER LEVEL:          0  ACCURACY: -nan
DTLB TIMELY PREFETCHES:          0 LATE PREFETCHES: 0 DROPPED PREFETCHES: 0
DTLB PREFETCHES SAME FILL-ORIGIN LEVEL: 0 DIFFERENT FILL-ORIGIN LEVEL: 0
DTLB AVERAGE MISS LATENCY: 10.5655 cycles
DTLB RQ	ACCESS:   54283017	FORWARD:          0	MERGED:   15102897	TO_CACHE:   39180120

STLB TOTAL     ACCESS:    1364365  HIT:    1331657  MISS:      32708  HIT %:    97.6027  MISS %:    2.39731   MPKI: 0.16354
STLB LOAD TRANSLATION ACCESS:    1053093  HIT:    1020385  MISS:      32708  HIT %:    96.8941  MISS %:     3.1059   MPKI: 0.16354
STLB TRANSLATION FROM L1D PREFETCHER ACCESS:     311272  HIT:     311272  MISS:          0  HIT %:        100  MISS %:          0   MPKI: 0
STLB PREFETCH  REQUESTED:          0  ISSUED:          0  USEFUL:          0  USELESS:          0
STLB USEFUL LOAD PREFETCHES:          0 PREFETCH ISSUED TO LOWER LEVEL:          0  ACCURACY: -nan
STLB TIMELY PREFETCHES:          0 LATE PREFETCHES: 0 DROPPED PREFETCHES: 0
STLB PREFETCHES SAME FILL-ORIGIN LEVEL: 0 DIFFERENT FILL-ORIGIN LEVEL: 0
STLB AVERAGE MISS LATENCY: 34.971 cycles
STLB RQ	ACCESS:    2254966	FORWARD:          0	MERGED:     890601	TO_CACHE:    1364365

STLB Hit, L1D data hit: 0
STLB Hit, L2C data hit: 0
STLB Hit, LLC data hit: 0
STLB Hit, LLC data miss: 0
STLB STLB hints to L2: 0
L1D TOTAL     ACCESS:   54812614  HIT:   53688344  MISS:    1124270  HIT %:    97.9489  MISS %:    2.05112   MPKI: 5.62135
L1D LOAD      ACCESS:   28573912  HIT:   28277010  MISS:     296902  HIT %:    98.9609  MISS %:    1.03907   MPKI: 1.48451
L1D RFO       ACCESS:   25163979  HIT:   24909398  MISS:     254581  HIT %:    98.9883  MISS %:    1.01169   MPKI: 1.2729
L1D PREFETCH  ACCESS:    1074723  HIT:     501936  MISS:     572787  HIT %:    46.7038  MISS %:    53.2962   MPKI: 2.86393
AGUS PREFETCH L1 MISS: 0
L1D PREFETCH  REQUESTED:    2405005  ISSUED:    2405005  USEFUL:     420657  USELESS:     152180
L1D USEFUL LOAD PREFETCHES:     420657 PREFETCH ISSUED TO LOWER LEVEL:     682329  ACCURACY: 61.6502
L1D TIMELY PREFETCHES:     420657 LATE PREFETCHES: 5070 DROPPED PREFETCHES: 0
L1D PREFETCHES SAME FILL-ORIGIN LEVEL: 578455 DIFFERENT FILL-ORIGIN LEVEL: 103874
L1D AVERAGE MISS LATENCY: 862452 cycles
L1D RQ	ACCESS:   45675316	FORWARD:          0	MERGED:   16369242	TO_CACHE:   28588591
L1D WQ	ACCESS:   26301615	FORWARD:     718682	MERGED:     607189	TO_CACHE:   25694426
L1D PQ	ACCESS:    1203132	FORWARD:          0	MERGED:         60	TO_CACHE:    1201873

L1D UNIQUE REGIONS ACCESSED: 0
L1D REGIONS CONFLICTS: 0
L1D Cross Page Prefetch Requests: 0
L1D Same Page Prefetch Requests: 1453771
L1D ROI Sum of L1D PQ occupancy: 17737327
L1D PREFETCHES PUSHED FROM L2C: 0
L1I TOTAL     ACCESS:   39090404  HIT:   37293554  MISS:    1796850  HIT %:    95.4033  MISS %:    4.59665   MPKI: 8.98425
L1I LOAD      ACCESS:   39090404  HIT:   37293554  MISS:    1796850  HIT %:    95.4033  MISS %:    4.59665   MPKI: 8.98425
L1I PREFETCH  REQUESTED:          0  ISSUED:          0  USEFUL:          0  USELESS:          0
L1I USEFUL LOAD PREFETCHES:          0 PREFETCH ISSUED TO LOWER LEVEL:          0  ACCURACY: -nan
L1I TIMELY PREFETCHES:          0 LATE PREFETCHES: 0 DROPPED PREFETCHES: 0
L1I PREFETCHES SAME FILL-ORIGIN LEVEL: 0 DIFFERENT FILL-ORIGIN LEVEL: 0
L1I AVERAGE MISS LATENCY: 20.1649 cycles
L1I RQ	ACCESS:   60709031	FORWARD:          0	MERGED:   21203077	TO_CACHE:   39505954

BTB TOTAL     ACCESS:   30231228  HIT:   27084386  MISS:    3146842  HIT %:    89.5908  MISS %:    10.4092   MPKI: 15.7342
BTB BRANCH_DIRECT_JUMP	ACCESS:    1998705  HIT:    1920221  MISS:      78484
BTB BRANCH_INDIRECT	ACCESS:    8495012  HIT:    7557989  MISS:     937023
BTB BRANCH_CONDITIONAL	ACCESS:   11359976  HIT:   11215254  MISS:     144722
BTB BRANCH_DIRECT_CALL	ACCESS:    3711340  HIT:    3545021  MISS:     166319
BTB BRANCH_INDIRECT_CALL	ACCESS:     476971  HIT:     364345  MISS:     112626
BTB BRANCH_RETURN	ACCESS:    4189224  HIT:    2481556  MISS:    1707668
BTB BRANCH_OTHER ACCESS:          0  HIT:          0  MISS:          0

L2C TOTAL     ACCESS:    3521876  HIT:    2709811  MISS:     812065  HIT %:    76.9423  MISS %:    23.0577   MPKI: 4.06032
L2C LOAD      ACCESS:    2088679  HIT:    1705108  MISS:     383571  HIT %:    81.6357  MISS %:    18.3643   MPKI: 1.91785
L2C DATA LOAD MPKI: 0.396975
L2C INSTRUCTION LOAD MPKI: 1.52088
L2C RFO       ACCESS:     253976  HIT:      78117  MISS:     175859  HIT %:    30.7576  MISS %:    69.2424   MPKI: 0.879295
L2C PREFETCH  ACCESS:     682158  HIT:     450809  MISS:     231349  HIT %:    66.0857  MISS %:    33.9143   MPKI: 1.15674
AGUS PREFETCH L1 MISS: 0
L2C DATA PREFETCH MPKI: 1.15674
L2C INSTRUCTION PREFETCH MPKI: 0
L2C WRITEBACK ACCESS:     463515  HIT:     448691  MISS:      14824  HIT %:    96.8018  MISS %:    3.19817   MPKI: 0.07412
L2C LOAD TRANSLATION ACCESS:      33548  HIT:      27086  MISS:       6462  HIT %:     80.738  MISS %:     19.262   MPKI: 0.03231
L2C PREFETCH  REQUESTED:          0  ISSUED:          0  USEFUL:      45932  USELESS:     185016
L2C USEFUL LOAD PREFETCHES:      45932 PREFETCH ISSUED TO LOWER LEVEL:     231496  ACCURACY: 19.8414
L2C TIMELY PREFETCHES:      45932 LATE PREFETCHES: 147 DROPPED PREFETCHES: 0
L2C PREFETCHES SAME FILL-ORIGIN LEVEL: 66078 DIFFERENT FILL-ORIGIN LEVEL: 0
L2C AVERAGE MISS LATENCY: 66.7678 cycles
L2C RQ	ACCESS:    2376213	FORWARD:          0	MERGED:          0	TO_CACHE:    2376203
L2C WQ	ACCESS:     463515	FORWARD:         34	MERGED:          0	TO_CACHE:     463515
L2C PQ	ACCESS:     682329	FORWARD:          0	MERGED:          0	TO_CACHE:     682305

L2C Instructions Evicting Data 189530
L2C Translations Evicting Data 3931
L2C Data Evicting Data 298349
L2C Instructions Evicting Instructions 112347
L2C Translations Evicting Instructions 2423
L2C Data Evicting Instructions 184302
L2C Instructions Evicting Translations 2299
L2C Translations Evicting Translations 108
L2C Data Evicting Translations 3952
L2C Dense regions hint from L2: 0
PSCL5 TOTAL     ACCESS:      32708  HIT:      32708  MISS:          0  HIT %:        100  MISS %:          0   MPKI: 0
PSCL5 LOAD TRANSLATION ACCESS:      32708  HIT:      32708  MISS:          0  HIT %:        100  MISS %:          0   MPKI: 0
PSCL5 PREFETCH  REQUESTED:          0  ISSUED:          0  USEFUL:          0  USELESS:          0
PSCL5 USEFUL LOAD PREFETCHES:          0 PREFETCH ISSUED TO LOWER LEVEL:          0  ACCURACY: -nan
PSCL5 TIMELY PREFETCHES:          0 LATE PREFETCHES: 0 DROPPED PREFETCHES: 0
PSCL5 PREFETCHES SAME FILL-ORIGIN LEVEL: 0 DIFFERENT FILL-ORIGIN LEVEL: 0

PSCL4 TOTAL     ACCESS:      32708  HIT:      32708  MISS:          0  HIT %:        100  MISS %:          0   MPKI: 0
PSCL4 LOAD TRANSLATION ACCESS:      32708  HIT:      32708  MISS:          0  HIT %:        100  MISS %:          0   MPKI: 0
PSCL4 PREFETCH  REQUESTED:          0  ISSUED:          0  USEFUL:          0  USELESS:          0
PSCL4 USEFUL LOAD PREFETCHES:          0 PREFETCH ISSUED TO LOWER LEVEL:          0  ACCURACY: -nan
PSCL4 TIMELY PREFETCHES:          0 LATE PREFETCHES: 0 DROPPED PREFETCHES: 0
PSCL4 PREFETCHES SAME FILL-ORIGIN LEVEL: 0 DIFFERENT FILL-ORIGIN LEVEL: 0

PSCL3 TOTAL     ACCESS:      32602  HIT:      32562  MISS:         40  HIT %:    99.8773  MISS %:   0.122692   MPKI: 0.0002
PSCL3 LOAD TRANSLATION ACCESS:      32602  HIT:      32562  MISS:         40  HIT %:    99.8773  MISS %:   0.122692   MPKI: 0.0002
PSCL3 PREFETCH  REQUESTED:          0  ISSUED:          0  USEFUL:          0  USELESS:          0
PSCL3 USEFUL LOAD PREFETCHES:          0 PREFETCH ISSUED TO LOWER LEVEL:          0  ACCURACY: -nan
PSCL3 TIMELY PREFETCHES:          0 LATE PREFETCHES: 0 DROPPED PREFETCHES: 0
PSCL3 PREFETCHES SAME FILL-ORIGIN LEVEL: 0 DIFFERENT FILL-ORIGIN LEVEL: 0

PSCL2 TOTAL     ACCESS:      32708  HIT:      31905  MISS:        803  HIT %:    97.5449  MISS %:    2.45506   MPKI: 0.004015
PSCL2 LOAD TRANSLATION ACCESS:      32708  HIT:      31905  MISS:        803  HIT %:    97.5449  MISS %:    2.45506   MPKI: 0.004015
PSCL2 PREFETCH  REQUESTED:          0  ISSUED:          0  USEFUL:          0  USELESS:          0
PSCL2 USEFUL LOAD PREFETCHES:          0 PREFETCH ISSUED TO LOWER LEVEL:          0  ACCURACY: -nan
PSCL2 TIMELY PREFETCHES:          0 LATE PREFETCHES: 0 DROPPED PREFETCHES: 0
PSCL2 PREFETCHES SAME FILL-ORIGIN LEVEL: 0 DIFFERENT FILL-ORIGIN LEVEL: 0

LLC TOTAL     ACCESS:    1061217  HIT:     843551  MISS:     217666  HIT %:     79.489  MISS %:     20.511   MPKI: 1.08833
LLC LOAD      ACCESS:     383550  HIT:     356496  MISS:      27054  HIT %:    92.9464  MISS %:    7.05358   MPKI: 0.13527
LLC RFO       ACCESS:     175733  HIT:      70006  MISS:     105727  HIT %:    39.8366  MISS %:    60.1634   MPKI: 0.528635
LLC PREFETCH  ACCESS:     231495  HIT:     149791  MISS:      81704  HIT %:    64.7059  MISS %:    35.2941   MPKI: 0.40852
AGUS PREFETCH L1 MISS: 0
LLC WRITEBACK ACCESS:     263977  HIT:     261903  MISS:       2074  HIT %:    99.2143  MISS %:   0.785675   MPKI: 0.01037
LLC LOAD TRANSLATION ACCESS:       6462  HIT:       5355  MISS:       1107  HIT %:    82.8691  MISS %:    17.1309   MPKI: 0.005535
LLC PREFETCH  REQUESTED:          0  ISSUED:          0  USEFUL:       3920  USELESS:      75996
LLC USEFUL LOAD PREFETCHES:       3920 PREFETCH ISSUED TO LOWER LEVEL:      81704  ACCURACY: 4.79781
LLC TIMELY PREFETCHES:       3920 LATE PREFETCHES: 0 DROPPED PREFETCHES: 0
LLC PREFETCHES SAME FILL-ORIGIN LEVEL: 0 DIFFERENT FILL-ORIGIN LEVEL: 0
LLC AVERAGE MISS LATENCY: 139.081 cycles
LLC RQ	ACCESS:     565745	FORWARD:          0	MERGED:          0	TO_CACHE:     565745
LLC WQ	ACCESS:     263977	FORWARD:          1	MERGED:          0	TO_CACHE:     263977
LLC PQ	ACCESS:     231496	FORWARD:          0	MERGED:          0	TO_CACHE:     231495

LLC Dense regions hint to LLC: 0

RAW hits: 4798173
Loads Generated: 50473486
Loads sent to L1D: 45675316
Stores Generated: 26301595
Stores sent to L1D: 26301615
Major fault: 0 Minor fault: 3152
Allocated PAGES: 3152
[Bingo] PHT Access: 335419
[Bingo] PHT Hit PC+Addr: 248278
[Bingo] PHT Hit PC+Offs: 35261
[Bingo] PHT Miss: 51880
[Bingo] Prefetch PC+Addr: 0
[Bingo] Prefetch PC+Offs: 0
[Bingo] Useful PC+Addr: 0
[Bingo] Useful PC+Offs: 0
[Bingo] Useless PC+Addr: 0
[Bingo] Useless PC+Offs: 0
[Bingo] L1 Prefetch per Region: 4.86159
[Bingo] L2 Prefetch per Region: 0.435104
[Bingo] L3 Prefetch per Region: 0
[Bingo] No Prefetch per Region: 26.7033
[Bingo] Number of Voters Mean: 3.919
[Bingo] Number of Voters SD: 4.30917
PHT read accesses: 2043243
PHT write accesses: 186098
AT read accesses: 26933872
AT write accesses: 26934393
FT read accesses: 3694097
FT write accesses: 335419
PS read accesses: 613138
PS write accesses: 283539
PHT tag read accesses: 5428366
PHT tag write accesses: 434376
AT tag read accesses: 482290808
AT tag write accesses: 27119979
FT tag read accesses: 61356746
FT tag write accesses: 2338523
PS tag read accesses: 467466075
PS tag write accesses: 895268

DRAM Statistics
 CHANNEL 0
 RQ ROW_BUFFER_HIT:     112930  ROW_BUFFER_MISS:     102662
 DBUS_CONGESTED:        196
 WQ ROW_BUFFER_HIT:      21720  ROW_BUFFER_MISS:     108892  FULL:          0

 AVG_CONGESTED_CYCLE: 5
 All warmup complete: 2
Channel 0 Bank busy for read cycles: 0
Channel 0 Bank busy for write cycles: 0
Channel 0
Rank 0
0banks busy for read cycles: 294530055
0banks busy for write cycles: 30110
1banks busy for read cycles: 5722883
1banks busy for write cycles: 3791602
2banks busy for read cycles: 732366
2banks busy for write cycles: 783096
3banks busy for read cycles: 449679
3banks busy for write cycles: 424487
4banks busy for read cycles: 234669
4banks busy for write cycles: 328898
5banks busy for read cycles: 220640
5banks busy for write cycles: 290168
6banks busy for read cycles: 248883
6banks busy for write cycles: 302456
7banks busy for read cycles: 349285
7banks busy for write cycles: 364342
8banks busy for read cycles: 817046
8banks busy for write cycles: 756878

CPU 0 Branch Prediction Accuracy: 99.6381% MPKI: 0.661605 Average ROB Occupancy at Mispredict: 22.7317
Branch types
NOT_BRANCH: 163436879 81.7184%
BRANCH_DIRECT_JUMP: 1998705 0.999352%
BRANCH_INDIRECT: 8495012 4.24751%
BRANCH_CONDITIONAL: 17691516 8.84576%
BRANCH_DIRECT_CALL: 3711340 1.85567%
BRANCH_INDIRECT_CALL: 476971 0.238485%
BRANCH_RETURN: 4189224 2.09461%
BRANCH_OTHER: 0 0%

DRAM PAGES: 1048576
Allocated PAGES: 3152
