
*** ChampSim Multicore Out-of-Order Simulator ***

Warmup Instructions: 50000000
Simulation Instructions: 200000000
Number of CPUs: 1
LLC sets: 2048
LLC ways: 16
Off-chip DRAM Size: 4096 MB Channels: 1 Width: 64-bit Data Rate: 6400 MT/s
CPU 0 runs traces/spec2k17/client_007.champsimtrace.xz
.xz
BTB has LRU replacement policy
ITLB has LRU replacement policy
DTLB has LRU replacement policy
STLB has LRU replacement policy
L1I has LRU replacement policy
Bingo PHT WAYS: 16 and PHT_SIZE: 16384
L1D has LRU replacement policy
Initialize SRRIP state for L2C
Initialize DRRIP state for LLC
Heartbeat CPU 0 instructions: 10000002 cycles: 2984169 heartbeat IPC: 3.35102 cumulative IPC: 3.35102 (Simulation time: 0 hr 0 min 36 sec) 
Heartbeat CPU 0 instructions: 20000003 cycles: 5850746 heartbeat IPC: 3.48848 cumulative IPC: 3.41837 (Simulation time: 0 hr 1 min 11 sec) 
Heartbeat CPU 0 instructions: 30000002 cycles: 8882334 heartbeat IPC: 3.2986 cumulative IPC: 3.37749 (Simulation time: 0 hr 1 min 43 sec) 
Heartbeat CPU 0 instructions: 40000001 cycles: 12104369 heartbeat IPC: 3.10363 cumulative IPC: 3.30459 (Simulation time: 0 hr 2 min 12 sec) 
Heartbeat CPU 0 instructions: 50000003 cycles: 14936775 heartbeat IPC: 3.53057 cumulative IPC: 3.34744 (Simulation time: 0 hr 2 min 37 sec) 

Warmup complete CPU 0 instructions: 50000003 cycles: 14936775 (Simulation time: 0 hr 2 min 37 sec) 

Heartbeat CPU 0 instructions: 60000000 cycles: 32555208 heartbeat IPC: 0.567587 cumulative IPC: 0.567587 (Simulation time: 0 hr 3 min 13 sec) 
Heartbeat CPU 0 instructions: 70000002 cycles: 48838498 heartbeat IPC: 0.614127 cumulative IPC: 0.58994 (Simulation time: 0 hr 3 min 53 sec) 
Heartbeat CPU 0 instructions: 80000000 cycles: 60768787 heartbeat IPC: 0.838202 cumulative IPC: 0.654564 (Simulation time: 0 hr 4 min 21 sec) 
Heartbeat CPU 0 instructions: 90000002 cycles: 79556756 heartbeat IPC: 0.532256 cumulative IPC: 0.619004 (Simulation time: 0 hr 4 min 57 sec) 
Heartbeat CPU 0 instructions: 100000000 cycles: 102550771 heartbeat IPC: 0.434896 cumulative IPC: 0.570685 (Simulation time: 0 hr 5 min 33 sec) 
*** Reached end of trace for Core: 0 Repeating trace: traces/spec2k17/client_007.champsimtrace.xz
Heartbeat CPU 0 instructions: 110000000 cycles: 125114088 heartbeat IPC: 0.443197 cumulative IPC: 0.544577 (Simulation time: 0 hr 6 min 7 sec) 
Heartbeat CPU 0 instructions: 120000000 cycles: 143937743 heartbeat IPC: 0.531246 cumulative IPC: 0.542632 (Simulation time: 0 hr 6 min 40 sec) 
Heartbeat CPU 0 instructions: 130000002 cycles: 161845419 heartbeat IPC: 0.55842 cumulative IPC: 0.544556 (Simulation time: 0 hr 7 min 17 sec) 
Heartbeat CPU 0 instructions: 140000003 cycles: 178144876 heartbeat IPC: 0.613517 cumulative IPC: 0.551443 (Simulation time: 0 hr 7 min 57 sec) 
Heartbeat CPU 0 instructions: 150000001 cycles: 195881669 heartbeat IPC: 0.5638 cumulative IPC: 0.552654 (Simulation time: 0 hr 8 min 30 sec) 
Heartbeat CPU 0 instructions: 160000000 cycles: 214037716 heartbeat IPC: 0.550781 cumulative IPC: 0.552484 (Simulation time: 0 hr 9 min 6 sec) 
Heartbeat CPU 0 instructions: 170000000 cycles: 229571959 heartbeat IPC: 0.643739 cumulative IPC: 0.559088 (Simulation time: 0 hr 9 min 46 sec) 
Heartbeat CPU 0 instructions: 180000001 cycles: 241809930 heartbeat IPC: 0.817129 cumulative IPC: 0.573007 (Simulation time: 0 hr 10 min 15 sec) 
Heartbeat CPU 0 instructions: 190000002 cycles: 259743899 heartbeat IPC: 0.557601 cumulative IPC: 0.571879 (Simulation time: 0 hr 10 min 49 sec) 
Heartbeat CPU 0 instructions: 200000003 cycles: 283056686 heartbeat IPC: 0.428949 cumulative IPC: 0.559451 (Simulation time: 0 hr 11 min 26 sec) 
*** Reached end of trace for Core: 0 Repeating trace: traces/spec2k17/client_007.champsimtrace.xz
Heartbeat CPU 0 instructions: 210000000 cycles: 304777448 heartbeat IPC: 0.460389 cumulative IPC: 0.552027 (Simulation time: 0 hr 12 min 0 sec) 
Heartbeat CPU 0 instructions: 220000000 cycles: 324732699 heartbeat IPC: 0.501121 cumulative IPC: 0.548748 (Simulation time: 0 hr 12 min 33 sec) 
Heartbeat CPU 0 instructions: 230000002 cycles: 342943703 heartbeat IPC: 0.549119 cumulative IPC: 0.548769 (Simulation time: 0 hr 13 min 8 sec) 
Heartbeat CPU 0 instructions: 240000000 cycles: 358880487 heartbeat IPC: 0.627479 cumulative IPC: 0.552416 (Simulation time: 0 hr 13 min 48 sec) 
Heartbeat CPU 0 instructions: 250000000 cycles: 375745659 heartbeat IPC: 0.592938 cumulative IPC: 0.55431 (Simulation time: 0 hr 14 min 22 sec) 
Finished CPU 0 instructions: 200000001 cycles: 360808885 cumulative IPC: 0.55431 (Simulation time: 0 hr 14 min 22 sec) 

ChampSim completed all CPUs

Region of Interest Statistics

CPU 0 cumulative IPC: 0.55431 instructions: 200000001 cycles: 360808885
ITLB TOTAL     ACCESS:   32998975  HIT:   32460747  MISS:     538228  HIT %:     98.369  MISS %:    1.63104   MPKI: 2.69114
ITLB LOAD TRANSLATION ACCESS:   32998975  HIT:   32460747  MISS:     538228  HIT %:     98.369  MISS %:    1.63104   MPKI: 2.69114
ITLB PREFETCH  REQUESTED:          0  ISSUED:          0  USEFUL:          0  USELESS:          0
ITLB USEFUL LOAD PREFETCHES:          0 PREFETCH ISSUED TO LOWER LEVEL:          0  ACCURACY: -nan
ITLB TIMELY PREFETCHES:          0 LATE PREFETCHES: 0 DROPPED PREFETCHES: 0
ITLB PREFETCHES SAME FILL-ORIGIN LEVEL: 0 DIFFERENT FILL-ORIGIN LEVEL: 0
ITLB AVERAGE MISS LATENCY: 9.75807 cycles
ITLB RQ	ACCESS:   38416671	FORWARD:          0	MERGED:    5321738	TO_CACHE:   33094933

DTLB TOTAL     ACCESS:   47395674  HIT:   46209744  MISS:    1185930  HIT %:    97.4978  MISS %:    2.50219   MPKI: 5.92965
DTLB LOAD TRANSLATION ACCESS:   47395674  HIT:   46209744  MISS:    1185930  HIT %:    97.4978  MISS %:    2.50219   MPKI: 5.92965
DTLB PREFETCH  REQUESTED:          0  ISSUED:          0  USEFUL:          0  USELESS:          0
DTLB USEFUL LOAD PREFETCHES:          0 PREFETCH ISSUED TO LOWER LEVEL:          0  ACCURACY: -nan
DTLB TIMELY PREFETCHES:          0 LATE PREFETCHES: 0 DROPPED PREFETCHES: 0
DTLB PREFETCHES SAME FILL-ORIGIN LEVEL: 0 DIFFERENT FILL-ORIGIN LEVEL: 0
DTLB AVERAGE MISS LATENCY: 10.2296 cycles
DTLB RQ	ACCESS:   58275790	FORWARD:          0	MERGED:   10821913	TO_CACHE:   47453877

STLB TOTAL     ACCESS:    2533774  HIT:    2516427  MISS:      17347  HIT %:    99.3154  MISS %:   0.684631   MPKI: 0.086735
STLB LOAD TRANSLATION ACCESS:    1724157  HIT:    1706810  MISS:      17347  HIT %:    98.9939  MISS %:    1.00611   MPKI: 0.086735
STLB TRANSLATION FROM L1D PREFETCHER ACCESS:     809617  HIT:     809617  MISS:          0  HIT %:        100  MISS %:          0   MPKI: 0
STLB PREFETCH  REQUESTED:          0  ISSUED:          0  USEFUL:          0  USELESS:          0
STLB USEFUL LOAD PREFETCHES:          0 PREFETCH ISSUED TO LOWER LEVEL:          0  ACCURACY: -nan
STLB TIMELY PREFETCHES:          0 LATE PREFETCHES: 0 DROPPED PREFETCHES: 0
STLB PREFETCHES SAME FILL-ORIGIN LEVEL: 0 DIFFERENT FILL-ORIGIN LEVEL: 0
STLB AVERAGE MISS LATENCY: 106.146 cycles
STLB RQ	ACCESS:    5362763	FORWARD:          0	MERGED:    2828990	TO_CACHE:    2533773

STLB Hit, L1D data hit: 0
STLB Hit, L2C data hit: 0
STLB Hit, LLC data hit: 0
STLB Hit, LLC data miss: 0
STLB STLB hints to L2: 0
L1D TOTAL     ACCESS:   60519189  HIT:   57416321  MISS:    3102868  HIT %:    94.8729  MISS %:    5.12708   MPKI: 15.5143
L1D LOAD      ACCESS:   39038362  HIT:   37802043  MISS:    1236319  HIT %:    96.8331  MISS %:    3.16693   MPKI: 6.18159
L1D RFO       ACCESS:   18634624  HIT:   18279855  MISS:     354769  HIT %:    98.0962  MISS %:    1.90382   MPKI: 1.77384
L1D PREFETCH  ACCESS:    2846203  HIT:    1334423  MISS:    1511780  HIT %:    46.8843  MISS %:    53.1157   MPKI: 7.5589
AGUS PREFETCH L1 MISS: 0
L1D PREFETCH  REQUESTED:    7277612  ISSUED:    7277612  USEFUL:    1201052  USELESS:     310701
L1D USEFUL LOAD PREFETCHES:    1201052 PREFETCH ISSUED TO LOWER LEVEL:    2204391  ACCURACY: 54.4845
L1D TIMELY PREFETCHES:    1201052 LATE PREFETCHES: 63508 DROPPED PREFETCHES: 0
L1D PREFETCHES SAME FILL-ORIGIN LEVEL: 1576462 DIFFERENT FILL-ORIGIN LEVEL: 627929
L1D AVERAGE MISS LATENCY: 4.1909e+06 cycles
L1D RQ	ACCESS:   53830773	FORWARD:          0	MERGED:   14491945	TO_CACHE:   39133649
L1D WQ	ACCESS:   20037205	FORWARD:     205366	MERGED:     895064	TO_CACHE:   19142141
L1D PQ	ACCESS:    3639006	FORWARD:          0	MERGED:        213	TO_CACHE:    3638606

L1D UNIQUE REGIONS ACCESSED: 0
L1D REGIONS CONFLICTS: 0
L1D Cross Page Prefetch Requests: 0
L1D Same Page Prefetch Requests: 4549499
L1D ROI Sum of L1D PQ occupancy: 53460828
L1D PREFETCHES PUSHED FROM L2C: 0
L1I TOTAL     ACCESS:   37262665  HIT:   34039439  MISS:    3223226  HIT %:      91.35  MISS %:    8.65001   MPKI: 16.1161
L1I LOAD      ACCESS:   37262665  HIT:   34039439  MISS:    3223226  HIT %:      91.35  MISS %:    8.65001   MPKI: 16.1161
L1I PREFETCH  REQUESTED:          0  ISSUED:          0  USEFUL:          0  USELESS:          0
L1I USEFUL LOAD PREFETCHES:          0 PREFETCH ISSUED TO LOWER LEVEL:          0  ACCURACY: -nan
L1I TIMELY PREFETCHES:          0 LATE PREFETCHES: 0 DROPPED PREFETCHES: 0
L1I PREFETCHES SAME FILL-ORIGIN LEVEL: 0 DIFFERENT FILL-ORIGIN LEVEL: 0
L1I AVERAGE MISS LATENCY: 16.6574 cycles
L1I RQ	ACCESS:   58646352	FORWARD:          0	MERGED:   20229681	TO_CACHE:   38416671

BTB TOTAL     ACCESS:   28220063  HIT:   25973493  MISS:    2246570  HIT %:    92.0391  MISS %:     7.9609   MPKI: 11.2328
BTB BRANCH_DIRECT_JUMP	ACCESS:    2927002  HIT:    2902357  MISS:      24645
BTB BRANCH_INDIRECT	ACCESS:    6543248  HIT:    5490545  MISS:    1052703
BTB BRANCH_CONDITIONAL	ACCESS:   13206143  HIT:   13158296  MISS:      47847
BTB BRANCH_DIRECT_CALL	ACCESS:    1693524  HIT:    1661218  MISS:      32306
BTB BRANCH_INDIRECT_CALL	ACCESS:    1043280  HIT:     784064  MISS:     259216
BTB BRANCH_RETURN	ACCESS:    2806866  HIT:    1977013  MISS:     829853
BTB BRANCH_OTHER ACCESS:          0  HIT:          0  MISS:          0

L2C TOTAL     ACCESS:    8050969  HIT:    7084206  MISS:     966763  HIT %:     87.992  MISS %:     12.008   MPKI: 4.83381
L2C LOAD      ACCESS:    4395821  HIT:    4094303  MISS:     301518  HIT %:    93.1408  MISS %:     6.8592   MPKI: 1.50759
L2C DATA LOAD MPKI: 1.20489
L2C INSTRUCTION LOAD MPKI: 0.3027
L2C RFO       ACCESS:     353570  HIT:     192263  MISS:     161307  HIT %:    54.3776  MISS %:    45.6224   MPKI: 0.806535
L2C PREFETCH  ACCESS:    2201407  HIT:    1713479  MISS:     487928  HIT %:    77.8356  MISS %:    22.1644   MPKI: 2.43964
AGUS PREFETCH L1 MISS: 0
L2C DATA PREFETCH MPKI: 2.43964
L2C INSTRUCTION PREFETCH MPKI: 0
L2C WRITEBACK ACCESS:    1081916  HIT:    1073353  MISS:       8563  HIT %:    99.2085  MISS %:   0.791466   MPKI: 0.042815
L2C LOAD TRANSLATION ACCESS:      18255  HIT:      10808  MISS:       7447  HIT %:    59.2057  MISS %:    40.7943   MPKI: 0.037235
L2C PREFETCH  REQUESTED:          0  ISSUED:          0  USEFUL:     183050  USELESS:     303558
L2C USEFUL LOAD PREFETCHES:     183050 PREFETCH ISSUED TO LOWER LEVEL:     490188  ACCURACY: 37.3428
L2C TIMELY PREFETCHES:     183050 LATE PREFETCHES: 2260 DROPPED PREFETCHES: 0
L2C PREFETCHES SAME FILL-ORIGIN LEVEL: 313302 DIFFERENT FILL-ORIGIN LEVEL: 0
L2C AVERAGE MISS LATENCY: 126.205 cycles
L2C RQ	ACCESS:    4767889	FORWARD:          0	MERGED:          0	TO_CACHE:    4767646
L2C WQ	ACCESS:    1081916	FORWARD:        279	MERGED:          0	TO_CACHE:    1081916
L2C PQ	ACCESS:    2203807	FORWARD:          0	MERGED:          0	TO_CACHE:    2203771

L2C Instructions Evicting Data 49043
L2C Translations Evicting Data 6223
L2C Data Evicting Data 832607
L2C Instructions Evicting Instructions 10417
L2C Translations Evicting Instructions 1025
L2C Data Evicting Instructions 51297
L2C Instructions Evicting Translations 1080
L2C Translations Evicting Translations 199
L2C Data Evicting Translations 6309
L2C Dense regions hint from L2: 0
PSCL5 TOTAL     ACCESS:      17347  HIT:      17347  MISS:          0  HIT %:        100  MISS %:          0   MPKI: 0
PSCL5 LOAD TRANSLATION ACCESS:      17347  HIT:      17347  MISS:          0  HIT %:        100  MISS %:          0   MPKI: 0
PSCL5 PREFETCH  REQUESTED:          0  ISSUED:          0  USEFUL:          0  USELESS:          0
PSCL5 USEFUL LOAD PREFETCHES:          0 PREFETCH ISSUED TO LOWER LEVEL:          0  ACCURACY: -nan
PSCL5 TIMELY PREFETCHES:          0 LATE PREFETCHES: 0 DROPPED PREFETCHES: 0
PSCL5 PREFETCHES SAME FILL-ORIGIN LEVEL: 0 DIFFERENT FILL-ORIGIN LEVEL: 0

PSCL4 TOTAL     ACCESS:      16611  HIT:      16588  MISS:         23  HIT %:    99.8615  MISS %:   0.138462   MPKI: 0.000115
PSCL4 LOAD TRANSLATION ACCESS:      16611  HIT:      16588  MISS:         23  HIT %:    99.8615  MISS %:   0.138462   MPKI: 0.000115
PSCL4 PREFETCH  REQUESTED:          0  ISSUED:          0  USEFUL:          0  USELESS:          0
PSCL4 USEFUL LOAD PREFETCHES:          0 PREFETCH ISSUED TO LOWER LEVEL:          0  ACCURACY: -nan
PSCL4 TIMELY PREFETCHES:          0 LATE PREFETCHES: 0 DROPPED PREFETCHES: 0
PSCL4 PREFETCHES SAME FILL-ORIGIN LEVEL: 0 DIFFERENT FILL-ORIGIN LEVEL: 0

PSCL3 TOTAL     ACCESS:      16938  HIT:      16865  MISS:         73  HIT %:     99.569  MISS %:   0.430984   MPKI: 0.000365
PSCL3 LOAD TRANSLATION ACCESS:      16938  HIT:      16865  MISS:         73  HIT %:     99.569  MISS %:   0.430984   MPKI: 0.000365
PSCL3 PREFETCH  REQUESTED:          0  ISSUED:          0  USEFUL:          0  USELESS:          0
PSCL3 USEFUL LOAD PREFETCHES:          0 PREFETCH ISSUED TO LOWER LEVEL:          0  ACCURACY: -nan
PSCL3 TIMELY PREFETCHES:          0 LATE PREFETCHES: 0 DROPPED PREFETCHES: 0
PSCL3 PREFETCHES SAME FILL-ORIGIN LEVEL: 0 DIFFERENT FILL-ORIGIN LEVEL: 0

PSCL2 TOTAL     ACCESS:      17347  HIT:      16530  MISS:        817  HIT %:    95.2903  MISS %:    4.70975   MPKI: 0.004085
PSCL2 LOAD TRANSLATION ACCESS:      17347  HIT:      16530  MISS:        817  HIT %:    95.2903  MISS %:    4.70975   MPKI: 0.004085
PSCL2 PREFETCH  REQUESTED:          0  ISSUED:          0  USEFUL:          0  USELESS:          0
PSCL2 USEFUL LOAD PREFETCHES:          0 PREFETCH ISSUED TO LOWER LEVEL:          0  ACCURACY: -nan
PSCL2 TIMELY PREFETCHES:          0 LATE PREFETCHES: 0 DROPPED PREFETCHES: 0
PSCL2 PREFETCHES SAME FILL-ORIGIN LEVEL: 0 DIFFERENT FILL-ORIGIN LEVEL: 0

LLC TOTAL     ACCESS:    1284363  HIT:     706170  MISS:     578193  HIT %:    54.9821  MISS %:    45.0179   MPKI: 2.89096
LLC LOAD      ACCESS:     299702  HIT:     145878  MISS:     153824  HIT %:    48.6743  MISS %:    51.3257   MPKI: 0.76912
LLC RFO       ACCESS:     160863  HIT:      21927  MISS:     138936  HIT %:    13.6309  MISS %:    86.3691   MPKI: 0.69468
LLC PREFETCH  ACCESS:     490188  HIT:     225883  MISS:     264305  HIT %:    46.0809  MISS %:    53.9191   MPKI: 1.32152
AGUS PREFETCH L1 MISS: 0
LLC WRITEBACK ACCESS:     326163  HIT:     310621  MISS:      15542  HIT %:    95.2349  MISS %:     4.7651   MPKI: 0.07771
LLC LOAD TRANSLATION ACCESS:       7447  HIT:       1861  MISS:       5586  HIT %:    24.9899  MISS %:    75.0101   MPKI: 0.02793
LLC PREFETCH  REQUESTED:          0  ISSUED:          0  USEFUL:      37474  USELESS:     224236
LLC USEFUL LOAD PREFETCHES:      37474 PREFETCH ISSUED TO LOWER LEVEL:     264305  ACCURACY: 14.1783
LLC TIMELY PREFETCHES:      37474 LATE PREFETCHES: 0 DROPPED PREFETCHES: 0
LLC PREFETCHES SAME FILL-ORIGIN LEVEL: 0 DIFFERENT FILL-ORIGIN LEVEL: 0
LLC AVERAGE MISS LATENCY: 161.388 cycles
LLC RQ	ACCESS:     468012	FORWARD:          0	MERGED:          0	TO_CACHE:     468012
LLC WQ	ACCESS:     326163	FORWARD:          0	MERGED:          0	TO_CACHE:     326163
LLC PQ	ACCESS:     490188	FORWARD:          0	MERGED:          0	TO_CACHE:     490188

LLC Dense regions hint to LLC: 0

RAW hits: 2545200
Loads Generated: 56375973
Loads sent to L1D: 53830773
Stores Generated: 20037193
Stores sent to L1D: 20037205
Major fault: 0 Minor fault: 4494
Allocated PAGES: 4494
[Bingo] PHT Access: 942619
[Bingo] PHT Hit PC+Addr: 604512
[Bingo] PHT Hit PC+Offs: 152672
[Bingo] PHT Miss: 185435
[Bingo] Prefetch PC+Addr: 0
[Bingo] Prefetch PC+Offs: 0
[Bingo] Useful PC+Addr: 0
[Bingo] Useful PC+Offs: 0
[Bingo] Useless PC+Addr: 0
[Bingo] Useless PC+Offs: 0
[Bingo] L1 Prefetch per Region: 4.91686
[Bingo] L2 Prefetch per Region: 1.01732
[Bingo] L3 Prefetch per Region: 0
[Bingo] No Prefetch per Region: 26.0658
[Bingo] Number of Voters Mean: 4.57737
[Bingo] Number of Voters SD: 4.95082
PHT read accesses: 10724839
PHT write accesses: 632970
AT read accesses: 33241807
AT write accesses: 33256071
FT read accesses: 13233402
FT write accesses: 942619
PS read accesses: 1605978
PS write accesses: 757184
PHT tag read accesses: 22415806
PHT tag write accesses: 1237482
AT tag read accesses: 700125118
AT tag write accesses: 33874736
FT tag read accesses: 196770382
FT tag write accesses: 7975203
PS tag read accesses: 653455487
PS tag write accesses: 2349031

DRAM Statistics
 CHANNEL 0
 RQ ROW_BUFFER_HIT:     191009  ROW_BUFFER_MISS:     371632
 DBUS_CONGESTED:        434
 WQ ROW_BUFFER_HIT:      43173  ROW_BUFFER_MISS:     213800  FULL:          0

 AVG_CONGESTED_CYCLE: 4
 All warmup complete: 2
Channel 0 Bank busy for read cycles: 0
Channel 0 Bank busy for write cycles: 0
Channel 0
Rank 0
0banks busy for read cycles: 306107478
0banks busy for write cycles: 81443
1banks busy for read cycles: 22512049
1banks busy for write cycles: 10861708
2banks busy for read cycles: 5098782
2banks busy for write cycles: 3364538
3banks busy for read cycles: 1821456
3banks busy for write cycles: 1825796
4banks busy for read cycles: 1142144
4banks busy for write cycles: 1213129
5banks busy for read cycles: 832975
5banks busy for write cycles: 902873
6banks busy for read cycles: 704916
6banks busy for write cycles: 767463
7banks busy for read cycles: 729289
7banks busy for write cycles: 700570
8banks busy for read cycles: 1145102
8banks busy for write cycles: 997175

CPU 0 Branch Prediction Accuracy: 98.8408% MPKI: 2.00119 Average ROB Occupancy at Mispredict: 27.6487
Branch types
NOT_BRANCH: 165473054 82.7365%
BRANCH_DIRECT_JUMP: 2927002 1.4635%
BRANCH_INDIRECT: 6543248 3.27162%
BRANCH_CONDITIONAL: 19512693 9.75635%
BRANCH_DIRECT_CALL: 1693524 0.846762%
BRANCH_INDIRECT_CALL: 1043280 0.52164%
BRANCH_RETURN: 2806866 1.40343%
BRANCH_OTHER: 0 0%

DRAM PAGES: 1048576
Allocated PAGES: 4494
