
*** ChampSim Multicore Out-of-Order Simulator ***

Warmup Instructions: 50000000
Simulation Instructions: 200000000
Number of CPUs: 1
LLC sets: 2048
LLC ways: 16
Off-chip DRAM Size: 4096 MB Channels: 1 Width: 64-bit Data Rate: 6400 MT/s
CPU 0 runs traces/spec2k17/server_036.champsimtrace.xz
.xz
BTB has LRU replacement policy
ITLB has LRU replacement policy
DTLB has LRU replacement policy
STLB has LRU replacement policy
L1I has LRU replacement policy
Bingo PHT WAYS: 16 and PHT_SIZE: 16384
L1D has LRU replacement policy
Initialize SRRIP state for L2C
Initialize DRRIP state for LLC
Heartbeat CPU 0 instructions: 10000000 cycles: 2724470 heartbeat IPC: 3.67044 cumulative IPC: 3.67044 (Simulation time: 0 hr 0 min 18 sec) 
Heartbeat CPU 0 instructions: 20000002 cycles: 5447605 heartbeat IPC: 3.67224 cumulative IPC: 3.67134 (Simulation time: 0 hr 0 min 36 sec) 
Heartbeat CPU 0 instructions: 30000002 cycles: 8171729 heartbeat IPC: 3.6709 cumulative IPC: 3.67119 (Simulation time: 0 hr 0 min 55 sec) 
Heartbeat CPU 0 instructions: 40000000 cycles: 10920990 heartbeat IPC: 3.63734 cumulative IPC: 3.66267 (Simulation time: 0 hr 1 min 13 sec) 
Heartbeat CPU 0 instructions: 50000001 cycles: 13643319 heartbeat IPC: 3.67333 cumulative IPC: 3.6648 (Simulation time: 0 hr 1 min 31 sec) 

Warmup complete CPU 0 instructions: 50000001 cycles: 13643319 (Simulation time: 0 hr 1 min 31 sec) 

Heartbeat CPU 0 instructions: 60000003 cycles: 31291024 heartbeat IPC: 0.566646 cumulative IPC: 0.566646 (Simulation time: 0 hr 2 min 3 sec) 
Heartbeat CPU 0 instructions: 70000000 cycles: 48805441 heartbeat IPC: 0.570958 cumulative IPC: 0.568794 (Simulation time: 0 hr 2 min 35 sec) 
Heartbeat CPU 0 instructions: 80000002 cycles: 66320781 heartbeat IPC: 0.570928 cumulative IPC: 0.569504 (Simulation time: 0 hr 3 min 6 sec) 
Heartbeat CPU 0 instructions: 90000000 cycles: 83863408 heartbeat IPC: 0.57004 cumulative IPC: 0.569638 (Simulation time: 0 hr 3 min 38 sec) 
Heartbeat CPU 0 instructions: 100000002 cycles: 101386600 heartbeat IPC: 0.570672 cumulative IPC: 0.569844 (Simulation time: 0 hr 4 min 10 sec) 
Heartbeat CPU 0 instructions: 110000000 cycles: 118906137 heartbeat IPC: 0.570791 cumulative IPC: 0.570002 (Simulation time: 0 hr 4 min 42 sec) 
Heartbeat CPU 0 instructions: 120000000 cycles: 136434955 heartbeat IPC: 0.570489 cumulative IPC: 0.570071 (Simulation time: 0 hr 5 min 13 sec) 
*** Reached end of trace for Core: 0 Repeating trace: traces/spec2k17/server_036.champsimtrace.xz
Heartbeat CPU 0 instructions: 130000003 cycles: 154079179 heartbeat IPC: 0.566758 cumulative IPC: 0.569655 (Simulation time: 0 hr 5 min 46 sec) 
Heartbeat CPU 0 instructions: 140000000 cycles: 171543723 heartbeat IPC: 0.572589 cumulative IPC: 0.56998 (Simulation time: 0 hr 6 min 17 sec) 
Heartbeat CPU 0 instructions: 150000000 cycles: 189017071 heartbeat IPC: 0.5723 cumulative IPC: 0.570211 (Simulation time: 0 hr 6 min 50 sec) 
Heartbeat CPU 0 instructions: 160000001 cycles: 207895660 heartbeat IPC: 0.529701 cumulative IPC: 0.566274 (Simulation time: 0 hr 7 min 24 sec) 
Heartbeat CPU 0 instructions: 170000000 cycles: 225409470 heartbeat IPC: 0.570978 cumulative IPC: 0.566663 (Simulation time: 0 hr 7 min 55 sec) 
Heartbeat CPU 0 instructions: 180000000 cycles: 243011892 heartbeat IPC: 0.568104 cumulative IPC: 0.566773 (Simulation time: 0 hr 8 min 27 sec) 
Heartbeat CPU 0 instructions: 190000003 cycles: 260523506 heartbeat IPC: 0.57105 cumulative IPC: 0.567077 (Simulation time: 0 hr 8 min 59 sec) 
Heartbeat CPU 0 instructions: 200000001 cycles: 278038523 heartbeat IPC: 0.570939 cumulative IPC: 0.567333 (Simulation time: 0 hr 9 min 31 sec) 
Heartbeat CPU 0 instructions: 210000003 cycles: 295572933 heartbeat IPC: 0.570307 cumulative IPC: 0.567518 (Simulation time: 0 hr 10 min 3 sec) 
Heartbeat CPU 0 instructions: 220000000 cycles: 313096031 heartbeat IPC: 0.570675 cumulative IPC: 0.567702 (Simulation time: 0 hr 10 min 35 sec) 
Heartbeat CPU 0 instructions: 230000001 cycles: 330617385 heartbeat IPC: 0.570732 cumulative IPC: 0.56787 (Simulation time: 0 hr 11 min 7 sec) 
Heartbeat CPU 0 instructions: 240000001 cycles: 348145649 heartbeat IPC: 0.570507 cumulative IPC: 0.568008 (Simulation time: 0 hr 11 min 39 sec) 
*** Reached end of trace for Core: 0 Repeating trace: traces/spec2k17/server_036.champsimtrace.xz
Heartbeat CPU 0 instructions: 250000000 cycles: 365768568 heartbeat IPC: 0.567443 cumulative IPC: 0.56798 (Simulation time: 0 hr 12 min 12 sec) 
Finished CPU 0 instructions: 200000000 cycles: 352125252 cumulative IPC: 0.56798 (Simulation time: 0 hr 12 min 12 sec) 

ChampSim completed all CPUs

Region of Interest Statistics

CPU 0 cumulative IPC: 0.56798 instructions: 200000000 cycles: 352125252
ITLB TOTAL     ACCESS:   35602258  HIT:   33754655  MISS:    1847603  HIT %:    94.8104  MISS %:    5.18957   MPKI: 9.23802
ITLB LOAD TRANSLATION ACCESS:   35602258  HIT:   33754655  MISS:    1847603  HIT %:    94.8104  MISS %:    5.18957   MPKI: 9.23802
ITLB PREFETCH  REQUESTED:          0  ISSUED:          0  USEFUL:          0  USELESS:          0
ITLB USEFUL LOAD PREFETCHES:          0 PREFETCH ISSUED TO LOWER LEVEL:          0  ACCURACY: -nan
ITLB TIMELY PREFETCHES:          0 LATE PREFETCHES: 0 DROPPED PREFETCHES: 0
ITLB PREFETCHES SAME FILL-ORIGIN LEVEL: 0 DIFFERENT FILL-ORIGIN LEVEL: 0
ITLB AVERAGE MISS LATENCY: 9.02508 cycles
ITLB RQ	ACCESS:   40699932	FORWARD:          0	MERGED:    4730632	TO_CACHE:   35969300

DTLB TOTAL     ACCESS:   40388842  HIT:   39473846  MISS:     914996  HIT %:    97.7345  MISS %:    2.26547   MPKI: 4.57498
DTLB LOAD TRANSLATION ACCESS:   40388842  HIT:   39473846  MISS:     914996  HIT %:    97.7345  MISS %:    2.26547   MPKI: 4.57498
DTLB PREFETCH  REQUESTED:          0  ISSUED:          0  USEFUL:          0  USELESS:          0
DTLB USEFUL LOAD PREFETCHES:          0 PREFETCH ISSUED TO LOWER LEVEL:          0  ACCURACY: -nan
DTLB TIMELY PREFETCHES:          0 LATE PREFETCHES: 0 DROPPED PREFETCHES: 0
DTLB PREFETCHES SAME FILL-ORIGIN LEVEL: 0 DIFFERENT FILL-ORIGIN LEVEL: 0
DTLB AVERAGE MISS LATENCY: 9.17119 cycles
DTLB RQ	ACCESS:   58672536	FORWARD:          0	MERGED:   18211301	TO_CACHE:   40461235

STLB TOTAL     ACCESS:    2776924  HIT:    2775456  MISS:       1468  HIT %:    99.9471  MISS %:  0.0528642   MPKI: 0.00734
STLB LOAD TRANSLATION ACCESS:    2762599  HIT:    2761131  MISS:       1468  HIT %:    99.9469  MISS %:  0.0531384   MPKI: 0.00734
STLB TRANSLATION FROM L1D PREFETCHER ACCESS:      14325  HIT:      14325  MISS:          0  HIT %:        100  MISS %:          0   MPKI: 0
STLB PREFETCH  REQUESTED:          0  ISSUED:          0  USEFUL:          0  USELESS:          0
STLB USEFUL LOAD PREFETCHES:          0 PREFETCH ISSUED TO LOWER LEVEL:          0  ACCURACY: -nan
STLB TIMELY PREFETCHES:          0 LATE PREFETCHES: 0 DROPPED PREFETCHES: 0
STLB PREFETCHES SAME FILL-ORIGIN LEVEL: 0 DIFFERENT FILL-ORIGIN LEVEL: 0
STLB AVERAGE MISS LATENCY: 113.721 cycles
STLB RQ	ACCESS:    2858397	FORWARD:          0	MERGED:      81473	TO_CACHE:    2776924

STLB Hit, L1D data hit: 0
STLB Hit, L2C data hit: 0
STLB Hit, LLC data hit: 0
STLB Hit, LLC data miss: 0
STLB STLB hints to L2: 0
L1D TOTAL     ACCESS:   58703540  HIT:   58622486  MISS:      81054  HIT %:    99.8619  MISS %:   0.138073   MPKI: 0.40527
L1D LOAD      ACCESS:   30319075  HIT:   30297063  MISS:      22012  HIT %:    99.9274  MISS %:  0.0726012   MPKI: 0.11006
L1D RFO       ACCESS:   28303569  HIT:   28269241  MISS:      34328  HIT %:    99.8787  MISS %:   0.121285   MPKI: 0.17164
L1D PREFETCH  ACCESS:      80896  HIT:      56182  MISS:      24714  HIT %:    69.4497  MISS %:    30.5503   MPKI: 0.12357
AGUS PREFETCH L1 MISS: 0
L1D PREFETCH  REQUESTED:     191601  ISSUED:     191601  USEFUL:      19145  USELESS:       5565
L1D USEFUL LOAD PREFETCHES:      19145 PREFETCH ISSUED TO LOWER LEVEL:      36487  ACCURACY: 52.4707
L1D TIMELY PREFETCHES:      19145 LATE PREFETCHES: 3954 DROPPED PREFETCHES: 0
L1D PREFETCHES SAME FILL-ORIGIN LEVEL: 28678 DIFFERENT FILL-ORIGIN LEVEL: 7809
L1D AVERAGE MISS LATENCY: 9.54269e+06 cycles
L1D RQ	ACCESS:   47358931	FORWARD:          0	MERGED:   16694252	TO_CACHE:   30320496
L1D WQ	ACCESS:   28475378	FORWARD:     344188	MERGED:     123338	TO_CACHE:   28352040
L1D PQ	ACCESS:      95803	FORWARD:          0	MERGED:          0	TO_CACHE:      95798

L1D UNIQUE REGIONS ACCESSED: 0
L1D REGIONS CONFLICTS: 0
L1D Cross Page Prefetch Requests: 0
L1D Same Page Prefetch Requests: 127092
L1D ROI Sum of L1D PQ occupancy: 1565040
L1D PREFETCHES PUSHED FROM L2C: 0
L1I TOTAL     ACCESS:   36329407  HIT:   21993978  MISS:   14335429  HIT %:    60.5404  MISS %:    39.4596   MPKI: 71.6771
L1I LOAD      ACCESS:   36329407  HIT:   21993978  MISS:   14335429  HIT %:    60.5404  MISS %:    39.4596   MPKI: 71.6771
L1I PREFETCH  REQUESTED:          0  ISSUED:          0  USEFUL:          0  USELESS:          0
L1I USEFUL LOAD PREFETCHES:          0 PREFETCH ISSUED TO LOWER LEVEL:          0  ACCURACY: -nan
L1I TIMELY PREFETCHES:          0 LATE PREFETCHES: 0 DROPPED PREFETCHES: 0
L1I PREFETCHES SAME FILL-ORIGIN LEVEL: 0 DIFFERENT FILL-ORIGIN LEVEL: 0
L1I AVERAGE MISS LATENCY: 14.1316 cycles
L1I RQ	ACCESS:   60650276	FORWARD:          0	MERGED:   19950344	TO_CACHE:   40699932

BTB TOTAL     ACCESS:   25908287  HIT:   23514246  MISS:    2394041  HIT %:    90.7596  MISS %:    9.24044   MPKI: 11.9702
BTB BRANCH_DIRECT_JUMP	ACCESS:    1774351  HIT:    1739635  MISS:      34716
BTB BRANCH_INDIRECT	ACCESS:   11507662  HIT:   10680986  MISS:     826676
BTB BRANCH_CONDITIONAL	ACCESS:    4376081  HIT:    4361317  MISS:      14764
BTB BRANCH_DIRECT_CALL	ACCESS:    3347214  HIT:    3281604  MISS:      65610
BTB BRANCH_INDIRECT_CALL	ACCESS:     777882  HIT:     612337  MISS:     165545
BTB BRANCH_RETURN	ACCESS:    4125097  HIT:    2838367  MISS:    1286730
BTB BRANCH_OTHER ACCESS:          0  HIT:          0  MISS:          0

L2C TOTAL     ACCESS:   14476545  HIT:   14402148  MISS:      74397  HIT %:    99.4861  MISS %:   0.513914   MPKI: 0.371985
L2C LOAD      ACCESS:   14353487  HIT:   14328837  MISS:      24650  HIT %:    99.8283  MISS %:   0.171735   MPKI: 0.12325
L2C DATA LOAD MPKI: 0.05924
L2C INSTRUCTION LOAD MPKI: 0.06401
L2C RFO       ACCESS:      34318  HIT:       5826  MISS:      28492  HIT %:    16.9765  MISS %:    83.0235   MPKI: 0.14246
L2C PREFETCH  ACCESS:      36478  HIT:      17503  MISS:      18975  HIT %:    47.9823  MISS %:    52.0177   MPKI: 0.094875
AGUS PREFETCH L1 MISS: 0
L2C DATA PREFETCH MPKI: 0.094875
L2C INSTRUCTION PREFETCH MPKI: 0
L2C WRITEBACK ACCESS:      50596  HIT:      49128  MISS:       1468  HIT %:    97.0986  MISS %:    2.90142   MPKI: 0.00734
L2C LOAD TRANSLATION ACCESS:       1666  HIT:        854  MISS:        812  HIT %:    51.2605  MISS %:    48.7395   MPKI: 0.00406
L2C PREFETCH  REQUESTED:          0  ISSUED:          0  USEFUL:       4899  USELESS:      13059
L2C USEFUL LOAD PREFETCHES:       4899 PREFETCH ISSUED TO LOWER LEVEL:      18984  ACCURACY: 25.8059
L2C TIMELY PREFETCHES:       4899 LATE PREFETCHES: 9 DROPPED PREFETCHES: 0
L2C PREFETCHES SAME FILL-ORIGIN LEVEL: 4665 DIFFERENT FILL-ORIGIN LEVEL: 0
L2C AVERAGE MISS LATENCY: 176.036 cycles
L2C RQ	ACCESS:   14389471	FORWARD:          0	MERGED:          0	TO_CACHE:   14389471
L2C WQ	ACCESS:      50596	FORWARD:          0	MERGED:          0	TO_CACHE:      50596
L2C PQ	ACCESS:      36487	FORWARD:          0	MERGED:          0	TO_CACHE:      36487

L2C Instructions Evicting Data 10479
L2C Translations Evicting Data 627
L2C Data Evicting Data 48658
L2C Instructions Evicting Instructions 2170
L2C Translations Evicting Instructions 162
L2C Data Evicting Instructions 10037
L2C Instructions Evicting Translations 153
L2C Translations Evicting Translations 23
L2C Data Evicting Translations 620
L2C Dense regions hint from L2: 0
PSCL5 TOTAL     ACCESS:       1468  HIT:       1468  MISS:          0  HIT %:        100  MISS %:          0   MPKI: 0
PSCL5 LOAD TRANSLATION ACCESS:       1468  HIT:       1468  MISS:          0  HIT %:        100  MISS %:          0   MPKI: 0
PSCL5 PREFETCH  REQUESTED:          0  ISSUED:          0  USEFUL:          0  USELESS:          0
PSCL5 USEFUL LOAD PREFETCHES:          0 PREFETCH ISSUED TO LOWER LEVEL:          0  ACCURACY: -nan
PSCL5 TIMELY PREFETCHES:          0 LATE PREFETCHES: 0 DROPPED PREFETCHES: 0
PSCL5 PREFETCHES SAME FILL-ORIGIN LEVEL: 0 DIFFERENT FILL-ORIGIN LEVEL: 0

PSCL4 TOTAL     ACCESS:       1213  HIT:       1202  MISS:         11  HIT %:    99.0932  MISS %:   0.906843   MPKI: 5.5e-05
PSCL4 LOAD TRANSLATION ACCESS:       1213  HIT:       1202  MISS:         11  HIT %:    99.0932  MISS %:   0.906843   MPKI: 5.5e-05
PSCL4 PREFETCH  REQUESTED:          0  ISSUED:          0  USEFUL:          0  USELESS:          0
PSCL4 USEFUL LOAD PREFETCHES:          0 PREFETCH ISSUED TO LOWER LEVEL:          0  ACCURACY: -nan
PSCL4 TIMELY PREFETCHES:          0 LATE PREFETCHES: 0 DROPPED PREFETCHES: 0
PSCL4 PREFETCHES SAME FILL-ORIGIN LEVEL: 0 DIFFERENT FILL-ORIGIN LEVEL: 0

PSCL3 TOTAL     ACCESS:       1363  HIT:       1352  MISS:         11  HIT %:     99.193  MISS %:   0.807043   MPKI: 5.5e-05
PSCL3 LOAD TRANSLATION ACCESS:       1363  HIT:       1352  MISS:         11  HIT %:     99.193  MISS %:   0.807043   MPKI: 5.5e-05
PSCL3 PREFETCH  REQUESTED:          0  ISSUED:          0  USEFUL:          0  USELESS:          0
PSCL3 USEFUL LOAD PREFETCHES:          0 PREFETCH ISSUED TO LOWER LEVEL:          0  ACCURACY: -nan
PSCL3 TIMELY PREFETCHES:          0 LATE PREFETCHES: 0 DROPPED PREFETCHES: 0
PSCL3 PREFETCHES SAME FILL-ORIGIN LEVEL: 0 DIFFERENT FILL-ORIGIN LEVEL: 0

PSCL2 TOTAL     ACCESS:       1468  HIT:       1292  MISS:        176  HIT %:    88.0109  MISS %:    11.9891   MPKI: 0.00088
PSCL2 LOAD TRANSLATION ACCESS:       1468  HIT:       1292  MISS:        176  HIT %:    88.0109  MISS %:    11.9891   MPKI: 0.00088
PSCL2 PREFETCH  REQUESTED:          0  ISSUED:          0  USEFUL:          0  USELESS:          0
PSCL2 USEFUL LOAD PREFETCHES:          0 PREFETCH ISSUED TO LOWER LEVEL:          0  ACCURACY: -nan
PSCL2 TIMELY PREFETCHES:          0 LATE PREFETCHES: 0 DROPPED PREFETCHES: 0
PSCL2 PREFETCHES SAME FILL-ORIGIN LEVEL: 0 DIFFERENT FILL-ORIGIN LEVEL: 0

LLC TOTAL     ACCESS:     111390  HIT:      65530  MISS:      45860  HIT %:    58.8293  MISS %:    41.1707   MPKI: 0.2293
LLC LOAD      ACCESS:      24641  HIT:      10567  MISS:      14074  HIT %:    42.8838  MISS %:    57.1162   MPKI: 0.07037
LLC RFO       ACCESS:      28492  HIT:      11499  MISS:      16993  HIT %:    40.3587  MISS %:    59.6413   MPKI: 0.084965
LLC PREFETCH  ACCESS:      18984  HIT:       5091  MISS:      13893  HIT %:    26.8173  MISS %:    73.1827   MPKI: 0.069465
AGUS PREFETCH L1 MISS: 0
LLC WRITEBACK ACCESS:      38461  HIT:      38084  MISS:        377  HIT %:    99.0198  MISS %:   0.980214   MPKI: 0.001885
LLC LOAD TRANSLATION ACCESS:        812  HIT:        289  MISS:        523  HIT %:    35.5911  MISS %:    64.4089   MPKI: 0.002615
LLC PREFETCH  REQUESTED:          0  ISSUED:          0  USEFUL:       1805  USELESS:      10348
LLC USEFUL LOAD PREFETCHES:       1805 PREFETCH ISSUED TO LOWER LEVEL:      13893  ACCURACY: 12.9922
LLC TIMELY PREFETCHES:       1805 LATE PREFETCHES: 0 DROPPED PREFETCHES: 0
LLC PREFETCHES SAME FILL-ORIGIN LEVEL: 0 DIFFERENT FILL-ORIGIN LEVEL: 0
LLC AVERAGE MISS LATENCY: 237.889 cycles
LLC RQ	ACCESS:      53945	FORWARD:          0	MERGED:          0	TO_CACHE:      53945
LLC WQ	ACCESS:      38461	FORWARD:          0	MERGED:          0	TO_CACHE:      38461
LLC PQ	ACCESS:      18984	FORWARD:          0	MERGED:          0	TO_CACHE:      18984

LLC Dense regions hint to LLC: 0

RAW hits: 2180294
Loads Generated: 49539227
Loads sent to L1D: 47358931
Stores Generated: 28475376
Stores sent to L1D: 28475378
Major fault: 0 Minor fault: 2050
Allocated PAGES: 2050
[Bingo] PHT Access: 12442
[Bingo] PHT Hit PC+Addr: 7857
[Bingo] PHT Hit PC+Offs: 2633
[Bingo] PHT Miss: 1952
[Bingo] Prefetch PC+Addr: 0
[Bingo] Prefetch PC+Offs: 0
[Bingo] Useful PC+Addr: 0
[Bingo] Useful PC+Offs: 0
[Bingo] Useless PC+Addr: 0
[Bingo] Useless PC+Offs: 0
[Bingo] L1 Prefetch per Region: 9.83422
[Bingo] L2 Prefetch per Region: 0.842993
[Bingo] L3 Prefetch per Region: 0
[Bingo] No Prefetch per Region: 21.3228
[Bingo] Number of Voters Mean: 8.30649
[Bingo] Number of Voters SD: 9.14884
PHT read accesses: 53435
PHT write accesses: 7342
AT read accesses: 27967860
AT write accesses: 27967866
FT read accesses: 4722010
FT write accesses: 12442
PS read accesses: 36458
PS write accesses: 10490
PHT tag read accesses: 228785
PHT tag write accesses: 15199
AT tag read accesses: 486691806
AT tag write accesses: 27975205
FT tag read accesses: 39571242
FT tag write accesses: 2379574
PS tag read accesses: 485474490
PS tag write accesses: 46767

DRAM Statistics
 CHANNEL 0
 RQ ROW_BUFFER_HIT:      20207  ROW_BUFFER_MISS:      25275
 DBUS_CONGESTED:          6
 WQ ROW_BUFFER_HIT:       5645  ROW_BUFFER_MISS:      19821  FULL:          0

 AVG_CONGESTED_CYCLE: 4
 All warmup complete: 2
Channel 0 Bank busy for read cycles: 0
Channel 0 Bank busy for write cycles: 0
Channel 0
Rank 0
0banks busy for read cycles: 348992679
0banks busy for write cycles: 3296
1banks busy for read cycles: 1002940
1banks busy for write cycles: 465130
2banks busy for read cycles: 223705
2banks busy for write cycles: 221225
3banks busy for read cycles: 88778
3banks busy for write cycles: 129829
4banks busy for read cycles: 90731
4banks busy for write cycles: 102264
5banks busy for read cycles: 59628
5banks busy for write cycles: 52299
6banks busy for read cycles: 67906
6banks busy for write cycles: 40304
7banks busy for read cycles: 94052
7banks busy for write cycles: 59911
8banks busy for read cycles: 181595
8banks busy for write cycles: 248981

CPU 0 Branch Prediction Accuracy: 99.9274% MPKI: 0.113335 Average ROB Occupancy at Mispredict: 9.68637
Branch types
NOT_BRANCH: 168787543 84.3938%
BRANCH_DIRECT_JUMP: 1774351 0.887176%
BRANCH_INDIRECT: 11507662 5.75383%
BRANCH_CONDITIONAL: 9680226 4.84011%
BRANCH_DIRECT_CALL: 3347214 1.67361%
BRANCH_INDIRECT_CALL: 777882 0.388941%
BRANCH_RETURN: 4125097 2.06255%
BRANCH_OTHER: 0 0%

DRAM PAGES: 1048576
Allocated PAGES: 2050
