
*** ChampSim Multicore Out-of-Order Simulator ***

Warmup Instructions: 50000000
Simulation Instructions: 200000000
Number of CPUs: 1
LLC sets: 2048
LLC ways: 16
Off-chip DRAM Size: 4096 MB Channels: 1 Width: 64-bit Data Rate: 6400 MT/s
CPU 0 runs traces/spec2k17/server_017.champsimtrace.xz
.xz
BTB has LRU replacement policy
ITLB has LRU replacement policy
DTLB has LRU replacement policy
STLB has LRU replacement policy
L1I has LRU replacement policy
Bingo PHT WAYS: 16 and PHT_SIZE: 16384
L1D has LRU replacement policy
Initialize SRRIP state for L2C
Initialize DRRIP state for LLC
Heartbeat CPU 0 instructions: 10000000 cycles: 2935204 heartbeat IPC: 3.40692 cumulative IPC: 3.40692 (Simulation time: 0 hr 0 min 26 sec) 
Heartbeat CPU 0 instructions: 20000000 cycles: 5869518 heartbeat IPC: 3.40795 cumulative IPC: 3.40743 (Simulation time: 0 hr 0 min 53 sec) 
Heartbeat CPU 0 instructions: 30000003 cycles: 8803212 heartbeat IPC: 3.40867 cumulative IPC: 3.40785 (Simulation time: 0 hr 1 min 19 sec) 
Heartbeat CPU 0 instructions: 40000003 cycles: 11737133 heartbeat IPC: 3.40841 cumulative IPC: 3.40799 (Simulation time: 0 hr 1 min 46 sec) 
Heartbeat CPU 0 instructions: 50000000 cycles: 14672379 heartbeat IPC: 3.40687 cumulative IPC: 3.40776 (Simulation time: 0 hr 2 min 12 sec) 

Warmup complete CPU 0 instructions: 50000004 cycles: 14672380 (Simulation time: 0 hr 2 min 12 sec) 

Heartbeat CPU 0 instructions: 60000003 cycles: 34255759 heartbeat IPC: 0.510637 cumulative IPC: 0.510637 (Simulation time: 0 hr 2 min 55 sec) 
Heartbeat CPU 0 instructions: 70000001 cycles: 53724325 heartbeat IPC: 0.513648 cumulative IPC: 0.512138 (Simulation time: 0 hr 3 min 39 sec) 
Heartbeat CPU 0 instructions: 80000003 cycles: 73168019 heartbeat IPC: 0.514306 cumulative IPC: 0.512859 (Simulation time: 0 hr 4 min 22 sec) 
Heartbeat CPU 0 instructions: 90000002 cycles: 92550298 heartbeat IPC: 0.515935 cumulative IPC: 0.513624 (Simulation time: 0 hr 5 min 6 sec) 
Heartbeat CPU 0 instructions: 100000002 cycles: 119695563 heartbeat IPC: 0.368388 cumulative IPC: 0.476085 (Simulation time: 0 hr 5 min 53 sec) 
*** Reached end of trace for Core: 0 Repeating trace: traces/spec2k17/server_017.champsimtrace.xz
Heartbeat CPU 0 instructions: 110000000 cycles: 141477491 heartbeat IPC: 0.459096 cumulative IPC: 0.473167 (Simulation time: 0 hr 6 min 37 sec) 
Heartbeat CPU 0 instructions: 120000002 cycles: 162053076 heartbeat IPC: 0.486013 cumulative IPC: 0.47496 (Simulation time: 0 hr 7 min 21 sec) 
Heartbeat CPU 0 instructions: 130000002 cycles: 182022759 heartbeat IPC: 0.500759 cumulative IPC: 0.478039 (Simulation time: 0 hr 8 min 5 sec) 
Heartbeat CPU 0 instructions: 140000002 cycles: 201829788 heartbeat IPC: 0.504871 cumulative IPC: 0.480879 (Simulation time: 0 hr 8 min 48 sec) 
Heartbeat CPU 0 instructions: 150000003 cycles: 221367132 heartbeat IPC: 0.51184 cumulative IPC: 0.483805 (Simulation time: 0 hr 9 min 32 sec) 
Heartbeat CPU 0 instructions: 160000001 cycles: 240893688 heartbeat IPC: 0.512123 cumulative IPC: 0.48625 (Simulation time: 0 hr 10 min 16 sec) 
Heartbeat CPU 0 instructions: 170000000 cycles: 260265901 heartbeat IPC: 0.516203 cumulative IPC: 0.488612 (Simulation time: 0 hr 11 min 0 sec) 
Heartbeat CPU 0 instructions: 180000001 cycles: 279713339 heartbeat IPC: 0.514207 cumulative IPC: 0.49049 (Simulation time: 0 hr 11 min 43 sec) 
Heartbeat CPU 0 instructions: 190000000 cycles: 299108389 heartbeat IPC: 0.515595 cumulative IPC: 0.492202 (Simulation time: 0 hr 12 min 27 sec) 
Heartbeat CPU 0 instructions: 200000003 cycles: 318419888 heartbeat IPC: 0.517826 cumulative IPC: 0.493831 (Simulation time: 0 hr 13 min 10 sec) 
Heartbeat CPU 0 instructions: 210000001 cycles: 346133146 heartbeat IPC: 0.360838 cumulative IPC: 0.482712 (Simulation time: 0 hr 13 min 57 sec) 
*** Reached end of trace for Core: 0 Repeating trace: traces/spec2k17/server_017.champsimtrace.xz
Heartbeat CPU 0 instructions: 220000000 cycles: 367168034 heartbeat IPC: 0.475401 cumulative IPC: 0.482275 (Simulation time: 0 hr 14 min 41 sec) 
Heartbeat CPU 0 instructions: 230000000 cycles: 387403307 heartbeat IPC: 0.494187 cumulative IPC: 0.482922 (Simulation time: 0 hr 15 min 25 sec) 
Heartbeat CPU 0 instructions: 240000001 cycles: 407292963 heartbeat IPC: 0.502774 cumulative IPC: 0.483928 (Simulation time: 0 hr 16 min 10 sec) 
Heartbeat CPU 0 instructions: 250000003 cycles: 426921149 heartbeat IPC: 0.509472 cumulative IPC: 0.485144 (Simulation time: 0 hr 16 min 54 sec) 
Finished CPU 0 instructions: 200000001 cycles: 412248770 cumulative IPC: 0.485144 (Simulation time: 0 hr 16 min 54 sec) 

ChampSim completed all CPUs

Region of Interest Statistics

CPU 0 cumulative IPC: 0.485144 instructions: 200000001 cycles: 412248770
ITLB TOTAL     ACCESS:   33538160  HIT:   32119499  MISS:    1418661  HIT %:      95.77  MISS %:    4.22999   MPKI: 7.0933
ITLB LOAD TRANSLATION ACCESS:   33538160  HIT:   32119499  MISS:    1418661  HIT %:      95.77  MISS %:    4.22999   MPKI: 7.0933
ITLB PREFETCH  REQUESTED:          0  ISSUED:          0  USEFUL:          0  USELESS:          0
ITLB USEFUL LOAD PREFETCHES:          0 PREFETCH ISSUED TO LOWER LEVEL:          0  ACCURACY: -nan
ITLB TIMELY PREFETCHES:          0 LATE PREFETCHES: 0 DROPPED PREFETCHES: 0
ITLB PREFETCHES SAME FILL-ORIGIN LEVEL: 0 DIFFERENT FILL-ORIGIN LEVEL: 0
ITLB AVERAGE MISS LATENCY: 9.53085 cycles
ITLB RQ	ACCESS:   40203350	FORWARD:          0	MERGED:    6207949	TO_CACHE:   33995401

DTLB TOTAL     ACCESS:   39358251  HIT:   37737042  MISS:    1621209  HIT %:    95.8809  MISS %:    4.11911   MPKI: 8.10604
DTLB LOAD TRANSLATION ACCESS:   39358251  HIT:   37737042  MISS:    1621209  HIT %:    95.8809  MISS %:    4.11911   MPKI: 8.10604
DTLB PREFETCH  REQUESTED:          0  ISSUED:          0  USEFUL:          0  USELESS:          0
DTLB USEFUL LOAD PREFETCHES:          0 PREFETCH ISSUED TO LOWER LEVEL:          0  ACCURACY: -nan
DTLB TIMELY PREFETCHES:          0 LATE PREFETCHES: 0 DROPPED PREFETCHES: 0
DTLB PREFETCHES SAME FILL-ORIGIN LEVEL: 0 DIFFERENT FILL-ORIGIN LEVEL: 0
DTLB AVERAGE MISS LATENCY: 22.1507 cycles
DTLB RQ	ACCESS:   59178391	FORWARD:          0	MERGED:   19424230	TO_CACHE:   39754161

STLB TOTAL     ACCESS:    4295472  HIT:    4101407  MISS:     194065  HIT %:    95.4821  MISS %:     4.5179   MPKI: 0.970325
STLB LOAD TRANSLATION ACCESS:    3039870  HIT:    2845815  MISS:     194055  HIT %:    93.6163  MISS %:    6.38366   MPKI: 0.970275
STLB TRANSLATION FROM L1D PREFETCHER ACCESS:    1255602  HIT:    1255592  MISS:         10  HIT %:    99.9992  MISS %: 0.000796431   MPKI: 5e-05
STLB PREFETCH  REQUESTED:          0  ISSUED:          0  USEFUL:          6  USELESS:          4
STLB USEFUL LOAD PREFETCHES:          6 PREFETCH ISSUED TO LOWER LEVEL:          0  ACCURACY: inf
STLB TIMELY PREFETCHES:          6 LATE PREFETCHES: 0 DROPPED PREFETCHES: 0
STLB PREFETCHES SAME FILL-ORIGIN LEVEL: 0 DIFFERENT FILL-ORIGIN LEVEL: 0
STLB AVERAGE MISS LATENCY: 113.643 cycles
STLB RQ	ACCESS:    7855051	FORWARD:          0	MERGED:    3559579	TO_CACHE:    4295472

STLB Hit, L1D data hit: 0
STLB Hit, L2C data hit: 0
STLB Hit, LLC data hit: 0
STLB Hit, LLC data miss: 0
STLB STLB hints to L2: 0
L1D TOTAL     ACCESS:   52681593  HIT:   45541723  MISS:    7139870  HIT %:    86.4471  MISS %:    13.5529   MPKI: 35.6993
L1D LOAD      ACCESS:   26678169  HIT:   24875297  MISS:    1802872  HIT %:    93.2421  MISS %:    6.75786   MPKI: 9.01436
L1D RFO       ACCESS:   22240250  HIT:   19051932  MISS:    3188318  HIT %:    85.6642  MISS %:    14.3358   MPKI: 15.9416
L1D PREFETCH  ACCESS:    3763174  HIT:    1614494  MISS:    2148680  HIT %:    42.9025  MISS %:    57.0975   MPKI: 10.7434
AGUS PREFETCH L1 MISS: 0
L1D PREFETCH  REQUESTED:    9631235  ISSUED:    9631235  USEFUL:    1682455  USELESS:     466239
L1D USEFUL LOAD PREFETCHES:    1682455 PREFETCH ISSUED TO LOWER LEVEL:    2908325  ACCURACY: 57.8496
L1D TIMELY PREFETCHES:    1682455 LATE PREFETCHES: 384221 DROPPED PREFETCHES: 0
L1D PREFETCHES SAME FILL-ORIGIN LEVEL: 2533442 DIFFERENT FILL-ORIGIN LEVEL: 374883
L1D AVERAGE MISS LATENCY: 1.18953e+07 cycles
L1D RQ	ACCESS:   44804974	FORWARD:          0	MERGED:   17680595	TO_CACHE:   26890083
L1D WQ	ACCESS:   32470855	FORWARD:     234891	MERGED:     182547	TO_CACHE:   32288308
L1D PQ	ACCESS:    4816054	FORWARD:          0	MERGED:        278	TO_CACHE:    4815181

L1D UNIQUE REGIONS ACCESSED: 0
L1D REGIONS CONFLICTS: 0
L1D Cross Page Prefetch Requests: 0
L1D Same Page Prefetch Requests: 6009135
L1D ROI Sum of L1D PQ occupancy: 70077111
L1D PREFETCHES PUSHED FROM L2C: 0
L1I TOTAL     ACCESS:   37725778  HIT:   29263063  MISS:    8462715  HIT %:    77.5678  MISS %:    22.4322   MPKI: 42.3136
L1I LOAD      ACCESS:   37725778  HIT:   29263063  MISS:    8462715  HIT %:    77.5678  MISS %:    22.4322   MPKI: 42.3136
L1I PREFETCH  REQUESTED:          0  ISSUED:          0  USEFUL:          0  USELESS:          0
L1I USEFUL LOAD PREFETCHES:          0 PREFETCH ISSUED TO LOWER LEVEL:          0  ACCURACY: -nan
L1I TIMELY PREFETCHES:          0 LATE PREFETCHES: 0 DROPPED PREFETCHES: 0
L1I PREFETCHES SAME FILL-ORIGIN LEVEL: 0 DIFFERENT FILL-ORIGIN LEVEL: 0
L1I AVERAGE MISS LATENCY: 17.8578 cycles
L1I RQ	ACCESS:   58310982	FORWARD:          0	MERGED:   18107632	TO_CACHE:   40203350

BTB TOTAL     ACCESS:   25752481  HIT:   24097822  MISS:    1654659  HIT %:    93.5748  MISS %:    6.42524   MPKI: 8.27329
BTB BRANCH_DIRECT_JUMP	ACCESS:    1719252  HIT:    1709782  MISS:       9470
BTB BRANCH_INDIRECT	ACCESS:    9847536  HIT:    9196489  MISS:     651047
BTB BRANCH_CONDITIONAL	ACCESS:    7525905  HIT:    7512901  MISS:      13004
BTB BRANCH_DIRECT_CALL	ACCESS:    2636580  HIT:    2604766  MISS:      31814
BTB BRANCH_INDIRECT_CALL	ACCESS:     693283  HIT:     590648  MISS:     102635
BTB BRANCH_RETURN	ACCESS:    3329925  HIT:    2483236  MISS:     846689
BTB BRANCH_OTHER ACCESS:          0  HIT:          0  MISS:          0

L2C TOTAL     ACCESS:   20447592  HIT:   13631593  MISS:    6815999  HIT %:     66.666  MISS %:     33.334   MPKI: 34.08
L2C LOAD      ACCESS:    9880816  HIT:    8519966  MISS:    1360850  HIT %:    86.2274  MISS %:    13.7726   MPKI: 6.80425
L2C DATA LOAD MPKI: 4.04991
L2C INSTRUCTION LOAD MPKI: 2.75433
L2C RFO       ACCESS:    3187757  HIT:     122708  MISS:    3065049  HIT %:    3.84935  MISS %:    96.1506   MPKI: 15.3252
L2C PREFETCH  ACCESS:    2883345  HIT:     756874  MISS:    2126471  HIT %:    26.2499  MISS %:    73.7501   MPKI: 10.6324
AGUS PREFETCH L1 MISS: 0
L2C DATA PREFETCH MPKI: 10.6324
L2C INSTRUCTION PREFETCH MPKI: 0
L2C WRITEBACK ACCESS:    4228666  HIT:    4083910  MISS:     144756  HIT %:    96.5768  MISS %:    3.42321   MPKI: 0.72378
L2C LOAD TRANSLATION ACCESS:     266984  HIT:     148135  MISS:     118849  HIT %:    55.4846  MISS %:    44.5154   MPKI: 0.594245
L2C TRANSLATION FROM L1D PREFETCHER ACCESS:         24  HIT:          0  MISS:         24  HIT %:          0  MISS %:        100   MPKI: 0.00012
L2C PREFETCH  REQUESTED:          0  ISSUED:          0  USEFUL:     218292  USELESS:    1907568
L2C USEFUL LOAD PREFETCHES:     218292 PREFETCH ISSUED TO LOWER LEVEL:    2151394  ACCURACY: 10.1465
L2C TIMELY PREFETCHES:     218292 LATE PREFETCHES: 24923 DROPPED PREFETCHES: 0
L2C PREFETCHES SAME FILL-ORIGIN LEVEL: 340998 DIFFERENT FILL-ORIGIN LEVEL: 0
L2C AVERAGE MISS LATENCY: 167.489 cycles
L2C RQ	ACCESS:   13336151	FORWARD:          0	MERGED:          0	TO_CACHE:   13335581
L2C WQ	ACCESS:    4228666	FORWARD:        593	MERGED:          0	TO_CACHE:    4228666
L2C PQ	ACCESS:    2908325	FORWARD:          0	MERGED:          0	TO_CACHE:    2908302

L2C Instructions Evicting Data 492880
L2C Translations Evicting Data 105887
L2C Data Evicting Data 5416485
L2C Instructions Evicting Instructions 47325
L2C Translations Evicting Instructions 11199
L2C Data Evicting Instructions 480472
L2C Instructions Evicting Translations 10662
L2C Translations Evicting Translations 1787
L2C Data Evicting Translations 104546
L2C Dense regions hint from L2: 0
PSCL5 TOTAL     ACCESS:     194065  HIT:     194065  MISS:          0  HIT %:        100  MISS %:          0   MPKI: 0
PSCL5 LOAD TRANSLATION ACCESS:     194055  HIT:     194055  MISS:          0  HIT %:        100  MISS %:          0   MPKI: 0
PSCL5 TRANSLATION FROM L1D PREFETCHER ACCESS:         10  HIT:         10  MISS:          0  HIT %:        100  MISS %:          0   MPKI: 0
PSCL5 PREFETCH  REQUESTED:          0  ISSUED:          0  USEFUL:          0  USELESS:          0
PSCL5 USEFUL LOAD PREFETCHES:          0 PREFETCH ISSUED TO LOWER LEVEL:          0  ACCURACY: -nan
PSCL5 TIMELY PREFETCHES:          0 LATE PREFETCHES: 0 DROPPED PREFETCHES: 0
PSCL5 PREFETCHES SAME FILL-ORIGIN LEVEL: 0 DIFFERENT FILL-ORIGIN LEVEL: 0

PSCL4 TOTAL     ACCESS:     140505  HIT:     140067  MISS:        438  HIT %:    99.6883  MISS %:   0.311733   MPKI: 0.00219
PSCL4 LOAD TRANSLATION ACCESS:     140497  HIT:     140059  MISS:        438  HIT %:    99.6882  MISS %:    0.31175   MPKI: 0.00219
PSCL4 TRANSLATION FROM L1D PREFETCHER ACCESS:          8  HIT:          8  MISS:          0  HIT %:        100  MISS %:          0   MPKI: 0
PSCL4 PREFETCH  REQUESTED:          0  ISSUED:          0  USEFUL:          0  USELESS:          0
PSCL4 USEFUL LOAD PREFETCHES:          0 PREFETCH ISSUED TO LOWER LEVEL:          0  ACCURACY: -nan
PSCL4 TIMELY PREFETCHES:          0 LATE PREFETCHES: 0 DROPPED PREFETCHES: 0
PSCL4 PREFETCHES SAME FILL-ORIGIN LEVEL: 0 DIFFERENT FILL-ORIGIN LEVEL: 0

PSCL3 TOTAL     ACCESS:     192900  HIT:     191002  MISS:       1898  HIT %:    99.0161  MISS %:   0.983929   MPKI: 0.00949
PSCL3 LOAD TRANSLATION ACCESS:     192892  HIT:     190994  MISS:       1898  HIT %:     99.016  MISS %:    0.98397   MPKI: 0.00949
PSCL3 TRANSLATION FROM L1D PREFETCHER ACCESS:          8  HIT:          8  MISS:          0  HIT %:        100  MISS %:          0   MPKI: 0
PSCL3 PREFETCH  REQUESTED:          0  ISSUED:          0  USEFUL:          0  USELESS:          0
PSCL3 USEFUL LOAD PREFETCHES:          0 PREFETCH ISSUED TO LOWER LEVEL:          0  ACCURACY: -nan
PSCL3 TIMELY PREFETCHES:          0 LATE PREFETCHES: 0 DROPPED PREFETCHES: 0
PSCL3 PREFETCHES SAME FILL-ORIGIN LEVEL: 0 DIFFERENT FILL-ORIGIN LEVEL: 0

PSCL2 TOTAL     ACCESS:     194065  HIT:     123417  MISS:      70648  HIT %:    63.5957  MISS %:    36.4043   MPKI: 0.35324
PSCL2 LOAD TRANSLATION ACCESS:     194065  HIT:     123417  MISS:      70648  HIT %:    63.5957  MISS %:    36.4043   MPKI: 0.35324
PSCL2 PREFETCH  REQUESTED:          0  ISSUED:          0  USEFUL:          0  USELESS:          0
PSCL2 USEFUL LOAD PREFETCHES:          0 PREFETCH ISSUED TO LOWER LEVEL:          0  ACCURACY: -nan
PSCL2 TIMELY PREFETCHES:          0 LATE PREFETCHES: 0 DROPPED PREFETCHES: 0
PSCL2 PREFETCHES SAME FILL-ORIGIN LEVEL: 0 DIFFERENT FILL-ORIGIN LEVEL: 0

LLC TOTAL     ACCESS:   10598204  HIT:    3804937  MISS:    6793267  HIT %:    35.9017  MISS %:    64.0983   MPKI: 33.9663
LLC LOAD      ACCESS:    1335933  HIT:     804003  MISS:     531930  HIT %:    60.1829  MISS %:    39.8171   MPKI: 2.65965
LLC RFO       ACCESS:    3065007  HIT:     730199  MISS:    2334808  HIT %:    23.8237  MISS %:    76.1763   MPKI: 11.674
LLC PREFETCH  ACCESS:    2151389  HIT:     800783  MISS:    1350606  HIT %:    37.2217  MISS %:    62.7783   MPKI: 6.75303
AGUS PREFETCH L1 MISS: 0
LLC WRITEBACK ACCESS:    3927002  HIT:    1419623  MISS:    2507379  HIT %:    36.1503  MISS %:    63.8497   MPKI: 12.5369
LLC LOAD TRANSLATION ACCESS:     118849  HIT:      50315  MISS:      68534  HIT %:    42.3352  MISS %:    57.6648   MPKI: 0.34267
LLC TRANSLATION FROM L1D PREFETCHER ACCESS:         24  HIT:         14  MISS:         10  HIT %:    58.3333  MISS %:    41.6667   MPKI: 5e-05
LLC PREFETCH  REQUESTED:          0  ISSUED:          0  USEFUL:       4076  USELESS:    1347370
LLC USEFUL LOAD PREFETCHES:       4076 PREFETCH ISSUED TO LOWER LEVEL:    1350606  ACCURACY: 0.30179
LLC TIMELY PREFETCHES:       4076 LATE PREFETCHES: 0 DROPPED PREFETCHES: 0
LLC PREFETCHES SAME FILL-ORIGIN LEVEL: 0 DIFFERENT FILL-ORIGIN LEVEL: 0
LLC AVERAGE MISS LATENCY: 138.642 cycles
LLC RQ	ACCESS:    4519849	FORWARD:          0	MERGED:          0	TO_CACHE:    4519813
LLC WQ	ACCESS:    3927002	FORWARD:         41	MERGED:          0	TO_CACHE:    3927002
LLC PQ	ACCESS:    2151394	FORWARD:          0	MERGED:          0	TO_CACHE:    2151389

LLC Dense regions hint to LLC: 0

RAW hits: 2092639
Loads Generated: 46897618
Loads sent to L1D: 44804974
Stores Generated: 32470857
Stores sent to L1D: 32470855
Major fault: 0 Minor fault: 24906
Allocated PAGES: 24906
[Bingo] PHT Access: 1238156
[Bingo] PHT Hit PC+Addr: 636298
[Bingo] PHT Hit PC+Offs: 334167
[Bingo] PHT Miss: 267691
[Bingo] Prefetch PC+Addr: 0
[Bingo] Prefetch PC+Offs: 0
[Bingo] Useful PC+Addr: 0
[Bingo] Useful PC+Offs: 0
[Bingo] Useless PC+Addr: 0
[Bingo] Useless PC+Offs: 0
[Bingo] L1 Prefetch per Region: 5.63592
[Bingo] L2 Prefetch per Region: 0.470692
[Bingo] L3 Prefetch per Region: 0
[Bingo] No Prefetch per Region: 25.8934
[Bingo] Number of Voters Mean: 13.0944
[Bingo] Number of Voters SD: 7.25586
PHT read accesses: 10001190
PHT write accesses: 590506
AT read accesses: 22876553
AT write accesses: 22928812
FT read accesses: 8753530
FT write accesses: 1238156
PS read accesses: 3017402
PS write accesses: 970465
PHT tag read accesses: 24931068
PHT tag write accesses: 1226804
AT tag read accesses: 566668344
AT tag write accesses: 23467053
FT tag read accesses: 237143790
FT tag write accesses: 6087570
PS tag read accesses: 464415088
PS tag write accesses: 3975402

DRAM Statistics
 CHANNEL 0
 RQ ROW_BUFFER_HIT:    2027393  ROW_BUFFER_MISS:    2258199
 DBUS_CONGESTED:       1757
 WQ ROW_BUFFER_HIT:     534116  ROW_BUFFER_MISS:    2111340  FULL:      45093

 AVG_CONGESTED_CYCLE: 3
 All warmup complete: 2
Channel 0 Bank busy for read cycles: 0
Channel 0 Bank busy for write cycles: 0
Channel 0
Rank 0
0banks busy for read cycles: 171176876
0banks busy for write cycles: 237770
1banks busy for read cycles: 43085303
1banks busy for write cycles: 31575298
2banks busy for read cycles: 19132291
2banks busy for write cycles: 17686480
3banks busy for read cycles: 25414570
3banks busy for write cycles: 10523971
4banks busy for read cycles: 5290573
4banks busy for write cycles: 6537354
5banks busy for read cycles: 3836278
5banks busy for write cycles: 4696756
6banks busy for read cycles: 4145699
6banks busy for write cycles: 4122865
7banks busy for read cycles: 6234943
7banks busy for write cycles: 6016215
8banks busy for read cycles: 22579808
8banks busy for write cycles: 29955721

CPU 0 Branch Prediction Accuracy: 99.9393% MPKI: 0.094655 Average ROB Occupancy at Mispredict: 94.6404
Branch types
NOT_BRANCH: 168807431 84.4037%
BRANCH_DIRECT_JUMP: 1719252 0.859626%
BRANCH_INDIRECT: 9847536 4.92377%
BRANCH_CONDITIONAL: 12965646 6.48282%
BRANCH_DIRECT_CALL: 2636580 1.31829%
BRANCH_INDIRECT_CALL: 693283 0.346641%
BRANCH_RETURN: 3329925 1.66496%
BRANCH_OTHER: 0 0%

DRAM PAGES: 1048576
Allocated PAGES: 24906
