
*** ChampSim Multicore Out-of-Order Simulator ***

Warmup Instructions: 50000000
Simulation Instructions: 200000000
Number of CPUs: 1
LLC sets: 2048
LLC ways: 16
Off-chip DRAM Size: 4096 MB Channels: 1 Width: 64-bit Data Rate: 6400 MT/s
CPU 0 runs traces/spec2k17/server_012.champsimtrace.xz
.xz
BTB has LRU replacement policy
ITLB has LRU replacement policy
DTLB has LRU replacement policy
STLB has LRU replacement policy
L1I has LRU replacement policy
Bingo PHT WAYS: 16 and PHT_SIZE: 16384
L1D has LRU replacement policy
Initialize SRRIP state for L2C
Initialize DRRIP state for LLC
Heartbeat CPU 0 instructions: 10000000 cycles: 2777436 heartbeat IPC: 3.60044 cumulative IPC: 3.60044 (Simulation time: 0 hr 0 min 21 sec) 
Heartbeat CPU 0 instructions: 20000000 cycles: 5547277 heartbeat IPC: 3.61032 cumulative IPC: 3.60537 (Simulation time: 0 hr 0 min 43 sec) 
Heartbeat CPU 0 instructions: 30000001 cycles: 8314398 heartbeat IPC: 3.61386 cumulative IPC: 3.6082 (Simulation time: 0 hr 1 min 5 sec) 
Heartbeat CPU 0 instructions: 40000003 cycles: 11089042 heartbeat IPC: 3.60407 cumulative IPC: 3.60716 (Simulation time: 0 hr 1 min 27 sec) 
Heartbeat CPU 0 instructions: 50000002 cycles: 13859261 heartbeat IPC: 3.60982 cumulative IPC: 3.6077 (Simulation time: 0 hr 1 min 49 sec) 

Warmup complete CPU 0 instructions: 50000002 cycles: 13859261 (Simulation time: 0 hr 1 min 49 sec) 

Heartbeat CPU 0 instructions: 60000001 cycles: 36636672 heartbeat IPC: 0.439031 cumulative IPC: 0.439031 (Simulation time: 0 hr 2 min 23 sec) 
Heartbeat CPU 0 instructions: 70000000 cycles: 59026335 heartbeat IPC: 0.446635 cumulative IPC: 0.4428 (Simulation time: 0 hr 2 min 58 sec) 
Heartbeat CPU 0 instructions: 80000000 cycles: 81965515 heartbeat IPC: 0.435935 cumulative IPC: 0.440488 (Simulation time: 0 hr 3 min 38 sec) 
Heartbeat CPU 0 instructions: 90000001 cycles: 104912423 heartbeat IPC: 0.435789 cumulative IPC: 0.439304 (Simulation time: 0 hr 4 min 22 sec) 
Heartbeat CPU 0 instructions: 100000003 cycles: 127219716 heartbeat IPC: 0.448284 cumulative IPC: 0.441071 (Simulation time: 0 hr 4 min 56 sec) 
*** Reached end of trace for Core: 0 Repeating trace: traces/spec2k17/server_012.champsimtrace.xz
Heartbeat CPU 0 instructions: 110000000 cycles: 150432409 heartbeat IPC: 0.430799 cumulative IPC: 0.439325 (Simulation time: 0 hr 5 min 31 sec) 
Heartbeat CPU 0 instructions: 120000002 cycles: 172996261 heartbeat IPC: 0.443187 cumulative IPC: 0.439873 (Simulation time: 0 hr 6 min 5 sec) 
Heartbeat CPU 0 instructions: 130000002 cycles: 195644827 heartbeat IPC: 0.441529 cumulative IPC: 0.440079 (Simulation time: 0 hr 6 min 39 sec) 
Heartbeat CPU 0 instructions: 140000002 cycles: 218453892 heartbeat IPC: 0.438422 cumulative IPC: 0.439894 (Simulation time: 0 hr 7 min 14 sec) 
Heartbeat CPU 0 instructions: 150000002 cycles: 240979826 heartbeat IPC: 0.443933 cumulative IPC: 0.440295 (Simulation time: 0 hr 7 min 48 sec) 
Heartbeat CPU 0 instructions: 160000002 cycles: 263741599 heartbeat IPC: 0.439333 cumulative IPC: 0.440207 (Simulation time: 0 hr 8 min 23 sec) 
Heartbeat CPU 0 instructions: 170000000 cycles: 286081899 heartbeat IPC: 0.447621 cumulative IPC: 0.440816 (Simulation time: 0 hr 8 min 57 sec) 
Heartbeat CPU 0 instructions: 180000001 cycles: 309255958 heartbeat IPC: 0.431517 cumulative IPC: 0.440086 (Simulation time: 0 hr 9 min 32 sec) 
Heartbeat CPU 0 instructions: 190000001 cycles: 331840934 heartbeat IPC: 0.442772 cumulative IPC: 0.440277 (Simulation time: 0 hr 10 min 7 sec) 
Heartbeat CPU 0 instructions: 200000001 cycles: 354428637 heartbeat IPC: 0.442719 cumulative IPC: 0.440439 (Simulation time: 0 hr 10 min 41 sec) 
*** Reached end of trace for Core: 0 Repeating trace: traces/spec2k17/server_012.champsimtrace.xz
Heartbeat CPU 0 instructions: 210000000 cycles: 377039120 heartbeat IPC: 0.442273 cumulative IPC: 0.440553 (Simulation time: 0 hr 11 min 16 sec) 
Heartbeat CPU 0 instructions: 220000000 cycles: 399845817 heartbeat IPC: 0.438468 cumulative IPC: 0.44043 (Simulation time: 0 hr 11 min 50 sec) 
Heartbeat CPU 0 instructions: 230000001 cycles: 422437569 heartbeat IPC: 0.442639 cumulative IPC: 0.440552 (Simulation time: 0 hr 12 min 25 sec) 
Heartbeat CPU 0 instructions: 240000000 cycles: 445173017 heartbeat IPC: 0.439842 cumulative IPC: 0.440515 (Simulation time: 0 hr 12 min 59 sec) 
Heartbeat CPU 0 instructions: 250000000 cycles: 467975662 heartbeat IPC: 0.438546 cumulative IPC: 0.440416 (Simulation time: 0 hr 13 min 33 sec) 
Finished CPU 0 instructions: 200000000 cycles: 454116432 cumulative IPC: 0.440416 (Simulation time: 0 hr 13 min 33 sec) 

ChampSim completed all CPUs

Region of Interest Statistics

CPU 0 cumulative IPC: 0.440416 instructions: 200000000 cycles: 454116432
ITLB TOTAL     ACCESS:   31602828  HIT:   30797407  MISS:     805421  HIT %:    97.4514  MISS %:    2.54857   MPKI: 4.0271
ITLB LOAD TRANSLATION ACCESS:   31602828  HIT:   30797407  MISS:     805421  HIT %:    97.4514  MISS %:    2.54857   MPKI: 4.0271
ITLB PREFETCH  REQUESTED:          0  ISSUED:          0  USEFUL:          0  USELESS:          0
ITLB USEFUL LOAD PREFETCHES:          0 PREFETCH ISSUED TO LOWER LEVEL:          0  ACCURACY: -nan
ITLB TIMELY PREFETCHES:          0 LATE PREFETCHES: 0 DROPPED PREFETCHES: 0
ITLB PREFETCHES SAME FILL-ORIGIN LEVEL: 0 DIFFERENT FILL-ORIGIN LEVEL: 0
ITLB AVERAGE MISS LATENCY: 15.7406 cycles
ITLB RQ	ACCESS:   38437201	FORWARD:          0	MERGED:    6640121	TO_CACHE:   31797080

DTLB TOTAL     ACCESS:   37768584  HIT:   35266894  MISS:    2501690  HIT %:    93.3763  MISS %:    6.62373   MPKI: 12.5084
DTLB LOAD TRANSLATION ACCESS:   37768584  HIT:   35266894  MISS:    2501690  HIT %:    93.3763  MISS %:    6.62373   MPKI: 12.5084
DTLB PREFETCH  REQUESTED:          0  ISSUED:          0  USEFUL:          0  USELESS:          0
DTLB USEFUL LOAD PREFETCHES:          0 PREFETCH ISSUED TO LOWER LEVEL:          0  ACCURACY: -nan
DTLB TIMELY PREFETCHES:          0 LATE PREFETCHES: 0 DROPPED PREFETCHES: 0
DTLB PREFETCHES SAME FILL-ORIGIN LEVEL: 0 DIFFERENT FILL-ORIGIN LEVEL: 0
DTLB AVERAGE MISS LATENCY: 14.0946 cycles
DTLB RQ	ACCESS:   48159056	FORWARD:          0	MERGED:   10244082	TO_CACHE:   37914974

STLB TOTAL     ACCESS:    4023348  HIT:    3567613  MISS:     455735  HIT %:    88.6727  MISS %:    11.3273   MPKI: 2.27867
STLB LOAD TRANSLATION ACCESS:    3307111  HIT:    2851376  MISS:     455735  HIT %:    86.2195  MISS %:    13.7805   MPKI: 2.27867
STLB TRANSLATION FROM L1D PREFETCHER ACCESS:     716237  HIT:     716237  MISS:          0  HIT %:        100  MISS %:          0   MPKI: 0
STLB PREFETCH  REQUESTED:          0  ISSUED:          0  USEFUL:          0  USELESS:          0
STLB USEFUL LOAD PREFETCHES:          0 PREFETCH ISSUED TO LOWER LEVEL:          0  ACCURACY: -nan
STLB TIMELY PREFETCHES:          0 LATE PREFETCHES: 0 DROPPED PREFETCHES: 0
STLB PREFETCHES SAME FILL-ORIGIN LEVEL: 0 DIFFERENT FILL-ORIGIN LEVEL: 0
STLB AVERAGE MISS LATENCY: 39.6987 cycles
STLB RQ	ACCESS:    5591061	FORWARD:          0	MERGED:    1567713	TO_CACHE:    4023348

STLB Hit, L1D data hit: 0
STLB Hit, L2C data hit: 0
STLB Hit, LLC data hit: 0
STLB Hit, LLC data miss: 0
STLB STLB hints to L2: 0
L1D TOTAL     ACCESS:   49889190  HIT:   46910655  MISS:    2978535  HIT %:    94.0297  MISS %:     5.9703   MPKI: 14.8927
L1D LOAD      ACCESS:   28077085  HIT:   26876142  MISS:    1200943  HIT %:    95.7227  MISS %:    4.27731   MPKI: 6.00472
L1D RFO       ACCESS:   19783863  HIT:   19566268  MISS:     217595  HIT %:    98.9001  MISS %:    1.09986   MPKI: 1.08797
L1D PREFETCH  ACCESS:    2028242  HIT:     468245  MISS:    1559997  HIT %:    23.0862  MISS %:    76.9138   MPKI: 7.79999
AGUS PREFETCH L1 MISS: 0
L1D PREFETCH  REQUESTED:    4568260  ISSUED:    4568260  USEFUL:    1163575  USELESS:     396438
L1D USEFUL LOAD PREFETCHES:    1163575 PREFETCH ISSUED TO LOWER LEVEL:    1724453  ACCURACY: 67.475
L1D TIMELY PREFETCHES:    1163575 LATE PREFETCHES: 29731 DROPPED PREFETCHES: 0
L1D PREFETCHES SAME FILL-ORIGIN LEVEL: 1594194 DIFFERENT FILL-ORIGIN LEVEL: 130259
L1D AVERAGE MISS LATENCY: 2.78125e+06 cycles
L1D RQ	ACCESS:   42197615	FORWARD:          0	MERGED:   13845054	TO_CACHE:   28127842
L1D WQ	ACCESS:   20324646	FORWARD:     225058	MERGED:     293432	TO_CACHE:   20031214
L1D PQ	ACCESS:    2284310	FORWARD:          0	MERGED:         21	TO_CACHE:    2283950

L1D UNIQUE REGIONS ACCESSED: 0
L1D REGIONS CONFLICTS: 0
L1D Cross Page Prefetch Requests: 0
L1D Same Page Prefetch Requests: 2771082
L1D ROI Sum of L1D PQ occupancy: 32816556
L1D PREFETCHES PUSHED FROM L2C: 0
L1I TOTAL     ACCESS:   36790658  HIT:   31732564  MISS:    5058094  HIT %:    86.2517  MISS %:    13.7483   MPKI: 25.2905
L1I LOAD      ACCESS:   36790658  HIT:   31732564  MISS:    5058094  HIT %:    86.2517  MISS %:    13.7483   MPKI: 25.2905
L1I PREFETCH  REQUESTED:          0  ISSUED:          0  USEFUL:          0  USELESS:          0
L1I USEFUL LOAD PREFETCHES:          0 PREFETCH ISSUED TO LOWER LEVEL:          0  ACCURACY: -nan
L1I TIMELY PREFETCHES:          0 LATE PREFETCHES: 0 DROPPED PREFETCHES: 0
L1I PREFETCHES SAME FILL-ORIGIN LEVEL: 0 DIFFERENT FILL-ORIGIN LEVEL: 0
L1I AVERAGE MISS LATENCY: 27.8251 cycles
L1I RQ	ACCESS:   57206987	FORWARD:          0	MERGED:   18769786	TO_CACHE:   38437201

BTB TOTAL     ACCESS:   22869963  HIT:   17926817  MISS:    4943146  HIT %:    78.3859  MISS %:    21.6141   MPKI: 24.7157
BTB BRANCH_DIRECT_JUMP	ACCESS:    1810341  HIT:    1516951  MISS:     293390
BTB BRANCH_INDIRECT	ACCESS:    9659177  HIT:    7347158  MISS:    2312019
BTB BRANCH_CONDITIONAL	ACCESS:    4707404  HIT:    4244236  MISS:     463168
BTB BRANCH_DIRECT_CALL	ACCESS:    2624704  HIT:    2052549  MISS:     572155
BTB BRANCH_INDIRECT_CALL	ACCESS:     717742  HIT:     658053  MISS:      59689
BTB BRANCH_RETURN	ACCESS:    3350595  HIT:    2107870  MISS:    1242725
BTB BRANCH_OTHER ACCESS:          0  HIT:          0  MISS:          0

L2C TOTAL     ACCESS:    9768268  HIT:    5793957  MISS:    3974311  HIT %:    59.3141  MISS %:    40.6859   MPKI: 19.8716
L2C LOAD      ACCESS:    6229267  HIT:    3422692  MISS:    2806575  HIT %:    54.9453  MISS %:    45.0547   MPKI: 14.0329
L2C DATA LOAD MPKI: 2.70811
L2C INSTRUCTION LOAD MPKI: 11.3248
L2C RFO       ACCESS:     213128  HIT:     115927  MISS:      97201  HIT %:    54.3931  MISS %:    45.6069   MPKI: 0.486005
L2C PREFETCH  ACCESS:    1723985  HIT:     921999  MISS:     801986  HIT %:    53.4807  MISS %:    46.5193   MPKI: 4.00993
AGUS PREFETCH L1 MISS: 0
L2C DATA PREFETCH MPKI: 4.00993
L2C INSTRUCTION PREFETCH MPKI: 0
L2C WRITEBACK ACCESS:    1024020  HIT:     977372  MISS:      46648  HIT %:    95.4446  MISS %:    4.55538   MPKI: 0.23324
L2C LOAD TRANSLATION ACCESS:     577868  HIT:     355967  MISS:     221901  HIT %:    61.6001  MISS %:    38.3999   MPKI: 1.1095
L2C PREFETCH  REQUESTED:          0  ISSUED:          0  USEFUL:      91071  USELESS:     710499
L2C USEFUL LOAD PREFETCHES:      91071 PREFETCH ISSUED TO LOWER LEVEL:     802396  ACCURACY: 11.3499
L2C TIMELY PREFETCHES:      91071 LATE PREFETCHES: 410 DROPPED PREFETCHES: 0
L2C PREFETCHES SAME FILL-ORIGIN LEVEL: 62164 DIFFERENT FILL-ORIGIN LEVEL: 0
L2C AVERAGE MISS LATENCY: 40.935 cycles
L2C RQ	ACCESS:    7020303	FORWARD:          0	MERGED:          0	TO_CACHE:    7020263
L2C WQ	ACCESS:    1024020	FORWARD:         81	MERGED:          0	TO_CACHE:    1024020
L2C PQ	ACCESS:    1724453	FORWARD:          0	MERGED:          0	TO_CACHE:    1724412

L2C Instructions Evicting Data 847522
L2C Translations Evicting Data 82485
L2C Data Evicting Data 538984
L2C Instructions Evicting Instructions 1290845
L2C Translations Evicting Instructions 126924
L2C Data Evicting Instructions 821454
L2C Instructions Evicting Translations 126585
L2C Translations Evicting Translations 12492
L2C Data Evicting Translations 80372
L2C Dense regions hint from L2: 0
PSCL5 TOTAL     ACCESS:     455735  HIT:     455735  MISS:          0  HIT %:        100  MISS %:          0   MPKI: 0
PSCL5 LOAD TRANSLATION ACCESS:     455735  HIT:     455735  MISS:          0  HIT %:        100  MISS %:          0   MPKI: 0
PSCL5 PREFETCH  REQUESTED:          0  ISSUED:          0  USEFUL:          0  USELESS:          0
PSCL5 USEFUL LOAD PREFETCHES:          0 PREFETCH ISSUED TO LOWER LEVEL:          0  ACCURACY: -nan
PSCL5 TIMELY PREFETCHES:          0 LATE PREFETCHES: 0 DROPPED PREFETCHES: 0
PSCL5 PREFETCHES SAME FILL-ORIGIN LEVEL: 0 DIFFERENT FILL-ORIGIN LEVEL: 0

PSCL4 TOTAL     ACCESS:     433069  HIT:     431713  MISS:       1356  HIT %:    99.6869  MISS %:   0.313114   MPKI: 0.00678
PSCL4 LOAD TRANSLATION ACCESS:     433069  HIT:     431713  MISS:       1356  HIT %:    99.6869  MISS %:   0.313114   MPKI: 0.00678
PSCL4 PREFETCH  REQUESTED:          0  ISSUED:          0  USEFUL:          0  USELESS:          0
PSCL4 USEFUL LOAD PREFETCHES:          0 PREFETCH ISSUED TO LOWER LEVEL:          0  ACCURACY: -nan
PSCL4 TIMELY PREFETCHES:          0 LATE PREFETCHES: 0 DROPPED PREFETCHES: 0
PSCL4 PREFETCHES SAME FILL-ORIGIN LEVEL: 0 DIFFERENT FILL-ORIGIN LEVEL: 0

PSCL3 TOTAL     ACCESS:     452177  HIT:     448351  MISS:       3826  HIT %:    99.1539  MISS %:   0.846129   MPKI: 0.01913
PSCL3 LOAD TRANSLATION ACCESS:     452177  HIT:     448351  MISS:       3826  HIT %:    99.1539  MISS %:   0.846129   MPKI: 0.01913
PSCL3 PREFETCH  REQUESTED:          0  ISSUED:          0  USEFUL:          0  USELESS:          0
PSCL3 USEFUL LOAD PREFETCHES:          0 PREFETCH ISSUED TO LOWER LEVEL:          0  ACCURACY: -nan
PSCL3 TIMELY PREFETCHES:          0 LATE PREFETCHES: 0 DROPPED PREFETCHES: 0
PSCL3 PREFETCHES SAME FILL-ORIGIN LEVEL: 0 DIFFERENT FILL-ORIGIN LEVEL: 0

PSCL2 TOTAL     ACCESS:     455735  HIT:     338747  MISS:     116988  HIT %:    74.3298  MISS %:    25.6702   MPKI: 0.58494
PSCL2 LOAD TRANSLATION ACCESS:     455735  HIT:     338747  MISS:     116988  HIT %:    74.3298  MISS %:    25.6702   MPKI: 0.58494
PSCL2 PREFETCH  REQUESTED:          0  ISSUED:          0  USEFUL:          0  USELESS:          0
PSCL2 USEFUL LOAD PREFETCHES:          0 PREFETCH ISSUED TO LOWER LEVEL:          0  ACCURACY: -nan
PSCL2 TIMELY PREFETCHES:          0 LATE PREFETCHES: 0 DROPPED PREFETCHES: 0
PSCL2 PREFETCHES SAME FILL-ORIGIN LEVEL: 0 DIFFERENT FILL-ORIGIN LEVEL: 0

LLC TOTAL     ACCESS:    4401834  HIT:    4137912  MISS:     263922  HIT %:    94.0043  MISS %:    5.99573   MPKI: 1.31961
LLC LOAD      ACCESS:    2806542  HIT:    2743010  MISS:      63532  HIT %:    97.7363  MISS %:    2.26371   MPKI: 0.31766
LLC RFO       ACCESS:      96823  HIT:      76428  MISS:      20395  HIT %:    78.9358  MISS %:    21.0642   MPKI: 0.101975
LLC PREFETCH  ACCESS:     802386  HIT:     627700  MISS:     174686  HIT %:    78.2292  MISS %:    21.7708   MPKI: 0.87343
AGUS PREFETCH L1 MISS: 0
LLC WRITEBACK ACCESS:     474182  HIT:     472438  MISS:       1744  HIT %:    99.6322  MISS %:   0.367791   MPKI: 0.00872
LLC LOAD TRANSLATION ACCESS:     221901  HIT:     218336  MISS:       3565  HIT %:    98.3934  MISS %:    1.60657   MPKI: 0.017825
LLC PREFETCH  REQUESTED:          0  ISSUED:          0  USEFUL:       8312  USELESS:     164952
LLC USEFUL LOAD PREFETCHES:       8312 PREFETCH ISSUED TO LOWER LEVEL:     174686  ACCURACY: 4.75825
LLC TIMELY PREFETCHES:       8312 LATE PREFETCHES: 0 DROPPED PREFETCHES: 0
LLC PREFETCHES SAME FILL-ORIGIN LEVEL: 0 DIFFERENT FILL-ORIGIN LEVEL: 0
LLC AVERAGE MISS LATENCY: 170.103 cycles
LLC RQ	ACCESS:    3125267	FORWARD:          0	MERGED:          0	TO_CACHE:    3125266
LLC WQ	ACCESS:     474182	FORWARD:         11	MERGED:          0	TO_CACHE:     474182
LLC PQ	ACCESS:     802396	FORWARD:          0	MERGED:          0	TO_CACHE:     802386

LLC Dense regions hint to LLC: 0

RAW hits: 2526374
Loads Generated: 44723989
Loads sent to L1D: 42197615
Stores Generated: 20324642
Stores sent to L1D: 20324646
Major fault: 0 Minor fault: 5919
Allocated PAGES: 5919
[Bingo] PHT Access: 1220862
[Bingo] PHT Hit PC+Addr: 602940
[Bingo] PHT Hit PC+Offs: 79178
[Bingo] PHT Miss: 538744
[Bingo] Prefetch PC+Addr: 0
[Bingo] Prefetch PC+Offs: 0
[Bingo] Useful PC+Addr: 0
[Bingo] Useful PC+Offs: 0
[Bingo] Useless PC+Addr: 0
[Bingo] Useless PC+Offs: 0
[Bingo] L1 Prefetch per Region: 4.17384
[Bingo] L2 Prefetch per Region: 0.240958
[Bingo] L3 Prefetch per Region: 0
[Bingo] No Prefetch per Region: 27.5852
[Bingo] Number of Voters Mean: 2.74652
[Bingo] Number of Voters SD: 3.27658
PHT read accesses: 11699237
PHT write accesses: 489147
AT read accesses: 21482278
AT write accesses: 21491468
FT read accesses: 13384747
FT write accesses: 1220862
PS read accesses: 1425897
PS write accesses: 682118
PHT tag read accesses: 20179862
PHT tag write accesses: 1092087
AT tag read accesses: 516521046
AT tag write accesses: 21971424
FT tag read accesses: 211862605
FT tag write accesses: 8211804
PS tag read accesses: 473651689
PS tag write accesses: 2104214

DRAM Statistics
 CHANNEL 0
 RQ ROW_BUFFER_HIT:      80572  ROW_BUFFER_MISS:     181605
 DBUS_CONGESTED:        133
 WQ ROW_BUFFER_HIT:      19651  ROW_BUFFER_MISS:     185989  FULL:          0

 AVG_CONGESTED_CYCLE: 4
 All warmup complete: 2
Channel 0 Bank busy for read cycles: 0
Channel 0 Bank busy for write cycles: 0
Channel 0
Rank 0
0banks busy for read cycles: 429001930
0banks busy for write cycles: 51626
1banks busy for read cycles: 8339427
1banks busy for write cycles: 5815583
2banks busy for read cycles: 1666748
2banks busy for write cycles: 1758730
3banks busy for read cycles: 566818
3banks busy for write cycles: 861808
4banks busy for read cycles: 357601
4banks busy for write cycles: 623348
5banks busy for read cycles: 281148
5banks busy for write cycles: 519831
6banks busy for read cycles: 337635
6banks busy for write cycles: 517532
7banks busy for read cycles: 495023
7banks busy for write cycles: 660923
8banks busy for read cycles: 1196413
8banks busy for write cycles: 1064309

CPU 0 Branch Prediction Accuracy: 99.782% MPKI: 0.393645 Average ROB Occupancy at Mispredict: 26.5909
Branch types
NOT_BRANCH: 163878022 81.939%
BRANCH_DIRECT_JUMP: 1810341 0.90517%
BRANCH_INDIRECT: 9659177 4.82959%
BRANCH_CONDITIONAL: 17959052 8.97953%
BRANCH_DIRECT_CALL: 2624704 1.31235%
BRANCH_INDIRECT_CALL: 717742 0.358871%
BRANCH_RETURN: 3350595 1.6753%
BRANCH_OTHER: 0 0%

DRAM PAGES: 1048576
Allocated PAGES: 5919
