
*** ChampSim Multicore Out-of-Order Simulator ***

Warmup Instructions: 50000000
Simulation Instructions: 200000000
Number of CPUs: 1
LLC sets: 2048
LLC ways: 16
Off-chip DRAM Size: 4096 MB Channels: 1 Width: 64-bit Data Rate: 6400 MT/s
CPU 0 runs traces/spec2k17/server_020.champsimtrace.xz
.xz
BTB has LRU replacement policy
ITLB has LRU replacement policy
DTLB has LRU replacement policy
STLB has LRU replacement policy
L1I has LRU replacement policy
Bingo PHT WAYS: 16 and PHT_SIZE: 16384
L1D has LRU replacement policy
Initialize SRRIP state for L2C
Initialize DRRIP state for LLC
Heartbeat CPU 0 instructions: 10000000 cycles: 2934477 heartbeat IPC: 3.40776 cumulative IPC: 3.40776 (Simulation time: 0 hr 0 min 26 sec) 
Heartbeat CPU 0 instructions: 20000001 cycles: 5865924 heartbeat IPC: 3.41128 cumulative IPC: 3.40952 (Simulation time: 0 hr 0 min 52 sec) 
Heartbeat CPU 0 instructions: 30000000 cycles: 8798942 heartbeat IPC: 3.40946 cumulative IPC: 3.4095 (Simulation time: 0 hr 1 min 18 sec) 
Heartbeat CPU 0 instructions: 40000000 cycles: 11731307 heartbeat IPC: 3.41022 cumulative IPC: 3.40968 (Simulation time: 0 hr 1 min 44 sec) 
Heartbeat CPU 0 instructions: 50000000 cycles: 14661137 heartbeat IPC: 3.41317 cumulative IPC: 3.41038 (Simulation time: 0 hr 2 min 10 sec) 

Warmup complete CPU 0 instructions: 50000004 cycles: 14661138 (Simulation time: 0 hr 2 min 10 sec) 

Heartbeat CPU 0 instructions: 60000002 cycles: 33713179 heartbeat IPC: 0.524878 cumulative IPC: 0.524878 (Simulation time: 0 hr 2 min 53 sec) 
Heartbeat CPU 0 instructions: 70000000 cycles: 52682399 heartbeat IPC: 0.52717 cumulative IPC: 0.526021 (Simulation time: 0 hr 3 min 37 sec) 
Heartbeat CPU 0 instructions: 80000001 cycles: 71701182 heartbeat IPC: 0.525796 cumulative IPC: 0.525946 (Simulation time: 0 hr 4 min 20 sec) 
Heartbeat CPU 0 instructions: 90000001 cycles: 90630475 heartbeat IPC: 0.528282 cumulative IPC: 0.526528 (Simulation time: 0 hr 5 min 3 sec) 
Heartbeat CPU 0 instructions: 100000000 cycles: 109450132 heartbeat IPC: 0.531359 cumulative IPC: 0.527487 (Simulation time: 0 hr 5 min 47 sec) 
*** Reached end of trace for Core: 0 Repeating trace: traces/spec2k17/server_020.champsimtrace.xz
Heartbeat CPU 0 instructions: 110000000 cycles: 128414984 heartbeat IPC: 0.527291 cumulative IPC: 0.527455 (Simulation time: 0 hr 6 min 30 sec) 
Heartbeat CPU 0 instructions: 120000001 cycles: 147222501 heartbeat IPC: 0.531702 cumulative IPC: 0.528057 (Simulation time: 0 hr 7 min 13 sec) 
Heartbeat CPU 0 instructions: 130000001 cycles: 166089978 heartbeat IPC: 0.530013 cumulative IPC: 0.528301 (Simulation time: 0 hr 7 min 57 sec) 
Heartbeat CPU 0 instructions: 140000000 cycles: 184763986 heartbeat IPC: 0.535504 cumulative IPC: 0.529092 (Simulation time: 0 hr 8 min 40 sec) 
Heartbeat CPU 0 instructions: 150000002 cycles: 203525423 heartbeat IPC: 0.533008 cumulative IPC: 0.529481 (Simulation time: 0 hr 9 min 23 sec) 
Heartbeat CPU 0 instructions: 160000002 cycles: 222604845 heartbeat IPC: 0.524125 cumulative IPC: 0.528989 (Simulation time: 0 hr 10 min 6 sec) 
Heartbeat CPU 0 instructions: 170000001 cycles: 241448413 heartbeat IPC: 0.530685 cumulative IPC: 0.52913 (Simulation time: 0 hr 10 min 48 sec) 
Heartbeat CPU 0 instructions: 180000001 cycles: 260186925 heartbeat IPC: 0.53366 cumulative IPC: 0.529476 (Simulation time: 0 hr 11 min 31 sec) 
Heartbeat CPU 0 instructions: 190000002 cycles: 279080282 heartbeat IPC: 0.529287 cumulative IPC: 0.529462 (Simulation time: 0 hr 12 min 15 sec) 
Heartbeat CPU 0 instructions: 200000003 cycles: 297843406 heartbeat IPC: 0.53296 cumulative IPC: 0.529694 (Simulation time: 0 hr 12 min 57 sec) 
Heartbeat CPU 0 instructions: 210000001 cycles: 316684390 heartbeat IPC: 0.530758 cumulative IPC: 0.529761 (Simulation time: 0 hr 13 min 41 sec) 
*** Reached end of trace for Core: 0 Repeating trace: traces/spec2k17/server_020.champsimtrace.xz
Heartbeat CPU 0 instructions: 220000000 cycles: 335509977 heartbeat IPC: 0.531192 cumulative IPC: 0.529845 (Simulation time: 0 hr 14 min 24 sec) 
Heartbeat CPU 0 instructions: 230000001 cycles: 354167783 heartbeat IPC: 0.535969 cumulative IPC: 0.530181 (Simulation time: 0 hr 15 min 7 sec) 
Heartbeat CPU 0 instructions: 240000000 cycles: 373027886 heartbeat IPC: 0.53022 cumulative IPC: 0.530183 (Simulation time: 0 hr 15 min 51 sec) 
Heartbeat CPU 0 instructions: 250000000 cycles: 391717468 heartbeat IPC: 0.535057 cumulative IPC: 0.530425 (Simulation time: 0 hr 16 min 34 sec) 
Finished CPU 0 instructions: 200000000 cycles: 377056339 cumulative IPC: 0.530425 (Simulation time: 0 hr 16 min 34 sec) 

ChampSim completed all CPUs

Region of Interest Statistics

CPU 0 cumulative IPC: 0.530425 instructions: 200000000 cycles: 377056339
ITLB TOTAL     ACCESS:   33689274  HIT:   32196740  MISS:    1492534  HIT %:    95.5697  MISS %:    4.43029   MPKI: 7.46267
ITLB LOAD TRANSLATION ACCESS:   33689274  HIT:   32196740  MISS:    1492534  HIT %:    95.5697  MISS %:    4.43029   MPKI: 7.46267
ITLB PREFETCH  REQUESTED:          0  ISSUED:          0  USEFUL:          0  USELESS:          0
ITLB USEFUL LOAD PREFETCHES:          0 PREFETCH ISSUED TO LOWER LEVEL:          0  ACCURACY: -nan
ITLB TIMELY PREFETCHES:          0 LATE PREFETCHES: 0 DROPPED PREFETCHES: 0
ITLB PREFETCHES SAME FILL-ORIGIN LEVEL: 0 DIFFERENT FILL-ORIGIN LEVEL: 0
ITLB AVERAGE MISS LATENCY: 9.41878 cycles
ITLB RQ	ACCESS:   40521606	FORWARD:          0	MERGED:    6350547	TO_CACHE:   34171059

DTLB TOTAL     ACCESS:   40165066  HIT:   38595908  MISS:    1569158  HIT %:    96.0932  MISS %:    3.90677   MPKI: 7.84579
DTLB LOAD TRANSLATION ACCESS:   40165066  HIT:   38595908  MISS:    1569158  HIT %:    96.0932  MISS %:    3.90677   MPKI: 7.84579
DTLB PREFETCH  REQUESTED:          0  ISSUED:          0  USEFUL:          0  USELESS:          0
DTLB USEFUL LOAD PREFETCHES:          0 PREFETCH ISSUED TO LOWER LEVEL:          0  ACCURACY: -nan
DTLB TIMELY PREFETCHES:          0 LATE PREFETCHES: 0 DROPPED PREFETCHES: 0
DTLB PREFETCHES SAME FILL-ORIGIN LEVEL: 0 DIFFERENT FILL-ORIGIN LEVEL: 0
DTLB AVERAGE MISS LATENCY: 15.5361 cycles
DTLB RQ	ACCESS:   60795451	FORWARD:          0	MERGED:   20235209	TO_CACHE:   40560242

STLB TOTAL     ACCESS:    4275697  HIT:    4153209  MISS:     122488  HIT %:    97.1353  MISS %:    2.86475   MPKI: 0.61244
STLB LOAD TRANSLATION ACCESS:    3061692  HIT:    2939204  MISS:     122488  HIT %:    95.9993  MISS %:    4.00066   MPKI: 0.61244
STLB TRANSLATION FROM L1D PREFETCHER ACCESS:    1214005  HIT:    1214005  MISS:          0  HIT %:        100  MISS %:          0   MPKI: 0
STLB PREFETCH  REQUESTED:          0  ISSUED:          0  USEFUL:          0  USELESS:          0
STLB USEFUL LOAD PREFETCHES:          0 PREFETCH ISSUED TO LOWER LEVEL:          0  ACCURACY: -nan
STLB TIMELY PREFETCHES:          0 LATE PREFETCHES: 0 DROPPED PREFETCHES: 0
STLB PREFETCHES SAME FILL-ORIGIN LEVEL: 0 DIFFERENT FILL-ORIGIN LEVEL: 0
STLB AVERAGE MISS LATENCY: 88.6595 cycles
STLB RQ	ACCESS:    7861251	FORWARD:          0	MERGED:    3585554	TO_CACHE:    4275697

STLB Hit, L1D data hit: 0
STLB Hit, L2C data hit: 0
STLB Hit, LLC data hit: 0
STLB Hit, LLC data miss: 0
STLB STLB hints to L2: 0
L1D TOTAL     ACCESS:   53856940  HIT:   46580533  MISS:    7276407  HIT %:    86.4894  MISS %:    13.5106   MPKI: 36.382
L1D LOAD      ACCESS:   27146276  HIT:   25454485  MISS:    1691791  HIT %:    93.7679  MISS %:    6.23213   MPKI: 8.45895
L1D RFO       ACCESS:   22833843  HIT:   19474261  MISS:    3359582  HIT %:    85.2868  MISS %:    14.7132   MPKI: 16.7979
L1D PREFETCH  ACCESS:    3876821  HIT:    1651787  MISS:    2225034  HIT %:    42.6067  MISS %:    57.3933   MPKI: 11.1252
AGUS PREFETCH L1 MISS: 0
L1D PREFETCH  REQUESTED:    9599857  ISSUED:    9599857  USEFUL:    1735550  USELESS:     489462
L1D USEFUL LOAD PREFETCHES:    1735550 PREFETCH ISSUED TO LOWER LEVEL:    2870934  ACCURACY: 60.4525
L1D TIMELY PREFETCHES:    1735550 LATE PREFETCHES: 402168 DROPPED PREFETCHES: 0
L1D PREFETCHES SAME FILL-ORIGIN LEVEL: 2627880 DIFFERENT FILL-ORIGIN LEVEL: 243054
L1D AVERAGE MISS LATENCY: 1.12968e+07 cycles
L1D RQ	ACCESS:   45446377	FORWARD:          0	MERGED:   17817072	TO_CACHE:   27381384
L1D WQ	ACCESS:   33586965	FORWARD:     248348	MERGED:     172898	TO_CACHE:   33414067
L1D PQ	ACCESS:    4800298	FORWARD:          0	MERGED:        312	TO_CACHE:    4799559

L1D UNIQUE REGIONS ACCESSED: 0
L1D REGIONS CONFLICTS: 0
L1D Cross Page Prefetch Requests: 0
L1D Same Page Prefetch Requests: 5971041
L1D ROI Sum of L1D PQ occupancy: 69920167
L1D PREFETCHES PUSHED FROM L2C: 0
L1I TOTAL     ACCESS:   37908953  HIT:   28987661  MISS:    8921292  HIT %:    76.4665  MISS %:    23.5335   MPKI: 44.6065
L1I LOAD      ACCESS:   37908953  HIT:   28987661  MISS:    8921292  HIT %:    76.4665  MISS %:    23.5335   MPKI: 44.6065
L1I PREFETCH  REQUESTED:          0  ISSUED:          0  USEFUL:          0  USELESS:          0
L1I USEFUL LOAD PREFETCHES:          0 PREFETCH ISSUED TO LOWER LEVEL:          0  ACCURACY: -nan
L1I TIMELY PREFETCHES:          0 LATE PREFETCHES: 0 DROPPED PREFETCHES: 0
L1I PREFETCHES SAME FILL-ORIGIN LEVEL: 0 DIFFERENT FILL-ORIGIN LEVEL: 0
L1I AVERAGE MISS LATENCY: 16.6783 cycles
L1I RQ	ACCESS:   58653114	FORWARD:          0	MERGED:   18131508	TO_CACHE:   40521606

BTB TOTAL     ACCESS:   25748402  HIT:   24111404  MISS:    1636998  HIT %:    93.6423  MISS %:    6.35767   MPKI: 8.18499
BTB BRANCH_DIRECT_JUMP	ACCESS:    1705434  HIT:    1695554  MISS:       9880
BTB BRANCH_INDIRECT	ACCESS:    9970641  HIT:    9389854  MISS:     580787
BTB BRANCH_CONDITIONAL	ACCESS:    7278514  HIT:    7264968  MISS:      13546
BTB BRANCH_DIRECT_CALL	ACCESS:    2773558  HIT:    2740277  MISS:      33281
BTB BRANCH_INDIRECT_CALL	ACCESS:     623355  HIT:     515242  MISS:     108113
BTB BRANCH_RETURN	ACCESS:    3396900  HIT:    2505509  MISS:     891391
BTB BRANCH_OTHER ACCESS:          0  HIT:          0  MISS:          0

L2C TOTAL     ACCESS:   20857485  HIT:   14091557  MISS:    6765928  HIT %:    67.5612  MISS %:    32.4388   MPKI: 33.8296
L2C LOAD      ACCESS:   10210378  HIT:    8948179  MISS:    1262199  HIT %:    87.6381  MISS %:    12.3619   MPKI: 6.311
L2C DATA LOAD MPKI: 3.4462
L2C INSTRUCTION LOAD MPKI: 2.86479
L2C RFO       ACCESS:    3358888  HIT:     128818  MISS:    3230070  HIT %:    3.83514  MISS %:    96.1649   MPKI: 16.1503
L2C PREFETCH  ACCESS:    2845881  HIT:     791678  MISS:    2054203  HIT %:    27.8184  MISS %:    72.1816   MPKI: 10.271
AGUS PREFETCH L1 MISS: 0
L2C DATA PREFETCH MPKI: 10.271
L2C INSTRUCTION PREFETCH MPKI: 0
L2C WRITEBACK ACCESS:    4306550  HIT:    4161498  MISS:     145052  HIT %:    96.6318  MISS %:    3.36817   MPKI: 0.72526
L2C LOAD TRANSLATION ACCESS:     135788  HIT:      61384  MISS:      74404  HIT %:    45.2058  MISS %:    54.7942   MPKI: 0.37202
L2C PREFETCH  REQUESTED:          0  ISSUED:          0  USEFUL:     195204  USELESS:    1858796
L2C USEFUL LOAD PREFETCHES:     195204 PREFETCH ISSUED TO LOWER LEVEL:    2079193  ACCURACY: 9.38845
L2C TIMELY PREFETCHES:     195204 LATE PREFETCHES: 24990 DROPPED PREFETCHES: 0
L2C PREFETCHES SAME FILL-ORIGIN LEVEL: 221178 DIFFERENT FILL-ORIGIN LEVEL: 0
L2C AVERAGE MISS LATENCY: 160.481 cycles
L2C RQ	ACCESS:   13705608	FORWARD:          0	MERGED:          0	TO_CACHE:   13705055
L2C WQ	ACCESS:    4306550	FORWARD:        578	MERGED:          0	TO_CACHE:    4306550
L2C PQ	ACCESS:    2870934	FORWARD:          0	MERGED:          0	TO_CACHE:    2870909

L2C Instructions Evicting Data 515183
L2C Translations Evicting Data 67337
L2C Data Evicting Data 5403785
L2C Instructions Evicting Instructions 52071
L2C Translations Evicting Instructions 6051
L2C Data Evicting Instructions 503301
L2C Instructions Evicting Translations 5705
L2C Translations Evicting Translations 1016
L2C Data Evicting Translations 66427
L2C Dense regions hint from L2: 0
PSCL5 TOTAL     ACCESS:     122488  HIT:     122488  MISS:          0  HIT %:        100  MISS %:          0   MPKI: 0
PSCL5 LOAD TRANSLATION ACCESS:     122488  HIT:     122488  MISS:          0  HIT %:        100  MISS %:          0   MPKI: 0
PSCL5 PREFETCH  REQUESTED:          0  ISSUED:          0  USEFUL:          0  USELESS:          0
PSCL5 USEFUL LOAD PREFETCHES:          0 PREFETCH ISSUED TO LOWER LEVEL:          0  ACCURACY: -nan
PSCL5 TIMELY PREFETCHES:          0 LATE PREFETCHES: 0 DROPPED PREFETCHES: 0
PSCL5 PREFETCHES SAME FILL-ORIGIN LEVEL: 0 DIFFERENT FILL-ORIGIN LEVEL: 0

PSCL4 TOTAL     ACCESS:     119884  HIT:     119469  MISS:        415  HIT %:    99.6538  MISS %:   0.346168   MPKI: 0.002075
PSCL4 LOAD TRANSLATION ACCESS:     119884  HIT:     119469  MISS:        415  HIT %:    99.6538  MISS %:   0.346168   MPKI: 0.002075
PSCL4 PREFETCH  REQUESTED:          0  ISSUED:          0  USEFUL:          0  USELESS:          0
PSCL4 USEFUL LOAD PREFETCHES:          0 PREFETCH ISSUED TO LOWER LEVEL:          0  ACCURACY: -nan
PSCL4 TIMELY PREFETCHES:          0 LATE PREFETCHES: 0 DROPPED PREFETCHES: 0
PSCL4 PREFETCHES SAME FILL-ORIGIN LEVEL: 0 DIFFERENT FILL-ORIGIN LEVEL: 0

PSCL3 TOTAL     ACCESS:     121371  HIT:     120956  MISS:        415  HIT %:    99.6581  MISS %:   0.341927   MPKI: 0.002075
PSCL3 LOAD TRANSLATION ACCESS:     121371  HIT:     120956  MISS:        415  HIT %:    99.6581  MISS %:   0.341927   MPKI: 0.002075
PSCL3 PREFETCH  REQUESTED:          0  ISSUED:          0  USEFUL:          0  USELESS:          0
PSCL3 USEFUL LOAD PREFETCHES:          0 PREFETCH ISSUED TO LOWER LEVEL:          0  ACCURACY: -nan
PSCL3 TIMELY PREFETCHES:          0 LATE PREFETCHES: 0 DROPPED PREFETCHES: 0
PSCL3 PREFETCHES SAME FILL-ORIGIN LEVEL: 0 DIFFERENT FILL-ORIGIN LEVEL: 0

PSCL2 TOTAL     ACCESS:     122488  HIT:     109994  MISS:      12494  HIT %:    89.7998  MISS %:    10.2002   MPKI: 0.06247
PSCL2 LOAD TRANSLATION ACCESS:     122488  HIT:     109994  MISS:      12494  HIT %:    89.7998  MISS %:    10.2002   MPKI: 0.06247
PSCL2 PREFETCH  REQUESTED:          0  ISSUED:          0  USEFUL:          0  USELESS:          0
PSCL2 USEFUL LOAD PREFETCHES:          0 PREFETCH ISSUED TO LOWER LEVEL:          0  ACCURACY: -nan
PSCL2 TIMELY PREFETCHES:          0 LATE PREFETCHES: 0 DROPPED PREFETCHES: 0
PSCL2 PREFETCHES SAME FILL-ORIGIN LEVEL: 0 DIFFERENT FILL-ORIGIN LEVEL: 0

LLC TOTAL     ACCESS:   10611746  HIT:    4240698  MISS:    6371048  HIT %:    39.9623  MISS %:    60.0377   MPKI: 31.8552
LLC LOAD      ACCESS:    1237237  HIT:     934976  MISS:     302261  HIT %:    75.5697  MISS %:    24.4303   MPKI: 1.5113
LLC RFO       ACCESS:    3230017  HIT:     805390  MISS:    2424627  HIT %:    24.9345  MISS %:    75.0655   MPKI: 12.1231
LLC PREFETCH  ACCESS:    2079192  HIT:     918465  MISS:    1160727  HIT %:    44.1741  MISS %:    55.8259   MPKI: 5.80363
AGUS PREFETCH L1 MISS: 0
LLC WRITEBACK ACCESS:    3990896  HIT:    1529046  MISS:    2461850  HIT %:    38.3134  MISS %:    61.6866   MPKI: 12.3093
LLC LOAD TRANSLATION ACCESS:      74404  HIT:      52821  MISS:      21583  HIT %:    70.9922  MISS %:    29.0078   MPKI: 0.107915
LLC PREFETCH  REQUESTED:          0  ISSUED:          0  USEFUL:       2541  USELESS:    1159040
LLC USEFUL LOAD PREFETCHES:       2541 PREFETCH ISSUED TO LOWER LEVEL:    1160727  ACCURACY: 0.218915
LLC TIMELY PREFETCHES:       2541 LATE PREFETCHES: 0 DROPPED PREFETCHES: 0
LLC PREFETCHES SAME FILL-ORIGIN LEVEL: 0 DIFFERENT FILL-ORIGIN LEVEL: 0
LLC AVERAGE MISS LATENCY: 139.278 cycles
LLC RQ	ACCESS:    4541683	FORWARD:          0	MERGED:          0	TO_CACHE:    4541658
LLC WQ	ACCESS:    3990896	FORWARD:         26	MERGED:          0	TO_CACHE:    3990896
LLC PQ	ACCESS:    2079193	FORWARD:          0	MERGED:          0	TO_CACHE:    2079192

LLC Dense regions hint to LLC: 0

RAW hits: 2074751
Loads Generated: 47521129
Loads sent to L1D: 45446377
Stores Generated: 33586965
Stores sent to L1D: 33586965
Major fault: 0 Minor fault: 22230
Allocated PAGES: 22230
[Bingo] PHT Access: 1155771
[Bingo] PHT Hit PC+Addr: 671058
[Bingo] PHT Hit PC+Offs: 244284
[Bingo] PHT Miss: 240429
[Bingo] Prefetch PC+Addr: 0
[Bingo] Prefetch PC+Offs: 0
[Bingo] Useful PC+Addr: 0
[Bingo] Useful PC+Offs: 0
[Bingo] Useless PC+Addr: 0
[Bingo] Useless PC+Offs: 0
[Bingo] L1 Prefetch per Region: 6.07399
[Bingo] L2 Prefetch per Region: 0.338669
[Bingo] L3 Prefetch per Region: 0
[Bingo] No Prefetch per Region: 25.5873
[Bingo] Number of Voters Mean: 11.5736
[Bingo] Number of Voters SD: 8.42512
PHT read accesses: 8276076
PHT write accesses: 543595
AT read accesses: 23417598
AT write accesses: 23417675
FT read accesses: 8704864
FT write accesses: 1155771
PS read accesses: 2979091
PS write accesses: 915342
PHT tag read accesses: 21356508
PHT tag write accesses: 1214653
AT tag read accesses: 574329575
AT tag write accesses: 23961210
FT tag read accesses: 234656760
FT tag write accesses: 5965472
PS tag read accesses: 470211837
PS tag write accesses: 3879420

DRAM Statistics
 CHANNEL 0
 RQ ROW_BUFFER_HIT:    2075103  ROW_BUFFER_MISS:    1833673
 DBUS_CONGESTED:       1772
 WQ ROW_BUFFER_HIT:     517809  ROW_BUFFER_MISS:    2078591  FULL:      67379

 AVG_CONGESTED_CYCLE: 3
 All warmup complete: 2
Channel 0 Bank busy for read cycles: 0
Channel 0 Bank busy for write cycles: 0
Channel 0
Rank 0
0banks busy for read cycles: 185983720
0banks busy for write cycles: 228515
1banks busy for read cycles: 24244617
1banks busy for write cycles: 27880528
2banks busy for read cycles: 11650736
2banks busy for write cycles: 13525283
3banks busy for read cycles: 16846761
3banks busy for write cycles: 7384070
4banks busy for read cycles: 4143568
4banks busy for write cycles: 4644273
5banks busy for read cycles: 3316859
5banks busy for write cycles: 3728475
6banks busy for read cycles: 3991338
6banks busy for write cycles: 3507205
7banks busy for read cycles: 6204214
7banks busy for write cycles: 5592850
8banks busy for read cycles: 23410941
8banks busy for write cycles: 30772387

CPU 0 Branch Prediction Accuracy: 99.9427% MPKI: 0.08834 Average ROB Occupancy at Mispredict: 98.854
Branch types
NOT_BRANCH: 169139642 84.5698%
BRANCH_DIRECT_JUMP: 1705434 0.852717%
BRANCH_INDIRECT: 9970641 4.98532%
BRANCH_CONDITIONAL: 12390175 6.19509%
BRANCH_DIRECT_CALL: 2773558 1.38678%
BRANCH_INDIRECT_CALL: 623355 0.311677%
BRANCH_RETURN: 3396900 1.69845%
BRANCH_OTHER: 0 0%

DRAM PAGES: 1048576
Allocated PAGES: 22230
