
*** ChampSim Multicore Out-of-Order Simulator ***

Warmup Instructions: 50000000
Simulation Instructions: 200000000
Number of CPUs: 1
LLC sets: 2048
LLC ways: 16
Off-chip DRAM Size: 4096 MB Channels: 1 Width: 64-bit Data Rate: 6400 MT/s
CPU 0 runs traces/spec2k17/srv_10.champsimtrace.xz
.xz
BTB has LRU replacement policy
ITLB has LRU replacement policy
DTLB has LRU replacement policy
STLB has LRU replacement policy
L1I has LRU replacement policy
Bingo PHT WAYS: 16 and PHT_SIZE: 16384
L1D has LRU replacement policy
Initialize SRRIP state for L2C
Initialize DRRIP state for LLC
Heartbeat CPU 0 instructions: 10000000 cycles: 2779315 heartbeat IPC: 3.59801 cumulative IPC: 3.59801 (Simulation time: 0 hr 0 min 22 sec) 
Heartbeat CPU 0 instructions: 20000002 cycles: 5551118 heartbeat IPC: 3.60776 cumulative IPC: 3.60288 (Simulation time: 0 hr 0 min 44 sec) 
Heartbeat CPU 0 instructions: 30000000 cycles: 8322738 heartbeat IPC: 3.608 cumulative IPC: 3.60458 (Simulation time: 0 hr 1 min 6 sec) 
*** Reached end of trace for Core: 0 Repeating trace: traces/spec2k17/srv_10.champsimtrace.xz
Heartbeat CPU 0 instructions: 40000001 cycles: 11095695 heartbeat IPC: 3.60626 cumulative IPC: 3.605 (Simulation time: 0 hr 1 min 28 sec) 
Heartbeat CPU 0 instructions: 50000002 cycles: 13866120 heartbeat IPC: 3.60955 cumulative IPC: 3.60591 (Simulation time: 0 hr 1 min 50 sec) 

Warmup complete CPU 0 instructions: 50000002 cycles: 13866120 (Simulation time: 0 hr 1 min 50 sec) 

Heartbeat CPU 0 instructions: 60000000 cycles: 36399557 heartbeat IPC: 0.443785 cumulative IPC: 0.443785 (Simulation time: 0 hr 2 min 24 sec) 
*** Reached end of trace for Core: 0 Repeating trace: traces/spec2k17/srv_10.champsimtrace.xz
Heartbeat CPU 0 instructions: 70000003 cycles: 59345133 heartbeat IPC: 0.435814 cumulative IPC: 0.439763 (Simulation time: 0 hr 2 min 58 sec) 
Heartbeat CPU 0 instructions: 80000001 cycles: 82165526 heartbeat IPC: 0.438204 cumulative IPC: 0.439242 (Simulation time: 0 hr 3 min 32 sec) 
Heartbeat CPU 0 instructions: 90000000 cycles: 104542177 heartbeat IPC: 0.446894 cumulative IPC: 0.441131 (Simulation time: 0 hr 4 min 6 sec) 
*** Reached end of trace for Core: 0 Repeating trace: traces/spec2k17/srv_10.champsimtrace.xz
Heartbeat CPU 0 instructions: 100000002 cycles: 127396797 heartbeat IPC: 0.437548 cumulative IPC: 0.44041 (Simulation time: 0 hr 4 min 46 sec) 
Heartbeat CPU 0 instructions: 110000000 cycles: 150208309 heartbeat IPC: 0.438375 cumulative IPC: 0.440069 (Simulation time: 0 hr 5 min 40 sec) 
Heartbeat CPU 0 instructions: 120000000 cycles: 172674601 heartbeat IPC: 0.445111 cumulative IPC: 0.440782 (Simulation time: 0 hr 6 min 35 sec) 
*** Reached end of trace for Core: 0 Repeating trace: traces/spec2k17/srv_10.champsimtrace.xz
Heartbeat CPU 0 instructions: 130000002 cycles: 195343485 heartbeat IPC: 0.441133 cumulative IPC: 0.440826 (Simulation time: 0 hr 7 min 29 sec) 
Heartbeat CPU 0 instructions: 140000003 cycles: 218228764 heartbeat IPC: 0.436962 cumulative IPC: 0.440394 (Simulation time: 0 hr 8 min 24 sec) 
Heartbeat CPU 0 instructions: 150000000 cycles: 240754653 heartbeat IPC: 0.443934 cumulative IPC: 0.440745 (Simulation time: 0 hr 9 min 4 sec) 
*** Reached end of trace for Core: 0 Repeating trace: traces/spec2k17/srv_10.champsimtrace.xz
Heartbeat CPU 0 instructions: 160000002 cycles: 263385560 heartbeat IPC: 0.441874 cumulative IPC: 0.440847 (Simulation time: 0 hr 9 min 38 sec) 
Heartbeat CPU 0 instructions: 170000000 cycles: 286125816 heartbeat IPC: 0.439749 cumulative IPC: 0.440756 (Simulation time: 0 hr 10 min 12 sec) 
Heartbeat CPU 0 instructions: 180000000 cycles: 308654673 heartbeat IPC: 0.443875 cumulative IPC: 0.440994 (Simulation time: 0 hr 10 min 47 sec) 
*** Reached end of trace for Core: 0 Repeating trace: traces/spec2k17/srv_10.champsimtrace.xz
Heartbeat CPU 0 instructions: 190000000 cycles: 331315132 heartbeat IPC: 0.441297 cumulative IPC: 0.441016 (Simulation time: 0 hr 11 min 21 sec) 
Heartbeat CPU 0 instructions: 200000001 cycles: 354039924 heartbeat IPC: 0.440048 cumulative IPC: 0.440951 (Simulation time: 0 hr 11 min 55 sec) 
Heartbeat CPU 0 instructions: 210000001 cycles: 376822049 heartbeat IPC: 0.438941 cumulative IPC: 0.440825 (Simulation time: 0 hr 12 min 30 sec) 
*** Reached end of trace for Core: 0 Repeating trace: traces/spec2k17/srv_10.champsimtrace.xz
Heartbeat CPU 0 instructions: 220000000 cycles: 399382356 heartbeat IPC: 0.443256 cumulative IPC: 0.440967 (Simulation time: 0 hr 13 min 18 sec) 
Heartbeat CPU 0 instructions: 230000000 cycles: 422094568 heartbeat IPC: 0.440292 cumulative IPC: 0.44093 (Simulation time: 0 hr 14 min 13 sec) 
Heartbeat CPU 0 instructions: 240000000 cycles: 444479153 heartbeat IPC: 0.446736 cumulative IPC: 0.441231 (Simulation time: 0 hr 14 min 52 sec) 
*** Reached end of trace for Core: 0 Repeating trace: traces/spec2k17/srv_10.champsimtrace.xz
Heartbeat CPU 0 instructions: 250000001 cycles: 467139905 heartbeat IPC: 0.441292 cumulative IPC: 0.441234 (Simulation time: 0 hr 15 min 27 sec) 
Finished CPU 0 instructions: 200000000 cycles: 453273786 cumulative IPC: 0.441234 (Simulation time: 0 hr 15 min 27 sec) 

ChampSim completed all CPUs

Region of Interest Statistics

CPU 0 cumulative IPC: 0.441234 instructions: 200000000 cycles: 453273786
ITLB TOTAL     ACCESS:   31517065  HIT:   30722727  MISS:     794338  HIT %:    97.4797  MISS %:    2.52034   MPKI: 3.97169
ITLB LOAD TRANSLATION ACCESS:   31517065  HIT:   30722727  MISS:     794338  HIT %:    97.4797  MISS %:    2.52034   MPKI: 3.97169
ITLB PREFETCH  REQUESTED:          0  ISSUED:          0  USEFUL:          0  USELESS:          0
ITLB USEFUL LOAD PREFETCHES:          0 PREFETCH ISSUED TO LOWER LEVEL:          0  ACCURACY: -nan
ITLB TIMELY PREFETCHES:          0 LATE PREFETCHES: 0 DROPPED PREFETCHES: 0
ITLB PREFETCHES SAME FILL-ORIGIN LEVEL: 0 DIFFERENT FILL-ORIGIN LEVEL: 0
ITLB AVERAGE MISS LATENCY: 15.8624 cycles
ITLB RQ	ACCESS:   38420028	FORWARD:          0	MERGED:    6711918	TO_CACHE:   31708110

DTLB TOTAL     ACCESS:   37770193  HIT:   35255898  MISS:    2514295  HIT %:    93.3432  MISS %:    6.65682   MPKI: 12.5715
DTLB LOAD TRANSLATION ACCESS:   37770193  HIT:   35255898  MISS:    2514295  HIT %:    93.3432  MISS %:    6.65682   MPKI: 12.5715
DTLB PREFETCH  REQUESTED:          0  ISSUED:          0  USEFUL:          0  USELESS:          0
DTLB USEFUL LOAD PREFETCHES:          0 PREFETCH ISSUED TO LOWER LEVEL:          0  ACCURACY: -nan
DTLB TIMELY PREFETCHES:          0 LATE PREFETCHES: 0 DROPPED PREFETCHES: 0
DTLB PREFETCHES SAME FILL-ORIGIN LEVEL: 0 DIFFERENT FILL-ORIGIN LEVEL: 0
DTLB AVERAGE MISS LATENCY: 14.0559 cycles
DTLB RQ	ACCESS:   48105390	FORWARD:          0	MERGED:   10186141	TO_CACHE:   37919249

STLB TOTAL     ACCESS:    4001149  HIT:    3537832  MISS:     463317  HIT %:    88.4204  MISS %:    11.5796   MPKI: 2.31658
STLB LOAD TRANSLATION ACCESS:    3308633  HIT:    2845316  MISS:     463317  HIT %:    85.9967  MISS %:    14.0033   MPKI: 2.31658
STLB TRANSLATION FROM L1D PREFETCHER ACCESS:     692516  HIT:     692516  MISS:          0  HIT %:        100  MISS %:          0   MPKI: 0
STLB PREFETCH  REQUESTED:          0  ISSUED:          0  USEFUL:          0  USELESS:          0
STLB USEFUL LOAD PREFETCHES:          0 PREFETCH ISSUED TO LOWER LEVEL:          0  ACCURACY: -nan
STLB TIMELY PREFETCHES:          0 LATE PREFETCHES: 0 DROPPED PREFETCHES: 0
STLB PREFETCHES SAME FILL-ORIGIN LEVEL: 0 DIFFERENT FILL-ORIGIN LEVEL: 0
STLB AVERAGE MISS LATENCY: 39.0288 cycles
STLB RQ	ACCESS:    5486653	FORWARD:          0	MERGED:    1485504	TO_CACHE:    4001149

STLB Hit, L1D data hit: 0
STLB Hit, L2C data hit: 0
STLB Hit, LLC data hit: 0
STLB Hit, LLC data miss: 0
STLB STLB hints to L2: 0
L1D TOTAL     ACCESS:   49809769  HIT:   46892727  MISS:    2917042  HIT %:    94.1436  MISS %:    5.85637   MPKI: 14.5852
L1D LOAD      ACCESS:   28092463  HIT:   26930121  MISS:    1162342  HIT %:    95.8624  MISS %:    4.13756   MPKI: 5.81171
L1D RFO       ACCESS:   19736704  HIT:   19526059  MISS:     210645  HIT %:    98.9327  MISS %:    1.06728   MPKI: 1.05323
L1D PREFETCH  ACCESS:    1980602  HIT:     436547  MISS:    1544055  HIT %:    22.0411  MISS %:    77.9589   MPKI: 7.72027
AGUS PREFETCH L1 MISS: 0
L1D PREFETCH  REQUESTED:    4356577  ISSUED:    4356577  USEFUL:    1235808  USELESS:     308266
L1D USEFUL LOAD PREFETCHES:    1235808 PREFETCH ISSUED TO LOWER LEVEL:    1645942  ACCURACY: 75.0821
L1D TIMELY PREFETCHES:    1235808 LATE PREFETCHES: 30862 DROPPED PREFETCHES: 0
L1D PREFETCHES SAME FILL-ORIGIN LEVEL: 1579576 DIFFERENT FILL-ORIGIN LEVEL: 66366
L1D AVERAGE MISS LATENCY: 2.94599e+06 cycles
L1D RQ	ACCESS:   42236428	FORWARD:          0	MERGED:   13875153	TO_CACHE:   28137752
L1D WQ	ACCESS:   20227584	FORWARD:     224053	MERGED:     259946	TO_CACHE:   19967638
L1D PQ	ACCESS:    2178557	FORWARD:          0	MERGED:          7	TO_CACHE:    2178020

L1D UNIQUE REGIONS ACCESSED: 0
L1D REGIONS CONFLICTS: 0
L1D Cross Page Prefetch Requests: 0
L1D Same Page Prefetch Requests: 2671291
L1D ROI Sum of L1D PQ occupancy: 31223506
L1D PREFETCHES PUSHED FROM L2C: 0
L1I TOTAL     ACCESS:   36761608  HIT:   31718176  MISS:    5043432  HIT %:    86.2807  MISS %:    13.7193   MPKI: 25.2172
L1I LOAD      ACCESS:   36761608  HIT:   31718176  MISS:    5043432  HIT %:    86.2807  MISS %:    13.7193   MPKI: 25.2172
L1I PREFETCH  REQUESTED:          0  ISSUED:          0  USEFUL:          0  USELESS:          0
L1I USEFUL LOAD PREFETCHES:          0 PREFETCH ISSUED TO LOWER LEVEL:          0  ACCURACY: -nan
L1I TIMELY PREFETCHES:          0 LATE PREFETCHES: 0 DROPPED PREFETCHES: 0
L1I PREFETCHES SAME FILL-ORIGIN LEVEL: 0 DIFFERENT FILL-ORIGIN LEVEL: 0
L1I AVERAGE MISS LATENCY: 28.0977 cycles
L1I RQ	ACCESS:   57055885	FORWARD:          0	MERGED:   18635857	TO_CACHE:   38420028

BTB TOTAL     ACCESS:   22616972  HIT:   17672573  MISS:    4944399  HIT %:    78.1385  MISS %:    21.8615   MPKI: 24.722
BTB BRANCH_DIRECT_JUMP	ACCESS:    1742577  HIT:    1446257  MISS:     296320
BTB BRANCH_INDIRECT	ACCESS:    9604965  HIT:    7286777  MISS:    2318188
BTB BRANCH_CONDITIONAL	ACCESS:    4679517  HIT:    4209943  MISS:     469574
BTB BRANCH_DIRECT_CALL	ACCESS:    2572130  HIT:    1992728  MISS:     579402
BTB BRANCH_INDIRECT_CALL	ACCESS:     719271  HIT:     661890  MISS:      57381
BTB BRANCH_RETURN	ACCESS:    3298512  HIT:    2074978  MISS:    1223534
BTB BRANCH_OTHER ACCESS:          0  HIT:          0  MISS:          0

L2C TOTAL     ACCESS:    9650436  HIT:    5654462  MISS:    3995974  HIT %:    58.5928  MISS %:    41.4072   MPKI: 19.9799
L2C LOAD      ACCESS:    6174889  HIT:    3352277  MISS:    2822612  HIT %:    54.2889  MISS %:    45.7111   MPKI: 14.1131
L2C DATA LOAD MPKI: 2.59355
L2C INSTRUCTION LOAD MPKI: 11.5195
L2C RFO       ACCESS:     205986  HIT:     110199  MISS:      95787  HIT %:    53.4983  MISS %:    46.5017   MPKI: 0.478935
L2C PREFETCH  ACCESS:    1645739  HIT:     841857  MISS:     803882  HIT %:    51.1537  MISS %:    48.8463   MPKI: 4.01941
AGUS PREFETCH L1 MISS: 0
L2C DATA PREFETCH MPKI: 4.01941
L2C INSTRUCTION PREFETCH MPKI: 0
L2C WRITEBACK ACCESS:    1035368  HIT:     983861  MISS:      51507  HIT %:    95.0252  MISS %:    4.97475   MPKI: 0.257535
L2C LOAD TRANSLATION ACCESS:     588454  HIT:     366268  MISS:     222186  HIT %:    62.2424  MISS %:    37.7576   MPKI: 1.11093
L2C PREFETCH  REQUESTED:          0  ISSUED:          0  USEFUL:      67884  USELESS:     735893
L2C USEFUL LOAD PREFETCHES:      67884 PREFETCH ISSUED TO LOWER LEVEL:     804079  ACCURACY: 8.44245
L2C TIMELY PREFETCHES:      67884 LATE PREFETCHES: 197 DROPPED PREFETCHES: 0
L2C PREFETCHES SAME FILL-ORIGIN LEVEL: 28005 DIFFERENT FILL-ORIGIN LEVEL: 0
L2C AVERAGE MISS LATENCY: 40.0798 cycles
L2C RQ	ACCESS:    6969351	FORWARD:          0	MERGED:          0	TO_CACHE:    6969328
L2C WQ	ACCESS:    1035368	FORWARD:         26	MERGED:          0	TO_CACHE:    1035368
L2C PQ	ACCESS:    1645942	FORWARD:          0	MERGED:          0	TO_CACHE:    1645939

L2C Instructions Evicting Data 843054
L2C Translations Evicting Data 84429
L2C Data Evicting Data 522700
L2C Instructions Evicting Instructions 1334567
L2C Translations Evicting Instructions 125804
L2C Data Evicting Instructions 814681
L2C Instructions Evicting Translations 126280
L2C Translations Evicting Translations 11953
L2C Data Evicting Translations 80999
L2C Dense regions hint from L2: 0
PSCL5 TOTAL     ACCESS:     463317  HIT:     463317  MISS:          0  HIT %:        100  MISS %:          0   MPKI: 0
PSCL5 LOAD TRANSLATION ACCESS:     463317  HIT:     463317  MISS:          0  HIT %:        100  MISS %:          0   MPKI: 0
PSCL5 PREFETCH  REQUESTED:          0  ISSUED:          0  USEFUL:          0  USELESS:          0
PSCL5 USEFUL LOAD PREFETCHES:          0 PREFETCH ISSUED TO LOWER LEVEL:          0  ACCURACY: -nan
PSCL5 TIMELY PREFETCHES:          0 LATE PREFETCHES: 0 DROPPED PREFETCHES: 0
PSCL5 PREFETCHES SAME FILL-ORIGIN LEVEL: 0 DIFFERENT FILL-ORIGIN LEVEL: 0

PSCL4 TOTAL     ACCESS:     434470  HIT:     433329  MISS:       1141  HIT %:    99.7374  MISS %:   0.262619   MPKI: 0.005705
PSCL4 LOAD TRANSLATION ACCESS:     434470  HIT:     433329  MISS:       1141  HIT %:    99.7374  MISS %:   0.262619   MPKI: 0.005705
PSCL4 PREFETCH  REQUESTED:          0  ISSUED:          0  USEFUL:          0  USELESS:          0
PSCL4 USEFUL LOAD PREFETCHES:          0 PREFETCH ISSUED TO LOWER LEVEL:          0  ACCURACY: -nan
PSCL4 TIMELY PREFETCHES:          0 LATE PREFETCHES: 0 DROPPED PREFETCHES: 0
PSCL4 PREFETCHES SAME FILL-ORIGIN LEVEL: 0 DIFFERENT FILL-ORIGIN LEVEL: 0

PSCL3 TOTAL     ACCESS:     459908  HIT:     456196  MISS:       3712  HIT %:    99.1929  MISS %:   0.807118   MPKI: 0.01856
PSCL3 LOAD TRANSLATION ACCESS:     459908  HIT:     456196  MISS:       3712  HIT %:    99.1929  MISS %:   0.807118   MPKI: 0.01856
PSCL3 PREFETCH  REQUESTED:          0  ISSUED:          0  USEFUL:          0  USELESS:          0
PSCL3 USEFUL LOAD PREFETCHES:          0 PREFETCH ISSUED TO LOWER LEVEL:          0  ACCURACY: -nan
PSCL3 TIMELY PREFETCHES:          0 LATE PREFETCHES: 0 DROPPED PREFETCHES: 0
PSCL3 PREFETCHES SAME FILL-ORIGIN LEVEL: 0 DIFFERENT FILL-ORIGIN LEVEL: 0

PSCL2 TOTAL     ACCESS:     463317  HIT:     343033  MISS:     120284  HIT %:    74.0385  MISS %:    25.9615   MPKI: 0.60142
PSCL2 LOAD TRANSLATION ACCESS:     463317  HIT:     343033  MISS:     120284  HIT %:    74.0385  MISS %:    25.9615   MPKI: 0.60142
PSCL2 PREFETCH  REQUESTED:          0  ISSUED:          0  USEFUL:          0  USELESS:          0
PSCL2 USEFUL LOAD PREFETCHES:          0 PREFETCH ISSUED TO LOWER LEVEL:          0  ACCURACY: -nan
PSCL2 TIMELY PREFETCHES:          0 LATE PREFETCHES: 0 DROPPED PREFETCHES: 0
PSCL2 PREFETCHES SAME FILL-ORIGIN LEVEL: 0 DIFFERENT FILL-ORIGIN LEVEL: 0

LLC TOTAL     ACCESS:    4428048  HIT:    4185603  MISS:     242445  HIT %:    94.5248  MISS %:    5.47521   MPKI: 1.21223
LLC LOAD      ACCESS:    2822610  HIT:    2783084  MISS:      39526  HIT %:    98.5997  MISS %:    1.40034   MPKI: 0.19763
LLC RFO       ACCESS:      95592  HIT:      77666  MISS:      17926  HIT %:    81.2474  MISS %:    18.7526   MPKI: 0.08963
LLC PREFETCH  ACCESS:     804078  HIT:     623495  MISS:     180583  HIT %:    77.5416  MISS %:    22.4584   MPKI: 0.902915
AGUS PREFETCH L1 MISS: 0
LLC WRITEBACK ACCESS:     483582  HIT:     482278  MISS:       1304  HIT %:    99.7303  MISS %:   0.269654   MPKI: 0.00652
LLC LOAD TRANSLATION ACCESS:     222186  HIT:     219080  MISS:       3106  HIT %:    98.6021  MISS %:    1.39793   MPKI: 0.01553
LLC PREFETCH  REQUESTED:          0  ISSUED:          0  USEFUL:       4552  USELESS:     175177
LLC USEFUL LOAD PREFETCHES:       4552 PREFETCH ISSUED TO LOWER LEVEL:     180583  ACCURACY: 2.52072
LLC TIMELY PREFETCHES:       4552 LATE PREFETCHES: 0 DROPPED PREFETCHES: 0
LLC PREFETCHES SAME FILL-ORIGIN LEVEL: 0 DIFFERENT FILL-ORIGIN LEVEL: 0
LLC AVERAGE MISS LATENCY: 172.644 cycles
LLC RQ	ACCESS:    3140387	FORWARD:          0	MERGED:          0	TO_CACHE:    3140387
LLC WQ	ACCESS:     483582	FORWARD:          1	MERGED:          0	TO_CACHE:     483582
LLC PQ	ACCESS:     804079	FORWARD:          0	MERGED:          0	TO_CACHE:     804078

LLC Dense regions hint to LLC: 0

RAW hits: 2487014
Loads Generated: 44723442
Loads sent to L1D: 42236428
Stores Generated: 20227563
Stores sent to L1D: 20227584
Major fault: 0 Minor fault: 4015
Allocated PAGES: 4015
[Bingo] PHT Access: 1227626
[Bingo] PHT Hit PC+Addr: 607631
[Bingo] PHT Hit PC+Offs: 52574
[Bingo] PHT Miss: 567421
[Bingo] Prefetch PC+Addr: 0
[Bingo] Prefetch PC+Offs: 0
[Bingo] Useful PC+Addr: 0
[Bingo] Useful PC+Offs: 0
[Bingo] Useless PC+Addr: 0
[Bingo] Useless PC+Offs: 0
[Bingo] L1 Prefetch per Region: 4.22226
[Bingo] L2 Prefetch per Region: 0.107367
[Bingo] L3 Prefetch per Region: 0
[Bingo] No Prefetch per Region: 27.6704
[Bingo] Number of Voters Mean: 3.34555
[Bingo] Number of Voters SD: 4.15843
PHT read accesses: 9184915
PHT write accesses: 494235
AT read accesses: 21498555
AT write accesses: 21509174
FT read accesses: 13375379
FT write accesses: 1227626
PS read accesses: 1383802
PS write accesses: 660205
PHT tag read accesses: 19846346
PHT tag write accesses: 1101866
AT tag read accesses: 515937707
AT tag write accesses: 21992801
FT tag read accesses: 211213408
FT tag write accesses: 8213561
PS tag read accesses: 472482067
PS tag write accesses: 2042340

DRAM Statistics
 CHANNEL 0
 RQ ROW_BUFFER_HIT:      76731  ROW_BUFFER_MISS:     164410
 DBUS_CONGESTED:        156
 WQ ROW_BUFFER_HIT:      19374  ROW_BUFFER_MISS:     180890  FULL:          0

 AVG_CONGESTED_CYCLE: 3
 All warmup complete: 2
Channel 0 Bank busy for read cycles: 0
Channel 0 Bank busy for write cycles: 0
Channel 0
Rank 0
0banks busy for read cycles: 433689161
0banks busy for write cycles: 37629
1banks busy for read cycles: 5392745
1banks busy for write cycles: 3583026
2banks busy for read cycles: 1367800
2banks busy for write cycles: 1425766
3banks busy for read cycles: 501044
3banks busy for write cycles: 818204
4banks busy for read cycles: 343744
4banks busy for write cycles: 642827
5banks busy for read cycles: 300128
5banks busy for write cycles: 534262
6banks busy for read cycles: 343704
6banks busy for write cycles: 536156
7banks busy for read cycles: 523606
7banks busy for write cycles: 705226
8banks busy for read cycles: 1283076
8banks busy for write cycles: 1245683

CPU 0 Branch Prediction Accuracy: 99.8374% MPKI: 0.292835 Average ROB Occupancy at Mispredict: 29.189
Branch types
NOT_BRANCH: 163982155 81.9911%
BRANCH_DIRECT_JUMP: 1742577 0.871289%
BRANCH_INDIRECT: 9604965 4.80248%
BRANCH_CONDITIONAL: 18080053 9.04003%
BRANCH_DIRECT_CALL: 2572130 1.28607%
BRANCH_INDIRECT_CALL: 719271 0.359635%
BRANCH_RETURN: 3298512 1.64926%
BRANCH_OTHER: 0 0%

DRAM PAGES: 1048576
Allocated PAGES: 4015
