
*** ChampSim Multicore Out-of-Order Simulator ***

Warmup Instructions: 50000000
Simulation Instructions: 200000000
Number of CPUs: 1
LLC sets: 2048
LLC ways: 16
Off-chip DRAM Size: 4096 MB Channels: 1 Width: 64-bit Data Rate: 6400 MT/s
CPU 0 runs traces/spec2k17/srv_4.champsimtrace.xz
.xz
BTB has LRU replacement policy
ITLB has LRU replacement policy
DTLB has LRU replacement policy
STLB has LRU replacement policy
L1I has LRU replacement policy
Bingo PHT WAYS: 16 and PHT_SIZE: 16384
L1D has LRU replacement policy
Initialize SRRIP state for L2C
Initialize DRRIP state for LLC
Heartbeat CPU 0 instructions: 10000001 cycles: 2765255 heartbeat IPC: 3.6163 cumulative IPC: 3.6163 (Simulation time: 0 hr 0 min 22 sec) 
Heartbeat CPU 0 instructions: 20000002 cycles: 5520452 heartbeat IPC: 3.6295 cumulative IPC: 3.62289 (Simulation time: 0 hr 0 min 45 sec) 
Heartbeat CPU 0 instructions: 30000000 cycles: 8274011 heartbeat IPC: 3.63166 cumulative IPC: 3.62581 (Simulation time: 0 hr 1 min 7 sec) 
*** Reached end of trace for Core: 0 Repeating trace: traces/spec2k17/srv_4.champsimtrace.xz
Heartbeat CPU 0 instructions: 40000002 cycles: 11033037 heartbeat IPC: 3.62447 cumulative IPC: 3.62548 (Simulation time: 0 hr 1 min 30 sec) 
Heartbeat CPU 0 instructions: 50000003 cycles: 13788873 heartbeat IPC: 3.62866 cumulative IPC: 3.62611 (Simulation time: 0 hr 1 min 52 sec) 

Warmup complete CPU 0 instructions: 50000003 cycles: 13788873 (Simulation time: 0 hr 1 min 52 sec) 

Heartbeat CPU 0 instructions: 60000001 cycles: 34417790 heartbeat IPC: 0.484756 cumulative IPC: 0.484756 (Simulation time: 0 hr 2 min 26 sec) 
*** Reached end of trace for Core: 0 Repeating trace: traces/spec2k17/srv_4.champsimtrace.xz
Heartbeat CPU 0 instructions: 70000000 cycles: 55919148 heartbeat IPC: 0.465087 cumulative IPC: 0.474718 (Simulation time: 0 hr 3 min 1 sec) 
Heartbeat CPU 0 instructions: 80000001 cycles: 76629054 heartbeat IPC: 0.482861 cumulative IPC: 0.477402 (Simulation time: 0 hr 3 min 35 sec) 
Heartbeat CPU 0 instructions: 90000002 cycles: 97398753 heartbeat IPC: 0.481471 cumulative IPC: 0.478412 (Simulation time: 0 hr 4 min 9 sec) 
*** Reached end of trace for Core: 0 Repeating trace: traces/spec2k17/srv_4.champsimtrace.xz
Heartbeat CPU 0 instructions: 100000000 cycles: 118701097 heartbeat IPC: 0.469432 cumulative IPC: 0.476589 (Simulation time: 0 hr 4 min 44 sec) 
Heartbeat CPU 0 instructions: 110000000 cycles: 139675621 heartbeat IPC: 0.476769 cumulative IPC: 0.476619 (Simulation time: 0 hr 5 min 18 sec) 
Heartbeat CPU 0 instructions: 120000001 cycles: 160480875 heartbeat IPC: 0.480648 cumulative IPC: 0.47719 (Simulation time: 0 hr 5 min 51 sec) 
*** Reached end of trace for Core: 0 Repeating trace: traces/spec2k17/srv_4.champsimtrace.xz
Heartbeat CPU 0 instructions: 130000000 cycles: 181368915 heartbeat IPC: 0.478743 cumulative IPC: 0.477384 (Simulation time: 0 hr 6 min 26 sec) 
Heartbeat CPU 0 instructions: 140000002 cycles: 202458836 heartbeat IPC: 0.47416 cumulative IPC: 0.477023 (Simulation time: 0 hr 7 min 0 sec) 
Heartbeat CPU 0 instructions: 150000000 cycles: 223267316 heartbeat IPC: 0.480573 cumulative IPC: 0.477376 (Simulation time: 0 hr 7 min 34 sec) 
*** Reached end of trace for Core: 0 Repeating trace: traces/spec2k17/srv_4.champsimtrace.xz
Heartbeat CPU 0 instructions: 160000001 cycles: 244277532 heartbeat IPC: 0.475959 cumulative IPC: 0.477247 (Simulation time: 0 hr 8 min 26 sec) 
Heartbeat CPU 0 instructions: 170000000 cycles: 265286856 heartbeat IPC: 0.475979 cumulative IPC: 0.477141 (Simulation time: 0 hr 9 min 20 sec) 
Heartbeat CPU 0 instructions: 180000003 cycles: 286153747 heartbeat IPC: 0.479228 cumulative IPC: 0.477301 (Simulation time: 0 hr 10 min 14 sec) 
*** Reached end of trace for Core: 0 Repeating trace: traces/spec2k17/srv_4.champsimtrace.xz
Heartbeat CPU 0 instructions: 190000001 cycles: 307136120 heartbeat IPC: 0.47659 cumulative IPC: 0.47725 (Simulation time: 0 hr 11 min 8 sec) 
Heartbeat CPU 0 instructions: 200000000 cycles: 328194879 heartbeat IPC: 0.474862 cumulative IPC: 0.47709 (Simulation time: 0 hr 12 min 2 sec) 
Heartbeat CPU 0 instructions: 210000002 cycles: 348930133 heartbeat IPC: 0.482271 cumulative IPC: 0.477411 (Simulation time: 0 hr 12 min 55 sec) 
*** Reached end of trace for Core: 0 Repeating trace: traces/spec2k17/srv_4.champsimtrace.xz
Heartbeat CPU 0 instructions: 220000000 cycles: 369963085 heartbeat IPC: 0.475444 cumulative IPC: 0.477295 (Simulation time: 0 hr 13 min 49 sec) 
Heartbeat CPU 0 instructions: 230000000 cycles: 391082210 heartbeat IPC: 0.473504 cumulative IPC: 0.477082 (Simulation time: 0 hr 14 min 43 sec) 
Heartbeat CPU 0 instructions: 240000002 cycles: 411717633 heartbeat IPC: 0.484604 cumulative IPC: 0.477472 (Simulation time: 0 hr 15 min 37 sec) 
*** Reached end of trace for Core: 0 Repeating trace: traces/spec2k17/srv_4.champsimtrace.xz
Heartbeat CPU 0 instructions: 250000002 cycles: 432620962 heartbeat IPC: 0.478393 cumulative IPC: 0.477518 (Simulation time: 0 hr 16 min 30 sec) 
Finished CPU 0 instructions: 200000003 cycles: 418832090 cumulative IPC: 0.477518 (Simulation time: 0 hr 16 min 30 sec) 

ChampSim completed all CPUs

Region of Interest Statistics

CPU 0 cumulative IPC: 0.477518 instructions: 200000003 cycles: 418832090
ITLB TOTAL     ACCESS:   31161612  HIT:   30366337  MISS:     795275  HIT %:    97.4479  MISS %:     2.5521   MPKI: 3.97637
ITLB LOAD TRANSLATION ACCESS:   31161612  HIT:   30366337  MISS:     795275  HIT %:    97.4479  MISS %:     2.5521   MPKI: 3.97637
ITLB PREFETCH  REQUESTED:          0  ISSUED:          0  USEFUL:          0  USELESS:          0
ITLB USEFUL LOAD PREFETCHES:          0 PREFETCH ISSUED TO LOWER LEVEL:          0  ACCURACY: -nan
ITLB TIMELY PREFETCHES:          0 LATE PREFETCHES: 0 DROPPED PREFETCHES: 0
ITLB PREFETCHES SAME FILL-ORIGIN LEVEL: 0 DIFFERENT FILL-ORIGIN LEVEL: 0
ITLB AVERAGE MISS LATENCY: 13.474 cycles
ITLB RQ	ACCESS:   38100874	FORWARD:          0	MERGED:    6738079	TO_CACHE:   31362795

DTLB TOTAL     ACCESS:   37449213  HIT:   34859558  MISS:    2589655  HIT %:    93.0849  MISS %:    6.91511   MPKI: 12.9483
DTLB LOAD TRANSLATION ACCESS:   37449213  HIT:   34859558  MISS:    2589655  HIT %:    93.0849  MISS %:    6.91511   MPKI: 12.9483
DTLB PREFETCH  REQUESTED:          0  ISSUED:          0  USEFUL:          0  USELESS:          0
DTLB USEFUL LOAD PREFETCHES:          0 PREFETCH ISSUED TO LOWER LEVEL:          0  ACCURACY: -nan
DTLB TIMELY PREFETCHES:          0 LATE PREFETCHES: 0 DROPPED PREFETCHES: 0
DTLB PREFETCHES SAME FILL-ORIGIN LEVEL: 0 DIFFERENT FILL-ORIGIN LEVEL: 0
DTLB AVERAGE MISS LATENCY: 13.6362 cycles
DTLB RQ	ACCESS:   47715159	FORWARD:          0	MERGED:   10122574	TO_CACHE:   37592585

STLB TOTAL     ACCESS:    4083092  HIT:    3765636  MISS:     317456  HIT %:    92.2251  MISS %:    7.77489   MPKI: 1.58728
STLB LOAD TRANSLATION ACCESS:    3384930  HIT:    3067474  MISS:     317456  HIT %:    90.6215  MISS %:    9.37851   MPKI: 1.58728
STLB TRANSLATION FROM L1D PREFETCHER ACCESS:     698162  HIT:     698162  MISS:          0  HIT %:        100  MISS %:          0   MPKI: 0
STLB PREFETCH  REQUESTED:          0  ISSUED:          0  USEFUL:          0  USELESS:          0
STLB USEFUL LOAD PREFETCHES:          0 PREFETCH ISSUED TO LOWER LEVEL:          0  ACCURACY: -nan
STLB TIMELY PREFETCHES:          0 LATE PREFETCHES: 0 DROPPED PREFETCHES: 0
STLB PREFETCHES SAME FILL-ORIGIN LEVEL: 0 DIFFERENT FILL-ORIGIN LEVEL: 0
STLB AVERAGE MISS LATENCY: 48.7431 cycles
STLB RQ	ACCESS:    5518235	FORWARD:          0	MERGED:    1435143	TO_CACHE:    4083092

STLB Hit, L1D data hit: 0
STLB Hit, L2C data hit: 0
STLB Hit, LLC data hit: 0
STLB Hit, LLC data miss: 0
STLB STLB hints to L2: 0
L1D TOTAL     ACCESS:   49390066  HIT:   46520523  MISS:    2869543  HIT %:      94.19  MISS %:    5.80996   MPKI: 14.3477
L1D LOAD      ACCESS:   27829272  HIT:   26651190  MISS:    1178082  HIT %:    95.7668  MISS %:    4.23325   MPKI: 5.89041
L1D RFO       ACCESS:   19637387  HIT:   19439160  MISS:     198227  HIT %:    98.9906  MISS %:    1.00944   MPKI: 0.991135
L1D PREFETCH  ACCESS:    1923407  HIT:     430173  MISS:    1493234  HIT %:    22.3652  MISS %:    77.6348   MPKI: 7.46617
AGUS PREFETCH L1 MISS: 0
L1D PREFETCH  REQUESTED:    4267099  ISSUED:    4267099  USEFUL:    1183136  USELESS:     310069
L1D USEFUL LOAD PREFETCHES:    1183136 PREFETCH ISSUED TO LOWER LEVEL:    1607492  ACCURACY: 73.6014
L1D TIMELY PREFETCHES:    1183136 LATE PREFETCHES: 28851 DROPPED PREFETCHES: 0
L1D PREFETCHES SAME FILL-ORIGIN LEVEL: 1527623 DIFFERENT FILL-ORIGIN LEVEL: 79869
L1D AVERAGE MISS LATENCY: 2.6798e+06 cycles
L1D RQ	ACCESS:   42342157	FORWARD:          0	MERGED:   14238416	TO_CACHE:   27875350
L1D WQ	ACCESS:   20103875	FORWARD:     228795	MERGED:     264066	TO_CACHE:   19839809
L1D PQ	ACCESS:    2133794	FORWARD:          0	MERGED:         85	TO_CACHE:    2133305

L1D UNIQUE REGIONS ACCESSED: 0
L1D REGIONS CONFLICTS: 0
L1D Cross Page Prefetch Requests: 0
L1D Same Page Prefetch Requests: 2619499
L1D ROI Sum of L1D PQ occupancy: 30416428
L1D PREFETCHES PUSHED FROM L2C: 0
L1I TOTAL     ACCESS:   36267536  HIT:   31170241  MISS:    5097295  HIT %:    85.9453  MISS %:    14.0547   MPKI: 25.4865
L1I LOAD      ACCESS:   36267536  HIT:   31170241  MISS:    5097295  HIT %:    85.9453  MISS %:    14.0547   MPKI: 25.4865
L1I PREFETCH  REQUESTED:          0  ISSUED:          0  USEFUL:          0  USELESS:          0
L1I USEFUL LOAD PREFETCHES:          0 PREFETCH ISSUED TO LOWER LEVEL:          0  ACCURACY: -nan
L1I TIMELY PREFETCHES:          0 LATE PREFETCHES: 0 DROPPED PREFETCHES: 0
L1I PREFETCHES SAME FILL-ORIGIN LEVEL: 0 DIFFERENT FILL-ORIGIN LEVEL: 0
L1I AVERAGE MISS LATENCY: 25.0827 cycles
L1I RQ	ACCESS:   57075884	FORWARD:          0	MERGED:   18975010	TO_CACHE:   38100874

BTB TOTAL     ACCESS:   22109484  HIT:   17938624  MISS:    4170860  HIT %:    81.1354  MISS %:    18.8646   MPKI: 20.8543
BTB BRANCH_DIRECT_JUMP	ACCESS:    1732440  HIT:    1504284  MISS:     228156
BTB BRANCH_INDIRECT	ACCESS:    9572696  HIT:    7533262  MISS:    2039434
BTB BRANCH_CONDITIONAL	ACCESS:    4510201  HIT:    4135936  MISS:     374265
BTB BRANCH_DIRECT_CALL	ACCESS:    2461390  HIT:    2014294  MISS:     447096
BTB BRANCH_INDIRECT_CALL	ACCESS:     683684  HIT:     645488  MISS:      38196
BTB BRANCH_RETURN	ACCESS:    3149073  HIT:    2105360  MISS:    1043713
BTB BRANCH_OTHER ACCESS:          0  HIT:          0  MISS:          0

L2C TOTAL     ACCESS:    9510396  HIT:    6245423  MISS:    3264973  HIT %:    65.6694  MISS %:    34.3306   MPKI: 16.3249
L2C LOAD      ACCESS:    6246472  HIT:    3977461  MISS:    2269011  HIT %:    63.6753  MISS %:    36.3247   MPKI: 11.3451
L2C DATA LOAD MPKI: 2.22972
L2C INSTRUCTION LOAD MPKI: 9.11533
L2C RFO       ACCESS:     192677  HIT:     115016  MISS:      77661  HIT %:    59.6937  MISS %:    40.3063   MPKI: 0.388305
L2C PREFETCH  ACCESS:    1606670  HIT:     911196  MISS:     695474  HIT %:    56.7133  MISS %:    43.2867   MPKI: 3.47737
AGUS PREFETCH L1 MISS: 0
L2C DATA PREFETCH MPKI: 3.47737
L2C INSTRUCTION PREFETCH MPKI: 0
L2C WRITEBACK ACCESS:    1044130  HIT:     995085  MISS:      49045  HIT %:    95.3028  MISS %:    4.69721   MPKI: 0.245225
L2C LOAD TRANSLATION ACCESS:     420447  HIT:     246665  MISS:     173782  HIT %:    58.6673  MISS %:    41.3327   MPKI: 0.86891
L2C PREFETCH  REQUESTED:          0  ISSUED:          0  USEFUL:      70807  USELESS:     624575
L2C USEFUL LOAD PREFETCHES:      70807 PREFETCH ISSUED TO LOWER LEVEL:     696264  ACCURACY: 10.1696
L2C TIMELY PREFETCHES:      70807 LATE PREFETCHES: 790 DROPPED PREFETCHES: 0
L2C PREFETCHES SAME FILL-ORIGIN LEVEL: 66321 DIFFERENT FILL-ORIGIN LEVEL: 0
L2C AVERAGE MISS LATENCY: 46.8863 cycles
L2C RQ	ACCESS:    6859652	FORWARD:          0	MERGED:          0	TO_CACHE:    6859597
L2C WQ	ACCESS:    1044130	FORWARD:         97	MERGED:          0	TO_CACHE:    1044130
L2C PQ	ACCESS:    1607492	FORWARD:          0	MERGED:          0	TO_CACHE:    1607450

L2C Instructions Evicting Data 692650
L2C Translations Evicting Data 71174
L2C Data Evicting Data 485633
L2C Instructions Evicting Instructions 1037257
L2C Translations Evicting Instructions 94643
L2C Data Evicting Instructions 663057
L2C Instructions Evicting Translations 93159
L2C Translations Evicting Translations 7965
L2C Data Evicting Translations 70390
L2C Dense regions hint from L2: 0
PSCL5 TOTAL     ACCESS:     317456  HIT:     317456  MISS:          0  HIT %:        100  MISS %:          0   MPKI: 0
PSCL5 LOAD TRANSLATION ACCESS:     317456  HIT:     317456  MISS:          0  HIT %:        100  MISS %:          0   MPKI: 0
PSCL5 PREFETCH  REQUESTED:          0  ISSUED:          0  USEFUL:          0  USELESS:          0
PSCL5 USEFUL LOAD PREFETCHES:          0 PREFETCH ISSUED TO LOWER LEVEL:          0  ACCURACY: -nan
PSCL5 TIMELY PREFETCHES:          0 LATE PREFETCHES: 0 DROPPED PREFETCHES: 0
PSCL5 PREFETCHES SAME FILL-ORIGIN LEVEL: 0 DIFFERENT FILL-ORIGIN LEVEL: 0

PSCL4 TOTAL     ACCESS:     297090  HIT:     296329  MISS:        761  HIT %:    99.7438  MISS %:   0.256151   MPKI: 0.003805
PSCL4 LOAD TRANSLATION ACCESS:     297090  HIT:     296329  MISS:        761  HIT %:    99.7438  MISS %:   0.256151   MPKI: 0.003805
PSCL4 PREFETCH  REQUESTED:          0  ISSUED:          0  USEFUL:          0  USELESS:          0
PSCL4 USEFUL LOAD PREFETCHES:          0 PREFETCH ISSUED TO LOWER LEVEL:          0  ACCURACY: -nan
PSCL4 TIMELY PREFETCHES:          0 LATE PREFETCHES: 0 DROPPED PREFETCHES: 0
PSCL4 PREFETCHES SAME FILL-ORIGIN LEVEL: 0 DIFFERENT FILL-ORIGIN LEVEL: 0

PSCL3 TOTAL     ACCESS:     316468  HIT:     314945  MISS:       1523  HIT %:    99.5188  MISS %:   0.481249   MPKI: 0.007615
PSCL3 LOAD TRANSLATION ACCESS:     316468  HIT:     314945  MISS:       1523  HIT %:    99.5188  MISS %:   0.481249   MPKI: 0.007615
PSCL3 PREFETCH  REQUESTED:          0  ISSUED:          0  USEFUL:          0  USELESS:          0
PSCL3 USEFUL LOAD PREFETCHES:          0 PREFETCH ISSUED TO LOWER LEVEL:          0  ACCURACY: -nan
PSCL3 TIMELY PREFETCHES:          0 LATE PREFETCHES: 0 DROPPED PREFETCHES: 0
PSCL3 PREFETCHES SAME FILL-ORIGIN LEVEL: 0 DIFFERENT FILL-ORIGIN LEVEL: 0

PSCL2 TOTAL     ACCESS:     317456  HIT:     216749  MISS:     100707  HIT %:    68.2769  MISS %:    31.7231   MPKI: 0.503535
PSCL2 LOAD TRANSLATION ACCESS:     317456  HIT:     216749  MISS:     100707  HIT %:    68.2769  MISS %:    31.7231   MPKI: 0.503535
PSCL2 PREFETCH  REQUESTED:          0  ISSUED:          0  USEFUL:          0  USELESS:          0
PSCL2 USEFUL LOAD PREFETCHES:          0 PREFETCH ISSUED TO LOWER LEVEL:          0  ACCURACY: -nan
PSCL2 TIMELY PREFETCHES:          0 LATE PREFETCHES: 0 DROPPED PREFETCHES: 0
PSCL2 PREFETCHES SAME FILL-ORIGIN LEVEL: 0 DIFFERENT FILL-ORIGIN LEVEL: 0

LLC TOTAL     ACCESS:    3654478  HIT:    3311586  MISS:     342892  HIT %:    90.6172  MISS %:    9.38279   MPKI: 1.71446
LLC LOAD      ACCESS:    2268396  HIT:    2199875  MISS:      68521  HIT %:    96.9793  MISS %:    3.02068   MPKI: 0.342605
LLC RFO       ACCESS:      77481  HIT:      57969  MISS:      19512  HIT %:    74.8171  MISS %:    25.1829   MPKI: 0.09756
LLC PREFETCH  ACCESS:     696257  HIT:     455708  MISS:     240549  HIT %:    65.4511  MISS %:    34.5489   MPKI: 1.20274
AGUS PREFETCH L1 MISS: 0
LLC WRITEBACK ACCESS:     438562  HIT:     436850  MISS:       1712  HIT %:    99.6096  MISS %:   0.390367   MPKI: 0.00856
LLC LOAD TRANSLATION ACCESS:     173782  HIT:     161184  MISS:      12598  HIT %:    92.7507  MISS %:    7.24931   MPKI: 0.06299
LLC PREFETCH  REQUESTED:          0  ISSUED:          0  USEFUL:       4603  USELESS:     234704
LLC USEFUL LOAD PREFETCHES:       4603 PREFETCH ISSUED TO LOWER LEVEL:     240549  ACCURACY: 1.91354
LLC TIMELY PREFETCHES:       4603 LATE PREFETCHES: 0 DROPPED PREFETCHES: 0
LLC PREFETCHES SAME FILL-ORIGIN LEVEL: 0 DIFFERENT FILL-ORIGIN LEVEL: 0
LLC AVERAGE MISS LATENCY: 165.387 cycles
LLC RQ	ACCESS:    2519664	FORWARD:          0	MERGED:          0	TO_CACHE:    2519659
LLC WQ	ACCESS:     438562	FORWARD:         12	MERGED:          0	TO_CACHE:     438562
LLC PQ	ACCESS:     696264	FORWARD:          0	MERGED:          0	TO_CACHE:     696257

LLC Dense regions hint to LLC: 0

RAW hits: 2570729
Loads Generated: 44912886
Loads sent to L1D: 42342157
Stores Generated: 20103854
Stores sent to L1D: 20103875
Major fault: 0 Minor fault: 6257
Allocated PAGES: 6257
[Bingo] PHT Access: 1226732
[Bingo] PHT Hit PC+Addr: 603995
[Bingo] PHT Hit PC+Offs: 65596
[Bingo] PHT Miss: 557141
[Bingo] Prefetch PC+Addr: 0
[Bingo] Prefetch PC+Offs: 0
[Bingo] Useful PC+Addr: 0
[Bingo] Useful PC+Offs: 0
[Bingo] Useless PC+Addr: 0
[Bingo] Useless PC+Offs: 0
[Bingo] L1 Prefetch per Region: 4.0812
[Bingo] L2 Prefetch per Region: 0.128452
[Bingo] L3 Prefetch per Region: 0
[Bingo] No Prefetch per Region: 27.7904
[Bingo] Number of Voters Mean: 3.77209
[Bingo] Number of Voters SD: 4.62989
PHT read accesses: 9893656
PHT write accesses: 491515
AT read accesses: 21258655
AT write accesses: 21274719
FT read accesses: 13312290
FT write accesses: 1226732
PS read accesses: 1393427
PS write accesses: 669591
PHT tag read accesses: 20001751
PHT tag write accesses: 1095510
AT tag read accesses: 510911240
AT tag write accesses: 21750169
FT tag read accesses: 209839282
FT tag write accesses: 8182095
PS tag read accesses: 468814843
PS tag write accesses: 2061868

DRAM Statistics
 CHANNEL 0
 RQ ROW_BUFFER_HIT:     113141  ROW_BUFFER_MISS:     228039
 DBUS_CONGESTED:        181
 WQ ROW_BUFFER_HIT:      29663  ROW_BUFFER_MISS:     187471  FULL:          0

 AVG_CONGESTED_CYCLE: 4
 All warmup complete: 2
Channel 0 Bank busy for read cycles: 0
Channel 0 Bank busy for write cycles: 0
Channel 0
Rank 0
0banks busy for read cycles: 392557076
0banks busy for write cycles: 36344
1banks busy for read cycles: 7185534
1banks busy for write cycles: 3772448
2banks busy for read cycles: 2153879
2banks busy for write cycles: 1781187
3banks busy for read cycles: 1163480
3banks busy for write cycles: 1261816
4banks busy for read cycles: 864428
4banks busy for write cycles: 1056860
5banks busy for read cycles: 658122
5banks busy for write cycles: 967897
6banks busy for read cycles: 549395
6banks busy for write cycles: 922216
7banks busy for read cycles: 655001
7banks busy for write cycles: 948462
8banks busy for read cycles: 1282387
8banks busy for write cycles: 1015559

CPU 0 Branch Prediction Accuracy: 99.8614% MPKI: 0.24815 Average ROB Occupancy at Mispredict: 45.2419
Branch types
NOT_BRANCH: 164179739 82.0899%
BRANCH_DIRECT_JUMP: 1732440 0.86622%
BRANCH_INDIRECT: 9572696 4.78635%
BRANCH_CONDITIONAL: 18220803 9.1104%
BRANCH_DIRECT_CALL: 2461390 1.23069%
BRANCH_INDIRECT_CALL: 683684 0.341842%
BRANCH_RETURN: 3149073 1.57454%
BRANCH_OTHER: 0 0%

DRAM PAGES: 1048576
Allocated PAGES: 6257
