
*** ChampSim Multicore Out-of-Order Simulator ***

Warmup Instructions: 50000000
Simulation Instructions: 200000000
Number of CPUs: 1
LLC sets: 2048
LLC ways: 16
Off-chip DRAM Size: 4096 MB Channels: 1 Width: 64-bit Data Rate: 6400 MT/s
CPU 0 runs traces/spec2k17/srv_2.champsimtrace.xz
.xz
BTB has LRU replacement policy
ITLB has LRU replacement policy
DTLB has LRU replacement policy
STLB has LRU replacement policy
L1I has LRU replacement policy
Bingo PHT WAYS: 16 and PHT_SIZE: 16384
L1D has LRU replacement policy
Initialize SRRIP state for L2C
Initialize DRRIP state for LLC
Heartbeat CPU 0 instructions: 10000002 cycles: 2769515 heartbeat IPC: 3.61074 cumulative IPC: 3.61074 (Simulation time: 0 hr 0 min 22 sec) 
Heartbeat CPU 0 instructions: 20000000 cycles: 5531137 heartbeat IPC: 3.62106 cumulative IPC: 3.61589 (Simulation time: 0 hr 0 min 45 sec) 
Heartbeat CPU 0 instructions: 30000001 cycles: 8295693 heartbeat IPC: 3.61722 cumulative IPC: 3.61633 (Simulation time: 0 hr 1 min 8 sec) 
*** Reached end of trace for Core: 0 Repeating trace: traces/spec2k17/srv_2.champsimtrace.xz
Heartbeat CPU 0 instructions: 40000000 cycles: 11058770 heartbeat IPC: 3.61915 cumulative IPC: 3.61704 (Simulation time: 0 hr 1 min 30 sec) 
Heartbeat CPU 0 instructions: 50000000 cycles: 13818958 heartbeat IPC: 3.62294 cumulative IPC: 3.61822 (Simulation time: 0 hr 1 min 53 sec) 

Warmup complete CPU 0 instructions: 50000004 cycles: 13818959 (Simulation time: 0 hr 1 min 53 sec) 

Heartbeat CPU 0 instructions: 60000000 cycles: 35759933 heartbeat IPC: 0.455768 cumulative IPC: 0.455768 (Simulation time: 0 hr 2 min 27 sec) 
*** Reached end of trace for Core: 0 Repeating trace: traces/spec2k17/srv_2.champsimtrace.xz
Heartbeat CPU 0 instructions: 70000000 cycles: 57440869 heartbeat IPC: 0.461235 cumulative IPC: 0.458485 (Simulation time: 0 hr 3 min 2 sec) 
Heartbeat CPU 0 instructions: 80000001 cycles: 78516849 heartbeat IPC: 0.474474 cumulative IPC: 0.463694 (Simulation time: 0 hr 3 min 43 sec) 
Heartbeat CPU 0 instructions: 90000000 cycles: 100375131 heartbeat IPC: 0.457492 cumulative IPC: 0.462128 (Simulation time: 0 hr 4 min 38 sec) 
*** Reached end of trace for Core: 0 Repeating trace: traces/spec2k17/srv_2.champsimtrace.xz
Heartbeat CPU 0 instructions: 100000000 cycles: 121928449 heartbeat IPC: 0.463966 cumulative IPC: 0.462494 (Simulation time: 0 hr 5 min 32 sec) 
Heartbeat CPU 0 instructions: 110000000 cycles: 143062174 heartbeat IPC: 0.473177 cumulative IPC: 0.464241 (Simulation time: 0 hr 6 min 12 sec) 
Heartbeat CPU 0 instructions: 120000001 cycles: 164442853 heartbeat IPC: 0.467712 cumulative IPC: 0.464734 (Simulation time: 0 hr 6 min 46 sec) 
*** Reached end of trace for Core: 0 Repeating trace: traces/spec2k17/srv_2.champsimtrace.xz
Heartbeat CPU 0 instructions: 130000001 cycles: 186583492 heartbeat IPC: 0.451658 cumulative IPC: 0.463058 (Simulation time: 0 hr 7 min 20 sec) 
Heartbeat CPU 0 instructions: 140000000 cycles: 207652080 heartbeat IPC: 0.47464 cumulative IPC: 0.464317 (Simulation time: 0 hr 7 min 54 sec) 
Heartbeat CPU 0 instructions: 150000001 cycles: 229134091 heartbeat IPC: 0.465506 cumulative IPC: 0.464436 (Simulation time: 0 hr 8 min 28 sec) 
*** Reached end of trace for Core: 0 Repeating trace: traces/spec2k17/srv_2.champsimtrace.xz
Heartbeat CPU 0 instructions: 160000002 cycles: 250921213 heartbeat IPC: 0.458987 cumulative IPC: 0.463935 (Simulation time: 0 hr 9 min 2 sec) 
Heartbeat CPU 0 instructions: 170000001 cycles: 272235534 heartbeat IPC: 0.469168 cumulative IPC: 0.464366 (Simulation time: 0 hr 9 min 37 sec) 
Heartbeat CPU 0 instructions: 180000000 cycles: 293672618 heartbeat IPC: 0.466481 cumulative IPC: 0.464528 (Simulation time: 0 hr 10 min 11 sec) 
*** Reached end of trace for Core: 0 Repeating trace: traces/spec2k17/srv_2.champsimtrace.xz
Heartbeat CPU 0 instructions: 190000000 cycles: 315524759 heartbeat IPC: 0.457621 cumulative IPC: 0.464028 (Simulation time: 0 hr 10 min 45 sec) 
Heartbeat CPU 0 instructions: 200000000 cycles: 336769997 heartbeat IPC: 0.470694 cumulative IPC: 0.464467 (Simulation time: 0 hr 11 min 20 sec) 
Heartbeat CPU 0 instructions: 210000000 cycles: 357780999 heartbeat IPC: 0.475941 cumulative IPC: 0.465168 (Simulation time: 0 hr 11 min 54 sec) 
*** Reached end of trace for Core: 0 Repeating trace: traces/spec2k17/srv_2.champsimtrace.xz
Heartbeat CPU 0 instructions: 220000000 cycles: 379879689 heartbeat IPC: 0.452516 cumulative IPC: 0.464404 (Simulation time: 0 hr 12 min 29 sec) 
Heartbeat CPU 0 instructions: 230000002 cycles: 401274528 heartbeat IPC: 0.467403 cumulative IPC: 0.464569 (Simulation time: 0 hr 13 min 3 sec) 
Heartbeat CPU 0 instructions: 240000002 cycles: 422322732 heartbeat IPC: 0.4751 cumulative IPC: 0.465112 (Simulation time: 0 hr 13 min 37 sec) 
*** Reached end of trace for Core: 0 Repeating trace: traces/spec2k17/srv_2.champsimtrace.xz
Heartbeat CPU 0 instructions: 250000002 cycles: 444342458 heartbeat IPC: 0.454138 cumulative IPC: 0.464551 (Simulation time: 0 hr 14 min 12 sec) 
Finished CPU 0 instructions: 200000002 cycles: 430523500 cumulative IPC: 0.464551 (Simulation time: 0 hr 14 min 12 sec) 

ChampSim completed all CPUs

Region of Interest Statistics

CPU 0 cumulative IPC: 0.464551 instructions: 200000002 cycles: 430523500
ITLB TOTAL     ACCESS:   31279583  HIT:   30500838  MISS:     778745  HIT %:    97.5104  MISS %:    2.48963   MPKI: 3.89372
ITLB LOAD TRANSLATION ACCESS:   31279583  HIT:   30500838  MISS:     778745  HIT %:    97.5104  MISS %:    2.48963   MPKI: 3.89372
ITLB PREFETCH  REQUESTED:          0  ISSUED:          0  USEFUL:          0  USELESS:          0
ITLB USEFUL LOAD PREFETCHES:          0 PREFETCH ISSUED TO LOWER LEVEL:          0  ACCURACY: -nan
ITLB TIMELY PREFETCHES:          0 LATE PREFETCHES: 0 DROPPED PREFETCHES: 0
ITLB PREFETCHES SAME FILL-ORIGIN LEVEL: 0 DIFFERENT FILL-ORIGIN LEVEL: 0
ITLB AVERAGE MISS LATENCY: 13.7135 cycles
ITLB RQ	ACCESS:   38364655	FORWARD:          0	MERGED:    6890498	TO_CACHE:   31474157

DTLB TOTAL     ACCESS:   37464414  HIT:   34869430  MISS:    2594984  HIT %:    93.0735  MISS %:    6.92653   MPKI: 12.9749
DTLB LOAD TRANSLATION ACCESS:   37464414  HIT:   34869430  MISS:    2594984  HIT %:    93.0735  MISS %:    6.92653   MPKI: 12.9749
DTLB PREFETCH  REQUESTED:          0  ISSUED:          0  USEFUL:          0  USELESS:          0
DTLB USEFUL LOAD PREFETCHES:          0 PREFETCH ISSUED TO LOWER LEVEL:          0  ACCURACY: -nan
DTLB TIMELY PREFETCHES:          0 LATE PREFETCHES: 0 DROPPED PREFETCHES: 0
DTLB PREFETCHES SAME FILL-ORIGIN LEVEL: 0 DIFFERENT FILL-ORIGIN LEVEL: 0
DTLB AVERAGE MISS LATENCY: 13.7552 cycles
DTLB RQ	ACCESS:   47831083	FORWARD:          0	MERGED:   10226569	TO_CACHE:   37604514

STLB TOTAL     ACCESS:    4073456  HIT:    3739518  MISS:     333938  HIT %:    91.8021  MISS %:     8.1979   MPKI: 1.66969
STLB LOAD TRANSLATION ACCESS:    3373729  HIT:    3039791  MISS:     333938  HIT %:    90.1018  MISS %:    9.89819   MPKI: 1.66969
STLB TRANSLATION FROM L1D PREFETCHER ACCESS:     699727  HIT:     699727  MISS:          0  HIT %:        100  MISS %:          0   MPKI: 0
STLB PREFETCH  REQUESTED:          0  ISSUED:          0  USEFUL:          0  USELESS:          0
STLB USEFUL LOAD PREFETCHES:          0 PREFETCH ISSUED TO LOWER LEVEL:          0  ACCURACY: -nan
STLB TIMELY PREFETCHES:          0 LATE PREFETCHES: 0 DROPPED PREFETCHES: 0
STLB PREFETCHES SAME FILL-ORIGIN LEVEL: 0 DIFFERENT FILL-ORIGIN LEVEL: 0
STLB AVERAGE MISS LATENCY: 47.7024 cycles
STLB RQ	ACCESS:    5491125	FORWARD:          0	MERGED:    1417669	TO_CACHE:    4073456

STLB Hit, L1D data hit: 0
STLB Hit, L2C data hit: 0
STLB Hit, LLC data hit: 0
STLB Hit, LLC data miss: 0
STLB STLB hints to L2: 0
L1D TOTAL     ACCESS:   49489227  HIT:   46652726  MISS:    2836501  HIT %:    94.2684  MISS %:    5.73155   MPKI: 14.1825
L1D LOAD      ACCESS:   27822528  HIT:   26654445  MISS:    1168083  HIT %:    95.8017  MISS %:    4.19834   MPKI: 5.84041
L1D RFO       ACCESS:   19757971  HIT:   19554996  MISS:     202975  HIT %:    98.9727  MISS %:    1.02731   MPKI: 1.01487
L1D PREFETCH  ACCESS:    1908728  HIT:     443285  MISS:    1465443  HIT %:    23.2241  MISS %:    76.7759   MPKI: 7.32721
AGUS PREFETCH L1 MISS: 0
L1D PREFETCH  REQUESTED:    4235282  ISSUED:    4235282  USEFUL:    1172383  USELESS:     293037
L1D USEFUL LOAD PREFETCHES:    1172383 PREFETCH ISSUED TO LOWER LEVEL:    1583253  ACCURACY: 74.049
L1D TIMELY PREFETCHES:    1172383 LATE PREFETCHES: 23054 DROPPED PREFETCHES: 0
L1D PREFETCHES SAME FILL-ORIGIN LEVEL: 1493939 DIFFERENT FILL-ORIGIN LEVEL: 89314
L1D AVERAGE MISS LATENCY: 2.30585e+06 cycles
L1D RQ	ACCESS:   42366427	FORWARD:          0	MERGED:   14241179	TO_CACHE:   27870082
L1D WQ	ACCESS:   20224318	FORWARD:     255656	MERGED:     263317	TO_CACHE:   19961001
L1D PQ	ACCESS:    2117886	FORWARD:          0	MERGED:          0	TO_CACHE:    2117396

L1D UNIQUE REGIONS ACCESSED: 0
L1D REGIONS CONFLICTS: 0
L1D Cross Page Prefetch Requests: 0
L1D Same Page Prefetch Requests: 2598882
L1D ROI Sum of L1D PQ occupancy: 30142216
L1D PREFETCHES PUSHED FROM L2C: 0
L1I TOTAL     ACCESS:   36555066  HIT:   31406778  MISS:    5148288  HIT %:    85.9163  MISS %:    14.0837   MPKI: 25.7414
L1I LOAD      ACCESS:   36555066  HIT:   31406778  MISS:    5148288  HIT %:    85.9163  MISS %:    14.0837   MPKI: 25.7414
L1I PREFETCH  REQUESTED:          0  ISSUED:          0  USEFUL:          0  USELESS:          0
L1I USEFUL LOAD PREFETCHES:          0 PREFETCH ISSUED TO LOWER LEVEL:          0  ACCURACY: -nan
L1I TIMELY PREFETCHES:          0 LATE PREFETCHES: 0 DROPPED PREFETCHES: 0
L1I PREFETCHES SAME FILL-ORIGIN LEVEL: 0 DIFFERENT FILL-ORIGIN LEVEL: 0
L1I AVERAGE MISS LATENCY: 25.7469 cycles
L1I RQ	ACCESS:   57165035	FORWARD:          0	MERGED:   18800380	TO_CACHE:   38364655

BTB TOTAL     ACCESS:   22017287  HIT:   17637201  MISS:    4380086  HIT %:    80.1062  MISS %:    19.8938   MPKI: 21.9004
BTB BRANCH_DIRECT_JUMP	ACCESS:    1737856  HIT:    1493758  MISS:     244098
BTB BRANCH_INDIRECT	ACCESS:    9415712  HIT:    7279334  MISS:    2136378
BTB BRANCH_CONDITIONAL	ACCESS:    4567442  HIT:    4164173  MISS:     403269
BTB BRANCH_DIRECT_CALL	ACCESS:    2474422  HIT:    1994046  MISS:     480376
BTB BRANCH_INDIRECT_CALL	ACCESS:     673221  HIT:     632799  MISS:      40422
BTB BRANCH_RETURN	ACCESS:    3148634  HIT:    2073091  MISS:    1075543
BTB BRANCH_OTHER ACCESS:          0  HIT:          0  MISS:          0

L2C TOTAL     ACCESS:    9551675  HIT:    6255958  MISS:    3295717  HIT %:    65.4959  MISS %:    34.5041   MPKI: 16.4786
L2C LOAD      ACCESS:    6293289  HIT:    3974562  MISS:    2318727  HIT %:    63.1556  MISS %:    36.8444   MPKI: 11.5936
L2C DATA LOAD MPKI: 2.21972
L2C INSTRUCTION LOAD MPKI: 9.37391
L2C RFO       ACCESS:     197528  HIT:     122392  MISS:      75136  HIT %:    61.9618  MISS %:    38.0382   MPKI: 0.37568
L2C PREFETCH  ACCESS:    1582273  HIT:     912004  MISS:     670269  HIT %:    57.6389  MISS %:    42.3611   MPKI: 3.35134
AGUS PREFETCH L1 MISS: 0
L2C DATA PREFETCH MPKI: 3.35134
L2C INSTRUCTION PREFETCH MPKI: 0
L2C WRITEBACK ACCESS:    1037728  HIT:     989946  MISS:      47782  HIT %:    95.3955  MISS %:    4.60448   MPKI: 0.23891
L2C LOAD TRANSLATION ACCESS:     440857  HIT:     257054  MISS:     183803  HIT %:    58.3078  MISS %:    41.6922   MPKI: 0.919015
L2C PREFETCH  REQUESTED:          0  ISSUED:          0  USEFUL:      74066  USELESS:     596192
L2C USEFUL LOAD PREFETCHES:      74066 PREFETCH ISSUED TO LOWER LEVEL:     671202  ACCURACY: 11.0348
L2C TIMELY PREFETCHES:      74066 LATE PREFETCHES: 933 DROPPED PREFETCHES: 0
L2C PREFETCHES SAME FILL-ORIGIN LEVEL: 67018 DIFFERENT FILL-ORIGIN LEVEL: 0
L2C AVERAGE MISS LATENCY: 47.2042 cycles
L2C RQ	ACCESS:    6931708	FORWARD:          0	MERGED:          0	TO_CACHE:    6931675
L2C WQ	ACCESS:    1037729	FORWARD:         80	MERGED:          0	TO_CACHE:    1037729
L2C PQ	ACCESS:    1583253	FORWARD:          0	MERGED:          0	TO_CACHE:    1583206

L2C Instructions Evicting Data 687143
L2C Translations Evicting Data 73828
L2C Data Evicting Data 458332
L2C Instructions Evicting Instructions 1089291
L2C Translations Evicting Instructions 98571
L2C Data Evicting Instructions 659087
L2C Instructions Evicting Translations 98348
L2C Translations Evicting Translations 11404
L2C Data Evicting Translations 71931
L2C Dense regions hint from L2: 0
PSCL5 TOTAL     ACCESS:     333938  HIT:     333938  MISS:          0  HIT %:        100  MISS %:          0   MPKI: 0
PSCL5 LOAD TRANSLATION ACCESS:     333938  HIT:     333938  MISS:          0  HIT %:        100  MISS %:          0   MPKI: 0
PSCL5 PREFETCH  REQUESTED:          0  ISSUED:          0  USEFUL:          0  USELESS:          0
PSCL5 USEFUL LOAD PREFETCHES:          0 PREFETCH ISSUED TO LOWER LEVEL:          0  ACCURACY: -nan
PSCL5 TIMELY PREFETCHES:          0 LATE PREFETCHES: 0 DROPPED PREFETCHES: 0
PSCL5 PREFETCHES SAME FILL-ORIGIN LEVEL: 0 DIFFERENT FILL-ORIGIN LEVEL: 0

PSCL4 TOTAL     ACCESS:     315407  HIT:     315006  MISS:        401  HIT %:    99.8729  MISS %:   0.127137   MPKI: 0.002005
PSCL4 LOAD TRANSLATION ACCESS:     315407  HIT:     315006  MISS:        401  HIT %:    99.8729  MISS %:   0.127137   MPKI: 0.002005
PSCL4 PREFETCH  REQUESTED:          0  ISSUED:          0  USEFUL:          0  USELESS:          0
PSCL4 USEFUL LOAD PREFETCHES:          0 PREFETCH ISSUED TO LOWER LEVEL:          0  ACCURACY: -nan
PSCL4 TIMELY PREFETCHES:          0 LATE PREFETCHES: 0 DROPPED PREFETCHES: 0
PSCL4 PREFETCHES SAME FILL-ORIGIN LEVEL: 0 DIFFERENT FILL-ORIGIN LEVEL: 0

PSCL3 TOTAL     ACCESS:     333063  HIT:     332259  MISS:        804  HIT %:    99.7586  MISS %:   0.241396   MPKI: 0.00402
PSCL3 LOAD TRANSLATION ACCESS:     333063  HIT:     332259  MISS:        804  HIT %:    99.7586  MISS %:   0.241396   MPKI: 0.00402
PSCL3 PREFETCH  REQUESTED:          0  ISSUED:          0  USEFUL:          0  USELESS:          0
PSCL3 USEFUL LOAD PREFETCHES:          0 PREFETCH ISSUED TO LOWER LEVEL:          0  ACCURACY: -nan
PSCL3 TIMELY PREFETCHES:          0 LATE PREFETCHES: 0 DROPPED PREFETCHES: 0
PSCL3 PREFETCHES SAME FILL-ORIGIN LEVEL: 0 DIFFERENT FILL-ORIGIN LEVEL: 0

PSCL2 TOTAL     ACCESS:     333938  HIT:     228224  MISS:     105714  HIT %:    68.3432  MISS %:    31.6568   MPKI: 0.52857
PSCL2 LOAD TRANSLATION ACCESS:     333938  HIT:     228224  MISS:     105714  HIT %:    68.3432  MISS %:    31.6568   MPKI: 0.52857
PSCL2 PREFETCH  REQUESTED:          0  ISSUED:          0  USEFUL:          0  USELESS:          0
PSCL2 USEFUL LOAD PREFETCHES:          0 PREFETCH ISSUED TO LOWER LEVEL:          0  ACCURACY: -nan
PSCL2 TIMELY PREFETCHES:          0 LATE PREFETCHES: 0 DROPPED PREFETCHES: 0
PSCL2 PREFETCHES SAME FILL-ORIGIN LEVEL: 0 DIFFERENT FILL-ORIGIN LEVEL: 0

LLC TOTAL     ACCESS:    3667879  HIT:    3306772  MISS:     361107  HIT %:    90.1549  MISS %:    9.84512   MPKI: 1.80553
LLC LOAD      ACCESS:    2318046  HIT:    2230298  MISS:      87748  HIT %:    96.2146  MISS %:    3.78543   MPKI: 0.43874
LLC RFO       ACCESS:      74884  HIT:      57391  MISS:      17493  HIT %:    76.6399  MISS %:    23.3601   MPKI: 0.087465
LLC PREFETCH  ACCESS:     671202  HIT:     430966  MISS:     240236  HIT %:    64.2081  MISS %:    35.7919   MPKI: 1.20118
AGUS PREFETCH L1 MISS: 0
LLC WRITEBACK ACCESS:     419944  HIT:     417875  MISS:       2069  HIT %:    99.5073  MISS %:   0.492685   MPKI: 0.010345
LLC LOAD TRANSLATION ACCESS:     183803  HIT:     170242  MISS:      13561  HIT %:     92.622  MISS %:    7.37801   MPKI: 0.067805
LLC PREFETCH  REQUESTED:          0  ISSUED:          0  USEFUL:       3867  USELESS:     238039
LLC USEFUL LOAD PREFETCHES:       3867 PREFETCH ISSUED TO LOWER LEVEL:     240236  ACCURACY: 1.60967
LLC TIMELY PREFETCHES:       3867 LATE PREFETCHES: 0 DROPPED PREFETCHES: 0
LLC PREFETCHES SAME FILL-ORIGIN LEVEL: 0 DIFFERENT FILL-ORIGIN LEVEL: 0
LLC AVERAGE MISS LATENCY: 161.326 cycles
LLC RQ	ACCESS:    2576734	FORWARD:          0	MERGED:          0	TO_CACHE:    2576734
LLC WQ	ACCESS:     419945	FORWARD:          0	MERGED:          0	TO_CACHE:     419945
LLC PQ	ACCESS:     671202	FORWARD:          0	MERGED:          0	TO_CACHE:     671202

LLC Dense regions hint to LLC: 0

RAW hits: 2506762
Loads Generated: 44873189
Loads sent to L1D: 42366427
Stores Generated: 20224314
Stores sent to L1D: 20224318
Major fault: 0 Minor fault: 6527
Allocated PAGES: 6527
[Bingo] PHT Access: 1233474
[Bingo] PHT Hit PC+Addr: 603360
[Bingo] PHT Hit PC+Offs: 70188
[Bingo] PHT Miss: 559926
[Bingo] Prefetch PC+Addr: 0
[Bingo] Prefetch PC+Offs: 0
[Bingo] Useful PC+Addr: 0
[Bingo] Useful PC+Offs: 0
[Bingo] Useless PC+Addr: 0
[Bingo] Useless PC+Offs: 0
[Bingo] L1 Prefetch per Region: 4.01846
[Bingo] L2 Prefetch per Region: 0.152317
[Bingo] L3 Prefetch per Region: 0
[Bingo] No Prefetch per Region: 27.8292
[Bingo] Number of Voters Mean: 4.44874
[Bingo] Number of Voters SD: 5.26748
PHT read accesses: 10146871
PHT write accesses: 486370
AT read accesses: 21244373
AT write accesses: 21253055
FT read accesses: 13305290
FT write accesses: 1233474
PS read accesses: 1397293
PS write accesses: 673548
PHT tag read accesses: 20297149
PHT tag write accesses: 1089730
AT tag read accesses: 510038479
AT tag write accesses: 21730766
FT tag read accesses: 209615601
FT tag write accesses: 8182425
PS tag read accesses: 468659321
PS tag write accesses: 2069780

DRAM Statistics
 CHANNEL 0
 RQ ROW_BUFFER_HIT:     120270  ROW_BUFFER_MISS:     238766
 DBUS_CONGESTED:        212
 WQ ROW_BUFFER_HIT:      35533  ROW_BUFFER_MISS:     184707  FULL:          0

 AVG_CONGESTED_CYCLE: 3
 All warmup complete: 2
Channel 0 Bank busy for read cycles: 0
Channel 0 Bank busy for write cycles: 0
Channel 0
Rank 0
0banks busy for read cycles: 399897216
0banks busy for write cycles: 42014
1banks busy for read cycles: 9508361
1banks busy for write cycles: 4628810
2banks busy for read cycles: 2560156
2banks busy for write cycles: 2416758
3banks busy for read cycles: 1236082
3banks busy for write cycles: 1653811
4banks busy for read cycles: 907787
4banks busy for write cycles: 1286916
5banks busy for read cycles: 606498
5banks busy for write cycles: 1017384
6banks busy for read cycles: 509171
6banks busy for write cycles: 888456
7banks busy for read cycles: 576860
7banks busy for write cycles: 815471
8banks busy for read cycles: 1217067
8banks busy for write cycles: 754683

CPU 0 Branch Prediction Accuracy: 99.8118% MPKI: 0.33607 Average ROB Occupancy at Mispredict: 35.186
Branch types
NOT_BRANCH: 164293655 82.1468%
BRANCH_DIRECT_JUMP: 1737856 0.868928%
BRANCH_INDIRECT: 9415712 4.70786%
BRANCH_CONDITIONAL: 18256214 9.12811%
BRANCH_DIRECT_CALL: 2474422 1.23721%
BRANCH_INDIRECT_CALL: 673221 0.33661%
BRANCH_RETURN: 3148634 1.57432%
BRANCH_OTHER: 0 0%

DRAM PAGES: 1048576
Allocated PAGES: 6527
