
*** ChampSim Multicore Out-of-Order Simulator ***

Warmup Instructions: 50000000
Simulation Instructions: 200000000
Number of CPUs: 1
LLC sets: 2048
LLC ways: 16
Off-chip DRAM Size: 4096 MB Channels: 1 Width: 64-bit Data Rate: 6400 MT/s
CPU 0 runs traces/spec2k17/srv_66.champsimtrace.xz
.xz
BTB has LRU replacement policy
ITLB has LRU replacement policy
DTLB has LRU replacement policy
STLB has LRU replacement policy
L1I has LRU replacement policy
Bingo PHT WAYS: 16 and PHT_SIZE: 16384
L1D has LRU replacement policy
Initialize SRRIP state for L2C
Initialize DRRIP state for LLC
Heartbeat CPU 0 instructions: 10000000 cycles: 2770024 heartbeat IPC: 3.61008 cumulative IPC: 3.61008 (Simulation time: 0 hr 0 min 22 sec) 
Heartbeat CPU 0 instructions: 20000000 cycles: 5529937 heartbeat IPC: 3.6233 cumulative IPC: 3.61668 (Simulation time: 0 hr 0 min 45 sec) 
Heartbeat CPU 0 instructions: 30000002 cycles: 8291741 heartbeat IPC: 3.62082 cumulative IPC: 3.61806 (Simulation time: 0 hr 1 min 17 sec) 
*** Reached end of trace for Core: 0 Repeating trace: traces/spec2k17/srv_66.champsimtrace.xz
Heartbeat CPU 0 instructions: 40000003 cycles: 11055216 heartbeat IPC: 3.61863 cumulative IPC: 3.6182 (Simulation time: 0 hr 1 min 51 sec) 
Heartbeat CPU 0 instructions: 50000001 cycles: 13815949 heartbeat IPC: 3.62223 cumulative IPC: 3.61901 (Simulation time: 0 hr 2 min 24 sec) 

Warmup complete CPU 0 instructions: 50000001 cycles: 13815949 (Simulation time: 0 hr 2 min 24 sec) 

Heartbeat CPU 0 instructions: 60000000 cycles: 34695473 heartbeat IPC: 0.478938 cumulative IPC: 0.478938 (Simulation time: 0 hr 3 min 19 sec) 
*** Reached end of trace for Core: 0 Repeating trace: traces/spec2k17/srv_66.champsimtrace.xz
Heartbeat CPU 0 instructions: 70000001 cycles: 56338357 heartbeat IPC: 0.462046 cumulative IPC: 0.47034 (Simulation time: 0 hr 4 min 1 sec) 
Heartbeat CPU 0 instructions: 80000001 cycles: 77261886 heartbeat IPC: 0.477931 cumulative IPC: 0.472844 (Simulation time: 0 hr 4 min 55 sec) 
Heartbeat CPU 0 instructions: 90000000 cycles: 98051153 heartbeat IPC: 0.481017 cumulative IPC: 0.474861 (Simulation time: 0 hr 5 min 50 sec) 
*** Reached end of trace for Core: 0 Repeating trace: traces/spec2k17/srv_66.champsimtrace.xz
Heartbeat CPU 0 instructions: 100000001 cycles: 119656273 heartbeat IPC: 0.462853 cumulative IPC: 0.47241 (Simulation time: 0 hr 6 min 31 sec) 
Heartbeat CPU 0 instructions: 110000000 cycles: 140374121 heartbeat IPC: 0.482676 cumulative IPC: 0.47409 (Simulation time: 0 hr 7 min 4 sec) 
Heartbeat CPU 0 instructions: 120000002 cycles: 161335332 heartbeat IPC: 0.477072 cumulative IPC: 0.474514 (Simulation time: 0 hr 7 min 37 sec) 
*** Reached end of trace for Core: 0 Repeating trace: traces/spec2k17/srv_66.champsimtrace.xz
Heartbeat CPU 0 instructions: 130000003 cycles: 182798627 heartbeat IPC: 0.465912 cumulative IPC: 0.473421 (Simulation time: 0 hr 8 min 10 sec) 
Heartbeat CPU 0 instructions: 140000002 cycles: 203588317 heartbeat IPC: 0.481008 cumulative IPC: 0.474252 (Simulation time: 0 hr 8 min 43 sec) 
Heartbeat CPU 0 instructions: 150000003 cycles: 224636147 heartbeat IPC: 0.475108 cumulative IPC: 0.474338 (Simulation time: 0 hr 9 min 15 sec) 
*** Reached end of trace for Core: 0 Repeating trace: traces/spec2k17/srv_66.champsimtrace.xz
Heartbeat CPU 0 instructions: 160000002 cycles: 245803152 heartbeat IPC: 0.472433 cumulative IPC: 0.474164 (Simulation time: 0 hr 9 min 47 sec) 
Heartbeat CPU 0 instructions: 170000000 cycles: 266777455 heartbeat IPC: 0.476774 cumulative IPC: 0.47438 (Simulation time: 0 hr 10 min 20 sec) 
Heartbeat CPU 0 instructions: 180000002 cycles: 287835523 heartbeat IPC: 0.474877 cumulative IPC: 0.474419 (Simulation time: 0 hr 10 min 52 sec) 
*** Reached end of trace for Core: 0 Repeating trace: traces/spec2k17/srv_66.champsimtrace.xz
Heartbeat CPU 0 instructions: 190000003 cycles: 308958151 heartbeat IPC: 0.473426 cumulative IPC: 0.474348 (Simulation time: 0 hr 11 min 24 sec) 
Heartbeat CPU 0 instructions: 200000002 cycles: 329856111 heartbeat IPC: 0.478516 cumulative IPC: 0.474623 (Simulation time: 0 hr 11 min 56 sec) 
Heartbeat CPU 0 instructions: 210000003 cycles: 351026147 heartbeat IPC: 0.472366 cumulative IPC: 0.474481 (Simulation time: 0 hr 12 min 28 sec) 
*** Reached end of trace for Core: 0 Repeating trace: traces/spec2k17/srv_66.champsimtrace.xz
Heartbeat CPU 0 instructions: 220000000 cycles: 371997020 heartbeat IPC: 0.476852 cumulative IPC: 0.47462 (Simulation time: 0 hr 13 min 0 sec) 
Heartbeat CPU 0 instructions: 230000002 cycles: 392989763 heartbeat IPC: 0.476355 cumulative IPC: 0.474716 (Simulation time: 0 hr 13 min 31 sec) 
Heartbeat CPU 0 instructions: 240000001 cycles: 414087517 heartbeat IPC: 0.473984 cumulative IPC: 0.474678 (Simulation time: 0 hr 14 min 2 sec) 
*** Reached end of trace for Core: 0 Repeating trace: traces/spec2k17/srv_66.champsimtrace.xz
Heartbeat CPU 0 instructions: 250000003 cycles: 434934804 heartbeat IPC: 0.479679 cumulative IPC: 0.474925 (Simulation time: 0 hr 14 min 31 sec) 
Finished CPU 0 instructions: 200000002 cycles: 421118855 cumulative IPC: 0.474925 (Simulation time: 0 hr 14 min 31 sec) 

ChampSim completed all CPUs

Region of Interest Statistics

CPU 0 cumulative IPC: 0.474925 instructions: 200000002 cycles: 421118855
ITLB TOTAL     ACCESS:   31539884  HIT:   30746122  MISS:     793762  HIT %:    97.4833  MISS %:    2.51669   MPKI: 3.96881
ITLB LOAD TRANSLATION ACCESS:   31539884  HIT:   30746122  MISS:     793762  HIT %:    97.4833  MISS %:    2.51669   MPKI: 3.96881
ITLB PREFETCH  REQUESTED:          0  ISSUED:          0  USEFUL:          0  USELESS:          0
ITLB USEFUL LOAD PREFETCHES:          0 PREFETCH ISSUED TO LOWER LEVEL:          0  ACCURACY: -nan
ITLB TIMELY PREFETCHES:          0 LATE PREFETCHES: 0 DROPPED PREFETCHES: 0
ITLB PREFETCHES SAME FILL-ORIGIN LEVEL: 0 DIFFERENT FILL-ORIGIN LEVEL: 0
ITLB AVERAGE MISS LATENCY: 14.0189 cycles
ITLB RQ	ACCESS:   38317376	FORWARD:          0	MERGED:    6583300	TO_CACHE:   31734076

DTLB TOTAL     ACCESS:   37409958  HIT:   34840588  MISS:    2569370  HIT %:    93.1319  MISS %:    6.86814   MPKI: 12.8468
DTLB LOAD TRANSLATION ACCESS:   37409958  HIT:   34840588  MISS:    2569370  HIT %:    93.1319  MISS %:    6.86814   MPKI: 12.8468
DTLB PREFETCH  REQUESTED:          0  ISSUED:          0  USEFUL:          0  USELESS:          0
DTLB USEFUL LOAD PREFETCHES:          0 PREFETCH ISSUED TO LOWER LEVEL:          0  ACCURACY: -nan
DTLB TIMELY PREFETCHES:          0 LATE PREFETCHES: 0 DROPPED PREFETCHES: 0
DTLB PREFETCHES SAME FILL-ORIGIN LEVEL: 0 DIFFERENT FILL-ORIGIN LEVEL: 0
DTLB AVERAGE MISS LATENCY: 13.7798 cycles
DTLB RQ	ACCESS:   47817699	FORWARD:          0	MERGED:   10260863	TO_CACHE:   37556836

STLB TOTAL     ACCESS:    4058585  HIT:    3715964  MISS:     342621  HIT %:    91.5581  MISS %:    8.44188   MPKI: 1.7131
STLB LOAD TRANSLATION ACCESS:    3363132  HIT:    3020511  MISS:     342621  HIT %:    89.8124  MISS %:    10.1876   MPKI: 1.7131
STLB TRANSLATION FROM L1D PREFETCHER ACCESS:     695453  HIT:     695453  MISS:          0  HIT %:        100  MISS %:          0   MPKI: 0
STLB PREFETCH  REQUESTED:          0  ISSUED:          0  USEFUL:          0  USELESS:          0
STLB USEFUL LOAD PREFETCHES:          0 PREFETCH ISSUED TO LOWER LEVEL:          0  ACCURACY: -nan
STLB TIMELY PREFETCHES:          0 LATE PREFETCHES: 0 DROPPED PREFETCHES: 0
STLB PREFETCHES SAME FILL-ORIGIN LEVEL: 0 DIFFERENT FILL-ORIGIN LEVEL: 0
STLB AVERAGE MISS LATENCY: 47.2197 cycles
STLB RQ	ACCESS:    5565279	FORWARD:          0	MERGED:    1506694	TO_CACHE:    4058585

STLB Hit, L1D data hit: 0
STLB Hit, L2C data hit: 0
STLB Hit, LLC data hit: 0
STLB Hit, LLC data miss: 0
STLB STLB hints to L2: 0
L1D TOTAL     ACCESS:   49519846  HIT:   46628803  MISS:    2891043  HIT %:    94.1618  MISS %:    5.83815   MPKI: 14.4552
L1D LOAD      ACCESS:   27761293  HIT:   26595609  MISS:    1165684  HIT %:     95.801  MISS %:    4.19895   MPKI: 5.82842
L1D RFO       ACCESS:   19802424  HIT:   19603844  MISS:     198580  HIT %:    98.9972  MISS %:    1.00281   MPKI: 0.9929
L1D PREFETCH  ACCESS:    1956129  HIT:     429350  MISS:    1526779  HIT %:     21.949  MISS %:     78.051   MPKI: 7.63389
AGUS PREFETCH L1 MISS: 0
L1D PREFETCH  REQUESTED:    4404880  ISSUED:    4404880  USEFUL:    1165071  USELESS:     361717
L1D USEFUL LOAD PREFETCHES:    1165071 PREFETCH ISSUED TO LOWER LEVEL:    1681849  ACCURACY: 69.2732
L1D TIMELY PREFETCHES:    1165071 LATE PREFETCHES: 28488 DROPPED PREFETCHES: 0
L1D PREFETCHES SAME FILL-ORIGIN LEVEL: 1560825 DIFFERENT FILL-ORIGIN LEVEL: 121024
L1D AVERAGE MISS LATENCY: 2.65543e+06 cycles
L1D RQ	ACCESS:   42352698	FORWARD:          0	MERGED:   14292389	TO_CACHE:   27804944
L1D WQ	ACCESS:   20281804	FORWARD:     255916	MERGED:     269049	TO_CACHE:   20012755
L1D PQ	ACCESS:    2202733	FORWARD:          0	MERGED:         35	TO_CACHE:    2202147

L1D UNIQUE REGIONS ACCESSED: 0
L1D REGIONS CONFLICTS: 0
L1D Cross Page Prefetch Requests: 0
L1D Same Page Prefetch Requests: 2697796
L1D ROI Sum of L1D PQ occupancy: 31531029
L1D PREFETCHES PUSHED FROM L2C: 0
L1I TOTAL     ACCESS:   36534829  HIT:   31496364  MISS:    5038465  HIT %:    86.2091  MISS %:    13.7909   MPKI: 25.1923
L1I LOAD      ACCESS:   36534829  HIT:   31496364  MISS:    5038465  HIT %:    86.2091  MISS %:    13.7909   MPKI: 25.1923
L1I PREFETCH  REQUESTED:          0  ISSUED:          0  USEFUL:          0  USELESS:          0
L1I USEFUL LOAD PREFETCHES:          0 PREFETCH ISSUED TO LOWER LEVEL:          0  ACCURACY: -nan
L1I TIMELY PREFETCHES:          0 LATE PREFETCHES: 0 DROPPED PREFETCHES: 0
L1I PREFETCHES SAME FILL-ORIGIN LEVEL: 0 DIFFERENT FILL-ORIGIN LEVEL: 0
L1I AVERAGE MISS LATENCY: 25.5819 cycles
L1I RQ	ACCESS:   57195929	FORWARD:          0	MERGED:   18878553	TO_CACHE:   38317376

BTB TOTAL     ACCESS:   22223395  HIT:   18065540  MISS:    4157855  HIT %:    81.2906  MISS %:    18.7094   MPKI: 20.7893
BTB BRANCH_DIRECT_JUMP	ACCESS:    1718257  HIT:    1473997  MISS:     244260
BTB BRANCH_INDIRECT	ACCESS:    9436324  HIT:    7433911  MISS:    2002413
BTB BRANCH_CONDITIONAL	ACCESS:    4754690  HIT:    4374903  MISS:     379787
BTB BRANCH_DIRECT_CALL	ACCESS:    2480174  HIT:    2032253  MISS:     447921
BTB BRANCH_INDIRECT_CALL	ACCESS:     676469  HIT:     636836  MISS:      39633
BTB BRANCH_RETURN	ACCESS:    3157481  HIT:    2113640  MISS:    1043841
BTB BRANCH_OTHER ACCESS:          0  HIT:          0  MISS:          0

L2C TOTAL     ACCESS:    9539630  HIT:    6263465  MISS:    3276165  HIT %:    65.6573  MISS %:    34.3427   MPKI: 16.3808
L2C LOAD      ACCESS:    6175625  HIT:    3904876  MISS:    2270749  HIT %:    63.2305  MISS %:    36.7695   MPKI: 11.3537
L2C DATA LOAD MPKI: 2.17971
L2C INSTRUCTION LOAD MPKI: 9.17403
L2C RFO       ACCESS:     193022  HIT:     116363  MISS:      76659  HIT %:    60.2848  MISS %:    39.7152   MPKI: 0.383295
L2C PREFETCH  ACCESS:    1681029  HIT:     988226  MISS:     692803  HIT %:     58.787  MISS %:     41.213   MPKI: 3.46401
AGUS PREFETCH L1 MISS: 0
L2C DATA PREFETCH MPKI: 3.46401
L2C INSTRUCTION PREFETCH MPKI: 0
L2C WRITEBACK ACCESS:    1035283  HIT:     982571  MISS:      52712  HIT %:    94.9084  MISS %:    5.09155   MPKI: 0.26356
L2C LOAD TRANSLATION ACCESS:     454671  HIT:     271429  MISS:     183242  HIT %:    59.6979  MISS %:    40.3021   MPKI: 0.91621
L2C PREFETCH  REQUESTED:          0  ISSUED:          0  USEFUL:      73962  USELESS:     618787
L2C USEFUL LOAD PREFETCHES:      73962 PREFETCH ISSUED TO LOWER LEVEL:     693570  ACCURACY: 10.664
L2C TIMELY PREFETCHES:      73962 LATE PREFETCHES: 767 DROPPED PREFETCHES: 0
L2C PREFETCHES SAME FILL-ORIGIN LEVEL: 63410 DIFFERENT FILL-ORIGIN LEVEL: 0
L2C AVERAGE MISS LATENCY: 46.5343 cycles
L2C RQ	ACCESS:    6823354	FORWARD:          0	MERGED:          0	TO_CACHE:    6823318
L2C WQ	ACCESS:    1035283	FORWARD:         78	MERGED:          0	TO_CACHE:    1035283
L2C PQ	ACCESS:    1681849	FORWARD:          0	MERGED:          0	TO_CACHE:    1681807

L2C Instructions Evicting Data 679908
L2C Translations Evicting Data 72715
L2C Data Evicting Data 484722
L2C Instructions Evicting Instructions 1055955
L2C Translations Evicting Instructions 97805
L2C Data Evicting Instructions 651527
L2C Instructions Evicting Translations 98944
L2C Translations Evicting Translations 12722
L2C Data Evicting Translations 69155
L2C Dense regions hint from L2: 0
PSCL5 TOTAL     ACCESS:     342621  HIT:     342621  MISS:          0  HIT %:        100  MISS %:          0   MPKI: 0
PSCL5 LOAD TRANSLATION ACCESS:     342621  HIT:     342621  MISS:          0  HIT %:        100  MISS %:          0   MPKI: 0
PSCL5 PREFETCH  REQUESTED:          0  ISSUED:          0  USEFUL:          0  USELESS:          0
PSCL5 USEFUL LOAD PREFETCHES:          0 PREFETCH ISSUED TO LOWER LEVEL:          0  ACCURACY: -nan
PSCL5 TIMELY PREFETCHES:          0 LATE PREFETCHES: 0 DROPPED PREFETCHES: 0
PSCL5 PREFETCHES SAME FILL-ORIGIN LEVEL: 0 DIFFERENT FILL-ORIGIN LEVEL: 0

PSCL4 TOTAL     ACCESS:     333409  HIT:     332149  MISS:       1260  HIT %:    99.6221  MISS %:   0.377914   MPKI: 0.0063
PSCL4 LOAD TRANSLATION ACCESS:     333409  HIT:     332149  MISS:       1260  HIT %:    99.6221  MISS %:   0.377914   MPKI: 0.0063
PSCL4 PREFETCH  REQUESTED:          0  ISSUED:          0  USEFUL:          0  USELESS:          0
PSCL4 USEFUL LOAD PREFETCHES:          0 PREFETCH ISSUED TO LOWER LEVEL:          0  ACCURACY: -nan
PSCL4 TIMELY PREFETCHES:          0 LATE PREFETCHES: 0 DROPPED PREFETCHES: 0
PSCL4 PREFETCHES SAME FILL-ORIGIN LEVEL: 0 DIFFERENT FILL-ORIGIN LEVEL: 0

PSCL3 TOTAL     ACCESS:     340022  HIT:     338762  MISS:       1260  HIT %:    99.6294  MISS %:   0.370564   MPKI: 0.0063
PSCL3 LOAD TRANSLATION ACCESS:     340022  HIT:     338762  MISS:       1260  HIT %:    99.6294  MISS %:   0.370564   MPKI: 0.0063
PSCL3 PREFETCH  REQUESTED:          0  ISSUED:          0  USEFUL:          0  USELESS:          0
PSCL3 USEFUL LOAD PREFETCHES:          0 PREFETCH ISSUED TO LOWER LEVEL:          0  ACCURACY: -nan
PSCL3 TIMELY PREFETCHES:          0 LATE PREFETCHES: 0 DROPPED PREFETCHES: 0
PSCL3 PREFETCHES SAME FILL-ORIGIN LEVEL: 0 DIFFERENT FILL-ORIGIN LEVEL: 0

PSCL2 TOTAL     ACCESS:     342621  HIT:     233091  MISS:     109530  HIT %:    68.0317  MISS %:    31.9683   MPKI: 0.54765
PSCL2 LOAD TRANSLATION ACCESS:     342621  HIT:     233091  MISS:     109530  HIT %:    68.0317  MISS %:    31.9683   MPKI: 0.54765
PSCL2 PREFETCH  REQUESTED:          0  ISSUED:          0  USEFUL:          0  USELESS:          0
PSCL2 USEFUL LOAD PREFETCHES:          0 PREFETCH ISSUED TO LOWER LEVEL:          0  ACCURACY: -nan
PSCL2 TIMELY PREFETCHES:          0 LATE PREFETCHES: 0 DROPPED PREFETCHES: 0
PSCL2 PREFETCHES SAME FILL-ORIGIN LEVEL: 0 DIFFERENT FILL-ORIGIN LEVEL: 0

LLC TOTAL     ACCESS:    3664575  HIT:    3322449  MISS:     342126  HIT %:     90.664  MISS %:    9.33603   MPKI: 1.71063
LLC LOAD      ACCESS:    2270276  HIT:    2194376  MISS:      75900  HIT %:    96.6568  MISS %:    3.34321   MPKI: 0.3795
LLC RFO       ACCESS:      76365  HIT:      58101  MISS:      18264  HIT %:    76.0833  MISS %:    23.9167   MPKI: 0.09132
LLC PREFETCH  ACCESS:     693552  HIT:     461174  MISS:     232378  HIT %:    66.4945  MISS %:    33.5055   MPKI: 1.16189
AGUS PREFETCH L1 MISS: 0
LLC WRITEBACK ACCESS:     441140  HIT:     439148  MISS:       1992  HIT %:    99.5484  MISS %:   0.451557   MPKI: 0.00996
LLC LOAD TRANSLATION ACCESS:     183242  HIT:     169650  MISS:      13592  HIT %:    92.5825  MISS %:    7.41751   MPKI: 0.06796
LLC PREFETCH  REQUESTED:          0  ISSUED:          0  USEFUL:       4363  USELESS:     227847
LLC USEFUL LOAD PREFETCHES:       4363 PREFETCH ISSUED TO LOWER LEVEL:     232378  ACCURACY: 1.87754
LLC TIMELY PREFETCHES:       4363 LATE PREFETCHES: 0 DROPPED PREFETCHES: 0
LLC PREFETCHES SAME FILL-ORIGIN LEVEL: 0 DIFFERENT FILL-ORIGIN LEVEL: 0
LLC AVERAGE MISS LATENCY: 163.237 cycles
LLC RQ	ACCESS:    2529883	FORWARD:          0	MERGED:          0	TO_CACHE:    2529883
LLC WQ	ACCESS:     441140	FORWARD:         18	MERGED:          0	TO_CACHE:     441140
LLC PQ	ACCESS:     693570	FORWARD:          0	MERGED:          0	TO_CACHE:     693552

LLC Dense regions hint to LLC: 0

RAW hits: 2615542
Loads Generated: 44968240
Loads sent to L1D: 42352698
Stores Generated: 20281799
Stores sent to L1D: 20281804
Major fault: 0 Minor fault: 6269
Allocated PAGES: 6269
[Bingo] PHT Access: 1216152
[Bingo] PHT Hit PC+Addr: 591919
[Bingo] PHT Hit PC+Offs: 75692
[Bingo] PHT Miss: 548541
[Bingo] Prefetch PC+Addr: 0
[Bingo] Prefetch PC+Offs: 0
[Bingo] Useful PC+Addr: 0
[Bingo] Useful PC+Offs: 0
[Bingo] Useless PC+Addr: 0
[Bingo] Useless PC+Offs: 0
[Bingo] L1 Prefetch per Region: 4.15108
[Bingo] L2 Prefetch per Region: 0.192548
[Bingo] L3 Prefetch per Region: 0
[Bingo] No Prefetch per Region: 27.6564
[Bingo] Number of Voters Mean: 3.94474
[Bingo] Number of Voters SD: 4.60144
PHT read accesses: 9624020
PHT write accesses: 485820
AT read accesses: 21197422
AT write accesses: 21212443
FT read accesses: 13286212
FT write accesses: 1216152
PS read accesses: 1386749
PS write accesses: 667611
PHT tag read accesses: 19870412
PHT tag write accesses: 1077739
AT tag read accesses: 509907088
AT tag write accesses: 21683227
FT tag read accesses: 209495840
FT tag write accesses: 8154404
PS tag read accesses: 467342403
PS tag write accesses: 2050814

DRAM Statistics
 CHANNEL 0
 RQ ROW_BUFFER_HIT:     111205  ROW_BUFFER_MISS:     228929
 DBUS_CONGESTED:        233
 WQ ROW_BUFFER_HIT:      31762  ROW_BUFFER_MISS:     188343  FULL:          0

 AVG_CONGESTED_CYCLE: 4
 All warmup complete: 2
Channel 0 Bank busy for read cycles: 0
Channel 0 Bank busy for write cycles: 0
Channel 0
Rank 0
0banks busy for read cycles: 392365468
0banks busy for write cycles: 42688
1banks busy for read cycles: 8655764
1banks busy for write cycles: 4703408
2banks busy for read cycles: 2311548
2banks busy for write cycles: 2085025
3banks busy for read cycles: 1163178
3banks busy for write cycles: 1395715
4banks busy for read cycles: 817998
4banks busy for write cycles: 1119279
5banks busy for read cycles: 567439
5banks busy for write cycles: 926695
6banks busy for read cycles: 499477
6banks busy for write cycles: 889242
7banks busy for read cycles: 590758
7banks busy for write cycles: 891932
8banks busy for read cycles: 1236508
8banks busy for write cycles: 856734

CPU 0 Branch Prediction Accuracy: 99.8407% MPKI: 0.28518 Average ROB Occupancy at Mispredict: 39.18
Branch types
NOT_BRANCH: 164201242 82.1006%
BRANCH_DIRECT_JUMP: 1718257 0.859128%
BRANCH_INDIRECT: 9436324 4.71816%
BRANCH_CONDITIONAL: 18329755 9.16488%
BRANCH_DIRECT_CALL: 2480174 1.24009%
BRANCH_INDIRECT_CALL: 676469 0.338234%
BRANCH_RETURN: 3157481 1.57874%
BRANCH_OTHER: 0 0%

DRAM PAGES: 1048576
Allocated PAGES: 6269
