
*** ChampSim Multicore Out-of-Order Simulator ***

Warmup Instructions: 50000000
Simulation Instructions: 200000000
Number of CPUs: 1
LLC sets: 2048
LLC ways: 16
Off-chip DRAM Size: 4096 MB Channels: 1 Width: 64-bit Data Rate: 6400 MT/s
CPU 0 runs traces/spec2k17/srv_36.champsimtrace.xz
.xz
BTB has LRU replacement policy
ITLB has LRU replacement policy
DTLB has LRU replacement policy
STLB has LRU replacement policy
L1I has LRU replacement policy
Bingo PHT WAYS: 16 and PHT_SIZE: 16384
L1D has LRU replacement policy
Initialize SRRIP state for L2C
Initialize DRRIP state for LLC
Heartbeat CPU 0 instructions: 10000000 cycles: 2941251 heartbeat IPC: 3.39991 cumulative IPC: 3.39991 (Simulation time: 0 hr 0 min 26 sec) 
Heartbeat CPU 0 instructions: 20000003 cycles: 5877027 heartbeat IPC: 3.40626 cumulative IPC: 3.40308 (Simulation time: 0 hr 0 min 51 sec) 
Heartbeat CPU 0 instructions: 30000000 cycles: 8813660 heartbeat IPC: 3.40526 cumulative IPC: 3.40381 (Simulation time: 0 hr 1 min 17 sec) 
*** Reached end of trace for Core: 0 Repeating trace: traces/spec2k17/srv_36.champsimtrace.xz
Heartbeat CPU 0 instructions: 40000001 cycles: 11753421 heartbeat IPC: 3.40164 cumulative IPC: 3.40326 (Simulation time: 0 hr 1 min 56 sec) 
Heartbeat CPU 0 instructions: 50000002 cycles: 14694375 heartbeat IPC: 3.40026 cumulative IPC: 3.40266 (Simulation time: 0 hr 2 min 36 sec) 

Warmup complete CPU 0 instructions: 50000002 cycles: 14694375 (Simulation time: 0 hr 2 min 36 sec) 

Heartbeat CPU 0 instructions: 60000003 cycles: 33055238 heartbeat IPC: 0.544637 cumulative IPC: 0.544637 (Simulation time: 0 hr 3 min 44 sec) 
*** Reached end of trace for Core: 0 Repeating trace: traces/spec2k17/srv_36.champsimtrace.xz
Heartbeat CPU 0 instructions: 70000001 cycles: 51261889 heartbeat IPC: 0.54925 cumulative IPC: 0.546934 (Simulation time: 0 hr 4 min 53 sec) 
Heartbeat CPU 0 instructions: 80000002 cycles: 69465254 heartbeat IPC: 0.549349 cumulative IPC: 0.547736 (Simulation time: 0 hr 6 min 3 sec) 
Heartbeat CPU 0 instructions: 90000000 cycles: 87720405 heartbeat IPC: 0.54779 cumulative IPC: 0.54775 (Simulation time: 0 hr 7 min 11 sec) 
*** Reached end of trace for Core: 0 Repeating trace: traces/spec2k17/srv_36.champsimtrace.xz
Heartbeat CPU 0 instructions: 100000000 cycles: 105872357 heartbeat IPC: 0.550905 cumulative IPC: 0.548378 (Simulation time: 0 hr 8 min 8 sec) 
Heartbeat CPU 0 instructions: 110000000 cycles: 124036160 heartbeat IPC: 0.550546 cumulative IPC: 0.548738 (Simulation time: 0 hr 9 min 17 sec) 
Heartbeat CPU 0 instructions: 120000000 cycles: 142195844 heartbeat IPC: 0.55067 cumulative IPC: 0.549013 (Simulation time: 0 hr 10 min 26 sec) 
*** Reached end of trace for Core: 0 Repeating trace: traces/spec2k17/srv_36.champsimtrace.xz
Heartbeat CPU 0 instructions: 130000000 cycles: 160398079 heartbeat IPC: 0.549383 cumulative IPC: 0.549059 (Simulation time: 0 hr 11 min 16 sec) 
Heartbeat CPU 0 instructions: 140000002 cycles: 178565076 heartbeat IPC: 0.550449 cumulative IPC: 0.549213 (Simulation time: 0 hr 12 min 15 sec) 
Heartbeat CPU 0 instructions: 150000001 cycles: 196770230 heartbeat IPC: 0.549295 cumulative IPC: 0.549222 (Simulation time: 0 hr 12 min 58 sec) 
Heartbeat CPU 0 instructions: 160000001 cycles: 214933408 heartbeat IPC: 0.550564 cumulative IPC: 0.549343 (Simulation time: 0 hr 13 min 41 sec) 
*** Reached end of trace for Core: 0 Repeating trace: traces/spec2k17/srv_36.champsimtrace.xz
Heartbeat CPU 0 instructions: 170000001 cycles: 233106425 heartbeat IPC: 0.550266 cumulative IPC: 0.54942 (Simulation time: 0 hr 14 min 25 sec) 
Heartbeat CPU 0 instructions: 180000000 cycles: 251208818 heartbeat IPC: 0.552413 cumulative IPC: 0.549649 (Simulation time: 0 hr 15 min 8 sec) 
Heartbeat CPU 0 instructions: 190000000 cycles: 269389794 heartbeat IPC: 0.550025 cumulative IPC: 0.549676 (Simulation time: 0 hr 15 min 51 sec) 
*** Reached end of trace for Core: 0 Repeating trace: traces/spec2k17/srv_36.champsimtrace.xz
Heartbeat CPU 0 instructions: 200000002 cycles: 287564480 heartbeat IPC: 0.550216 cumulative IPC: 0.549712 (Simulation time: 0 hr 16 min 53 sec) 
Heartbeat CPU 0 instructions: 210000001 cycles: 305751136 heartbeat IPC: 0.549854 cumulative IPC: 0.549721 (Simulation time: 0 hr 17 min 52 sec) 
Heartbeat CPU 0 instructions: 220000000 cycles: 323891438 heartbeat IPC: 0.551259 cumulative IPC: 0.549811 (Simulation time: 0 hr 18 min 35 sec) 
*** Reached end of trace for Core: 0 Repeating trace: traces/spec2k17/srv_36.champsimtrace.xz
Heartbeat CPU 0 instructions: 230000001 cycles: 342093697 heartbeat IPC: 0.549382 cumulative IPC: 0.549787 (Simulation time: 0 hr 19 min 19 sec) 
Heartbeat CPU 0 instructions: 240000002 cycles: 360309714 heartbeat IPC: 0.548967 cumulative IPC: 0.549744 (Simulation time: 0 hr 20 min 3 sec) 
Heartbeat CPU 0 instructions: 250000001 cycles: 378403068 heartbeat IPC: 0.552689 cumulative IPC: 0.549891 (Simulation time: 0 hr 20 min 46 sec) 
Finished CPU 0 instructions: 200000000 cycles: 363708694 cumulative IPC: 0.549891 (Simulation time: 0 hr 20 min 46 sec) 

ChampSim completed all CPUs

Region of Interest Statistics

CPU 0 cumulative IPC: 0.549891 instructions: 200000000 cycles: 363708694
ITLB TOTAL     ACCESS:   33703952  HIT:   32168949  MISS:    1535003  HIT %:    95.4456  MISS %:    4.55437   MPKI: 7.67502
ITLB LOAD TRANSLATION ACCESS:   33703952  HIT:   32168949  MISS:    1535003  HIT %:    95.4456  MISS %:    4.55437   MPKI: 7.67502
ITLB PREFETCH  REQUESTED:          0  ISSUED:          0  USEFUL:          0  USELESS:          0
ITLB USEFUL LOAD PREFETCHES:          0 PREFETCH ISSUED TO LOWER LEVEL:          0  ACCURACY: -nan
ITLB TIMELY PREFETCHES:          0 LATE PREFETCHES: 0 DROPPED PREFETCHES: 0
ITLB PREFETCHES SAME FILL-ORIGIN LEVEL: 0 DIFFERENT FILL-ORIGIN LEVEL: 0
ITLB AVERAGE MISS LATENCY: 9.24103 cycles
ITLB RQ	ACCESS:   40618875	FORWARD:          0	MERGED:    6420746	TO_CACHE:   34198129

DTLB TOTAL     ACCESS:   40490770  HIT:   38976942  MISS:    1513828  HIT %:    96.2613  MISS %:     3.7387   MPKI: 7.56914
DTLB LOAD TRANSLATION ACCESS:   40490770  HIT:   38976942  MISS:    1513828  HIT %:    96.2613  MISS %:     3.7387   MPKI: 7.56914
DTLB PREFETCH  REQUESTED:          0  ISSUED:          0  USEFUL:          0  USELESS:          0
DTLB USEFUL LOAD PREFETCHES:          0 PREFETCH ISSUED TO LOWER LEVEL:          0  ACCURACY: -nan
DTLB TIMELY PREFETCHES:          0 LATE PREFETCHES: 0 DROPPED PREFETCHES: 0
DTLB PREFETCHES SAME FILL-ORIGIN LEVEL: 0 DIFFERENT FILL-ORIGIN LEVEL: 0
DTLB AVERAGE MISS LATENCY: 15.3286 cycles
DTLB RQ	ACCESS:   61498548	FORWARD:          0	MERGED:   20599118	TO_CACHE:   40899430

STLB TOTAL     ACCESS:    4145712  HIT:    4065766  MISS:      79946  HIT %:    98.0716  MISS %:     1.9284   MPKI: 0.39973
STLB LOAD TRANSLATION ACCESS:    3048831  HIT:    2968885  MISS:      79946  HIT %:    97.3778  MISS %:    2.62219   MPKI: 0.39973
STLB TRANSLATION FROM L1D PREFETCHER ACCESS:    1096881  HIT:    1096881  MISS:          0  HIT %:        100  MISS %:          0   MPKI: 0
STLB PREFETCH  REQUESTED:          0  ISSUED:          0  USEFUL:          0  USELESS:          0
STLB USEFUL LOAD PREFETCHES:          0 PREFETCH ISSUED TO LOWER LEVEL:          0  ACCURACY: -nan
STLB TIMELY PREFETCHES:          0 LATE PREFETCHES: 0 DROPPED PREFETCHES: 0
STLB PREFETCHES SAME FILL-ORIGIN LEVEL: 0 DIFFERENT FILL-ORIGIN LEVEL: 0
STLB AVERAGE MISS LATENCY: 124.214 cycles
STLB RQ	ACCESS:    7746900	FORWARD:          0	MERGED:    3601188	TO_CACHE:    4145712

STLB Hit, L1D data hit: 0
STLB Hit, L2C data hit: 0
STLB Hit, LLC data hit: 0
STLB Hit, LLC data miss: 0
STLB STLB hints to L2: 0
L1D TOTAL     ACCESS:   54211814  HIT:   46955164  MISS:    7256650  HIT %:    86.6143  MISS %:    13.3857   MPKI: 36.2833
L1D LOAD      ACCESS:   27239242  HIT:   25648721  MISS:    1590521  HIT %:    94.1609  MISS %:    5.83908   MPKI: 7.95261
L1D RFO       ACCESS:   23121584  HIT:   19654494  MISS:    3467090  HIT %:     85.005  MISS %:     14.995   MPKI: 17.3355
L1D PREFETCH  ACCESS:    3850988  HIT:    1651949  MISS:    2199039  HIT %:    42.8968  MISS %:    57.1032   MPKI: 10.9952
AGUS PREFETCH L1 MISS: 0
L1D PREFETCH  REQUESTED:    9397036  ISSUED:    9397036  USEFUL:    1794094  USELESS:     404974
L1D USEFUL LOAD PREFETCHES:    1794094 PREFETCH ISSUED TO LOWER LEVEL:    2771317  ACCURACY: 64.738
L1D TIMELY PREFETCHES:    1794094 LATE PREFETCHES: 419662 DROPPED PREFETCHES: 0
L1D PREFETCHES SAME FILL-ORIGIN LEVEL: 2619434 DIFFERENT FILL-ORIGIN LEVEL: 151883
L1D AVERAGE MISS LATENCY: 1.13806e+07 cycles
L1D RQ	ACCESS:   45519192	FORWARD:          0	MERGED:   17789010	TO_CACHE:   27482893
L1D WQ	ACCESS:   34191048	FORWARD:     247872	MERGED:     175393	TO_CACHE:   34015655
L1D PQ	ACCESS:    4698967	FORWARD:          0	MERGED:        315	TO_CACHE:    4698069

L1D UNIQUE REGIONS ACCESSED: 0
L1D REGIONS CONFLICTS: 0
L1D Cross Page Prefetch Requests: 0
L1D Same Page Prefetch Requests: 5872331
L1D ROI Sum of L1D PQ occupancy: 68793935
L1D PREFETCHES PUSHED FROM L2C: 0
L1I TOTAL     ACCESS:   37969772  HIT:   28910777  MISS:    9058995  HIT %:    76.1416  MISS %:    23.8584   MPKI: 45.295
L1I LOAD      ACCESS:   37969772  HIT:   28910777  MISS:    9058995  HIT %:    76.1416  MISS %:    23.8584   MPKI: 45.295
L1I PREFETCH  REQUESTED:          0  ISSUED:          0  USEFUL:          0  USELESS:          0
L1I USEFUL LOAD PREFETCHES:          0 PREFETCH ISSUED TO LOWER LEVEL:          0  ACCURACY: -nan
L1I TIMELY PREFETCHES:          0 LATE PREFETCHES: 0 DROPPED PREFETCHES: 0
L1I PREFETCHES SAME FILL-ORIGIN LEVEL: 0 DIFFERENT FILL-ORIGIN LEVEL: 0
L1I AVERAGE MISS LATENCY: 16.6549 cycles
L1I RQ	ACCESS:   58785805	FORWARD:          0	MERGED:   18166930	TO_CACHE:   40618875

BTB TOTAL     ACCESS:   25729048  HIT:   24193613  MISS:    1535435  HIT %:    94.0323  MISS %:    5.96771   MPKI: 7.67718
BTB BRANCH_DIRECT_JUMP	ACCESS:    1654273  HIT:    1644479  MISS:       9794
BTB BRANCH_INDIRECT	ACCESS:    9941101  HIT:    9432728  MISS:     508373
BTB BRANCH_CONDITIONAL	ACCESS:    7321750  HIT:    7308108  MISS:      13642
BTB BRANCH_DIRECT_CALL	ACCESS:    2814711  HIT:    2781382  MISS:      33329
BTB BRANCH_INDIRECT_CALL	ACCESS:     591266  HIT:     480297  MISS:     110969
BTB BRANCH_RETURN	ACCESS:    3405947  HIT:    2546619  MISS:     859328
BTB BRANCH_OTHER ACCESS:          0  HIT:          0  MISS:          0

L2C TOTAL     ACCESS:   20915293  HIT:   14226581  MISS:    6688712  HIT %:      68.02  MISS %:      31.98   MPKI: 33.4436
L2C LOAD      ACCESS:   10229340  HIT:    9039475  MISS:    1189865  HIT %:    88.3681  MISS %:    11.6319   MPKI: 5.94932
L2C DATA LOAD MPKI: 3.05776
L2C INSTRUCTION LOAD MPKI: 2.89156
L2C RFO       ACCESS:    3466343  HIT:     141903  MISS:    3324440  HIT %:    4.09374  MISS %:    95.9063   MPKI: 16.6222
L2C PREFETCH  ACCESS:    2752117  HIT:     751127  MISS:    2000990  HIT %:    27.2927  MISS %:    72.7073   MPKI: 10.0049
AGUS PREFETCH L1 MISS: 0
L2C DATA PREFETCH MPKI: 10.0049
L2C INSTRUCTION PREFETCH MPKI: 0
L2C WRITEBACK ACCESS:    4375893  HIT:    4244990  MISS:     130903  HIT %:    97.0085  MISS %:    2.99146   MPKI: 0.654515
L2C LOAD TRANSLATION ACCESS:      91600  HIT:      49086  MISS:      42514  HIT %:    53.5873  MISS %:    46.4127   MPKI: 0.21257
L2C PREFETCH  REQUESTED:          0  ISSUED:          0  USEFUL:     163307  USELESS:    1837492
L2C USEFUL LOAD PREFETCHES:     163307 PREFETCH ISSUED TO LOWER LEVEL:    2020139  ACCURACY: 8.08395
L2C TIMELY PREFETCHES:     163307 LATE PREFETCHES: 19149 DROPPED PREFETCHES: 0
L2C PREFETCHES SAME FILL-ORIGIN LEVEL: 134039 DIFFERENT FILL-ORIGIN LEVEL: 0
L2C AVERAGE MISS LATENCY: 160.729 cycles
L2C RQ	ACCESS:   13787811	FORWARD:          0	MERGED:          0	TO_CACHE:   13787283
L2C WQ	ACCESS:    4375893	FORWARD:        544	MERGED:          0	TO_CACHE:    4375893
L2C PQ	ACCESS:    2771317	FORWARD:          0	MERGED:          0	TO_CACHE:    2771301

L2C Instructions Evicting Data 523401
L2C Translations Evicting Data 38917
L2C Data Evicting Data 5385715
L2C Instructions Evicting Instructions 51525
L2C Translations Evicting Instructions 3319
L2C Data Evicting Instructions 513108
L2C Instructions Evicting Translations 3386
L2C Translations Evicting Translations 278
L2C Data Evicting Translations 38160
L2C Dense regions hint from L2: 0
PSCL5 TOTAL     ACCESS:      79946  HIT:      79946  MISS:          0  HIT %:        100  MISS %:          0   MPKI: 0
PSCL5 LOAD TRANSLATION ACCESS:      79946  HIT:      79946  MISS:          0  HIT %:        100  MISS %:          0   MPKI: 0
PSCL5 PREFETCH  REQUESTED:          0  ISSUED:          0  USEFUL:          0  USELESS:          0
PSCL5 USEFUL LOAD PREFETCHES:          0 PREFETCH ISSUED TO LOWER LEVEL:          0  ACCURACY: -nan
PSCL5 TIMELY PREFETCHES:          0 LATE PREFETCHES: 0 DROPPED PREFETCHES: 0
PSCL5 PREFETCHES SAME FILL-ORIGIN LEVEL: 0 DIFFERENT FILL-ORIGIN LEVEL: 0

PSCL4 TOTAL     ACCESS:      72277  HIT:      72029  MISS:        248  HIT %:    99.6569  MISS %:   0.343124   MPKI: 0.00124
PSCL4 LOAD TRANSLATION ACCESS:      72277  HIT:      72029  MISS:        248  HIT %:    99.6569  MISS %:   0.343124   MPKI: 0.00124
PSCL4 PREFETCH  REQUESTED:          0  ISSUED:          0  USEFUL:          0  USELESS:          0
PSCL4 USEFUL LOAD PREFETCHES:          0 PREFETCH ISSUED TO LOWER LEVEL:          0  ACCURACY: -nan
PSCL4 TIMELY PREFETCHES:          0 LATE PREFETCHES: 0 DROPPED PREFETCHES: 0
PSCL4 PREFETCHES SAME FILL-ORIGIN LEVEL: 0 DIFFERENT FILL-ORIGIN LEVEL: 0

PSCL3 TOTAL     ACCESS:      75081  HIT:      74014  MISS:       1067  HIT %:    98.5789  MISS %:    1.42113   MPKI: 0.005335
PSCL3 LOAD TRANSLATION ACCESS:      75081  HIT:      74014  MISS:       1067  HIT %:    98.5789  MISS %:    1.42113   MPKI: 0.005335
PSCL3 PREFETCH  REQUESTED:          0  ISSUED:          0  USEFUL:          0  USELESS:          0
PSCL3 USEFUL LOAD PREFETCHES:          0 PREFETCH ISSUED TO LOWER LEVEL:          0  ACCURACY: -nan
PSCL3 TIMELY PREFETCHES:          0 LATE PREFETCHES: 0 DROPPED PREFETCHES: 0
PSCL3 PREFETCHES SAME FILL-ORIGIN LEVEL: 0 DIFFERENT FILL-ORIGIN LEVEL: 0

PSCL2 TOTAL     ACCESS:      79946  HIT:      69607  MISS:      10339  HIT %:    87.0675  MISS %:    12.9325   MPKI: 0.051695
PSCL2 LOAD TRANSLATION ACCESS:      79946  HIT:      69607  MISS:      10339  HIT %:    87.0675  MISS %:    12.9325   MPKI: 0.051695
PSCL2 PREFETCH  REQUESTED:          0  ISSUED:          0  USEFUL:          0  USELESS:          0
PSCL2 USEFUL LOAD PREFETCHES:          0 PREFETCH ISSUED TO LOWER LEVEL:          0  ACCURACY: -nan
PSCL2 TIMELY PREFETCHES:          0 LATE PREFETCHES: 0 DROPPED PREFETCHES: 0
PSCL2 PREFETCHES SAME FILL-ORIGIN LEVEL: 0 DIFFERENT FILL-ORIGIN LEVEL: 0

LLC TOTAL     ACCESS:   10605971  HIT:    4275481  MISS:    6330490  HIT %:     40.312  MISS %:     59.688   MPKI: 31.6525
LLC LOAD      ACCESS:    1170727  HIT:     947221  MISS:     223506  HIT %:    80.9088  MISS %:    19.0912   MPKI: 1.11753
LLC RFO       ACCESS:    3324387  HIT:     820444  MISS:    2503943  HIT %:    24.6796  MISS %:    75.3204   MPKI: 12.5197
LLC PREFETCH  ACCESS:    2020136  HIT:     933845  MISS:    1086291  HIT %:    46.2268  MISS %:    53.7732   MPKI: 5.43145
AGUS PREFETCH L1 MISS: 0
LLC WRITEBACK ACCESS:    4048207  HIT:    1563557  MISS:    2484650  HIT %:    38.6234  MISS %:    61.3766   MPKI: 12.4232
LLC LOAD TRANSLATION ACCESS:      42514  HIT:      10414  MISS:      32100  HIT %:    24.4955  MISS %:    75.5045   MPKI: 0.1605
LLC PREFETCH  REQUESTED:          0  ISSUED:          0  USEFUL:       1959  USELESS:    1084784
LLC USEFUL LOAD PREFETCHES:       1959 PREFETCH ISSUED TO LOWER LEVEL:    1086291  ACCURACY: 0.180338
LLC TIMELY PREFETCHES:       1959 LATE PREFETCHES: 0 DROPPED PREFETCHES: 0
LLC PREFETCHES SAME FILL-ORIGIN LEVEL: 0 DIFFERENT FILL-ORIGIN LEVEL: 0
LLC AVERAGE MISS LATENCY: 139.076 cycles
LLC RQ	ACCESS:    4537670	FORWARD:          0	MERGED:          0	TO_CACHE:    4537628
LLC WQ	ACCESS:    4048207	FORWARD:         45	MERGED:          0	TO_CACHE:    4048207
LLC PQ	ACCESS:    2020139	FORWARD:          0	MERGED:          0	TO_CACHE:    2020136

LLC Dense regions hint to LLC: 0

RAW hits: 2099003
Loads Generated: 47618197
Loads sent to L1D: 45519192
Stores Generated: 34191042
Stores sent to L1D: 34191048
Major fault: 0 Minor fault: 9094
Allocated PAGES: 9094
[Bingo] PHT Access: 1073004
[Bingo] PHT Hit PC+Addr: 615320
[Bingo] PHT Hit PC+Offs: 172400
[Bingo] PHT Miss: 285284
[Bingo] Prefetch PC+Addr: 0
[Bingo] Prefetch PC+Offs: 0
[Bingo] Useful PC+Addr: 0
[Bingo] Useful PC+Offs: 0
[Bingo] Useless PC+Addr: 0
[Bingo] Useless PC+Offs: 0
[Bingo] L1 Prefetch per Region: 6.89079
[Bingo] L2 Prefetch per Region: 0.264437
[Bingo] L3 Prefetch per Region: 0
[Bingo] No Prefetch per Region: 24.8448
[Bingo] Number of Voters Mean: 11.0567
[Bingo] Number of Voters SD: 8.61294
PHT read accesses: 6763207
PHT write accesses: 503662
AT read accesses: 23543697
AT write accesses: 23543730
FT read accesses: 8556684
FT write accesses: 1073004
PS read accesses: 2764578
PS write accesses: 787720
PHT tag read accesses: 19161457
PHT tag write accesses: 1118982
AT tag read accesses: 574108193
AT tag write accesses: 24047329
FT tag read accesses: 230146970
FT tag write accesses: 5756266
PS tag read accesses: 467182452
PS tag write accesses: 3541057

DRAM Statistics
 CHANNEL 0
 RQ ROW_BUFFER_HIT:    2156060  ROW_BUFFER_MISS:    1689468
 DBUS_CONGESTED:       2045
 WQ ROW_BUFFER_HIT:     518085  ROW_BUFFER_MISS:    2106871  FULL:      76602

 AVG_CONGESTED_CYCLE: 3
 All warmup complete: 2
Channel 0 Bank busy for read cycles: 0
Channel 0 Bank busy for write cycles: 0
Channel 0
Rank 0
0banks busy for read cycles: 185034264
0banks busy for write cycles: 207465
1banks busy for read cycles: 21777822
1banks busy for write cycles: 25236083
2banks busy for read cycles: 9062073
2banks busy for write cycles: 12155049
3banks busy for read cycles: 13084690
3banks busy for write cycles: 6657053
4banks busy for read cycles: 3779568
4banks busy for write cycles: 4505451
5banks busy for read cycles: 3300654
5banks busy for write cycles: 3744482
6banks busy for read cycles: 4098180
6banks busy for write cycles: 3590780
7banks busy for read cycles: 6484132
7banks busy for write cycles: 5729959
8banks busy for read cycles: 23500761
8banks busy for write cycles: 31760229

CPU 0 Branch Prediction Accuracy: 99.9484% MPKI: 0.07887 Average ROB Occupancy at Mispredict: 104.327
Branch types
NOT_BRANCH: 169412810 84.7064%
BRANCH_DIRECT_JUMP: 1654273 0.827137%
BRANCH_INDIRECT: 9941101 4.97055%
BRANCH_CONDITIONAL: 12179884 6.08994%
BRANCH_DIRECT_CALL: 2814711 1.40736%
BRANCH_INDIRECT_CALL: 591266 0.295633%
BRANCH_RETURN: 3405947 1.70297%
BRANCH_OTHER: 0 0%

DRAM PAGES: 1048576
Allocated PAGES: 9094
