
*** ChampSim Multicore Out-of-Order Simulator ***

Warmup Instructions: 50000000
Simulation Instructions: 200000000
Number of CPUs: 1
LLC sets: 2048
LLC ways: 16
Off-chip DRAM Size: 4096 MB Channels: 1 Width: 64-bit Data Rate: 6400 MT/s
CPU 0 runs traces/spec2k17/srv_14.champsimtrace.xz
.xz
BTB has LRU replacement policy
ITLB has LRU replacement policy
DTLB has LRU replacement policy
STLB has LRU replacement policy
L1I has LRU replacement policy
Bingo PHT WAYS: 16 and PHT_SIZE: 16384
L1D has LRU replacement policy
Initialize SRRIP state for L2C
Initialize DRRIP state for LLC
Heartbeat CPU 0 instructions: 10000003 cycles: 2842777 heartbeat IPC: 3.51769 cumulative IPC: 3.51769 (Simulation time: 0 hr 0 min 32 sec) 
Heartbeat CPU 0 instructions: 20000002 cycles: 5677439 heartbeat IPC: 3.52776 cumulative IPC: 3.52272 (Simulation time: 0 hr 1 min 4 sec) 
Heartbeat CPU 0 instructions: 30000001 cycles: 8510708 heartbeat IPC: 3.52949 cumulative IPC: 3.52497 (Simulation time: 0 hr 1 min 36 sec) 
*** Reached end of trace for Core: 0 Repeating trace: traces/spec2k17/srv_14.champsimtrace.xz
Heartbeat CPU 0 instructions: 40000000 cycles: 11345033 heartbeat IPC: 3.52818 cumulative IPC: 3.52577 (Simulation time: 0 hr 2 min 9 sec) 
Heartbeat CPU 0 instructions: 50000001 cycles: 14179682 heartbeat IPC: 3.52777 cumulative IPC: 3.52617 (Simulation time: 0 hr 2 min 41 sec) 

Warmup complete CPU 0 instructions: 50000001 cycles: 14179682 (Simulation time: 0 hr 2 min 41 sec) 

Heartbeat CPU 0 instructions: 60000001 cycles: 46257651 heartbeat IPC: 0.31174 cumulative IPC: 0.31174 (Simulation time: 0 hr 3 min 41 sec) 
*** Reached end of trace for Core: 0 Repeating trace: traces/spec2k17/srv_14.champsimtrace.xz
Heartbeat CPU 0 instructions: 70000001 cycles: 78295832 heartbeat IPC: 0.312128 cumulative IPC: 0.311934 (Simulation time: 0 hr 4 min 40 sec) 
Heartbeat CPU 0 instructions: 80000002 cycles: 110286740 heartbeat IPC: 0.312589 cumulative IPC: 0.312152 (Simulation time: 0 hr 5 min 40 sec) 
Heartbeat CPU 0 instructions: 90000002 cycles: 142282153 heartbeat IPC: 0.312545 cumulative IPC: 0.31225 (Simulation time: 0 hr 6 min 40 sec) 
*** Reached end of trace for Core: 0 Repeating trace: traces/spec2k17/srv_14.champsimtrace.xz
Heartbeat CPU 0 instructions: 100000001 cycles: 174312314 heartbeat IPC: 0.312206 cumulative IPC: 0.312241 (Simulation time: 0 hr 7 min 40 sec) 
Heartbeat CPU 0 instructions: 110000000 cycles: 206273505 heartbeat IPC: 0.312879 cumulative IPC: 0.312347 (Simulation time: 0 hr 8 min 39 sec) 
Heartbeat CPU 0 instructions: 120000000 cycles: 238314624 heartbeat IPC: 0.312099 cumulative IPC: 0.312312 (Simulation time: 0 hr 9 min 36 sec) 
*** Reached end of trace for Core: 0 Repeating trace: traces/spec2k17/srv_14.champsimtrace.xz
Heartbeat CPU 0 instructions: 130000000 cycles: 270259183 heartbeat IPC: 0.313042 cumulative IPC: 0.312403 (Simulation time: 0 hr 10 min 24 sec) 
Heartbeat CPU 0 instructions: 140000001 cycles: 302319384 heartbeat IPC: 0.311913 cumulative IPC: 0.312348 (Simulation time: 0 hr 11 min 24 sec) 
Heartbeat CPU 0 instructions: 150000002 cycles: 334252130 heartbeat IPC: 0.313158 cumulative IPC: 0.312429 (Simulation time: 0 hr 12 min 24 sec) 
*** Reached end of trace for Core: 0 Repeating trace: traces/spec2k17/srv_14.champsimtrace.xz
Heartbeat CPU 0 instructions: 160000000 cycles: 366247823 heartbeat IPC: 0.312542 cumulative IPC: 0.31244 (Simulation time: 0 hr 13 min 24 sec) 
Heartbeat CPU 0 instructions: 170000001 cycles: 398252863 heartbeat IPC: 0.312451 cumulative IPC: 0.31244 (Simulation time: 0 hr 14 min 23 sec) 
Heartbeat CPU 0 instructions: 180000001 cycles: 430229806 heartbeat IPC: 0.312725 cumulative IPC: 0.312462 (Simulation time: 0 hr 15 min 13 sec) 
*** Reached end of trace for Core: 0 Repeating trace: traces/spec2k17/srv_14.champsimtrace.xz
Heartbeat CPU 0 instructions: 190000000 cycles: 462181276 heartbeat IPC: 0.312975 cumulative IPC: 0.312499 (Simulation time: 0 hr 15 min 55 sec) 
Heartbeat CPU 0 instructions: 200000000 cycles: 494210384 heartbeat IPC: 0.312216 cumulative IPC: 0.31248 (Simulation time: 0 hr 16 min 55 sec) 
Heartbeat CPU 0 instructions: 210000003 cycles: 526147005 heartbeat IPC: 0.31312 cumulative IPC: 0.31252 (Simulation time: 0 hr 17 min 56 sec) 
*** Reached end of trace for Core: 0 Repeating trace: traces/spec2k17/srv_14.champsimtrace.xz
Heartbeat CPU 0 instructions: 220000000 cycles: 558104782 heartbeat IPC: 0.312913 cumulative IPC: 0.312543 (Simulation time: 0 hr 18 min 56 sec) 
Heartbeat CPU 0 instructions: 230000000 cycles: 590119189 heartbeat IPC: 0.312359 cumulative IPC: 0.312533 (Simulation time: 0 hr 19 min 55 sec) 
Heartbeat CPU 0 instructions: 240000001 cycles: 622069093 heartbeat IPC: 0.31299 cumulative IPC: 0.312557 (Simulation time: 0 hr 20 min 55 sec) 
Heartbeat CPU 0 instructions: 250000001 cycles: 654014193 heartbeat IPC: 0.313037 cumulative IPC: 0.312581 (Simulation time: 0 hr 21 min 36 sec) 
Finished CPU 0 instructions: 200000000 cycles: 639834511 cumulative IPC: 0.312581 (Simulation time: 0 hr 21 min 36 sec) 

ChampSim completed all CPUs

Region of Interest Statistics

CPU 0 cumulative IPC: 0.312581 instructions: 200000000 cycles: 639834511
ITLB TOTAL     ACCESS:   35627059  HIT:   33403617  MISS:    2223442  HIT %:    93.7591  MISS %:    6.24088   MPKI: 11.1172
ITLB LOAD TRANSLATION ACCESS:   35627059  HIT:   33403617  MISS:    2223442  HIT %:    93.7591  MISS %:    6.24088   MPKI: 11.1172
ITLB PREFETCH  REQUESTED:          0  ISSUED:          0  USEFUL:          0  USELESS:          0
ITLB USEFUL LOAD PREFETCHES:          0 PREFETCH ISSUED TO LOWER LEVEL:          0  ACCURACY: -nan
ITLB TIMELY PREFETCHES:          0 LATE PREFETCHES: 0 DROPPED PREFETCHES: 0
ITLB PREFETCHES SAME FILL-ORIGIN LEVEL: 0 DIFFERENT FILL-ORIGIN LEVEL: 0
ITLB AVERAGE MISS LATENCY: 9.16876 cycles
ITLB RQ	ACCESS:   41875808	FORWARD:          0	MERGED:    5724660	TO_CACHE:   36151148

DTLB TOTAL     ACCESS:   45893049  HIT:   43889742  MISS:    2003307  HIT %:    95.6348  MISS %:    4.36516   MPKI: 10.0165
DTLB LOAD TRANSLATION ACCESS:   45893049  HIT:   43889742  MISS:    2003307  HIT %:    95.6348  MISS %:    4.36516   MPKI: 10.0165
DTLB PREFETCH  REQUESTED:          0  ISSUED:          0  USEFUL:          0  USELESS:          0
DTLB USEFUL LOAD PREFETCHES:          0 PREFETCH ISSUED TO LOWER LEVEL:          0  ACCURACY: -nan
DTLB TIMELY PREFETCHES:          0 LATE PREFETCHES: 0 DROPPED PREFETCHES: 0
DTLB PREFETCHES SAME FILL-ORIGIN LEVEL: 0 DIFFERENT FILL-ORIGIN LEVEL: 0
DTLB AVERAGE MISS LATENCY: 9.23183 cycles
DTLB RQ	ACCESS:   60612508	FORWARD:          0	MERGED:   14661625	TO_CACHE:   45950883

STLB TOTAL     ACCESS:    5540594  HIT:    5513154  MISS:      27440  HIT %:    99.5047  MISS %:   0.495254   MPKI: 0.1372
STLB LOAD TRANSLATION ACCESS:    4226749  HIT:    4199309  MISS:      27440  HIT %:    99.3508  MISS %:   0.649199   MPKI: 0.1372
STLB TRANSLATION FROM L1D PREFETCHER ACCESS:    1313845  HIT:    1313845  MISS:          0  HIT %:        100  MISS %:          0   MPKI: 0
STLB PREFETCH  REQUESTED:          0  ISSUED:          0  USEFUL:          0  USELESS:          0
STLB USEFUL LOAD PREFETCHES:          0 PREFETCH ISSUED TO LOWER LEVEL:          0  ACCURACY: -nan
STLB TIMELY PREFETCHES:          0 LATE PREFETCHES: 0 DROPPED PREFETCHES: 0
STLB PREFETCHES SAME FILL-ORIGIN LEVEL: 0 DIFFERENT FILL-ORIGIN LEVEL: 0
STLB AVERAGE MISS LATENCY: 29.7223 cycles
STLB RQ	ACCESS:    9135241	FORWARD:          0	MERGED:    3594647	TO_CACHE:    5540594

STLB Hit, L1D data hit: 0
STLB Hit, L2C data hit: 0
STLB Hit, LLC data hit: 0
STLB Hit, LLC data miss: 0
STLB STLB hints to L2: 0
L1D TOTAL     ACCESS:   64251238  HIT:   58387199  MISS:    5864039  HIT %:    90.8733  MISS %:    9.12673   MPKI: 29.3202
L1D LOAD      ACCESS:   34140100  HIT:   32541618  MISS:    1598482  HIT %:    95.3179  MISS %:    4.68212   MPKI: 7.99241
L1D RFO       ACCESS:   25437725  HIT:   24772476  MISS:     665249  HIT %:    97.3848  MISS %:    2.61521   MPKI: 3.32625
L1D PREFETCH  ACCESS:    4673413  HIT:    1073105  MISS:    3600308  HIT %:    22.9619  MISS %:    77.0381   MPKI: 18.0015
AGUS PREFETCH L1 MISS: 0
L1D PREFETCH  REQUESTED:    9821287  ISSUED:    9821287  USEFUL:    3226298  USELESS:     374046
L1D USEFUL LOAD PREFETCHES:    3226298 PREFETCH ISSUED TO LOWER LEVEL:    3709136  ACCURACY: 86.9825
L1D TIMELY PREFETCHES:    3226298 LATE PREFETCHES: 57379 DROPPED PREFETCHES: 0
L1D PREFETCHES SAME FILL-ORIGIN LEVEL: 3662051 DIFFERENT FILL-ORIGIN LEVEL: 47085
L1D AVERAGE MISS LATENCY: 3.52363e+06 cycles
L1D RQ	ACCESS:   46543184	FORWARD:          0	MERGED:   12042988	TO_CACHE:   34179858
L1D WQ	ACCESS:   26571628	FORWARD:     324608	MERGED:     138978	TO_CACHE:   26432650
L1D PQ	ACCESS:    4912795	FORWARD:          0	MERGED:         33	TO_CACHE:    4908492

L1D UNIQUE REGIONS ACCESSED: 0
L1D REGIONS CONFLICTS: 0
L1D Cross Page Prefetch Requests: 0
L1D Same Page Prefetch Requests: 6084609
L1D ROI Sum of L1D PQ occupancy: 70954212
L1D PREFETCHES PUSHED FROM L2C: 0
L1I TOTAL     ACCESS:   40231297  HIT:   28937020  MISS:   11294277  HIT %:    71.9266  MISS %:    28.0734   MPKI: 56.4714
L1I LOAD      ACCESS:   40231297  HIT:   28937020  MISS:   11294277  HIT %:    71.9266  MISS %:    28.0734   MPKI: 56.4714
L1I PREFETCH  REQUESTED:          0  ISSUED:          0  USEFUL:          0  USELESS:          0
L1I USEFUL LOAD PREFETCHES:          0 PREFETCH ISSUED TO LOWER LEVEL:          0  ACCURACY: -nan
L1I TIMELY PREFETCHES:          0 LATE PREFETCHES: 0 DROPPED PREFETCHES: 0
L1I PREFETCHES SAME FILL-ORIGIN LEVEL: 0 DIFFERENT FILL-ORIGIN LEVEL: 0
L1I AVERAGE MISS LATENCY: 15.7655 cycles
L1I RQ	ACCESS:   58201861	FORWARD:          0	MERGED:   16326053	TO_CACHE:   41875808

BTB TOTAL     ACCESS:   30318302  HIT:   17551381  MISS:   12766921  HIT %:    57.8904  MISS %:    42.1096   MPKI: 63.8346
BTB BRANCH_DIRECT_JUMP	ACCESS:    1886938  HIT:    1046620  MISS:     840318
BTB BRANCH_INDIRECT	ACCESS:   11997162  HIT:    7128170  MISS:    4868992
BTB BRANCH_CONDITIONAL	ACCESS:    7233043  HIT:    5926175  MISS:    1306868
BTB BRANCH_DIRECT_CALL	ACCESS:    3870839  HIT:    1774369  MISS:    2096470
BTB BRANCH_INDIRECT_CALL	ACCESS:     729710  HIT:     345433  MISS:     384277
BTB BRANCH_RETURN	ACCESS:    4600610  HIT:    1330614  MISS:    3269996
BTB BRANCH_OTHER ACCESS:          0  HIT:          0  MISS:          0

L2C TOTAL     ACCESS:   19535844  HIT:   18353486  MISS:    1182358  HIT %:    93.9478  MISS %:    6.05225   MPKI: 5.91179
L2C LOAD      ACCESS:   12835368  HIT:   12062913  MISS:     772455  HIT %:    93.9818  MISS %:    6.01818   MPKI: 3.86227
L2C DATA LOAD MPKI: 0.67735
L2C INSTRUCTION LOAD MPKI: 3.18492
L2C RFO       ACCESS:     660884  HIT:     603428  MISS:      57456  HIT %:    91.3062  MISS %:    8.69381   MPKI: 0.28728
L2C PREFETCH  ACCESS:    3709017  HIT:    3399275  MISS:     309742  HIT %:    91.6489  MISS %:    8.35105   MPKI: 1.54871
AGUS PREFETCH L1 MISS: 0
L2C DATA PREFETCH MPKI: 1.54871
L2C INSTRUCTION PREFETCH MPKI: 0
L2C WRITEBACK ACCESS:    2301960  HIT:    2268531  MISS:      33429  HIT %:    98.5478  MISS %:     1.4522   MPKI: 0.167145
L2C LOAD TRANSLATION ACCESS:      28615  HIT:      19339  MISS:       9276  HIT %:    67.5834  MISS %:    32.4166   MPKI: 0.04638
L2C PREFETCH  REQUESTED:          0  ISSUED:          0  USEFUL:      15165  USELESS:     294661
L2C USEFUL LOAD PREFETCHES:      15165 PREFETCH ISSUED TO LOWER LEVEL:     309852  ACCURACY: 4.89427
L2C TIMELY PREFETCHES:      15165 LATE PREFETCHES: 110 DROPPED PREFETCHES: 0
L2C PREFETCHES SAME FILL-ORIGIN LEVEL: 21553 DIFFERENT FILL-ORIGIN LEVEL: 0
L2C AVERAGE MISS LATENCY: 29.4263 cycles
L2C RQ	ACCESS:   13524880	FORWARD:          0	MERGED:          0	TO_CACHE:   13524867
L2C WQ	ACCESS:    2301960	FORWARD:         22	MERGED:          0	TO_CACHE:    2301960
L2C PQ	ACCESS:    3709136	FORWARD:          0	MERGED:          0	TO_CACHE:    3709127

L2C Instructions Evicting Data 270965
L2C Translations Evicting Data 5417
L2C Data Evicting Data 244522
L2C Instructions Evicting Instructions 362465
L2C Translations Evicting Instructions 3304
L2C Data Evicting Instructions 253044
L2C Instructions Evicting Translations 3555
L2C Translations Evicting Translations 555
L2C Data Evicting Translations 5102
L2C Dense regions hint from L2: 0
PSCL5 TOTAL     ACCESS:      27440  HIT:      27440  MISS:          0  HIT %:        100  MISS %:          0   MPKI: 0
PSCL5 LOAD TRANSLATION ACCESS:      27440  HIT:      27440  MISS:          0  HIT %:        100  MISS %:          0   MPKI: 0
PSCL5 PREFETCH  REQUESTED:          0  ISSUED:          0  USEFUL:          0  USELESS:          0
PSCL5 USEFUL LOAD PREFETCHES:          0 PREFETCH ISSUED TO LOWER LEVEL:          0  ACCURACY: -nan
PSCL5 TIMELY PREFETCHES:          0 LATE PREFETCHES: 0 DROPPED PREFETCHES: 0
PSCL5 PREFETCHES SAME FILL-ORIGIN LEVEL: 0 DIFFERENT FILL-ORIGIN LEVEL: 0

PSCL4 TOTAL     ACCESS:      25770  HIT:      25740  MISS:         30  HIT %:    99.8836  MISS %:   0.116414   MPKI: 0.00015
PSCL4 LOAD TRANSLATION ACCESS:      25770  HIT:      25740  MISS:         30  HIT %:    99.8836  MISS %:   0.116414   MPKI: 0.00015
PSCL4 PREFETCH  REQUESTED:          0  ISSUED:          0  USEFUL:          0  USELESS:          0
PSCL4 USEFUL LOAD PREFETCHES:          0 PREFETCH ISSUED TO LOWER LEVEL:          0  ACCURACY: -nan
PSCL4 TIMELY PREFETCHES:          0 LATE PREFETCHES: 0 DROPPED PREFETCHES: 0
PSCL4 PREFETCHES SAME FILL-ORIGIN LEVEL: 0 DIFFERENT FILL-ORIGIN LEVEL: 0

PSCL3 TOTAL     ACCESS:      26999  HIT:      26969  MISS:         30  HIT %:    99.8889  MISS %:   0.111115   MPKI: 0.00015
PSCL3 LOAD TRANSLATION ACCESS:      26999  HIT:      26969  MISS:         30  HIT %:    99.8889  MISS %:   0.111115   MPKI: 0.00015
PSCL3 PREFETCH  REQUESTED:          0  ISSUED:          0  USEFUL:          0  USELESS:          0
PSCL3 USEFUL LOAD PREFETCHES:          0 PREFETCH ISSUED TO LOWER LEVEL:          0  ACCURACY: -nan
PSCL3 TIMELY PREFETCHES:          0 LATE PREFETCHES: 0 DROPPED PREFETCHES: 0
PSCL3 PREFETCHES SAME FILL-ORIGIN LEVEL: 0 DIFFERENT FILL-ORIGIN LEVEL: 0

PSCL2 TOTAL     ACCESS:      27440  HIT:      26325  MISS:       1115  HIT %:    95.9366  MISS %:    4.06341   MPKI: 0.005575
PSCL2 LOAD TRANSLATION ACCESS:      27440  HIT:      26325  MISS:       1115  HIT %:    95.9366  MISS %:    4.06341   MPKI: 0.005575
PSCL2 PREFETCH  REQUESTED:          0  ISSUED:          0  USEFUL:          0  USELESS:          0
PSCL2 USEFUL LOAD PREFETCHES:          0 PREFETCH ISSUED TO LOWER LEVEL:          0  ACCURACY: -nan
PSCL2 TIMELY PREFETCHES:          0 LATE PREFETCHES: 0 DROPPED PREFETCHES: 0
PSCL2 PREFETCHES SAME FILL-ORIGIN LEVEL: 0 DIFFERENT FILL-ORIGIN LEVEL: 0

LLC TOTAL     ACCESS:    1287801  HIT:    1285715  MISS:       2086  HIT %:     99.838  MISS %:   0.161982   MPKI: 0.01043
LLC LOAD      ACCESS:     772345  HIT:     771794  MISS:        551  HIT %:    99.9287  MISS %:  0.0713412   MPKI: 0.002755
LLC RFO       ACCESS:      57456  HIT:      57371  MISS:         85  HIT %:    99.8521  MISS %:   0.147939   MPKI: 0.000425
LLC PREFETCH  ACCESS:     309852  HIT:     308412  MISS:       1440  HIT %:    99.5353  MISS %:   0.464738   MPKI: 0.0072
AGUS PREFETCH L1 MISS: 0
LLC WRITEBACK ACCESS:     138872  HIT:     138862  MISS:         10  HIT %:    99.9928  MISS %: 0.00720088   MPKI: 5e-05
LLC LOAD TRANSLATION ACCESS:       9276  HIT:       9276  MISS:          0  HIT %:        100  MISS %:          0   MPKI: 0
LLC PREFETCH  REQUESTED:          0  ISSUED:          0  USEFUL:        266  USELESS:       1213
LLC USEFUL LOAD PREFETCHES:        266 PREFETCH ISSUED TO LOWER LEVEL:       1440  ACCURACY: 18.4722
LLC TIMELY PREFETCHES:        266 LATE PREFETCHES: 0 DROPPED PREFETCHES: 0
LLC PREFETCHES SAME FILL-ORIGIN LEVEL: 0 DIFFERENT FILL-ORIGIN LEVEL: 0
LLC AVERAGE MISS LATENCY: 158.146 cycles
LLC RQ	ACCESS:     839077	FORWARD:          0	MERGED:          0	TO_CACHE:     839077
LLC WQ	ACCESS:     138872	FORWARD:          0	MERGED:          0	TO_CACHE:     138872
LLC PQ	ACCESS:     309852	FORWARD:          0	MERGED:          0	TO_CACHE:     309852

LLC Dense regions hint to LLC: 0

RAW hits: 1413278
Loads Generated: 47956462
Loads sent to L1D: 46543184
Stores Generated: 26571616
Stores sent to L1D: 26571628
Major fault: 0 Minor fault: 1781
Allocated PAGES: 1781
[Bingo] PHT Access: 1667441
[Bingo] PHT Hit PC+Addr: 1125233
[Bingo] PHT Hit PC+Offs: 51876
[Bingo] PHT Miss: 490332
[Bingo] Prefetch PC+Addr: 0
[Bingo] Prefetch PC+Offs: 0
[Bingo] Useful PC+Addr: 0
[Bingo] Useful PC+Offs: 0
[Bingo] Useless PC+Addr: 0
[Bingo] Useless PC+Offs: 0
[Bingo] L1 Prefetch per Region: 5.13441
[Bingo] L2 Prefetch per Region: 0.0412145
[Bingo] L3 Prefetch per Region: 0
[Bingo] No Prefetch per Region: 26.8244
[Bingo] Number of Voters Mean: 4.75964
[Bingo] Number of Voters SD: 6.32686
PHT read accesses: 5492742
PHT write accesses: 932572
AT read accesses: 27478806
AT write accesses: 27480509
FT read accesses: 15050952
FT write accesses: 1667441
PS read accesses: 2574947
PS write accesses: 1177109
PHT tag read accesses: 25647498
PHT tag write accesses: 2057805
AT tag read accesses: 676029077
AT tag write accesses: 28411377
FT tag read accesses: 289136602
FT tag write accesses: 9821342
PS tag read accesses: 585801722
PS tag write accesses: 3751737

DRAM Statistics
 CHANNEL 0
 RQ ROW_BUFFER_HIT:        248  ROW_BUFFER_MISS:       1828
 DBUS_CONGESTED:          1
 WQ ROW_BUFFER_HIT:          1  ROW_BUFFER_MISS:        185  FULL:          0

 AVG_CONGESTED_CYCLE: 2
 All warmup complete: 2
Channel 0 Bank busy for read cycles: 0
Channel 0 Bank busy for write cycles: 0
Channel 0
Rank 0
0banks busy for read cycles: 639570101
0banks busy for write cycles: 168
1banks busy for read cycles: 205066
1banks busy for write cycles: 23873
2banks busy for read cycles: 24802
2banks busy for write cycles: 1290
3banks busy for read cycles: 5363
3banks busy for write cycles: 402
4banks busy for read cycles: 1682
4banks busy for write cycles: 141
5banks busy for read cycles: 1065
5banks busy for write cycles: 0
6banks busy for read cycles: 314
6banks busy for write cycles: 0
7banks busy for read cycles: 54
7banks busy for write cycles: 0
8banks busy for read cycles: 191
8banks busy for write cycles: 0

CPU 0 Branch Prediction Accuracy: 99.8925% MPKI: 0.1929 Average ROB Occupancy at Mispredict: 28.3629
Branch types
NOT_BRANCH: 164102656 82.0513%
BRANCH_DIRECT_JUMP: 1886938 0.943469%
BRANCH_INDIRECT: 11997162 5.99858%
BRANCH_CONDITIONAL: 12811848 6.40592%
BRANCH_DIRECT_CALL: 3870839 1.93542%
BRANCH_INDIRECT_CALL: 729710 0.364855%
BRANCH_RETURN: 4600610 2.3003%
BRANCH_OTHER: 0 0%

DRAM PAGES: 1048576
Allocated PAGES: 1781
