
*** ChampSim Multicore Out-of-Order Simulator ***

Warmup Instructions: 50000000
Simulation Instructions: 200000000
Number of CPUs: 1
LLC sets: 2048
LLC ways: 16
Off-chip DRAM Size: 4096 MB Channels: 1 Width: 64-bit Data Rate: 6400 MT/s
CPU 0 runs traces/spec2k17/srv_52.champsimtrace.xz
.xz
BTB has LRU replacement policy
ITLB has LRU replacement policy
DTLB has LRU replacement policy
STLB has LRU replacement policy
L1I has LRU replacement policy
Bingo PHT WAYS: 16 and PHT_SIZE: 16384
L1D has LRU replacement policy
Initialize SRRIP state for L2C
Initialize DRRIP state for LLC
Heartbeat CPU 0 instructions: 10000000 cycles: 2941976 heartbeat IPC: 3.39908 cumulative IPC: 3.39908 (Simulation time: 0 hr 0 min 24 sec) 
Heartbeat CPU 0 instructions: 20000003 cycles: 5876311 heartbeat IPC: 3.40793 cumulative IPC: 3.4035 (Simulation time: 0 hr 0 min 47 sec) 
Heartbeat CPU 0 instructions: 30000001 cycles: 8803692 heartbeat IPC: 3.41602 cumulative IPC: 3.40766 (Simulation time: 0 hr 1 min 10 sec) 
*** Reached end of trace for Core: 0 Repeating trace: traces/spec2k17/srv_52.champsimtrace.xz
Heartbeat CPU 0 instructions: 40000001 cycles: 11738766 heartbeat IPC: 3.40707 cumulative IPC: 3.40751 (Simulation time: 0 hr 1 min 33 sec) 
Heartbeat CPU 0 instructions: 50000001 cycles: 14672657 heartbeat IPC: 3.40844 cumulative IPC: 3.4077 (Simulation time: 0 hr 1 min 57 sec) 

Warmup complete CPU 0 instructions: 50000001 cycles: 14672657 (Simulation time: 0 hr 1 min 57 sec) 

Heartbeat CPU 0 instructions: 60000000 cycles: 46761080 heartbeat IPC: 0.311639 cumulative IPC: 0.311639 (Simulation time: 0 hr 2 min 33 sec) 
*** Reached end of trace for Core: 0 Repeating trace: traces/spec2k17/srv_52.champsimtrace.xz
Heartbeat CPU 0 instructions: 70000000 cycles: 78375196 heartbeat IPC: 0.316314 cumulative IPC: 0.313959 (Simulation time: 0 hr 3 min 10 sec) 
Heartbeat CPU 0 instructions: 80000000 cycles: 111649630 heartbeat IPC: 0.300531 cumulative IPC: 0.309352 (Simulation time: 0 hr 3 min 47 sec) 
Heartbeat CPU 0 instructions: 90000000 cycles: 143616592 heartbeat IPC: 0.312823 cumulative IPC: 0.310212 (Simulation time: 0 hr 4 min 24 sec) 
*** Reached end of trace for Core: 0 Repeating trace: traces/spec2k17/srv_52.champsimtrace.xz
Heartbeat CPU 0 instructions: 100000000 cycles: 175423115 heartbeat IPC: 0.314401 cumulative IPC: 0.311041 (Simulation time: 0 hr 5 min 1 sec) 
Heartbeat CPU 0 instructions: 110000000 cycles: 207940156 heartbeat IPC: 0.307531 cumulative IPC: 0.310451 (Simulation time: 0 hr 5 min 38 sec) 
Heartbeat CPU 0 instructions: 120000000 cycles: 240444177 heartbeat IPC: 0.307654 cumulative IPC: 0.310048 (Simulation time: 0 hr 6 min 15 sec) 
*** Reached end of trace for Core: 0 Repeating trace: traces/spec2k17/srv_52.champsimtrace.xz
Heartbeat CPU 0 instructions: 130000002 cycles: 272085397 heartbeat IPC: 0.316043 cumulative IPC: 0.310785 (Simulation time: 0 hr 6 min 52 sec) 
Heartbeat CPU 0 instructions: 140000000 cycles: 304725792 heartbeat IPC: 0.306369 cumulative IPC: 0.310288 (Simulation time: 0 hr 7 min 29 sec) 
Heartbeat CPU 0 instructions: 150000000 cycles: 336914575 heartbeat IPC: 0.310667 cumulative IPC: 0.310326 (Simulation time: 0 hr 8 min 6 sec) 
*** Reached end of trace for Core: 0 Repeating trace: traces/spec2k17/srv_52.champsimtrace.xz
Heartbeat CPU 0 instructions: 160000000 cycles: 368482271 heartbeat IPC: 0.31678 cumulative IPC: 0.310902 (Simulation time: 0 hr 8 min 42 sec) 
Heartbeat CPU 0 instructions: 170000000 cycles: 401391150 heartbeat IPC: 0.303869 cumulative IPC: 0.310303 (Simulation time: 0 hr 9 min 19 sec) 
Heartbeat CPU 0 instructions: 180000000 cycles: 433288117 heartbeat IPC: 0.313509 cumulative IPC: 0.310548 (Simulation time: 0 hr 9 min 56 sec) 
*** Reached end of trace for Core: 0 Repeating trace: traces/spec2k17/srv_52.champsimtrace.xz
Heartbeat CPU 0 instructions: 190000001 cycles: 465094794 heartbeat IPC: 0.314399 cumulative IPC: 0.31082 (Simulation time: 0 hr 10 min 33 sec) 
Heartbeat CPU 0 instructions: 200000001 cycles: 497803046 heartbeat IPC: 0.305733 cumulative IPC: 0.310475 (Simulation time: 0 hr 11 min 11 sec) 
Heartbeat CPU 0 instructions: 210000003 cycles: 530064187 heartbeat IPC: 0.30997 cumulative IPC: 0.310444 (Simulation time: 0 hr 11 min 49 sec) 
*** Reached end of trace for Core: 0 Repeating trace: traces/spec2k17/srv_52.champsimtrace.xz
Heartbeat CPU 0 instructions: 220000000 cycles: 561904251 heartbeat IPC: 0.31407 cumulative IPC: 0.310655 (Simulation time: 0 hr 12 min 28 sec) 
Heartbeat CPU 0 instructions: 230000001 cycles: 594429863 heartbeat IPC: 0.30745 cumulative IPC: 0.310475 (Simulation time: 0 hr 13 min 5 sec) 
Heartbeat CPU 0 instructions: 240000000 cycles: 626517279 heartbeat IPC: 0.311649 cumulative IPC: 0.310536 (Simulation time: 0 hr 13 min 43 sec) 
*** Reached end of trace for Core: 0 Repeating trace: traces/spec2k17/srv_52.champsimtrace.xz
Heartbeat CPU 0 instructions: 250000000 cycles: 658658947 heartbeat IPC: 0.311123 cumulative IPC: 0.310566 (Simulation time: 0 hr 14 min 24 sec) 
Finished CPU 0 instructions: 200000003 cycles: 643986291 cumulative IPC: 0.310566 (Simulation time: 0 hr 14 min 24 sec) 

ChampSim completed all CPUs

Region of Interest Statistics

CPU 0 cumulative IPC: 0.310566 instructions: 200000003 cycles: 643986291
ITLB TOTAL     ACCESS:   34829925  HIT:   33188836  MISS:    1641089  HIT %:    95.2883  MISS %:    4.71172   MPKI: 8.20544
ITLB LOAD TRANSLATION ACCESS:   34829925  HIT:   33188836  MISS:    1641089  HIT %:    95.2883  MISS %:    4.71172   MPKI: 8.20544
ITLB PREFETCH  REQUESTED:          0  ISSUED:          0  USEFUL:          0  USELESS:          0
ITLB USEFUL LOAD PREFETCHES:          0 PREFETCH ISSUED TO LOWER LEVEL:          0  ACCURACY: -nan
ITLB TIMELY PREFETCHES:          0 LATE PREFETCHES: 0 DROPPED PREFETCHES: 0
ITLB PREFETCHES SAME FILL-ORIGIN LEVEL: 0 DIFFERENT FILL-ORIGIN LEVEL: 0
ITLB AVERAGE MISS LATENCY: 10.1497 cycles
ITLB RQ	ACCESS:   41091645	FORWARD:          0	MERGED:    5808366	TO_CACHE:   35283279

DTLB TOTAL     ACCESS:   43749942  HIT:   42060761  MISS:    1689181  HIT %:     96.139  MISS %:    3.86099   MPKI: 8.4459
DTLB LOAD TRANSLATION ACCESS:   43749942  HIT:   42060761  MISS:    1689181  HIT %:     96.139  MISS %:    3.86099   MPKI: 8.4459
DTLB PREFETCH  REQUESTED:          0  ISSUED:          0  USEFUL:          0  USELESS:          0
DTLB USEFUL LOAD PREFETCHES:          0 PREFETCH ISSUED TO LOWER LEVEL:          0  ACCURACY: -nan
DTLB TIMELY PREFETCHES:          0 LATE PREFETCHES: 0 DROPPED PREFETCHES: 0
DTLB PREFETCHES SAME FILL-ORIGIN LEVEL: 0 DIFFERENT FILL-ORIGIN LEVEL: 0
DTLB AVERAGE MISS LATENCY: 13.189 cycles
DTLB RQ	ACCESS:   59065645	FORWARD:          0	MERGED:   15201887	TO_CACHE:   43863758

STLB TOTAL     ACCESS:    4627859  HIT:    4482307  MISS:     145552  HIT %:    96.8549  MISS %:    3.14513   MPKI: 0.72776
STLB LOAD TRANSLATION ACCESS:    3330270  HIT:    3184785  MISS:     145485  HIT %:    95.6314  MISS %:    4.36856   MPKI: 0.727425
STLB TRANSLATION FROM L1D PREFETCHER ACCESS:    1297589  HIT:    1297522  MISS:         67  HIT %:    99.9948  MISS %: 0.00516342   MPKI: 0.000335
STLB PREFETCH  REQUESTED:          0  ISSUED:          0  USEFUL:         67  USELESS:          0
STLB USEFUL LOAD PREFETCHES:         67 PREFETCH ISSUED TO LOWER LEVEL:          0  ACCURACY: inf
STLB TIMELY PREFETCHES:         67 LATE PREFETCHES: 0 DROPPED PREFETCHES: 0
STLB PREFETCHES SAME FILL-ORIGIN LEVEL: 0 DIFFERENT FILL-ORIGIN LEVEL: 0
STLB AVERAGE MISS LATENCY: 61.4473 cycles
STLB RQ	ACCESS:    7956969	FORWARD:          0	MERGED:    3329110	TO_CACHE:    4627859

STLB Hit, L1D data hit: 0
STLB Hit, L2C data hit: 0
STLB Hit, LLC data hit: 0
STLB Hit, LLC data miss: 0
STLB STLB hints to L2: 0
L1D TOTAL     ACCESS:   62319094  HIT:   57559245  MISS:    4759849  HIT %:    92.3621  MISS %:    7.63787   MPKI: 23.7992
L1D LOAD      ACCESS:   35582807  HIT:   34182662  MISS:    1400145  HIT %:    96.0651  MISS %:    3.93489   MPKI: 7.00072
L1D RFO       ACCESS:   22355723  HIT:   21656264  MISS:     699459  HIT %:    96.8712  MISS %:    3.12877   MPKI: 3.49729
L1D PREFETCH  ACCESS:    4380564  HIT:    1720319  MISS:    2660245  HIT %:    39.2716  MISS %:    60.7284   MPKI: 13.3012
AGUS PREFETCH L1 MISS: 0
L1D PREFETCH  REQUESTED:    9254191  ISSUED:    9254191  USEFUL:    2114309  USELESS:     546019
L1D USEFUL LOAD PREFETCHES:    2114309 PREFETCH ISSUED TO LOWER LEVEL:    2816943  ACCURACY: 75.0569
L1D TIMELY PREFETCHES:    2114309 LATE PREFETCHES: 51240 DROPPED PREFETCHES: 0
L1D PREFETCHES SAME FILL-ORIGIN LEVEL: 2715202 DIFFERENT FILL-ORIGIN LEVEL: 101741
L1D AVERAGE MISS LATENCY: 3.8958e+06 cycles
L1D RQ	ACCESS:   46055882	FORWARD:          0	MERGED:   10216836	TO_CACHE:   35646416
L1D WQ	ACCESS:   23620808	FORWARD:     193397	MERGED:     201579	TO_CACHE:   23419229
L1D PQ	ACCESS:    4627492	FORWARD:          0	MERGED:         26	TO_CACHE:    4626699

L1D UNIQUE REGIONS ACCESSED: 0
L1D REGIONS CONFLICTS: 0
L1D Cross Page Prefetch Requests: 0
L1D Same Page Prefetch Requests: 5691417
L1D ROI Sum of L1D PQ occupancy: 67233088
L1D PREFETCHES PUSHED FROM L2C: 0
L1I TOTAL     ACCESS:   39834307  HIT:   31334552  MISS:    8499755  HIT %:    78.6622  MISS %:    21.3378   MPKI: 42.4988
L1I LOAD      ACCESS:   39834307  HIT:   31334552  MISS:    8499755  HIT %:    78.6622  MISS %:    21.3378   MPKI: 42.4988
L1I PREFETCH  REQUESTED:          0  ISSUED:          0  USEFUL:          0  USELESS:          0
L1I USEFUL LOAD PREFETCHES:          0 PREFETCH ISSUED TO LOWER LEVEL:          0  ACCURACY: -nan
L1I TIMELY PREFETCHES:          0 LATE PREFETCHES: 0 DROPPED PREFETCHES: 0
L1I PREFETCHES SAME FILL-ORIGIN LEVEL: 0 DIFFERENT FILL-ORIGIN LEVEL: 0
L1I AVERAGE MISS LATENCY: 22.2229 cycles
L1I RQ	ACCESS:   60216262	FORWARD:          0	MERGED:   19124617	TO_CACHE:   41091645

BTB TOTAL     ACCESS:   30246496  HIT:   19435978  MISS:   10810518  HIT %:    64.2586  MISS %:    35.7414   MPKI: 54.0526
BTB BRANCH_DIRECT_JUMP	ACCESS:    1982982  HIT:    1218303  MISS:     764679
BTB BRANCH_INDIRECT	ACCESS:   12253769  HIT:    7844105  MISS:    4409664
BTB BRANCH_CONDITIONAL	ACCESS:    7055936  HIT:    6130161  MISS:     925775
BTB BRANCH_DIRECT_CALL	ACCESS:    3467834  HIT:    2019941  MISS:    1447893
BTB BRANCH_INDIRECT_CALL	ACCESS:    1009127  HIT:     529624  MISS:     479503
BTB BRANCH_RETURN	ACCESS:    4476848  HIT:    1693844  MISS:    2783004
BTB BRANCH_OTHER ACCESS:          0  HIT:          0  MISS:          0

L2C TOTAL     ACCESS:   15743498  HIT:   11264072  MISS:    4479426  HIT %:    71.5475  MISS %:    28.4525   MPKI: 22.3971
L2C LOAD      ACCESS:    9848637  HIT:    7107838  MISS:    2740799  HIT %:    72.1708  MISS %:    27.8292   MPKI: 13.704
L2C DATA LOAD MPKI: 2.35521
L2C INSTRUCTION LOAD MPKI: 11.3488
L2C RFO       ACCESS:     695735  HIT:     297661  MISS:     398074  HIT %:    42.7837  MISS %:    57.2163   MPKI: 1.99037
L2C PREFETCH  ACCESS:    2816324  HIT:    1720028  MISS:    1096296  HIT %:    61.0735  MISS %:    38.9265   MPKI: 5.48148
AGUS PREFETCH L1 MISS: 0
L2C DATA PREFETCH MPKI: 5.48148
L2C INSTRUCTION PREFETCH MPKI: 0
L2C WRITEBACK ACCESS:    2158939  HIT:    2032309  MISS:     126630  HIT %:    94.1346  MISS %:    5.86538   MPKI: 0.63315
L2C LOAD TRANSLATION ACCESS:     223784  HIT:     106224  MISS:     117560  HIT %:    47.4672  MISS %:    52.5328   MPKI: 0.5878
L2C TRANSLATION FROM L1D PREFETCHER ACCESS:         79  HIT:         12  MISS:         67  HIT %:    15.1899  MISS %:    84.8101   MPKI: 0.000335
L2C PREFETCH  REQUESTED:          0  ISSUED:          0  USEFUL:     125674  USELESS:     970677
L2C USEFUL LOAD PREFETCHES:     125674 PREFETCH ISSUED TO LOWER LEVEL:    1096838  ACCURACY: 11.4578
L2C TIMELY PREFETCHES:     125674 LATE PREFETCHES: 542 DROPPED PREFETCHES: 0
L2C PREFETCHES SAME FILL-ORIGIN LEVEL: 69464 DIFFERENT FILL-ORIGIN LEVEL: 0
L2C AVERAGE MISS LATENCY: 48.726 cycles
L2C RQ	ACCESS:   10768281	FORWARD:          0	MERGED:          0	TO_CACHE:   10768251
L2C WQ	ACCESS:    2158940	FORWARD:        107	MERGED:          0	TO_CACHE:    2158940
L2C PQ	ACCESS:    2816943	FORWARD:          0	MERGED:          0	TO_CACHE:    2816866

L2C Instructions Evicting Data 931648
L2C Translations Evicting Data 63803
L2C Data Evicting Data 1033520
L2C Instructions Evicting Instructions 1289357
L2C Translations Evicting Instructions 49247
L2C Data Evicting Instructions 870634
L2C Instructions Evicting Translations 48752
L2C Translations Evicting Translations 4577
L2C Data Evicting Translations 61258
L2C Dense regions hint from L2: 0
PSCL5 TOTAL     ACCESS:     145552  HIT:     145552  MISS:          0  HIT %:        100  MISS %:          0   MPKI: 0
PSCL5 LOAD TRANSLATION ACCESS:     145485  HIT:     145485  MISS:          0  HIT %:        100  MISS %:          0   MPKI: 0
PSCL5 TRANSLATION FROM L1D PREFETCHER ACCESS:         67  HIT:         67  MISS:          0  HIT %:        100  MISS %:          0   MPKI: 0
PSCL5 PREFETCH  REQUESTED:          0  ISSUED:          0  USEFUL:          0  USELESS:          0
PSCL5 USEFUL LOAD PREFETCHES:          0 PREFETCH ISSUED TO LOWER LEVEL:          0  ACCURACY: -nan
PSCL5 TIMELY PREFETCHES:          0 LATE PREFETCHES: 0 DROPPED PREFETCHES: 0
PSCL5 PREFETCHES SAME FILL-ORIGIN LEVEL: 0 DIFFERENT FILL-ORIGIN LEVEL: 0

PSCL4 TOTAL     ACCESS:     141588  HIT:     140371  MISS:       1217  HIT %:    99.1405  MISS %:   0.859536   MPKI: 0.006085
PSCL4 LOAD TRANSLATION ACCESS:     141521  HIT:     140304  MISS:       1217  HIT %:    99.1401  MISS %:   0.859943   MPKI: 0.006085
PSCL4 TRANSLATION FROM L1D PREFETCHER ACCESS:         67  HIT:         67  MISS:          0  HIT %:        100  MISS %:          0   MPKI: 0
PSCL4 PREFETCH  REQUESTED:          0  ISSUED:          0  USEFUL:          0  USELESS:          0
PSCL4 USEFUL LOAD PREFETCHES:          0 PREFETCH ISSUED TO LOWER LEVEL:          0  ACCURACY: -nan
PSCL4 TIMELY PREFETCHES:          0 LATE PREFETCHES: 0 DROPPED PREFETCHES: 0
PSCL4 PREFETCHES SAME FILL-ORIGIN LEVEL: 0 DIFFERENT FILL-ORIGIN LEVEL: 0

PSCL3 TOTAL     ACCESS:     134437  HIT:     115123  MISS:      19314  HIT %:    85.6334  MISS %:    14.3666   MPKI: 0.09657
PSCL3 LOAD TRANSLATION ACCESS:     134380  HIT:     115066  MISS:      19314  HIT %:    85.6273  MISS %:    14.3727   MPKI: 0.09657
PSCL3 TRANSLATION FROM L1D PREFETCHER ACCESS:         57  HIT:         57  MISS:          0  HIT %:        100  MISS %:          0   MPKI: 0
PSCL3 PREFETCH  REQUESTED:          0  ISSUED:          0  USEFUL:          0  USELESS:          0
PSCL3 USEFUL LOAD PREFETCHES:          0 PREFETCH ISSUED TO LOWER LEVEL:          0  ACCURACY: -nan
PSCL3 TIMELY PREFETCHES:          0 LATE PREFETCHES: 0 DROPPED PREFETCHES: 0
PSCL3 PREFETCHES SAME FILL-ORIGIN LEVEL: 0 DIFFERENT FILL-ORIGIN LEVEL: 0

PSCL2 TOTAL     ACCESS:     145552  HIT:      87772  MISS:      57780  HIT %:    60.3028  MISS %:    39.6972   MPKI: 0.2889
PSCL2 LOAD TRANSLATION ACCESS:     145497  HIT:      87717  MISS:      57780  HIT %:    60.2878  MISS %:    39.7122   MPKI: 0.2889
PSCL2 TRANSLATION FROM L1D PREFETCHER ACCESS:         55  HIT:         55  MISS:          0  HIT %:        100  MISS %:          0   MPKI: 0
PSCL2 PREFETCH  REQUESTED:          0  ISSUED:          0  USEFUL:          0  USELESS:          0
PSCL2 USEFUL LOAD PREFETCHES:          0 PREFETCH ISSUED TO LOWER LEVEL:          0  ACCURACY: -nan
PSCL2 TIMELY PREFETCHES:          0 LATE PREFETCHES: 0 DROPPED PREFETCHES: 0
PSCL2 PREFETCHES SAME FILL-ORIGIN LEVEL: 0 DIFFERENT FILL-ORIGIN LEVEL: 0

LLC TOTAL     ACCESS:    5428494  HIT:    5038185  MISS:     390309  HIT %:      92.81  MISS %:    7.19001   MPKI: 1.95154
LLC LOAD      ACCESS:    2740281  HIT:    2664993  MISS:      75288  HIT %:    97.2525  MISS %:    2.74746   MPKI: 0.37644
LLC RFO       ACCESS:     398047  HIT:     262996  MISS:     135051  HIT %:    66.0716  MISS %:    33.9284   MPKI: 0.675255
LLC PREFETCH  ACCESS:    1096829  HIT:     927950  MISS:     168879  HIT %:     84.603  MISS %:     15.397   MPKI: 0.844395
AGUS PREFETCH L1 MISS: 0
LLC WRITEBACK ACCESS:    1075710  HIT:    1074118  MISS:       1592  HIT %:     99.852  MISS %:   0.147995   MPKI: 0.00796
LLC LOAD TRANSLATION ACCESS:     117560  HIT:     108061  MISS:       9499  HIT %:    91.9199  MISS %:    8.08013   MPKI: 0.047495
LLC TRANSLATION FROM L1D PREFETCHER ACCESS:         67  HIT:         67  MISS:          0  HIT %:        100  MISS %:          0   MPKI: 0
LLC PREFETCH  REQUESTED:          0  ISSUED:          0  USEFUL:      15163  USELESS:     153114
LLC USEFUL LOAD PREFETCHES:      15163 PREFETCH ISSUED TO LOWER LEVEL:     168879  ACCURACY: 8.97862
LLC TIMELY PREFETCHES:      15163 LATE PREFETCHES: 0 DROPPED PREFETCHES: 0
LLC PREFETCHES SAME FILL-ORIGIN LEVEL: 0 DIFFERENT FILL-ORIGIN LEVEL: 0
LLC AVERAGE MISS LATENCY: 224.739 cycles
LLC RQ	ACCESS:    3255967	FORWARD:          0	MERGED:          0	TO_CACHE:    3255964
LLC WQ	ACCESS:    1075711	FORWARD:         12	MERGED:          0	TO_CACHE:    1075711
LLC PQ	ACCESS:    1096838	FORWARD:          0	MERGED:          0	TO_CACHE:    1096829

LLC Dense regions hint to LLC: 0

RAW hits: 1919018
Loads Generated: 47974900
Loads sent to L1D: 46055882
Stores Generated: 23620827
Stores sent to L1D: 23620808
Major fault: 0 Minor fault: 5016
Allocated PAGES: 5016
[Bingo] PHT Access: 1589625
[Bingo] PHT Hit PC+Addr: 1145038
[Bingo] PHT Hit PC+Offs: 73568
[Bingo] PHT Miss: 371019
[Bingo] Prefetch PC+Addr: 0
[Bingo] Prefetch PC+Offs: 0
[Bingo] Useful PC+Addr: 0
[Bingo] Useful PC+Offs: 0
[Bingo] Useless PC+Addr: 0
[Bingo] Useless PC+Offs: 0
[Bingo] L1 Prefetch per Region: 4.73596
[Bingo] L2 Prefetch per Region: 0.0952826
[Bingo] L3 Prefetch per Region: 0
[Bingo] No Prefetch per Region: 27.1688
[Bingo] Number of Voters Mean: 4.12008
[Bingo] Number of Voters SD: 4.79083
PHT read accesses: 11195302
PHT write accesses: 898274
AT read accesses: 30120763
AT write accesses: 30124516
FT read accesses: 12750942
FT write accesses: 1589625
PS read accesses: 2599707
PS write accesses: 1218606
PHT tag read accesses: 26018737
PHT tag write accesses: 2043312
AT tag read accesses: 680242515
AT tag write accesses: 31018973
FT tag read accesses: 247962341
FT tag write accesses: 8611868
PS tag read accesses: 611659684
PS tag write accesses: 3814679

DRAM Statistics
 CHANNEL 0
 RQ ROW_BUFFER_HIT:     117243  ROW_BUFFER_MISS:     271474
 DBUS_CONGESTED:         87
 WQ ROW_BUFFER_HIT:      22952  ROW_BUFFER_MISS:     225332  FULL:          0

 AVG_CONGESTED_CYCLE: 4
 All warmup complete: 2
Channel 0 Bank busy for read cycles: 0
Channel 0 Bank busy for write cycles: 0
Channel 0
Rank 0
0banks busy for read cycles: 606924179
0banks busy for write cycles: 71757
1banks busy for read cycles: 12084430
1banks busy for write cycles: 8247458
2banks busy for read cycles: 3342725
2banks busy for write cycles: 2824269
3banks busy for read cycles: 1462648
3banks busy for write cycles: 1352538
4banks busy for read cycles: 961268
4banks busy for write cycles: 748219
5banks busy for read cycles: 575040
5banks busy for write cycles: 498569
6banks busy for read cycles: 491354
6banks busy for write cycles: 362645
7banks busy for read cycles: 533908
7banks busy for write cycles: 345220
8banks busy for read cycles: 1302190
8banks busy for write cycles: 1857875

CPU 0 Branch Prediction Accuracy: 99.8298% MPKI: 0.297015 Average ROB Occupancy at Mispredict: 18.7713
Branch types
NOT_BRANCH: 165095758 82.5479%
BRANCH_DIRECT_JUMP: 1982982 0.991491%
BRANCH_INDIRECT: 12253769 6.12688%
BRANCH_CONDITIONAL: 11713940 5.85697%
BRANCH_DIRECT_CALL: 3467834 1.73392%
BRANCH_INDIRECT_CALL: 1009127 0.504563%
BRANCH_RETURN: 4476848 2.23842%
BRANCH_OTHER: 0 0%

DRAM PAGES: 1048576
Allocated PAGES: 5016
