
*** ChampSim Multicore Out-of-Order Simulator ***

Warmup Instructions: 50000000
Simulation Instructions: 200000000
Number of CPUs: 1
LLC sets: 2048
LLC ways: 16
Off-chip DRAM Size: 4096 MB Channels: 1 Width: 64-bit Data Rate: 6400 MT/s
CPU 0 runs traces/spec2k17/srv_57.champsimtrace.xz
.xz
BTB has LRU replacement policy
ITLB has LRU replacement policy
DTLB has LRU replacement policy
STLB has LRU replacement policy
L1I has LRU replacement policy
Bingo PHT WAYS: 16 and PHT_SIZE: 16384
L1D has LRU replacement policy
Initialize SRRIP state for L2C
Initialize DRRIP state for LLC
Heartbeat CPU 0 instructions: 10000001 cycles: 2832246 heartbeat IPC: 3.53077 cumulative IPC: 3.53077 (Simulation time: 0 hr 0 min 26 sec) 
Heartbeat CPU 0 instructions: 20000001 cycles: 5622229 heartbeat IPC: 3.58425 cumulative IPC: 3.55731 (Simulation time: 0 hr 0 min 50 sec) 
Heartbeat CPU 0 instructions: 30000002 cycles: 8428811 heartbeat IPC: 3.56305 cumulative IPC: 3.55922 (Simulation time: 0 hr 1 min 16 sec) 
*** Reached end of trace for Core: 0 Repeating trace: traces/spec2k17/srv_57.champsimtrace.xz
Heartbeat CPU 0 instructions: 40000002 cycles: 11251504 heartbeat IPC: 3.54272 cumulative IPC: 3.55508 (Simulation time: 0 hr 1 min 42 sec) 
Heartbeat CPU 0 instructions: 50000002 cycles: 14032639 heartbeat IPC: 3.59565 cumulative IPC: 3.56312 (Simulation time: 0 hr 2 min 6 sec) 

Warmup complete CPU 0 instructions: 50000002 cycles: 14032639 (Simulation time: 0 hr 2 min 6 sec) 

Heartbeat CPU 0 instructions: 60000003 cycles: 30235066 heartbeat IPC: 0.617192 cumulative IPC: 0.617192 (Simulation time: 0 hr 2 min 39 sec) 
*** Reached end of trace for Core: 0 Repeating trace: traces/spec2k17/srv_57.champsimtrace.xz
Heartbeat CPU 0 instructions: 70000000 cycles: 46395363 heartbeat IPC: 0.6188 cumulative IPC: 0.617995 (Simulation time: 0 hr 3 min 13 sec) 
Heartbeat CPU 0 instructions: 80000001 cycles: 63363257 heartbeat IPC: 0.589348 cumulative IPC: 0.608142 (Simulation time: 0 hr 3 min 46 sec) 
Heartbeat CPU 0 instructions: 90000000 cycles: 79436387 heartbeat IPC: 0.622156 cumulative IPC: 0.611586 (Simulation time: 0 hr 4 min 19 sec) 
*** Reached end of trace for Core: 0 Repeating trace: traces/spec2k17/srv_57.champsimtrace.xz
Heartbeat CPU 0 instructions: 100000002 cycles: 95372947 heartbeat IPC: 0.627488 cumulative IPC: 0.614701 (Simulation time: 0 hr 4 min 53 sec) 
Heartbeat CPU 0 instructions: 110000000 cycles: 112395650 heartbeat IPC: 0.587451 cumulative IPC: 0.609985 (Simulation time: 0 hr 5 min 25 sec) 
Heartbeat CPU 0 instructions: 120000003 cycles: 128530226 heartbeat IPC: 0.619787 cumulative IPC: 0.611367 (Simulation time: 0 hr 5 min 59 sec) 
*** Reached end of trace for Core: 0 Repeating trace: traces/spec2k17/srv_57.champsimtrace.xz
Heartbeat CPU 0 instructions: 130000003 cycles: 144701174 heartbeat IPC: 0.618393 cumulative IPC: 0.612236 (Simulation time: 0 hr 6 min 33 sec) 
Heartbeat CPU 0 instructions: 140000000 cycles: 161454436 heartbeat IPC: 0.596898 cumulative IPC: 0.610493 (Simulation time: 0 hr 7 min 6 sec) 
Heartbeat CPU 0 instructions: 150000000 cycles: 177514851 heartbeat IPC: 0.622649 cumulative IPC: 0.611687 (Simulation time: 0 hr 7 min 52 sec) 
*** Reached end of trace for Core: 0 Repeating trace: traces/spec2k17/srv_57.champsimtrace.xz
Heartbeat CPU 0 instructions: 160000001 cycles: 194015965 heartbeat IPC: 0.60602 cumulative IPC: 0.611168 (Simulation time: 0 hr 8 min 44 sec) 
Heartbeat CPU 0 instructions: 170000000 cycles: 210458571 heartbeat IPC: 0.608176 cumulative IPC: 0.610917 (Simulation time: 0 hr 9 min 36 sec) 
Heartbeat CPU 0 instructions: 180000000 cycles: 226528926 heartbeat IPC: 0.622264 cumulative IPC: 0.611775 (Simulation time: 0 hr 10 min 28 sec) 
*** Reached end of trace for Core: 0 Repeating trace: traces/spec2k17/srv_57.champsimtrace.xz
Heartbeat CPU 0 instructions: 190000002 cycles: 243227296 heartbeat IPC: 0.598861 cumulative IPC: 0.610834 (Simulation time: 0 hr 11 min 20 sec) 
Heartbeat CPU 0 instructions: 200000000 cycles: 259576315 heartbeat IPC: 0.611657 cumulative IPC: 0.610889 (Simulation time: 0 hr 12 min 12 sec) 
Heartbeat CPU 0 instructions: 210000001 cycles: 275598239 heartbeat IPC: 0.624145 cumulative IPC: 0.611701 (Simulation time: 0 hr 12 min 54 sec) 
*** Reached end of trace for Core: 0 Repeating trace: traces/spec2k17/srv_57.champsimtrace.xz
Heartbeat CPU 0 instructions: 220000000 cycles: 292464493 heartbeat IPC: 0.5929 cumulative IPC: 0.610562 (Simulation time: 0 hr 13 min 26 sec) 
Heartbeat CPU 0 instructions: 230000002 cycles: 308626231 heartbeat IPC: 0.618745 cumulative IPC: 0.611011 (Simulation time: 0 hr 14 min 0 sec) 
Heartbeat CPU 0 instructions: 240000002 cycles: 324503272 heartbeat IPC: 0.62984 cumulative IPC: 0.611974 (Simulation time: 0 hr 14 min 34 sec) 
*** Reached end of trace for Core: 0 Repeating trace: traces/spec2k17/srv_57.champsimtrace.xz
Heartbeat CPU 0 instructions: 250000000 cycles: 341492043 heartbeat IPC: 0.588624 cumulative IPC: 0.610763 (Simulation time: 0 hr 15 min 6 sec) 
Finished CPU 0 instructions: 200000002 cycles: 327459405 cumulative IPC: 0.610763 (Simulation time: 0 hr 15 min 6 sec) 

ChampSim completed all CPUs

Region of Interest Statistics

CPU 0 cumulative IPC: 0.610763 instructions: 200000002 cycles: 327459405
ITLB TOTAL     ACCESS:   34739322  HIT:   33901149  MISS:     838173  HIT %:    97.5872  MISS %:    2.41275   MPKI: 4.19086
ITLB LOAD TRANSLATION ACCESS:   34739322  HIT:   33901149  MISS:     838173  HIT %:    97.5872  MISS %:    2.41275   MPKI: 4.19086
ITLB PREFETCH  REQUESTED:          0  ISSUED:          0  USEFUL:          0  USELESS:          0
ITLB USEFUL LOAD PREFETCHES:          0 PREFETCH ISSUED TO LOWER LEVEL:          0  ACCURACY: -nan
ITLB TIMELY PREFETCHES:          0 LATE PREFETCHES: 0 DROPPED PREFETCHES: 0
ITLB PREFETCHES SAME FILL-ORIGIN LEVEL: 0 DIFFERENT FILL-ORIGIN LEVEL: 0
ITLB AVERAGE MISS LATENCY: 9.38824 cycles
ITLB RQ	ACCESS:   39588151	FORWARD:          0	MERGED:    4555208	TO_CACHE:   35032943

DTLB TOTAL     ACCESS:   40603463  HIT:   39662956  MISS:     940507  HIT %:    97.6837  MISS %:    2.31632   MPKI: 4.70253
DTLB LOAD TRANSLATION ACCESS:   40603463  HIT:   39662956  MISS:     940507  HIT %:    97.6837  MISS %:    2.31632   MPKI: 4.70253
DTLB PREFETCH  REQUESTED:          0  ISSUED:          0  USEFUL:          0  USELESS:          0
DTLB USEFUL LOAD PREFETCHES:          0 PREFETCH ISSUED TO LOWER LEVEL:          0  ACCURACY: -nan
DTLB TIMELY PREFETCHES:          0 LATE PREFETCHES: 0 DROPPED PREFETCHES: 0
DTLB PREFETCHES SAME FILL-ORIGIN LEVEL: 0 DIFFERENT FILL-ORIGIN LEVEL: 0
DTLB AVERAGE MISS LATENCY: 17.0931 cycles
DTLB RQ	ACCESS:   55842437	FORWARD:          0	MERGED:   15185276	TO_CACHE:   40657161

STLB TOTAL     ACCESS:    2268732  HIT:    2195504  MISS:      73228  HIT %:    96.7723  MISS %:    3.22771   MPKI: 0.36614
STLB LOAD TRANSLATION ACCESS:    1778680  HIT:    1705452  MISS:      73228  HIT %:     95.883  MISS %:    4.11699   MPKI: 0.36614
STLB TRANSLATION FROM L1D PREFETCHER ACCESS:     490052  HIT:     490052  MISS:          0  HIT %:        100  MISS %:          0   MPKI: 0
STLB PREFETCH  REQUESTED:          0  ISSUED:          0  USEFUL:          0  USELESS:          0
STLB USEFUL LOAD PREFETCHES:          0 PREFETCH ISSUED TO LOWER LEVEL:          0  ACCURACY: -nan
STLB TIMELY PREFETCHES:          0 LATE PREFETCHES: 0 DROPPED PREFETCHES: 0
STLB PREFETCHES SAME FILL-ORIGIN LEVEL: 0 DIFFERENT FILL-ORIGIN LEVEL: 0
STLB AVERAGE MISS LATENCY: 108.3 cycles
STLB RQ	ACCESS:    3771412	FORWARD:          0	MERGED:    1502680	TO_CACHE:    2268732

STLB Hit, L1D data hit: 0
STLB Hit, L2C data hit: 0
STLB Hit, LLC data hit: 0
STLB Hit, LLC data miss: 0
STLB STLB hints to L2: 0
L1D TOTAL     ACCESS:   57296055  HIT:   55686573  MISS:    1609482  HIT %:    97.1909  MISS %:    2.80906   MPKI: 8.04741
L1D LOAD      ACCESS:   33662438  HIT:   33150174  MISS:     512264  HIT %:    98.4782  MISS %:    1.52177   MPKI: 2.56132
L1D RFO       ACCESS:   21822656  HIT:   21608903  MISS:     213753  HIT %:    99.0205  MISS %:     0.9795   MPKI: 1.06876
L1D PREFETCH  ACCESS:    1810961  HIT:     927496  MISS:     883465  HIT %:    51.2157  MISS %:    48.7843   MPKI: 4.41732
AGUS PREFETCH L1 MISS: 0
L1D PREFETCH  REQUESTED:    3986073  ISSUED:    3986073  USEFUL:     666852  USELESS:     216636
L1D USEFUL LOAD PREFETCHES:     666852 PREFETCH ISSUED TO LOWER LEVEL:    1013274  ACCURACY: 65.8116
L1D TIMELY PREFETCHES:     666852 LATE PREFETCHES: 14578 DROPPED PREFETCHES: 0
L1D PREFETCHES SAME FILL-ORIGIN LEVEL: 899498 DIFFERENT FILL-ORIGIN LEVEL: 113776
L1D AVERAGE MISS LATENCY: 1.77056e+06 cycles
L1D RQ	ACCESS:   48246458	FORWARD:          0	MERGED:   14288246	TO_CACHE:   33679834
L1D WQ	ACCESS:   22465122	FORWARD:     278947	MERGED:     302519	TO_CACHE:   22162603
L1D PQ	ACCESS:    1993341	FORWARD:          0	MERGED:         40	TO_CACHE:    1992732

L1D UNIQUE REGIONS ACCESSED: 0
L1D REGIONS CONFLICTS: 0
L1D Cross Page Prefetch Requests: 0
L1D Same Page Prefetch Requests: 2455140
L1D ROI Sum of L1D PQ occupancy: 29365128
L1D PREFETCHES PUSHED FROM L2C: 0
L1I TOTAL     ACCESS:   39119240  HIT:   36594222  MISS:    2525018  HIT %:    93.5453  MISS %:    6.45467   MPKI: 12.6251
L1I LOAD      ACCESS:   39119240  HIT:   36594222  MISS:    2525018  HIT %:    93.5453  MISS %:    6.45467   MPKI: 12.6251
L1I PREFETCH  REQUESTED:          0  ISSUED:          0  USEFUL:          0  USELESS:          0
L1I USEFUL LOAD PREFETCHES:          0 PREFETCH ISSUED TO LOWER LEVEL:          0  ACCURACY: -nan
L1I TIMELY PREFETCHES:          0 LATE PREFETCHES: 0 DROPPED PREFETCHES: 0
L1I PREFETCHES SAME FILL-ORIGIN LEVEL: 0 DIFFERENT FILL-ORIGIN LEVEL: 0
L1I AVERAGE MISS LATENCY: 18.3965 cycles
L1I RQ	ACCESS:   62214441	FORWARD:          0	MERGED:   22626290	TO_CACHE:   39588151

BTB TOTAL     ACCESS:   32784881  HIT:   29386582  MISS:    3398299  HIT %:    89.6346  MISS %:    10.3654   MPKI: 16.9915
BTB BRANCH_DIRECT_JUMP	ACCESS:    3353840  HIT:    3191984  MISS:     161856
BTB BRANCH_INDIRECT	ACCESS:   13231468  HIT:   11990093  MISS:    1241375
BTB BRANCH_CONDITIONAL	ACCESS:    8791342  HIT:    8583888  MISS:     207454
BTB BRANCH_DIRECT_CALL	ACCESS:    2800344  HIT:    2510637  MISS:     289707
BTB BRANCH_INDIRECT_CALL	ACCESS:     903748  HIT:     779612  MISS:     124136
BTB BRANCH_RETURN	ACCESS:    3704139  HIT:    2330368  MISS:    1373771
BTB BRANCH_OTHER ACCESS:          0  HIT:          0  MISS:          0

L2C TOTAL     ACCESS:    4973058  HIT:    4102452  MISS:     870606  HIT %:    82.4935  MISS %:    17.5065   MPKI: 4.35303
L2C LOAD      ACCESS:    3022692  HIT:    2532122  MISS:     490570  HIT %:    83.7704  MISS %:    16.2296   MPKI: 2.45285
L2C DATA LOAD MPKI: 0.74788
L2C INSTRUCTION LOAD MPKI: 1.70497
L2C RFO       ACCESS:     212112  HIT:     146537  MISS:      65575  HIT %:    69.0847  MISS %:    30.9153   MPKI: 0.327875
L2C PREFETCH  ACCESS:    1012225  HIT:     762785  MISS:     249440  HIT %:    75.3573  MISS %:    24.6427   MPKI: 1.2472
AGUS PREFETCH L1 MISS: 0
L2C DATA PREFETCH MPKI: 1.2472
L2C INSTRUCTION PREFETCH MPKI: 0
L2C WRITEBACK ACCESS:     587255  HIT:     574725  MISS:      12530  HIT %:    97.8663  MISS %:    2.13366   MPKI: 0.06265
L2C LOAD TRANSLATION ACCESS:     138774  HIT:      86283  MISS:      52491  HIT %:    62.1752  MISS %:    37.8248   MPKI: 0.262455
L2C PREFETCH  REQUESTED:          0  ISSUED:          0  USEFUL:      34847  USELESS:     215053
L2C USEFUL LOAD PREFETCHES:      34847 PREFETCH ISSUED TO LOWER LEVEL:     250021  ACCURACY: 13.9376
L2C TIMELY PREFETCHES:      34847 LATE PREFETCHES: 581 DROPPED PREFETCHES: 0
L2C PREFETCHES SAME FILL-ORIGIN LEVEL: 59535 DIFFERENT FILL-ORIGIN LEVEL: 0
L2C AVERAGE MISS LATENCY: 69.2671 cycles
L2C RQ	ACCESS:    3373776	FORWARD:          0	MERGED:          0	TO_CACHE:    3373578
L2C WQ	ACCESS:     587255	FORWARD:        213	MERGED:          0	TO_CACHE:     587255
L2C PQ	ACCESS:    1013274	FORWARD:          0	MERGED:          0	TO_CACHE:    1013259

L2C Instructions Evicting Data 127693
L2C Translations Evicting Data 39135
L2C Data Evicting Data 305144
L2C Instructions Evicting Instructions 203942
L2C Translations Evicting Instructions 7779
L2C Data Evicting Instructions 121848
L2C Instructions Evicting Translations 9359
L2C Translations Evicting Translations 5577
L2C Data Evicting Translations 37599
L2C Dense regions hint from L2: 0
PSCL5 TOTAL     ACCESS:      73228  HIT:      73228  MISS:          0  HIT %:        100  MISS %:          0   MPKI: 0
PSCL5 LOAD TRANSLATION ACCESS:      73228  HIT:      73228  MISS:          0  HIT %:        100  MISS %:          0   MPKI: 0
PSCL5 PREFETCH  REQUESTED:          0  ISSUED:          0  USEFUL:          0  USELESS:          0
PSCL5 USEFUL LOAD PREFETCHES:          0 PREFETCH ISSUED TO LOWER LEVEL:          0  ACCURACY: -nan
PSCL5 TIMELY PREFETCHES:          0 LATE PREFETCHES: 0 DROPPED PREFETCHES: 0
PSCL5 PREFETCHES SAME FILL-ORIGIN LEVEL: 0 DIFFERENT FILL-ORIGIN LEVEL: 0

PSCL4 TOTAL     ACCESS:      72556  HIT:      72429  MISS:        127  HIT %:     99.825  MISS %:   0.175037   MPKI: 0.000635
PSCL4 LOAD TRANSLATION ACCESS:      72556  HIT:      72429  MISS:        127  HIT %:     99.825  MISS %:   0.175037   MPKI: 0.000635
PSCL4 PREFETCH  REQUESTED:          0  ISSUED:          0  USEFUL:          0  USELESS:          0
PSCL4 USEFUL LOAD PREFETCHES:          0 PREFETCH ISSUED TO LOWER LEVEL:          0  ACCURACY: -nan
PSCL4 TIMELY PREFETCHES:          0 LATE PREFETCHES: 0 DROPPED PREFETCHES: 0
PSCL4 PREFETCHES SAME FILL-ORIGIN LEVEL: 0 DIFFERENT FILL-ORIGIN LEVEL: 0

PSCL3 TOTAL     ACCESS:      71454  HIT:      50932  MISS:      20522  HIT %:    71.2794  MISS %:    28.7206   MPKI: 0.10261
PSCL3 LOAD TRANSLATION ACCESS:      71454  HIT:      50932  MISS:      20522  HIT %:    71.2794  MISS %:    28.7206   MPKI: 0.10261
PSCL3 PREFETCH  REQUESTED:          0  ISSUED:          0  USEFUL:          0  USELESS:          0
PSCL3 USEFUL LOAD PREFETCHES:          0 PREFETCH ISSUED TO LOWER LEVEL:          0  ACCURACY: -nan
PSCL3 TIMELY PREFETCHES:          0 LATE PREFETCHES: 0 DROPPED PREFETCHES: 0
PSCL3 PREFETCHES SAME FILL-ORIGIN LEVEL: 0 DIFFERENT FILL-ORIGIN LEVEL: 0

PSCL2 TOTAL     ACCESS:      73228  HIT:      28331  MISS:      44897  HIT %:    38.6888  MISS %:    61.3112   MPKI: 0.224485
PSCL2 LOAD TRANSLATION ACCESS:      73228  HIT:      28331  MISS:      44897  HIT %:    38.6888  MISS %:    61.3112   MPKI: 0.224485
PSCL2 PREFETCH  REQUESTED:          0  ISSUED:          0  USEFUL:          0  USELESS:          0
PSCL2 USEFUL LOAD PREFETCHES:          0 PREFETCH ISSUED TO LOWER LEVEL:          0  ACCURACY: -nan
PSCL2 TIMELY PREFETCHES:          0 LATE PREFETCHES: 0 DROPPED PREFETCHES: 0
PSCL2 PREFETCHES SAME FILL-ORIGIN LEVEL: 0 DIFFERENT FILL-ORIGIN LEVEL: 0

LLC TOTAL     ACCESS:    1019456  HIT:     770421  MISS:     249035  HIT %:    75.5718  MISS %:    24.4282   MPKI: 1.24517
LLC LOAD      ACCESS:     490001  HIT:     404252  MISS:      85749  HIT %:    82.5002  MISS %:    17.4998   MPKI: 0.428745
LLC RFO       ACCESS:      65563  HIT:      47750  MISS:      17813  HIT %:    72.8307  MISS %:    27.1693   MPKI: 0.089065
LLC PREFETCH  ACCESS:     250021  HIT:     126062  MISS:     123959  HIT %:    50.4206  MISS %:    49.5794   MPKI: 0.619795
AGUS PREFETCH L1 MISS: 0
LLC WRITEBACK ACCESS:     161380  HIT:     160489  MISS:        891  HIT %:    99.4479  MISS %:   0.552113   MPKI: 0.004455
LLC LOAD TRANSLATION ACCESS:      52491  HIT:      31868  MISS:      20623  HIT %:    60.7114  MISS %:    39.2886   MPKI: 0.103115
LLC PREFETCH  REQUESTED:          0  ISSUED:          0  USEFUL:       1132  USELESS:     122345
LLC USEFUL LOAD PREFETCHES:       1132 PREFETCH ISSUED TO LOWER LEVEL:     123959  ACCURACY: 0.913205
LLC TIMELY PREFETCHES:       1132 LATE PREFETCHES: 0 DROPPED PREFETCHES: 0
LLC PREFETCHES SAME FILL-ORIGIN LEVEL: 0 DIFFERENT FILL-ORIGIN LEVEL: 0
LLC AVERAGE MISS LATENCY: 138.84 cycles
LLC RQ	ACCESS:     608055	FORWARD:          0	MERGED:          0	TO_CACHE:     608055
LLC WQ	ACCESS:     161380	FORWARD:          0	MERGED:          0	TO_CACHE:     161380
LLC PQ	ACCESS:     250021	FORWARD:          0	MERGED:          0	TO_CACHE:     250021

LLC Dense regions hint to LLC: 0

RAW hits: 2536832
Loads Generated: 50783291
Loads sent to L1D: 48246458
Stores Generated: 22465114
Stores sent to L1D: 22465122
Major fault: 0 Minor fault: 8932
Allocated PAGES: 8932
[Bingo] PHT Access: 569503
[Bingo] PHT Hit PC+Addr: 378106
[Bingo] PHT Hit PC+Offs: 70535
[Bingo] PHT Miss: 120862
[Bingo] Prefetch PC+Addr: 0
[Bingo] Prefetch PC+Offs: 0
[Bingo] Useful PC+Addr: 0
[Bingo] Useful PC+Offs: 0
[Bingo] Useless PC+Addr: 0
[Bingo] Useless PC+Offs: 0
[Bingo] L1 Prefetch per Region: 5.17272
[Bingo] L2 Prefetch per Region: 0.277672
[Bingo] L3 Prefetch per Region: 0
[Bingo] No Prefetch per Region: 26.5496
[Bingo] Number of Voters Mean: 8.15207
[Bingo] Number of Voters SD: 7.84435
PHT read accesses: 2846499
PHT write accesses: 325564
AT read accesses: 29482682
AT write accesses: 29487986
FT read accesses: 9004395
FT write accesses: 569503
PS read accesses: 963787
PS write accesses: 448641
PHT tag read accesses: 9785107
PHT tag write accesses: 703670
AT tag read accesses: 576985848
AT tag write accesses: 29808204
FT tag read accesses: 122954631
FT tag write accesses: 5300507
PS tag read accesses: 554870600
PS tag write accesses: 1411898

DRAM Statistics
 CHANNEL 0
 RQ ROW_BUFFER_HIT:     100733  ROW_BUFFER_MISS:     147400
 DBUS_CONGESTED:        241
 WQ ROW_BUFFER_HIT:       4224  ROW_BUFFER_MISS:      56460  FULL:          0

 AVG_CONGESTED_CYCLE: 5
 All warmup complete: 2
Channel 0 Bank busy for read cycles: 0
Channel 0 Bank busy for write cycles: 0
Channel 0
Rank 0
0banks busy for read cycles: 308839426
0banks busy for write cycles: 29151
1banks busy for read cycles: 7315666
1banks busy for write cycles: 3532029
2banks busy for read cycles: 2189089
2banks busy for write cycles: 1266426
3banks busy for read cycles: 870835
3banks busy for write cycles: 525556
4banks busy for read cycles: 667979
4banks busy for write cycles: 232355
5banks busy for read cycles: 652963
5banks busy for write cycles: 112421
6banks busy for read cycles: 463457
6banks busy for write cycles: 81073
7banks busy for read cycles: 412830
7banks busy for write cycles: 59551
8banks busy for read cycles: 154385
8banks busy for write cycles: 54214

CPU 0 Branch Prediction Accuracy: 99.8045% MPKI: 0.370935 Average ROB Occupancy at Mispredict: 31.7502
Branch types
NOT_BRANCH: 162058956 81.0295%
BRANCH_DIRECT_JUMP: 3353840 1.67692%
BRANCH_INDIRECT: 13231468 6.61573%
BRANCH_CONDITIONAL: 13947212 6.97361%
BRANCH_DIRECT_CALL: 2800344 1.40017%
BRANCH_INDIRECT_CALL: 903748 0.451874%
BRANCH_RETURN: 3704139 1.85207%
BRANCH_OTHER: 0 0%

DRAM PAGES: 1048576
Allocated PAGES: 8932
