
*** ChampSim Multicore Out-of-Order Simulator ***

Warmup Instructions: 50000000
Simulation Instructions: 200000000
Number of CPUs: 1
LLC sets: 2048
LLC ways: 16
Off-chip DRAM Size: 4096 MB Channels: 1 Width: 64-bit Data Rate: 6400 MT/s
CPU 0 runs traces/spec2k17/client_008.champsimtrace.xz
.xz
BTB has LRU replacement policy
ITLB has LRU replacement policy
DTLB has LRU replacement policy
STLB has LRU replacement policy
L1I has LRU replacement policy
CPU 0 L2C next line prefetcher
L1D has LRU replacement policy
Initialize SRRIP state for L2C
Initialize DRRIP state for LLC
Heartbeat CPU 0 instructions: 10000000 cycles: 2913218 heartbeat IPC: 3.43263 cumulative IPC: 3.43263 (Simulation time: 0 hr 0 min 47 sec) 
Heartbeat CPU 0 instructions: 20000001 cycles: 5846102 heartbeat IPC: 3.40961 cumulative IPC: 3.42108 (Simulation time: 0 hr 1 min 33 sec) 
Heartbeat CPU 0 instructions: 30000001 cycles: 8754827 heartbeat IPC: 3.43793 cumulative IPC: 3.42668 (Simulation time: 0 hr 2 min 20 sec) 
Heartbeat CPU 0 instructions: 40000003 cycles: 11690245 heartbeat IPC: 3.40667 cumulative IPC: 3.42166 (Simulation time: 0 hr 3 min 7 sec) 
Heartbeat CPU 0 instructions: 50000002 cycles: 14621868 heartbeat IPC: 3.41108 cumulative IPC: 3.41954 (Simulation time: 0 hr 3 min 53 sec) 

Warmup complete CPU 0 instructions: 50000002 cycles: 14621868 (Simulation time: 0 hr 3 min 53 sec) 

Heartbeat CPU 0 instructions: 60000000 cycles: 35731028 heartbeat IPC: 0.473728 cumulative IPC: 0.473728 (Simulation time: 0 hr 4 min 54 sec) 
Heartbeat CPU 0 instructions: 70000000 cycles: 56569377 heartbeat IPC: 0.479884 cumulative IPC: 0.476786 (Simulation time: 0 hr 5 min 55 sec) 
Heartbeat CPU 0 instructions: 80000000 cycles: 77883910 heartbeat IPC: 0.469163 cumulative IPC: 0.474218 (Simulation time: 0 hr 6 min 59 sec) 
Heartbeat CPU 0 instructions: 90000003 cycles: 107250924 heartbeat IPC: 0.340518 cumulative IPC: 0.43183 (Simulation time: 0 hr 8 min 5 sec) 
Heartbeat CPU 0 instructions: 100000001 cycles: 123862624 heartbeat IPC: 0.601985 cumulative IPC: 0.457705 (Simulation time: 0 hr 9 min 6 sec) 
*** Reached end of trace for Core: 0 Repeating trace: traces/spec2k17/client_008.champsimtrace.xz
Heartbeat CPU 0 instructions: 110000000 cycles: 145145433 heartbeat IPC: 0.469863 cumulative IPC: 0.459687 (Simulation time: 0 hr 10 min 7 sec) 
Heartbeat CPU 0 instructions: 120000001 cycles: 167373802 heartbeat IPC: 0.449876 cumulative IPC: 0.458259 (Simulation time: 0 hr 11 min 8 sec) 
Heartbeat CPU 0 instructions: 130000000 cycles: 190856198 heartbeat IPC: 0.425851 cumulative IPC: 0.453941 (Simulation time: 0 hr 12 min 10 sec) 
Heartbeat CPU 0 instructions: 140000002 cycles: 213095998 heartbeat IPC: 0.449644 cumulative IPC: 0.45346 (Simulation time: 0 hr 13 min 14 sec) 
Heartbeat CPU 0 instructions: 150000001 cycles: 236246969 heartbeat IPC: 0.431947 cumulative IPC: 0.451212 (Simulation time: 0 hr 14 min 16 sec) 
Heartbeat CPU 0 instructions: 160000000 cycles: 258114173 heartbeat IPC: 0.457306 cumulative IPC: 0.45176 (Simulation time: 0 hr 15 min 18 sec) 
Heartbeat CPU 0 instructions: 170000000 cycles: 278690975 heartbeat IPC: 0.485984 cumulative IPC: 0.454426 (Simulation time: 0 hr 16 min 21 sec) 
Heartbeat CPU 0 instructions: 180000000 cycles: 298127814 heartbeat IPC: 0.514487 cumulative IPC: 0.458544 (Simulation time: 0 hr 17 min 22 sec) 
Heartbeat CPU 0 instructions: 190000001 cycles: 328098441 heartbeat IPC: 0.33366 cumulative IPC: 0.446604 (Simulation time: 0 hr 18 min 29 sec) 
Heartbeat CPU 0 instructions: 200000000 cycles: 347847237 heartbeat IPC: 0.50636 cumulative IPC: 0.450146 (Simulation time: 0 hr 19 min 35 sec) 
*** Reached end of trace for Core: 0 Repeating trace: traces/spec2k17/client_008.champsimtrace.xz
Heartbeat CPU 0 instructions: 210000001 cycles: 366100055 heartbeat IPC: 0.547861 cumulative IPC: 0.45522 (Simulation time: 0 hr 20 min 35 sec) 
Heartbeat CPU 0 instructions: 220000000 cycles: 388811797 heartbeat IPC: 0.440301 cumulative IPC: 0.454315 (Simulation time: 0 hr 21 min 39 sec) 
Heartbeat CPU 0 instructions: 230000003 cycles: 411582184 heartbeat IPC: 0.439167 cumulative IPC: 0.453446 (Simulation time: 0 hr 22 min 41 sec) 
Heartbeat CPU 0 instructions: 240000002 cycles: 434268391 heartbeat IPC: 0.440796 cumulative IPC: 0.452762 (Simulation time: 0 hr 23 min 42 sec) 
Heartbeat CPU 0 instructions: 250000002 cycles: 457104417 heartbeat IPC: 0.437905 cumulative IPC: 0.451995 (Simulation time: 0 hr 24 min 45 sec) 
Finished CPU 0 instructions: 200000000 cycles: 442482549 cumulative IPC: 0.451995 (Simulation time: 0 hr 24 min 45 sec) 

ChampSim completed all CPUs

Region of Interest Statistics

CPU 0 cumulative IPC: 0.451995 instructions: 200000000 cycles: 442482549
ITLB TOTAL     ACCESS:   33955460  HIT:   32956178  MISS:     999282  HIT %:    97.0571  MISS %:    2.94292   MPKI: 4.99641
ITLB LOAD TRANSLATION ACCESS:   33955460  HIT:   32956178  MISS:     999282  HIT %:    97.0571  MISS %:    2.94292   MPKI: 4.99641
ITLB PREFETCH  REQUESTED:          0  ISSUED:          0  USEFUL:          0  USELESS:          0
ITLB USEFUL LOAD PREFETCHES:          0 PREFETCH ISSUED TO LOWER LEVEL:          0  ACCURACY: -nan
ITLB TIMELY PREFETCHES:          0 LATE PREFETCHES: 0 DROPPED PREFETCHES: 0
ITLB PREFETCHES SAME FILL-ORIGIN LEVEL: 0 DIFFERENT FILL-ORIGIN LEVEL: 0
ITLB AVERAGE MISS LATENCY: 9.49122 cycles
ITLB RQ	ACCESS:   38139836	FORWARD:          0	MERGED:    3935527	TO_CACHE:   34204309

DTLB TOTAL     ACCESS:   44518508  HIT:   41471277  MISS:    3047231  HIT %:    93.1551  MISS %:    6.84486   MPKI: 15.2362
DTLB LOAD TRANSLATION ACCESS:   44518508  HIT:   41471277  MISS:    3047231  HIT %:    93.1551  MISS %:    6.84486   MPKI: 15.2362
DTLB PREFETCH  REQUESTED:          0  ISSUED:          0  USEFUL:          0  USELESS:          0
DTLB USEFUL LOAD PREFETCHES:          0 PREFETCH ISSUED TO LOWER LEVEL:          0  ACCURACY: -nan
DTLB TIMELY PREFETCHES:          0 LATE PREFETCHES: 0 DROPPED PREFETCHES: 0
DTLB PREFETCHES SAME FILL-ORIGIN LEVEL: 0 DIFFERENT FILL-ORIGIN LEVEL: 0
DTLB AVERAGE MISS LATENCY: 9.47331 cycles
DTLB RQ	ACCESS:   54696020	FORWARD:          0	MERGED:   10086412	TO_CACHE:   44609608

STLB TOTAL     ACCESS:    4946586  HIT:    4915352  MISS:      31234  HIT %:    99.3686  MISS %:   0.631425   MPKI: 0.15617
STLB LOAD TRANSLATION ACCESS:    4046513  HIT:    4015676  MISS:      30837  HIT %:    99.2379  MISS %:   0.762064   MPKI: 0.154185
STLB TRANSLATION FROM L1D PREFETCHER ACCESS:     900073  HIT:     899676  MISS:        397  HIT %:    99.9559  MISS %:  0.0441075   MPKI: 0.001985
STLB PREFETCH  REQUESTED:          0  ISSUED:          0  USEFUL:        349  USELESS:         48
STLB USEFUL LOAD PREFETCHES:        349 PREFETCH ISSUED TO LOWER LEVEL:          0  ACCURACY: inf
STLB TIMELY PREFETCHES:        349 LATE PREFETCHES: 30 DROPPED PREFETCHES: 298
STLB PREFETCHES SAME FILL-ORIGIN LEVEL: 0 DIFFERENT FILL-ORIGIN LEVEL: 0
STLB AVERAGE MISS LATENCY: 59.71 cycles
STLB RQ	ACCESS:    5052349	FORWARD:          0	MERGED:     105423	TO_CACHE:    4946926

STLB Hit, L1D data hit: 0
STLB Hit, L2C data hit: 0
STLB Hit, LLC data hit: 0
STLB Hit, LLC data miss: 0
STLB STLB hints to L2: 0
L1D TOTAL     ACCESS:   54151994  HIT:   49893451  MISS:    4258543  HIT %:    92.1359  MISS %:    7.86406   MPKI: 21.2927
L1D LOAD      ACCESS:   37839263  HIT:   34525798  MISS:    3313465  HIT %:    91.2433  MISS %:    8.75668   MPKI: 16.5673
L1D RFO       ACCESS:   15557402  HIT:   15216641  MISS:     340761  HIT %:    97.8097  MISS %:    2.19035   MPKI: 1.70381
L1D PREFETCH  ACCESS:     755329  HIT:     151012  MISS:     604317  HIT %:    19.9929  MISS %:    80.0071   MPKI: 3.02158
AGUS PREFETCH L1 MISS: 0
L1D PREFETCH  REQUESTED:    2038636  ISSUED:    2038555  USEFUL:     206080  USELESS:     398242
L1D USEFUL LOAD PREFETCHES:     206080 PREFETCH ISSUED TO LOWER LEVEL:     644886  ACCURACY: 31.956
L1D TIMELY PREFETCHES:     206080 LATE PREFETCHES: 39685 DROPPED PREFETCHES: 315
L1D PREFETCHES SAME FILL-ORIGIN LEVEL: 644886 DIFFERENT FILL-ORIGIN LEVEL: 0
L1D AVERAGE MISS LATENCY: 2.22165e+06 cycles
L1D RQ	ACCESS:   56715183	FORWARD:          0	MERGED:   18411854	TO_CACHE:   38048680
L1D WQ	ACCESS:   17136260	FORWARD:     254717	MERGED:     488920	TO_CACHE:   16647340
L1D PQ	ACCESS:    1032719	FORWARD:          0	MERGED:      26815	TO_CACHE:    1005836

L1D UNIQUE REGIONS ACCESSED: 0
L1D REGIONS CONFLICTS: 0
L1D Cross Page Prefetch Requests: 52478
L1D Same Page Prefetch Requests: 1273818
L1D ROI Sum of L1D PQ occupancy: 13014410
L1D PREFETCHES PUSHED FROM L2C: 0
L1I TOTAL     ACCESS:   37106995  HIT:   32809121  MISS:    4297874  HIT %:    88.4176  MISS %:    11.5824   MPKI: 21.4894
L1I LOAD      ACCESS:   37106995  HIT:   32809121  MISS:    4297874  HIT %:    88.4176  MISS %:    11.5824   MPKI: 21.4894
L1I PREFETCH  REQUESTED:          0  ISSUED:          0  USEFUL:          0  USELESS:          0
L1I USEFUL LOAD PREFETCHES:          0 PREFETCH ISSUED TO LOWER LEVEL:          0  ACCURACY: -nan
L1I TIMELY PREFETCHES:          0 LATE PREFETCHES: 0 DROPPED PREFETCHES: 0
L1I PREFETCHES SAME FILL-ORIGIN LEVEL: 0 DIFFERENT FILL-ORIGIN LEVEL: 0
L1I AVERAGE MISS LATENCY: 17.7991 cycles
L1I RQ	ACCESS:   62297417	FORWARD:          0	MERGED:   24157581	TO_CACHE:   38139836

BTB TOTAL     ACCESS:   36528429  HIT:   31583049  MISS:    4945380  HIT %:    86.4616  MISS %:    13.5384   MPKI: 24.7269
BTB BRANCH_DIRECT_JUMP	ACCESS:    2061309  HIT:    1966278  MISS:      95031
BTB BRANCH_INDIRECT	ACCESS:   13234606  HIT:   11716494  MISS:    1518112
BTB BRANCH_CONDITIONAL	ACCESS:   12402841  HIT:   12111408  MISS:     291433
BTB BRANCH_DIRECT_CALL	ACCESS:    1759418  HIT:    1715408  MISS:      44010
BTB BRANCH_INDIRECT_CALL	ACCESS:    2655183  HIT:    2016702  MISS:     638481
BTB BRANCH_RETURN	ACCESS:    4415072  HIT:    2056759  MISS:    2358313
BTB BRANCH_OTHER ACCESS:          0  HIT:          0  MISS:          0

L2C TOTAL     ACCESS:    9091993  HIT:    7808765  MISS:    1283228  HIT %:    85.8862  MISS %:    14.1138   MPKI: 6.41614
L2C LOAD      ACCESS:    7571640  HIT:    6787692  MISS:     783948  HIT %:    89.6463  MISS %:    10.3537   MPKI: 3.91974
L2C DATA LOAD MPKI: 2.58628
L2C INSTRUCTION LOAD MPKI: 1.33346
L2C RFO       ACCESS:     339859  HIT:      80338  MISS:     259521  HIT %:    23.6386  MISS %:    76.3614   MPKI: 1.2976
L2C PREFETCH  ACCESS:     644886  HIT:     426322  MISS:     218564  HIT %:    66.1081  MISS %:    33.8919   MPKI: 1.09282
AGUS PREFETCH L1 MISS: 0
L2C DATA PREFETCH MPKI: 1.09282
L2C INSTRUCTION PREFETCH MPKI: 0
L2C WRITEBACK ACCESS:     502461  HIT:     494138  MISS:       8323  HIT %:    98.3436  MISS %:    1.65645   MPKI: 0.041615
L2C LOAD TRANSLATION ACCESS:      32404  HIT:      19738  MISS:      12666  HIT %:    60.9122  MISS %:    39.0878   MPKI: 0.06333
L2C TRANSLATION FROM L1D PREFETCHER ACCESS:        743  HIT:        537  MISS:        206  HIT %:    72.2746  MISS %:    27.7254   MPKI: 0.00103
L2C PREFETCH  REQUESTED:          0  ISSUED:          0  USEFUL:      26635  USELESS:     192340
L2C USEFUL LOAD PREFETCHES:      26635 PREFETCH ISSUED TO LOWER LEVEL:     218564  ACCURACY: 12.1864
L2C TIMELY PREFETCHES:      26635 LATE PREFETCHES: 0 DROPPED PREFETCHES: 0
L2C PREFETCHES SAME FILL-ORIGIN LEVEL: 0 DIFFERENT FILL-ORIGIN LEVEL: 0
L2C AVERAGE MISS LATENCY: 86.1525 cycles
L2C RQ	ACCESS:    7944679	FORWARD:          0	MERGED:          0	TO_CACHE:    7944647
L2C WQ	ACCESS:     502461	FORWARD:         32	MERGED:          0	TO_CACHE:     502461
L2C PQ	ACCESS:     644886	FORWARD:          0	MERGED:          0	TO_CACHE:     644886

L2C Instructions Evicting Data 169356
L2C Translations Evicting Data 8575
L2C Data Evicting Data 819588
L2C Instructions Evicting Instructions 93224
L2C Translations Evicting Instructions 4063
L2C Data Evicting Instructions 167324
L2C Instructions Evicting Translations 4112
L2C Translations Evicting Translations 234
L2C Data Evicting Translations 8429
L2C Dense regions hint from L2: 0
PSCL5 TOTAL     ACCESS:      31539  HIT:      31539  MISS:          0  HIT %:        100  MISS %:          0   MPKI: 0
PSCL5 LOAD TRANSLATION ACCESS:      30814  HIT:      30814  MISS:          0  HIT %:        100  MISS %:          0   MPKI: 0
PSCL5 TRANSLATION FROM L1D PREFETCHER ACCESS:        725  HIT:        725  MISS:          0  HIT %:        100  MISS %:          0   MPKI: 0
PSCL5 PREFETCH  REQUESTED:          0  ISSUED:          0  USEFUL:          0  USELESS:          0
PSCL5 USEFUL LOAD PREFETCHES:          0 PREFETCH ISSUED TO LOWER LEVEL:          0  ACCURACY: -nan
PSCL5 TIMELY PREFETCHES:          0 LATE PREFETCHES: 0 DROPPED PREFETCHES: 0
PSCL5 PREFETCHES SAME FILL-ORIGIN LEVEL: 0 DIFFERENT FILL-ORIGIN LEVEL: 0

PSCL4 TOTAL     ACCESS:      31539  HIT:      31539  MISS:          0  HIT %:        100  MISS %:          0   MPKI: 0
PSCL4 LOAD TRANSLATION ACCESS:      30814  HIT:      30814  MISS:          0  HIT %:        100  MISS %:          0   MPKI: 0
PSCL4 TRANSLATION FROM L1D PREFETCHER ACCESS:        725  HIT:        725  MISS:          0  HIT %:        100  MISS %:          0   MPKI: 0
PSCL4 PREFETCH  REQUESTED:          0  ISSUED:          0  USEFUL:          0  USELESS:          0
PSCL4 USEFUL LOAD PREFETCHES:          0 PREFETCH ISSUED TO LOWER LEVEL:          0  ACCURACY: -nan
PSCL4 TIMELY PREFETCHES:          0 LATE PREFETCHES: 0 DROPPED PREFETCHES: 0
PSCL4 PREFETCHES SAME FILL-ORIGIN LEVEL: 0 DIFFERENT FILL-ORIGIN LEVEL: 0

PSCL3 TOTAL     ACCESS:      31442  HIT:      31402  MISS:         40  HIT %:    99.8728  MISS %:   0.127218   MPKI: 0.0002
PSCL3 LOAD TRANSLATION ACCESS:      30722  HIT:      30682  MISS:         40  HIT %:    99.8698  MISS %:     0.1302   MPKI: 0.0002
PSCL3 TRANSLATION FROM L1D PREFETCHER ACCESS:        720  HIT:        720  MISS:          0  HIT %:        100  MISS %:          0   MPKI: 0
PSCL3 PREFETCH  REQUESTED:          0  ISSUED:          0  USEFUL:          0  USELESS:          0
PSCL3 USEFUL LOAD PREFETCHES:          0 PREFETCH ISSUED TO LOWER LEVEL:          0  ACCURACY: -nan
PSCL3 TIMELY PREFETCHES:          0 LATE PREFETCHES: 0 DROPPED PREFETCHES: 0
PSCL3 PREFETCHES SAME FILL-ORIGIN LEVEL: 0 DIFFERENT FILL-ORIGIN LEVEL: 0

PSCL2 TOTAL     ACCESS:      31528  HIT:      29968  MISS:       1560  HIT %:     95.052  MISS %:    4.94798   MPKI: 0.0078
PSCL2 LOAD TRANSLATION ACCESS:      30817  HIT:      29257  MISS:       1560  HIT %:    94.9379  MISS %:    5.06214   MPKI: 0.0078
PSCL2 TRANSLATION FROM L1D PREFETCHER ACCESS:        711  HIT:        711  MISS:          0  HIT %:        100  MISS %:          0   MPKI: 0
PSCL2 PREFETCH  REQUESTED:          0  ISSUED:          0  USEFUL:          0  USELESS:          0
PSCL2 USEFUL LOAD PREFETCHES:          0 PREFETCH ISSUED TO LOWER LEVEL:          0  ACCURACY: -nan
PSCL2 TIMELY PREFETCHES:          0 LATE PREFETCHES: 0 DROPPED PREFETCHES: 0
PSCL2 PREFETCHES SAME FILL-ORIGIN LEVEL: 0 DIFFERENT FILL-ORIGIN LEVEL: 0

LLC TOTAL     ACCESS:    1603283  HIT:    1096509  MISS:     506774  HIT %:    68.3915  MISS %:    31.6085   MPKI: 2.53387
LLC LOAD      ACCESS:     783948  HIT:     587059  MISS:     196889  HIT %:    74.8849  MISS %:    25.1151   MPKI: 0.984445
LLC RFO       ACCESS:     259521  HIT:      16991  MISS:     242530  HIT %:    6.54706  MISS %:    93.4529   MPKI: 1.21265
LLC PREFETCH  ACCESS:     218564  HIT:     167103  MISS:      51461  HIT %:     76.455  MISS %:     23.545   MPKI: 0.257305
AGUS PREFETCH L1 MISS: 0
LLC WRITEBACK ACCESS:     328378  HIT:     316151  MISS:      12227  HIT %:    96.2765  MISS %:    3.72345   MPKI: 0.061135
LLC LOAD TRANSLATION ACCESS:      12666  HIT:       9072  MISS:       3594  HIT %:    71.6248  MISS %:    28.3752   MPKI: 0.01797
LLC TRANSLATION FROM L1D PREFETCHER ACCESS:        206  HIT:        133  MISS:         73  HIT %:    64.5631  MISS %:    35.4369   MPKI: 0.000365
LLC PREFETCH  REQUESTED:          0  ISSUED:          0  USEFUL:       9158  USELESS:      42417
LLC USEFUL LOAD PREFETCHES:       9158 PREFETCH ISSUED TO LOWER LEVEL:      51461  ACCURACY: 17.796
LLC TIMELY PREFETCHES:       9158 LATE PREFETCHES: 0 DROPPED PREFETCHES: 0
LLC PREFETCHES SAME FILL-ORIGIN LEVEL: 0 DIFFERENT FILL-ORIGIN LEVEL: 0
LLC AVERAGE MISS LATENCY: 142.6 cycles
LLC RQ	ACCESS:    1056341	FORWARD:          0	MERGED:          0	TO_CACHE:    1056341
LLC WQ	ACCESS:     328378	FORWARD:          0	MERGED:          0	TO_CACHE:     328378
LLC PQ	ACCESS:     218564	FORWARD:          0	MERGED:          0	TO_CACHE:     218564

LLC Dense regions hint to LLC: 0

RAW hits: 3378365
Loads Generated: 60093550
Loads sent to L1D: 56715183
Stores Generated: 17136254
Stores sent to L1D: 17136260
Major fault: 0 Minor fault: 5379
Allocated PAGES: 5379
CPU 0 L1d next line prefetcher final stats

DRAM Statistics
 CHANNEL 0
 RQ ROW_BUFFER_HIT:     139517  ROW_BUFFER_MISS:     355023
 DBUS_CONGESTED:        263
 WQ ROW_BUFFER_HIT:      46996  ROW_BUFFER_MISS:     223096  FULL:          0

 AVG_CONGESTED_CYCLE: 4
 All warmup complete: 2
Channel 0 Bank busy for read cycles: 0
Channel 0 Bank busy for write cycles: 0
Channel 0
Rank 0
0banks busy for read cycles: 367578717
0banks busy for write cycles: 134342
1banks busy for read cycles: 36937465
1banks busy for write cycles: 19058444
2banks busy for read cycles: 7015822
2banks busy for write cycles: 4973162
3banks busy for read cycles: 1398905
3banks busy for write cycles: 1756692
4banks busy for read cycles: 374642
4banks busy for write cycles: 793100
5banks busy for read cycles: 186627
5banks busy for write cycles: 460501
6banks busy for read cycles: 89644
6banks busy for write cycles: 307771
7banks busy for read cycles: 91896
7banks busy for write cycles: 341923
8banks busy for read cycles: 185425
8banks busy for write cycles: 797472

CPU 0 Branch Prediction Accuracy: 99.1917% MPKI: 1.85351 Average ROB Occupancy at Mispredict: 21.7754
Branch types
NOT_BRANCH: 154137311 77.0687%
BRANCH_DIRECT_JUMP: 2061309 1.03065%
BRANCH_INDIRECT: 13234606 6.6173%
BRANCH_CONDITIONAL: 21736759 10.8684%
BRANCH_DIRECT_CALL: 1759418 0.879709%
BRANCH_INDIRECT_CALL: 2655183 1.32759%
BRANCH_RETURN: 4415072 2.20754%
BRANCH_OTHER: 0 0%

DRAM PAGES: 1048576
Allocated PAGES: 5379
