
*** ChampSim Multicore Out-of-Order Simulator ***

Warmup Instructions: 50000000
Simulation Instructions: 200000000
Number of CPUs: 1
LLC sets: 2048
LLC ways: 16
Off-chip DRAM Size: 4096 MB Channels: 1 Width: 64-bit Data Rate: 6400 MT/s
CPU 0 runs traces/spec2k17/client_006.champsimtrace.xz
.xz
BTB has LRU replacement policy
ITLB has LRU replacement policy
DTLB has LRU replacement policy
STLB has LRU replacement policy
L1I has LRU replacement policy
CPU 0 L2C next line prefetcher
L1D has LRU replacement policy
Initialize SRRIP state for L2C
Initialize DRRIP state for LLC
Heartbeat CPU 0 instructions: 10000000 cycles: 3270824 heartbeat IPC: 3.05733 cumulative IPC: 3.05733 (Simulation time: 0 hr 0 min 50 sec) 
Heartbeat CPU 0 instructions: 20000002 cycles: 6465761 heartbeat IPC: 3.12995 cumulative IPC: 3.09322 (Simulation time: 0 hr 1 min 39 sec) 
Heartbeat CPU 0 instructions: 30000000 cycles: 9248905 heartbeat IPC: 3.59306 cumulative IPC: 3.24363 (Simulation time: 0 hr 2 min 19 sec) 
Heartbeat CPU 0 instructions: 40000001 cycles: 12130077 heartbeat IPC: 3.47081 cumulative IPC: 3.29759 (Simulation time: 0 hr 3 min 2 sec) 
Heartbeat CPU 0 instructions: 50000001 cycles: 15294347 heartbeat IPC: 3.16029 cumulative IPC: 3.26918 (Simulation time: 0 hr 3 min 48 sec) 

Warmup complete CPU 0 instructions: 50000001 cycles: 15294347 (Simulation time: 0 hr 3 min 48 sec) 

Heartbeat CPU 0 instructions: 60000000 cycles: 34064332 heartbeat IPC: 0.532765 cumulative IPC: 0.532765 (Simulation time: 0 hr 4 min 50 sec) 
Heartbeat CPU 0 instructions: 70000000 cycles: 58339260 heartbeat IPC: 0.411948 cumulative IPC: 0.464631 (Simulation time: 0 hr 5 min 56 sec) 
Heartbeat CPU 0 instructions: 80000000 cycles: 76634046 heartbeat IPC: 0.546604 cumulative IPC: 0.48908 (Simulation time: 0 hr 6 min 58 sec) 
Heartbeat CPU 0 instructions: 90000000 cycles: 97758713 heartbeat IPC: 0.47338 cumulative IPC: 0.485058 (Simulation time: 0 hr 7 min 55 sec) 
Heartbeat CPU 0 instructions: 100000000 cycles: 116217891 heartbeat IPC: 0.541736 cumulative IPC: 0.495425 (Simulation time: 0 hr 8 min 58 sec) 
*** Reached end of trace for Core: 0 Repeating trace: traces/spec2k17/client_006.champsimtrace.xz
Heartbeat CPU 0 instructions: 110000000 cycles: 133362975 heartbeat IPC: 0.583258 cumulative IPC: 0.508179 (Simulation time: 0 hr 10 min 7 sec) 
Heartbeat CPU 0 instructions: 120000003 cycles: 150681317 heartbeat IPC: 0.577423 cumulative IPC: 0.517036 (Simulation time: 0 hr 11 min 16 sec) 
Heartbeat CPU 0 instructions: 130000002 cycles: 168072551 heartbeat IPC: 0.575002 cumulative IPC: 0.523635 (Simulation time: 0 hr 12 min 19 sec) 
Heartbeat CPU 0 instructions: 140000002 cycles: 184799635 heartbeat IPC: 0.597833 cumulative IPC: 0.530957 (Simulation time: 0 hr 13 min 21 sec) 
Heartbeat CPU 0 instructions: 150000001 cycles: 205639849 heartbeat IPC: 0.479841 cumulative IPC: 0.52536 (Simulation time: 0 hr 14 min 33 sec) 
Heartbeat CPU 0 instructions: 160000000 cycles: 223180715 heartbeat IPC: 0.570097 cumulative IPC: 0.529135 (Simulation time: 0 hr 15 min 33 sec) 
Heartbeat CPU 0 instructions: 170000000 cycles: 247991402 heartbeat IPC: 0.403052 cumulative IPC: 0.515692 (Simulation time: 0 hr 16 min 39 sec) 
Heartbeat CPU 0 instructions: 180000003 cycles: 266593642 heartbeat IPC: 0.53757 cumulative IPC: 0.517311 (Simulation time: 0 hr 17 min 39 sec) 
Heartbeat CPU 0 instructions: 190000000 cycles: 287317766 heartbeat IPC: 0.482529 cumulative IPC: 0.514662 (Simulation time: 0 hr 18 min 38 sec) 
Heartbeat CPU 0 instructions: 200000000 cycles: 305671433 heartbeat IPC: 0.54485 cumulative IPC: 0.51657 (Simulation time: 0 hr 19 min 38 sec) 
*** Reached end of trace for Core: 0 Repeating trace: traces/spec2k17/client_006.champsimtrace.xz
Heartbeat CPU 0 instructions: 210000003 cycles: 322955486 heartbeat IPC: 0.578568 cumulative IPC: 0.520053 (Simulation time: 0 hr 20 min 46 sec) 
Heartbeat CPU 0 instructions: 220000000 cycles: 340366856 heartbeat IPC: 0.574337 cumulative IPC: 0.52296 (Simulation time: 0 hr 21 min 56 sec) 
Heartbeat CPU 0 instructions: 230000000 cycles: 356843427 heartbeat IPC: 0.606922 cumulative IPC: 0.527011 (Simulation time: 0 hr 22 min 57 sec) 
Heartbeat CPU 0 instructions: 240000002 cycles: 374150460 heartbeat IPC: 0.5778 cumulative IPC: 0.52946 (Simulation time: 0 hr 23 min 59 sec) 
Heartbeat CPU 0 instructions: 250000000 cycles: 394306603 heartbeat IPC: 0.496127 cumulative IPC: 0.527687 (Simulation time: 0 hr 25 min 12 sec) 
Finished CPU 0 instructions: 200000003 cycles: 379012264 cumulative IPC: 0.527687 (Simulation time: 0 hr 25 min 12 sec) 

ChampSim completed all CPUs

Region of Interest Statistics

CPU 0 cumulative IPC: 0.527687 instructions: 200000003 cycles: 379012264
ITLB TOTAL     ACCESS:   31686659  HIT:   31191613  MISS:     495046  HIT %:    98.4377  MISS %:    1.56232   MPKI: 2.47523
ITLB LOAD TRANSLATION ACCESS:   31686659  HIT:   31191613  MISS:     495046  HIT %:    98.4377  MISS %:    1.56232   MPKI: 2.47523
ITLB PREFETCH  REQUESTED:          0  ISSUED:          0  USEFUL:          0  USELESS:          0
ITLB USEFUL LOAD PREFETCHES:          0 PREFETCH ISSUED TO LOWER LEVEL:          0  ACCURACY: -nan
ITLB TIMELY PREFETCHES:          0 LATE PREFETCHES: 0 DROPPED PREFETCHES: 0
ITLB PREFETCHES SAME FILL-ORIGIN LEVEL: 0 DIFFERENT FILL-ORIGIN LEVEL: 0
ITLB AVERAGE MISS LATENCY: 11.1828 cycles
ITLB RQ	ACCESS:   37637450	FORWARD:          0	MERGED:    5895960	TO_CACHE:   31741490

DTLB TOTAL     ACCESS:   41067295  HIT:   39820702  MISS:    1246593  HIT %:    96.9645  MISS %:    3.03549   MPKI: 6.23296
DTLB LOAD TRANSLATION ACCESS:   41067295  HIT:   39820702  MISS:    1246593  HIT %:    96.9645  MISS %:    3.03549   MPKI: 6.23296
DTLB PREFETCH  REQUESTED:          0  ISSUED:          0  USEFUL:          0  USELESS:          0
DTLB USEFUL LOAD PREFETCHES:          0 PREFETCH ISSUED TO LOWER LEVEL:          0  ACCURACY: -nan
DTLB TIMELY PREFETCHES:          0 LATE PREFETCHES: 0 DROPPED PREFETCHES: 0
DTLB PREFETCHES SAME FILL-ORIGIN LEVEL: 0 DIFFERENT FILL-ORIGIN LEVEL: 0
DTLB AVERAGE MISS LATENCY: 14.9446 cycles
DTLB RQ	ACCESS:   50732859	FORWARD:          0	MERGED:    9607273	TO_CACHE:   41125586

STLB TOTAL     ACCESS:    2488104  HIT:    2395184  MISS:      92920  HIT %:    96.2654  MISS %:    3.73457   MPKI: 0.4646
STLB LOAD TRANSLATION ACCESS:    1741639  HIT:    1656273  MISS:      85366  HIT %:    95.0985  MISS %:    4.90147   MPKI: 0.42683
STLB TRANSLATION FROM L1D PREFETCHER ACCESS:     746465  HIT:     738911  MISS:       7554  HIT %:     98.988  MISS %:    1.01197   MPKI: 0.03777
STLB PREFETCH  REQUESTED:          0  ISSUED:          0  USEFUL:       7047  USELESS:        503
STLB USEFUL LOAD PREFETCHES:       7047 PREFETCH ISSUED TO LOWER LEVEL:          0  ACCURACY: inf
STLB TIMELY PREFETCHES:       7047 LATE PREFETCHES: 727 DROPPED PREFETCHES: 12851
STLB PREFETCHES SAME FILL-ORIGIN LEVEL: 0 DIFFERENT FILL-ORIGIN LEVEL: 0
STLB AVERAGE MISS LATENCY: 95761.1 cycles
STLB RQ	ACCESS:    2627045	FORWARD:          0	MERGED:     120709	TO_CACHE:    2506336

STLB Hit, L1D data hit: 0
STLB Hit, L2C data hit: 0
STLB Hit, LLC data hit: 0
STLB Hit, LLC data miss: 0
STLB STLB hints to L2: 0
L1D TOTAL     ACCESS:   50514672  HIT:   47551515  MISS:    2963157  HIT %:    94.1341  MISS %:    5.86593   MPKI: 14.8158
L1D LOAD      ACCESS:   33728714  HIT:   31537946  MISS:    2190768  HIT %:    93.5047  MISS %:    6.49526   MPKI: 10.9538
L1D RFO       ACCESS:   16226833  HIT:   15963485  MISS:     263348  HIT %:    98.3771  MISS %:    1.62292   MPKI: 1.31674
L1D PREFETCH  ACCESS:     559125  HIT:      50084  MISS:     509041  HIT %:    8.95757  MISS %:    91.0424   MPKI: 2.5452
AGUS PREFETCH L1 MISS: 0
L1D PREFETCH  REQUESTED:    1782874  ISSUED:    1782695  USEFUL:     301184  USELESS:     207888
L1D USEFUL LOAD PREFETCHES:     301184 PREFETCH ISSUED TO LOWER LEVEL:     659657  ACCURACY: 45.6577
L1D TIMELY PREFETCHES:     301184 LATE PREFETCHES: 150335 DROPPED PREFETCHES: 15893
L1D PREFETCHES SAME FILL-ORIGIN LEVEL: 659657 DIFFERENT FILL-ORIGIN LEVEL: 0
L1D AVERAGE MISS LATENCY: 1.12993e+07 cycles
L1D RQ	ACCESS:   49494426	FORWARD:          0	MERGED:   15315379	TO_CACHE:   33963326
L1D WQ	ACCESS:   17096511	FORWARD:     215763	MERGED:     326978	TO_CACHE:   16769533
L1D PQ	ACCESS:     897289	FORWARD:          0	MERGED:      11841	TO_CACHE:     885406

L1D UNIQUE REGIONS ACCESSED: 0
L1D REGIONS CONFLICTS: 0
L1D Cross Page Prefetch Requests: 203192
L1D Same Page Prefetch Requests: 937545
L1D ROI Sum of L1D PQ occupancy: 15180080
L1D PREFETCHES PUSHED FROM L2C: 0
L1I TOTAL     ACCESS:   36767727  HIT:   34319907  MISS:    2447820  HIT %:    93.3425  MISS %:    6.65752   MPKI: 12.2391
L1I LOAD      ACCESS:   36767727  HIT:   34319907  MISS:    2447820  HIT %:    93.3425  MISS %:    6.65752   MPKI: 12.2391
L1I PREFETCH  REQUESTED:          0  ISSUED:          0  USEFUL:          0  USELESS:          0
L1I USEFUL LOAD PREFETCHES:          0 PREFETCH ISSUED TO LOWER LEVEL:          0  ACCURACY: -nan
L1I TIMELY PREFETCHES:          0 LATE PREFETCHES: 0 DROPPED PREFETCHES: 0
L1I PREFETCHES SAME FILL-ORIGIN LEVEL: 0 DIFFERENT FILL-ORIGIN LEVEL: 0
L1I AVERAGE MISS LATENCY: 20.0128 cycles
L1I RQ	ACCESS:   57386614	FORWARD:          0	MERGED:   19749164	TO_CACHE:   37637450

BTB TOTAL     ACCESS:   25851423  HIT:   24123555  MISS:    1727868  HIT %:    93.3162  MISS %:    6.68384   MPKI: 8.63934
BTB BRANCH_DIRECT_JUMP	ACCESS:    1806110  HIT:    1783873  MISS:      22237
BTB BRANCH_INDIRECT	ACCESS:    7197239  HIT:    6432275  MISS:     764964
BTB BRANCH_CONDITIONAL	ACCESS:   11207262  HIT:   11165232  MISS:      42030
BTB BRANCH_DIRECT_CALL	ACCESS:    1904338  HIT:    1877545  MISS:      26793
BTB BRANCH_INDIRECT_CALL	ACCESS:     912580  HIT:     722486  MISS:     190094
BTB BRANCH_RETURN	ACCESS:    2823894  HIT:    2142144  MISS:     681750
BTB BRANCH_OTHER ACCESS:          0  HIT:          0  MISS:          0

L2C TOTAL     ACCESS:    6352064  HIT:    4523887  MISS:    1828177  HIT %:    71.2192  MISS %:    28.7808   MPKI: 9.14088
L2C LOAD      ACCESS:    4488163  HIT:    3401842  MISS:    1086321  HIT %:    75.7959  MISS %:    24.2041   MPKI: 5.4316
L2C DATA LOAD MPKI: 4.78287
L2C INSTRUCTION LOAD MPKI: 0.648735
L2C RFO       ACCESS:     263056  HIT:      84172  MISS:     178884  HIT %:    31.9977  MISS %:    68.0023   MPKI: 0.89442
L2C PREFETCH  ACCESS:     659658  HIT:     160449  MISS:     499209  HIT %:    24.3231  MISS %:    75.6769   MPKI: 2.49604
AGUS PREFETCH L1 MISS: 0
L2C DATA PREFETCH MPKI: 2.49604
L2C INSTRUCTION PREFETCH MPKI: 0
L2C WRITEBACK ACCESS:     822523  HIT:     808359  MISS:      14164  HIT %:     98.278  MISS %:    1.72202   MPKI: 0.07082
L2C LOAD TRANSLATION ACCESS:      94759  HIT:      48548  MISS:      46211  HIT %:    51.2331  MISS %:    48.7669   MPKI: 0.231055
L2C TRANSLATION FROM L1D PREFETCHER ACCESS:      23905  HIT:      20517  MISS:       3388  HIT %:    85.8272  MISS %:    14.1728   MPKI: 0.01694
L2C PREFETCH  REQUESTED:          0  ISSUED:          0  USEFUL:      13144  USELESS:     489163
L2C USEFUL LOAD PREFETCHES:      13144 PREFETCH ISSUED TO LOWER LEVEL:     499209  ACCURACY: 2.63297
L2C TIMELY PREFETCHES:      13144 LATE PREFETCHES: 0 DROPPED PREFETCHES: 0
L2C PREFETCHES SAME FILL-ORIGIN LEVEL: 0 DIFFERENT FILL-ORIGIN LEVEL: 0
L2C AVERAGE MISS LATENCY: 121.999 cycles
L2C RQ	ACCESS:    4869982	FORWARD:          0	MERGED:          0	TO_CACHE:    4869883
L2C WQ	ACCESS:     822523	FORWARD:         99	MERGED:          0	TO_CACHE:     822523
L2C PQ	ACCESS:     659657	FORWARD:          0	MERGED:          0	TO_CACHE:     659657

L2C Instructions Evicting Data 109550
L2C Translations Evicting Data 43514
L2C Data Evicting Data 1481836
L2C Instructions Evicting Instructions 15798
L2C Translations Evicting Instructions 4595
L2C Data Evicting Instructions 109195
L2C Instructions Evicting Translations 4399
L2C Translations Evicting Translations 1490
L2C Data Evicting Translations 43636
L2C Dense regions hint from L2: 0
PSCL5 TOTAL     ACCESS:     105785  HIT:     105785  MISS:          0  HIT %:        100  MISS %:          0   MPKI: 0
PSCL5 LOAD TRANSLATION ACCESS:      84653  HIT:      84653  MISS:          0  HIT %:        100  MISS %:          0   MPKI: 0
PSCL5 TRANSLATION FROM L1D PREFETCHER ACCESS:      21132  HIT:      21132  MISS:          0  HIT %:        100  MISS %:          0   MPKI: 0
PSCL5 PREFETCH  REQUESTED:          0  ISSUED:          0  USEFUL:          0  USELESS:          0
PSCL5 USEFUL LOAD PREFETCHES:          0 PREFETCH ISSUED TO LOWER LEVEL:          0  ACCURACY: -nan
PSCL5 TIMELY PREFETCHES:          0 LATE PREFETCHES: 0 DROPPED PREFETCHES: 0
PSCL5 PREFETCHES SAME FILL-ORIGIN LEVEL: 0 DIFFERENT FILL-ORIGIN LEVEL: 0

PSCL4 TOTAL     ACCESS:      93152  HIT:      93044  MISS:        108  HIT %:    99.8841  MISS %:    0.11594   MPKI: 0.00054
PSCL4 LOAD TRANSLATION ACCESS:      74298  HIT:      74190  MISS:        108  HIT %:    99.8546  MISS %:   0.145361   MPKI: 0.00054
PSCL4 TRANSLATION FROM L1D PREFETCHER ACCESS:      18854  HIT:      18854  MISS:          0  HIT %:        100  MISS %:          0   MPKI: 0
PSCL4 PREFETCH  REQUESTED:          0  ISSUED:          0  USEFUL:          0  USELESS:          0
PSCL4 USEFUL LOAD PREFETCHES:          0 PREFETCH ISSUED TO LOWER LEVEL:          0  ACCURACY: -nan
PSCL4 TIMELY PREFETCHES:          0 LATE PREFETCHES: 0 DROPPED PREFETCHES: 0
PSCL4 PREFETCHES SAME FILL-ORIGIN LEVEL: 0 DIFFERENT FILL-ORIGIN LEVEL: 0

PSCL3 TOTAL     ACCESS:     105344  HIT:     105023  MISS:        321  HIT %:    99.6953  MISS %:   0.304716   MPKI: 0.001605
PSCL3 LOAD TRANSLATION ACCESS:      84379  HIT:      84058  MISS:        321  HIT %:    99.6196  MISS %:   0.380426   MPKI: 0.001605
PSCL3 TRANSLATION FROM L1D PREFETCHER ACCESS:      20965  HIT:      20965  MISS:          0  HIT %:        100  MISS %:          0   MPKI: 0
PSCL3 PREFETCH  REQUESTED:          0  ISSUED:          0  USEFUL:          0  USELESS:          0
PSCL3 USEFUL LOAD PREFETCHES:          0 PREFETCH ISSUED TO LOWER LEVEL:          0  ACCURACY: -nan
PSCL3 TIMELY PREFETCHES:          0 LATE PREFETCHES: 0 DROPPED PREFETCHES: 0
PSCL3 PREFETCHES SAME FILL-ORIGIN LEVEL: 0 DIFFERENT FILL-ORIGIN LEVEL: 0

PSCL2 TOTAL     ACCESS:     103263  HIT:      93119  MISS:      10144  HIT %:    90.1765  MISS %:    9.82346   MPKI: 0.05072
PSCL2 LOAD TRANSLATION ACCESS:      85072  HIT:      74928  MISS:      10144  HIT %:     88.076  MISS %:     11.924   MPKI: 0.05072
PSCL2 TRANSLATION FROM L1D PREFETCHER ACCESS:      18191  HIT:      18191  MISS:          0  HIT %:        100  MISS %:          0   MPKI: 0
PSCL2 PREFETCH  REQUESTED:          0  ISSUED:          0  USEFUL:          0  USELESS:          0
PSCL2 USEFUL LOAD PREFETCHES:          0 PREFETCH ISSUED TO LOWER LEVEL:          0  ACCURACY: -nan
PSCL2 TIMELY PREFETCHES:          0 LATE PREFETCHES: 0 DROPPED PREFETCHES: 0
PSCL2 PREFETCHES SAME FILL-ORIGIN LEVEL: 0 DIFFERENT FILL-ORIGIN LEVEL: 0

LLC TOTAL     ACCESS:    2306529  HIT:    1272347  MISS:    1034182  HIT %:    55.1628  MISS %:    44.8372   MPKI: 5.17091
LLC LOAD      ACCESS:    1086321  HIT:     464780  MISS:     621541  HIT %:    42.7848  MISS %:    57.2152   MPKI: 3.1077
LLC RFO       ACCESS:     178884  HIT:      23120  MISS:     155764  HIT %:    12.9246  MISS %:    87.0754   MPKI: 0.77882
LLC PREFETCH  ACCESS:     499208  HIT:     296052  MISS:     203156  HIT %:    59.3043  MISS %:    40.6957   MPKI: 1.01578
AGUS PREFETCH L1 MISS: 0
LLC WRITEBACK ACCESS:     492517  HIT:     464392  MISS:      28125  HIT %:    94.2895  MISS %:    5.71046   MPKI: 0.140625
LLC LOAD TRANSLATION ACCESS:      46211  HIT:      21719  MISS:      24492  HIT %:    46.9996  MISS %:    53.0004   MPKI: 0.12246
LLC TRANSLATION FROM L1D PREFETCHER ACCESS:       3388  HIT:       2284  MISS:       1104  HIT %:    67.4144  MISS %:    32.5856   MPKI: 0.00552
LLC PREFETCH  REQUESTED:          0  ISSUED:          0  USEFUL:      23060  USELESS:     182258
LLC USEFUL LOAD PREFETCHES:      23060 PREFETCH ISSUED TO LOWER LEVEL:     203156  ACCURACY: 11.3509
LLC TIMELY PREFETCHES:      23060 LATE PREFETCHES: 0 DROPPED PREFETCHES: 0
LLC PREFETCHES SAME FILL-ORIGIN LEVEL: 0 DIFFERENT FILL-ORIGIN LEVEL: 0
LLC AVERAGE MISS LATENCY: 162.999 cycles
LLC RQ	ACCESS:    1314804	FORWARD:          0	MERGED:          0	TO_CACHE:    1314804
LLC WQ	ACCESS:     492517	FORWARD:          1	MERGED:          0	TO_CACHE:     492517
LLC PQ	ACCESS:     499209	FORWARD:          0	MERGED:          0	TO_CACHE:     499208

LLC Dense regions hint to LLC: 0

RAW hits: 2538053
Loads Generated: 52032481
Loads sent to L1D: 49494426
Stores Generated: 17096501
Stores sent to L1D: 17096511
Major fault: 0 Minor fault: 10830
Allocated PAGES: 10830
CPU 0 L1d next line prefetcher final stats

DRAM Statistics
 CHANNEL 0
 RQ ROW_BUFFER_HIT:     230002  ROW_BUFFER_MISS:     776031
 DBUS_CONGESTED:        359
 WQ ROW_BUFFER_HIT:      98849  ROW_BUFFER_MISS:     339873  FULL:          0

 AVG_CONGESTED_CYCLE: 4
 All warmup complete: 2
Channel 0 Bank busy for read cycles: 0
Channel 0 Bank busy for write cycles: 0
Channel 0
Rank 0
0banks busy for read cycles: 253263224
0banks busy for write cycles: 166296
1banks busy for read cycles: 55589798
1banks busy for write cycles: 23799211
2banks busy for read cycles: 15661833
2banks busy for write cycles: 8930940
3banks busy for read cycles: 5590491
3banks busy for write cycles: 4157537
4banks busy for read cycles: 2309021
4banks busy for write cycles: 2321805
5banks busy for read cycles: 863560
5banks busy for write cycles: 1339764
6banks busy for read cycles: 421760
6banks busy for write cycles: 737047
7banks busy for read cycles: 358908
7banks busy for write cycles: 604735
8banks busy for read cycles: 739315
8banks busy for write cycles: 2157020

CPU 0 Branch Prediction Accuracy: 99.0203% MPKI: 1.6776 Average ROB Occupancy at Mispredict: 37.5716
Branch types
NOT_BRANCH: 165753023 82.8765%
BRANCH_DIRECT_JUMP: 1806110 0.903055%
BRANCH_INDIRECT: 7197239 3.59862%
BRANCH_CONDITIONAL: 19602510 9.80125%
BRANCH_DIRECT_CALL: 1904338 0.952169%
BRANCH_INDIRECT_CALL: 912580 0.45629%
BRANCH_RETURN: 2823894 1.41195%
BRANCH_OTHER: 0 0%

DRAM PAGES: 1048576
Allocated PAGES: 10830
