
*** ChampSim Multicore Out-of-Order Simulator ***

Warmup Instructions: 50000000
Simulation Instructions: 200000000
Number of CPUs: 1
LLC sets: 2048
LLC ways: 16
Off-chip DRAM Size: 4096 MB Channels: 1 Width: 64-bit Data Rate: 6400 MT/s
CPU 0 runs traces/spec2k17/server_022.champsimtrace.xz
.xz
BTB has LRU replacement policy
ITLB has LRU replacement policy
DTLB has LRU replacement policy
STLB has LRU replacement policy
L1I has LRU replacement policy
CPU 0 L2C next line prefetcher
L1D has LRU replacement policy
Initialize SRRIP state for L2C
Initialize DRRIP state for LLC
Heartbeat CPU 0 instructions: 10000001 cycles: 2938854 heartbeat IPC: 3.40269 cumulative IPC: 3.40269 (Simulation time: 0 hr 0 min 46 sec) 
Heartbeat CPU 0 instructions: 20000003 cycles: 5881008 heartbeat IPC: 3.39887 cumulative IPC: 3.40078 (Simulation time: 0 hr 1 min 30 sec) 
Heartbeat CPU 0 instructions: 30000000 cycles: 8817317 heartbeat IPC: 3.40564 cumulative IPC: 3.4024 (Simulation time: 0 hr 2 min 14 sec) 
Heartbeat CPU 0 instructions: 40000002 cycles: 11757324 heartbeat IPC: 3.40135 cumulative IPC: 3.40213 (Simulation time: 0 hr 2 min 59 sec) 
Heartbeat CPU 0 instructions: 50000002 cycles: 14696573 heartbeat IPC: 3.40223 cumulative IPC: 3.40215 (Simulation time: 0 hr 3 min 43 sec) 

Warmup complete CPU 0 instructions: 50000002 cycles: 14696573 (Simulation time: 0 hr 3 min 43 sec) 

Heartbeat CPU 0 instructions: 60000002 cycles: 34249863 heartbeat IPC: 0.511423 cumulative IPC: 0.511423 (Simulation time: 0 hr 5 min 5 sec) 
Heartbeat CPU 0 instructions: 70000000 cycles: 53620806 heartbeat IPC: 0.516237 cumulative IPC: 0.513819 (Simulation time: 0 hr 6 min 25 sec) 
Heartbeat CPU 0 instructions: 80000003 cycles: 72929467 heartbeat IPC: 0.517902 cumulative IPC: 0.515173 (Simulation time: 0 hr 7 min 45 sec) 
Heartbeat CPU 0 instructions: 90000002 cycles: 92268260 heartbeat IPC: 0.517095 cumulative IPC: 0.515652 (Simulation time: 0 hr 9 min 5 sec) 
Heartbeat CPU 0 instructions: 100000000 cycles: 111827557 heartbeat IPC: 0.511266 cumulative IPC: 0.514769 (Simulation time: 0 hr 10 min 24 sec) 
*** Reached end of trace for Core: 0 Repeating trace: traces/spec2k17/server_022.champsimtrace.xz
Heartbeat CPU 0 instructions: 110000000 cycles: 131210477 heartbeat IPC: 0.515918 cumulative IPC: 0.51496 (Simulation time: 0 hr 11 min 41 sec) 
Heartbeat CPU 0 instructions: 120000001 cycles: 150629031 heartbeat IPC: 0.514971 cumulative IPC: 0.514962 (Simulation time: 0 hr 13 min 2 sec) 
Heartbeat CPU 0 instructions: 130000000 cycles: 170048792 heartbeat IPC: 0.514939 cumulative IPC: 0.514959 (Simulation time: 0 hr 14 min 25 sec) 
Heartbeat CPU 0 instructions: 140000000 cycles: 189377823 heartbeat IPC: 0.517357 cumulative IPC: 0.515224 (Simulation time: 0 hr 15 min 45 sec) 
Heartbeat CPU 0 instructions: 150000000 cycles: 208672970 heartbeat IPC: 0.518265 cumulative IPC: 0.515527 (Simulation time: 0 hr 17 min 3 sec) 
Heartbeat CPU 0 instructions: 160000001 cycles: 228246898 heartbeat IPC: 0.510884 cumulative IPC: 0.515101 (Simulation time: 0 hr 18 min 25 sec) 
Heartbeat CPU 0 instructions: 170000002 cycles: 247586374 heartbeat IPC: 0.517077 cumulative IPC: 0.515265 (Simulation time: 0 hr 19 min 48 sec) 
Heartbeat CPU 0 instructions: 180000003 cycles: 266948377 heartbeat IPC: 0.516476 cumulative IPC: 0.515358 (Simulation time: 0 hr 21 min 8 sec) 
Heartbeat CPU 0 instructions: 190000003 cycles: 286155687 heartbeat IPC: 0.520635 cumulative IPC: 0.515731 (Simulation time: 0 hr 22 min 30 sec) 
Heartbeat CPU 0 instructions: 200000002 cycles: 305389031 heartbeat IPC: 0.51993 cumulative IPC: 0.516009 (Simulation time: 0 hr 23 min 50 sec) 
Heartbeat CPU 0 instructions: 210000002 cycles: 324751544 heartbeat IPC: 0.516462 cumulative IPC: 0.516038 (Simulation time: 0 hr 25 min 10 sec) 
*** Reached end of trace for Core: 0 Repeating trace: traces/spec2k17/server_022.champsimtrace.xz
Heartbeat CPU 0 instructions: 220000000 cycles: 344048370 heartbeat IPC: 0.51822 cumulative IPC: 0.516165 (Simulation time: 0 hr 26 min 30 sec) 
Heartbeat CPU 0 instructions: 230000003 cycles: 363429252 heartbeat IPC: 0.515973 cumulative IPC: 0.516155 (Simulation time: 0 hr 27 min 49 sec) 
Heartbeat CPU 0 instructions: 240000000 cycles: 382669527 heartbeat IPC: 0.519743 cumulative IPC: 0.516342 (Simulation time: 0 hr 29 min 7 sec) 
Heartbeat CPU 0 instructions: 250000002 cycles: 401957898 heartbeat IPC: 0.518447 cumulative IPC: 0.516447 (Simulation time: 0 hr 30 min 27 sec) 
Finished CPU 0 instructions: 200000000 cycles: 387261325 cumulative IPC: 0.516447 (Simulation time: 0 hr 30 min 27 sec) 

ChampSim completed all CPUs

Region of Interest Statistics

CPU 0 cumulative IPC: 0.516447 instructions: 200000000 cycles: 387261325
ITLB TOTAL     ACCESS:   33776755  HIT:   32234036  MISS:    1542719  HIT %:    95.4326  MISS %:     4.5674   MPKI: 7.71359
ITLB LOAD TRANSLATION ACCESS:   33776755  HIT:   32234036  MISS:    1542719  HIT %:    95.4326  MISS %:     4.5674   MPKI: 7.71359
ITLB PREFETCH  REQUESTED:          0  ISSUED:          0  USEFUL:          0  USELESS:          0
ITLB USEFUL LOAD PREFETCHES:          0 PREFETCH ISSUED TO LOWER LEVEL:          0  ACCURACY: -nan
ITLB TIMELY PREFETCHES:          0 LATE PREFETCHES: 0 DROPPED PREFETCHES: 0
ITLB PREFETCHES SAME FILL-ORIGIN LEVEL: 0 DIFFERENT FILL-ORIGIN LEVEL: 0
ITLB AVERAGE MISS LATENCY: 9.21993 cycles
ITLB RQ	ACCESS:   40679815	FORWARD:          0	MERGED:    6406768	TO_CACHE:   34273047

DTLB TOTAL     ACCESS:   40078500  HIT:   38554852  MISS:    1523648  HIT %:    96.1983  MISS %:    3.80166   MPKI: 7.61824
DTLB LOAD TRANSLATION ACCESS:   40078500  HIT:   38554852  MISS:    1523648  HIT %:    96.1983  MISS %:    3.80166   MPKI: 7.61824
DTLB PREFETCH  REQUESTED:          0  ISSUED:          0  USEFUL:          0  USELESS:          0
DTLB USEFUL LOAD PREFETCHES:          0 PREFETCH ISSUED TO LOWER LEVEL:          0  ACCURACY: -nan
DTLB TIMELY PREFETCHES:          0 LATE PREFETCHES: 0 DROPPED PREFETCHES: 0
DTLB PREFETCHES SAME FILL-ORIGIN LEVEL: 0 DIFFERENT FILL-ORIGIN LEVEL: 0
DTLB AVERAGE MISS LATENCY: 15.1666 cycles
DTLB RQ	ACCESS:   61229602	FORWARD:          0	MERGED:   20759453	TO_CACHE:   40470149

STLB TOTAL     ACCESS:    4433305  HIT:    4359876  MISS:      73429  HIT %:    98.3437  MISS %:     1.6563   MPKI: 0.367145
STLB LOAD TRANSLATION ACCESS:    3066367  HIT:    2995416  MISS:      70951  HIT %:    97.6862  MISS %:    2.31385   MPKI: 0.354755
STLB TRANSLATION FROM L1D PREFETCHER ACCESS:    1366938  HIT:    1364460  MISS:       2478  HIT %:    99.8187  MISS %:   0.181281   MPKI: 0.01239
STLB PREFETCH  REQUESTED:          0  ISSUED:          0  USEFUL:       2251  USELESS:        226
STLB USEFUL LOAD PREFETCHES:       2251 PREFETCH ISSUED TO LOWER LEVEL:          0  ACCURACY: inf
STLB TIMELY PREFETCHES:       2251 LATE PREFETCHES: 796 DROPPED PREFETCHES: 2326
STLB PREFETCHES SAME FILL-ORIGIN LEVEL: 0 DIFFERENT FILL-ORIGIN LEVEL: 0
STLB AVERAGE MISS LATENCY: 632890 cycles
STLB RQ	ACCESS:    4923258	FORWARD:          0	MERGED:     485171	TO_CACHE:    4438087

STLB Hit, L1D data hit: 0
STLB Hit, L2C data hit: 0
STLB Hit, LLC data hit: 0
STLB Hit, LLC data miss: 0
STLB STLB hints to L2: 0
L1D TOTAL     ACCESS:   50084663  HIT:   42885397  MISS:    7199266  HIT %:    85.6258  MISS %:    14.3742   MPKI: 35.9963
L1D LOAD      ACCESS:   26815873  HIT:   24056360  MISS:    2759513  HIT %:    89.7094  MISS %:    10.2906   MPKI: 13.7976
L1D RFO       ACCESS:   22391314  HIT:   18698372  MISS:    3692942  HIT %:    83.5073  MISS %:    16.4927   MPKI: 18.4647
L1D PREFETCH  ACCESS:     877476  HIT:     130665  MISS:     746811  HIT %:     14.891  MISS %:     85.109   MPKI: 3.73406
AGUS PREFETCH L1 MISS: 0
L1D PREFETCH  REQUESTED:    3849154  ISSUED:    3848834  USEFUL:     348053  USELESS:     398777
L1D USEFUL LOAD PREFETCHES:     348053 PREFETCH ISSUED TO LOWER LEVEL:    1151892  ACCURACY: 30.2158
L1D TIMELY PREFETCHES:     348053 LATE PREFETCHES: 402918 DROPPED PREFETCHES: 3402
L1D PREFETCHES SAME FILL-ORIGIN LEVEL: 1151892 DIFFERENT FILL-ORIGIN LEVEL: 0
L1D AVERAGE MISS LATENCY: 1.17865e+07 cycles
L1D RQ	ACCESS:   45314617	FORWARD:          0	MERGED:   17853543	TO_CACHE:   27191700
L1D WQ	ACCESS:   34236669	FORWARD:     269412	MERGED:     198767	TO_CACHE:   34037902
L1D PQ	ACCESS:    1991943	FORWARD:          0	MERGED:     135014	TO_CACHE:    1856891

L1D UNIQUE REGIONS ACCESSED: 0
L1D REGIONS CONFLICTS: 0
L1D Cross Page Prefetch Requests: 77057
L1D Same Page Prefetch Requests: 2290396
L1D ROI Sum of L1D PQ occupancy: 26673818
L1D PREFETCHES PUSHED FROM L2C: 0
L1I TOTAL     ACCESS:   38013272  HIT:   28884066  MISS:    9129206  HIT %:    75.9842  MISS %:    24.0158   MPKI: 45.646
L1I LOAD      ACCESS:   38013272  HIT:   28884066  MISS:    9129206  HIT %:    75.9842  MISS %:    24.0158   MPKI: 45.646
L1I PREFETCH  REQUESTED:          0  ISSUED:          0  USEFUL:          0  USELESS:          0
L1I USEFUL LOAD PREFETCHES:          0 PREFETCH ISSUED TO LOWER LEVEL:          0  ACCURACY: -nan
L1I TIMELY PREFETCHES:          0 LATE PREFETCHES: 0 DROPPED PREFETCHES: 0
L1I PREFETCHES SAME FILL-ORIGIN LEVEL: 0 DIFFERENT FILL-ORIGIN LEVEL: 0
L1I AVERAGE MISS LATENCY: 16.7278 cycles
L1I RQ	ACCESS:   58964562	FORWARD:          0	MERGED:   18284747	TO_CACHE:   40679815

BTB TOTAL     ACCESS:   25686192  HIT:   24135282  MISS:    1550910  HIT %:    93.9621  MISS %:    6.03791   MPKI: 7.75455
BTB BRANCH_DIRECT_JUMP	ACCESS:    1661001  HIT:    1650247  MISS:      10754
BTB BRANCH_INDIRECT	ACCESS:    9967571  HIT:    9455077  MISS:     512494
BTB BRANCH_CONDITIONAL	ACCESS:    7219465  HIT:    7204509  MISS:      14956
BTB BRANCH_DIRECT_CALL	ACCESS:    2825891  HIT:    2790313  MISS:      35578
BTB BRANCH_INDIRECT_CALL	ACCESS:     593170  HIT:     481443  MISS:     111727
BTB BRANCH_RETURN	ACCESS:    3419094  HIT:    2553693  MISS:     865401
BTB BRANCH_OTHER ACCESS:          0  HIT:          0  MISS:          0

L2C TOTAL     ACCESS:   20773171  HIT:   13845536  MISS:    6927635  HIT %:     66.651  MISS %:     33.349   MPKI: 34.6382
L2C LOAD      ACCESS:   11485546  HIT:    9231343  MISS:    2254203  HIT %:    80.3736  MISS %:    19.6264   MPKI: 11.271
L2C DATA LOAD MPKI: 8.34572
L2C INSTRUCTION LOAD MPKI: 2.9253
L2C RFO       ACCESS:    3690762  HIT:     147243  MISS:    3543519  HIT %:     3.9895  MISS %:    96.0105   MPKI: 17.7176
L2C PREFETCH  ACCESS:    1151892  HIT:     201187  MISS:     950705  HIT %:    17.4658  MISS %:    82.5342   MPKI: 4.75352
AGUS PREFETCH L1 MISS: 0
L2C DATA PREFETCH MPKI: 4.75352
L2C INSTRUCTION PREFETCH MPKI: 0
L2C WRITEBACK ACCESS:    4360442  HIT:    4219396  MISS:     141046  HIT %:    96.7653  MISS %:    3.23467   MPKI: 0.70523
L2C LOAD TRANSLATION ACCESS:      78083  HIT:      42521  MISS:      35562  HIT %:    54.4562  MISS %:    45.5438   MPKI: 0.17781
L2C TRANSLATION FROM L1D PREFETCHER ACCESS:       6446  HIT:       3846  MISS:       2600  HIT %:    59.6649  MISS %:    40.3351   MPKI: 0.013
L2C PREFETCH  REQUESTED:          0  ISSUED:          0  USEFUL:      32839  USELESS:     920440
L2C USEFUL LOAD PREFETCHES:      32839 PREFETCH ISSUED TO LOWER LEVEL:     950705  ACCURACY: 3.45417
L2C TIMELY PREFETCHES:      32839 LATE PREFETCHES: 0 DROPPED PREFETCHES: 0
L2C PREFETCHES SAME FILL-ORIGIN LEVEL: 0 DIFFERENT FILL-ORIGIN LEVEL: 0
L2C AVERAGE MISS LATENCY: 154.221 cycles
L2C RQ	ACCESS:   15261111	FORWARD:          0	MERGED:          0	TO_CACHE:   15260839
L2C WQ	ACCESS:    4360442	FORWARD:        272	MERGED:          0	TO_CACHE:    4360442
L2C PQ	ACCESS:    1151892	FORWARD:          0	MERGED:          0	TO_CACHE:    1151892

L2C Instructions Evicting Data 541758
L2C Translations Evicting Data 35097
L2C Data Evicting Data 5600106
L2C Instructions Evicting Instructions 40303
L2C Translations Evicting Instructions 2894
L2C Data Evicting Instructions 528774
L2C Instructions Evicting Translations 2998
L2C Translations Evicting Translations 171
L2C Data Evicting Translations 34488
L2C Dense regions hint from L2: 0
PSCL5 TOTAL     ACCESS:      75755  HIT:      75755  MISS:          0  HIT %:        100  MISS %:          0   MPKI: 0
PSCL5 LOAD TRANSLATION ACCESS:      70155  HIT:      70155  MISS:          0  HIT %:        100  MISS %:          0   MPKI: 0
PSCL5 TRANSLATION FROM L1D PREFETCHER ACCESS:       5600  HIT:       5600  MISS:          0  HIT %:        100  MISS %:          0   MPKI: 0
PSCL5 PREFETCH  REQUESTED:          0  ISSUED:          0  USEFUL:          0  USELESS:          0
PSCL5 USEFUL LOAD PREFETCHES:          0 PREFETCH ISSUED TO LOWER LEVEL:          0  ACCURACY: -nan
PSCL5 TIMELY PREFETCHES:          0 LATE PREFETCHES: 0 DROPPED PREFETCHES: 0
PSCL5 PREFETCHES SAME FILL-ORIGIN LEVEL: 0 DIFFERENT FILL-ORIGIN LEVEL: 0

PSCL4 TOTAL     ACCESS:      64172  HIT:      64088  MISS:         84  HIT %:    99.8691  MISS %:   0.130898   MPKI: 0.00042
PSCL4 LOAD TRANSLATION ACCESS:      60233  HIT:      60149  MISS:         84  HIT %:    99.8605  MISS %:   0.139458   MPKI: 0.00042
PSCL4 TRANSLATION FROM L1D PREFETCHER ACCESS:       3939  HIT:       3939  MISS:          0  HIT %:        100  MISS %:          0   MPKI: 0
PSCL4 PREFETCH  REQUESTED:          0  ISSUED:          0  USEFUL:          0  USELESS:          0
PSCL4 USEFUL LOAD PREFETCHES:          0 PREFETCH ISSUED TO LOWER LEVEL:          0  ACCURACY: -nan
PSCL4 TIMELY PREFETCHES:          0 LATE PREFETCHES: 0 DROPPED PREFETCHES: 0
PSCL4 PREFETCHES SAME FILL-ORIGIN LEVEL: 0 DIFFERENT FILL-ORIGIN LEVEL: 0

PSCL3 TOTAL     ACCESS:      75710  HIT:      75545  MISS:        165  HIT %:    99.7821  MISS %:   0.217937   MPKI: 0.000825
PSCL3 LOAD TRANSLATION ACCESS:      70131  HIT:      69966  MISS:        165  HIT %:    99.7647  MISS %:   0.235274   MPKI: 0.000825
PSCL3 TRANSLATION FROM L1D PREFETCHER ACCESS:       5579  HIT:       5579  MISS:          0  HIT %:        100  MISS %:          0   MPKI: 0
PSCL3 PREFETCH  REQUESTED:          0  ISSUED:          0  USEFUL:          0  USELESS:          0
PSCL3 USEFUL LOAD PREFETCHES:          0 PREFETCH ISSUED TO LOWER LEVEL:          0  ACCURACY: -nan
PSCL3 TIMELY PREFETCHES:          0 LATE PREFETCHES: 0 DROPPED PREFETCHES: 0
PSCL3 PREFETCHES SAME FILL-ORIGIN LEVEL: 0 DIFFERENT FILL-ORIGIN LEVEL: 0

PSCL2 TOTAL     ACCESS:      75009  HIT:      67186  MISS:       7823  HIT %:    89.5706  MISS %:    10.4294   MPKI: 0.039115
PSCL2 LOAD TRANSLATION ACCESS:      70269  HIT:      62446  MISS:       7823  HIT %:    88.8671  MISS %:    11.1329   MPKI: 0.039115
PSCL2 TRANSLATION FROM L1D PREFETCHER ACCESS:       4740  HIT:       4740  MISS:          0  HIT %:        100  MISS %:          0   MPKI: 0
PSCL2 PREFETCH  REQUESTED:          0  ISSUED:          0  USEFUL:          0  USELESS:          0
PSCL2 USEFUL LOAD PREFETCHES:          0 PREFETCH ISSUED TO LOWER LEVEL:          0  ACCURACY: -nan
PSCL2 TIMELY PREFETCHES:          0 LATE PREFETCHES: 0 DROPPED PREFETCHES: 0
PSCL2 PREFETCHES SAME FILL-ORIGIN LEVEL: 0 DIFFERENT FILL-ORIGIN LEVEL: 0

LLC TOTAL     ACCESS:   10842716  HIT:    4441043  MISS:    6401673  HIT %:    40.9588  MISS %:    59.0412   MPKI: 32.0084
LLC LOAD      ACCESS:    2254202  HIT:    1530231  MISS:     723971  HIT %:    67.8835  MISS %:    32.1165   MPKI: 3.61985
LLC RFO       ACCESS:    3543503  HIT:    1012009  MISS:    2531494  HIT %:    28.5596  MISS %:    71.4404   MPKI: 12.6575
LLC PREFETCH  ACCESS:     950705  HIT:     290463  MISS:     660242  HIT %:    30.5524  MISS %:    69.4476   MPKI: 3.30121
AGUS PREFETCH L1 MISS: 0
LLC WRITEBACK ACCESS:    4056144  HIT:    1599378  MISS:    2456766  HIT %:     39.431  MISS %:     60.569   MPKI: 12.2838
LLC LOAD TRANSLATION ACCESS:      35562  HIT:       7945  MISS:      27617  HIT %:    22.3413  MISS %:    77.6587   MPKI: 0.138085
LLC TRANSLATION FROM L1D PREFETCHER ACCESS:       2600  HIT:       1017  MISS:       1583  HIT %:    39.1154  MISS %:    60.8846   MPKI: 0.007915
LLC PREFETCH  REQUESTED:          0  ISSUED:          0  USEFUL:       1948  USELESS:     662567
LLC USEFUL LOAD PREFETCHES:       1948 PREFETCH ISSUED TO LOWER LEVEL:     660242  ACCURACY: 0.295043
LLC TIMELY PREFETCHES:       1948 LATE PREFETCHES: 0 DROPPED PREFETCHES: 0
LLC PREFETCHES SAME FILL-ORIGIN LEVEL: 0 DIFFERENT FILL-ORIGIN LEVEL: 0
LLC AVERAGE MISS LATENCY: 134.653 cycles
LLC RQ	ACCESS:    5835884	FORWARD:          0	MERGED:          0	TO_CACHE:    5835867
LLC WQ	ACCESS:    4056144	FORWARD:         17	MERGED:          0	TO_CACHE:    4056144
LLC PQ	ACCESS:     950705	FORWARD:          0	MERGED:          0	TO_CACHE:     950705

LLC Dense regions hint to LLC: 0

RAW hits: 2412471
Loads Generated: 47727089
Loads sent to L1D: 45314617
Stores Generated: 34236666
Stores sent to L1D: 34236669
Major fault: 0 Minor fault: 23678
Allocated PAGES: 23678
CPU 0 L1d next line prefetcher final stats

DRAM Statistics
 CHANNEL 0
 RQ ROW_BUFFER_HIT:    1874803  ROW_BUFFER_MISS:    2069696
 DBUS_CONGESTED:       2208
 WQ ROW_BUFFER_HIT:     562642  ROW_BUFFER_MISS:    2030598  FULL:      49188

 AVG_CONGESTED_CYCLE: 3
 All warmup complete: 2
Channel 0 Bank busy for read cycles: 0
Channel 0 Bank busy for write cycles: 0
Channel 0
Rank 0
0banks busy for read cycles: 169182489
0banks busy for write cycles: 247654
1banks busy for read cycles: 38958700
1banks busy for write cycles: 33066445
2banks busy for read cycles: 14671105
2banks busy for write cycles: 12894937
3banks busy for read cycles: 15848528
3banks busy for write cycles: 6541703
4banks busy for read cycles: 5868846
4banks busy for write cycles: 4316084
5banks busy for read cycles: 4843380
5banks busy for write cycles: 3550684
6banks busy for read cycles: 5768999
6banks busy for write cycles: 3598454
7banks busy for read cycles: 9179517
7banks busy for write cycles: 6137440
8banks busy for read cycles: 18525479
8banks busy for write cycles: 34060882

CPU 0 Branch Prediction Accuracy: 99.9426% MPKI: 0.08767 Average ROB Occupancy at Mispredict: 117.668
Branch types
NOT_BRANCH: 169469660 84.7348%
BRANCH_DIRECT_JUMP: 1661001 0.8305%
BRANCH_INDIRECT: 9967571 4.98379%
BRANCH_CONDITIONAL: 12063601 6.0318%
BRANCH_DIRECT_CALL: 2825891 1.41295%
BRANCH_INDIRECT_CALL: 593170 0.296585%
BRANCH_RETURN: 3419094 1.70955%
BRANCH_OTHER: 0 0%

DRAM PAGES: 1048576
Allocated PAGES: 23678
