
*** ChampSim Multicore Out-of-Order Simulator ***

Warmup Instructions: 50000000
Simulation Instructions: 200000000
Number of CPUs: 1
LLC sets: 2048
LLC ways: 16
Off-chip DRAM Size: 4096 MB Channels: 1 Width: 64-bit Data Rate: 6400 MT/s
CPU 0 runs traces/spec2k17/server_038.champsimtrace.xz
.xz
BTB has LRU replacement policy
ITLB has LRU replacement policy
DTLB has LRU replacement policy
STLB has LRU replacement policy
L1I has LRU replacement policy
CPU 0 L2C next line prefetcher
L1D has LRU replacement policy
Initialize SRRIP state for L2C
Initialize DRRIP state for LLC
Heartbeat CPU 0 instructions: 10000000 cycles: 2788054 heartbeat IPC: 3.58673 cumulative IPC: 3.58673 (Simulation time: 0 hr 0 min 34 sec) 
Heartbeat CPU 0 instructions: 20000002 cycles: 5574383 heartbeat IPC: 3.58895 cumulative IPC: 3.58784 (Simulation time: 0 hr 1 min 8 sec) 
Heartbeat CPU 0 instructions: 30000003 cycles: 8359215 heartbeat IPC: 3.59088 cumulative IPC: 3.58885 (Simulation time: 0 hr 1 min 42 sec) 
Heartbeat CPU 0 instructions: 40000001 cycles: 11144819 heartbeat IPC: 3.58988 cumulative IPC: 3.58911 (Simulation time: 0 hr 2 min 16 sec) 
Heartbeat CPU 0 instructions: 50000001 cycles: 13930500 heartbeat IPC: 3.58979 cumulative IPC: 3.58925 (Simulation time: 0 hr 2 min 50 sec) 

Warmup complete CPU 0 instructions: 50000001 cycles: 13930500 (Simulation time: 0 hr 2 min 50 sec) 

Heartbeat CPU 0 instructions: 60000000 cycles: 34087161 heartbeat IPC: 0.496114 cumulative IPC: 0.496114 (Simulation time: 0 hr 3 min 54 sec) 
Heartbeat CPU 0 instructions: 70000000 cycles: 54051864 heartbeat IPC: 0.500884 cumulative IPC: 0.498488 (Simulation time: 0 hr 4 min 53 sec) 
Heartbeat CPU 0 instructions: 80000000 cycles: 74020717 heartbeat IPC: 0.50078 cumulative IPC: 0.499249 (Simulation time: 0 hr 5 min 57 sec) 
Heartbeat CPU 0 instructions: 90000001 cycles: 94010708 heartbeat IPC: 0.50025 cumulative IPC: 0.499499 (Simulation time: 0 hr 6 min 54 sec) 
Heartbeat CPU 0 instructions: 100000002 cycles: 113983906 heartbeat IPC: 0.500671 cumulative IPC: 0.499733 (Simulation time: 0 hr 7 min 53 sec) 
*** Reached end of trace for Core: 0 Repeating trace: traces/spec2k17/server_038.champsimtrace.xz
Heartbeat CPU 0 instructions: 110000000 cycles: 134092205 heartbeat IPC: 0.497307 cumulative IPC: 0.499327 (Simulation time: 0 hr 8 min 54 sec) 
Heartbeat CPU 0 instructions: 120000003 cycles: 154141683 heartbeat IPC: 0.498766 cumulative IPC: 0.499247 (Simulation time: 0 hr 9 min 54 sec) 
Heartbeat CPU 0 instructions: 130000001 cycles: 174119180 heartbeat IPC: 0.500563 cumulative IPC: 0.499411 (Simulation time: 0 hr 10 min 54 sec) 
Heartbeat CPU 0 instructions: 140000001 cycles: 194103911 heartbeat IPC: 0.500382 cumulative IPC: 0.499519 (Simulation time: 0 hr 11 min 57 sec) 
Heartbeat CPU 0 instructions: 150000002 cycles: 214088502 heartbeat IPC: 0.500386 cumulative IPC: 0.499605 (Simulation time: 0 hr 12 min 59 sec) 
Heartbeat CPU 0 instructions: 160000000 cycles: 234126796 heartbeat IPC: 0.499044 cumulative IPC: 0.499554 (Simulation time: 0 hr 14 min 1 sec) 
Heartbeat CPU 0 instructions: 170000002 cycles: 254048394 heartbeat IPC: 0.501968 cumulative IPC: 0.499755 (Simulation time: 0 hr 15 min 0 sec) 
Heartbeat CPU 0 instructions: 180000000 cycles: 273970131 heartbeat IPC: 0.501964 cumulative IPC: 0.499924 (Simulation time: 0 hr 16 min 2 sec) 
Heartbeat CPU 0 instructions: 190000002 cycles: 293905743 heartbeat IPC: 0.501615 cumulative IPC: 0.500044 (Simulation time: 0 hr 17 min 4 sec) 
Heartbeat CPU 0 instructions: 200000001 cycles: 313856584 heartbeat IPC: 0.501232 cumulative IPC: 0.500123 (Simulation time: 0 hr 18 min 5 sec) 
*** Reached end of trace for Core: 0 Repeating trace: traces/spec2k17/server_038.champsimtrace.xz
Heartbeat CPU 0 instructions: 210000003 cycles: 333921612 heartbeat IPC: 0.49838 cumulative IPC: 0.500014 (Simulation time: 0 hr 19 min 8 sec) 
Heartbeat CPU 0 instructions: 220000000 cycles: 353970830 heartbeat IPC: 0.498772 cumulative IPC: 0.499941 (Simulation time: 0 hr 20 min 9 sec) 
Heartbeat CPU 0 instructions: 230000003 cycles: 373914221 heartbeat IPC: 0.501419 cumulative IPC: 0.500023 (Simulation time: 0 hr 21 min 8 sec) 
Heartbeat CPU 0 instructions: 240000001 cycles: 393936838 heartbeat IPC: 0.499435 cumulative IPC: 0.499992 (Simulation time: 0 hr 22 min 11 sec) 
Heartbeat CPU 0 instructions: 250000001 cycles: 413912134 heartbeat IPC: 0.500618 cumulative IPC: 0.500023 (Simulation time: 0 hr 23 min 14 sec) 
Finished CPU 0 instructions: 200000000 cycles: 399981634 cumulative IPC: 0.500023 (Simulation time: 0 hr 23 min 14 sec) 

ChampSim completed all CPUs

Region of Interest Statistics

CPU 0 cumulative IPC: 0.500023 instructions: 200000000 cycles: 399981634
ITLB TOTAL     ACCESS:   35174849  HIT:   32682138  MISS:    2492711  HIT %:    92.9134  MISS %:    7.08663   MPKI: 12.4636
ITLB LOAD TRANSLATION ACCESS:   35174849  HIT:   32682138  MISS:    2492711  HIT %:    92.9134  MISS %:    7.08663   MPKI: 12.4636
ITLB PREFETCH  REQUESTED:          0  ISSUED:          0  USEFUL:          0  USELESS:          0
ITLB USEFUL LOAD PREFETCHES:          0 PREFETCH ISSUED TO LOWER LEVEL:          0  ACCURACY: -nan
ITLB TIMELY PREFETCHES:          0 LATE PREFETCHES: 0 DROPPED PREFETCHES: 0
ITLB PREFETCHES SAME FILL-ORIGIN LEVEL: 0 DIFFERENT FILL-ORIGIN LEVEL: 0
ITLB AVERAGE MISS LATENCY: 9.01595 cycles
ITLB RQ	ACCESS:   41437645	FORWARD:          0	MERGED:    5451670	TO_CACHE:   35985975

DTLB TOTAL     ACCESS:   40157320  HIT:   38160952  MISS:    1996368  HIT %:    95.0286  MISS %:    4.97137   MPKI: 9.98184
DTLB LOAD TRANSLATION ACCESS:   40157320  HIT:   38160952  MISS:    1996368  HIT %:    95.0286  MISS %:    4.97137   MPKI: 9.98184
DTLB PREFETCH  REQUESTED:          0  ISSUED:          0  USEFUL:          0  USELESS:          0
DTLB USEFUL LOAD PREFETCHES:          0 PREFETCH ISSUED TO LOWER LEVEL:          0  ACCURACY: -nan
DTLB TIMELY PREFETCHES:          0 LATE PREFETCHES: 0 DROPPED PREFETCHES: 0
DTLB PREFETCHES SAME FILL-ORIGIN LEVEL: 0 DIFFERENT FILL-ORIGIN LEVEL: 0
DTLB AVERAGE MISS LATENCY: 9.66365 cycles
DTLB RQ	ACCESS:   55973895	FORWARD:          0	MERGED:   15663628	TO_CACHE:   40310267

STLB TOTAL     ACCESS:    4916338  HIT:    4893432  MISS:      22906  HIT %:    99.5341  MISS %:   0.465916   MPKI: 0.11453
STLB LOAD TRANSLATION ACCESS:    4489079  HIT:    4466347  MISS:      22732  HIT %:    99.4936  MISS %:   0.506384   MPKI: 0.11366
STLB TRANSLATION FROM L1D PREFETCHER ACCESS:     427259  HIT:     427085  MISS:        174  HIT %:    99.9593  MISS %:  0.0407247   MPKI: 0.00087
STLB PREFETCH  REQUESTED:          0  ISSUED:          0  USEFUL:        125  USELESS:         46
STLB USEFUL LOAD PREFETCHES:        125 PREFETCH ISSUED TO LOWER LEVEL:          0  ACCURACY: inf
STLB TIMELY PREFETCHES:        125 LATE PREFETCHES: 6 DROPPED PREFETCHES: 4878
STLB PREFETCHES SAME FILL-ORIGIN LEVEL: 0 DIFFERENT FILL-ORIGIN LEVEL: 0
STLB AVERAGE MISS LATENCY: 4488.15 cycles
STLB RQ	ACCESS:    5021986	FORWARD:          0	MERGED:     100655	TO_CACHE:    4921331

STLB Hit, L1D data hit: 0
STLB Hit, L2C data hit: 0
STLB Hit, LLC data hit: 0
STLB Hit, LLC data miss: 0
STLB STLB hints to L2: 0
L1D TOTAL     ACCESS:   56034538  HIT:   54157747  MISS:    1876791  HIT %:    96.6507  MISS %:    3.34935   MPKI: 9.38396
L1D LOAD      ACCESS:   31372072  HIT:   30029060  MISS:    1343012  HIT %:    95.7191  MISS %:    4.28092   MPKI: 6.71506
L1D RFO       ACCESS:   24225720  HIT:   23989041  MISS:     236679  HIT %:     99.023  MISS %:   0.976974   MPKI: 1.18339
L1D PREFETCH  ACCESS:     436746  HIT:     139646  MISS:     297100  HIT %:    31.9742  MISS %:    68.0258   MPKI: 1.4855
AGUS PREFETCH L1 MISS: 0
L1D PREFETCH  REQUESTED:    1068522  ISSUED:    1068522  USEFUL:     148034  USELESS:     149058
L1D USEFUL LOAD PREFETCHES:     148034 PREFETCH ISSUED TO LOWER LEVEL:     303987  ACCURACY: 48.6975
L1D TIMELY PREFETCHES:     148034 LATE PREFETCHES: 4250 DROPPED PREFETCHES: 5006
L1D PREFETCHES SAME FILL-ORIGIN LEVEL: 303987 DIFFERENT FILL-ORIGIN LEVEL: 0
L1D AVERAGE MISS LATENCY: 796125 cycles
L1D RQ	ACCESS:   46002725	FORWARD:          0	MERGED:   14285860	TO_CACHE:   31466184
L1D WQ	ACCESS:   24697059	FORWARD:     250713	MERGED:     189348	TO_CACHE:   24507711
L1D PQ	ACCESS:     535615	FORWARD:          0	MERGED:       2676	TO_CACHE:     532907

L1D UNIQUE REGIONS ACCESSED: 0
L1D REGIONS CONFLICTS: 0
L1D Cross Page Prefetch Requests: 25270
L1D Same Page Prefetch Requests: 648849
L1D ROI Sum of L1D PQ occupancy: 7118812
L1D PREFETCHES PUSHED FROM L2C: 0
L1I TOTAL     ACCESS:   37495037  HIT:   22056545  MISS:   15438492  HIT %:    58.8252  MISS %:    41.1748   MPKI: 77.1925
L1I LOAD      ACCESS:   37495037  HIT:   22056545  MISS:   15438492  HIT %:    58.8252  MISS %:    41.1748   MPKI: 77.1925
L1I PREFETCH  REQUESTED:          0  ISSUED:          0  USEFUL:          0  USELESS:          0
L1I USEFUL LOAD PREFETCHES:          0 PREFETCH ISSUED TO LOWER LEVEL:          0  ACCURACY: -nan
L1I TIMELY PREFETCHES:          0 LATE PREFETCHES: 0 DROPPED PREFETCHES: 0
L1I PREFETCHES SAME FILL-ORIGIN LEVEL: 0 DIFFERENT FILL-ORIGIN LEVEL: 0
L1I AVERAGE MISS LATENCY: 14.1314 cycles
L1I RQ	ACCESS:   62468055	FORWARD:          0	MERGED:   21030410	TO_CACHE:   41437645

BTB TOTAL     ACCESS:   28064303  HIT:   24482602  MISS:    3581701  HIT %:    87.2375  MISS %:    12.7625   MPKI: 17.9085
BTB BRANCH_DIRECT_JUMP	ACCESS:    2068715  HIT:    1958904  MISS:     109811
BTB BRANCH_INDIRECT	ACCESS:   12589489  HIT:   11340070  MISS:    1249419
BTB BRANCH_CONDITIONAL	ACCESS:    3946651  HIT:    3830860  MISS:     115791
BTB BRANCH_DIRECT_CALL	ACCESS:    3834255  HIT:    3580644  MISS:     253611
BTB BRANCH_INDIRECT_CALL	ACCESS:     895479  HIT:     719752  MISS:     175727
BTB BRANCH_RETURN	ACCESS:    4729714  HIT:    3052372  MISS:    1677342
BTB BRANCH_OTHER ACCESS:          0  HIT:          0  MISS:          0

L2C TOTAL     ACCESS:   18259820  HIT:   17596256  MISS:     663564  HIT %:     96.366  MISS %:    3.63401   MPKI: 3.31782
L2C LOAD      ACCESS:   16777180  HIT:   16370954  MISS:     406226  HIT %:    97.5787  MISS %:     2.4213   MPKI: 2.03113
L2C DATA LOAD MPKI: 1.91214
L2C INSTRUCTION LOAD MPKI: 0.11899
L2C RFO       ACCESS:     234042  HIT:     141004  MISS:      93038  HIT %:    60.2473  MISS %:    39.7527   MPKI: 0.46519
L2C PREFETCH  ACCESS:     303987  HIT:     175331  MISS:     128656  HIT %:    57.6771  MISS %:    42.3229   MPKI: 0.64328
AGUS PREFETCH L1 MISS: 0
L2C DATA PREFETCH MPKI: 0.64328
L2C INSTRUCTION PREFETCH MPKI: 0
L2C WRITEBACK ACCESS:     904135  HIT:     889293  MISS:      14842  HIT %:    98.3584  MISS %:    1.64157   MPKI: 0.07421
L2C LOAD TRANSLATION ACCESS:      31364  HIT:      11332  MISS:      20032  HIT %:    36.1306  MISS %:    63.8694   MPKI: 0.10016
L2C TRANSLATION FROM L1D PREFETCHER ACCESS:       9112  HIT:       8342  MISS:        770  HIT %:    91.5496  MISS %:     8.4504   MPKI: 0.00385
L2C PREFETCH  REQUESTED:          0  ISSUED:          0  USEFUL:      10567  USELESS:     118718
L2C USEFUL LOAD PREFETCHES:      10567 PREFETCH ISSUED TO LOWER LEVEL:     128656  ACCURACY: 8.21338
L2C TIMELY PREFETCHES:      10567 LATE PREFETCHES: 0 DROPPED PREFETCHES: 0
L2C PREFETCHES SAME FILL-ORIGIN LEVEL: 0 DIFFERENT FILL-ORIGIN LEVEL: 0
L2C AVERAGE MISS LATENCY: 51.0024 cycles
L2C RQ	ACCESS:   17051772	FORWARD:          0	MERGED:          0	TO_CACHE:   17051698
L2C WQ	ACCESS:     904135	FORWARD:         74	MERGED:          0	TO_CACHE:     904135
L2C PQ	ACCESS:     303987	FORWARD:          0	MERGED:          0	TO_CACHE:     303987

L2C Instructions Evicting Data 21667
L2C Translations Evicting Data 19330
L2C Data Evicting Data 564036
L2C Instructions Evicting Instructions 1359
L2C Translations Evicting Instructions 811
L2C Data Evicting Instructions 20935
L2C Instructions Evicting Translations 772
L2C Translations Evicting Translations 661
L2C Data Evicting Translations 19151
L2C Dense regions hint from L2: 0
PSCL5 TOTAL     ACCESS:      27788  HIT:      27788  MISS:          0  HIT %:        100  MISS %:          0   MPKI: 0
PSCL5 LOAD TRANSLATION ACCESS:      22730  HIT:      22730  MISS:          0  HIT %:        100  MISS %:          0   MPKI: 0
PSCL5 TRANSLATION FROM L1D PREFETCHER ACCESS:       5058  HIT:       5058  MISS:          0  HIT %:        100  MISS %:          0   MPKI: 0
PSCL5 PREFETCH  REQUESTED:          0  ISSUED:          0  USEFUL:          0  USELESS:          0
PSCL5 USEFUL LOAD PREFETCHES:          0 PREFETCH ISSUED TO LOWER LEVEL:          0  ACCURACY: -nan
PSCL5 TIMELY PREFETCHES:          0 LATE PREFETCHES: 0 DROPPED PREFETCHES: 0
PSCL5 PREFETCHES SAME FILL-ORIGIN LEVEL: 0 DIFFERENT FILL-ORIGIN LEVEL: 0

PSCL4 TOTAL     ACCESS:      27118  HIT:      27108  MISS:         10  HIT %:    99.9631  MISS %:  0.0368759   MPKI: 5e-05
PSCL4 LOAD TRANSLATION ACCESS:      22146  HIT:      22136  MISS:         10  HIT %:    99.9548  MISS %:  0.0451549   MPKI: 5e-05
PSCL4 TRANSLATION FROM L1D PREFETCHER ACCESS:       4972  HIT:       4972  MISS:          0  HIT %:        100  MISS %:          0   MPKI: 0
PSCL4 PREFETCH  REQUESTED:          0  ISSUED:          0  USEFUL:          0  USELESS:          0
PSCL4 USEFUL LOAD PREFETCHES:          0 PREFETCH ISSUED TO LOWER LEVEL:          0  ACCURACY: -nan
PSCL4 TIMELY PREFETCHES:          0 LATE PREFETCHES: 0 DROPPED PREFETCHES: 0
PSCL4 PREFETCHES SAME FILL-ORIGIN LEVEL: 0 DIFFERENT FILL-ORIGIN LEVEL: 0

PSCL3 TOTAL     ACCESS:      27710  HIT:      27636  MISS:         74  HIT %:    99.7329  MISS %:   0.267052   MPKI: 0.00037
PSCL3 LOAD TRANSLATION ACCESS:      22660  HIT:      22586  MISS:         74  HIT %:    99.6734  MISS %:   0.326567   MPKI: 0.00037
PSCL3 TRANSLATION FROM L1D PREFETCHER ACCESS:       5050  HIT:       5050  MISS:          0  HIT %:        100  MISS %:          0   MPKI: 0
PSCL3 PREFETCH  REQUESTED:          0  ISSUED:          0  USEFUL:          0  USELESS:          0
PSCL3 USEFUL LOAD PREFETCHES:          0 PREFETCH ISSUED TO LOWER LEVEL:          0  ACCURACY: -nan
PSCL3 TIMELY PREFETCHES:          0 LATE PREFETCHES: 0 DROPPED PREFETCHES: 0
PSCL3 PREFETCHES SAME FILL-ORIGIN LEVEL: 0 DIFFERENT FILL-ORIGIN LEVEL: 0

PSCL2 TOTAL     ACCESS:      23771  HIT:      15166  MISS:       8605  HIT %:    63.8004  MISS %:    36.1996   MPKI: 0.043025
PSCL2 LOAD TRANSLATION ACCESS:      22762  HIT:      14157  MISS:       8605  HIT %:    62.1958  MISS %:    37.8042   MPKI: 0.043025
PSCL2 TRANSLATION FROM L1D PREFETCHER ACCESS:       1009  HIT:       1009  MISS:          0  HIT %:        100  MISS %:          0   MPKI: 0
PSCL2 PREFETCH  REQUESTED:          0  ISSUED:          0  USEFUL:          0  USELESS:          0
PSCL2 USEFUL LOAD PREFETCHES:          0 PREFETCH ISSUED TO LOWER LEVEL:          0  ACCURACY: -nan
PSCL2 TIMELY PREFETCHES:          0 LATE PREFETCHES: 0 DROPPED PREFETCHES: 0
PSCL2 PREFETCHES SAME FILL-ORIGIN LEVEL: 0 DIFFERENT FILL-ORIGIN LEVEL: 0

LLC TOTAL     ACCESS:     931297  HIT:     838886  MISS:      92411  HIT %:    90.0772  MISS %:    9.92283   MPKI: 0.462055
LLC LOAD      ACCESS:     406223  HIT:     351457  MISS:      54766  HIT %:    86.5182  MISS %:    13.4818   MPKI: 0.27383
LLC RFO       ACCESS:      93035  HIT:      74995  MISS:      18040  HIT %:    80.6094  MISS %:    19.3906   MPKI: 0.0902
LLC PREFETCH  ACCESS:     128656  HIT:     110281  MISS:      18375  HIT %:    85.7177  MISS %:    14.2823   MPKI: 0.091875
AGUS PREFETCH L1 MISS: 0
LLC WRITEBACK ACCESS:     282581  HIT:     281893  MISS:        688  HIT %:    99.7565  MISS %:    0.24347   MPKI: 0.00344
LLC LOAD TRANSLATION ACCESS:      20032  HIT:      19551  MISS:        481  HIT %:    97.5988  MISS %:    2.40116   MPKI: 0.002405
LLC TRANSLATION FROM L1D PREFETCHER ACCESS:        770  HIT:        709  MISS:         61  HIT %:    92.0779  MISS %:    7.92208   MPKI: 0.000305
LLC PREFETCH  REQUESTED:          0  ISSUED:          0  USEFUL:        602  USELESS:      15504
LLC USEFUL LOAD PREFETCHES:        602 PREFETCH ISSUED TO LOWER LEVEL:      18375  ACCURACY: 3.27619
LLC TIMELY PREFETCHES:        602 LATE PREFETCHES: 0 DROPPED PREFETCHES: 0
LLC PREFETCHES SAME FILL-ORIGIN LEVEL: 0 DIFFERENT FILL-ORIGIN LEVEL: 0
LLC AVERAGE MISS LATENCY: 155.528 cycles
LLC RQ	ACCESS:     520066	FORWARD:          0	MERGED:          0	TO_CACHE:     520060
LLC WQ	ACCESS:     282581	FORWARD:          6	MERGED:          0	TO_CACHE:     282581
LLC PQ	ACCESS:     128656	FORWARD:          0	MERGED:          0	TO_CACHE:     128656

LLC Dense regions hint to LLC: 0

RAW hits: 2097025
Loads Generated: 48099750
Loads sent to L1D: 46002725
Stores Generated: 24697058
Stores sent to L1D: 24697059
Major fault: 0 Minor fault: 5748
Allocated PAGES: 5748
CPU 0 L1d next line prefetcher final stats

DRAM Statistics
 CHANNEL 0
 RQ ROW_BUFFER_HIT:      23363  ROW_BUFFER_MISS:      68356
 DBUS_CONGESTED:         22
 WQ ROW_BUFFER_HIT:       3754  ROW_BUFFER_MISS:      30020  FULL:          0

 AVG_CONGESTED_CYCLE: 5
 All warmup complete: 2
Channel 0 Bank busy for read cycles: 0
Channel 0 Bank busy for write cycles: 0
Channel 0
Rank 0
0banks busy for read cycles: 387274809
0banks busy for write cycles: 22591
1banks busy for read cycles: 6875812
1banks busy for write cycles: 3235376
2banks busy for read cycles: 955724
2banks busy for write cycles: 699379
3banks busy for read cycles: 416951
3banks busy for write cycles: 130699
4banks busy for read cycles: 105158
4banks busy for write cycles: 62008
5banks busy for read cycles: 29903
5banks busy for write cycles: 19121
6banks busy for read cycles: 32473
6banks busy for write cycles: 16833
7banks busy for read cycles: 37406
7banks busy for write cycles: 12602
8banks busy for read cycles: 46135
8banks busy for write cycles: 8655

CPU 0 Branch Prediction Accuracy: 99.9778% MPKI: 0.038155 Average ROB Occupancy at Mispredict: 24.3304
Branch types
NOT_BRANCH: 165656544 82.8283%
BRANCH_DIRECT_JUMP: 2068715 1.03436%
BRANCH_INDIRECT: 12589489 6.29474%
BRANCH_CONDITIONAL: 10225815 5.11291%
BRANCH_DIRECT_CALL: 3834255 1.91713%
BRANCH_INDIRECT_CALL: 895479 0.44774%
BRANCH_RETURN: 4729714 2.36486%
BRANCH_OTHER: 0 0%

DRAM PAGES: 1048576
Allocated PAGES: 5748
