
*** ChampSim Multicore Out-of-Order Simulator ***

Warmup Instructions: 50000000
Simulation Instructions: 200000000
Number of CPUs: 1
LLC sets: 2048
LLC ways: 16
Off-chip DRAM Size: 4096 MB Channels: 1 Width: 64-bit Data Rate: 6400 MT/s
CPU 0 runs traces/spec2k17/server_039.champsimtrace.xz
.xz
BTB has LRU replacement policy
ITLB has LRU replacement policy
DTLB has LRU replacement policy
STLB has LRU replacement policy
L1I has LRU replacement policy
CPU 0 L2C next line prefetcher
L1D has LRU replacement policy
Initialize SRRIP state for L2C
Initialize DRRIP state for LLC
Heartbeat CPU 0 instructions: 10000003 cycles: 2752875 heartbeat IPC: 3.63257 cumulative IPC: 3.63257 (Simulation time: 0 hr 0 min 32 sec) 
Heartbeat CPU 0 instructions: 20000002 cycles: 5502662 heartbeat IPC: 3.63664 cumulative IPC: 3.6346 (Simulation time: 0 hr 1 min 2 sec) 
Heartbeat CPU 0 instructions: 30000003 cycles: 8253297 heartbeat IPC: 3.63552 cumulative IPC: 3.63491 (Simulation time: 0 hr 1 min 31 sec) 
Heartbeat CPU 0 instructions: 40000000 cycles: 11004116 heartbeat IPC: 3.63528 cumulative IPC: 3.635 (Simulation time: 0 hr 2 min 3 sec) 
Heartbeat CPU 0 instructions: 50000000 cycles: 13754956 heartbeat IPC: 3.63525 cumulative IPC: 3.63505 (Simulation time: 0 hr 2 min 34 sec) 

Warmup complete CPU 0 instructions: 50000004 cycles: 13754957 (Simulation time: 0 hr 2 min 34 sec) 

Heartbeat CPU 0 instructions: 60000001 cycles: 32934578 heartbeat IPC: 0.521387 cumulative IPC: 0.521387 (Simulation time: 0 hr 3 min 33 sec) 
Heartbeat CPU 0 instructions: 70000002 cycles: 52055266 heartbeat IPC: 0.522994 cumulative IPC: 0.522189 (Simulation time: 0 hr 4 min 32 sec) 
Heartbeat CPU 0 instructions: 80000001 cycles: 71180089 heartbeat IPC: 0.522881 cumulative IPC: 0.522419 (Simulation time: 0 hr 5 min 33 sec) 
Heartbeat CPU 0 instructions: 90000002 cycles: 90363355 heartbeat IPC: 0.521288 cumulative IPC: 0.522136 (Simulation time: 0 hr 6 min 32 sec) 
Heartbeat CPU 0 instructions: 100000000 cycles: 109580683 heartbeat IPC: 0.520364 cumulative IPC: 0.52178 (Simulation time: 0 hr 7 min 30 sec) 
Heartbeat CPU 0 instructions: 110000000 cycles: 128798713 heartbeat IPC: 0.520345 cumulative IPC: 0.521541 (Simulation time: 0 hr 8 min 31 sec) 
Heartbeat CPU 0 instructions: 120000002 cycles: 147959271 heartbeat IPC: 0.521906 cumulative IPC: 0.521593 (Simulation time: 0 hr 9 min 31 sec) 
Heartbeat CPU 0 instructions: 130000000 cycles: 167095844 heartbeat IPC: 0.52256 cumulative IPC: 0.521713 (Simulation time: 0 hr 10 min 31 sec) 
Heartbeat CPU 0 instructions: 140000000 cycles: 186231083 heartbeat IPC: 0.522596 cumulative IPC: 0.521811 (Simulation time: 0 hr 11 min 29 sec) 
Heartbeat CPU 0 instructions: 150000000 cycles: 205356407 heartbeat IPC: 0.522867 cumulative IPC: 0.521917 (Simulation time: 0 hr 12 min 27 sec) 
Heartbeat CPU 0 instructions: 160000000 cycles: 224485635 heartbeat IPC: 0.52276 cumulative IPC: 0.521993 (Simulation time: 0 hr 13 min 26 sec) 
*** Reached end of trace for Core: 0 Repeating trace: traces/spec2k17/server_039.champsimtrace.xz
Heartbeat CPU 0 instructions: 170000001 cycles: 243940529 heartbeat IPC: 0.51401 cumulative IPC: 0.521318 (Simulation time: 0 hr 14 min 26 sec) 
Heartbeat CPU 0 instructions: 180000000 cycles: 262981170 heartbeat IPC: 0.525192 cumulative IPC: 0.521614 (Simulation time: 0 hr 15 min 26 sec) 
Heartbeat CPU 0 instructions: 190000003 cycles: 282004539 heartbeat IPC: 0.525669 cumulative IPC: 0.521902 (Simulation time: 0 hr 16 min 24 sec) 
Heartbeat CPU 0 instructions: 200000002 cycles: 301144854 heartbeat IPC: 0.522457 cumulative IPC: 0.521939 (Simulation time: 0 hr 17 min 24 sec) 
Heartbeat CPU 0 instructions: 210000001 cycles: 320277897 heartbeat IPC: 0.522656 cumulative IPC: 0.521984 (Simulation time: 0 hr 18 min 24 sec) 
Heartbeat CPU 0 instructions: 220000000 cycles: 339403238 heartbeat IPC: 0.522866 cumulative IPC: 0.522036 (Simulation time: 0 hr 19 min 23 sec) 
Heartbeat CPU 0 instructions: 230000003 cycles: 358519338 heartbeat IPC: 0.523119 cumulative IPC: 0.522096 (Simulation time: 0 hr 20 min 21 sec) 
Heartbeat CPU 0 instructions: 240000003 cycles: 377640426 heartbeat IPC: 0.522983 cumulative IPC: 0.522142 (Simulation time: 0 hr 21 min 22 sec) 
Heartbeat CPU 0 instructions: 250000000 cycles: 396816410 heartbeat IPC: 0.521485 cumulative IPC: 0.522109 (Simulation time: 0 hr 22 min 23 sec) 
Finished CPU 0 instructions: 200000000 cycles: 383061454 cumulative IPC: 0.522109 (Simulation time: 0 hr 22 min 23 sec) 

ChampSim completed all CPUs

Region of Interest Statistics

CPU 0 cumulative IPC: 0.522109 instructions: 200000000 cycles: 383061454
ITLB TOTAL     ACCESS:   35879531  HIT:   33724808  MISS:    2154723  HIT %:    93.9946  MISS %:    6.00544   MPKI: 10.7736
ITLB LOAD TRANSLATION ACCESS:   35879531  HIT:   33724808  MISS:    2154723  HIT %:    93.9946  MISS %:    6.00544   MPKI: 10.7736
ITLB PREFETCH  REQUESTED:          0  ISSUED:          0  USEFUL:          0  USELESS:          0
ITLB USEFUL LOAD PREFETCHES:          0 PREFETCH ISSUED TO LOWER LEVEL:          0  ACCURACY: -nan
ITLB TIMELY PREFETCHES:          0 LATE PREFETCHES: 0 DROPPED PREFETCHES: 0
ITLB PREFETCHES SAME FILL-ORIGIN LEVEL: 0 DIFFERENT FILL-ORIGIN LEVEL: 0
ITLB AVERAGE MISS LATENCY: 9.01682 cycles
ITLB RQ	ACCESS:   41248832	FORWARD:          0	MERGED:    4958034	TO_CACHE:   36290798

DTLB TOTAL     ACCESS:   40676340  HIT:   39494160  MISS:    1182180  HIT %:    97.0937  MISS %:    2.90631   MPKI: 5.9109
DTLB LOAD TRANSLATION ACCESS:   40676340  HIT:   39494160  MISS:    1182180  HIT %:    97.0937  MISS %:    2.90631   MPKI: 5.9109
DTLB PREFETCH  REQUESTED:          0  ISSUED:          0  USEFUL:          0  USELESS:          0
DTLB USEFUL LOAD PREFETCHES:          0 PREFETCH ISSUED TO LOWER LEVEL:          0  ACCURACY: -nan
DTLB TIMELY PREFETCHES:          0 LATE PREFETCHES: 0 DROPPED PREFETCHES: 0
DTLB PREFETCHES SAME FILL-ORIGIN LEVEL: 0 DIFFERENT FILL-ORIGIN LEVEL: 0
DTLB AVERAGE MISS LATENCY: 9.03817 cycles
DTLB RQ	ACCESS:   58379030	FORWARD:          0	MERGED:   17632653	TO_CACHE:   40746377

STLB TOTAL     ACCESS:    3387202  HIT:    3386932  MISS:        270  HIT %:     99.992  MISS %: 0.00797118   MPKI: 0.00135
STLB LOAD TRANSLATION ACCESS:    3336903  HIT:    3336633  MISS:        270  HIT %:    99.9919  MISS %: 0.00809133   MPKI: 0.00135
STLB TRANSLATION FROM L1D PREFETCHER ACCESS:      50299  HIT:      50299  MISS:          0  HIT %:        100  MISS %:          0   MPKI: 0
STLB PREFETCH  REQUESTED:          0  ISSUED:          0  USEFUL:          0  USELESS:          0
STLB USEFUL LOAD PREFETCHES:          0 PREFETCH ISSUED TO LOWER LEVEL:          0  ACCURACY: -nan
STLB TIMELY PREFETCHES:          0 LATE PREFETCHES: 0 DROPPED PREFETCHES: 0
STLB PREFETCHES SAME FILL-ORIGIN LEVEL: 0 DIFFERENT FILL-ORIGIN LEVEL: 0
STLB AVERAGE MISS LATENCY: 198.844 cycles
STLB RQ	ACCESS:    3387266	FORWARD:          0	MERGED:         63	TO_CACHE:    3387203

STLB Hit, L1D data hit: 0
STLB Hit, L2C data hit: 0
STLB Hit, LLC data hit: 0
STLB Hit, LLC data miss: 0
STLB STLB hints to L2: 0
L1D TOTAL     ACCESS:   58317736  HIT:   58122894  MISS:     194842  HIT %:    99.6659  MISS %:   0.334104   MPKI: 0.97421
L1D LOAD      ACCESS:   30392165  HIT:   30228977  MISS:     163188  HIT %:    99.4631  MISS %:   0.536941   MPKI: 0.81594
L1D RFO       ACCESS:   27925399  HIT:   27893745  MISS:      31654  HIT %:    99.8866  MISS %:   0.113352   MPKI: 0.15827
L1D PREFETCH  ACCESS:        172  HIT:        172  MISS:          0  HIT %:        100  MISS %:          0   MPKI: 0
AGUS PREFETCH L1 MISS: 0
L1D PREFETCH  REQUESTED:     100885  ISSUED:     100885  USEFUL:          0  USELESS:         22
L1D USEFUL LOAD PREFETCHES:          0 PREFETCH ISSUED TO LOWER LEVEL:          0  ACCURACY: -nan
L1D TIMELY PREFETCHES:          0 LATE PREFETCHES: 0 DROPPED PREFETCHES: 0
L1D PREFETCHES SAME FILL-ORIGIN LEVEL: 0 DIFFERENT FILL-ORIGIN LEVEL: 0
L1D AVERAGE MISS LATENCY: 15.8616 cycles
L1D RQ	ACCESS:   46560590	FORWARD:          0	MERGED:   15650123	TO_CACHE:   30392755
L1D WQ	ACCESS:   28081962	FORWARD:     517712	MERGED:      95687	TO_CACHE:   27986275
L1D PQ	ACCESS:      50523	FORWARD:          0	MERGED:        161	TO_CACHE:      50362

L1D UNIQUE REGIONS ACCESSED: 0
L1D REGIONS CONFLICTS: 0
L1D Cross Page Prefetch Requests: 485
L1D Same Page Prefetch Requests: 63683
L1D ROI Sum of L1D PQ occupancy: 654544
L1D PREFETCHES PUSHED FROM L2C: 0
L1I TOTAL     ACCESS:   37027002  HIT:   21595845  MISS:   15431157  HIT %:    58.3246  MISS %:    41.6754   MPKI: 77.1558
L1I LOAD      ACCESS:   37027002  HIT:   21595845  MISS:   15431157  HIT %:    58.3246  MISS %:    41.6754   MPKI: 77.1558
L1I PREFETCH  REQUESTED:          0  ISSUED:          0  USEFUL:          0  USELESS:          0
L1I USEFUL LOAD PREFETCHES:          0 PREFETCH ISSUED TO LOWER LEVEL:          0  ACCURACY: -nan
L1I TIMELY PREFETCHES:          0 LATE PREFETCHES: 0 DROPPED PREFETCHES: 0
L1I PREFETCHES SAME FILL-ORIGIN LEVEL: 0 DIFFERENT FILL-ORIGIN LEVEL: 0
L1I AVERAGE MISS LATENCY: 14.0608 cycles
L1I RQ	ACCESS:   61059279	FORWARD:          0	MERGED:   19810447	TO_CACHE:   41248832

BTB TOTAL     ACCESS:   27154127  HIT:   23772575  MISS:    3381552  HIT %:    87.5468  MISS %:    12.4532   MPKI: 16.9078
BTB BRANCH_DIRECT_JUMP	ACCESS:    1854668  HIT:    1769509  MISS:      85159
BTB BRANCH_INDIRECT	ACCESS:   11982974  HIT:   10669647  MISS:    1313327
BTB BRANCH_CONDITIONAL	ACCESS:    4186045  HIT:    4086497  MISS:      99548
BTB BRANCH_DIRECT_CALL	ACCESS:    3881854  HIT:    3707800  MISS:     174054
BTB BRANCH_INDIRECT_CALL	ACCESS:     683366  HIT:     534468  MISS:     148898
BTB BRANCH_RETURN	ACCESS:    4565220  HIT:    3004654  MISS:    1560566
BTB BRANCH_OTHER ACCESS:          0  HIT:          0  MISS:          0

L2C TOTAL     ACCESS:   15714716  HIT:   15712189  MISS:       2527  HIT %:    99.9839  MISS %:  0.0160805   MPKI: 0.012635
L2C LOAD      ACCESS:   15594345  HIT:   15592361  MISS:       1984  HIT %:    99.9873  MISS %:  0.0127226   MPKI: 0.00992
L2C DATA LOAD MPKI: 0.002635
L2C INSTRUCTION LOAD MPKI: 0.007285
L2C RFO       ACCESS:      31654  HIT:      31240  MISS:        414  HIT %:    98.6921  MISS %:    1.30789   MPKI: 0.00207
L2C WRITEBACK ACCESS:      88430  HIT:      88412  MISS:         18  HIT %:    99.9796  MISS %:  0.0203551   MPKI: 9e-05
L2C LOAD TRANSLATION ACCESS:        287  HIT:        176  MISS:        111  HIT %:     61.324  MISS %:     38.676   MPKI: 0.000555
L2C PREFETCH  REQUESTED:          0  ISSUED:          0  USEFUL:         29  USELESS:          8
L2C USEFUL LOAD PREFETCHES:         29 PREFETCH ISSUED TO LOWER LEVEL:          0  ACCURACY: inf
L2C TIMELY PREFETCHES:         29 LATE PREFETCHES: 0 DROPPED PREFETCHES: 0
L2C PREFETCHES SAME FILL-ORIGIN LEVEL: 0 DIFFERENT FILL-ORIGIN LEVEL: 0
L2C AVERAGE MISS LATENCY: 166.366 cycles
L2C RQ	ACCESS:   15626286	FORWARD:          0	MERGED:          0	TO_CACHE:   15626286
L2C WQ	ACCESS:      88430	FORWARD:          0	MERGED:          0	TO_CACHE:      88430

L2C Instructions Evicting Data 44
L2C Translations Evicting Data 0
L2C Data Evicting Data 32
L2C Instructions Evicting Instructions 64
L2C Translations Evicting Instructions 4
L2C Data Evicting Instructions 32
L2C Instructions Evicting Translations 10
L2C Translations Evicting Translations 0
L2C Data Evicting Translations 5
L2C Dense regions hint from L2: 0
PSCL5 TOTAL     ACCESS:        270  HIT:        270  MISS:          0  HIT %:        100  MISS %:          0   MPKI: 0
PSCL5 LOAD TRANSLATION ACCESS:        270  HIT:        270  MISS:          0  HIT %:        100  MISS %:          0   MPKI: 0
PSCL5 PREFETCH  REQUESTED:          0  ISSUED:          0  USEFUL:          0  USELESS:          0
PSCL5 USEFUL LOAD PREFETCHES:          0 PREFETCH ISSUED TO LOWER LEVEL:          0  ACCURACY: -nan
PSCL5 TIMELY PREFETCHES:          0 LATE PREFETCHES: 0 DROPPED PREFETCHES: 0
PSCL5 PREFETCHES SAME FILL-ORIGIN LEVEL: 0 DIFFERENT FILL-ORIGIN LEVEL: 0

PSCL4 TOTAL     ACCESS:         96  HIT:         96  MISS:          0  HIT %:        100  MISS %:          0   MPKI: 0
PSCL4 LOAD TRANSLATION ACCESS:         96  HIT:         96  MISS:          0  HIT %:        100  MISS %:          0   MPKI: 0
PSCL4 PREFETCH  REQUESTED:          0  ISSUED:          0  USEFUL:          0  USELESS:          0
PSCL4 USEFUL LOAD PREFETCHES:          0 PREFETCH ISSUED TO LOWER LEVEL:          0  ACCURACY: -nan
PSCL4 TIMELY PREFETCHES:          0 LATE PREFETCHES: 0 DROPPED PREFETCHES: 0
PSCL4 PREFETCHES SAME FILL-ORIGIN LEVEL: 0 DIFFERENT FILL-ORIGIN LEVEL: 0

PSCL3 TOTAL     ACCESS:        260  HIT:        259  MISS:          1  HIT %:    99.6154  MISS %:   0.384615   MPKI: 5e-06
PSCL3 LOAD TRANSLATION ACCESS:        260  HIT:        259  MISS:          1  HIT %:    99.6154  MISS %:   0.384615   MPKI: 5e-06
PSCL3 PREFETCH  REQUESTED:          0  ISSUED:          0  USEFUL:          0  USELESS:          0
PSCL3 USEFUL LOAD PREFETCHES:          0 PREFETCH ISSUED TO LOWER LEVEL:          0  ACCURACY: -nan
PSCL3 TIMELY PREFETCHES:          0 LATE PREFETCHES: 0 DROPPED PREFETCHES: 0
PSCL3 PREFETCHES SAME FILL-ORIGIN LEVEL: 0 DIFFERENT FILL-ORIGIN LEVEL: 0

PSCL2 TOTAL     ACCESS:        270  HIT:        245  MISS:         25  HIT %:    90.7407  MISS %:    9.25926   MPKI: 0.000125
PSCL2 LOAD TRANSLATION ACCESS:        270  HIT:        245  MISS:         25  HIT %:    90.7407  MISS %:    9.25926   MPKI: 0.000125
PSCL2 PREFETCH  REQUESTED:          0  ISSUED:          0  USEFUL:          0  USELESS:          0
PSCL2 USEFUL LOAD PREFETCHES:          0 PREFETCH ISSUED TO LOWER LEVEL:          0  ACCURACY: -nan
PSCL2 TIMELY PREFETCHES:          0 LATE PREFETCHES: 0 DROPPED PREFETCHES: 0
PSCL2 PREFETCHES SAME FILL-ORIGIN LEVEL: 0 DIFFERENT FILL-ORIGIN LEVEL: 0

LLC TOTAL     ACCESS:       2515  HIT:         57  MISS:       2458  HIT %:     2.2664  MISS %:    97.7336   MPKI: 0.01229
LLC LOAD      ACCESS:       1984  HIT:         49  MISS:       1935  HIT %:    2.46976  MISS %:    97.5302   MPKI: 0.009675
LLC RFO       ACCESS:        414  HIT:          2  MISS:        412  HIT %:   0.483092  MISS %:    99.5169   MPKI: 0.00206
LLC WRITEBACK ACCESS:          6  HIT:          5  MISS:          1  HIT %:    83.3333  MISS %:    16.6667   MPKI: 5e-06
LLC LOAD TRANSLATION ACCESS:        111  HIT:          1  MISS:        110  HIT %:   0.900901  MISS %:    99.0991   MPKI: 0.00055
LLC PREFETCH  REQUESTED:          0  ISSUED:          0  USEFUL:          1  USELESS:          0
LLC USEFUL LOAD PREFETCHES:          1 PREFETCH ISSUED TO LOWER LEVEL:          0  ACCURACY: inf
LLC TIMELY PREFETCHES:          1 LATE PREFETCHES: 0 DROPPED PREFETCHES: 0
LLC PREFETCHES SAME FILL-ORIGIN LEVEL: 0 DIFFERENT FILL-ORIGIN LEVEL: 0
LLC AVERAGE MISS LATENCY: 137.991 cycles
LLC RQ	ACCESS:       2509	FORWARD:          0	MERGED:          0	TO_CACHE:       2509
LLC WQ	ACCESS:          6	FORWARD:          0	MERGED:          0	TO_CACHE:          6

LLC Dense regions hint to LLC: 0

RAW hits: 2224588
Loads Generated: 48785178
Loads sent to L1D: 46560590
Stores Generated: 28081946
Stores sent to L1D: 28081962
Major fault: 0 Minor fault: 690
Allocated PAGES: 690
CPU 0 L1d next line prefetcher final stats

DRAM Statistics
 CHANNEL 0
 RQ ROW_BUFFER_HIT:        876  ROW_BUFFER_MISS:       1581
 DBUS_CONGESTED:          0
 WQ ROW_BUFFER_HIT:          0  ROW_BUFFER_MISS:          0  FULL:          0

 AVG_CONGESTED_CYCLE: -
 All warmup complete: 2
Channel 0 Bank busy for read cycles: 0
Channel 0 Bank busy for write cycles: 0
Channel 0
Rank 0
0banks busy for read cycles: 382836765
0banks busy for write cycles: 0
1banks busy for read cycles: 179537
1banks busy for write cycles: 0
2banks busy for read cycles: 37907
2banks busy for write cycles: 0
3banks busy for read cycles: 5056
3banks busy for write cycles: 0
4banks busy for read cycles: 1377
4banks busy for write cycles: 0
5banks busy for read cycles: 298
5banks busy for write cycles: 0
6banks busy for read cycles: 315
6banks busy for write cycles: 0
7banks busy for read cycles: 55
7banks busy for write cycles: 0
8banks busy for read cycles: 145
8banks busy for write cycles: 0

CPU 0 Branch Prediction Accuracy: 99.9368% MPKI: 0.10154 Average ROB Occupancy at Mispredict: 5.40551
Branch types
NOT_BRANCH: 167870716 83.9354%
BRANCH_DIRECT_JUMP: 1854668 0.927334%
BRANCH_INDIRECT: 11982974 5.99149%
BRANCH_CONDITIONAL: 9161158 4.58058%
BRANCH_DIRECT_CALL: 3881854 1.94093%
BRANCH_INDIRECT_CALL: 683366 0.341683%
BRANCH_RETURN: 4565220 2.28261%
BRANCH_OTHER: 0 0%

DRAM PAGES: 1048576
Allocated PAGES: 690
