
*** ChampSim Multicore Out-of-Order Simulator ***

Warmup Instructions: 50000000
Simulation Instructions: 200000000
Number of CPUs: 1
LLC sets: 2048
LLC ways: 16
Off-chip DRAM Size: 4096 MB Channels: 1 Width: 64-bit Data Rate: 6400 MT/s
CPU 0 runs traces/spec2k17/server_020.champsimtrace.xz
.xz
BTB has LRU replacement policy
ITLB has LRU replacement policy
DTLB has LRU replacement policy
STLB has LRU replacement policy
L1I has LRU replacement policy
CPU 0 L2C next line prefetcher
L1D has LRU replacement policy
Initialize SRRIP state for L2C
Initialize DRRIP state for LLC
Heartbeat CPU 0 instructions: 10000000 cycles: 2937565 heartbeat IPC: 3.40418 cumulative IPC: 3.40418 (Simulation time: 0 hr 0 min 45 sec) 
Heartbeat CPU 0 instructions: 20000001 cycles: 5872498 heartbeat IPC: 3.40723 cumulative IPC: 3.40571 (Simulation time: 0 hr 1 min 29 sec) 
Heartbeat CPU 0 instructions: 30000000 cycles: 8808637 heartbeat IPC: 3.40583 cumulative IPC: 3.40575 (Simulation time: 0 hr 2 min 14 sec) 
Heartbeat CPU 0 instructions: 40000003 cycles: 11744387 heartbeat IPC: 3.40629 cumulative IPC: 3.40588 (Simulation time: 0 hr 2 min 59 sec) 
Heartbeat CPU 0 instructions: 50000000 cycles: 14677263 heartbeat IPC: 3.40962 cumulative IPC: 3.40663 (Simulation time: 0 hr 3 min 43 sec) 

Warmup complete CPU 0 instructions: 50000004 cycles: 14677264 (Simulation time: 0 hr 3 min 43 sec) 

Heartbeat CPU 0 instructions: 60000002 cycles: 35169505 heartbeat IPC: 0.48799 cumulative IPC: 0.487989 (Simulation time: 0 hr 5 min 3 sec) 
Heartbeat CPU 0 instructions: 70000000 cycles: 55545680 heartbeat IPC: 0.490769 cumulative IPC: 0.489375 (Simulation time: 0 hr 6 min 22 sec) 
Heartbeat CPU 0 instructions: 80000001 cycles: 75915577 heartbeat IPC: 0.490921 cumulative IPC: 0.489889 (Simulation time: 0 hr 7 min 42 sec) 
Heartbeat CPU 0 instructions: 90000001 cycles: 96210378 heartbeat IPC: 0.492737 cumulative IPC: 0.490598 (Simulation time: 0 hr 9 min 2 sec) 
Heartbeat CPU 0 instructions: 100000000 cycles: 116365021 heartbeat IPC: 0.496164 cumulative IPC: 0.491701 (Simulation time: 0 hr 10 min 22 sec) 
*** Reached end of trace for Core: 0 Repeating trace: traces/spec2k17/server_020.champsimtrace.xz
Heartbeat CPU 0 instructions: 110000000 cycles: 136732588 heartbeat IPC: 0.490977 cumulative IPC: 0.49158 (Simulation time: 0 hr 11 min 42 sec) 
Heartbeat CPU 0 instructions: 120000001 cycles: 156936522 heartbeat IPC: 0.494953 cumulative IPC: 0.492059 (Simulation time: 0 hr 13 min 3 sec) 
Heartbeat CPU 0 instructions: 130000001 cycles: 177182661 heartbeat IPC: 0.493921 cumulative IPC: 0.492291 (Simulation time: 0 hr 14 min 21 sec) 
Heartbeat CPU 0 instructions: 140000000 cycles: 197226154 heartbeat IPC: 0.498915 cumulative IPC: 0.493019 (Simulation time: 0 hr 15 min 40 sec) 
Heartbeat CPU 0 instructions: 150000002 cycles: 217337033 heartbeat IPC: 0.497243 cumulative IPC: 0.493438 (Simulation time: 0 hr 16 min 59 sec) 
Heartbeat CPU 0 instructions: 160000002 cycles: 237768960 heartbeat IPC: 0.48943 cumulative IPC: 0.493071 (Simulation time: 0 hr 18 min 20 sec) 
Heartbeat CPU 0 instructions: 170000001 cycles: 257947729 heartbeat IPC: 0.49557 cumulative IPC: 0.493278 (Simulation time: 0 hr 19 min 40 sec) 
Heartbeat CPU 0 instructions: 180000001 cycles: 278068503 heartbeat IPC: 0.496999 cumulative IPC: 0.493562 (Simulation time: 0 hr 21 min 1 sec) 
Heartbeat CPU 0 instructions: 190000000 cycles: 298239816 heartbeat IPC: 0.495753 cumulative IPC: 0.493718 (Simulation time: 0 hr 22 min 22 sec) 
Heartbeat CPU 0 instructions: 200000003 cycles: 318376118 heartbeat IPC: 0.496616 cumulative IPC: 0.49391 (Simulation time: 0 hr 23 min 41 sec) 
Heartbeat CPU 0 instructions: 210000001 cycles: 338612636 heartbeat IPC: 0.494156 cumulative IPC: 0.493926 (Simulation time: 0 hr 25 min 3 sec) 
*** Reached end of trace for Core: 0 Repeating trace: traces/spec2k17/server_020.champsimtrace.xz
Heartbeat CPU 0 instructions: 220000000 cycles: 358790440 heartbeat IPC: 0.495594 cumulative IPC: 0.494024 (Simulation time: 0 hr 26 min 23 sec) 
Heartbeat CPU 0 instructions: 230000001 cycles: 378822809 heartbeat IPC: 0.499192 cumulative IPC: 0.494308 (Simulation time: 0 hr 27 min 44 sec) 
Heartbeat CPU 0 instructions: 240000000 cycles: 399055840 heartbeat IPC: 0.494241 cumulative IPC: 0.494304 (Simulation time: 0 hr 29 min 4 sec) 
Heartbeat CPU 0 instructions: 250000000 cycles: 419086886 heartbeat IPC: 0.499225 cumulative IPC: 0.494548 (Simulation time: 0 hr 30 min 26 sec) 
Finished CPU 0 instructions: 200000000 cycles: 404409631 cumulative IPC: 0.494548 (Simulation time: 0 hr 30 min 26 sec) 

ChampSim completed all CPUs

Region of Interest Statistics

CPU 0 cumulative IPC: 0.494548 instructions: 200000000 cycles: 404409631
ITLB TOTAL     ACCESS:   33754130  HIT:   32261596  MISS:    1492534  HIT %:    95.5782  MISS %:    4.42178   MPKI: 7.46267
ITLB LOAD TRANSLATION ACCESS:   33754130  HIT:   32261596  MISS:    1492534  HIT %:    95.5782  MISS %:    4.42178   MPKI: 7.46267
ITLB PREFETCH  REQUESTED:          0  ISSUED:          0  USEFUL:          0  USELESS:          0
ITLB USEFUL LOAD PREFETCHES:          0 PREFETCH ISSUED TO LOWER LEVEL:          0  ACCURACY: -nan
ITLB TIMELY PREFETCHES:          0 LATE PREFETCHES: 0 DROPPED PREFETCHES: 0
ITLB PREFETCHES SAME FILL-ORIGIN LEVEL: 0 DIFFERENT FILL-ORIGIN LEVEL: 0
ITLB AVERAGE MISS LATENCY: 9.41359 cycles
ITLB RQ	ACCESS:   40556026	FORWARD:          0	MERGED:    6320319	TO_CACHE:   34235707

DTLB TOTAL     ACCESS:   39705096  HIT:   38135577  MISS:    1569519  HIT %:    96.0471  MISS %:    3.95294   MPKI: 7.8476
DTLB LOAD TRANSLATION ACCESS:   39705096  HIT:   38135577  MISS:    1569519  HIT %:    96.0471  MISS %:    3.95294   MPKI: 7.8476
DTLB PREFETCH  REQUESTED:          0  ISSUED:          0  USEFUL:          0  USELESS:          0
DTLB USEFUL LOAD PREFETCHES:          0 PREFETCH ISSUED TO LOWER LEVEL:          0  ACCURACY: -nan
DTLB TIMELY PREFETCHES:          0 LATE PREFETCHES: 0 DROPPED PREFETCHES: 0
DTLB PREFETCHES SAME FILL-ORIGIN LEVEL: 0 DIFFERENT FILL-ORIGIN LEVEL: 0
DTLB AVERAGE MISS LATENCY: 15.494 cycles
DTLB RQ	ACCESS:   60402225	FORWARD:          0	MERGED:   20314610	TO_CACHE:   40087615

STLB TOTAL     ACCESS:    4426543  HIT:    4302953  MISS:     123590  HIT %:     97.208  MISS %:    2.79202   MPKI: 0.61795
STLB LOAD TRANSLATION ACCESS:    3062053  HIT:    2942517  MISS:     119536  HIT %:    96.0962  MISS %:    3.90379   MPKI: 0.59768
STLB TRANSLATION FROM L1D PREFETCHER ACCESS:    1364490  HIT:    1360436  MISS:       4054  HIT %:    99.7029  MISS %:   0.297107   MPKI: 0.02027
STLB PREFETCH  REQUESTED:          0  ISSUED:          0  USEFUL:       3501  USELESS:        549
STLB USEFUL LOAD PREFETCHES:       3501 PREFETCH ISSUED TO LOWER LEVEL:          0  ACCURACY: inf
STLB TIMELY PREFETCHES:       3501 LATE PREFETCHES: 1046 DROPPED PREFETCHES: 2067
STLB PREFETCHES SAME FILL-ORIGIN LEVEL: 0 DIFFERENT FILL-ORIGIN LEVEL: 0
STLB AVERAGE MISS LATENCY: 577623 cycles
STLB RQ	ACCESS:    4913170	FORWARD:          0	MERGED:     481694	TO_CACHE:    4431476

STLB Hit, L1D data hit: 0
STLB Hit, L2C data hit: 0
STLB Hit, LLC data hit: 0
STLB Hit, LLC data miss: 0
STLB STLB hints to L2: 0
L1D TOTAL     ACCESS:   49598461  HIT:   42466259  MISS:    7132202  HIT %:    85.6201  MISS %:    14.3799   MPKI: 35.661
L1D LOAD      ACCESS:   26634480  HIT:   23814130  MISS:    2820350  HIT %:    89.4109  MISS %:    10.5891   MPKI: 14.1017
L1D RFO       ACCESS:   22098538  HIT:   18516158  MISS:    3582380  HIT %:    83.7891  MISS %:    16.2109   MPKI: 17.9119
L1D PREFETCH  ACCESS:     865443  HIT:     135971  MISS:     729472  HIT %:    15.7111  MISS %:    84.2889   MPKI: 3.64736
AGUS PREFETCH L1 MISS: 0
L1D PREFETCH  REQUESTED:    3835866  ISSUED:    3835634  USEFUL:     324392  USELESS:     405036
L1D USEFUL LOAD PREFETCHES:     324392 PREFETCH ISSUED TO LOWER LEVEL:    1124774  ACCURACY: 28.8406
L1D TIMELY PREFETCHES:     324392 LATE PREFETCHES: 393048 DROPPED PREFETCHES: 3018
L1D PREFETCHES SAME FILL-ORIGIN LEVEL: 1124774 DIFFERENT FILL-ORIGIN LEVEL: 0
L1D AVERAGE MISS LATENCY: 1.20139e+07 cycles
L1D RQ	ACCESS:   45111217	FORWARD:          0	MERGED:   17836782	TO_CACHE:   27009769
L1D WQ	ACCESS:   33586965	FORWARD:     264709	MERGED:     194509	TO_CACHE:   33392456
L1D PQ	ACCESS:    1984517	FORWARD:          0	MERGED:     133357	TO_CACHE:    1851117

L1D UNIQUE REGIONS ACCESSED: 0
L1D REGIONS CONFLICTS: 0
L1D Cross Page Prefetch Requests: 68320
L1D Same Page Prefetch Requests: 2292987
L1D ROI Sum of L1D PQ occupancy: 26183333
L1D PREFETCHES PUSHED FROM L2C: 0
L1I TOTAL     ACCESS:   37943781  HIT:   29022489  MISS:    8921292  HIT %:    76.4881  MISS %:    23.5119   MPKI: 44.6065
L1I LOAD      ACCESS:   37943781  HIT:   29022489  MISS:    8921292  HIT %:    76.4881  MISS %:    23.5119   MPKI: 44.6065
L1I PREFETCH  REQUESTED:          0  ISSUED:          0  USEFUL:          0  USELESS:          0
L1I USEFUL LOAD PREFETCHES:          0 PREFETCH ISSUED TO LOWER LEVEL:          0  ACCURACY: -nan
L1I TIMELY PREFETCHES:          0 LATE PREFETCHES: 0 DROPPED PREFETCHES: 0
L1I PREFETCHES SAME FILL-ORIGIN LEVEL: 0 DIFFERENT FILL-ORIGIN LEVEL: 0
L1I AVERAGE MISS LATENCY: 16.6756 cycles
L1I RQ	ACCESS:   58824584	FORWARD:          0	MERGED:   18268558	TO_CACHE:   40556026

BTB TOTAL     ACCESS:   25748402  HIT:   24111404  MISS:    1636998  HIT %:    93.6423  MISS %:    6.35767   MPKI: 8.18499
BTB BRANCH_DIRECT_JUMP	ACCESS:    1705434  HIT:    1695554  MISS:       9880
BTB BRANCH_INDIRECT	ACCESS:    9970641  HIT:    9389854  MISS:     580787
BTB BRANCH_CONDITIONAL	ACCESS:    7278514  HIT:    7264968  MISS:      13546
BTB BRANCH_DIRECT_CALL	ACCESS:    2773558  HIT:    2740277  MISS:      33281
BTB BRANCH_INDIRECT_CALL	ACCESS:     623355  HIT:     515242  MISS:     108113
BTB BRANCH_RETURN	ACCESS:    3396900  HIT:    2505509  MISS:     891391
BTB BRANCH_OTHER ACCESS:          0  HIT:          0  MISS:          0

L2C TOTAL     ACCESS:   20487763  HIT:   13585717  MISS:    6902046  HIT %:    66.3114  MISS %:    33.6886   MPKI: 34.5102
L2C LOAD      ACCESS:   11348354  HIT:    9028815  MISS:    2319539  HIT %:    79.5606  MISS %:    20.4394   MPKI: 11.5977
L2C DATA LOAD MPKI: 8.73969
L2C INSTRUCTION LOAD MPKI: 2.858
L2C RFO       ACCESS:    3580118  HIT:     141092  MISS:    3439026  HIT %:    3.94099  MISS %:     96.059   MPKI: 17.1951
L2C PREFETCH  ACCESS:    1124773  HIT:     198141  MISS:     926632  HIT %:    17.6161  MISS %:    82.3839   MPKI: 4.63316
AGUS PREFETCH L1 MISS: 0
L2C DATA PREFETCH MPKI: 4.63316
L2C INSTRUCTION PREFETCH MPKI: 0
L2C WRITEBACK ACCESS:    4294616  HIT:    4154396  MISS:     140220  HIT %:     96.735  MISS %:    3.26502   MPKI: 0.7011
L2C LOAD TRANSLATION ACCESS:     131957  HIT:      57881  MISS:      74076  HIT %:    43.8635  MISS %:    56.1365   MPKI: 0.37038
L2C TRANSLATION FROM L1D PREFETCHER ACCESS:       7945  HIT:       5392  MISS:       2553  HIT %:    67.8666  MISS %:    32.1334   MPKI: 0.012765
L2C PREFETCH  REQUESTED:          0  ISSUED:          0  USEFUL:      32379  USELESS:     896923
L2C USEFUL LOAD PREFETCHES:      32379 PREFETCH ISSUED TO LOWER LEVEL:     926632  ACCURACY: 3.49427
L2C TIMELY PREFETCHES:      32379 LATE PREFETCHES: 0 DROPPED PREFETCHES: 0
L2C PREFETCHES SAME FILL-ORIGIN LEVEL: 0 DIFFERENT FILL-ORIGIN LEVEL: 0
L2C AVERAGE MISS LATENCY: 155.222 cycles
L2C RQ	ACCESS:   15068623	FORWARD:          0	MERGED:          0	TO_CACHE:   15068375
L2C WQ	ACCESS:    4294616	FORWARD:        249	MERGED:          0	TO_CACHE:    4294616
L2C PQ	ACCESS:    1124774	FORWARD:          0	MERGED:          0	TO_CACHE:    1124773

L2C Instructions Evicting Data 515262
L2C Translations Evicting Data 69617
L2C Data Evicting Data 5541229
L2C Instructions Evicting Instructions 50459
L2C Translations Evicting Instructions 5963
L2C Data Evicting Instructions 503897
L2C Instructions Evicting Translations 5879
L2C Translations Evicting Translations 1049
L2C Data Evicting Translations 68471
L2C Dense regions hint from L2: 0
PSCL5 TOTAL     ACCESS:     125657  HIT:     125657  MISS:          0  HIT %:        100  MISS %:          0   MPKI: 0
PSCL5 LOAD TRANSLATION ACCESS:     118490  HIT:     118490  MISS:          0  HIT %:        100  MISS %:          0   MPKI: 0
PSCL5 TRANSLATION FROM L1D PREFETCHER ACCESS:       7167  HIT:       7167  MISS:          0  HIT %:        100  MISS %:          0   MPKI: 0
PSCL5 PREFETCH  REQUESTED:          0  ISSUED:          0  USEFUL:          0  USELESS:          0
PSCL5 USEFUL LOAD PREFETCHES:          0 PREFETCH ISSUED TO LOWER LEVEL:          0  ACCURACY: -nan
PSCL5 TIMELY PREFETCHES:          0 LATE PREFETCHES: 0 DROPPED PREFETCHES: 0
PSCL5 PREFETCHES SAME FILL-ORIGIN LEVEL: 0 DIFFERENT FILL-ORIGIN LEVEL: 0

PSCL4 TOTAL     ACCESS:     122835  HIT:     122395  MISS:        440  HIT %:    99.6418  MISS %:   0.358204   MPKI: 0.0022
PSCL4 LOAD TRANSLATION ACCESS:     115952  HIT:     115512  MISS:        440  HIT %:    99.6205  MISS %:   0.379467   MPKI: 0.0022
PSCL4 TRANSLATION FROM L1D PREFETCHER ACCESS:       6883  HIT:       6883  MISS:          0  HIT %:        100  MISS %:          0   MPKI: 0
PSCL4 PREFETCH  REQUESTED:          0  ISSUED:          0  USEFUL:          0  USELESS:          0
PSCL4 USEFUL LOAD PREFETCHES:          0 PREFETCH ISSUED TO LOWER LEVEL:          0  ACCURACY: -nan
PSCL4 TIMELY PREFETCHES:          0 LATE PREFETCHES: 0 DROPPED PREFETCHES: 0
PSCL4 PREFETCHES SAME FILL-ORIGIN LEVEL: 0 DIFFERENT FILL-ORIGIN LEVEL: 0

PSCL3 TOTAL     ACCESS:     124485  HIT:     124045  MISS:        440  HIT %:    99.6465  MISS %:   0.353456   MPKI: 0.0022
PSCL3 LOAD TRANSLATION ACCESS:     117347  HIT:     116907  MISS:        440  HIT %:     99.625  MISS %:   0.374956   MPKI: 0.0022
PSCL3 TRANSLATION FROM L1D PREFETCHER ACCESS:       7138  HIT:       7138  MISS:          0  HIT %:        100  MISS %:          0   MPKI: 0
PSCL3 PREFETCH  REQUESTED:          0  ISSUED:          0  USEFUL:          0  USELESS:          0
PSCL3 USEFUL LOAD PREFETCHES:          0 PREFETCH ISSUED TO LOWER LEVEL:          0  ACCURACY: -nan
PSCL3 TIMELY PREFETCHES:          0 LATE PREFETCHES: 0 DROPPED PREFETCHES: 0
PSCL3 PREFETCHES SAME FILL-ORIGIN LEVEL: 0 DIFFERENT FILL-ORIGIN LEVEL: 0

PSCL2 TOTAL     ACCESS:     124985  HIT:     112272  MISS:      12713  HIT %:    89.8284  MISS %:    10.1716   MPKI: 0.063565
PSCL2 LOAD TRANSLATION ACCESS:     118592  HIT:     105879  MISS:      12713  HIT %:    89.2801  MISS %:    10.7199   MPKI: 0.063565
PSCL2 TRANSLATION FROM L1D PREFETCHER ACCESS:       6393  HIT:       6393  MISS:          0  HIT %:        100  MISS %:          0   MPKI: 0
PSCL2 PREFETCH  REQUESTED:          0  ISSUED:          0  USEFUL:          0  USELESS:          0
PSCL2 USEFUL LOAD PREFETCHES:          0 PREFETCH ISSUED TO LOWER LEVEL:          0  ACCURACY: -nan
PSCL2 TIMELY PREFETCHES:          0 LATE PREFETCHES: 0 DROPPED PREFETCHES: 0
PSCL2 PREFETCHES SAME FILL-ORIGIN LEVEL: 0 DIFFERENT FILL-ORIGIN LEVEL: 0

LLC TOTAL     ACCESS:   10754122  HIT:    4311445  MISS:    6442677  HIT %:    40.0911  MISS %:    59.9089   MPKI: 32.2134
LLC LOAD      ACCESS:    2319538  HIT:    1490538  MISS:     829000  HIT %:    64.2601  MISS %:    35.7399   MPKI: 4.145
LLC RFO       ACCESS:    3439006  HIT:     960294  MISS:    2478712  HIT %:    27.9236  MISS %:    72.0764   MPKI: 12.3936
LLC PREFETCH  ACCESS:     926632  HIT:     284420  MISS:     642212  HIT %:     30.694  MISS %:     69.306   MPKI: 3.21106
AGUS PREFETCH L1 MISS: 0
LLC WRITEBACK ACCESS:    3992317  HIT:    1522482  MISS:    2469835  HIT %:    38.1353  MISS %:    61.8647   MPKI: 12.3492
LLC LOAD TRANSLATION ACCESS:      74076  HIT:      52396  MISS:      21680  HIT %:    70.7328  MISS %:    29.2672   MPKI: 0.1084
LLC TRANSLATION FROM L1D PREFETCHER ACCESS:       2553  HIT:       1315  MISS:       1238  HIT %:     51.508  MISS %:     48.492   MPKI: 0.00619
LLC PREFETCH  REQUESTED:          0  ISSUED:          0  USEFUL:       1827  USELESS:     641697
LLC USEFUL LOAD PREFETCHES:       1827 PREFETCH ISSUED TO LOWER LEVEL:     642212  ACCURACY: 0.284485
LLC TIMELY PREFETCHES:       1827 LATE PREFETCHES: 0 DROPPED PREFETCHES: 0
LLC PREFETCHES SAME FILL-ORIGIN LEVEL: 0 DIFFERENT FILL-ORIGIN LEVEL: 0
LLC AVERAGE MISS LATENCY: 134.385 cycles
LLC RQ	ACCESS:    5835194	FORWARD:          0	MERGED:          0	TO_CACHE:    5835173
LLC WQ	ACCESS:    3992317	FORWARD:         21	MERGED:          0	TO_CACHE:    3992317
LLC PQ	ACCESS:     926632	FORWARD:          0	MERGED:          0	TO_CACHE:     926632

LLC Dense regions hint to LLC: 0

RAW hits: 2409911
Loads Generated: 47521129
Loads sent to L1D: 45111217
Stores Generated: 33586965
Stores sent to L1D: 33586965
Major fault: 0 Minor fault: 22230
Allocated PAGES: 22230
CPU 0 L1d next line prefetcher final stats

DRAM Statistics
 CHANNEL 0
 RQ ROW_BUFFER_HIT:    1813772  ROW_BUFFER_MISS:    2158638
 DBUS_CONGESTED:       1984
 WQ ROW_BUFFER_HIT:     542869  ROW_BUFFER_MISS:    2060936  FULL:      47552

 AVG_CONGESTED_CYCLE: 3
 All warmup complete: 2
Channel 0 Bank busy for read cycles: 0
Channel 0 Bank busy for write cycles: 0
Channel 0
Rank 0
0banks busy for read cycles: 170069042
0banks busy for write cycles: 270328
1banks busy for read cycles: 47090578
1banks busy for write cycles: 36897625
2banks busy for read cycles: 16695442
2banks busy for write cycles: 14721879
3banks busy for read cycles: 17001823
3banks busy for write cycles: 7251851
4banks busy for read cycles: 5901327
4banks busy for write cycles: 4463396
5banks busy for read cycles: 4878029
5banks busy for write cycles: 3543675
6banks busy for read cycles: 5674331
6banks busy for write cycles: 3537675
7banks busy for read cycles: 9182537
7banks busy for write cycles: 5978934
8banks busy for read cycles: 17871249
8banks busy for write cycles: 33379911

CPU 0 Branch Prediction Accuracy: 99.9427% MPKI: 0.08834 Average ROB Occupancy at Mispredict: 113.07
Branch types
NOT_BRANCH: 169139651 84.5698%
BRANCH_DIRECT_JUMP: 1705434 0.852717%
BRANCH_INDIRECT: 9970641 4.98532%
BRANCH_CONDITIONAL: 12390178 6.19509%
BRANCH_DIRECT_CALL: 2773558 1.38678%
BRANCH_INDIRECT_CALL: 623355 0.311677%
BRANCH_RETURN: 3396900 1.69845%
BRANCH_OTHER: 0 0%

DRAM PAGES: 1048576
Allocated PAGES: 22230
