
*** ChampSim Multicore Out-of-Order Simulator ***

Warmup Instructions: 50000000
Simulation Instructions: 200000000
Number of CPUs: 1
LLC sets: 2048
LLC ways: 16
Off-chip DRAM Size: 4096 MB Channels: 1 Width: 64-bit Data Rate: 6400 MT/s
CPU 0 runs traces/spec2k17/server_016.champsimtrace.xz
.xz
BTB has LRU replacement policy
ITLB has LRU replacement policy
DTLB has LRU replacement policy
STLB has LRU replacement policy
L1I has LRU replacement policy
CPU 0 L2C next line prefetcher
L1D has LRU replacement policy
Initialize SRRIP state for L2C
Initialize DRRIP state for LLC
Heartbeat CPU 0 instructions: 10000001 cycles: 2813155 heartbeat IPC: 3.55473 cumulative IPC: 3.55473 (Simulation time: 0 hr 0 min 38 sec) 
Heartbeat CPU 0 instructions: 20000001 cycles: 5619655 heartbeat IPC: 3.56316 cumulative IPC: 3.55894 (Simulation time: 0 hr 1 min 18 sec) 
Heartbeat CPU 0 instructions: 30000000 cycles: 8424829 heartbeat IPC: 3.56484 cumulative IPC: 3.5609 (Simulation time: 0 hr 1 min 58 sec) 
Heartbeat CPU 0 instructions: 40000000 cycles: 11529777 heartbeat IPC: 3.22067 cumulative IPC: 3.46928 (Simulation time: 0 hr 2 min 23 sec) 
Heartbeat CPU 0 instructions: 50000001 cycles: 14796251 heartbeat IPC: 3.06141 cumulative IPC: 3.37923 (Simulation time: 0 hr 2 min 40 sec) 

Warmup complete CPU 0 instructions: 50000001 cycles: 14796251 (Simulation time: 0 hr 2 min 40 sec) 

Heartbeat CPU 0 instructions: 60000001 cycles: 29234282 heartbeat IPC: 0.692615 cumulative IPC: 0.692615 (Simulation time: 0 hr 3 min 26 sec) 
Heartbeat CPU 0 instructions: 70000001 cycles: 58916033 heartbeat IPC: 0.336907 cumulative IPC: 0.453311 (Simulation time: 0 hr 4 min 34 sec) 
Heartbeat CPU 0 instructions: 80000000 cycles: 89525275 heartbeat IPC: 0.326699 cumulative IPC: 0.40145 (Simulation time: 0 hr 5 min 43 sec) 
Heartbeat CPU 0 instructions: 90000000 cycles: 119099523 heartbeat IPC: 0.338132 cumulative IPC: 0.383497 (Simulation time: 0 hr 6 min 51 sec) 
Heartbeat CPU 0 instructions: 100000000 cycles: 149166328 heartbeat IPC: 0.332593 cumulative IPC: 0.372107 (Simulation time: 0 hr 7 min 59 sec) 
*** Reached end of trace for Core: 0 Repeating trace: traces/spec2k17/server_016.champsimtrace.xz
Heartbeat CPU 0 instructions: 110000000 cycles: 178602399 heartbeat IPC: 0.339719 cumulative IPC: 0.366287 (Simulation time: 0 hr 9 min 5 sec) 
Heartbeat CPU 0 instructions: 120000003 cycles: 208696904 heartbeat IPC: 0.332287 cumulative IPC: 0.36101 (Simulation time: 0 hr 10 min 13 sec) 
Heartbeat CPU 0 instructions: 130000000 cycles: 238441243 heartbeat IPC: 0.336198 cumulative IPC: 0.35771 (Simulation time: 0 hr 11 min 20 sec) 
Heartbeat CPU 0 instructions: 140000000 cycles: 262767305 heartbeat IPC: 0.411082 cumulative IPC: 0.362946 (Simulation time: 0 hr 12 min 20 sec) 
Heartbeat CPU 0 instructions: 150000003 cycles: 277204461 heartbeat IPC: 0.692657 cumulative IPC: 0.381086 (Simulation time: 0 hr 13 min 8 sec) 
Heartbeat CPU 0 instructions: 160000001 cycles: 291641707 heartbeat IPC: 0.692653 cumulative IPC: 0.397334 (Simulation time: 0 hr 13 min 53 sec) 
Heartbeat CPU 0 instructions: 170000000 cycles: 316719697 heartbeat IPC: 0.398756 cumulative IPC: 0.397452 (Simulation time: 0 hr 14 min 53 sec) 
Heartbeat CPU 0 instructions: 180000003 cycles: 347088209 heartbeat IPC: 0.329289 cumulative IPC: 0.391222 (Simulation time: 0 hr 16 min 0 sec) 
Heartbeat CPU 0 instructions: 190000000 cycles: 377265576 heartbeat IPC: 0.331374 cumulative IPC: 0.38624 (Simulation time: 0 hr 17 min 9 sec) 
Heartbeat CPU 0 instructions: 200000000 cycles: 406629374 heartbeat IPC: 0.340555 cumulative IPC: 0.382816 (Simulation time: 0 hr 18 min 16 sec) 
*** Reached end of trace for Core: 0 Repeating trace: traces/spec2k17/server_016.champsimtrace.xz
Heartbeat CPU 0 instructions: 210000000 cycles: 436445180 heartbeat IPC: 0.335393 cumulative IPC: 0.379463 (Simulation time: 0 hr 19 min 25 sec) 
Heartbeat CPU 0 instructions: 220000000 cycles: 466316536 heartbeat IPC: 0.334769 cumulative IPC: 0.376506 (Simulation time: 0 hr 20 min 31 sec) 
Heartbeat CPU 0 instructions: 230000000 cycles: 496003485 heartbeat IPC: 0.336848 cumulative IPC: 0.374059 (Simulation time: 0 hr 21 min 38 sec) 
Heartbeat CPU 0 instructions: 240000000 cycles: 524853439 heartbeat IPC: 0.346621 cumulative IPC: 0.372507 (Simulation time: 0 hr 22 min 41 sec) 
Heartbeat CPU 0 instructions: 250000003 cycles: 539324206 heartbeat IPC: 0.691049 cumulative IPC: 0.381295 (Simulation time: 0 hr 23 min 24 sec) 
Finished CPU 0 instructions: 200000002 cycles: 524527955 cumulative IPC: 0.381295 (Simulation time: 0 hr 23 min 24 sec) 

ChampSim completed all CPUs

Region of Interest Statistics

CPU 0 cumulative IPC: 0.381295 instructions: 200000002 cycles: 524527955
ITLB TOTAL     ACCESS:   37651583  HIT:   36241375  MISS:    1410208  HIT %:    96.2546  MISS %:    3.74541   MPKI: 7.05104
ITLB LOAD TRANSLATION ACCESS:   37651583  HIT:   36241375  MISS:    1410208  HIT %:    96.2546  MISS %:    3.74541   MPKI: 7.05104
ITLB PREFETCH  REQUESTED:          0  ISSUED:          0  USEFUL:          0  USELESS:          0
ITLB USEFUL LOAD PREFETCHES:          0 PREFETCH ISSUED TO LOWER LEVEL:          0  ACCURACY: -nan
ITLB TIMELY PREFETCHES:          0 LATE PREFETCHES: 0 DROPPED PREFETCHES: 0
ITLB PREFETCHES SAME FILL-ORIGIN LEVEL: 0 DIFFERENT FILL-ORIGIN LEVEL: 0
ITLB AVERAGE MISS LATENCY: 9.05606 cycles
ITLB RQ	ACCESS:   42291848	FORWARD:          0	MERGED:    4300451	TO_CACHE:   37991397

DTLB TOTAL     ACCESS:   39332561  HIT:   37961703  MISS:    1370858  HIT %:    96.5147  MISS %:     3.4853   MPKI: 6.85429
DTLB LOAD TRANSLATION ACCESS:   39332561  HIT:   37961703  MISS:    1370858  HIT %:    96.5147  MISS %:     3.4853   MPKI: 6.85429
DTLB PREFETCH  REQUESTED:          0  ISSUED:          0  USEFUL:          0  USELESS:          0
DTLB USEFUL LOAD PREFETCHES:          0 PREFETCH ISSUED TO LOWER LEVEL:          0  ACCURACY: -nan
DTLB TIMELY PREFETCHES:          0 LATE PREFETCHES: 0 DROPPED PREFETCHES: 0
DTLB PREFETCHES SAME FILL-ORIGIN LEVEL: 0 DIFFERENT FILL-ORIGIN LEVEL: 0
DTLB AVERAGE MISS LATENCY: 9.28986 cycles
DTLB RQ	ACCESS:   50767350	FORWARD:          0	MERGED:   11382869	TO_CACHE:   39384481

STLB TOTAL     ACCESS:    3376064  HIT:    3368196  MISS:       7868  HIT %:    99.7669  MISS %:   0.233052   MPKI: 0.03934
STLB LOAD TRANSLATION ACCESS:    2781066  HIT:    2773305  MISS:       7761  HIT %:    99.7209  MISS %:   0.279066   MPKI: 0.038805
STLB TRANSLATION FROM L1D PREFETCHER ACCESS:     594998  HIT:     594891  MISS:        107  HIT %:     99.982  MISS %:  0.0179833   MPKI: 0.000535
STLB PREFETCH  REQUESTED:          0  ISSUED:          0  USEFUL:         84  USELESS:         23
STLB USEFUL LOAD PREFETCHES:         84 PREFETCH ISSUED TO LOWER LEVEL:          0  ACCURACY: inf
STLB TIMELY PREFETCHES:         84 LATE PREFETCHES: 135 DROPPED PREFETCHES: 2079
STLB PREFETCHES SAME FILL-ORIGIN LEVEL: 0 DIFFERENT FILL-ORIGIN LEVEL: 0
STLB AVERAGE MISS LATENCY: 530047 cycles
STLB RQ	ACCESS:    3509459	FORWARD:          0	MERGED:     130837	TO_CACHE:    3378622

STLB Hit, L1D data hit: 0
STLB Hit, L2C data hit: 0
STLB Hit, LLC data hit: 0
STLB Hit, LLC data miss: 0
STLB STLB hints to L2: 0
L1D TOTAL     ACCESS:   49817740  HIT:   46615864  MISS:    3201876  HIT %:    93.5728  MISS %:    6.42718   MPKI: 16.0094
L1D LOAD      ACCESS:   29954489  HIT:   27889682  MISS:    2064807  HIT %:    93.1069  MISS %:    6.89315   MPKI: 10.324
L1D RFO       ACCESS:   19436812  HIT:   18613017  MISS:     823795  HIT %:    95.7617  MISS %:    4.23832   MPKI: 4.11897
L1D PREFETCH  ACCESS:     426439  HIT:     113165  MISS:     313274  HIT %:    26.5372  MISS %:    73.4628   MPKI: 1.56637
AGUS PREFETCH L1 MISS: 0
L1D PREFETCH  REQUESTED:    1473676  ISSUED:    1473676  USEFUL:     113032  USELESS:     200237
L1D USEFUL LOAD PREFETCHES:     113032 PREFETCH ISSUED TO LOWER LEVEL:     471772  ACCURACY: 23.959
L1D TIMELY PREFETCHES:     113032 LATE PREFETCHES: 158464 DROPPED PREFETCHES: 2402
L1D PREFETCHES SAME FILL-ORIGIN LEVEL: 471772 DIFFERENT FILL-ORIGIN LEVEL: 0
L1D AVERAGE MISS LATENCY: 1.36618e+07 cycles
L1D RQ	ACCESS:   40503470	FORWARD:          0	MERGED:   10220194	TO_CACHE:   30037876
L1D WQ	ACCESS:   20857481	FORWARD:     245407	MERGED:     128007	TO_CACHE:   20729474
L1D PQ	ACCESS:     745283	FORWARD:          0	MERGED:      16883	TO_CACHE:     728393

L1D UNIQUE REGIONS ACCESSED: 0
L1D REGIONS CONFLICTS: 0
L1D Cross Page Prefetch Requests: 15404
L1D Same Page Prefetch Requests: 882848
L1D ROI Sum of L1D PQ occupancy: 9470278
L1D PREFETCHES PUSHED FROM L2C: 0
L1I TOTAL     ACCESS:   41216882  HIT:   33841670  MISS:    7375212  HIT %:    82.1063  MISS %:    17.8937   MPKI: 36.8761
L1I LOAD      ACCESS:   41216882  HIT:   33841670  MISS:    7375212  HIT %:    82.1063  MISS %:    17.8937   MPKI: 36.8761
L1I PREFETCH  REQUESTED:          0  ISSUED:          0  USEFUL:          0  USELESS:          0
L1I USEFUL LOAD PREFETCHES:          0 PREFETCH ISSUED TO LOWER LEVEL:          0  ACCURACY: -nan
L1I TIMELY PREFETCHES:          0 LATE PREFETCHES: 0 DROPPED PREFETCHES: 0
L1I PREFETCHES SAME FILL-ORIGIN LEVEL: 0 DIFFERENT FILL-ORIGIN LEVEL: 0
L1I AVERAGE MISS LATENCY: 16.5943 cycles
L1I RQ	ACCESS:   59992673	FORWARD:          0	MERGED:   17700825	TO_CACHE:   42291848

BTB TOTAL     ACCESS:   31149502  HIT:   22487623  MISS:    8661879  HIT %:    72.1926  MISS %:    27.8074   MPKI: 43.3094
BTB BRANCH_DIRECT_JUMP	ACCESS:    1790889  HIT:    1185918  MISS:     604971
BTB BRANCH_INDIRECT	ACCESS:    9233189  HIT:    5986023  MISS:    3247166
BTB BRANCH_CONDITIONAL	ACCESS:   13716226  HIT:   12843151  MISS:     873075
BTB BRANCH_DIRECT_CALL	ACCESS:    2729399  HIT:    1310065  MISS:    1419334
BTB BRANCH_INDIRECT_CALL	ACCESS:     475210  HIT:     188709  MISS:     286501
BTB BRANCH_RETURN	ACCESS:    3204589  HIT:     973757  MISS:    2230832
BTB BRANCH_OTHER ACCESS:          0  HIT:          0  MISS:          0

L2C TOTAL     ACCESS:   11997781  HIT:   10814633  MISS:    1183148  HIT %:    90.1386  MISS %:    9.86139   MPKI: 5.91574
L2C LOAD      ACCESS:    9281495  HIT:    8420686  MISS:     860809  HIT %:    90.7255  MISS %:    9.27446   MPKI: 4.30404
L2C DATA LOAD MPKI: 1.28775
L2C INSTRUCTION LOAD MPKI: 3.01629
L2C RFO       ACCESS:     823758  HIT:     672624  MISS:     151134  HIT %:    81.6531  MISS %:    18.3469   MPKI: 0.75567
L2C PREFETCH  ACCESS:     471770  HIT:     343948  MISS:     127822  HIT %:    72.9059  MISS %:    27.0941   MPKI: 0.63911
AGUS PREFETCH L1 MISS: 0
L2C DATA PREFETCH MPKI: 0.63911
L2C INSTRUCTION PREFETCH MPKI: 0
L2C WRITEBACK ACCESS:    1407996  HIT:    1371705  MISS:      36291  HIT %:    97.4225  MISS %:    2.57749   MPKI: 0.181455
L2C LOAD TRANSLATION ACCESS:       8584  HIT:       2424  MISS:       6160  HIT %:    28.2386  MISS %:    71.7614   MPKI: 0.0308
L2C TRANSLATION FROM L1D PREFETCHER ACCESS:       4178  HIT:       3246  MISS:        932  HIT %:    77.6927  MISS %:    22.3073   MPKI: 0.00466
L2C PREFETCH  REQUESTED:          0  ISSUED:          0  USEFUL:       9163  USELESS:     119641
L2C USEFUL LOAD PREFETCHES:       9163 PREFETCH ISSUED TO LOWER LEVEL:     127822  ACCURACY: 7.16856
L2C TIMELY PREFETCHES:       9163 LATE PREFETCHES: 0 DROPPED PREFETCHES: 0
L2C PREFETCHES SAME FILL-ORIGIN LEVEL: 0 DIFFERENT FILL-ORIGIN LEVEL: 0
L2C AVERAGE MISS LATENCY: 43.5097 cycles
L2C RQ	ACCESS:   10118078	FORWARD:          0	MERGED:          0	TO_CACHE:   10118015
L2C WQ	ACCESS:    1407996	FORWARD:         65	MERGED:          0	TO_CACHE:    1407996
L2C PQ	ACCESS:     471772	FORWARD:          0	MERGED:          0	TO_CACHE:     471770

L2C Instructions Evicting Data 261610
L2C Translations Evicting Data 4716
L2C Data Evicting Data 290912
L2C Instructions Evicting Instructions 339393
L2C Translations Evicting Instructions 2282
L2C Data Evicting Instructions 240919
L2C Instructions Evicting Translations 2255
L2C Translations Evicting Translations 94
L2C Data Evicting Translations 4676
L2C Dense regions hint from L2: 0
PSCL5 TOTAL     ACCESS:       9959  HIT:       9959  MISS:          0  HIT %:        100  MISS %:          0   MPKI: 0
PSCL5 LOAD TRANSLATION ACCESS:       7638  HIT:       7638  MISS:          0  HIT %:        100  MISS %:          0   MPKI: 0
PSCL5 TRANSLATION FROM L1D PREFETCHER ACCESS:       2321  HIT:       2321  MISS:          0  HIT %:        100  MISS %:          0   MPKI: 0
PSCL5 PREFETCH  REQUESTED:          0  ISSUED:          0  USEFUL:          0  USELESS:          0
PSCL5 USEFUL LOAD PREFETCHES:          0 PREFETCH ISSUED TO LOWER LEVEL:          0  ACCURACY: -nan
PSCL5 TIMELY PREFETCHES:          0 LATE PREFETCHES: 0 DROPPED PREFETCHES: 0
PSCL5 PREFETCHES SAME FILL-ORIGIN LEVEL: 0 DIFFERENT FILL-ORIGIN LEVEL: 0

PSCL4 TOTAL     ACCESS:       8698  HIT:       8652  MISS:         46  HIT %:    99.4711  MISS %:   0.528857   MPKI: 0.00023
PSCL4 LOAD TRANSLATION ACCESS:       7020  HIT:       6974  MISS:         46  HIT %:    99.3447  MISS %:   0.655271   MPKI: 0.00023
PSCL4 TRANSLATION FROM L1D PREFETCHER ACCESS:       1678  HIT:       1678  MISS:          0  HIT %:        100  MISS %:          0   MPKI: 0
PSCL4 PREFETCH  REQUESTED:          0  ISSUED:          0  USEFUL:          0  USELESS:          0
PSCL4 USEFUL LOAD PREFETCHES:          0 PREFETCH ISSUED TO LOWER LEVEL:          0  ACCURACY: -nan
PSCL4 TIMELY PREFETCHES:          0 LATE PREFETCHES: 0 DROPPED PREFETCHES: 0
PSCL4 PREFETCHES SAME FILL-ORIGIN LEVEL: 0 DIFFERENT FILL-ORIGIN LEVEL: 0

PSCL3 TOTAL     ACCESS:       9795  HIT:       9749  MISS:         46  HIT %:    99.5304  MISS %:   0.469627   MPKI: 0.00023
PSCL3 LOAD TRANSLATION ACCESS:       7515  HIT:       7469  MISS:         46  HIT %:    99.3879  MISS %:   0.612109   MPKI: 0.00023
PSCL3 TRANSLATION FROM L1D PREFETCHER ACCESS:       2280  HIT:       2280  MISS:          0  HIT %:        100  MISS %:          0   MPKI: 0
PSCL3 PREFETCH  REQUESTED:          0  ISSUED:          0  USEFUL:          0  USELESS:          0
PSCL3 USEFUL LOAD PREFETCHES:          0 PREFETCH ISSUED TO LOWER LEVEL:          0  ACCURACY: -nan
PSCL3 TIMELY PREFETCHES:          0 LATE PREFETCHES: 0 DROPPED PREFETCHES: 0
PSCL3 PREFETCHES SAME FILL-ORIGIN LEVEL: 0 DIFFERENT FILL-ORIGIN LEVEL: 0

PSCL2 TOTAL     ACCESS:       8147  HIT:       7282  MISS:        865  HIT %:    89.3826  MISS %:    10.6174   MPKI: 0.004325
PSCL2 LOAD TRANSLATION ACCESS:       7645  HIT:       6780  MISS:        865  HIT %:    88.6854  MISS %:    11.3146   MPKI: 0.004325
PSCL2 TRANSLATION FROM L1D PREFETCHER ACCESS:        502  HIT:        502  MISS:          0  HIT %:        100  MISS %:          0   MPKI: 0
PSCL2 PREFETCH  REQUESTED:          0  ISSUED:          0  USEFUL:          0  USELESS:          0
PSCL2 USEFUL LOAD PREFETCHES:          0 PREFETCH ISSUED TO LOWER LEVEL:          0  ACCURACY: -nan
PSCL2 TIMELY PREFETCHES:          0 LATE PREFETCHES: 0 DROPPED PREFETCHES: 0
PSCL2 PREFETCHES SAME FILL-ORIGIN LEVEL: 0 DIFFERENT FILL-ORIGIN LEVEL: 0

LLC TOTAL     ACCESS:    1356331  HIT:    1255048  MISS:     101283  HIT %:    92.5326  MISS %:    7.46742   MPKI: 0.506415
LLC LOAD      ACCESS:     860809  HIT:     835722  MISS:      25087  HIT %:    97.0856  MISS %:    2.91435   MPKI: 0.125435
LLC RFO       ACCESS:     151134  HIT:      97643  MISS:      53491  HIT %:    64.6069  MISS %:    35.3931   MPKI: 0.267455
LLC PREFETCH  ACCESS:     127822  HIT:     106444  MISS:      21378  HIT %:    83.2752  MISS %:    16.7248   MPKI: 0.10689
AGUS PREFETCH L1 MISS: 0
LLC WRITEBACK ACCESS:     209474  HIT:     208608  MISS:        866  HIT %:    99.5866  MISS %:   0.413416   MPKI: 0.00433
LLC LOAD TRANSLATION ACCESS:       6160  HIT:       5720  MISS:        440  HIT %:    92.8571  MISS %:    7.14286   MPKI: 0.0022
LLC TRANSLATION FROM L1D PREFETCHER ACCESS:        932  HIT:        911  MISS:         21  HIT %:    97.7468  MISS %:    2.25322   MPKI: 0.000105
LLC PREFETCH  REQUESTED:          0  ISSUED:          0  USEFUL:       1696  USELESS:      20452
LLC USEFUL LOAD PREFETCHES:       1696 PREFETCH ISSUED TO LOWER LEVEL:      21378  ACCURACY: 7.93339
LLC TIMELY PREFETCHES:       1696 LATE PREFETCHES: 0 DROPPED PREFETCHES: 0
LLC PREFETCHES SAME FILL-ORIGIN LEVEL: 0 DIFFERENT FILL-ORIGIN LEVEL: 0
LLC AVERAGE MISS LATENCY: 168.273 cycles
LLC RQ	ACCESS:    1019035	FORWARD:          0	MERGED:          0	TO_CACHE:    1019035
LLC WQ	ACCESS:     209474	FORWARD:          0	MERGED:          0	TO_CACHE:     209474
LLC PQ	ACCESS:     127822	FORWARD:          0	MERGED:          0	TO_CACHE:     127822

LLC Dense regions hint to LLC: 0

RAW hits: 1229569
Loads Generated: 41733040
Loads sent to L1D: 40503470
Stores Generated: 20857481
Stores sent to L1D: 20857481
Major fault: 0 Minor fault: 2472
Allocated PAGES: 2472
CPU 0 L1d next line prefetcher final stats

DRAM Statistics
 CHANNEL 0
 RQ ROW_BUFFER_HIT:      39143  ROW_BUFFER_MISS:      61262
 DBUS_CONGESTED:         92
 WQ ROW_BUFFER_HIT:       5275  ROW_BUFFER_MISS:      51684  FULL:          0

 AVG_CONGESTED_CYCLE: 5
 All warmup complete: 2
Channel 0 Bank busy for read cycles: 0
Channel 0 Bank busy for write cycles: 0
Channel 0
Rank 0
0banks busy for read cycles: 517045717
0banks busy for write cycles: 12206
1banks busy for read cycles: 2653662
1banks busy for write cycles: 1540817
2banks busy for read cycles: 397997
2banks busy for write cycles: 335329
3banks busy for read cycles: 256831
3banks busy for write cycles: 183425
4banks busy for read cycles: 196362
4banks busy for write cycles: 145702
5banks busy for read cycles: 152548
5banks busy for write cycles: 132997
6banks busy for read cycles: 150817
6banks busy for write cycles: 142580
7banks busy for read cycles: 166908
7banks busy for write cycles: 166888
8banks busy for read cycles: 418210
8banks busy for write cycles: 428960

CPU 0 Branch Prediction Accuracy: 99.773% MPKI: 0.39801 Average ROB Occupancy at Mispredict: 35.8851
Branch types
NOT_BRANCH: 164926668 82.4633%
BRANCH_DIRECT_JUMP: 1790889 0.895444%
BRANCH_INDIRECT: 9233189 4.61659%
BRANCH_CONDITIONAL: 17640059 8.82003%
BRANCH_DIRECT_CALL: 2729399 1.3647%
BRANCH_INDIRECT_CALL: 475210 0.237605%
BRANCH_RETURN: 3204589 1.60229%
BRANCH_OTHER: 0 0%

DRAM PAGES: 1048576
Allocated PAGES: 2472
