
*** ChampSim Multicore Out-of-Order Simulator ***

Warmup Instructions: 50000000
Simulation Instructions: 200000000
Number of CPUs: 1
LLC sets: 2048
LLC ways: 16
Off-chip DRAM Size: 4096 MB Channels: 1 Width: 64-bit Data Rate: 6400 MT/s
CPU 0 runs traces/spec2k17/server_012.champsimtrace.xz
.xz
BTB has LRU replacement policy
ITLB has LRU replacement policy
DTLB has LRU replacement policy
STLB has LRU replacement policy
L1I has LRU replacement policy
CPU 0 L2C next line prefetcher
L1D has LRU replacement policy
Initialize SRRIP state for L2C
Initialize DRRIP state for LLC
Heartbeat CPU 0 instructions: 10000001 cycles: 2780649 heartbeat IPC: 3.59628 cumulative IPC: 3.59628 (Simulation time: 0 hr 0 min 39 sec) 
Heartbeat CPU 0 instructions: 20000000 cycles: 5553321 heartbeat IPC: 3.60663 cumulative IPC: 3.60145 (Simulation time: 0 hr 1 min 18 sec) 
Heartbeat CPU 0 instructions: 30000001 cycles: 8323490 heartbeat IPC: 3.60989 cumulative IPC: 3.60426 (Simulation time: 0 hr 1 min 57 sec) 
Heartbeat CPU 0 instructions: 40000003 cycles: 11101179 heartbeat IPC: 3.60012 cumulative IPC: 3.60322 (Simulation time: 0 hr 2 min 36 sec) 
Heartbeat CPU 0 instructions: 50000002 cycles: 13873531 heartbeat IPC: 3.60705 cumulative IPC: 3.60399 (Simulation time: 0 hr 3 min 14 sec) 

Warmup complete CPU 0 instructions: 50000002 cycles: 13873531 (Simulation time: 0 hr 3 min 14 sec) 

Heartbeat CPU 0 instructions: 60000001 cycles: 37196276 heartbeat IPC: 0.428766 cumulative IPC: 0.428766 (Simulation time: 0 hr 4 min 17 sec) 
Heartbeat CPU 0 instructions: 70000000 cycles: 60155292 heartbeat IPC: 0.435559 cumulative IPC: 0.432136 (Simulation time: 0 hr 5 min 22 sec) 
Heartbeat CPU 0 instructions: 80000000 cycles: 83646597 heartbeat IPC: 0.425689 cumulative IPC: 0.429965 (Simulation time: 0 hr 6 min 27 sec) 
Heartbeat CPU 0 instructions: 90000001 cycles: 107239659 heartbeat IPC: 0.423853 cumulative IPC: 0.428421 (Simulation time: 0 hr 7 min 30 sec) 
Heartbeat CPU 0 instructions: 100000003 cycles: 130075524 heartbeat IPC: 0.437908 cumulative IPC: 0.430285 (Simulation time: 0 hr 8 min 31 sec) 
*** Reached end of trace for Core: 0 Repeating trace: traces/spec2k17/server_012.champsimtrace.xz
Heartbeat CPU 0 instructions: 110000000 cycles: 153890535 heartbeat IPC: 0.419903 cumulative IPC: 0.428519 (Simulation time: 0 hr 9 min 35 sec) 
Heartbeat CPU 0 instructions: 120000002 cycles: 177017239 heartbeat IPC: 0.432401 cumulative IPC: 0.42907 (Simulation time: 0 hr 10 min 39 sec) 
Heartbeat CPU 0 instructions: 130000002 cycles: 200219414 heartbeat IPC: 0.430994 cumulative IPC: 0.429309 (Simulation time: 0 hr 11 min 41 sec) 
Heartbeat CPU 0 instructions: 140000002 cycles: 223639816 heartbeat IPC: 0.426978 cumulative IPC: 0.429049 (Simulation time: 0 hr 12 min 47 sec) 
Heartbeat CPU 0 instructions: 150000002 cycles: 246711829 heartbeat IPC: 0.433426 cumulative IPC: 0.429483 (Simulation time: 0 hr 13 min 50 sec) 
Heartbeat CPU 0 instructions: 160000002 cycles: 270051820 heartbeat IPC: 0.428449 cumulative IPC: 0.429388 (Simulation time: 0 hr 14 min 53 sec) 
Heartbeat CPU 0 instructions: 170000000 cycles: 292949444 heartbeat IPC: 0.436726 cumulative IPC: 0.429991 (Simulation time: 0 hr 15 min 57 sec) 
Heartbeat CPU 0 instructions: 180000001 cycles: 316658564 heartbeat IPC: 0.421779 cumulative IPC: 0.429348 (Simulation time: 0 hr 17 min 1 sec) 
Heartbeat CPU 0 instructions: 190000001 cycles: 339829223 heartbeat IPC: 0.43158 cumulative IPC: 0.429506 (Simulation time: 0 hr 18 min 6 sec) 
Heartbeat CPU 0 instructions: 200000001 cycles: 362965005 heartbeat IPC: 0.432231 cumulative IPC: 0.429687 (Simulation time: 0 hr 19 min 11 sec) 
*** Reached end of trace for Core: 0 Repeating trace: traces/spec2k17/server_012.champsimtrace.xz
Heartbeat CPU 0 instructions: 210000000 cycles: 386151488 heartbeat IPC: 0.431286 cumulative IPC: 0.429786 (Simulation time: 0 hr 20 min 15 sec) 
Heartbeat CPU 0 instructions: 220000000 cycles: 409510474 heartbeat IPC: 0.428101 cumulative IPC: 0.429687 (Simulation time: 0 hr 21 min 18 sec) 
Heartbeat CPU 0 instructions: 230000001 cycles: 432672381 heartbeat IPC: 0.431743 cumulative IPC: 0.429801 (Simulation time: 0 hr 22 min 23 sec) 
Heartbeat CPU 0 instructions: 240000000 cycles: 456060615 heartbeat IPC: 0.427565 cumulative IPC: 0.429682 (Simulation time: 0 hr 23 min 27 sec) 
Heartbeat CPU 0 instructions: 250000000 cycles: 479428445 heartbeat IPC: 0.427939 cumulative IPC: 0.429595 (Simulation time: 0 hr 24 min 32 sec) 
Finished CPU 0 instructions: 200000000 cycles: 465554945 cumulative IPC: 0.429595 (Simulation time: 0 hr 24 min 32 sec) 

ChampSim completed all CPUs

Region of Interest Statistics

CPU 0 cumulative IPC: 0.429595 instructions: 200000000 cycles: 465554945
ITLB TOTAL     ACCESS:   31604752  HIT:   30799331  MISS:     805421  HIT %:    97.4516  MISS %:    2.54842   MPKI: 4.0271
ITLB LOAD TRANSLATION ACCESS:   31604752  HIT:   30799331  MISS:     805421  HIT %:    97.4516  MISS %:    2.54842   MPKI: 4.0271
ITLB PREFETCH  REQUESTED:          0  ISSUED:          0  USEFUL:          0  USELESS:          0
ITLB USEFUL LOAD PREFETCHES:          0 PREFETCH ISSUED TO LOWER LEVEL:          0  ACCURACY: -nan
ITLB TIMELY PREFETCHES:          0 LATE PREFETCHES: 0 DROPPED PREFETCHES: 0
ITLB PREFETCHES SAME FILL-ORIGIN LEVEL: 0 DIFFERENT FILL-ORIGIN LEVEL: 0
ITLB AVERAGE MISS LATENCY: 15.6809 cycles
ITLB RQ	ACCESS:   38438792	FORWARD:          0	MERGED:    6639784	TO_CACHE:   31799008

DTLB TOTAL     ACCESS:   37465371  HIT:   34963719  MISS:    2501652  HIT %:    93.3228  MISS %:    6.67724   MPKI: 12.5083
DTLB LOAD TRANSLATION ACCESS:   37465371  HIT:   34963719  MISS:    2501652  HIT %:    93.3228  MISS %:    6.67724   MPKI: 12.5083
DTLB PREFETCH  REQUESTED:          0  ISSUED:          0  USEFUL:          0  USELESS:          0
DTLB USEFUL LOAD PREFETCHES:          0 PREFETCH ISSUED TO LOWER LEVEL:          0  ACCURACY: -nan
DTLB TIMELY PREFETCHES:          0 LATE PREFETCHES: 0 DROPPED PREFETCHES: 0
DTLB PREFETCHES SAME FILL-ORIGIN LEVEL: 0 DIFFERENT FILL-ORIGIN LEVEL: 0
DTLB AVERAGE MISS LATENCY: 14.0662 cycles
DTLB RQ	ACCESS:   47940438	FORWARD:          0	MERGED:   10325246	TO_CACHE:   37615192

STLB TOTAL     ACCESS:    3840013  HIT:    3383722  MISS:     456291  HIT %:    88.1175  MISS %:    11.8825   MPKI: 2.28145
STLB LOAD TRANSLATION ACCESS:    3307073  HIT:    2852893  MISS:     454180  HIT %:    86.2664  MISS %:    13.7336   MPKI: 2.2709
STLB TRANSLATION FROM L1D PREFETCHER ACCESS:     532940  HIT:     530829  MISS:       2111  HIT %:    99.6039  MISS %:   0.396105   MPKI: 0.010555
STLB PREFETCH  REQUESTED:          0  ISSUED:          0  USEFUL:       1939  USELESS:        171
STLB USEFUL LOAD PREFETCHES:       1939 PREFETCH ISSUED TO LOWER LEVEL:          0  ACCURACY: inf
STLB TIMELY PREFETCHES:       1939 LATE PREFETCHES: 139 DROPPED PREFETCHES: 4703
STLB PREFETCHES SAME FILL-ORIGIN LEVEL: 0 DIFFERENT FILL-ORIGIN LEVEL: 0
STLB AVERAGE MISS LATENCY: 39.5347 cycles
STLB RQ	ACCESS:    3937257	FORWARD:          0	MERGED:      92108	TO_CACHE:    3845149

STLB Hit, L1D data hit: 0
STLB Hit, L2C data hit: 0
STLB Hit, LLC data hit: 0
STLB Hit, LLC data miss: 0
STLB STLB hints to L2: 0
L1D TOTAL     ACCESS:   47868351  HIT:   45086895  MISS:    2781456  HIT %:    94.1894  MISS %:    5.81064   MPKI: 13.9073
L1D LOAD      ACCESS:   27812769  HIT:   25776128  MISS:    2036641  HIT %:    92.6773  MISS %:    7.32268   MPKI: 10.1832
L1D RFO       ACCESS:   19570400  HIT:   19220372  MISS:     350028  HIT %:    98.2114  MISS %:    1.78856   MPKI: 1.75014
L1D PREFETCH  ACCESS:     485182  HIT:      90395  MISS:     394787  HIT %:    18.6312  MISS %:    81.3688   MPKI: 1.97393
AGUS PREFETCH L1 MISS: 0
L1D PREFETCH  REQUESTED:    1268581  ISSUED:    1268468  USEFUL:     149161  USELESS:     245650
L1D USEFUL LOAD PREFETCHES:     149161 PREFETCH ISSUED TO LOWER LEVEL:     424433  ACCURACY: 35.1436
L1D TIMELY PREFETCHES:     149161 LATE PREFETCHES: 29119 DROPPED PREFETCHES: 5610
L1D PREFETCHES SAME FILL-ORIGIN LEVEL: 424433 DIFFERENT FILL-ORIGIN LEVEL: 0
L1D AVERAGE MISS LATENCY: 2.60812e+06 cycles
L1D RQ	ACCESS:   42029418	FORWARD:          0	MERGED:   13874025	TO_CACHE:   27937439
L1D WQ	ACCESS:   20324646	FORWARD:     218341	MERGED:     321647	TO_CACHE:   20002999
L1D PQ	ACCESS:     638284	FORWARD:          0	MERGED:       7713	TO_CACHE:     630184

L1D UNIQUE REGIONS ACCESSED: 0
L1D REGIONS CONFLICTS: 0
L1D Cross Page Prefetch Requests: 19253
L1D Same Page Prefetch Requests: 780549
L1D ROI Sum of L1D PQ occupancy: 8651681
L1D PREFETCHES PUSHED FROM L2C: 0
L1I TOTAL     ACCESS:   36793815  HIT:   31735721  MISS:    5058094  HIT %:    86.2529  MISS %:    13.7471   MPKI: 25.2905
L1I LOAD      ACCESS:   36793815  HIT:   31735721  MISS:    5058094  HIT %:    86.2529  MISS %:    13.7471   MPKI: 25.2905
L1I PREFETCH  REQUESTED:          0  ISSUED:          0  USEFUL:          0  USELESS:          0
L1I USEFUL LOAD PREFETCHES:          0 PREFETCH ISSUED TO LOWER LEVEL:          0  ACCURACY: -nan
L1I TIMELY PREFETCHES:          0 LATE PREFETCHES: 0 DROPPED PREFETCHES: 0
L1I PREFETCHES SAME FILL-ORIGIN LEVEL: 0 DIFFERENT FILL-ORIGIN LEVEL: 0
L1I AVERAGE MISS LATENCY: 27.7123 cycles
L1I RQ	ACCESS:   57211329	FORWARD:          0	MERGED:   18772537	TO_CACHE:   38438792

BTB TOTAL     ACCESS:   22869963  HIT:   17926817  MISS:    4943146  HIT %:    78.3859  MISS %:    21.6141   MPKI: 24.7157
BTB BRANCH_DIRECT_JUMP	ACCESS:    1810341  HIT:    1516951  MISS:     293390
BTB BRANCH_INDIRECT	ACCESS:    9659177  HIT:    7347158  MISS:    2312019
BTB BRANCH_CONDITIONAL	ACCESS:    4707404  HIT:    4244236  MISS:     463168
BTB BRANCH_DIRECT_CALL	ACCESS:    2624704  HIT:    2052549  MISS:     572155
BTB BRANCH_INDIRECT_CALL	ACCESS:     717742  HIT:     658053  MISS:      59689
BTB BRANCH_RETURN	ACCESS:    3350595  HIT:    2107870  MISS:    1242725
BTB BRANCH_OTHER ACCESS:          0  HIT:          0  MISS:          0

L2C TOTAL     ACCESS:    9434306  HIT:    5456675  MISS:    3977631  HIT %:    57.8386  MISS %:    42.1614   MPKI: 19.8882
L2C LOAD      ACCESS:    7065516  HIT:    3808265  MISS:    3257251  HIT %:    53.8993  MISS %:    46.1007   MPKI: 16.2863
L2C DATA LOAD MPKI: 5.07584
L2C INSTRUCTION LOAD MPKI: 11.2104
L2C RFO       ACCESS:     349499  HIT:     174668  MISS:     174831  HIT %:    49.9767  MISS %:    50.0233   MPKI: 0.874155
L2C PREFETCH  ACCESS:     424430  HIT:     147764  MISS:     276666  HIT %:    34.8147  MISS %:    65.1853   MPKI: 1.38333
AGUS PREFETCH L1 MISS: 0
L2C DATA PREFETCH MPKI: 1.38333
L2C INSTRUCTION PREFETCH MPKI: 0
L2C WRITEBACK ACCESS:    1010107  HIT:     961487  MISS:      48620  HIT %:    95.1866  MISS %:    4.81335   MPKI: 0.2431
L2C LOAD TRANSLATION ACCESS:     575935  HIT:     357323  MISS:     218612  HIT %:    62.0422  MISS %:    37.9578   MPKI: 1.09306
L2C TRANSLATION FROM L1D PREFETCHER ACCESS:       8819  HIT:       7168  MISS:       1651  HIT %:    81.2791  MISS %:    18.7209   MPKI: 0.008255
L2C PREFETCH  REQUESTED:          0  ISSUED:          0  USEFUL:      17656  USELESS:     260572
L2C USEFUL LOAD PREFETCHES:      17656 PREFETCH ISSUED TO LOWER LEVEL:     276666  ACCURACY: 6.3817
L2C TIMELY PREFETCHES:      17656 LATE PREFETCHES: 0 DROPPED PREFETCHES: 0
L2C PREFETCHES SAME FILL-ORIGIN LEVEL: 0 DIFFERENT FILL-ORIGIN LEVEL: 0
L2C AVERAGE MISS LATENCY: 40.2288 cycles
L2C RQ	ACCESS:    7999871	FORWARD:          0	MERGED:          0	TO_CACHE:    7999769
L2C WQ	ACCESS:    1010107	FORWARD:        105	MERGED:          0	TO_CACHE:    1010107
L2C PQ	ACCESS:     424433	FORWARD:          0	MERGED:          0	TO_CACHE:     424430

L2C Instructions Evicting Data 853466
L2C Translations Evicting Data 83769
L2C Data Evicting Data 559131
L2C Instructions Evicting Instructions 1264387
L2C Translations Evicting Instructions 124329
L2C Data Evicting Instructions 826256
L2C Instructions Evicting Translations 124230
L2C Translations Evicting Translations 12165
L2C Data Evicting Translations 81278
L2C Dense regions hint from L2: 0
PSCL5 TOTAL     ACCESS:     460997  HIT:     460997  MISS:          0  HIT %:        100  MISS %:          0   MPKI: 0
PSCL5 LOAD TRANSLATION ACCESS:     454044  HIT:     454044  MISS:          0  HIT %:        100  MISS %:          0   MPKI: 0
PSCL5 TRANSLATION FROM L1D PREFETCHER ACCESS:       6953  HIT:       6953  MISS:          0  HIT %:        100  MISS %:          0   MPKI: 0
PSCL5 PREFETCH  REQUESTED:          0  ISSUED:          0  USEFUL:          0  USELESS:          0
PSCL5 USEFUL LOAD PREFETCHES:          0 PREFETCH ISSUED TO LOWER LEVEL:          0  ACCURACY: -nan
PSCL5 TIMELY PREFETCHES:          0 LATE PREFETCHES: 0 DROPPED PREFETCHES: 0
PSCL5 PREFETCHES SAME FILL-ORIGIN LEVEL: 0 DIFFERENT FILL-ORIGIN LEVEL: 0

PSCL4 TOTAL     ACCESS:     423899  HIT:     422653  MISS:       1246  HIT %:    99.7061  MISS %:   0.293938   MPKI: 0.00623
PSCL4 LOAD TRANSLATION ACCESS:     418128  HIT:     416882  MISS:       1246  HIT %:     99.702  MISS %:   0.297995   MPKI: 0.00623
PSCL4 TRANSLATION FROM L1D PREFETCHER ACCESS:       5771  HIT:       5771  MISS:          0  HIT %:        100  MISS %:          0   MPKI: 0
PSCL4 PREFETCH  REQUESTED:          0  ISSUED:          0  USEFUL:          0  USELESS:          0
PSCL4 USEFUL LOAD PREFETCHES:          0 PREFETCH ISSUED TO LOWER LEVEL:          0  ACCURACY: -nan
PSCL4 TIMELY PREFETCHES:          0 LATE PREFETCHES: 0 DROPPED PREFETCHES: 0
PSCL4 PREFETCHES SAME FILL-ORIGIN LEVEL: 0 DIFFERENT FILL-ORIGIN LEVEL: 0

PSCL3 TOTAL     ACCESS:     457189  HIT:     453389  MISS:       3800  HIT %:    99.1688  MISS %:   0.831166   MPKI: 0.019
PSCL3 LOAD TRANSLATION ACCESS:     450236  HIT:     446436  MISS:       3800  HIT %:     99.156  MISS %:   0.844002   MPKI: 0.019
PSCL3 TRANSLATION FROM L1D PREFETCHER ACCESS:       6953  HIT:       6953  MISS:          0  HIT %:        100  MISS %:          0   MPKI: 0
PSCL3 PREFETCH  REQUESTED:          0  ISSUED:          0  USEFUL:          0  USELESS:          0
PSCL3 USEFUL LOAD PREFETCHES:          0 PREFETCH ISSUED TO LOWER LEVEL:          0  ACCURACY: -nan
PSCL3 TIMELY PREFETCHES:          0 LATE PREFETCHES: 0 DROPPED PREFETCHES: 0
PSCL3 PREFETCHES SAME FILL-ORIGIN LEVEL: 0 DIFFERENT FILL-ORIGIN LEVEL: 0

PSCL2 TOTAL     ACCESS:     459468  HIT:     342249  MISS:     117219  HIT %:    74.4881  MISS %:    25.5119   MPKI: 0.586095
PSCL2 LOAD TRANSLATION ACCESS:     454381  HIT:     337162  MISS:     117219  HIT %:    74.2025  MISS %:    25.7975   MPKI: 0.586095
PSCL2 TRANSLATION FROM L1D PREFETCHER ACCESS:       5087  HIT:       5087  MISS:          0  HIT %:        100  MISS %:          0   MPKI: 0
PSCL2 PREFETCH  REQUESTED:          0  ISSUED:          0  USEFUL:          0  USELESS:          0
PSCL2 USEFUL LOAD PREFETCHES:          0 PREFETCH ISSUED TO LOWER LEVEL:          0  ACCURACY: -nan
PSCL2 TIMELY PREFETCHES:          0 LATE PREFETCHES: 0 DROPPED PREFETCHES: 0
PSCL2 PREFETCHES SAME FILL-ORIGIN LEVEL: 0 DIFFERENT FILL-ORIGIN LEVEL: 0

LLC TOTAL     ACCESS:    4402158  HIT:    4132254  MISS:     269904  HIT %:    93.8688  MISS %:    6.13117   MPKI: 1.34952
LLC LOAD      ACCESS:    3257248  HIT:    3085961  MISS:     171287  HIT %:    94.7414  MISS %:    5.25864   MPKI: 0.856435
LLC RFO       ACCESS:     174831  HIT:     132070  MISS:      42761  HIT %:    75.5415  MISS %:    24.4585   MPKI: 0.213805
LLC PREFETCH  ACCESS:     276666  HIT:     226228  MISS:      50438  HIT %:    81.7694  MISS %:    18.2306   MPKI: 0.25219
AGUS PREFETCH L1 MISS: 0
LLC WRITEBACK ACCESS:     473150  HIT:     471371  MISS:       1779  HIT %:     99.624  MISS %:   0.375991   MPKI: 0.008895
LLC LOAD TRANSLATION ACCESS:     218612  HIT:     215081  MISS:       3531  HIT %:    98.3848  MISS %:    1.61519   MPKI: 0.017655
LLC TRANSLATION FROM L1D PREFETCHER ACCESS:       1651  HIT:       1543  MISS:        108  HIT %:    93.4585  MISS %:    6.54149   MPKI: 0.00054
LLC PREFETCH  REQUESTED:          0  ISSUED:          0  USEFUL:       4439  USELESS:      45415
LLC USEFUL LOAD PREFETCHES:       4439 PREFETCH ISSUED TO LOWER LEVEL:      50438  ACCURACY: 8.8009
LLC TIMELY PREFETCHES:       4439 LATE PREFETCHES: 0 DROPPED PREFETCHES: 0
LLC PREFETCHES SAME FILL-ORIGIN LEVEL: 0 DIFFERENT FILL-ORIGIN LEVEL: 0
LLC AVERAGE MISS LATENCY: 156.043 cycles
LLC RQ	ACCESS:    3652345	FORWARD:          0	MERGED:          0	TO_CACHE:    3652342
LLC WQ	ACCESS:     473150	FORWARD:          3	MERGED:          0	TO_CACHE:     473150
LLC PQ	ACCESS:     276666	FORWARD:          0	MERGED:          0	TO_CACHE:     276666

LLC Dense regions hint to LLC: 0

RAW hits: 2694571
Loads Generated: 44723989
Loads sent to L1D: 42029418
Stores Generated: 20324642
Stores sent to L1D: 20324646
Major fault: 0 Minor fault: 5919
Allocated PAGES: 5919
CPU 0 L1d next line prefetcher final stats

DRAM Statistics
 CHANNEL 0
 RQ ROW_BUFFER_HIT:      41620  ROW_BUFFER_MISS:     226504
 DBUS_CONGESTED:        119
 WQ ROW_BUFFER_HIT:      16874  ROW_BUFFER_MISS:     190009  FULL:          0

 AVG_CONGESTED_CYCLE: 4
 All warmup complete: 2
Channel 0 Bank busy for read cycles: 0
Channel 0 Bank busy for write cycles: 0
Channel 0
Rank 0
0banks busy for read cycles: 416504759
0banks busy for write cycles: 117477
1banks busy for read cycles: 20970437
1banks busy for write cycles: 14500659
2banks busy for read cycles: 4907045
2banks busy for write cycles: 4554487
3banks busy for read cycles: 902150
3banks busy for write cycles: 1268406
4banks busy for read cycles: 288099
4banks busy for write cycles: 485730
5banks busy for read cycles: 95383
5banks busy for write cycles: 263182
6banks busy for read cycles: 46806
6banks busy for write cycles: 175312
7banks busy for read cycles: 38005
7banks busy for write cycles: 171510
8banks busy for read cycles: 49366
8banks busy for write cycles: 216133

CPU 0 Branch Prediction Accuracy: 99.782% MPKI: 0.393645 Average ROB Occupancy at Mispredict: 31.7462
Branch types
NOT_BRANCH: 163878022 81.939%
BRANCH_DIRECT_JUMP: 1810341 0.90517%
BRANCH_INDIRECT: 9659177 4.82959%
BRANCH_CONDITIONAL: 17959052 8.97953%
BRANCH_DIRECT_CALL: 2624704 1.31235%
BRANCH_INDIRECT_CALL: 717742 0.358871%
BRANCH_RETURN: 3350595 1.6753%
BRANCH_OTHER: 0 0%

DRAM PAGES: 1048576
Allocated PAGES: 5919
