
*** ChampSim Multicore Out-of-Order Simulator ***

Warmup Instructions: 50000000
Simulation Instructions: 200000000
Number of CPUs: 1
LLC sets: 2048
LLC ways: 16
Off-chip DRAM Size: 4096 MB Channels: 1 Width: 64-bit Data Rate: 6400 MT/s
CPU 0 runs traces/spec2k17/server_033.champsimtrace.xz
.xz
BTB has LRU replacement policy
ITLB has LRU replacement policy
DTLB has LRU replacement policy
STLB has LRU replacement policy
L1I has LRU replacement policy
CPU 0 L2C next line prefetcher
L1D has LRU replacement policy
Initialize SRRIP state for L2C
Initialize DRRIP state for LLC
Heartbeat CPU 0 instructions: 10000003 cycles: 2817654 heartbeat IPC: 3.54905 cumulative IPC: 3.54905 (Simulation time: 0 hr 0 min 31 sec) 
Heartbeat CPU 0 instructions: 20000002 cycles: 5631726 heartbeat IPC: 3.55357 cumulative IPC: 3.55131 (Simulation time: 0 hr 1 min 2 sec) 
Heartbeat CPU 0 instructions: 30000003 cycles: 8441901 heartbeat IPC: 3.5585 cumulative IPC: 3.5537 (Simulation time: 0 hr 1 min 33 sec) 
Heartbeat CPU 0 instructions: 40000002 cycles: 11255859 heartbeat IPC: 3.55371 cumulative IPC: 3.5537 (Simulation time: 0 hr 2 min 4 sec) 
Heartbeat CPU 0 instructions: 50000002 cycles: 14069282 heartbeat IPC: 3.55439 cumulative IPC: 3.55384 (Simulation time: 0 hr 2 min 36 sec) 

Warmup complete CPU 0 instructions: 50000002 cycles: 14069282 (Simulation time: 0 hr 2 min 36 sec) 

Heartbeat CPU 0 instructions: 60000000 cycles: 40691963 heartbeat IPC: 0.37562 cumulative IPC: 0.37562 (Simulation time: 0 hr 3 min 41 sec) 
Heartbeat CPU 0 instructions: 70000000 cycles: 67085564 heartbeat IPC: 0.37888 cumulative IPC: 0.377243 (Simulation time: 0 hr 4 min 46 sec) 
Heartbeat CPU 0 instructions: 80000003 cycles: 93455016 heartbeat IPC: 0.379227 cumulative IPC: 0.377902 (Simulation time: 0 hr 5 min 52 sec) 
Heartbeat CPU 0 instructions: 90000001 cycles: 120399591 heartbeat IPC: 0.371132 cumulative IPC: 0.376186 (Simulation time: 0 hr 6 min 56 sec) 
Heartbeat CPU 0 instructions: 100000002 cycles: 146709474 heartbeat IPC: 0.380085 cumulative IPC: 0.37696 (Simulation time: 0 hr 8 min 1 sec) 
*** Reached end of trace for Core: 0 Repeating trace: traces/spec2k17/server_033.champsimtrace.xz
Heartbeat CPU 0 instructions: 110000000 cycles: 173139785 heartbeat IPC: 0.378353 cumulative IPC: 0.377191 (Simulation time: 0 hr 9 min 6 sec) 
Heartbeat CPU 0 instructions: 120000003 cycles: 199483676 heartbeat IPC: 0.379595 cumulative IPC: 0.377533 (Simulation time: 0 hr 10 min 8 sec) 
Heartbeat CPU 0 instructions: 130000000 cycles: 225803248 heartbeat IPC: 0.379945 cumulative IPC: 0.377833 (Simulation time: 0 hr 11 min 11 sec) 
Heartbeat CPU 0 instructions: 140000003 cycles: 252656603 heartbeat IPC: 0.372393 cumulative IPC: 0.37722 (Simulation time: 0 hr 12 min 14 sec) 
Heartbeat CPU 0 instructions: 150000000 cycles: 279021379 heartbeat IPC: 0.379294 cumulative IPC: 0.377427 (Simulation time: 0 hr 13 min 18 sec) 
Heartbeat CPU 0 instructions: 160000000 cycles: 305509019 heartbeat IPC: 0.377535 cumulative IPC: 0.377437 (Simulation time: 0 hr 14 min 24 sec) 
Heartbeat CPU 0 instructions: 170000001 cycles: 331886659 heartbeat IPC: 0.379109 cumulative IPC: 0.377575 (Simulation time: 0 hr 15 min 26 sec) 
Heartbeat CPU 0 instructions: 180000001 cycles: 358267502 heartbeat IPC: 0.379063 cumulative IPC: 0.377689 (Simulation time: 0 hr 16 min 29 sec) 
Heartbeat CPU 0 instructions: 190000002 cycles: 385018333 heartbeat IPC: 0.37382 cumulative IPC: 0.37741 (Simulation time: 0 hr 17 min 31 sec) 
Heartbeat CPU 0 instructions: 200000003 cycles: 411401818 heartbeat IPC: 0.379025 cumulative IPC: 0.377518 (Simulation time: 0 hr 18 min 33 sec) 
*** Reached end of trace for Core: 0 Repeating trace: traces/spec2k17/server_033.champsimtrace.xz
Heartbeat CPU 0 instructions: 210000000 cycles: 437709626 heartbeat IPC: 0.380115 cumulative IPC: 0.377679 (Simulation time: 0 hr 19 min 38 sec) 
Heartbeat CPU 0 instructions: 220000000 cycles: 464121901 heartbeat IPC: 0.378612 cumulative IPC: 0.377734 (Simulation time: 0 hr 20 min 42 sec) 
Heartbeat CPU 0 instructions: 230000001 cycles: 490427271 heartbeat IPC: 0.380151 cumulative IPC: 0.377867 (Simulation time: 0 hr 21 min 48 sec) 
Heartbeat CPU 0 instructions: 240000001 cycles: 517126016 heartbeat IPC: 0.374549 cumulative IPC: 0.377691 (Simulation time: 0 hr 22 min 54 sec) 
Heartbeat CPU 0 instructions: 250000002 cycles: 543556376 heartbeat IPC: 0.378353 cumulative IPC: 0.377724 (Simulation time: 0 hr 23 min 59 sec) 
Finished CPU 0 instructions: 200000000 cycles: 529487094 cumulative IPC: 0.377724 (Simulation time: 0 hr 23 min 59 sec) 

ChampSim completed all CPUs

Region of Interest Statistics

CPU 0 cumulative IPC: 0.377724 instructions: 200000000 cycles: 529487094
ITLB TOTAL     ACCESS:   35642435  HIT:   33616301  MISS:    2026134  HIT %:    94.3154  MISS %:    5.68461   MPKI: 10.1307
ITLB LOAD TRANSLATION ACCESS:   35642435  HIT:   33616301  MISS:    2026134  HIT %:    94.3154  MISS %:    5.68461   MPKI: 10.1307
ITLB PREFETCH  REQUESTED:          0  ISSUED:          0  USEFUL:          0  USELESS:          0
ITLB USEFUL LOAD PREFETCHES:          0 PREFETCH ISSUED TO LOWER LEVEL:          0  ACCURACY: -nan
ITLB TIMELY PREFETCHES:          0 LATE PREFETCHES: 0 DROPPED PREFETCHES: 0
ITLB PREFETCHES SAME FILL-ORIGIN LEVEL: 0 DIFFERENT FILL-ORIGIN LEVEL: 0
ITLB AVERAGE MISS LATENCY: 9.03618 cycles
ITLB RQ	ACCESS:   41305860	FORWARD:          0	MERGED:    5210177	TO_CACHE:   36095683

DTLB TOTAL     ACCESS:   39380078  HIT:   37678954  MISS:    1701124  HIT %:    95.6802  MISS %:    4.31976   MPKI: 8.50562
DTLB LOAD TRANSLATION ACCESS:   39380078  HIT:   37678954  MISS:    1701124  HIT %:    95.6802  MISS %:    4.31976   MPKI: 8.50562
DTLB PREFETCH  REQUESTED:          0  ISSUED:          0  USEFUL:          0  USELESS:          0
DTLB USEFUL LOAD PREFETCHES:          0 PREFETCH ISSUED TO LOWER LEVEL:          0  ACCURACY: -nan
DTLB TIMELY PREFETCHES:          0 LATE PREFETCHES: 0 DROPPED PREFETCHES: 0
DTLB PREFETCHES SAME FILL-ORIGIN LEVEL: 0 DIFFERENT FILL-ORIGIN LEVEL: 0
DTLB AVERAGE MISS LATENCY: 9.41008 cycles
DTLB RQ	ACCESS:   55016434	FORWARD:          0	MERGED:   15546186	TO_CACHE:   39470248

STLB TOTAL     ACCESS:    4309567  HIT:    4293073  MISS:      16494  HIT %:    99.6173  MISS %:    0.38273   MPKI: 0.08247
STLB LOAD TRANSLATION ACCESS:    3727258  HIT:    3710798  MISS:      16460  HIT %:    99.5584  MISS %:   0.441612   MPKI: 0.0823
STLB TRANSLATION FROM L1D PREFETCHER ACCESS:     582309  HIT:     582275  MISS:         34  HIT %:    99.9942  MISS %: 0.00583882   MPKI: 0.00017
STLB PREFETCH  REQUESTED:          0  ISSUED:          0  USEFUL:         31  USELESS:          3
STLB USEFUL LOAD PREFETCHES:         31 PREFETCH ISSUED TO LOWER LEVEL:          0  ACCURACY: inf
STLB TIMELY PREFETCHES:         31 LATE PREFETCHES: 0 DROPPED PREFETCHES: 155
STLB PREFETCHES SAME FILL-ORIGIN LEVEL: 0 DIFFERENT FILL-ORIGIN LEVEL: 0
STLB AVERAGE MISS LATENCY: 44.3102 cycles
STLB RQ	ACCESS:    4400380	FORWARD:          0	MERGED:      90654	TO_CACHE:    4309726

STLB Hit, L1D data hit: 0
STLB Hit, L2C data hit: 0
STLB Hit, LLC data hit: 0
STLB Hit, LLC data miss: 0
STLB STLB hints to L2: 0
L1D TOTAL     ACCESS:   54660389  HIT:   52144203  MISS:    2516186  HIT %:    95.3967  MISS %:    4.60331   MPKI: 12.5809
L1D LOAD      ACCESS:   30252968  HIT:   28170993  MISS:    2081975  HIT %:    93.1181  MISS %:    6.88189   MPKI: 10.4099
L1D RFO       ACCESS:   24320378  HIT:   23935163  MISS:     385215  HIT %:    98.4161  MISS %:    1.58392   MPKI: 1.92607
L1D PREFETCH  ACCESS:      87043  HIT:      38047  MISS:      48996  HIT %:    43.7106  MISS %:    56.2894   MPKI: 0.24498
AGUS PREFETCH L1 MISS: 0
L1D PREFETCH  REQUESTED:    1352809  ISSUED:    1352809  USEFUL:      14068  USELESS:      34928
L1D USEFUL LOAD PREFETCHES:      14068 PREFETCH ISSUED TO LOWER LEVEL:      49676  ACCURACY: 28.3195
L1D TIMELY PREFETCHES:      14068 LATE PREFETCHES: 512 DROPPED PREFETCHES: 157
L1D PREFETCHES SAME FILL-ORIGIN LEVEL: 49676 DIFFERENT FILL-ORIGIN LEVEL: 0
L1D AVERAGE MISS LATENCY: 70109.4 cycles
L1D RQ	ACCESS:   43359935	FORWARD:          0	MERGED:   12700622	TO_CACHE:   30317081
L1D WQ	ACCESS:   24964815	FORWARD:     342483	MERGED:     265462	TO_CACHE:   24699353
L1D PQ	ACCESS:     679687	FORWARD:          0	MERGED:       6314	TO_CACHE:     673122

L1D UNIQUE REGIONS ACCESSED: 0
L1D REGIONS CONFLICTS: 0
L1D Cross Page Prefetch Requests: 1710
L1D Same Page Prefetch Requests: 855237
L1D ROI Sum of L1D PQ occupancy: 8643554
L1D PREFETCHES PUSHED FROM L2C: 0
L1I TOTAL     ACCESS:   38698532  HIT:   26117278  MISS:   12581254  HIT %:    67.4891  MISS %:    32.5109   MPKI: 62.9063
L1I LOAD      ACCESS:   38698532  HIT:   26117278  MISS:   12581254  HIT %:    67.4891  MISS %:    32.5109   MPKI: 62.9063
L1I PREFETCH  REQUESTED:          0  ISSUED:          0  USEFUL:          0  USELESS:          0
L1I USEFUL LOAD PREFETCHES:          0 PREFETCH ISSUED TO LOWER LEVEL:          0  ACCURACY: -nan
L1I TIMELY PREFETCHES:          0 LATE PREFETCHES: 0 DROPPED PREFETCHES: 0
L1I PREFETCHES SAME FILL-ORIGIN LEVEL: 0 DIFFERENT FILL-ORIGIN LEVEL: 0
L1I AVERAGE MISS LATENCY: 14.5083 cycles
L1I RQ	ACCESS:   61068221	FORWARD:          0	MERGED:   19762361	TO_CACHE:   41305860

BTB TOTAL     ACCESS:   31223673  HIT:   22864778  MISS:    8358895  HIT %:     73.229  MISS %:     26.771   MPKI: 41.7945
BTB BRANCH_DIRECT_JUMP	ACCESS:    2956567  HIT:    2328967  MISS:     627600
BTB BRANCH_INDIRECT	ACCESS:   13061005  HIT:    9489306  MISS:    3571699
BTB BRANCH_CONDITIONAL	ACCESS:    5589874  HIT:    4924920  MISS:     664954
BTB BRANCH_DIRECT_CALL	ACCESS:    4001540  HIT:    3045075  MISS:     956465
BTB BRANCH_INDIRECT_CALL	ACCESS:     806569  HIT:     470352  MISS:     336217
BTB BRANCH_RETURN	ACCESS:    4808118  HIT:    2606158  MISS:    2201960
BTB BRANCH_OTHER ACCESS:          0  HIT:          0  MISS:          0

L2C TOTAL     ACCESS:   16052313  HIT:   15187834  MISS:     864479  HIT %:    94.6146  MISS %:    5.38539   MPKI: 4.3224
L2C LOAD      ACCESS:   14662703  HIT:   13943154  MISS:     719549  HIT %:    95.0927  MISS %:    4.90734   MPKI: 3.59775
L2C DATA LOAD MPKI: 2.73278
L2C INSTRUCTION LOAD MPKI: 0.864965
L2C RFO       ACCESS:     385035  HIT:     290730  MISS:      94305  HIT %:    75.5074  MISS %:    24.4926   MPKI: 0.471525
L2C PREFETCH  ACCESS:      49676  HIT:      28546  MISS:      21130  HIT %:    57.4644  MISS %:    42.5356   MPKI: 0.10565
AGUS PREFETCH L1 MISS: 0
L2C DATA PREFETCH MPKI: 0.10565
L2C INSTRUCTION PREFETCH MPKI: 0
L2C WRITEBACK ACCESS:     936167  HIT:     916336  MISS:      19831  HIT %:    97.8817  MISS %:    2.11832   MPKI: 0.099155
L2C LOAD TRANSLATION ACCESS:      18414  HIT:       8800  MISS:       9614  HIT %:    47.7897  MISS %:    52.2103   MPKI: 0.04807
L2C TRANSLATION FROM L1D PREFETCHER ACCESS:        318  HIT:        268  MISS:         50  HIT %:    84.2767  MISS %:    15.7233   MPKI: 0.00025
L2C PREFETCH  REQUESTED:          0  ISSUED:          0  USEFUL:       2187  USELESS:      19255
L2C USEFUL LOAD PREFETCHES:       2187 PREFETCH ISSUED TO LOWER LEVEL:      21130  ACCURACY: 10.3502
L2C TIMELY PREFETCHES:       2187 LATE PREFETCHES: 0 DROPPED PREFETCHES: 0
L2C PREFETCHES SAME FILL-ORIGIN LEVEL: 0 DIFFERENT FILL-ORIGIN LEVEL: 0
L2C AVERAGE MISS LATENCY: 43.8428 cycles
L2C RQ	ACCESS:   15066496	FORWARD:          0	MERGED:          0	TO_CACHE:   15066470
L2C WQ	ACCESS:     936167	FORWARD:         26	MERGED:          0	TO_CACHE:     936167
L2C PQ	ACCESS:      49676	FORWARD:          0	MERGED:          0	TO_CACHE:      49676

L2C Instructions Evicting Data 56165
L2C Translations Evicting Data 8728
L2C Data Evicting Data 602506
L2C Instructions Evicting Instructions 116090
L2C Translations Evicting Instructions 809
L2C Data Evicting Instructions 50867
L2C Instructions Evicting Translations 738
L2C Translations Evicting Translations 127
L2C Data Evicting Translations 8618
L2C Dense regions hint from L2: 0
PSCL5 TOTAL     ACCESS:      16649  HIT:      16649  MISS:          0  HIT %:        100  MISS %:          0   MPKI: 0
PSCL5 LOAD TRANSLATION ACCESS:      16460  HIT:      16460  MISS:          0  HIT %:        100  MISS %:          0   MPKI: 0
PSCL5 TRANSLATION FROM L1D PREFETCHER ACCESS:        189  HIT:        189  MISS:          0  HIT %:        100  MISS %:          0   MPKI: 0
PSCL5 PREFETCH  REQUESTED:          0  ISSUED:          0  USEFUL:          0  USELESS:          0
PSCL5 USEFUL LOAD PREFETCHES:          0 PREFETCH ISSUED TO LOWER LEVEL:          0  ACCURACY: -nan
PSCL5 TIMELY PREFETCHES:          0 LATE PREFETCHES: 0 DROPPED PREFETCHES: 0
PSCL5 PREFETCHES SAME FILL-ORIGIN LEVEL: 0 DIFFERENT FILL-ORIGIN LEVEL: 0

PSCL4 TOTAL     ACCESS:      16473  HIT:      16443  MISS:         30  HIT %:    99.8179  MISS %:   0.182116   MPKI: 0.00015
PSCL4 LOAD TRANSLATION ACCESS:      16284  HIT:      16254  MISS:         30  HIT %:    99.8158  MISS %:    0.18423   MPKI: 0.00015
PSCL4 TRANSLATION FROM L1D PREFETCHER ACCESS:        189  HIT:        189  MISS:          0  HIT %:        100  MISS %:          0   MPKI: 0
PSCL4 PREFETCH  REQUESTED:          0  ISSUED:          0  USEFUL:          0  USELESS:          0
PSCL4 USEFUL LOAD PREFETCHES:          0 PREFETCH ISSUED TO LOWER LEVEL:          0  ACCURACY: -nan
PSCL4 TIMELY PREFETCHES:          0 LATE PREFETCHES: 0 DROPPED PREFETCHES: 0
PSCL4 PREFETCHES SAME FILL-ORIGIN LEVEL: 0 DIFFERENT FILL-ORIGIN LEVEL: 0

PSCL3 TOTAL     ACCESS:      16583  HIT:      16553  MISS:         30  HIT %:    99.8191  MISS %:   0.180908   MPKI: 0.00015
PSCL3 LOAD TRANSLATION ACCESS:      16394  HIT:      16364  MISS:         30  HIT %:     99.817  MISS %:   0.182994   MPKI: 0.00015
PSCL3 TRANSLATION FROM L1D PREFETCHER ACCESS:        189  HIT:        189  MISS:          0  HIT %:        100  MISS %:          0   MPKI: 0
PSCL3 PREFETCH  REQUESTED:          0  ISSUED:          0  USEFUL:          0  USELESS:          0
PSCL3 USEFUL LOAD PREFETCHES:          0 PREFETCH ISSUED TO LOWER LEVEL:          0  ACCURACY: -nan
PSCL3 TIMELY PREFETCHES:          0 LATE PREFETCHES: 0 DROPPED PREFETCHES: 0
PSCL3 PREFETCHES SAME FILL-ORIGIN LEVEL: 0 DIFFERENT FILL-ORIGIN LEVEL: 0

PSCL2 TOTAL     ACCESS:      16523  HIT:      14626  MISS:       1897  HIT %:     88.519  MISS %:     11.481   MPKI: 0.009485
PSCL2 LOAD TRANSLATION ACCESS:      16463  HIT:      14566  MISS:       1897  HIT %:    88.4772  MISS %:    11.5228   MPKI: 0.009485
PSCL2 TRANSLATION FROM L1D PREFETCHER ACCESS:         60  HIT:         60  MISS:          0  HIT %:        100  MISS %:          0   MPKI: 0
PSCL2 PREFETCH  REQUESTED:          0  ISSUED:          0  USEFUL:          0  USELESS:          0
PSCL2 USEFUL LOAD PREFETCHES:          0 PREFETCH ISSUED TO LOWER LEVEL:          0  ACCURACY: -nan
PSCL2 TIMELY PREFETCHES:          0 LATE PREFETCHES: 0 DROPPED PREFETCHES: 0
PSCL2 PREFETCHES SAME FILL-ORIGIN LEVEL: 0 DIFFERENT FILL-ORIGIN LEVEL: 0

LLC TOTAL     ACCESS:    1192532  HIT:    1114546  MISS:      77986  HIT %:    93.4605  MISS %:    6.53953   MPKI: 0.38993
LLC LOAD      ACCESS:     719549  HIT:     667907  MISS:      51642  HIT %:     92.823  MISS %:      7.177   MPKI: 0.25821
LLC RFO       ACCESS:      94305  HIT:      75751  MISS:      18554  HIT %:    80.3255  MISS %:    19.6745   MPKI: 0.09277
LLC PREFETCH  ACCESS:      21130  HIT:      14854  MISS:       6276  HIT %:    70.2982  MISS %:    29.7018   MPKI: 0.03138
AGUS PREFETCH L1 MISS: 0
LLC WRITEBACK ACCESS:     347884  HIT:     346866  MISS:       1018  HIT %:    99.7074  MISS %:   0.292626   MPKI: 0.00509
LLC LOAD TRANSLATION ACCESS:       9614  HIT:       9133  MISS:        481  HIT %:    94.9969  MISS %:    5.00312   MPKI: 0.002405
LLC TRANSLATION FROM L1D PREFETCHER ACCESS:         50  HIT:         35  MISS:         15  HIT %:         70  MISS %:         30   MPKI: 7.5e-05
LLC PREFETCH  REQUESTED:          0  ISSUED:          0  USEFUL:       1878  USELESS:       4357
LLC USEFUL LOAD PREFETCHES:       1878 PREFETCH ISSUED TO LOWER LEVEL:       6276  ACCURACY: 29.9235
LLC TIMELY PREFETCHES:       1878 LATE PREFETCHES: 0 DROPPED PREFETCHES: 0
LLC PREFETCHES SAME FILL-ORIGIN LEVEL: 0 DIFFERENT FILL-ORIGIN LEVEL: 0
LLC AVERAGE MISS LATENCY: 161.038 cycles
LLC RQ	ACCESS:     823518	FORWARD:          0	MERGED:          0	TO_CACHE:     823518
LLC WQ	ACCESS:     347884	FORWARD:          0	MERGED:          0	TO_CACHE:     347884
LLC PQ	ACCESS:      21130	FORWARD:          0	MERGED:          0	TO_CACHE:      21130

LLC Dense regions hint to LLC: 0

RAW hits: 2731003
Loads Generated: 46090938
Loads sent to L1D: 43359935
Stores Generated: 24964796
Stores sent to L1D: 24964815
Major fault: 0 Minor fault: 2572
Allocated PAGES: 2572
CPU 0 L1d next line prefetcher final stats

DRAM Statistics
 CHANNEL 0
 RQ ROW_BUFFER_HIT:       7510  ROW_BUFFER_MISS:      69455
 DBUS_CONGESTED:         10
 WQ ROW_BUFFER_HIT:       6586  ROW_BUFFER_MISS:      45051  FULL:          0

 AVG_CONGESTED_CYCLE: 3
 All warmup complete: 2
Channel 0 Bank busy for read cycles: 0
Channel 0 Bank busy for write cycles: 0
Channel 0
Rank 0
0banks busy for read cycles: 514214768
0banks busy for write cycles: 33187
1banks busy for read cycles: 7359711
1banks busy for write cycles: 4729512
2banks busy for read cycles: 1167295
2banks busy for write cycles: 1091116
3banks busy for read cycles: 276476
3banks busy for write cycles: 361511
4banks busy for read cycles: 27788
4banks busy for write cycles: 112789
5banks busy for read cycles: 9063
5banks busy for write cycles: 27693
6banks busy for read cycles: 7878
6banks busy for write cycles: 19950
7banks busy for read cycles: 6795
7banks busy for write cycles: 20807
8banks busy for read cycles: 2757
8banks busy for write cycles: 17999

CPU 0 Branch Prediction Accuracy: 99.9377% MPKI: 0.11637 Average ROB Occupancy at Mispredict: 19.5415
Branch types
NOT_BRANCH: 162664071 81.332%
BRANCH_DIRECT_JUMP: 2956567 1.47828%
BRANCH_INDIRECT: 13061005 6.5305%
BRANCH_CONDITIONAL: 11702075 5.85104%
BRANCH_DIRECT_CALL: 4001540 2.00077%
BRANCH_INDIRECT_CALL: 806569 0.403284%
BRANCH_RETURN: 4808118 2.40406%
BRANCH_OTHER: 0 0%

DRAM PAGES: 1048576
Allocated PAGES: 2572
