
*** ChampSim Multicore Out-of-Order Simulator ***

Warmup Instructions: 50000000
Simulation Instructions: 200000000
Number of CPUs: 1
LLC sets: 2048
LLC ways: 16
Off-chip DRAM Size: 4096 MB Channels: 1 Width: 64-bit Data Rate: 6400 MT/s
CPU 0 runs traces/spec2k17/server_017.champsimtrace.xz
.xz
BTB has LRU replacement policy
ITLB has LRU replacement policy
DTLB has LRU replacement policy
STLB has LRU replacement policy
L1I has LRU replacement policy
CPU 0 L2C next line prefetcher
L1D has LRU replacement policy
Initialize SRRIP state for L2C
Initialize DRRIP state for LLC
Heartbeat CPU 0 instructions: 10000000 cycles: 2938791 heartbeat IPC: 3.40276 cumulative IPC: 3.40276 (Simulation time: 0 hr 0 min 45 sec) 
Heartbeat CPU 0 instructions: 20000000 cycles: 5876337 heartbeat IPC: 3.4042 cumulative IPC: 3.40348 (Simulation time: 0 hr 1 min 30 sec) 
Heartbeat CPU 0 instructions: 30000003 cycles: 8813562 heartbeat IPC: 3.40458 cumulative IPC: 3.40385 (Simulation time: 0 hr 2 min 16 sec) 
Heartbeat CPU 0 instructions: 40000003 cycles: 11750557 heartbeat IPC: 3.40484 cumulative IPC: 3.40409 (Simulation time: 0 hr 3 min 1 sec) 
Heartbeat CPU 0 instructions: 50000000 cycles: 14688751 heartbeat IPC: 3.40345 cumulative IPC: 3.40397 (Simulation time: 0 hr 3 min 47 sec) 

Warmup complete CPU 0 instructions: 50000004 cycles: 14688752 (Simulation time: 0 hr 3 min 47 sec) 

Heartbeat CPU 0 instructions: 60000003 cycles: 35599595 heartbeat IPC: 0.478221 cumulative IPC: 0.478221 (Simulation time: 0 hr 5 min 9 sec) 
Heartbeat CPU 0 instructions: 70000001 cycles: 56390085 heartbeat IPC: 0.480989 cumulative IPC: 0.479601 (Simulation time: 0 hr 6 min 29 sec) 
Heartbeat CPU 0 instructions: 80000003 cycles: 77133080 heartbeat IPC: 0.482091 cumulative IPC: 0.480428 (Simulation time: 0 hr 7 min 53 sec) 
Heartbeat CPU 0 instructions: 90000002 cycles: 97844076 heartbeat IPC: 0.482835 cumulative IPC: 0.481028 (Simulation time: 0 hr 9 min 9 sec) 
Heartbeat CPU 0 instructions: 100000002 cycles: 129694024 heartbeat IPC: 0.313972 cumulative IPC: 0.434763 (Simulation time: 0 hr 10 min 39 sec) 
*** Reached end of trace for Core: 0 Repeating trace: traces/spec2k17/server_017.champsimtrace.xz
Heartbeat CPU 0 instructions: 110000000 cycles: 153234653 heartbeat IPC: 0.424797 cumulative IPC: 0.433069 (Simulation time: 0 hr 12 min 2 sec) 
Heartbeat CPU 0 instructions: 120000002 cycles: 175407468 heartbeat IPC: 0.451003 cumulative IPC: 0.435544 (Simulation time: 0 hr 13 min 26 sec) 
Heartbeat CPU 0 instructions: 130000002 cycles: 196973540 heartbeat IPC: 0.463691 cumulative IPC: 0.438874 (Simulation time: 0 hr 14 min 50 sec) 
Heartbeat CPU 0 instructions: 140000002 cycles: 218202171 heartbeat IPC: 0.471062 cumulative IPC: 0.442231 (Simulation time: 0 hr 16 min 13 sec) 
Heartbeat CPU 0 instructions: 150000003 cycles: 239178726 heartbeat IPC: 0.476723 cumulative IPC: 0.445454 (Simulation time: 0 hr 17 min 35 sec) 
Heartbeat CPU 0 instructions: 160000003 cycles: 260131051 heartbeat IPC: 0.477274 cumulative IPC: 0.448171 (Simulation time: 0 hr 18 min 57 sec) 
Heartbeat CPU 0 instructions: 170000000 cycles: 280934056 heartbeat IPC: 0.4807 cumulative IPC: 0.450712 (Simulation time: 0 hr 20 min 18 sec) 
Heartbeat CPU 0 instructions: 180000001 cycles: 301814121 heartbeat IPC: 0.478926 cumulative IPC: 0.452764 (Simulation time: 0 hr 21 min 41 sec) 
Heartbeat CPU 0 instructions: 190000000 cycles: 322606283 heartbeat IPC: 0.48095 cumulative IPC: 0.454667 (Simulation time: 0 hr 23 min 1 sec) 
Heartbeat CPU 0 instructions: 200000003 cycles: 343275075 heartbeat IPC: 0.483821 cumulative IPC: 0.456501 (Simulation time: 0 hr 24 min 24 sec) 
Heartbeat CPU 0 instructions: 210000001 cycles: 375888890 heartbeat IPC: 0.306618 cumulative IPC: 0.442968 (Simulation time: 0 hr 25 min 55 sec) 
*** Reached end of trace for Core: 0 Repeating trace: traces/spec2k17/server_017.champsimtrace.xz
Heartbeat CPU 0 instructions: 220000000 cycles: 398610205 heartbeat IPC: 0.440115 cumulative IPC: 0.442799 (Simulation time: 0 hr 27 min 21 sec) 
Heartbeat CPU 0 instructions: 230000000 cycles: 420384125 heartbeat IPC: 0.459265 cumulative IPC: 0.443683 (Simulation time: 0 hr 28 min 45 sec) 
Heartbeat CPU 0 instructions: 240000001 cycles: 441700636 heartbeat IPC: 0.46912 cumulative IPC: 0.444952 (Simulation time: 0 hr 30 min 5 sec) 
Heartbeat CPU 0 instructions: 250000003 cycles: 462757197 heartbeat IPC: 0.474911 cumulative IPC: 0.44636 (Simulation time: 0 hr 31 min 29 sec) 
Finished CPU 0 instructions: 200000001 cycles: 448068446 cumulative IPC: 0.44636 (Simulation time: 0 hr 31 min 29 sec) 

ChampSim completed all CPUs

Region of Interest Statistics

CPU 0 cumulative IPC: 0.44636 instructions: 200000001 cycles: 448068446
ITLB TOTAL     ACCESS:   33595391  HIT:   32176730  MISS:    1418661  HIT %:    95.7772  MISS %:    4.22278   MPKI: 7.0933
ITLB LOAD TRANSLATION ACCESS:   33595391  HIT:   32176730  MISS:    1418661  HIT %:    95.7772  MISS %:    4.22278   MPKI: 7.0933
ITLB PREFETCH  REQUESTED:          0  ISSUED:          0  USEFUL:          0  USELESS:          0
ITLB USEFUL LOAD PREFETCHES:          0 PREFETCH ISSUED TO LOWER LEVEL:          0  ACCURACY: -nan
ITLB TIMELY PREFETCHES:          0 LATE PREFETCHES: 0 DROPPED PREFETCHES: 0
ITLB PREFETCHES SAME FILL-ORIGIN LEVEL: 0 DIFFERENT FILL-ORIGIN LEVEL: 0
ITLB AVERAGE MISS LATENCY: 9.53872 cycles
ITLB RQ	ACCESS:   40232488	FORWARD:          0	MERGED:    6179771	TO_CACHE:   34052717

DTLB TOTAL     ACCESS:   38857971  HIT:   37236092  MISS:    1621879  HIT %:    95.8261  MISS %:    4.17386   MPKI: 8.10939
DTLB LOAD TRANSLATION ACCESS:   38857971  HIT:   37236092  MISS:    1621879  HIT %:    95.8261  MISS %:    4.17386   MPKI: 8.10939
DTLB PREFETCH  REQUESTED:          0  ISSUED:          0  USEFUL:          0  USELESS:          0
DTLB USEFUL LOAD PREFETCHES:          0 PREFETCH ISSUED TO LOWER LEVEL:          0  ACCURACY: -nan
DTLB TIMELY PREFETCHES:          0 LATE PREFETCHES: 0 DROPPED PREFETCHES: 0
DTLB PREFETCHES SAME FILL-ORIGIN LEVEL: 0 DIFFERENT FILL-ORIGIN LEVEL: 0
DTLB AVERAGE MISS LATENCY: 22.04 cycles
DTLB RQ	ACCESS:   58741542	FORWARD:          0	MERGED:   19499865	TO_CACHE:   39241677

STLB TOTAL     ACCESS:    4376601  HIT:    4180853  MISS:     195748  HIT %:    95.5274  MISS %:     4.4726   MPKI: 0.97874
STLB LOAD TRANSLATION ACCESS:    3040540  HIT:    2849527  MISS:     191013  HIT %:    93.7178  MISS %:    6.28221   MPKI: 0.955065
STLB TRANSLATION FROM L1D PREFETCHER ACCESS:    1336061  HIT:    1331326  MISS:       4735  HIT %:    99.6456  MISS %:     0.3544   MPKI: 0.023675
STLB PREFETCH  REQUESTED:          0  ISSUED:          0  USEFUL:       3708  USELESS:       1032
STLB USEFUL LOAD PREFETCHES:       3708 PREFETCH ISSUED TO LOWER LEVEL:          0  ACCURACY: inf
STLB TIMELY PREFETCHES:       3708 LATE PREFETCHES: 1085 DROPPED PREFETCHES: 2073
STLB PREFETCHES SAME FILL-ORIGIN LEVEL: 0 DIFFERENT FILL-ORIGIN LEVEL: 0
STLB AVERAGE MISS LATENCY: 404214 cycles
STLB RQ	ACCESS:    4849943	FORWARD:          0	MERGED:     468328	TO_CACHE:    4381615

STLB Hit, L1D data hit: 0
STLB Hit, L2C data hit: 0
STLB Hit, LLC data hit: 0
STLB Hit, LLC data miss: 0
STLB STLB hints to L2: 0
L1D TOTAL     ACCESS:   48513939  HIT:   41474773  MISS:    7039166  HIT %:    85.4904  MISS %:    14.5096   MPKI: 35.1958
L1D LOAD      ACCESS:   26126372  HIT:   23229811  MISS:    2896561  HIT %:    88.9133  MISS %:    11.0867   MPKI: 14.4828
L1D RFO       ACCESS:   21503764  HIT:   18100223  MISS:    3403541  HIT %:    84.1723  MISS %:    15.8277   MPKI: 17.0177
L1D PREFETCH  ACCESS:     883803  HIT:     144739  MISS:     739064  HIT %:    16.3768  MISS %:    83.6232   MPKI: 3.69532
AGUS PREFETCH L1 MISS: 0
L1D PREFETCH  REQUESTED:    3740370  ISSUED:    3740066  USEFUL:     320410  USELESS:     418655
L1D USEFUL LOAD PREFETCHES:     320410 PREFETCH ISSUED TO LOWER LEVEL:    1103753  ACCURACY: 29.0291
L1D TIMELY PREFETCHES:     320410 LATE PREFETCHES: 362826 DROPPED PREFETCHES: 2923
L1D PREFETCHES SAME FILL-ORIGIN LEVEL: 1103753 DIFFERENT FILL-ORIGIN LEVEL: 0
L1D AVERAGE MISS LATENCY: 1.2282e+07 cycles
L1D RQ	ACCESS:   44394789	FORWARD:          0	MERGED:   17669813	TO_CACHE:   26478690
L1D WQ	ACCESS:   32470855	FORWARD:     246329	MERGED:     208003	TO_CACHE:   32262852
L1D PQ	ACCESS:    1930663	FORWARD:          0	MERGED:     121217	TO_CACHE:    1809403

L1D UNIQUE REGIONS ACCESSED: 0
L1D REGIONS CONFLICTS: 0
L1D Cross Page Prefetch Requests: 68445
L1D Same Page Prefetch Requests: 2241552
L1D ROI Sum of L1D PQ occupancy: 25707769
L1D PREFETCHES PUSHED FROM L2C: 0
L1I TOTAL     ACCESS:   37755797  HIT:   29293082  MISS:    8462715  HIT %:    77.5857  MISS %:    22.4143   MPKI: 42.3136
L1I LOAD      ACCESS:   37755797  HIT:   29293082  MISS:    8462715  HIT %:    77.5857  MISS %:    22.4143   MPKI: 42.3136
L1I PREFETCH  REQUESTED:          0  ISSUED:          0  USEFUL:          0  USELESS:          0
L1I USEFUL LOAD PREFETCHES:          0 PREFETCH ISSUED TO LOWER LEVEL:          0  ACCURACY: -nan
L1I TIMELY PREFETCHES:          0 LATE PREFETCHES: 0 DROPPED PREFETCHES: 0
L1I PREFETCHES SAME FILL-ORIGIN LEVEL: 0 DIFFERENT FILL-ORIGIN LEVEL: 0
L1I AVERAGE MISS LATENCY: 17.7299 cycles
L1I RQ	ACCESS:   58466957	FORWARD:          0	MERGED:   18234469	TO_CACHE:   40232488

BTB TOTAL     ACCESS:   25752481  HIT:   24097822  MISS:    1654659  HIT %:    93.5748  MISS %:    6.42524   MPKI: 8.27329
BTB BRANCH_DIRECT_JUMP	ACCESS:    1719252  HIT:    1709782  MISS:       9470
BTB BRANCH_INDIRECT	ACCESS:    9847536  HIT:    9196489  MISS:     651047
BTB BRANCH_CONDITIONAL	ACCESS:    7525905  HIT:    7512901  MISS:      13004
BTB BRANCH_DIRECT_CALL	ACCESS:    2636580  HIT:    2604766  MISS:      31814
BTB BRANCH_INDIRECT_CALL	ACCESS:     693283  HIT:     590648  MISS:     102635
BTB BRANCH_RETURN	ACCESS:    3329925  HIT:    2483236  MISS:     846689
BTB BRANCH_OTHER ACCESS:          0  HIT:          0  MISS:          0

L2C TOTAL     ACCESS:   19990098  HIT:   13129259  MISS:    6860839  HIT %:    65.6788  MISS %:    34.3212   MPKI: 34.3042
L2C LOAD      ACCESS:   10996229  HIT:    8573330  MISS:    2422899  HIT %:    77.9661  MISS %:    22.0339   MPKI: 12.1145
L2C DATA LOAD MPKI: 9.36867
L2C INSTRUCTION LOAD MPKI: 2.74582
L2C RFO       ACCESS:    3401668  HIT:     136202  MISS:    3265466  HIT %:    4.00398  MISS %:     95.996   MPKI: 16.3273
L2C PREFETCH  ACCESS:    1103752  HIT:     186858  MISS:     916894  HIT %:    16.9293  MISS %:    83.0707   MPKI: 4.58447
AGUS PREFETCH L1 MISS: 0
L2C DATA PREFETCH MPKI: 4.58447
L2C INSTRUCTION PREFETCH MPKI: 0
L2C WRITEBACK ACCESS:    4216347  HIT:    4080548  MISS:     135799  HIT %:    96.7792  MISS %:    3.22077   MPKI: 0.678995
L2C LOAD TRANSLATION ACCESS:     262778  HIT:     145250  MISS:     117528  HIT %:    55.2748  MISS %:    44.7252   MPKI: 0.58764
L2C TRANSLATION FROM L1D PREFETCHER ACCESS:       9324  HIT:       7071  MISS:       2253  HIT %:    75.8366  MISS %:    24.1634   MPKI: 0.011265
L2C PREFETCH  REQUESTED:          0  ISSUED:          0  USEFUL:      30588  USELESS:     888360
L2C USEFUL LOAD PREFETCHES:      30588 PREFETCH ISSUED TO LOWER LEVEL:     916894  ACCURACY: 3.33605
L2C TIMELY PREFETCHES:      30588 LATE PREFETCHES: 0 DROPPED PREFETCHES: 0
L2C PREFETCHES SAME FILL-ORIGIN LEVEL: 0 DIFFERENT FILL-ORIGIN LEVEL: 0
L2C AVERAGE MISS LATENCY: 161.437 cycles
L2C RQ	ACCESS:   14670230	FORWARD:          0	MERGED:          0	TO_CACHE:   14669999
L2C WQ	ACCESS:    4216347	FORWARD:        232	MERGED:          0	TO_CACHE:    4216347
L2C PQ	ACCESS:    1103753	FORWARD:          0	MERGED:          0	TO_CACHE:    1103752

L2C Instructions Evicting Data 492715
L2C Translations Evicting Data 106834
L2C Data Evicting Data 5469810
L2C Instructions Evicting Instructions 45783
L2C Translations Evicting Instructions 11218
L2C Data Evicting Instructions 480748
L2C Instructions Evicting Translations 10667
L2C Translations Evicting Translations 1729
L2C Data Evicting Translations 105536
L2C Dense regions hint from L2: 0
PSCL5 TOTAL     ACCESS:     197822  HIT:     197822  MISS:          0  HIT %:        100  MISS %:          0   MPKI: 0
PSCL5 LOAD TRANSLATION ACCESS:     189929  HIT:     189929  MISS:          0  HIT %:        100  MISS %:          0   MPKI: 0
PSCL5 TRANSLATION FROM L1D PREFETCHER ACCESS:       7893  HIT:       7893  MISS:          0  HIT %:        100  MISS %:          0   MPKI: 0
PSCL5 PREFETCH  REQUESTED:          0  ISSUED:          0  USEFUL:          0  USELESS:          0
PSCL5 USEFUL LOAD PREFETCHES:          0 PREFETCH ISSUED TO LOWER LEVEL:          0  ACCURACY: -nan
PSCL5 TIMELY PREFETCHES:          0 LATE PREFETCHES: 0 DROPPED PREFETCHES: 0
PSCL5 PREFETCHES SAME FILL-ORIGIN LEVEL: 0 DIFFERENT FILL-ORIGIN LEVEL: 0

PSCL4 TOTAL     ACCESS:     140190  HIT:     139717  MISS:        473  HIT %:    99.6626  MISS %:   0.337399   MPKI: 0.002365
PSCL4 LOAD TRANSLATION ACCESS:     132919  HIT:     132446  MISS:        473  HIT %:    99.6441  MISS %:   0.355856   MPKI: 0.002365
PSCL4 TRANSLATION FROM L1D PREFETCHER ACCESS:       7271  HIT:       7271  MISS:          0  HIT %:        100  MISS %:          0   MPKI: 0
PSCL4 PREFETCH  REQUESTED:          0  ISSUED:          0  USEFUL:          0  USELESS:          0
PSCL4 USEFUL LOAD PREFETCHES:          0 PREFETCH ISSUED TO LOWER LEVEL:          0  ACCURACY: -nan
PSCL4 TIMELY PREFETCHES:          0 LATE PREFETCHES: 0 DROPPED PREFETCHES: 0
PSCL4 PREFETCHES SAME FILL-ORIGIN LEVEL: 0 DIFFERENT FILL-ORIGIN LEVEL: 0

PSCL3 TOTAL     ACCESS:     196574  HIT:     194634  MISS:       1940  HIT %:    99.0131  MISS %:   0.986906   MPKI: 0.0097
PSCL3 LOAD TRANSLATION ACCESS:     188738  HIT:     186798  MISS:       1940  HIT %:    98.9721  MISS %:    1.02788   MPKI: 0.0097
PSCL3 TRANSLATION FROM L1D PREFETCHER ACCESS:       7836  HIT:       7836  MISS:          0  HIT %:        100  MISS %:          0   MPKI: 0
PSCL3 PREFETCH  REQUESTED:          0  ISSUED:          0  USEFUL:          0  USELESS:          0
PSCL3 USEFUL LOAD PREFETCHES:          0 PREFETCH ISSUED TO LOWER LEVEL:          0  ACCURACY: -nan
PSCL3 TIMELY PREFETCHES:          0 LATE PREFETCHES: 0 DROPPED PREFETCHES: 0
PSCL3 PREFETCHES SAME FILL-ORIGIN LEVEL: 0 DIFFERENT FILL-ORIGIN LEVEL: 0

PSCL2 TOTAL     ACCESS:     196791  HIT:     125916  MISS:      70875  HIT %:    63.9846  MISS %:    36.0154   MPKI: 0.354375
PSCL2 LOAD TRANSLATION ACCESS:     190327  HIT:     119452  MISS:      70875  HIT %:    62.7615  MISS %:    37.2385   MPKI: 0.354375
PSCL2 TRANSLATION FROM L1D PREFETCHER ACCESS:       6464  HIT:       6464  MISS:          0  HIT %:        100  MISS %:          0   MPKI: 0
PSCL2 PREFETCH  REQUESTED:          0  ISSUED:          0  USEFUL:          0  USELESS:          0
PSCL2 USEFUL LOAD PREFETCHES:          0 PREFETCH ISSUED TO LOWER LEVEL:          0  ACCURACY: -nan
PSCL2 TIMELY PREFETCHES:          0 LATE PREFETCHES: 0 DROPPED PREFETCHES: 0
PSCL2 PREFETCHES SAME FILL-ORIGIN LEVEL: 0 DIFFERENT FILL-ORIGIN LEVEL: 0

LLC TOTAL     ACCESS:   10654562  HIT:    3879136  MISS:    6775426  HIT %:    36.4082  MISS %:    63.5918   MPKI: 33.8771
LLC LOAD      ACCESS:    2422898  HIT:    1293372  MISS:    1129526  HIT %:    53.3812  MISS %:    46.6188   MPKI: 5.64763
LLC RFO       ACCESS:    3265445  HIT:     874646  MISS:    2390799  HIT %:    26.7849  MISS %:    73.2151   MPKI: 11.954
LLC PREFETCH  ACCESS:     916894  HIT:     245661  MISS:     671233  HIT %:    26.7927  MISS %:    73.2073   MPKI: 3.35616
AGUS PREFETCH L1 MISS: 0
LLC WRITEBACK ACCESS:    3929544  HIT:    1415267  MISS:    2514277  HIT %:    36.0161  MISS %:    63.9839   MPKI: 12.5714
LLC LOAD TRANSLATION ACCESS:     117528  HIT:      49502  MISS:      68026  HIT %:    42.1193  MISS %:    57.8807   MPKI: 0.34013
LLC TRANSLATION FROM L1D PREFETCHER ACCESS:       2253  HIT:        688  MISS:       1565  HIT %:    30.5371  MISS %:    69.4629   MPKI: 0.007825
LLC PREFETCH  REQUESTED:          0  ISSUED:          0  USEFUL:       2640  USELESS:     670237
LLC USEFUL LOAD PREFETCHES:       2640 PREFETCH ISSUED TO LOWER LEVEL:     671233  ACCURACY: 0.393306
LLC TIMELY PREFETCHES:       2640 LATE PREFETCHES: 0 DROPPED PREFETCHES: 0
LLC PREFETCHES SAME FILL-ORIGIN LEVEL: 0 DIFFERENT FILL-ORIGIN LEVEL: 0
LLC AVERAGE MISS LATENCY: 133.348 cycles
LLC RQ	ACCESS:    5808146	FORWARD:          0	MERGED:          0	TO_CACHE:    5808124
LLC WQ	ACCESS:    3929545	FORWARD:         22	MERGED:          0	TO_CACHE:    3929545
LLC PQ	ACCESS:     916894	FORWARD:          0	MERGED:          0	TO_CACHE:     916894

LLC Dense regions hint to LLC: 0

RAW hits: 2502824
Loads Generated: 46897618
Loads sent to L1D: 44394789
Stores Generated: 32470857
Stores sent to L1D: 32470855
Major fault: 0 Minor fault: 24906
Allocated PAGES: 24906
CPU 0 L1d next line prefetcher final stats

DRAM Statistics
 CHANNEL 0
 RQ ROW_BUFFER_HIT:    1757924  ROW_BUFFER_MISS:    2502873
 DBUS_CONGESTED:       2019
 WQ ROW_BUFFER_HIT:     577748  ROW_BUFFER_MISS:    2073639  FULL:      34687

 AVG_CONGESTED_CYCLE: 3
 All warmup complete: 2
Channel 0 Bank busy for read cycles: 0
Channel 0 Bank busy for write cycles: 0
Channel 0
Rank 0
0banks busy for read cycles: 155024548
0banks busy for write cycles: 276941
1banks busy for read cycles: 78356484
1banks busy for write cycles: 40925532
2banks busy for read cycles: 25035921
2banks busy for write cycles: 20800497
3banks busy for read cycles: 19640035
3banks busy for write cycles: 11624738
4banks busy for read cycles: 6378734
4banks busy for write cycles: 6963413
5banks busy for read cycles: 4867774
5banks busy for write cycles: 4715065
6banks busy for read cycles: 5505961
6banks busy for write cycles: 4016347
7banks busy for read cycles: 8674881
7banks busy for write cycles: 6103970
8banks busy for read cycles: 17326529
8banks busy for write cycles: 31831077

CPU 0 Branch Prediction Accuracy: 99.9393% MPKI: 0.094655 Average ROB Occupancy at Mispredict: 107.907
Branch types
NOT_BRANCH: 168807431 84.4037%
BRANCH_DIRECT_JUMP: 1719252 0.859626%
BRANCH_INDIRECT: 9847536 4.92377%
BRANCH_CONDITIONAL: 12965646 6.48282%
BRANCH_DIRECT_CALL: 2636580 1.31829%
BRANCH_INDIRECT_CALL: 693283 0.346641%
BRANCH_RETURN: 3329925 1.66496%
BRANCH_OTHER: 0 0%

DRAM PAGES: 1048576
Allocated PAGES: 24906
