
*** ChampSim Multicore Out-of-Order Simulator ***

Warmup Instructions: 50000000
Simulation Instructions: 200000000
Number of CPUs: 1
LLC sets: 2048
LLC ways: 16
Off-chip DRAM Size: 4096 MB Channels: 1 Width: 64-bit Data Rate: 6400 MT/s
CPU 0 runs traces/spec2k17/srv_41.champsimtrace.xz
.xz
BTB has LRU replacement policy
ITLB has LRU replacement policy
DTLB has LRU replacement policy
STLB has LRU replacement policy
L1I has LRU replacement policy
CPU 0 L2C next line prefetcher
L1D has LRU replacement policy
Initialize SRRIP state for L2C
Initialize DRRIP state for LLC
Heartbeat CPU 0 instructions: 10000000 cycles: 2869655 heartbeat IPC: 3.48474 cumulative IPC: 3.48474 (Simulation time: 0 hr 0 min 38 sec) 
Heartbeat CPU 0 instructions: 20000003 cycles: 5731027 heartbeat IPC: 3.49483 cumulative IPC: 3.48978 (Simulation time: 0 hr 1 min 15 sec) 
Heartbeat CPU 0 instructions: 30000002 cycles: 8609293 heartbeat IPC: 3.47431 cumulative IPC: 3.48461 (Simulation time: 0 hr 1 min 55 sec) 
*** Reached end of trace for Core: 0 Repeating trace: traces/spec2k17/srv_41.champsimtrace.xz
Heartbeat CPU 0 instructions: 40000001 cycles: 11457830 heartbeat IPC: 3.51057 cumulative IPC: 3.49106 (Simulation time: 0 hr 2 min 35 sec) 
Heartbeat CPU 0 instructions: 50000000 cycles: 14323202 heartbeat IPC: 3.48995 cumulative IPC: 3.49084 (Simulation time: 0 hr 3 min 14 sec) 

Warmup complete CPU 0 instructions: 50000004 cycles: 14323203 (Simulation time: 0 hr 3 min 14 sec) 

Heartbeat CPU 0 instructions: 60000002 cycles: 40191391 heartbeat IPC: 0.386575 cumulative IPC: 0.386575 (Simulation time: 0 hr 4 min 17 sec) 
*** Reached end of trace for Core: 0 Repeating trace: traces/spec2k17/srv_41.champsimtrace.xz
Heartbeat CPU 0 instructions: 70000002 cycles: 60564066 heartbeat IPC: 0.490854 cumulative IPC: 0.432518 (Simulation time: 0 hr 5 min 14 sec) 
Heartbeat CPU 0 instructions: 80000002 cycles: 83212932 heartbeat IPC: 0.441523 cumulative IPC: 0.435479 (Simulation time: 0 hr 6 min 15 sec) 
Heartbeat CPU 0 instructions: 90000000 cycles: 108532045 heartbeat IPC: 0.394958 cumulative IPC: 0.424589 (Simulation time: 0 hr 7 min 19 sec) 
*** Reached end of trace for Core: 0 Repeating trace: traces/spec2k17/srv_41.champsimtrace.xz
Heartbeat CPU 0 instructions: 100000001 cycles: 129257296 heartbeat IPC: 0.482503 cumulative IPC: 0.435032 (Simulation time: 0 hr 8 min 18 sec) 
Heartbeat CPU 0 instructions: 110000000 cycles: 152534265 heartbeat IPC: 0.429609 cumulative IPC: 0.434119 (Simulation time: 0 hr 9 min 17 sec) 
Heartbeat CPU 0 instructions: 120000001 cycles: 177511959 heartbeat IPC: 0.400357 cumulative IPC: 0.428951 (Simulation time: 0 hr 10 min 20 sec) 
*** Reached end of trace for Core: 0 Repeating trace: traces/spec2k17/srv_41.champsimtrace.xz
Heartbeat CPU 0 instructions: 130000003 cycles: 198669716 heartbeat IPC: 0.47264 cumulative IPC: 0.433965 (Simulation time: 0 hr 11 min 21 sec) 
Heartbeat CPU 0 instructions: 140000000 cycles: 221437378 heartbeat IPC: 0.439219 cumulative IPC: 0.434543 (Simulation time: 0 hr 12 min 23 sec) 
Heartbeat CPU 0 instructions: 150000003 cycles: 245842055 heartbeat IPC: 0.409758 cumulative IPC: 0.43193 (Simulation time: 0 hr 13 min 26 sec) 
*** Reached end of trace for Core: 0 Repeating trace: traces/spec2k17/srv_41.champsimtrace.xz
Heartbeat CPU 0 instructions: 160000000 cycles: 267155771 heartbeat IPC: 0.469181 cumulative IPC: 0.435071 (Simulation time: 0 hr 14 min 26 sec) 
Heartbeat CPU 0 instructions: 170000000 cycles: 291455259 heartbeat IPC: 0.411531 cumulative IPC: 0.433007 (Simulation time: 0 hr 15 min 29 sec) 
Heartbeat CPU 0 instructions: 180000001 cycles: 314151487 heartbeat IPC: 0.440602 cumulative IPC: 0.433582 (Simulation time: 0 hr 16 min 30 sec) 
*** Reached end of trace for Core: 0 Repeating trace: traces/spec2k17/srv_41.champsimtrace.xz
Heartbeat CPU 0 instructions: 190000000 cycles: 335638181 heartbeat IPC: 0.465404 cumulative IPC: 0.43571 (Simulation time: 0 hr 17 min 33 sec) 
Heartbeat CPU 0 instructions: 200000000 cycles: 360224602 heartbeat IPC: 0.406729 cumulative IPC: 0.43365 (Simulation time: 0 hr 18 min 36 sec) 
Heartbeat CPU 0 instructions: 210000003 cycles: 381753177 heartbeat IPC: 0.464499 cumulative IPC: 0.435457 (Simulation time: 0 hr 19 min 36 sec) 
*** Reached end of trace for Core: 0 Repeating trace: traces/spec2k17/srv_41.champsimtrace.xz
Heartbeat CPU 0 instructions: 220000000 cycles: 405352681 heartbeat IPC: 0.423738 cumulative IPC: 0.43475 (Simulation time: 0 hr 20 min 41 sec) 
Heartbeat CPU 0 instructions: 230000000 cycles: 428222520 heartbeat IPC: 0.437257 cumulative IPC: 0.434888 (Simulation time: 0 hr 21 min 39 sec) 
Heartbeat CPU 0 instructions: 240000000 cycles: 450028162 heartbeat IPC: 0.458597 cumulative IPC: 0.436075 (Simulation time: 0 hr 22 min 35 sec) 
*** Reached end of trace for Core: 0 Repeating trace: traces/spec2k17/srv_41.champsimtrace.xz
Heartbeat CPU 0 instructions: 250000002 cycles: 474012184 heartbeat IPC: 0.416944 cumulative IPC: 0.435077 (Simulation time: 0 hr 23 min 37 sec) 
Finished CPU 0 instructions: 200000002 cycles: 459688982 cumulative IPC: 0.435077 (Simulation time: 0 hr 23 min 37 sec) 

ChampSim completed all CPUs

Region of Interest Statistics

CPU 0 cumulative IPC: 0.435077 instructions: 200000002 cycles: 459688982
ITLB TOTAL     ACCESS:   34227358  HIT:   33341252  MISS:     886106  HIT %:    97.4111  MISS %:    2.58888   MPKI: 4.43053
ITLB LOAD TRANSLATION ACCESS:   34227358  HIT:   33341252  MISS:     886106  HIT %:    97.4111  MISS %:    2.58888   MPKI: 4.43053
ITLB PREFETCH  REQUESTED:          0  ISSUED:          0  USEFUL:          0  USELESS:          0
ITLB USEFUL LOAD PREFETCHES:          0 PREFETCH ISSUED TO LOWER LEVEL:          0  ACCURACY: -nan
ITLB TIMELY PREFETCHES:          0 LATE PREFETCHES: 0 DROPPED PREFETCHES: 0
ITLB PREFETCHES SAME FILL-ORIGIN LEVEL: 0 DIFFERENT FILL-ORIGIN LEVEL: 0
ITLB AVERAGE MISS LATENCY: 10.3575 cycles
ITLB RQ	ACCESS:   39107275	FORWARD:          0	MERGED:    4619225	TO_CACHE:   34488050

DTLB TOTAL     ACCESS:   38152111  HIT:   37169003  MISS:     983108  HIT %:    97.4232  MISS %:    2.57681   MPKI: 4.91554
DTLB LOAD TRANSLATION ACCESS:   38152111  HIT:   37169003  MISS:     983108  HIT %:    97.4232  MISS %:    2.57681   MPKI: 4.91554
DTLB PREFETCH  REQUESTED:          0  ISSUED:          0  USEFUL:          0  USELESS:          0
DTLB USEFUL LOAD PREFETCHES:          0 PREFETCH ISSUED TO LOWER LEVEL:          0  ACCURACY: -nan
DTLB TIMELY PREFETCHES:          0 LATE PREFETCHES: 0 DROPPED PREFETCHES: 0
DTLB PREFETCHES SAME FILL-ORIGIN LEVEL: 0 DIFFERENT FILL-ORIGIN LEVEL: 0
DTLB AVERAGE MISS LATENCY: 14.9694 cycles
DTLB RQ	ACCESS:   50536942	FORWARD:          0	MERGED:   12315022	TO_CACHE:   38221920

STLB TOTAL     ACCESS:    2335346  HIT:    2232995  MISS:     102351  HIT %:    95.6173  MISS %:    4.38269   MPKI: 0.511755
STLB LOAD TRANSLATION ACCESS:    1869214  HIT:    1767666  MISS:     101548  HIT %:    94.5673  MISS %:    5.43266   MPKI: 0.50774
STLB TRANSLATION FROM L1D PREFETCHER ACCESS:     466132  HIT:     465329  MISS:        803  HIT %:    99.8277  MISS %:   0.172269   MPKI: 0.004015
STLB PREFETCH  REQUESTED:          0  ISSUED:          0  USEFUL:        676  USELESS:        128
STLB USEFUL LOAD PREFETCHES:        676 PREFETCH ISSUED TO LOWER LEVEL:          0  ACCURACY: inf
STLB TIMELY PREFETCHES:        676 LATE PREFETCHES: 66 DROPPED PREFETCHES: 2091
STLB PREFETCHES SAME FILL-ORIGIN LEVEL: 0 DIFFERENT FILL-ORIGIN LEVEL: 0
STLB AVERAGE MISS LATENCY: 69.3191 cycles
STLB RQ	ACCESS:    2414120	FORWARD:          0	MERGED:      76425	TO_CACHE:    2337695

STLB Hit, L1D data hit: 0
STLB Hit, L2C data hit: 0
STLB Hit, LLC data hit: 0
STLB Hit, LLC data miss: 0
STLB STLB hints to L2: 0
L1D TOTAL     ACCESS:   49979074  HIT:   47364769  MISS:    2614305  HIT %:    94.7692  MISS %:     5.2308   MPKI: 13.0715
L1D LOAD      ACCESS:   30403516  HIT:   28790648  MISS:    1612868  HIT %:    94.6951  MISS %:    5.30487   MPKI: 8.06434
L1D RFO       ACCESS:   19125444  HIT:   18454983  MISS:     670461  HIT %:    96.4944  MISS %:     3.5056   MPKI: 3.3523
L1D PREFETCH  ACCESS:     450114  HIT:     119138  MISS:     330976  HIT %:    26.4684  MISS %:    73.5316   MPKI: 1.65488
AGUS PREFETCH L1 MISS: 0
L1D PREFETCH  REQUESTED:    1100405  ISSUED:    1100405  USEFUL:     112572  USELESS:     218419
L1D USEFUL LOAD PREFETCHES:     112572 PREFETCH ISSUED TO LOWER LEVEL:     348611  ACCURACY: 32.2916
L1D TIMELY PREFETCHES:     112572 LATE PREFETCHES: 16765 DROPPED PREFETCHES: 2264
L1D PREFETCHES SAME FILL-ORIGIN LEVEL: 348611 DIFFERENT FILL-ORIGIN LEVEL: 0
L1D AVERAGE MISS LATENCY: 1.65823e+06 cycles
L1D RQ	ACCESS:   41943670	FORWARD:          0	MERGED:   11155821	TO_CACHE:   30520038
L1D WQ	ACCESS:   20245042	FORWARD:     268210	MERGED:     228138	TO_CACHE:   20016904
L1D PQ	ACCESS:     555499	FORWARD:          0	MERGED:      10194	TO_CACHE:     544906

L1D UNIQUE REGIONS ACCESSED: 0
L1D REGIONS CONFLICTS: 0
L1D Cross Page Prefetch Requests: 19861
L1D Same Page Prefetch Requests: 682778
L1D ROI Sum of L1D PQ occupancy: 7445428
L1D PREFETCHES PUSHED FROM L2C: 0
L1I TOTAL     ACCESS:   38313351  HIT:   33574372  MISS:    4738979  HIT %:     87.631  MISS %:     12.369   MPKI: 23.6949
L1I LOAD      ACCESS:   38313351  HIT:   33574372  MISS:    4738979  HIT %:     87.631  MISS %:     12.369   MPKI: 23.6949
L1I PREFETCH  REQUESTED:          0  ISSUED:          0  USEFUL:          0  USELESS:          0
L1I USEFUL LOAD PREFETCHES:          0 PREFETCH ISSUED TO LOWER LEVEL:          0  ACCURACY: -nan
L1I TIMELY PREFETCHES:          0 LATE PREFETCHES: 0 DROPPED PREFETCHES: 0
L1I PREFETCHES SAME FILL-ORIGIN LEVEL: 0 DIFFERENT FILL-ORIGIN LEVEL: 0
L1I AVERAGE MISS LATENCY: 22.6517 cycles
L1I RQ	ACCESS:   60538038	FORWARD:          0	MERGED:   21430763	TO_CACHE:   39107275

BTB TOTAL     ACCESS:   31960684  HIT:   26197910  MISS:    5762774  HIT %:    81.9692  MISS %:    18.0308   MPKI: 28.8139
BTB BRANCH_DIRECT_JUMP	ACCESS:    3125250  HIT:    2730574  MISS:     394676
BTB BRANCH_INDIRECT	ACCESS:   11716382  HIT:    9367715  MISS:    2348667
BTB BRANCH_CONDITIONAL	ACCESS:   10786856  HIT:   10320288  MISS:     466568
BTB BRANCH_DIRECT_CALL	ACCESS:    2710252  HIT:    1976262  MISS:     733990
BTB BRANCH_INDIRECT_CALL	ACCESS:     455858  HIT:     278081  MISS:     177777
BTB BRANCH_RETURN	ACCESS:    3166086  HIT:    1524990  MISS:    1641096
BTB BRANCH_OTHER ACCESS:          0  HIT:          0  MISS:          0

L2C TOTAL     ACCESS:    8758580  HIT:    6012744  MISS:    2745836  HIT %:    68.6498  MISS %:    31.3502   MPKI: 13.7292
L2C LOAD      ACCESS:    6335042  HIT:    4350192  MISS:    1984850  HIT %:    68.6687  MISS %:    31.3313   MPKI: 9.92425
L2C DATA LOAD MPKI: 3.45406
L2C INSTRUCTION LOAD MPKI: 6.47019
L2C RFO       ACCESS:     669575  HIT:     282601  MISS:     386974  HIT %:     42.206  MISS %:     57.794   MPKI: 1.93487
L2C PREFETCH  ACCESS:     348608  HIT:     143004  MISS:     205604  HIT %:    41.0214  MISS %:    58.9786   MPKI: 1.02802
AGUS PREFETCH L1 MISS: 0
L2C DATA PREFETCH MPKI: 1.02802
L2C INSTRUCTION PREFETCH MPKI: 0
L2C WRITEBACK ACCESS:    1240060  HIT:    1157582  MISS:      82478  HIT %:    93.3489  MISS %:    6.65113   MPKI: 0.41239
L2C LOAD TRANSLATION ACCESS:     160020  HIT:      75361  MISS:      84659  HIT %:    47.0947  MISS %:    52.9053   MPKI: 0.423295
L2C TRANSLATION FROM L1D PREFETCHER ACCESS:       5275  HIT:       4004  MISS:       1271  HIT %:    75.9052  MISS %:    24.0948   MPKI: 0.006355
L2C PREFETCH  REQUESTED:          0  ISSUED:          0  USEFUL:      17904  USELESS:     188972
L2C USEFUL LOAD PREFETCHES:      17904 PREFETCH ISSUED TO LOWER LEVEL:     205604  ACCURACY: 8.708
L2C TIMELY PREFETCHES:      17904 LATE PREFETCHES: 0 DROPPED PREFETCHES: 0
L2C PREFETCHES SAME FILL-ORIGIN LEVEL: 0 DIFFERENT FILL-ORIGIN LEVEL: 0
L2C AVERAGE MISS LATENCY: 54.727 cycles
L2C RQ	ACCESS:    7169968	FORWARD:          0	MERGED:          0	TO_CACHE:    7169912
L2C WQ	ACCESS:    1240060	FORWARD:         59	MERGED:          0	TO_CACHE:    1240060
L2C PQ	ACCESS:     348611	FORWARD:          0	MERGED:          0	TO_CACHE:     348608

L2C Instructions Evicting Data 612623
L2C Translations Evicting Data 46707
L2C Data Evicting Data 665096
L2C Instructions Evicting Instructions 645289
L2C Translations Evicting Instructions 36169
L2C Data Evicting Instructions 573702
L2C Instructions Evicting Translations 36126
L2C Translations Evicting Translations 3054
L2C Data Evicting Translations 44592
L2C Dense regions hint from L2: 0
PSCL5 TOTAL     ACCESS:     104442  HIT:     104442  MISS:          0  HIT %:        100  MISS %:          0   MPKI: 0
PSCL5 LOAD TRANSLATION ACCESS:     101482  HIT:     101482  MISS:          0  HIT %:        100  MISS %:          0   MPKI: 0
PSCL5 TRANSLATION FROM L1D PREFETCHER ACCESS:       2960  HIT:       2960  MISS:          0  HIT %:        100  MISS %:          0   MPKI: 0
PSCL5 PREFETCH  REQUESTED:          0  ISSUED:          0  USEFUL:          0  USELESS:          0
PSCL5 USEFUL LOAD PREFETCHES:          0 PREFETCH ISSUED TO LOWER LEVEL:          0  ACCURACY: -nan
PSCL5 TIMELY PREFETCHES:          0 LATE PREFETCHES: 0 DROPPED PREFETCHES: 0
PSCL5 PREFETCHES SAME FILL-ORIGIN LEVEL: 0 DIFFERENT FILL-ORIGIN LEVEL: 0

PSCL4 TOTAL     ACCESS:     103834  HIT:     103519  MISS:        315  HIT %:    99.6966  MISS %:   0.303369   MPKI: 0.001575
PSCL4 LOAD TRANSLATION ACCESS:     100903  HIT:     100588  MISS:        315  HIT %:    99.6878  MISS %:   0.312181   MPKI: 0.001575
PSCL4 TRANSLATION FROM L1D PREFETCHER ACCESS:       2931  HIT:       2931  MISS:          0  HIT %:        100  MISS %:          0   MPKI: 0
PSCL4 PREFETCH  REQUESTED:          0  ISSUED:          0  USEFUL:          0  USELESS:          0
PSCL4 USEFUL LOAD PREFETCHES:          0 PREFETCH ISSUED TO LOWER LEVEL:          0  ACCURACY: -nan
PSCL4 TIMELY PREFETCHES:          0 LATE PREFETCHES: 0 DROPPED PREFETCHES: 0
PSCL4 PREFETCHES SAME FILL-ORIGIN LEVEL: 0 DIFFERENT FILL-ORIGIN LEVEL: 0

PSCL3 TOTAL     ACCESS:      96433  HIT:      80093  MISS:      16340  HIT %:    83.0556  MISS %:    16.9444   MPKI: 0.0817
PSCL3 LOAD TRANSLATION ACCESS:      94540  HIT:      78200  MISS:      16340  HIT %:    82.7163  MISS %:    17.2837   MPKI: 0.0817
PSCL3 TRANSLATION FROM L1D PREFETCHER ACCESS:       1893  HIT:       1893  MISS:          0  HIT %:        100  MISS %:          0   MPKI: 0
PSCL3 PREFETCH  REQUESTED:          0  ISSUED:          0  USEFUL:          0  USELESS:          0
PSCL3 USEFUL LOAD PREFETCHES:          0 PREFETCH ISSUED TO LOWER LEVEL:          0  ACCURACY: -nan
PSCL3 TIMELY PREFETCHES:          0 LATE PREFETCHES: 0 DROPPED PREFETCHES: 0
PSCL3 PREFETCHES SAME FILL-ORIGIN LEVEL: 0 DIFFERENT FILL-ORIGIN LEVEL: 0

PSCL2 TOTAL     ACCESS:     103158  HIT:      61064  MISS:      42094  HIT %:    59.1946  MISS %:    40.8054   MPKI: 0.21047
PSCL2 LOAD TRANSLATION ACCESS:     101641  HIT:      59547  MISS:      42094  HIT %:    58.5856  MISS %:    41.4144   MPKI: 0.21047
PSCL2 TRANSLATION FROM L1D PREFETCHER ACCESS:       1517  HIT:       1517  MISS:          0  HIT %:        100  MISS %:          0   MPKI: 0
PSCL2 PREFETCH  REQUESTED:          0  ISSUED:          0  USEFUL:          0  USELESS:          0
PSCL2 USEFUL LOAD PREFETCHES:          0 PREFETCH ISSUED TO LOWER LEVEL:          0  ACCURACY: -nan
PSCL2 TIMELY PREFETCHES:          0 LATE PREFETCHES: 0 DROPPED PREFETCHES: 0
PSCL2 PREFETCHES SAME FILL-ORIGIN LEVEL: 0 DIFFERENT FILL-ORIGIN LEVEL: 0

LLC TOTAL     ACCESS:    3311326  HIT:    2937992  MISS:     373334  HIT %:    88.7255  MISS %:    11.2745   MPKI: 1.86667
LLC LOAD      ACCESS:    1984846  HIT:    1813235  MISS:     171611  HIT %:    91.3539  MISS %:    8.64606   MPKI: 0.858055
LLC RFO       ACCESS:     386974  HIT:     252544  MISS:     134430  HIT %:    65.2612  MISS %:    34.7388   MPKI: 0.67215
LLC PREFETCH  ACCESS:     205604  HIT:     151175  MISS:      54429  HIT %:    73.5273  MISS %:    26.4727   MPKI: 0.272145
AGUS PREFETCH L1 MISS: 0
LLC WRITEBACK ACCESS:     647972  HIT:     645678  MISS:       2294  HIT %:     99.646  MISS %:   0.354028   MPKI: 0.01147
LLC LOAD TRANSLATION ACCESS:      84659  HIT:      74300  MISS:      10359  HIT %:    87.7639  MISS %:    12.2361   MPKI: 0.051795
LLC TRANSLATION FROM L1D PREFETCHER ACCESS:       1271  HIT:       1060  MISS:        211  HIT %:    83.3989  MISS %:    16.6011   MPKI: 0.001055
LLC PREFETCH  REQUESTED:          0  ISSUED:          0  USEFUL:       6127  USELESS:      49357
LLC USEFUL LOAD PREFETCHES:       6127 PREFETCH ISSUED TO LOWER LEVEL:      54429  ACCURACY: 11.2569
LLC TIMELY PREFETCHES:       6127 LATE PREFETCHES: 0 DROPPED PREFETCHES: 0
LLC PREFETCHES SAME FILL-ORIGIN LEVEL: 0 DIFFERENT FILL-ORIGIN LEVEL: 0
LLC AVERAGE MISS LATENCY: 188.488 cycles
LLC RQ	ACCESS:    2457754	FORWARD:          0	MERGED:          0	TO_CACHE:    2457750
LLC WQ	ACCESS:     647972	FORWARD:          4	MERGED:          0	TO_CACHE:     647972
LLC PQ	ACCESS:     205604	FORWARD:          0	MERGED:          0	TO_CACHE:     205604

LLC Dense regions hint to LLC: 0

RAW hits: 2080055
Loads Generated: 44023727
Loads sent to L1D: 41943670
Stores Generated: 20245026
Stores sent to L1D: 20245042
Major fault: 0 Minor fault: 5392
Allocated PAGES: 5392
CPU 0 L1d next line prefetcher final stats

DRAM Statistics
 CHANNEL 0
 RQ ROW_BUFFER_HIT:      82464  ROW_BUFFER_MISS:     288572
 DBUS_CONGESTED:        168
 WQ ROW_BUFFER_HIT:      31927  ROW_BUFFER_MISS:     200558  FULL:          0

 AVG_CONGESTED_CYCLE: 4
 All warmup complete: 2
Channel 0 Bank busy for read cycles: 0
Channel 0 Bank busy for write cycles: 0
Channel 0
Rank 0
0banks busy for read cycles: 406672933
0banks busy for write cycles: 100919
1banks busy for read cycles: 23086043
1banks busy for write cycles: 13784963
2banks busy for read cycles: 5000742
2banks busy for write cycles: 3887026
3banks busy for read cycles: 1576276
3banks busy for write cycles: 1613712
4banks busy for read cycles: 376898
4banks busy for write cycles: 694372
5banks busy for read cycles: 142784
5banks busy for write cycles: 329408
6banks busy for read cycles: 126082
6banks busy for write cycles: 184250
7banks busy for read cycles: 168299
7banks busy for write cycles: 174517
8banks busy for read cycles: 697735
8banks busy for write cycles: 1072024

CPU 0 Branch Prediction Accuracy: 99.5917% MPKI: 0.749205 Average ROB Occupancy at Mispredict: 30.0086
Branch types
NOT_BRANCH: 163297289 81.6486%
BRANCH_DIRECT_JUMP: 3125250 1.56262%
BRANCH_INDIRECT: 11716382 5.85819%
BRANCH_CONDITIONAL: 15528542 7.76427%
BRANCH_DIRECT_CALL: 2710252 1.35513%
BRANCH_INDIRECT_CALL: 455858 0.227929%
BRANCH_RETURN: 3166086 1.58304%
BRANCH_OTHER: 0 0%

DRAM PAGES: 1048576
Allocated PAGES: 5392
