
*** ChampSim Multicore Out-of-Order Simulator ***

Warmup Instructions: 50000000
Simulation Instructions: 200000000
Number of CPUs: 1
LLC sets: 2048
LLC ways: 16
Off-chip DRAM Size: 4096 MB Channels: 1 Width: 64-bit Data Rate: 6400 MT/s
CPU 0 runs traces/spec2k17/srv_25.champsimtrace.xz
.xz
BTB has LRU replacement policy
ITLB has LRU replacement policy
DTLB has LRU replacement policy
STLB has LRU replacement policy
L1I has LRU replacement policy
CPU 0 L2C next line prefetcher
L1D has LRU replacement policy
Initialize SRRIP state for L2C
Initialize DRRIP state for LLC
Heartbeat CPU 0 instructions: 10000003 cycles: 2840458 heartbeat IPC: 3.52056 cumulative IPC: 3.52056 (Simulation time: 0 hr 0 min 37 sec) 
Heartbeat CPU 0 instructions: 20000001 cycles: 5675257 heartbeat IPC: 3.52759 cumulative IPC: 3.52407 (Simulation time: 0 hr 1 min 13 sec) 
Heartbeat CPU 0 instructions: 30000003 cycles: 8506040 heartbeat IPC: 3.53259 cumulative IPC: 3.52691 (Simulation time: 0 hr 1 min 49 sec) 
*** Reached end of trace for Core: 0 Repeating trace: traces/spec2k17/srv_25.champsimtrace.xz
Heartbeat CPU 0 instructions: 40000002 cycles: 11337019 heartbeat IPC: 3.53235 cumulative IPC: 3.52826 (Simulation time: 0 hr 2 min 25 sec) 
Heartbeat CPU 0 instructions: 50000002 cycles: 14170792 heartbeat IPC: 3.52886 cumulative IPC: 3.52838 (Simulation time: 0 hr 3 min 3 sec) 

Warmup complete CPU 0 instructions: 50000002 cycles: 14170792 (Simulation time: 0 hr 3 min 3 sec) 

Heartbeat CPU 0 instructions: 60000002 cycles: 47055054 heartbeat IPC: 0.304097 cumulative IPC: 0.304097 (Simulation time: 0 hr 4 min 13 sec) 
*** Reached end of trace for Core: 0 Repeating trace: traces/spec2k17/srv_25.champsimtrace.xz
Heartbeat CPU 0 instructions: 70000001 cycles: 79882116 heartbeat IPC: 0.304627 cumulative IPC: 0.304362 (Simulation time: 0 hr 5 min 20 sec) 
Heartbeat CPU 0 instructions: 80000003 cycles: 113038198 heartbeat IPC: 0.301604 cumulative IPC: 0.303437 (Simulation time: 0 hr 6 min 29 sec) 
Heartbeat CPU 0 instructions: 90000001 cycles: 145914262 heartbeat IPC: 0.304173 cumulative IPC: 0.30362 (Simulation time: 0 hr 7 min 37 sec) 
*** Reached end of trace for Core: 0 Repeating trace: traces/spec2k17/srv_25.champsimtrace.xz
Heartbeat CPU 0 instructions: 100000002 cycles: 178735370 heartbeat IPC: 0.304682 cumulative IPC: 0.303832 (Simulation time: 0 hr 8 min 45 sec) 
Heartbeat CPU 0 instructions: 110000000 cycles: 211728507 heartbeat IPC: 0.303093 cumulative IPC: 0.303709 (Simulation time: 0 hr 9 min 54 sec) 
Heartbeat CPU 0 instructions: 120000000 cycles: 244568279 heartbeat IPC: 0.304509 cumulative IPC: 0.303823 (Simulation time: 0 hr 11 min 3 sec) 
*** Reached end of trace for Core: 0 Repeating trace: traces/spec2k17/srv_25.champsimtrace.xz
Heartbeat CPU 0 instructions: 130000000 cycles: 277367102 heartbeat IPC: 0.304889 cumulative IPC: 0.303956 (Simulation time: 0 hr 12 min 14 sec) 
Heartbeat CPU 0 instructions: 140000000 cycles: 310301553 heartbeat IPC: 0.303633 cumulative IPC: 0.30392 (Simulation time: 0 hr 13 min 23 sec) 
Heartbeat CPU 0 instructions: 150000000 cycles: 343154738 heartbeat IPC: 0.304384 cumulative IPC: 0.303966 (Simulation time: 0 hr 14 min 32 sec) 
*** Reached end of trace for Core: 0 Repeating trace: traces/spec2k17/srv_25.champsimtrace.xz
Heartbeat CPU 0 instructions: 160000000 cycles: 375846309 heartbeat IPC: 0.305889 cumulative IPC: 0.30414 (Simulation time: 0 hr 15 min 41 sec) 
Heartbeat CPU 0 instructions: 170000003 cycles: 408760539 heartbeat IPC: 0.30382 cumulative IPC: 0.304113 (Simulation time: 0 hr 16 min 51 sec) 
Heartbeat CPU 0 instructions: 180000000 cycles: 441701311 heartbeat IPC: 0.303575 cumulative IPC: 0.304072 (Simulation time: 0 hr 18 min 0 sec) 
*** Reached end of trace for Core: 0 Repeating trace: traces/spec2k17/srv_25.champsimtrace.xz
Heartbeat CPU 0 instructions: 190000001 cycles: 474410781 heartbeat IPC: 0.305722 cumulative IPC: 0.304189 (Simulation time: 0 hr 19 min 10 sec) 
Heartbeat CPU 0 instructions: 200000001 cycles: 507211195 heartbeat IPC: 0.304874 cumulative IPC: 0.304235 (Simulation time: 0 hr 20 min 18 sec) 
Heartbeat CPU 0 instructions: 210000000 cycles: 540266302 heartbeat IPC: 0.302525 cumulative IPC: 0.304127 (Simulation time: 0 hr 21 min 28 sec) 
*** Reached end of trace for Core: 0 Repeating trace: traces/spec2k17/srv_25.champsimtrace.xz
Heartbeat CPU 0 instructions: 220000000 cycles: 572877991 heartbeat IPC: 0.306639 cumulative IPC: 0.304274 (Simulation time: 0 hr 22 min 38 sec) 
Heartbeat CPU 0 instructions: 230000000 cycles: 605646236 heartbeat IPC: 0.305173 cumulative IPC: 0.304324 (Simulation time: 0 hr 23 min 48 sec) 
Heartbeat CPU 0 instructions: 240000003 cycles: 638744716 heartbeat IPC: 0.302129 cumulative IPC: 0.304207 (Simulation time: 0 hr 24 min 56 sec) 
Heartbeat CPU 0 instructions: 250000001 cycles: 671278059 heartbeat IPC: 0.307377 cumulative IPC: 0.304364 (Simulation time: 0 hr 26 min 4 sec) 
Finished CPU 0 instructions: 200000003 cycles: 657107268 cumulative IPC: 0.304364 (Simulation time: 0 hr 26 min 4 sec) 

ChampSim completed all CPUs

Region of Interest Statistics

CPU 0 cumulative IPC: 0.304364 instructions: 200000003 cycles: 657107268
ITLB TOTAL     ACCESS:   35344322  HIT:   33080904  MISS:    2263418  HIT %:    93.5961  MISS %:    6.40391   MPKI: 11.3171
ITLB LOAD TRANSLATION ACCESS:   35344322  HIT:   33080904  MISS:    2263418  HIT %:    93.5961  MISS %:    6.40391   MPKI: 11.3171
ITLB PREFETCH  REQUESTED:          0  ISSUED:          0  USEFUL:          0  USELESS:          0
ITLB USEFUL LOAD PREFETCHES:          0 PREFETCH ISSUED TO LOWER LEVEL:          0  ACCURACY: -nan
ITLB TIMELY PREFETCHES:          0 LATE PREFETCHES: 0 DROPPED PREFETCHES: 0
ITLB PREFETCHES SAME FILL-ORIGIN LEVEL: 0 DIFFERENT FILL-ORIGIN LEVEL: 0
ITLB AVERAGE MISS LATENCY: 9.12964 cycles
ITLB RQ	ACCESS:   41711590	FORWARD:          0	MERGED:    5822814	TO_CACHE:   35888776

DTLB TOTAL     ACCESS:   45990643  HIT:   43832822  MISS:    2157821  HIT %:    95.3081  MISS %:    4.69187   MPKI: 10.7891
DTLB LOAD TRANSLATION ACCESS:   45990643  HIT:   43832822  MISS:    2157821  HIT %:    95.3081  MISS %:    4.69187   MPKI: 10.7891
DTLB PREFETCH  REQUESTED:          0  ISSUED:          0  USEFUL:          0  USELESS:          0
DTLB USEFUL LOAD PREFETCHES:          0 PREFETCH ISSUED TO LOWER LEVEL:          0  ACCURACY: -nan
DTLB TIMELY PREFETCHES:          0 LATE PREFETCHES: 0 DROPPED PREFETCHES: 0
DTLB PREFETCHES SAME FILL-ORIGIN LEVEL: 0 DIFFERENT FILL-ORIGIN LEVEL: 0
DTLB AVERAGE MISS LATENCY: 10.3518 cycles
DTLB RQ	ACCESS:   60843558	FORWARD:          0	MERGED:   14790779	TO_CACHE:   46052779

STLB TOTAL     ACCESS:    5463264  HIT:    5406547  MISS:      56717  HIT %:    98.9618  MISS %:    1.03815   MPKI: 0.283585
STLB LOAD TRANSLATION ACCESS:    4421238  HIT:    4364715  MISS:      56523  HIT %:    98.7216  MISS %:    1.27844   MPKI: 0.282615
STLB TRANSLATION FROM L1D PREFETCHER ACCESS:    1042026  HIT:    1041832  MISS:        194  HIT %:    99.9814  MISS %:  0.0186176   MPKI: 0.00097
STLB PREFETCH  REQUESTED:          0  ISSUED:          0  USEFUL:        130  USELESS:         65
STLB USEFUL LOAD PREFETCHES:        130 PREFETCH ISSUED TO LOWER LEVEL:          0  ACCURACY: inf
STLB TIMELY PREFETCHES:        130 LATE PREFETCHES: 161 DROPPED PREFETCHES: 6476
STLB PREFETCHES SAME FILL-ORIGIN LEVEL: 0 DIFFERENT FILL-ORIGIN LEVEL: 0
STLB AVERAGE MISS LATENCY: 752483 cycles
STLB RQ	ACCESS:    5665701	FORWARD:          0	MERGED:     194379	TO_CACHE:    5471322

STLB Hit, L1D data hit: 0
STLB Hit, L2C data hit: 0
STLB Hit, LLC data hit: 0
STLB Hit, LLC data miss: 0
STLB STLB hints to L2: 0
L1D TOTAL     ACCESS:   59749696  HIT:   54345792  MISS:    5403904  HIT %:    90.9558  MISS %:    9.04424   MPKI: 27.0195
L1D LOAD      ACCESS:   33859163  HIT:   30263172  MISS:    3595991  HIT %:    89.3796  MISS %:    10.6204   MPKI: 17.98
L1D RFO       ACCESS:   25094211  HIT:   23897768  MISS:    1196443  HIT %:    95.2322  MISS %:     4.7678   MPKI: 5.98221
L1D PREFETCH  ACCESS:     796322  HIT:     184852  MISS:     611470  HIT %:    23.2132  MISS %:    76.7868   MPKI: 3.05735
AGUS PREFETCH L1 MISS: 0
L1D PREFETCH  REQUESTED:    2513049  ISSUED:    2513049  USEFUL:     217257  USELESS:     394231
L1D USEFUL LOAD PREFETCHES:     217257 PREFETCH ISSUED TO LOWER LEVEL:     854606  ACCURACY: 25.4219
L1D TIMELY PREFETCHES:     217257 LATE PREFETCHES: 243105 DROPPED PREFETCHES: 7889
L1D PREFETCHES SAME FILL-ORIGIN LEVEL: 854606 DIFFERENT FILL-ORIGIN LEVEL: 0
L1D AVERAGE MISS LATENCY: 1.54624e+07 cycles
L1D RQ	ACCESS:   46554874	FORWARD:          0	MERGED:   12235574	TO_CACHE:   33994072
L1D WQ	ACCESS:   26999502	FORWARD:     325242	MERGED:     150016	TO_CACHE:   26849486
L1D PQ	ACCESS:    1268586	FORWARD:          0	MERGED:      24109	TO_CACHE:    1244463

L1D UNIQUE REGIONS ACCESSED: 0
L1D REGIONS CONFLICTS: 0
L1D Cross Page Prefetch Requests: 39116
L1D Same Page Prefetch Requests: 1549129
L1D ROI Sum of L1D PQ occupancy: 16023637
L1D PREFETCHES PUSHED FROM L2C: 0
L1I TOTAL     ACCESS:   40016330  HIT:   28515576  MISS:   11500754  HIT %:    71.2598  MISS %:    28.7402   MPKI: 57.5038
L1I LOAD      ACCESS:   40016330  HIT:   28515576  MISS:   11500754  HIT %:    71.2598  MISS %:    28.7402   MPKI: 57.5038
L1I PREFETCH  REQUESTED:          0  ISSUED:          0  USEFUL:          0  USELESS:          0
L1I USEFUL LOAD PREFETCHES:          0 PREFETCH ISSUED TO LOWER LEVEL:          0  ACCURACY: -nan
L1I TIMELY PREFETCHES:          0 LATE PREFETCHES: 0 DROPPED PREFETCHES: 0
L1I PREFETCHES SAME FILL-ORIGIN LEVEL: 0 DIFFERENT FILL-ORIGIN LEVEL: 0
L1I AVERAGE MISS LATENCY: 15.7087 cycles
L1I RQ	ACCESS:   58674661	FORWARD:          0	MERGED:   16963071	TO_CACHE:   41711590

BTB TOTAL     ACCESS:   30550565  HIT:   17847955  MISS:   12702610  HIT %:     58.421  MISS %:     41.579   MPKI: 63.513
BTB BRANCH_DIRECT_JUMP	ACCESS:    2073765  HIT:    1256441  MISS:     817324
BTB BRANCH_INDIRECT	ACCESS:   12278071  HIT:    7369228  MISS:    4908843
BTB BRANCH_CONDITIONAL	ACCESS:    6949199  HIT:    5659195  MISS:    1290004
BTB BRANCH_DIRECT_CALL	ACCESS:    3898896  HIT:    1843151  MISS:    2055745
BTB BRANCH_INDIRECT_CALL	ACCESS:     725884  HIT:     351632  MISS:     374252
BTB BRANCH_RETURN	ACCESS:    4624750  HIT:    1368308  MISS:    3256442
BTB BRANCH_OTHER ACCESS:          0  HIT:          0  MISS:          0

L2C TOTAL     ACCESS:   19290462  HIT:   18088746  MISS:    1201716  HIT %:    93.7704  MISS %:    6.22959   MPKI: 6.00858
L2C LOAD      ACCESS:   14853568  HIT:   13927719  MISS:     925849  HIT %:    93.7668  MISS %:    6.23318   MPKI: 4.62924
L2C DATA LOAD MPKI: 1.54291
L2C INSTRUCTION LOAD MPKI: 3.08633
L2C RFO       ACCESS:    1196412  HIT:    1120659  MISS:      75753  HIT %:    93.6683  MISS %:    6.33168   MPKI: 0.378765
L2C PREFETCH  ACCESS:     854062  HIT:     723165  MISS:     130897  HIT %:    84.6736  MISS %:    15.3264   MPKI: 0.654485
AGUS PREFETCH L1 MISS: 0
L2C DATA PREFETCH MPKI: 0.654485
L2C INSTRUCTION PREFETCH MPKI: 0
L2C WRITEBACK ACCESS:    2287934  HIT:    2262529  MISS:      25405  HIT %:    98.8896  MISS %:    1.11039   MPKI: 0.127025
L2C LOAD TRANSLATION ACCESS:      85779  HIT:      43013  MISS:      42766  HIT %:     50.144  MISS %:     49.856   MPKI: 0.21383
L2C TRANSLATION FROM L1D PREFETCHER ACCESS:      12707  HIT:      11661  MISS:       1046  HIT %:    91.7683  MISS %:    8.23168   MPKI: 0.00523
L2C PREFETCH  REQUESTED:          0  ISSUED:          0  USEFUL:       3538  USELESS:     128698
L2C USEFUL LOAD PREFETCHES:       3538 PREFETCH ISSUED TO LOWER LEVEL:     130897  ACCURACY: 2.70289
L2C TIMELY PREFETCHES:       3538 LATE PREFETCHES: 0 DROPPED PREFETCHES: 0
L2C PREFETCHES SAME FILL-ORIGIN LEVEL: 0 DIFFERENT FILL-ORIGIN LEVEL: 0
L2C AVERAGE MISS LATENCY: 37.2824 cycles
L2C RQ	ACCESS:   16148538	FORWARD:          0	MERGED:          0	TO_CACHE:   16148466
L2C WQ	ACCESS:    2287934	FORWARD:        616	MERGED:          0	TO_CACHE:    2287934
L2C PQ	ACCESS:     854606	FORWARD:          0	MERGED:          0	TO_CACHE:     854062

L2C Instructions Evicting Data 222049
L2C Translations Evicting Data 29243
L2C Data Evicting Data 281029
L2C Instructions Evicting Instructions 384177
L2C Translations Evicting Instructions 10948
L2C Data Evicting Instructions 205299
L2C Instructions Evicting Translations 11040
L2C Translations Evicting Translations 3621
L2C Data Evicting Translations 28905
L2C Dense regions hint from L2: 0
PSCL5 TOTAL     ACCESS:      63193  HIT:      63193  MISS:          0  HIT %:        100  MISS %:          0   MPKI: 0
PSCL5 LOAD TRANSLATION ACCESS:      56362  HIT:      56362  MISS:          0  HIT %:        100  MISS %:          0   MPKI: 0
PSCL5 TRANSLATION FROM L1D PREFETCHER ACCESS:       6831  HIT:       6831  MISS:          0  HIT %:        100  MISS %:          0   MPKI: 0
PSCL5 PREFETCH  REQUESTED:          0  ISSUED:          0  USEFUL:          0  USELESS:          0
PSCL5 USEFUL LOAD PREFETCHES:          0 PREFETCH ISSUED TO LOWER LEVEL:          0  ACCURACY: -nan
PSCL5 TIMELY PREFETCHES:          0 LATE PREFETCHES: 0 DROPPED PREFETCHES: 0
PSCL5 PREFETCHES SAME FILL-ORIGIN LEVEL: 0 DIFFERENT FILL-ORIGIN LEVEL: 0

PSCL4 TOTAL     ACCESS:      59137  HIT:      58436  MISS:        701  HIT %:    98.8146  MISS %:    1.18538   MPKI: 0.003505
PSCL4 LOAD TRANSLATION ACCESS:      55098  HIT:      54397  MISS:        701  HIT %:    98.7277  MISS %:    1.27228   MPKI: 0.003505
PSCL4 TRANSLATION FROM L1D PREFETCHER ACCESS:       4039  HIT:       4039  MISS:          0  HIT %:        100  MISS %:          0   MPKI: 0
PSCL4 PREFETCH  REQUESTED:          0  ISSUED:          0  USEFUL:          0  USELESS:          0
PSCL4 USEFUL LOAD PREFETCHES:          0 PREFETCH ISSUED TO LOWER LEVEL:          0  ACCURACY: -nan
PSCL4 TIMELY PREFETCHES:          0 LATE PREFETCHES: 0 DROPPED PREFETCHES: 0
PSCL4 PREFETCHES SAME FILL-ORIGIN LEVEL: 0 DIFFERENT FILL-ORIGIN LEVEL: 0

PSCL3 TOTAL     ACCESS:      62994  HIT:      62293  MISS:        701  HIT %:    98.8872  MISS %:     1.1128   MPKI: 0.003505
PSCL3 LOAD TRANSLATION ACCESS:      56193  HIT:      55492  MISS:        701  HIT %:    98.7525  MISS %:    1.24749   MPKI: 0.003505
PSCL3 TRANSLATION FROM L1D PREFETCHER ACCESS:       6801  HIT:       6801  MISS:          0  HIT %:        100  MISS %:          0   MPKI: 0
PSCL3 PREFETCH  REQUESTED:          0  ISSUED:          0  USEFUL:          0  USELESS:          0
PSCL3 USEFUL LOAD PREFETCHES:          0 PREFETCH ISSUED TO LOWER LEVEL:          0  ACCURACY: -nan
PSCL3 TIMELY PREFETCHES:          0 LATE PREFETCHES: 0 DROPPED PREFETCHES: 0
PSCL3 PREFETCHES SAME FILL-ORIGIN LEVEL: 0 DIFFERENT FILL-ORIGIN LEVEL: 0

PSCL2 TOTAL     ACCESS:      57394  HIT:      29362  MISS:      28032  HIT %:    51.1587  MISS %:    48.8413   MPKI: 0.14016
PSCL2 LOAD TRANSLATION ACCESS:      56379  HIT:      28347  MISS:      28032  HIT %:    50.2794  MISS %:    49.7206   MPKI: 0.14016
PSCL2 TRANSLATION FROM L1D PREFETCHER ACCESS:       1015  HIT:       1015  MISS:          0  HIT %:        100  MISS %:          0   MPKI: 0
PSCL2 PREFETCH  REQUESTED:          0  ISSUED:          0  USEFUL:          0  USELESS:          0
PSCL2 USEFUL LOAD PREFETCHES:          0 PREFETCH ISSUED TO LOWER LEVEL:          0  ACCURACY: -nan
PSCL2 TIMELY PREFETCHES:          0 LATE PREFETCHES: 0 DROPPED PREFETCHES: 0
PSCL2 PREFETCHES SAME FILL-ORIGIN LEVEL: 0 DIFFERENT FILL-ORIGIN LEVEL: 0

LLC TOTAL     ACCESS:    1280855  HIT:    1212756  MISS:      68099  HIT %:    94.6833  MISS %:    5.31668   MPKI: 0.340495
LLC LOAD      ACCESS:     925849  HIT:     889447  MISS:      36402  HIT %:    96.0683  MISS %:    3.93174   MPKI: 0.18201
LLC RFO       ACCESS:      75753  HIT:      70653  MISS:       5100  HIT %:    93.2676  MISS %:    6.73241   MPKI: 0.0255
LLC PREFETCH  ACCESS:     130897  HIT:     107404  MISS:      23493  HIT %:    82.0523  MISS %:    17.9477   MPKI: 0.117465
AGUS PREFETCH L1 MISS: 0
LLC WRITEBACK ACCESS:     104544  HIT:     104253  MISS:        291  HIT %:    99.7216  MISS %:   0.278352   MPKI: 0.001455
LLC LOAD TRANSLATION ACCESS:      42766  HIT:      39958  MISS:       2808  HIT %:     93.434  MISS %:    6.56596   MPKI: 0.01404
LLC TRANSLATION FROM L1D PREFETCHER ACCESS:       1046  HIT:       1041  MISS:          5  HIT %:     99.522  MISS %:   0.478011   MPKI: 2.5e-05
LLC PREFETCH  REQUESTED:          0  ISSUED:          0  USEFUL:       2422  USELESS:      21634
LLC USEFUL LOAD PREFETCHES:       2422 PREFETCH ISSUED TO LOWER LEVEL:      23493  ACCURACY: 10.3095
LLC TIMELY PREFETCHES:       2422 LATE PREFETCHES: 0 DROPPED PREFETCHES: 0
LLC PREFETCHES SAME FILL-ORIGIN LEVEL: 0 DIFFERENT FILL-ORIGIN LEVEL: 0
LLC AVERAGE MISS LATENCY: 139.695 cycles
LLC RQ	ACCESS:    1045414	FORWARD:          0	MERGED:          0	TO_CACHE:    1045414
LLC WQ	ACCESS:     104544	FORWARD:          0	MERGED:          0	TO_CACHE:     104544
LLC PQ	ACCESS:     130897	FORWARD:          0	MERGED:          0	TO_CACHE:     130897

LLC Dense regions hint to LLC: 0

RAW hits: 1439634
Loads Generated: 47994507
Loads sent to L1D: 46554874
Stores Generated: 26999505
Stores sent to L1D: 26999502
Major fault: 0 Minor fault: 4375
Allocated PAGES: 4375
CPU 0 L1d next line prefetcher final stats

DRAM Statistics
 CHANNEL 0
 RQ ROW_BUFFER_HIT:      22299  ROW_BUFFER_MISS:      45508
 DBUS_CONGESTED:         42
 WQ ROW_BUFFER_HIT:        746  ROW_BUFFER_MISS:       5433  FULL:          0

 AVG_CONGESTED_CYCLE: 5
 All warmup complete: 2
Channel 0 Bank busy for read cycles: 0
Channel 0 Bank busy for write cycles: 0
Channel 0
Rank 0
0banks busy for read cycles: 650761666
0banks busy for write cycles: 4595
1banks busy for read cycles: 4243157
1banks busy for write cycles: 679788
2banks busy for read cycles: 719717
2banks busy for write cycles: 101395
3banks busy for read cycles: 264408
3banks busy for write cycles: 30658
4banks busy for read cycles: 111327
4banks busy for write cycles: 11022
5banks busy for read cycles: 71355
5banks busy for write cycles: 4262
6banks busy for read cycles: 51295
6banks busy for write cycles: 1493
7banks busy for read cycles: 32894
7banks busy for write cycles: 1425
8banks busy for read cycles: 15698
8banks busy for write cycles: 1114

CPU 0 Branch Prediction Accuracy: 99.8132% MPKI: 0.33529 Average ROB Occupancy at Mispredict: 49.1702
Branch types
NOT_BRANCH: 164101728 82.0509%
BRANCH_DIRECT_JUMP: 2073765 1.03688%
BRANCH_INDIRECT: 12278071 6.13904%
BRANCH_CONDITIONAL: 12296955 6.14848%
BRANCH_DIRECT_CALL: 3898896 1.94945%
BRANCH_INDIRECT_CALL: 725884 0.362942%
BRANCH_RETURN: 4624750 2.31237%
BRANCH_OTHER: 0 0%

DRAM PAGES: 1048576
Allocated PAGES: 4375
