
*** ChampSim Multicore Out-of-Order Simulator ***

Warmup Instructions: 50000000
Simulation Instructions: 200000000
Number of CPUs: 1
LLC sets: 2048
LLC ways: 16
Off-chip DRAM Size: 4096 MB Channels: 1 Width: 64-bit Data Rate: 6400 MT/s
CPU 0 runs traces/spec2k17/srv_65.champsimtrace.xz
.xz
BTB has LRU replacement policy
ITLB has LRU replacement policy
DTLB has LRU replacement policy
STLB has LRU replacement policy
L1I has LRU replacement policy
CPU 0 L2C next line prefetcher
L1D has LRU replacement policy
Initialize SRRIP state for L2C
Initialize DRRIP state for LLC
Heartbeat CPU 0 instructions: 10000001 cycles: 2765567 heartbeat IPC: 3.6159 cumulative IPC: 3.6159 (Simulation time: 0 hr 0 min 38 sec) 
Heartbeat CPU 0 instructions: 20000001 cycles: 5525299 heartbeat IPC: 3.62354 cumulative IPC: 3.61971 (Simulation time: 0 hr 1 min 17 sec) 
Heartbeat CPU 0 instructions: 30000003 cycles: 8282922 heartbeat IPC: 3.62631 cumulative IPC: 3.62191 (Simulation time: 0 hr 1 min 56 sec) 
*** Reached end of trace for Core: 0 Repeating trace: traces/spec2k17/srv_65.champsimtrace.xz
Heartbeat CPU 0 instructions: 40000003 cycles: 11041808 heartbeat IPC: 3.62465 cumulative IPC: 3.6226 (Simulation time: 0 hr 2 min 35 sec) 
Heartbeat CPU 0 instructions: 50000001 cycles: 13801578 heartbeat IPC: 3.62349 cumulative IPC: 3.62277 (Simulation time: 0 hr 3 min 14 sec) 

Warmup complete CPU 0 instructions: 50000001 cycles: 13801578 (Simulation time: 0 hr 3 min 14 sec) 

Heartbeat CPU 0 instructions: 60000003 cycles: 35077941 heartbeat IPC: 0.470005 cumulative IPC: 0.470005 (Simulation time: 0 hr 4 min 16 sec) 
*** Reached end of trace for Core: 0 Repeating trace: traces/spec2k17/srv_65.champsimtrace.xz
Heartbeat CPU 0 instructions: 70000002 cycles: 56622659 heartbeat IPC: 0.464151 cumulative IPC: 0.46706 (Simulation time: 0 hr 5 min 19 sec) 
Heartbeat CPU 0 instructions: 80000003 cycles: 78162505 heartbeat IPC: 0.464256 cumulative IPC: 0.466121 (Simulation time: 0 hr 6 min 22 sec) 
Heartbeat CPU 0 instructions: 90000001 cycles: 99632976 heartbeat IPC: 0.465756 cumulative IPC: 0.46603 (Simulation time: 0 hr 7 min 23 sec) 
*** Reached end of trace for Core: 0 Repeating trace: traces/spec2k17/srv_65.champsimtrace.xz
Heartbeat CPU 0 instructions: 100000002 cycles: 121188872 heartbeat IPC: 0.46391 cumulative IPC: 0.465604 (Simulation time: 0 hr 8 min 26 sec) 
Heartbeat CPU 0 instructions: 110000000 cycles: 142572896 heartbeat IPC: 0.467639 cumulative IPC: 0.465942 (Simulation time: 0 hr 9 min 29 sec) 
Heartbeat CPU 0 instructions: 120000003 cycles: 164157928 heartbeat IPC: 0.463284 cumulative IPC: 0.465561 (Simulation time: 0 hr 10 min 31 sec) 
*** Reached end of trace for Core: 0 Repeating trace: traces/spec2k17/srv_65.champsimtrace.xz
Heartbeat CPU 0 instructions: 130000000 cycles: 185662246 heartbeat IPC: 0.465023 cumulative IPC: 0.465493 (Simulation time: 0 hr 11 min 34 sec) 
Heartbeat CPU 0 instructions: 140000003 cycles: 207091187 heartbeat IPC: 0.466659 cumulative IPC: 0.465623 (Simulation time: 0 hr 12 min 37 sec) 
Heartbeat CPU 0 instructions: 150000001 cycles: 228606348 heartbeat IPC: 0.464788 cumulative IPC: 0.465539 (Simulation time: 0 hr 13 min 38 sec) 
*** Reached end of trace for Core: 0 Repeating trace: traces/spec2k17/srv_65.champsimtrace.xz
Heartbeat CPU 0 instructions: 160000003 cycles: 250001005 heartbeat IPC: 0.467407 cumulative IPC: 0.465708 (Simulation time: 0 hr 14 min 42 sec) 
Heartbeat CPU 0 instructions: 170000002 cycles: 271544463 heartbeat IPC: 0.464178 cumulative IPC: 0.46558 (Simulation time: 0 hr 15 min 46 sec) 
Heartbeat CPU 0 instructions: 180000000 cycles: 293047561 heartbeat IPC: 0.465049 cumulative IPC: 0.465539 (Simulation time: 0 hr 16 min 49 sec) 
*** Reached end of trace for Core: 0 Repeating trace: traces/spec2k17/srv_65.champsimtrace.xz
Heartbeat CPU 0 instructions: 190000003 cycles: 314225740 heartbeat IPC: 0.472184 cumulative IPC: 0.466008 (Simulation time: 0 hr 17 min 52 sec) 
Heartbeat CPU 0 instructions: 200000002 cycles: 335890837 heartbeat IPC: 0.461572 cumulative IPC: 0.465709 (Simulation time: 0 hr 18 min 54 sec) 
Heartbeat CPU 0 instructions: 210000000 cycles: 357441937 heartbeat IPC: 0.464013 cumulative IPC: 0.465603 (Simulation time: 0 hr 19 min 55 sec) 
*** Reached end of trace for Core: 0 Repeating trace: traces/spec2k17/srv_65.champsimtrace.xz
Heartbeat CPU 0 instructions: 220000000 cycles: 378559111 heartbeat IPC: 0.473548 cumulative IPC: 0.466063 (Simulation time: 0 hr 20 min 57 sec) 
Heartbeat CPU 0 instructions: 230000001 cycles: 400129603 heartbeat IPC: 0.463596 cumulative IPC: 0.465925 (Simulation time: 0 hr 22 min 1 sec) 
Heartbeat CPU 0 instructions: 240000000 cycles: 421730259 heartbeat IPC: 0.462949 cumulative IPC: 0.465768 (Simulation time: 0 hr 23 min 2 sec) 
*** Reached end of trace for Core: 0 Repeating trace: traces/spec2k17/srv_65.champsimtrace.xz
Heartbeat CPU 0 instructions: 250000002 cycles: 442904386 heartbeat IPC: 0.472275 cumulative IPC: 0.466089 (Simulation time: 0 hr 24 min 5 sec) 
Finished CPU 0 instructions: 200000001 cycles: 429102808 cumulative IPC: 0.466089 (Simulation time: 0 hr 24 min 5 sec) 

ChampSim completed all CPUs

Region of Interest Statistics

CPU 0 cumulative IPC: 0.466089 instructions: 200000001 cycles: 429102808
ITLB TOTAL     ACCESS:   31221721  HIT:   30419011  MISS:     802710  HIT %:     97.429  MISS %:      2.571   MPKI: 4.01355
ITLB LOAD TRANSLATION ACCESS:   31221721  HIT:   30419011  MISS:     802710  HIT %:     97.429  MISS %:      2.571   MPKI: 4.01355
ITLB PREFETCH  REQUESTED:          0  ISSUED:          0  USEFUL:          0  USELESS:          0
ITLB USEFUL LOAD PREFETCHES:          0 PREFETCH ISSUED TO LOWER LEVEL:          0  ACCURACY: -nan
ITLB TIMELY PREFETCHES:          0 LATE PREFETCHES: 0 DROPPED PREFETCHES: 0
ITLB PREFETCHES SAME FILL-ORIGIN LEVEL: 0 DIFFERENT FILL-ORIGIN LEVEL: 0
ITLB AVERAGE MISS LATENCY: 13.3653 cycles
ITLB RQ	ACCESS:   38106160	FORWARD:          0	MERGED:    6681329	TO_CACHE:   31424831

DTLB TOTAL     ACCESS:   36993709  HIT:   34644843  MISS:    2348866  HIT %:    93.6506  MISS %:    6.34937   MPKI: 11.7443
DTLB LOAD TRANSLATION ACCESS:   36993709  HIT:   34644843  MISS:    2348866  HIT %:    93.6506  MISS %:    6.34937   MPKI: 11.7443
DTLB PREFETCH  REQUESTED:          0  ISSUED:          0  USEFUL:          0  USELESS:          0
DTLB USEFUL LOAD PREFETCHES:          0 PREFETCH ISSUED TO LOWER LEVEL:          0  ACCURACY: -nan
DTLB TIMELY PREFETCHES:          0 LATE PREFETCHES: 0 DROPPED PREFETCHES: 0
DTLB PREFETCHES SAME FILL-ORIGIN LEVEL: 0 DIFFERENT FILL-ORIGIN LEVEL: 0
DTLB AVERAGE MISS LATENCY: 13.787 cycles
DTLB RQ	ACCESS:   47434044	FORWARD:          0	MERGED:   10288265	TO_CACHE:   37145779

STLB TOTAL     ACCESS:    3650193  HIT:    3335445  MISS:     314748  HIT %:    91.3772  MISS %:    8.62278   MPKI: 1.57374
STLB LOAD TRANSLATION ACCESS:    3151576  HIT:    2838236  MISS:     313340  HIT %:    90.0577  MISS %:    9.94233   MPKI: 1.5667
STLB TRANSLATION FROM L1D PREFETCHER ACCESS:     498617  HIT:     497209  MISS:       1408  HIT %:    99.7176  MISS %:   0.282381   MPKI: 0.00704
STLB PREFETCH  REQUESTED:          0  ISSUED:          0  USEFUL:       1229  USELESS:        180
STLB USEFUL LOAD PREFETCHES:       1229 PREFETCH ISSUED TO LOWER LEVEL:          0  ACCURACY: inf
STLB TIMELY PREFETCHES:       1229 LATE PREFETCHES: 30 DROPPED PREFETCHES: 5015
STLB PREFETCHES SAME FILL-ORIGIN LEVEL: 0 DIFFERENT FILL-ORIGIN LEVEL: 0
STLB AVERAGE MISS LATENCY: 46.7283 cycles
STLB RQ	ACCESS:    3734349	FORWARD:          0	MERGED:      78951	TO_CACHE:    3655398

STLB Hit, L1D data hit: 0
STLB Hit, L2C data hit: 0
STLB Hit, LLC data hit: 0
STLB Hit, LLC data miss: 0
STLB STLB hints to L2: 0
L1D TOTAL     ACCESS:   47382737  HIT:   44652015  MISS:    2730722  HIT %:    94.2369  MISS %:    5.76312   MPKI: 13.6536
L1D LOAD      ACCESS:   27441438  HIT:   25412445  MISS:    2028993  HIT %:    92.6061  MISS %:     7.3939   MPKI: 10.145
L1D RFO       ACCESS:   19466904  HIT:   19143934  MISS:     322970  HIT %:    98.3409  MISS %:    1.65907   MPKI: 1.61485
L1D PREFETCH  ACCESS:     474395  HIT:      95636  MISS:     378759  HIT %:    20.1596  MISS %:    79.8404   MPKI: 1.89379
AGUS PREFETCH L1 MISS: 0
L1D PREFETCH  REQUESTED:    1173806  ISSUED:    1173806  USEFUL:     141428  USELESS:     237324
L1D USEFUL LOAD PREFETCHES:     141428 PREFETCH ISSUED TO LOWER LEVEL:     391477  ACCURACY: 36.1268
L1D TIMELY PREFETCHES:     141428 LATE PREFETCHES: 11731 DROPPED PREFETCHES: 5805
L1D PREFETCHES SAME FILL-ORIGIN LEVEL: 391477 DIFFERENT FILL-ORIGIN LEVEL: 0
L1D AVERAGE MISS LATENCY: 1.07415e+06 cycles
L1D RQ	ACCESS:   42003392	FORWARD:          0	MERGED:   14219908	TO_CACHE:   27561380
L1D WQ	ACCESS:   20212215	FORWARD:     222508	MERGED:     339551	TO_CACHE:   19872664
L1D PQ	ACCESS:     591033	FORWARD:          0	MERGED:       7856	TO_CACHE:     582773

L1D UNIQUE REGIONS ACCESSED: 0
L1D REGIONS CONFLICTS: 0
L1D Cross Page Prefetch Requests: 18503
L1D Same Page Prefetch Requests: 728593
L1D ROI Sum of L1D PQ occupancy: 7840322
L1D PREFETCHES PUSHED FROM L2C: 0
L1I TOTAL     ACCESS:   36279973  HIT:   31175539  MISS:    5104434  HIT %:    85.9304  MISS %:    14.0696   MPKI: 25.5222
L1I LOAD      ACCESS:   36279973  HIT:   31175539  MISS:    5104434  HIT %:    85.9304  MISS %:    14.0696   MPKI: 25.5222
L1I PREFETCH  REQUESTED:          0  ISSUED:          0  USEFUL:          0  USELESS:          0
L1I USEFUL LOAD PREFETCHES:          0 PREFETCH ISSUED TO LOWER LEVEL:          0  ACCURACY: -nan
L1I TIMELY PREFETCHES:          0 LATE PREFETCHES: 0 DROPPED PREFETCHES: 0
L1I PREFETCHES SAME FILL-ORIGIN LEVEL: 0 DIFFERENT FILL-ORIGIN LEVEL: 0
L1I AVERAGE MISS LATENCY: 25.0004 cycles
L1I RQ	ACCESS:   57188414	FORWARD:          0	MERGED:   19082254	TO_CACHE:   38106160

BTB TOTAL     ACCESS:   22272077  HIT:   18096398  MISS:    4175679  HIT %:    81.2515  MISS %:    18.7485   MPKI: 20.8784
BTB BRANCH_DIRECT_JUMP	ACCESS:    1788227  HIT:    1559566  MISS:     228661
BTB BRANCH_INDIRECT	ACCESS:    9557706  HIT:    7536372  MISS:    2021334
BTB BRANCH_CONDITIONAL	ACCESS:    4545175  HIT:    4171652  MISS:     373523
BTB BRANCH_DIRECT_CALL	ACCESS:    2503115  HIT:    2056656  MISS:     446459
BTB BRANCH_INDIRECT_CALL	ACCESS:     686553  HIT:     645372  MISS:      41181
BTB BRANCH_RETURN	ACCESS:    3191301  HIT:    2126780  MISS:    1064521
BTB BRANCH_OTHER ACCESS:          0  HIT:          0  MISS:          0

L2C TOTAL     ACCESS:    9283881  HIT:    6030539  MISS:    3253342  HIT %:    64.9571  MISS %:    35.0429   MPKI: 16.2667
L2C LOAD      ACCESS:    7121578  HIT:    4450126  MISS:    2671452  HIT %:    62.4879  MISS %:    37.5121   MPKI: 13.3573
L2C DATA LOAD MPKI: 4.23027
L2C INSTRUCTION LOAD MPKI: 9.12698
L2C RFO       ACCESS:     321983  HIT:     178763  MISS:     143220  HIT %:    55.5194  MISS %:    44.4806   MPKI: 0.7161
L2C PREFETCH  ACCESS:     391476  HIT:     173422  MISS:     218054  HIT %:    44.2995  MISS %:    55.7005   MPKI: 1.09027
AGUS PREFETCH L1 MISS: 0
L2C DATA PREFETCH MPKI: 1.09027
L2C INSTRUCTION PREFETCH MPKI: 0
L2C WRITEBACK ACCESS:    1025090  HIT:     976375  MISS:      48715  HIT %:    95.2477  MISS %:    4.75227   MPKI: 0.243575
L2C LOAD TRANSLATION ACCESS:     414694  HIT:     245134  MISS:     169560  HIT %:     59.112  MISS %:     40.888   MPKI: 0.8478
L2C TRANSLATION FROM L1D PREFETCHER ACCESS:       9060  HIT:       6719  MISS:       2341  HIT %:    74.1611  MISS %:    25.8389   MPKI: 0.011705
L2C PREFETCH  REQUESTED:          0  ISSUED:          0  USEFUL:      17643  USELESS:     202745
L2C USEFUL LOAD PREFETCHES:      17643 PREFETCH ISSUED TO LOWER LEVEL:     218054  ACCURACY: 8.09112
L2C TIMELY PREFETCHES:      17643 LATE PREFETCHES: 0 DROPPED PREFETCHES: 0
L2C PREFETCHES SAME FILL-ORIGIN LEVEL: 0 DIFFERENT FILL-ORIGIN LEVEL: 0
L2C AVERAGE MISS LATENCY: 43.7245 cycles
L2C RQ	ACCESS:    7867433	FORWARD:          0	MERGED:          0	TO_CACHE:    7867315
L2C WQ	ACCESS:    1025090	FORWARD:        119	MERGED:          0	TO_CACHE:    1025090
L2C PQ	ACCESS:     391477	FORWARD:          0	MERGED:          0	TO_CACHE:     391476

L2C Instructions Evicting Data 698413
L2C Translations Evicting Data 67246
L2C Data Evicting Data 471654
L2C Instructions Evicting Instructions 1032381
L2C Translations Evicting Instructions 95483
L2C Data Evicting Instructions 669714
L2C Instructions Evicting Translations 94603
L2C Translations Evicting Translations 9172
L2C Data Evicting Translations 65961
L2C Dense regions hint from L2: 0
PSCL5 TOTAL     ACCESS:     319763  HIT:     319763  MISS:          0  HIT %:        100  MISS %:          0   MPKI: 0
PSCL5 LOAD TRANSLATION ACCESS:     313310  HIT:     313310  MISS:          0  HIT %:        100  MISS %:          0   MPKI: 0
PSCL5 TRANSLATION FROM L1D PREFETCHER ACCESS:       6453  HIT:       6453  MISS:          0  HIT %:        100  MISS %:          0   MPKI: 0
PSCL5 PREFETCH  REQUESTED:          0  ISSUED:          0  USEFUL:          0  USELESS:          0
PSCL5 USEFUL LOAD PREFETCHES:          0 PREFETCH ISSUED TO LOWER LEVEL:          0  ACCURACY: -nan
PSCL5 TIMELY PREFETCHES:          0 LATE PREFETCHES: 0 DROPPED PREFETCHES: 0
PSCL5 PREFETCHES SAME FILL-ORIGIN LEVEL: 0 DIFFERENT FILL-ORIGIN LEVEL: 0

PSCL4 TOTAL     ACCESS:     311407  HIT:     309855  MISS:       1552  HIT %:    99.5016  MISS %:   0.498383   MPKI: 0.00776
PSCL4 LOAD TRANSLATION ACCESS:     306509  HIT:     304957  MISS:       1552  HIT %:    99.4937  MISS %:   0.506347   MPKI: 0.00776
PSCL4 TRANSLATION FROM L1D PREFETCHER ACCESS:       4898  HIT:       4898  MISS:          0  HIT %:        100  MISS %:          0   MPKI: 0
PSCL4 PREFETCH  REQUESTED:          0  ISSUED:          0  USEFUL:          0  USELESS:          0
PSCL4 USEFUL LOAD PREFETCHES:          0 PREFETCH ISSUED TO LOWER LEVEL:          0  ACCURACY: -nan
PSCL4 TIMELY PREFETCHES:          0 LATE PREFETCHES: 0 DROPPED PREFETCHES: 0
PSCL4 PREFETCHES SAME FILL-ORIGIN LEVEL: 0 DIFFERENT FILL-ORIGIN LEVEL: 0

PSCL3 TOTAL     ACCESS:     318557  HIT:     317005  MISS:       1552  HIT %:    99.5128  MISS %:   0.487197   MPKI: 0.00776
PSCL3 LOAD TRANSLATION ACCESS:     312130  HIT:     310578  MISS:       1552  HIT %:    99.5028  MISS %:   0.497229   MPKI: 0.00776
PSCL3 TRANSLATION FROM L1D PREFETCHER ACCESS:       6427  HIT:       6427  MISS:          0  HIT %:        100  MISS %:          0   MPKI: 0
PSCL3 PREFETCH  REQUESTED:          0  ISSUED:          0  USEFUL:          0  USELESS:          0
PSCL3 USEFUL LOAD PREFETCHES:          0 PREFETCH ISSUED TO LOWER LEVEL:          0  ACCURACY: -nan
PSCL3 TIMELY PREFETCHES:          0 LATE PREFETCHES: 0 DROPPED PREFETCHES: 0
PSCL3 PREFETCHES SAME FILL-ORIGIN LEVEL: 0 DIFFERENT FILL-ORIGIN LEVEL: 0

PSCL2 TOTAL     ACCESS:     317501  HIT:     218876  MISS:      98625  HIT %:    68.9371  MISS %:    31.0629   MPKI: 0.493125
PSCL2 LOAD TRANSLATION ACCESS:     313603  HIT:     214978  MISS:      98625  HIT %:     68.551  MISS %:     31.449   MPKI: 0.493125
PSCL2 TRANSLATION FROM L1D PREFETCHER ACCESS:       3898  HIT:       3898  MISS:          0  HIT %:        100  MISS %:          0   MPKI: 0
PSCL2 PREFETCH  REQUESTED:          0  ISSUED:          0  USEFUL:          0  USELESS:          0
PSCL2 USEFUL LOAD PREFETCHES:          0 PREFETCH ISSUED TO LOWER LEVEL:          0  ACCURACY: -nan
PSCL2 TIMELY PREFETCHES:          0 LATE PREFETCHES: 0 DROPPED PREFETCHES: 0
PSCL2 PREFETCHES SAME FILL-ORIGIN LEVEL: 0 DIFFERENT FILL-ORIGIN LEVEL: 0

LLC TOTAL     ACCESS:    3635353  HIT:    3329439  MISS:     305914  HIT %:     91.585  MISS %:    8.41497   MPKI: 1.52957
LLC LOAD      ACCESS:    2671450  HIT:    2475456  MISS:     195994  HIT %:    92.6634  MISS %:    7.33661   MPKI: 0.97997
LLC RFO       ACCESS:     143220  HIT:      96505  MISS:      46715  HIT %:    67.3823  MISS %:    32.6177   MPKI: 0.233575
LLC PREFETCH  ACCESS:     218054  HIT:     167686  MISS:      50368  HIT %:    76.9011  MISS %:    23.0989   MPKI: 0.25184
AGUS PREFETCH L1 MISS: 0
LLC WRITEBACK ACCESS:     430728  HIT:     428599  MISS:       2129  HIT %:    99.5057  MISS %:   0.494279   MPKI: 0.010645
LLC LOAD TRANSLATION ACCESS:     169560  HIT:     158928  MISS:      10632  HIT %:    93.7297  MISS %:    6.27035   MPKI: 0.05316
LLC TRANSLATION FROM L1D PREFETCHER ACCESS:       2341  HIT:       2265  MISS:         76  HIT %:    96.7535  MISS %:    3.24648   MPKI: 0.00038
LLC PREFETCH  REQUESTED:          0  ISSUED:          0  USEFUL:       2687  USELESS:      48320
LLC USEFUL LOAD PREFETCHES:       2687 PREFETCH ISSUED TO LOWER LEVEL:      50368  ACCURACY: 5.33474
LLC TIMELY PREFETCHES:       2687 LATE PREFETCHES: 0 DROPPED PREFETCHES: 0
LLC PREFETCHES SAME FILL-ORIGIN LEVEL: 0 DIFFERENT FILL-ORIGIN LEVEL: 0
LLC AVERAGE MISS LATENCY: 150.731 cycles
LLC RQ	ACCESS:    2986573	FORWARD:          0	MERGED:          0	TO_CACHE:    2986571
LLC WQ	ACCESS:     430728	FORWARD:          2	MERGED:          0	TO_CACHE:     430728
LLC PQ	ACCESS:     218054	FORWARD:          0	MERGED:          0	TO_CACHE:     218054

LLC Dense regions hint to LLC: 0

RAW hits: 2824003
Loads Generated: 44827397
Loads sent to L1D: 42003392
Stores Generated: 20212209
Stores sent to L1D: 20212215
Major fault: 0 Minor fault: 5727
Allocated PAGES: 5727
CPU 0 L1d next line prefetcher final stats

DRAM Statistics
 CHANNEL 0
 RQ ROW_BUFFER_HIT:      61550  ROW_BUFFER_MISS:     242235
 DBUS_CONGESTED:        181
 WQ ROW_BUFFER_HIT:      24900  ROW_BUFFER_MISS:     188201  FULL:          0

 AVG_CONGESTED_CYCLE: 4
 All warmup complete: 2
Channel 0 Bank busy for read cycles: 0
Channel 0 Bank busy for write cycles: 0
Channel 0
Rank 0
0banks busy for read cycles: 377825976
0banks busy for write cycles: 108494
1banks busy for read cycles: 22015475
1banks busy for write cycles: 13750083
2banks busy for read cycles: 5664747
2banks busy for write cycles: 4412755
3banks busy for read cycles: 1043094
3banks busy for write cycles: 1519163
4banks busy for read cycles: 291110
4banks busy for write cycles: 797650
5banks busy for read cycles: 113101
5banks busy for write cycles: 523078
6banks busy for read cycles: 60575
6banks busy for write cycles: 351477
7banks busy for read cycles: 51419
7banks busy for write cycles: 270063
8banks busy for read cycles: 60763
8banks busy for write cycles: 243786

CPU 0 Branch Prediction Accuracy: 99.8638% MPKI: 0.244845 Average ROB Occupancy at Mispredict: 55.7556
Branch types
NOT_BRANCH: 164053662 82.0268%
BRANCH_DIRECT_JUMP: 1788227 0.894113%
BRANCH_INDIRECT: 9557706 4.77885%
BRANCH_CONDITIONAL: 18219125 9.10956%
BRANCH_DIRECT_CALL: 2503115 1.25156%
BRANCH_INDIRECT_CALL: 686553 0.343276%
BRANCH_RETURN: 3191301 1.59565%
BRANCH_OTHER: 0 0%

DRAM PAGES: 1048576
Allocated PAGES: 5727
