
*** ChampSim Multicore Out-of-Order Simulator ***

Warmup Instructions: 50000000
Simulation Instructions: 200000000
Number of CPUs: 1
LLC sets: 2048
LLC ways: 16
Off-chip DRAM Size: 4096 MB Channels: 1 Width: 64-bit Data Rate: 6400 MT/s
CPU 0 runs traces/spec2k17/srv_3.champsimtrace.xz
.xz
BTB has LRU replacement policy
ITLB has LRU replacement policy
DTLB has LRU replacement policy
STLB has LRU replacement policy
L1I has LRU replacement policy
CPU 0 L2C next line prefetcher
L1D has LRU replacement policy
Initialize SRRIP state for L2C
Initialize DRRIP state for LLC
Heartbeat CPU 0 instructions: 10000003 cycles: 2771258 heartbeat IPC: 3.60847 cumulative IPC: 3.60847 (Simulation time: 0 hr 0 min 39 sec) 
Heartbeat CPU 0 instructions: 20000001 cycles: 5537863 heartbeat IPC: 3.61454 cumulative IPC: 3.6115 (Simulation time: 0 hr 1 min 18 sec) 
Heartbeat CPU 0 instructions: 30000000 cycles: 8306169 heartbeat IPC: 3.61232 cumulative IPC: 3.61177 (Simulation time: 0 hr 1 min 56 sec) 
*** Reached end of trace for Core: 0 Repeating trace: traces/spec2k17/srv_3.champsimtrace.xz
Heartbeat CPU 0 instructions: 40000003 cycles: 11067454 heartbeat IPC: 3.6215 cumulative IPC: 3.6142 (Simulation time: 0 hr 2 min 35 sec) 
Heartbeat CPU 0 instructions: 50000002 cycles: 13834627 heartbeat IPC: 3.6138 cumulative IPC: 3.61412 (Simulation time: 0 hr 3 min 12 sec) 

Warmup complete CPU 0 instructions: 50000002 cycles: 13834627 (Simulation time: 0 hr 3 min 12 sec) 

Heartbeat CPU 0 instructions: 60000001 cycles: 35737019 heartbeat IPC: 0.456571 cumulative IPC: 0.456571 (Simulation time: 0 hr 4 min 14 sec) 
*** Reached end of trace for Core: 0 Repeating trace: traces/spec2k17/srv_3.champsimtrace.xz
Heartbeat CPU 0 instructions: 70000000 cycles: 57375817 heartbeat IPC: 0.462133 cumulative IPC: 0.459335 (Simulation time: 0 hr 5 min 14 sec) 
Heartbeat CPU 0 instructions: 80000000 cycles: 79749687 heartbeat IPC: 0.44695 cumulative IPC: 0.455131 (Simulation time: 0 hr 6 min 19 sec) 
Heartbeat CPU 0 instructions: 90000000 cycles: 101448576 heartbeat IPC: 0.460853 cumulative IPC: 0.456548 (Simulation time: 0 hr 7 min 20 sec) 
*** Reached end of trace for Core: 0 Repeating trace: traces/spec2k17/srv_3.champsimtrace.xz
Heartbeat CPU 0 instructions: 100000003 cycles: 123191450 heartbeat IPC: 0.459921 cumulative IPC: 0.457219 (Simulation time: 0 hr 8 min 21 sec) 
Heartbeat CPU 0 instructions: 110000000 cycles: 145184196 heartbeat IPC: 0.454695 cumulative IPC: 0.456796 (Simulation time: 0 hr 9 min 24 sec) 
Heartbeat CPU 0 instructions: 120000001 cycles: 167147498 heartbeat IPC: 0.455305 cumulative IPC: 0.456583 (Simulation time: 0 hr 10 min 26 sec) 
*** Reached end of trace for Core: 0 Repeating trace: traces/spec2k17/srv_3.champsimtrace.xz
Heartbeat CPU 0 instructions: 130000002 cycles: 188894244 heartbeat IPC: 0.459839 cumulative IPC: 0.456987 (Simulation time: 0 hr 11 min 31 sec) 
Heartbeat CPU 0 instructions: 140000001 cycles: 210998257 heartbeat IPC: 0.452406 cumulative IPC: 0.456474 (Simulation time: 0 hr 12 min 34 sec) 
Heartbeat CPU 0 instructions: 150000000 cycles: 232761583 heartbeat IPC: 0.459489 cumulative IPC: 0.456773 (Simulation time: 0 hr 13 min 37 sec) 
*** Reached end of trace for Core: 0 Repeating trace: traces/spec2k17/srv_3.champsimtrace.xz
Heartbeat CPU 0 instructions: 160000002 cycles: 254395390 heartbeat IPC: 0.46224 cumulative IPC: 0.457265 (Simulation time: 0 hr 14 min 41 sec) 
Heartbeat CPU 0 instructions: 170000003 cycles: 276311870 heartbeat IPC: 0.456278 cumulative IPC: 0.457182 (Simulation time: 0 hr 15 min 45 sec) 
Heartbeat CPU 0 instructions: 180000002 cycles: 298122391 heartbeat IPC: 0.458494 cumulative IPC: 0.457283 (Simulation time: 0 hr 16 min 48 sec) 
*** Reached end of trace for Core: 0 Repeating trace: traces/spec2k17/srv_3.champsimtrace.xz
Heartbeat CPU 0 instructions: 190000002 cycles: 320066943 heartbeat IPC: 0.455694 cumulative IPC: 0.457169 (Simulation time: 0 hr 17 min 53 sec) 
Heartbeat CPU 0 instructions: 200000001 cycles: 341700523 heartbeat IPC: 0.462244 cumulative IPC: 0.457504 (Simulation time: 0 hr 18 min 55 sec) 
Heartbeat CPU 0 instructions: 210000001 cycles: 363497194 heartbeat IPC: 0.458786 cumulative IPC: 0.457584 (Simulation time: 0 hr 20 min 1 sec) 
*** Reached end of trace for Core: 0 Repeating trace: traces/spec2k17/srv_3.champsimtrace.xz
Heartbeat CPU 0 instructions: 220000000 cycles: 385461732 heartbeat IPC: 0.455279 cumulative IPC: 0.457448 (Simulation time: 0 hr 21 min 3 sec) 
Heartbeat CPU 0 instructions: 230000001 cycles: 407102344 heartbeat IPC: 0.462094 cumulative IPC: 0.457703 (Simulation time: 0 hr 22 min 7 sec) 
Heartbeat CPU 0 instructions: 240000000 cycles: 429150446 heartbeat IPC: 0.453554 cumulative IPC: 0.457483 (Simulation time: 0 hr 23 min 10 sec) 
*** Reached end of trace for Core: 0 Repeating trace: traces/spec2k17/srv_3.champsimtrace.xz
Heartbeat CPU 0 instructions: 250000000 cycles: 450951819 heartbeat IPC: 0.458687 cumulative IPC: 0.457543 (Simulation time: 0 hr 24 min 13 sec) 
Finished CPU 0 instructions: 200000002 cycles: 437117193 cumulative IPC: 0.457543 (Simulation time: 0 hr 24 min 13 sec) 

ChampSim completed all CPUs

Region of Interest Statistics

CPU 0 cumulative IPC: 0.457543 instructions: 200000002 cycles: 437117193
ITLB TOTAL     ACCESS:   31554685  HIT:   30784539  MISS:     770146  HIT %:    97.5593  MISS %:    2.44067   MPKI: 3.85073
ITLB LOAD TRANSLATION ACCESS:   31554685  HIT:   30784539  MISS:     770146  HIT %:    97.5593  MISS %:    2.44067   MPKI: 3.85073
ITLB PREFETCH  REQUESTED:          0  ISSUED:          0  USEFUL:          0  USELESS:          0
ITLB USEFUL LOAD PREFETCHES:          0 PREFETCH ISSUED TO LOWER LEVEL:          0  ACCURACY: -nan
ITLB TIMELY PREFETCHES:          0 LATE PREFETCHES: 0 DROPPED PREFETCHES: 0
ITLB PREFETCHES SAME FILL-ORIGIN LEVEL: 0 DIFFERENT FILL-ORIGIN LEVEL: 0
ITLB AVERAGE MISS LATENCY: 13.8671 cycles
ITLB RQ	ACCESS:   38422202	FORWARD:          0	MERGED:    6673513	TO_CACHE:   31748689

DTLB TOTAL     ACCESS:   37056496  HIT:   34675157  MISS:    2381339  HIT %:    93.5738  MISS %:    6.42624   MPKI: 11.9067
DTLB LOAD TRANSLATION ACCESS:   37056496  HIT:   34675157  MISS:    2381339  HIT %:    93.5738  MISS %:    6.42624   MPKI: 11.9067
DTLB PREFETCH  REQUESTED:          0  ISSUED:          0  USEFUL:          0  USELESS:          0
DTLB USEFUL LOAD PREFETCHES:          0 PREFETCH ISSUED TO LOWER LEVEL:          0  ACCURACY: -nan
DTLB TIMELY PREFETCHES:          0 LATE PREFETCHES: 0 DROPPED PREFETCHES: 0
DTLB PREFETCHES SAME FILL-ORIGIN LEVEL: 0 DIFFERENT FILL-ORIGIN LEVEL: 0
DTLB AVERAGE MISS LATENCY: 13.9939 cycles
DTLB RQ	ACCESS:   47556851	FORWARD:          0	MERGED:   10354953	TO_CACHE:   37201898

STLB TOTAL     ACCESS:    3635695  HIT:    3304463  MISS:     331232  HIT %:    90.8894  MISS %:    9.11056   MPKI: 1.65616
STLB LOAD TRANSLATION ACCESS:    3151485  HIT:    2821725  MISS:     329760  HIT %:    89.5364  MISS %:    10.4636   MPKI: 1.6488
STLB TRANSLATION FROM L1D PREFETCHER ACCESS:     484210  HIT:     482738  MISS:       1472  HIT %:     99.696  MISS %:      0.304   MPKI: 0.00736
STLB PREFETCH  REQUESTED:          0  ISSUED:          0  USEFUL:       1233  USELESS:        239
STLB USEFUL LOAD PREFETCHES:       1233 PREFETCH ISSUED TO LOWER LEVEL:          0  ACCURACY: inf
STLB TIMELY PREFETCHES:       1233 LATE PREFETCHES: 24 DROPPED PREFETCHES: 4985
STLB PREFETCHES SAME FILL-ORIGIN LEVEL: 0 DIFFERENT FILL-ORIGIN LEVEL: 0
STLB AVERAGE MISS LATENCY: 47.1254 cycles
STLB RQ	ACCESS:    3714437	FORWARD:          0	MERGED:      73626	TO_CACHE:    3640811

STLB Hit, L1D data hit: 0
STLB Hit, L2C data hit: 0
STLB Hit, LLC data hit: 0
STLB Hit, LLC data miss: 0
STLB STLB hints to L2: 0
L1D TOTAL     ACCESS:   47507211  HIT:   44802734  MISS:    2704477  HIT %:    94.3072  MISS %:    5.69277   MPKI: 13.5224
L1D LOAD      ACCESS:   27496204  HIT:   25484579  MISS:    2011625  HIT %:     92.684  MISS %:    7.31601   MPKI: 10.0581
L1D RFO       ACCESS:   19550888  HIT:   19226221  MISS:     324667  HIT %:    98.3394  MISS %:    1.66063   MPKI: 1.62333
L1D PREFETCH  ACCESS:     460119  HIT:      91934  MISS:     368185  HIT %:    19.9805  MISS %:    80.0195   MPKI: 1.84092
AGUS PREFETCH L1 MISS: 0
L1D PREFETCH  REQUESTED:    1132509  ISSUED:    1132509  USEFUL:     137679  USELESS:     230494
L1D USEFUL LOAD PREFETCHES:     137679 PREFETCH ISSUED TO LOWER LEVEL:     380755  ACCURACY: 36.1595
L1D TIMELY PREFETCHES:     137679 LATE PREFETCHES: 11672 DROPPED PREFETCHES: 5775
L1D PREFETCHES SAME FILL-ORIGIN LEVEL: 380755 DIFFERENT FILL-ORIGIN LEVEL: 0
L1D AVERAGE MISS LATENCY: 1.07357e+06 cycles
L1D RQ	ACCESS:   42148690	FORWARD:          0	MERGED:   14302313	TO_CACHE:   27610313
L1D WQ	ACCESS:   20247469	FORWARD:     236496	MERGED:     300931	TO_CACHE:   19946538
L1D PQ	ACCESS:     569557	FORWARD:          0	MERGED:       6173	TO_CACHE:     562952

L1D UNIQUE REGIONS ACCESSED: 0
L1D REGIONS CONFLICTS: 0
L1D Cross Page Prefetch Requests: 19039
L1D Same Page Prefetch Requests: 704470
L1D ROI Sum of L1D PQ occupancy: 7584836
L1D PREFETCHES PUSHED FROM L2C: 0
L1I TOTAL     ACCESS:   36625425  HIT:   31520863  MISS:    5104562  HIT %:    86.0628  MISS %:    13.9372   MPKI: 25.5228
L1I LOAD      ACCESS:   36625425  HIT:   31520863  MISS:    5104562  HIT %:    86.0628  MISS %:    13.9372   MPKI: 25.5228
L1I PREFETCH  REQUESTED:          0  ISSUED:          0  USEFUL:          0  USELESS:          0
L1I USEFUL LOAD PREFETCHES:          0 PREFETCH ISSUED TO LOWER LEVEL:          0  ACCURACY: -nan
L1I TIMELY PREFETCHES:          0 LATE PREFETCHES: 0 DROPPED PREFETCHES: 0
L1I PREFETCHES SAME FILL-ORIGIN LEVEL: 0 DIFFERENT FILL-ORIGIN LEVEL: 0
L1I AVERAGE MISS LATENCY: 25.3717 cycles
L1I RQ	ACCESS:   57282819	FORWARD:          0	MERGED:   18860617	TO_CACHE:   38422202

BTB TOTAL     ACCESS:   22232128  HIT:   17878921  MISS:    4353207  HIT %:    80.4193  MISS %:    19.5807   MPKI: 21.766
BTB BRANCH_DIRECT_JUMP	ACCESS:    1728930  HIT:    1486091  MISS:     242839
BTB BRANCH_INDIRECT	ACCESS:    9451764  HIT:    7328366  MISS:    2123398
BTB BRANCH_CONDITIONAL	ACCESS:    4727495  HIT:    4325130  MISS:     402365
BTB BRANCH_DIRECT_CALL	ACCESS:    2474151  HIT:    1996074  MISS:     478077
BTB BRANCH_INDIRECT_CALL	ACCESS:     687640  HIT:     649686  MISS:      37954
BTB BRANCH_RETURN	ACCESS:    3162148  HIT:    2093574  MISS:    1068574
BTB BRANCH_OTHER ACCESS:          0  HIT:          0  MISS:          0

L2C TOTAL     ACCESS:    9273027  HIT:    5995423  MISS:    3277604  HIT %:    64.6544  MISS %:    35.3456   MPKI: 16.388
L2C LOAD      ACCESS:    7104357  HIT:    4424872  MISS:    2679485  HIT %:    62.2839  MISS %:    37.7161   MPKI: 13.3974
L2C DATA LOAD MPKI: 4.19919
L2C INSTRUCTION LOAD MPKI: 9.19823
L2C RFO       ACCESS:     323768  HIT:     181010  MISS:     142758  HIT %:    55.9073  MISS %:    44.0927   MPKI: 0.71379
L2C PREFETCH  ACCESS:     380755  HIT:     164170  MISS:     216585  HIT %:     43.117  MISS %:     56.883   MPKI: 1.08292
AGUS PREFETCH L1 MISS: 0
L2C DATA PREFETCH MPKI: 1.08292
L2C INSTRUCTION PREFETCH MPKI: 0
L2C WRITEBACK ACCESS:    1020643  HIT:     967899  MISS:      52744  HIT %:    94.8323  MISS %:    5.16772   MPKI: 0.26372
L2C LOAD TRANSLATION ACCESS:     434444  HIT:     250335  MISS:     184109  HIT %:    57.6219  MISS %:    42.3781   MPKI: 0.920545
L2C TRANSLATION FROM L1D PREFETCHER ACCESS:       9060  HIT:       7137  MISS:       1923  HIT %:    78.7748  MISS %:    21.2252   MPKI: 0.009615
L2C PREFETCH  REQUESTED:          0  ISSUED:          0  USEFUL:      14618  USELESS:     203923
L2C USEFUL LOAD PREFETCHES:      14618 PREFETCH ISSUED TO LOWER LEVEL:     216585  ACCURACY: 6.74931
L2C TIMELY PREFETCHES:      14618 LATE PREFETCHES: 0 DROPPED PREFETCHES: 0
L2C PREFETCHES SAME FILL-ORIGIN LEVEL: 0 DIFFERENT FILL-ORIGIN LEVEL: 0
L2C AVERAGE MISS LATENCY: 44.1014 cycles
L2C RQ	ACCESS:    7871791	FORWARD:          0	MERGED:          0	TO_CACHE:    7871632
L2C WQ	ACCESS:    1020643	FORWARD:        159	MERGED:          0	TO_CACHE:    1020643
L2C PQ	ACCESS:     380755	FORWARD:          0	MERGED:          0	TO_CACHE:     380755

L2C Instructions Evicting Data 690249
L2C Translations Evicting Data 69648
L2C Data Evicting Data 472043
L2C Instructions Evicting Instructions 1045797
L2C Translations Evicting Instructions 106263
L2C Data Evicting Instructions 657394
L2C Instructions Evicting Translations 103600
L2C Translations Evicting Translations 10121
L2C Data Evicting Translations 69745
L2C Dense regions hint from L2: 0
PSCL5 TOTAL     ACCESS:     336217  HIT:     336217  MISS:          0  HIT %:        100  MISS %:          0   MPKI: 0
PSCL5 LOAD TRANSLATION ACCESS:     329736  HIT:     329736  MISS:          0  HIT %:        100  MISS %:          0   MPKI: 0
PSCL5 TRANSLATION FROM L1D PREFETCHER ACCESS:       6481  HIT:       6481  MISS:          0  HIT %:        100  MISS %:          0   MPKI: 0
PSCL5 PREFETCH  REQUESTED:          0  ISSUED:          0  USEFUL:          0  USELESS:          0
PSCL5 USEFUL LOAD PREFETCHES:          0 PREFETCH ISSUED TO LOWER LEVEL:          0  ACCURACY: -nan
PSCL5 TIMELY PREFETCHES:          0 LATE PREFETCHES: 0 DROPPED PREFETCHES: 0
PSCL5 PREFETCHES SAME FILL-ORIGIN LEVEL: 0 DIFFERENT FILL-ORIGIN LEVEL: 0

PSCL4 TOTAL     ACCESS:     283669  HIT:     283492  MISS:        177  HIT %:    99.9376  MISS %:  0.0623967   MPKI: 0.000885
PSCL4 LOAD TRANSLATION ACCESS:     277902  HIT:     277725  MISS:        177  HIT %:    99.9363  MISS %:  0.0636915   MPKI: 0.000885
PSCL4 TRANSLATION FROM L1D PREFETCHER ACCESS:       5767  HIT:       5767  MISS:          0  HIT %:        100  MISS %:          0   MPKI: 0
PSCL4 PREFETCH  REQUESTED:          0  ISSUED:          0  USEFUL:          0  USELESS:          0
PSCL4 USEFUL LOAD PREFETCHES:          0 PREFETCH ISSUED TO LOWER LEVEL:          0  ACCURACY: -nan
PSCL4 TIMELY PREFETCHES:          0 LATE PREFETCHES: 0 DROPPED PREFETCHES: 0
PSCL4 PREFETCHES SAME FILL-ORIGIN LEVEL: 0 DIFFERENT FILL-ORIGIN LEVEL: 0

PSCL3 TOTAL     ACCESS:     335791  HIT:     335261  MISS:        530  HIT %:    99.8422  MISS %:   0.157836   MPKI: 0.00265
PSCL3 LOAD TRANSLATION ACCESS:     329310  HIT:     328780  MISS:        530  HIT %:    99.8391  MISS %:   0.160943   MPKI: 0.00265
PSCL3 TRANSLATION FROM L1D PREFETCHER ACCESS:       6481  HIT:       6481  MISS:          0  HIT %:        100  MISS %:          0   MPKI: 0
PSCL3 PREFETCH  REQUESTED:          0  ISSUED:          0  USEFUL:          0  USELESS:          0
PSCL3 USEFUL LOAD PREFETCHES:          0 PREFETCH ISSUED TO LOWER LEVEL:          0  ACCURACY: -nan
PSCL3 TIMELY PREFETCHES:          0 LATE PREFETCHES: 0 DROPPED PREFETCHES: 0
PSCL3 PREFETCHES SAME FILL-ORIGIN LEVEL: 0 DIFFERENT FILL-ORIGIN LEVEL: 0

PSCL2 TOTAL     ACCESS:     333893  HIT:     229637  MISS:     104256  HIT %:    68.7756  MISS %:    31.2244   MPKI: 0.52128
PSCL2 LOAD TRANSLATION ACCESS:     329991  HIT:     225735  MISS:     104256  HIT %:    68.4064  MISS %:    31.5936   MPKI: 0.52128
PSCL2 TRANSLATION FROM L1D PREFETCHER ACCESS:       3902  HIT:       3902  MISS:          0  HIT %:        100  MISS %:          0   MPKI: 0
PSCL2 PREFETCH  REQUESTED:          0  ISSUED:          0  USEFUL:          0  USELESS:          0
PSCL2 USEFUL LOAD PREFETCHES:          0 PREFETCH ISSUED TO LOWER LEVEL:          0  ACCURACY: -nan
PSCL2 TIMELY PREFETCHES:          0 LATE PREFETCHES: 0 DROPPED PREFETCHES: 0
PSCL2 PREFETCHES SAME FILL-ORIGIN LEVEL: 0 DIFFERENT FILL-ORIGIN LEVEL: 0

LLC TOTAL     ACCESS:    3651767  HIT:    3333221  MISS:     318546  HIT %:    91.2769  MISS %:    8.72306   MPKI: 1.59273
LLC LOAD      ACCESS:    2679479  HIT:    2467491  MISS:     211988  HIT %:    92.0885  MISS %:    7.91154   MPKI: 1.05994
LLC RFO       ACCESS:     142758  HIT:      97808  MISS:      44950  HIT %:    68.5131  MISS %:    31.4869   MPKI: 0.22475
LLC PREFETCH  ACCESS:     216584  HIT:     169273  MISS:      47311  HIT %:    78.1558  MISS %:    21.8442   MPKI: 0.236555
AGUS PREFETCH L1 MISS: 0
LLC WRITEBACK ACCESS:     426914  HIT:     424851  MISS:       2063  HIT %:    99.5168  MISS %:   0.483235   MPKI: 0.010315
LLC LOAD TRANSLATION ACCESS:     184109  HIT:     171962  MISS:      12147  HIT %:    93.4023  MISS %:    6.59772   MPKI: 0.060735
LLC TRANSLATION FROM L1D PREFETCHER ACCESS:       1923  HIT:       1836  MISS:         87  HIT %:    95.4758  MISS %:    4.52418   MPKI: 0.000435
LLC PREFETCH  REQUESTED:          0  ISSUED:          0  USEFUL:       1602  USELESS:      46417
LLC USEFUL LOAD PREFETCHES:       1602 PREFETCH ISSUED TO LOWER LEVEL:      47311  ACCURACY: 3.3861
LLC TIMELY PREFETCHES:       1602 LATE PREFETCHES: 0 DROPPED PREFETCHES: 0
LLC PREFETCHES SAME FILL-ORIGIN LEVEL: 0 DIFFERENT FILL-ORIGIN LEVEL: 0
LLC AVERAGE MISS LATENCY: 150.057 cycles
LLC RQ	ACCESS:    3008276	FORWARD:          0	MERGED:          0	TO_CACHE:    3008270
LLC WQ	ACCESS:     426914	FORWARD:          7	MERGED:          0	TO_CACHE:     426914
LLC PQ	ACCESS:     216585	FORWARD:          0	MERGED:          0	TO_CACHE:     216584

LLC Dense regions hint to LLC: 0

RAW hits: 2787510
Loads Generated: 44936202
Loads sent to L1D: 42148690
Stores Generated: 20247459
Stores sent to L1D: 20247469
Major fault: 0 Minor fault: 6094
Allocated PAGES: 6094
CPU 0 L1d next line prefetcher final stats

DRAM Statistics
 CHANNEL 0
 RQ ROW_BUFFER_HIT:      65812  ROW_BUFFER_MISS:     250671
 DBUS_CONGESTED:        158
 WQ ROW_BUFFER_HIT:      30019  ROW_BUFFER_MISS:     184279  FULL:          0

 AVG_CONGESTED_CYCLE: 4
 All warmup complete: 2
Channel 0 Bank busy for read cycles: 0
Channel 0 Bank busy for write cycles: 0
Channel 0
Rank 0
0banks busy for read cycles: 383377101
0banks busy for write cycles: 110046
1banks busy for read cycles: 23863825
1banks busy for write cycles: 14304603
2banks busy for read cycles: 5481533
2banks busy for write cycles: 4428961
3banks busy for read cycles: 1041851
3banks busy for write cycles: 1626305
4banks busy for read cycles: 324610
4banks busy for write cycles: 866293
5banks busy for read cycles: 107047
5banks busy for write cycles: 539652
6banks busy for read cycles: 61587
6banks busy for write cycles: 356727
7banks busy for read cycles: 48410
7banks busy for write cycles: 279601
8banks busy for read cycles: 49703
8banks busy for write cycles: 249339

CPU 0 Branch Prediction Accuracy: 99.8437% MPKI: 0.280085 Average ROB Occupancy at Mispredict: 44.0649
Branch types
NOT_BRANCH: 164163864 82.0819%
BRANCH_DIRECT_JUMP: 1728930 0.864465%
BRANCH_INDIRECT: 9451764 4.72588%
BRANCH_CONDITIONAL: 18331226 9.16561%
BRANCH_DIRECT_CALL: 2474151 1.23708%
BRANCH_INDIRECT_CALL: 687640 0.34382%
BRANCH_RETURN: 3162148 1.58107%
BRANCH_OTHER: 0 0%

DRAM PAGES: 1048576
Allocated PAGES: 6094
