
*** ChampSim Multicore Out-of-Order Simulator ***

Warmup Instructions: 50000000
Simulation Instructions: 200000000
Number of CPUs: 1
LLC sets: 2048
LLC ways: 16
Off-chip DRAM Size: 4096 MB Channels: 1 Width: 64-bit Data Rate: 6400 MT/s
CPU 0 runs traces/spec2k17/srv_40.champsimtrace.xz
.xz
BTB has LRU replacement policy
ITLB has LRU replacement policy
DTLB has LRU replacement policy
STLB has LRU replacement policy
L1I has LRU replacement policy
CPU 0 L2C next line prefetcher
L1D has LRU replacement policy
Initialize SRRIP state for L2C
Initialize DRRIP state for LLC
Heartbeat CPU 0 instructions: 10000001 cycles: 2803068 heartbeat IPC: 3.56752 cumulative IPC: 3.56752 (Simulation time: 0 hr 0 min 40 sec) 
Heartbeat CPU 0 instructions: 20000003 cycles: 5823561 heartbeat IPC: 3.31072 cumulative IPC: 3.43433 (Simulation time: 0 hr 1 min 26 sec) 
Heartbeat CPU 0 instructions: 30000002 cycles: 8853565 heartbeat IPC: 3.30033 cumulative IPC: 3.38847 (Simulation time: 0 hr 2 min 12 sec) 
*** Reached end of trace for Core: 0 Repeating trace: traces/spec2k17/srv_40.champsimtrace.xz
Heartbeat CPU 0 instructions: 40000000 cycles: 11664912 heartbeat IPC: 3.55701 cumulative IPC: 3.42909 (Simulation time: 0 hr 2 min 53 sec) 
Heartbeat CPU 0 instructions: 50000003 cycles: 14678818 heartbeat IPC: 3.31795 cumulative IPC: 3.40627 (Simulation time: 0 hr 3 min 39 sec) 

Warmup complete CPU 0 instructions: 50000003 cycles: 14678818 (Simulation time: 0 hr 3 min 39 sec) 

Heartbeat CPU 0 instructions: 60000000 cycles: 28441553 heartbeat IPC: 0.7266 cumulative IPC: 0.7266 (Simulation time: 0 hr 4 min 32 sec) 
*** Reached end of trace for Core: 0 Repeating trace: traces/spec2k17/srv_40.champsimtrace.xz
Heartbeat CPU 0 instructions: 70000003 cycles: 44580865 heartbeat IPC: 0.619605 cumulative IPC: 0.668851 (Simulation time: 0 hr 5 min 30 sec) 
Heartbeat CPU 0 instructions: 80000001 cycles: 59766692 heartbeat IPC: 0.658509 cumulative IPC: 0.665367 (Simulation time: 0 hr 6 min 24 sec) 
Heartbeat CPU 0 instructions: 90000001 cycles: 73458661 heartbeat IPC: 0.730355 cumulative IPC: 0.680505 (Simulation time: 0 hr 7 min 15 sec) 
*** Reached end of trace for Core: 0 Repeating trace: traces/spec2k17/srv_40.champsimtrace.xz
Heartbeat CPU 0 instructions: 100000002 cycles: 89665589 heartbeat IPC: 0.61702 cumulative IPC: 0.666784 (Simulation time: 0 hr 8 min 13 sec) 
Heartbeat CPU 0 instructions: 110000000 cycles: 104762981 heartbeat IPC: 0.662366 cumulative IPC: 0.666044 (Simulation time: 0 hr 9 min 7 sec) 
Heartbeat CPU 0 instructions: 120000001 cycles: 118459466 heartbeat IPC: 0.730114 cumulative IPC: 0.6745 (Simulation time: 0 hr 9 min 59 sec) 
*** Reached end of trace for Core: 0 Repeating trace: traces/spec2k17/srv_40.champsimtrace.xz
Heartbeat CPU 0 instructions: 130000003 cycles: 134788199 heartbeat IPC: 0.612418 cumulative IPC: 0.66606 (Simulation time: 0 hr 10 min 56 sec) 
Heartbeat CPU 0 instructions: 140000003 cycles: 149714041 heartbeat IPC: 0.669979 cumulative IPC: 0.666493 (Simulation time: 0 hr 11 min 49 sec) 
Heartbeat CPU 0 instructions: 150000000 cycles: 163415322 heartbeat IPC: 0.729859 cumulative IPC: 0.67233 (Simulation time: 0 hr 12 min 41 sec) 
*** Reached end of trace for Core: 0 Repeating trace: traces/spec2k17/srv_40.champsimtrace.xz
Heartbeat CPU 0 instructions: 160000001 cycles: 179854684 heartbeat IPC: 0.608296 cumulative IPC: 0.665957 (Simulation time: 0 hr 13 min 37 sec) 
Heartbeat CPU 0 instructions: 170000000 cycles: 194624795 heartbeat IPC: 0.677043 cumulative IPC: 0.666867 (Simulation time: 0 hr 14 min 33 sec) 
Heartbeat CPU 0 instructions: 180000003 cycles: 208384277 heartbeat IPC: 0.726772 cumulative IPC: 0.671122 (Simulation time: 0 hr 15 min 22 sec) 
*** Reached end of trace for Core: 0 Repeating trace: traces/spec2k17/srv_40.champsimtrace.xz
Heartbeat CPU 0 instructions: 190000001 cycles: 224972483 heartbeat IPC: 0.602838 cumulative IPC: 0.665736 (Simulation time: 0 hr 16 min 21 sec) 
Heartbeat CPU 0 instructions: 200000002 cycles: 239661697 heartbeat IPC: 0.680772 cumulative IPC: 0.666717 (Simulation time: 0 hr 17 min 15 sec) 
Heartbeat CPU 0 instructions: 210000000 cycles: 253460381 heartbeat IPC: 0.724707 cumulative IPC: 0.670068 (Simulation time: 0 hr 18 min 6 sec) 
*** Reached end of trace for Core: 0 Repeating trace: traces/spec2k17/srv_40.champsimtrace.xz
Heartbeat CPU 0 instructions: 220000000 cycles: 270193792 heartbeat IPC: 0.597607 cumulative IPC: 0.665323 (Simulation time: 0 hr 19 min 4 sec) 
Heartbeat CPU 0 instructions: 230000000 cycles: 284656210 heartbeat IPC: 0.691447 cumulative IPC: 0.666722 (Simulation time: 0 hr 19 min 59 sec) 
Heartbeat CPU 0 instructions: 240000000 cycles: 298412104 heartbeat IPC: 0.726961 cumulative IPC: 0.669643 (Simulation time: 0 hr 20 min 51 sec) 
*** Reached end of trace for Core: 0 Repeating trace: traces/spec2k17/srv_40.champsimtrace.xz
Heartbeat CPU 0 instructions: 250000003 cycles: 314999789 heartbeat IPC: 0.602857 cumulative IPC: 0.665954 (Simulation time: 0 hr 21 min 48 sec) 
Finished CPU 0 instructions: 200000000 cycles: 300320971 cumulative IPC: 0.665954 (Simulation time: 0 hr 21 min 48 sec) 

ChampSim completed all CPUs

Region of Interest Statistics

CPU 0 cumulative IPC: 0.665954 instructions: 200000000 cycles: 300320971
ITLB TOTAL     ACCESS:   29009078  HIT:   28743587  MISS:     265491  HIT %:    99.0848  MISS %:     0.9152   MPKI: 1.32746
ITLB LOAD TRANSLATION ACCESS:   29009078  HIT:   28743587  MISS:     265491  HIT %:    99.0848  MISS %:     0.9152   MPKI: 1.32746
ITLB PREFETCH  REQUESTED:          0  ISSUED:          0  USEFUL:          0  USELESS:          0
ITLB USEFUL LOAD PREFETCHES:          0 PREFETCH ISSUED TO LOWER LEVEL:          0  ACCURACY: -nan
ITLB TIMELY PREFETCHES:          0 LATE PREFETCHES: 0 DROPPED PREFETCHES: 0
ITLB PREFETCHES SAME FILL-ORIGIN LEVEL: 0 DIFFERENT FILL-ORIGIN LEVEL: 0
ITLB AVERAGE MISS LATENCY: 11.3932 cycles
ITLB RQ	ACCESS:   37712819	FORWARD:          0	MERGED:    8609809	TO_CACHE:   29103010

DTLB TOTAL     ACCESS:   36780951  HIT:   36466441  MISS:     314510  HIT %:    99.1449  MISS %:   0.855089   MPKI: 1.57255
DTLB LOAD TRANSLATION ACCESS:   36780951  HIT:   36466441  MISS:     314510  HIT %:    99.1449  MISS %:   0.855089   MPKI: 1.57255
DTLB PREFETCH  REQUESTED:          0  ISSUED:          0  USEFUL:          0  USELESS:          0
DTLB USEFUL LOAD PREFETCHES:          0 PREFETCH ISSUED TO LOWER LEVEL:          0  ACCURACY: -nan
DTLB TIMELY PREFETCHES:          0 LATE PREFETCHES: 0 DROPPED PREFETCHES: 0
DTLB PREFETCHES SAME FILL-ORIGIN LEVEL: 0 DIFFERENT FILL-ORIGIN LEVEL: 0
DTLB AVERAGE MISS LATENCY: 21.5254 cycles
DTLB RQ	ACCESS:   54968917	FORWARD:          0	MERGED:   18081989	TO_CACHE:   36886928

STLB TOTAL     ACCESS:    1057361  HIT:    1009430  MISS:      47931  HIT %:    95.4669  MISS %:    4.53308   MPKI: 0.239655
STLB LOAD TRANSLATION ACCESS:     580001  HIT:     537195  MISS:      42806  HIT %:    92.6197  MISS %:    7.38033   MPKI: 0.21403
STLB TRANSLATION FROM L1D PREFETCHER ACCESS:     477360  HIT:     472235  MISS:       5125  HIT %:    98.9264  MISS %:    1.07361   MPKI: 0.025625
STLB PREFETCH  REQUESTED:          0  ISSUED:          0  USEFUL:       5079  USELESS:         46
STLB USEFUL LOAD PREFETCHES:       5079 PREFETCH ISSUED TO LOWER LEVEL:          0  ACCURACY: inf
STLB TIMELY PREFETCHES:       5079 LATE PREFETCHES: 339 DROPPED PREFETCHES: 2482
STLB PREFETCHES SAME FILL-ORIGIN LEVEL: 0 DIFFERENT FILL-ORIGIN LEVEL: 0
STLB AVERAGE MISS LATENCY: 490470 cycles
STLB RQ	ACCESS:    1211648	FORWARD:          0	MERGED:     148782	TO_CACHE:    1062866

STLB Hit, L1D data hit: 0
STLB Hit, L2C data hit: 0
STLB Hit, LLC data hit: 0
STLB Hit, LLC data miss: 0
STLB STLB hints to L2: 0
L1D TOTAL     ACCESS:   52149608  HIT:   49640215  MISS:    2509393  HIT %:    95.1881  MISS %:    4.81191   MPKI: 12.547
L1D LOAD      ACCESS:   42987771  HIT:   41889534  MISS:    1098237  HIT %:    97.4452  MISS %:    2.55477   MPKI: 5.49118
L1D RFO       ACCESS:    8773475  HIT:    7668478  MISS:    1104997  HIT %:    87.4053  MISS %:    12.5947   MPKI: 5.52499
L1D PREFETCH  ACCESS:     388362  HIT:      82203  MISS:     306159  HIT %:    21.1666  MISS %:    78.8334   MPKI: 1.53079
AGUS PREFETCH L1 MISS: 0
L1D PREFETCH  REQUESTED:    1279304  ISSUED:    1279289  USEFUL:     202757  USELESS:     103398
L1D USEFUL LOAD PREFETCHES:     202757 PREFETCH ISSUED TO LOWER LEVEL:     408929  ACCURACY: 49.5824
L1D TIMELY PREFETCHES:     202757 LATE PREFETCHES: 102500 DROPPED PREFETCHES: 3432
L1D PREFETCHES SAME FILL-ORIGIN LEVEL: 408929 DIFFERENT FILL-ORIGIN LEVEL: 0
L1D AVERAGE MISS LATENCY: 6.90027e+06 cycles
L1D RQ	ACCESS:   49884179	FORWARD:          0	MERGED:    6720145	TO_CACHE:   43046514
L1D WQ	ACCESS:   12021205	FORWARD:     117539	MERGED:      98802	TO_CACHE:   11922403
L1D PQ	ACCESS:     647642	FORWARD:          0	MERGED:      15976	TO_CACHE:     631647

L1D UNIQUE REGIONS ACCESSED: 0
L1D REGIONS CONFLICTS: 0
L1D Cross Page Prefetch Requests: 63158
L1D Same Page Prefetch Requests: 723455
L1D ROI Sum of L1D PQ occupancy: 15931257
L1D PREFETCHES PUSHED FROM L2C: 0
L1I TOTAL     ACCESS:   37372110  HIT:   36103688  MISS:    1268422  HIT %:     96.606  MISS %:    3.39403   MPKI: 6.34211
L1I LOAD      ACCESS:   37372110  HIT:   36103688  MISS:    1268422  HIT %:     96.606  MISS %:    3.39403   MPKI: 6.34211
L1I PREFETCH  REQUESTED:          0  ISSUED:          0  USEFUL:          0  USELESS:          0
L1I USEFUL LOAD PREFETCHES:          0 PREFETCH ISSUED TO LOWER LEVEL:          0  ACCURACY: -nan
L1I TIMELY PREFETCHES:          0 LATE PREFETCHES: 0 DROPPED PREFETCHES: 0
L1I PREFETCHES SAME FILL-ORIGIN LEVEL: 0 DIFFERENT FILL-ORIGIN LEVEL: 0
L1I AVERAGE MISS LATENCY: 27.1026 cycles
L1I RQ	ACCESS:   53165413	FORWARD:          0	MERGED:   15452594	TO_CACHE:   37712819

BTB TOTAL     ACCESS:   13141774  HIT:   12087725  MISS:    1054049  HIT %:    91.9794  MISS %:     8.0206   MPKI: 5.27025
BTB BRANCH_DIRECT_JUMP	ACCESS:    1417007  HIT:    1361695  MISS:      55312
BTB BRANCH_INDIRECT	ACCESS:    4725365  HIT:    4385102  MISS:     340263
BTB BRANCH_CONDITIONAL	ACCESS:    4838896  HIT:    4776121  MISS:      62775
BTB BRANCH_DIRECT_CALL	ACCESS:     958452  HIT:     856613  MISS:     101839
BTB BRANCH_INDIRECT_CALL	ACCESS:     121813  HIT:      97196  MISS:      24617
BTB BRANCH_RETURN	ACCESS:    1080241  HIT:     610998  MISS:     469243
BTB BRANCH_OTHER ACCESS:          0  HIT:          0  MISS:          0

L2C TOTAL     ACCESS:    5139438  HIT:    3237806  MISS:    1901632  HIT %:    62.9992  MISS %:    37.0008   MPKI: 9.50816
L2C LOAD      ACCESS:    2264155  HIT:    1643715  MISS:     620440  HIT %:    72.5973  MISS %:    27.4027   MPKI: 3.1022
L2C DATA LOAD MPKI: 1.89787
L2C INSTRUCTION LOAD MPKI: 1.20433
L2C RFO       ACCESS:    1104648  HIT:     130881  MISS:     973767  HIT %:    11.8482  MISS %:    88.1518   MPKI: 4.86883
L2C PREFETCH  ACCESS:     408929  HIT:     141529  MISS:     267400  HIT %:    34.6097  MISS %:    65.3903   MPKI: 1.337
AGUS PREFETCH L1 MISS: 0
L2C DATA PREFETCH MPKI: 1.337
L2C INSTRUCTION PREFETCH MPKI: 0
L2C WRITEBACK ACCESS:    1297780  HIT:    1281060  MISS:      16720  HIT %:    98.7116  MISS %:    1.28835   MPKI: 0.0836
L2C LOAD TRANSLATION ACCESS:      54982  HIT:      33235  MISS:      21747  HIT %:    60.4471  MISS %:    39.5529   MPKI: 0.108735
L2C TRANSLATION FROM L1D PREFETCHER ACCESS:       8944  HIT:       7386  MISS:       1558  HIT %:    82.5805  MISS %:    17.4195   MPKI: 0.00779
L2C PREFETCH  REQUESTED:          0  ISSUED:          0  USEFUL:       7887  USELESS:     261516
L2C USEFUL LOAD PREFETCHES:       7887 PREFETCH ISSUED TO LOWER LEVEL:     267400  ACCURACY: 2.94951
L2C TIMELY PREFETCHES:       7887 LATE PREFETCHES: 0 DROPPED PREFETCHES: 0
L2C PREFETCHES SAME FILL-ORIGIN LEVEL: 0 DIFFERENT FILL-ORIGIN LEVEL: 0
L2C AVERAGE MISS LATENCY: 272.109 cycles
L2C RQ	ACCESS:    3432812	FORWARD:          0	MERGED:          0	TO_CACHE:    3432729
L2C WQ	ACCESS:    1297780	FORWARD:         83	MERGED:          0	TO_CACHE:    1297780
L2C PQ	ACCESS:     408929	FORWARD:          0	MERGED:          0	TO_CACHE:     408929

L2C Instructions Evicting Data 133198
L2C Translations Evicting Data 15851
L2C Data Evicting Data 1479466
L2C Instructions Evicting Instructions 100221
L2C Translations Evicting Instructions 6810
L2C Data Evicting Instructions 126677
L2C Instructions Evicting Translations 7447
L2C Translations Evicting Translations 644
L2C Data Evicting Translations 14598
L2C Dense regions hint from L2: 0
PSCL5 TOTAL     ACCESS:      50413  HIT:      50413  MISS:          0  HIT %:        100  MISS %:          0   MPKI: 0
PSCL5 LOAD TRANSLATION ACCESS:      42467  HIT:      42467  MISS:          0  HIT %:        100  MISS %:          0   MPKI: 0
PSCL5 TRANSLATION FROM L1D PREFETCHER ACCESS:       7946  HIT:       7946  MISS:          0  HIT %:        100  MISS %:          0   MPKI: 0
PSCL5 PREFETCH  REQUESTED:          0  ISSUED:          0  USEFUL:          0  USELESS:          0
PSCL5 USEFUL LOAD PREFETCHES:          0 PREFETCH ISSUED TO LOWER LEVEL:          0  ACCURACY: -nan
PSCL5 TIMELY PREFETCHES:          0 LATE PREFETCHES: 0 DROPPED PREFETCHES: 0
PSCL5 PREFETCHES SAME FILL-ORIGIN LEVEL: 0 DIFFERENT FILL-ORIGIN LEVEL: 0

PSCL4 TOTAL     ACCESS:      50133  HIT:      50008  MISS:        125  HIT %:    99.7507  MISS %:   0.249337   MPKI: 0.000625
PSCL4 LOAD TRANSLATION ACCESS:      42198  HIT:      42073  MISS:        125  HIT %:    99.7038  MISS %:   0.296223   MPKI: 0.000625
PSCL4 TRANSLATION FROM L1D PREFETCHER ACCESS:       7935  HIT:       7935  MISS:          0  HIT %:        100  MISS %:          0   MPKI: 0
PSCL4 PREFETCH  REQUESTED:          0  ISSUED:          0  USEFUL:          0  USELESS:          0
PSCL4 USEFUL LOAD PREFETCHES:          0 PREFETCH ISSUED TO LOWER LEVEL:          0  ACCURACY: -nan
PSCL4 TIMELY PREFETCHES:          0 LATE PREFETCHES: 0 DROPPED PREFETCHES: 0
PSCL4 PREFETCHES SAME FILL-ORIGIN LEVEL: 0 DIFFERENT FILL-ORIGIN LEVEL: 0

PSCL3 TOTAL     ACCESS:      41732  HIT:      38395  MISS:       3337  HIT %:    92.0037  MISS %:    7.99626   MPKI: 0.016685
PSCL3 LOAD TRANSLATION ACCESS:      37382  HIT:      34045  MISS:       3337  HIT %:    91.0732  MISS %:    8.92676   MPKI: 0.016685
PSCL3 TRANSLATION FROM L1D PREFETCHER ACCESS:       4350  HIT:       4350  MISS:          0  HIT %:        100  MISS %:          0   MPKI: 0
PSCL3 PREFETCH  REQUESTED:          0  ISSUED:          0  USEFUL:          0  USELESS:          0
PSCL3 USEFUL LOAD PREFETCHES:          0 PREFETCH ISSUED TO LOWER LEVEL:          0  ACCURACY: -nan
PSCL3 TIMELY PREFETCHES:          0 LATE PREFETCHES: 0 DROPPED PREFETCHES: 0
PSCL3 PREFETCHES SAME FILL-ORIGIN LEVEL: 0 DIFFERENT FILL-ORIGIN LEVEL: 0

PSCL2 TOTAL     ACCESS:      49779  HIT:      40621  MISS:       9158  HIT %:    81.6027  MISS %:    18.3973   MPKI: 0.04579
PSCL2 LOAD TRANSLATION ACCESS:      42545  HIT:      33387  MISS:       9158  HIT %:    78.4746  MISS %:    21.5254   MPKI: 0.04579
PSCL2 TRANSLATION FROM L1D PREFETCHER ACCESS:       7234  HIT:       7234  MISS:          0  HIT %:        100  MISS %:          0   MPKI: 0
PSCL2 PREFETCH  REQUESTED:          0  ISSUED:          0  USEFUL:          0  USELESS:          0
PSCL2 USEFUL LOAD PREFETCHES:          0 PREFETCH ISSUED TO LOWER LEVEL:          0  ACCURACY: -nan
PSCL2 TIMELY PREFETCHES:          0 LATE PREFETCHES: 0 DROPPED PREFETCHES: 0
PSCL2 PREFETCHES SAME FILL-ORIGIN LEVEL: 0 DIFFERENT FILL-ORIGIN LEVEL: 0

LLC TOTAL     ACCESS:    2922584  HIT:    1316965  MISS:    1605619  HIT %:    45.0617  MISS %:    54.9383   MPKI: 8.0281
LLC LOAD      ACCESS:     620440  HIT:     250231  MISS:     370209  HIT %:    40.3312  MISS %:    59.6688   MPKI: 1.85105
LLC RFO       ACCESS:     973762  HIT:      20347  MISS:     953415  HIT %:    2.08952  MISS %:    97.9105   MPKI: 4.76708
LLC PREFETCH  ACCESS:     267400  HIT:      19636  MISS:     247764  HIT %:    7.34331  MISS %:    92.6567   MPKI: 1.23882
AGUS PREFETCH L1 MISS: 0
LLC WRITEBACK ACCESS:    1037677  HIT:    1017625  MISS:      20052  HIT %:    98.0676  MISS %:    1.93239   MPKI: 0.10026
LLC LOAD TRANSLATION ACCESS:      21747  HIT:       8673  MISS:      13074  HIT %:    39.8814  MISS %:    60.1186   MPKI: 0.06537
LLC TRANSLATION FROM L1D PREFETCHER ACCESS:       1558  HIT:        453  MISS:       1105  HIT %:    29.0757  MISS %:    70.9243   MPKI: 0.005525
LLC PREFETCH  REQUESTED:          0  ISSUED:          0  USEFUL:       2463  USELESS:     247997
LLC USEFUL LOAD PREFETCHES:       2463 PREFETCH ISSUED TO LOWER LEVEL:     247764  ACCURACY: 0.994091
LLC TIMELY PREFETCHES:       2463 LATE PREFETCHES: 0 DROPPED PREFETCHES: 0
LLC PREFETCHES SAME FILL-ORIGIN LEVEL: 0 DIFFERENT FILL-ORIGIN LEVEL: 0
LLC AVERAGE MISS LATENCY: 287.057 cycles
LLC RQ	ACCESS:    1617512	FORWARD:          0	MERGED:          0	TO_CACHE:    1617507
LLC WQ	ACCESS:    1037677	FORWARD:          5	MERGED:          0	TO_CACHE:    1037677
LLC PQ	ACCESS:     267400	FORWARD:          0	MERGED:          0	TO_CACHE:     267400

LLC Dense regions hint to LLC: 0

RAW hits: 914278
Loads Generated: 50798456
Loads sent to L1D: 49884179
Stores Generated: 12021210
Stores sent to L1D: 12021205
Major fault: 0 Minor fault: 6461
Allocated PAGES: 6461
CPU 0 L1d next line prefetcher final stats

DRAM Statistics
 CHANNEL 0
 RQ ROW_BUFFER_HIT:     653276  ROW_BUFFER_MISS:     932290
 DBUS_CONGESTED:        709
 WQ ROW_BUFFER_HIT:     221620  ROW_BUFFER_MISS:     784421  FULL:          0

 AVG_CONGESTED_CYCLE: 4
 All warmup complete: 2
Channel 0 Bank busy for read cycles: 0
Channel 0 Bank busy for write cycles: 0
Channel 0
Rank 0
0banks busy for read cycles: 222561630
0banks busy for write cycles: 50050
1banks busy for read cycles: 18164876
1banks busy for write cycles: 7400093
2banks busy for read cycles: 4660509
2banks busy for write cycles: 3179519
3banks busy for read cycles: 1816422
3banks busy for write cycles: 1802786
4banks busy for read cycles: 1116850
4banks busy for write cycles: 1194498
5banks busy for read cycles: 1059515
5banks busy for write cycles: 851125
6banks busy for read cycles: 1793632
6banks busy for write cycles: 731553
7banks busy for read cycles: 2333170
7banks busy for write cycles: 1552724
8banks busy for read cycles: 13213531
8banks busy for write cycles: 16838489

CPU 0 Branch Prediction Accuracy: 99.6381% MPKI: 0.27243 Average ROB Occupancy at Mispredict: 48.137
Branch types
NOT_BRANCH: 184943571 92.4718%
BRANCH_DIRECT_JUMP: 1417007 0.708503%
BRANCH_INDIRECT: 4725365 2.36268%
BRANCH_CONDITIONAL: 6753203 3.3766%
BRANCH_DIRECT_CALL: 958452 0.479226%
BRANCH_INDIRECT_CALL: 121813 0.0609065%
BRANCH_RETURN: 1080241 0.540121%
BRANCH_OTHER: 0 0%

DRAM PAGES: 1048576
Allocated PAGES: 6461
