
*** ChampSim Multicore Out-of-Order Simulator ***

Warmup Instructions: 50000000
Simulation Instructions: 200000000
Number of CPUs: 1
LLC sets: 2048
LLC ways: 16
Off-chip DRAM Size: 4096 MB Channels: 1 Width: 64-bit Data Rate: 6400 MT/s
CPU 0 runs traces/spec2k17/srv_24.champsimtrace.xz
.xz
BTB has LRU replacement policy
ITLB has LRU replacement policy
DTLB has LRU replacement policy
STLB has LRU replacement policy
L1I has LRU replacement policy
CPU 0 L2C next line prefetcher
L1D has LRU replacement policy
Initialize SRRIP state for L2C
Initialize DRRIP state for LLC
Heartbeat CPU 0 instructions: 10000000 cycles: 2836720 heartbeat IPC: 3.5252 cumulative IPC: 3.5252 (Simulation time: 0 hr 0 min 37 sec) 
Heartbeat CPU 0 instructions: 20000000 cycles: 5668519 heartbeat IPC: 3.53132 cumulative IPC: 3.52826 (Simulation time: 0 hr 1 min 14 sec) 
Heartbeat CPU 0 instructions: 30000001 cycles: 8499730 heartbeat IPC: 3.53206 cumulative IPC: 3.52952 (Simulation time: 0 hr 1 min 50 sec) 
*** Reached end of trace for Core: 0 Repeating trace: traces/spec2k17/srv_24.champsimtrace.xz
Heartbeat CPU 0 instructions: 40000002 cycles: 11329403 heartbeat IPC: 3.53398 cumulative IPC: 3.53064 (Simulation time: 0 hr 2 min 27 sec) 
Heartbeat CPU 0 instructions: 50000002 cycles: 14159746 heartbeat IPC: 3.53314 cumulative IPC: 3.53114 (Simulation time: 0 hr 3 min 4 sec) 

Warmup complete CPU 0 instructions: 50000002 cycles: 14159746 (Simulation time: 0 hr 3 min 4 sec) 

Heartbeat CPU 0 instructions: 60000000 cycles: 47670662 heartbeat IPC: 0.29841 cumulative IPC: 0.29841 (Simulation time: 0 hr 4 min 12 sec) 
*** Reached end of trace for Core: 0 Repeating trace: traces/spec2k17/srv_24.champsimtrace.xz
Heartbeat CPU 0 instructions: 70000000 cycles: 81137905 heartbeat IPC: 0.2988 cumulative IPC: 0.298605 (Simulation time: 0 hr 5 min 22 sec) 
Heartbeat CPU 0 instructions: 80000002 cycles: 114535153 heartbeat IPC: 0.299426 cumulative IPC: 0.298878 (Simulation time: 0 hr 6 min 33 sec) 
Heartbeat CPU 0 instructions: 90000000 cycles: 147957629 heartbeat IPC: 0.2992 cumulative IPC: 0.298958 (Simulation time: 0 hr 7 min 43 sec) 
*** Reached end of trace for Core: 0 Repeating trace: traces/spec2k17/srv_24.champsimtrace.xz
Heartbeat CPU 0 instructions: 100000001 cycles: 181366459 heartbeat IPC: 0.299322 cumulative IPC: 0.299031 (Simulation time: 0 hr 8 min 52 sec) 
Heartbeat CPU 0 instructions: 110000000 cycles: 214720517 heartbeat IPC: 0.299814 cumulative IPC: 0.299161 (Simulation time: 0 hr 10 min 2 sec) 
Heartbeat CPU 0 instructions: 120000001 cycles: 248098503 heartbeat IPC: 0.299599 cumulative IPC: 0.299224 (Simulation time: 0 hr 11 min 11 sec) 
*** Reached end of trace for Core: 0 Repeating trace: traces/spec2k17/srv_24.champsimtrace.xz
Heartbeat CPU 0 instructions: 130000003 cycles: 281504859 heartbeat IPC: 0.299344 cumulative IPC: 0.299239 (Simulation time: 0 hr 12 min 21 sec) 
Heartbeat CPU 0 instructions: 140000003 cycles: 314872135 heartbeat IPC: 0.299695 cumulative IPC: 0.299289 (Simulation time: 0 hr 13 min 29 sec) 
Heartbeat CPU 0 instructions: 150000003 cycles: 348254815 heartbeat IPC: 0.299557 cumulative IPC: 0.299316 (Simulation time: 0 hr 14 min 38 sec) 
*** Reached end of trace for Core: 0 Repeating trace: traces/spec2k17/srv_24.champsimtrace.xz
Heartbeat CPU 0 instructions: 160000003 cycles: 381622528 heartbeat IPC: 0.299691 cumulative IPC: 0.29935 (Simulation time: 0 hr 15 min 47 sec) 
Heartbeat CPU 0 instructions: 170000000 cycles: 414974984 heartbeat IPC: 0.299828 cumulative IPC: 0.29939 (Simulation time: 0 hr 16 min 56 sec) 
Heartbeat CPU 0 instructions: 180000001 cycles: 448332150 heartbeat IPC: 0.299786 cumulative IPC: 0.29942 (Simulation time: 0 hr 18 min 5 sec) 
*** Reached end of trace for Core: 0 Repeating trace: traces/spec2k17/srv_24.champsimtrace.xz
Heartbeat CPU 0 instructions: 190000002 cycles: 481700644 heartbeat IPC: 0.299684 cumulative IPC: 0.299439 (Simulation time: 0 hr 19 min 15 sec) 
Heartbeat CPU 0 instructions: 200000001 cycles: 515070495 heartbeat IPC: 0.299672 cumulative IPC: 0.299455 (Simulation time: 0 hr 20 min 25 sec) 
Heartbeat CPU 0 instructions: 210000001 cycles: 548409802 heartbeat IPC: 0.299946 cumulative IPC: 0.299485 (Simulation time: 0 hr 21 min 31 sec) 
*** Reached end of trace for Core: 0 Repeating trace: traces/spec2k17/srv_24.champsimtrace.xz
Heartbeat CPU 0 instructions: 220000000 cycles: 581775043 heartbeat IPC: 0.299713 cumulative IPC: 0.299499 (Simulation time: 0 hr 22 min 41 sec) 
Heartbeat CPU 0 instructions: 230000001 cycles: 615147540 heartbeat IPC: 0.299648 cumulative IPC: 0.299507 (Simulation time: 0 hr 23 min 50 sec) 
Heartbeat CPU 0 instructions: 240000003 cycles: 648483978 heartbeat IPC: 0.299972 cumulative IPC: 0.299531 (Simulation time: 0 hr 24 min 58 sec) 
Heartbeat CPU 0 instructions: 250000000 cycles: 681843962 heartbeat IPC: 0.29976 cumulative IPC: 0.299543 (Simulation time: 0 hr 26 min 6 sec) 
Finished CPU 0 instructions: 200000000 cycles: 667684217 cumulative IPC: 0.299543 (Simulation time: 0 hr 26 min 6 sec) 

ChampSim completed all CPUs

Region of Interest Statistics

CPU 0 cumulative IPC: 0.299543 instructions: 200000000 cycles: 667684217
ITLB TOTAL     ACCESS:   35363399  HIT:   32932626  MISS:    2430773  HIT %:    93.1263  MISS %:     6.8737   MPKI: 12.1539
ITLB LOAD TRANSLATION ACCESS:   35363399  HIT:   32932626  MISS:    2430773  HIT %:    93.1263  MISS %:     6.8737   MPKI: 12.1539
ITLB PREFETCH  REQUESTED:          0  ISSUED:          0  USEFUL:          0  USELESS:          0
ITLB USEFUL LOAD PREFETCHES:          0 PREFETCH ISSUED TO LOWER LEVEL:          0  ACCURACY: -nan
ITLB TIMELY PREFETCHES:          0 LATE PREFETCHES: 0 DROPPED PREFETCHES: 0
ITLB PREFETCHES SAME FILL-ORIGIN LEVEL: 0 DIFFERENT FILL-ORIGIN LEVEL: 0
ITLB AVERAGE MISS LATENCY: 9.00345 cycles
ITLB RQ	ACCESS:   41938145	FORWARD:          0	MERGED:    6009548	TO_CACHE:   35928597

DTLB TOTAL     ACCESS:   47422791  HIT:   45432209  MISS:    1990582  HIT %:    95.8025  MISS %:    4.19752   MPKI: 9.95291
DTLB LOAD TRANSLATION ACCESS:   47422791  HIT:   45432209  MISS:    1990582  HIT %:    95.8025  MISS %:    4.19752   MPKI: 9.95291
DTLB PREFETCH  REQUESTED:          0  ISSUED:          0  USEFUL:          0  USELESS:          0
DTLB USEFUL LOAD PREFETCHES:          0 PREFETCH ISSUED TO LOWER LEVEL:          0  ACCURACY: -nan
DTLB TIMELY PREFETCHES:          0 LATE PREFETCHES: 0 DROPPED PREFETCHES: 0
DTLB PREFETCHES SAME FILL-ORIGIN LEVEL: 0 DIFFERENT FILL-ORIGIN LEVEL: 0
DTLB AVERAGE MISS LATENCY: 9.02984 cycles
DTLB RQ	ACCESS:   62661970	FORWARD:          0	MERGED:   15188317	TO_CACHE:   47473653

STLB TOTAL     ACCESS:    5197210  HIT:    5195997  MISS:       1213  HIT %:    99.9767  MISS %:  0.0233394   MPKI: 0.006065
STLB LOAD TRANSLATION ACCESS:    4421354  HIT:    4420146  MISS:       1208  HIT %:    99.9727  MISS %:  0.0273219   MPKI: 0.00604
STLB TRANSLATION FROM L1D PREFETCHER ACCESS:     775856  HIT:     775851  MISS:          5  HIT %:    99.9994  MISS %: 0.000644449   MPKI: 2.5e-05
STLB PREFETCH  REQUESTED:          0  ISSUED:          0  USEFUL:          2  USELESS:          3
STLB USEFUL LOAD PREFETCHES:          2 PREFETCH ISSUED TO LOWER LEVEL:          0  ACCURACY: inf
STLB TIMELY PREFETCHES:          2 LATE PREFETCHES: 0 DROPPED PREFETCHES: 6595
STLB PREFETCHES SAME FILL-ORIGIN LEVEL: 0 DIFFERENT FILL-ORIGIN LEVEL: 0
STLB AVERAGE MISS LATENCY: 30.8615 cycles
STLB RQ	ACCESS:    5308391	FORWARD:          0	MERGED:     104018	TO_CACHE:    5204373

STLB Hit, L1D data hit: 0
STLB Hit, L2C data hit: 0
STLB Hit, LLC data hit: 0
STLB Hit, LLC data miss: 0
STLB STLB hints to L2: 0
L1D TOTAL     ACCESS:   61408665  HIT:   56612512  MISS:    4796153  HIT %:    92.1898  MISS %:    7.81022   MPKI: 23.9808
L1D LOAD      ACCESS:   34662179  HIT:   31465218  MISS:    3196961  HIT %:    90.7768  MISS %:     9.2232   MPKI: 15.9848
L1D RFO       ACCESS:   26155828  HIT:   24974352  MISS:    1181476  HIT %:    95.4829  MISS %:    4.51707   MPKI: 5.90738
L1D PREFETCH  ACCESS:     590658  HIT:     172942  MISS:     417716  HIT %:    29.2795  MISS %:    70.7205   MPKI: 2.08858
AGUS PREFETCH L1 MISS: 0
L1D PREFETCH  REQUESTED:    1795500  ISSUED:    1795500  USEFUL:     121649  USELESS:     296076
L1D USEFUL LOAD PREFETCHES:     121649 PREFETCH ISSUED TO LOWER LEVEL:     463229  ACCURACY: 26.2611
L1D TIMELY PREFETCHES:     121649 LATE PREFETCHES: 45509 DROPPED PREFETCHES: 7163
L1D PREFETCHES SAME FILL-ORIGIN LEVEL: 463229 DIFFERENT FILL-ORIGIN LEVEL: 0
L1D AVERAGE MISS LATENCY: 3.13915e+06 cycles
L1D RQ	ACCESS:   47214567	FORWARD:          0	MERGED:   12086252	TO_CACHE:   34783938
L1D WQ	ACCESS:   28029091	FORWARD:     344388	MERGED:     151059	TO_CACHE:   27878032
L1D PQ	ACCESS:     908463	FORWARD:          0	MERGED:      21415	TO_CACHE:     887037

L1D UNIQUE REGIONS ACCESSED: 0
L1D REGIONS CONFLICTS: 0
L1D Cross Page Prefetch Requests: 23788
L1D Same Page Prefetch Requests: 1128185
L1D ROI Sum of L1D PQ occupancy: 11452015
L1D PREFETCHES PUSHED FROM L2C: 0
L1I TOTAL     ACCESS:   40171988  HIT:   27942968  MISS:   12229020  HIT %:    69.5583  MISS %:    30.4417   MPKI: 61.1451
L1I LOAD      ACCESS:   40171988  HIT:   27942968  MISS:   12229020  HIT %:    69.5583  MISS %:    30.4417   MPKI: 61.1451
L1I PREFETCH  REQUESTED:          0  ISSUED:          0  USEFUL:          0  USELESS:          0
L1I USEFUL LOAD PREFETCHES:          0 PREFETCH ISSUED TO LOWER LEVEL:          0  ACCURACY: -nan
L1I TIMELY PREFETCHES:          0 LATE PREFETCHES: 0 DROPPED PREFETCHES: 0
L1I PREFETCHES SAME FILL-ORIGIN LEVEL: 0 DIFFERENT FILL-ORIGIN LEVEL: 0
L1I AVERAGE MISS LATENCY: 15.0637 cycles
L1I RQ	ACCESS:   58806293	FORWARD:          0	MERGED:   16868148	TO_CACHE:   41938145

BTB TOTAL     ACCESS:   30232374  HIT:   16633211  MISS:   13599163  HIT %:    55.0179  MISS %:    44.9821   MPKI: 67.9958
BTB BRANCH_DIRECT_JUMP	ACCESS:    1953106  HIT:    1075540  MISS:     877566
BTB BRANCH_INDIRECT	ACCESS:   12762841  HIT:    7577249  MISS:    5185592
BTB BRANCH_CONDITIONAL	ACCESS:    5680689  HIT:    4279292  MISS:    1401397
BTB BRANCH_DIRECT_CALL	ACCESS:    4143765  HIT:    1916358  MISS:    2227407
BTB BRANCH_INDIRECT_CALL	ACCESS:     774109  HIT:     369936  MISS:     404173
BTB BRANCH_RETURN	ACCESS:    4917864  HIT:    1414836  MISS:    3503028
BTB BRANCH_OTHER ACCESS:          0  HIT:          0  MISS:          0

L2C TOTAL     ACCESS:   19357032  HIT:   18665209  MISS:     691823  HIT %:     96.426  MISS %:    3.57401   MPKI: 3.45912
L2C LOAD      ACCESS:   15380330  HIT:   14809297  MISS:     571033  HIT %:    96.2873  MISS %:    3.71275   MPKI: 2.85516
L2C DATA LOAD MPKI: 0.838845
L2C INSTRUCTION LOAD MPKI: 2.01632
L2C RFO       ACCESS:    1181473  HIT:    1148594  MISS:      32879  HIT %:    97.2171  MISS %:    2.78288   MPKI: 0.164395
L2C PREFETCH  ACCESS:     463228  HIT:     393096  MISS:      70132  HIT %:    84.8602  MISS %:    15.1398   MPKI: 0.35066
AGUS PREFETCH L1 MISS: 0
L2C DATA PREFETCH MPKI: 0.35066
L2C INSTRUCTION PREFETCH MPKI: 0
L2C WRITEBACK ACCESS:    2320900  HIT:    2303756  MISS:      17144  HIT %:    99.2613  MISS %:   0.738679   MPKI: 0.08572
L2C LOAD TRANSLATION ACCESS:       1208  HIT:        733  MISS:        475  HIT %:    60.6788  MISS %:    39.3212   MPKI: 0.002375
L2C TRANSLATION FROM L1D PREFETCHER ACCESS:       9893  HIT:       9733  MISS:        160  HIT %:    98.3827  MISS %:    1.61731   MPKI: 0.0008
L2C PREFETCH  REQUESTED:          0  ISSUED:          0  USEFUL:       2097  USELESS:      68472
L2C USEFUL LOAD PREFETCHES:       2097 PREFETCH ISSUED TO LOWER LEVEL:      70132  ACCURACY: 2.99008
L2C TIMELY PREFETCHES:       2097 LATE PREFETCHES: 0 DROPPED PREFETCHES: 0
L2C PREFETCHES SAME FILL-ORIGIN LEVEL: 0 DIFFERENT FILL-ORIGIN LEVEL: 0
L2C AVERAGE MISS LATENCY: 29.5863 cycles
L2C RQ	ACCESS:   16573046	FORWARD:          0	MERGED:          0	TO_CACHE:   16572904
L2C WQ	ACCESS:    2320900	FORWARD:        143	MERGED:          0	TO_CACHE:    2320900
L2C PQ	ACCESS:     463229	FORWARD:          0	MERGED:          0	TO_CACHE:     463228

L2C Instructions Evicting Data 129823
L2C Translations Evicting Data 483
L2C Data Evicting Data 151466
L2C Instructions Evicting Instructions 273274
L2C Translations Evicting Instructions 152
L2C Data Evicting Instructions 118849
L2C Instructions Evicting Translations 167
L2C Translations Evicting Translations 0
L2C Data Evicting Translations 464
L2C Dense regions hint from L2: 0
PSCL5 TOTAL     ACCESS:       7808  HIT:       7808  MISS:          0  HIT %:        100  MISS %:          0   MPKI: 0
PSCL5 LOAD TRANSLATION ACCESS:       1208  HIT:       1208  MISS:          0  HIT %:        100  MISS %:          0   MPKI: 0
PSCL5 TRANSLATION FROM L1D PREFETCHER ACCESS:       6600  HIT:       6600  MISS:          0  HIT %:        100  MISS %:          0   MPKI: 0
PSCL5 PREFETCH  REQUESTED:          0  ISSUED:          0  USEFUL:          0  USELESS:          0
PSCL5 USEFUL LOAD PREFETCHES:          0 PREFETCH ISSUED TO LOWER LEVEL:          0  ACCURACY: -nan
PSCL5 TIMELY PREFETCHES:          0 LATE PREFETCHES: 0 DROPPED PREFETCHES: 0
PSCL5 PREFETCHES SAME FILL-ORIGIN LEVEL: 0 DIFFERENT FILL-ORIGIN LEVEL: 0

PSCL4 TOTAL     ACCESS:       7586  HIT:       7586  MISS:          0  HIT %:        100  MISS %:          0   MPKI: 0
PSCL4 LOAD TRANSLATION ACCESS:       1201  HIT:       1201  MISS:          0  HIT %:        100  MISS %:          0   MPKI: 0
PSCL4 TRANSLATION FROM L1D PREFETCHER ACCESS:       6385  HIT:       6385  MISS:          0  HIT %:        100  MISS %:          0   MPKI: 0
PSCL4 PREFETCH  REQUESTED:          0  ISSUED:          0  USEFUL:          0  USELESS:          0
PSCL4 USEFUL LOAD PREFETCHES:          0 PREFETCH ISSUED TO LOWER LEVEL:          0  ACCURACY: -nan
PSCL4 TIMELY PREFETCHES:          0 LATE PREFETCHES: 0 DROPPED PREFETCHES: 0
PSCL4 PREFETCHES SAME FILL-ORIGIN LEVEL: 0 DIFFERENT FILL-ORIGIN LEVEL: 0

PSCL3 TOTAL     ACCESS:       7586  HIT:       7586  MISS:          0  HIT %:        100  MISS %:          0   MPKI: 0
PSCL3 LOAD TRANSLATION ACCESS:       1201  HIT:       1201  MISS:          0  HIT %:        100  MISS %:          0   MPKI: 0
PSCL3 TRANSLATION FROM L1D PREFETCHER ACCESS:       6385  HIT:       6385  MISS:          0  HIT %:        100  MISS %:          0   MPKI: 0
PSCL3 PREFETCH  REQUESTED:          0  ISSUED:          0  USEFUL:          0  USELESS:          0
PSCL3 USEFUL LOAD PREFETCHES:          0 PREFETCH ISSUED TO LOWER LEVEL:          0  ACCURACY: -nan
PSCL3 TIMELY PREFETCHES:          0 LATE PREFETCHES: 0 DROPPED PREFETCHES: 0
PSCL3 PREFETCHES SAME FILL-ORIGIN LEVEL: 0 DIFFERENT FILL-ORIGIN LEVEL: 0

PSCL2 TOTAL     ACCESS:       4945  HIT:       4945  MISS:          0  HIT %:        100  MISS %:          0   MPKI: 0
PSCL2 LOAD TRANSLATION ACCESS:       1208  HIT:       1208  MISS:          0  HIT %:        100  MISS %:          0   MPKI: 0
PSCL2 TRANSLATION FROM L1D PREFETCHER ACCESS:       3737  HIT:       3737  MISS:          0  HIT %:        100  MISS %:          0   MPKI: 0
PSCL2 PREFETCH  REQUESTED:          0  ISSUED:          0  USEFUL:          0  USELESS:          0
PSCL2 USEFUL LOAD PREFETCHES:          0 PREFETCH ISSUED TO LOWER LEVEL:          0  ACCURACY: -nan
PSCL2 TIMELY PREFETCHES:          0 LATE PREFETCHES: 0 DROPPED PREFETCHES: 0
PSCL2 PREFETCHES SAME FILL-ORIGIN LEVEL: 0 DIFFERENT FILL-ORIGIN LEVEL: 0

LLC TOTAL     ACCESS:     714731  HIT:     713350  MISS:       1381  HIT %:    99.8068  MISS %:    0.19322   MPKI: 0.006905
LLC LOAD      ACCESS:     571033  HIT:     570575  MISS:        458  HIT %:    99.9198  MISS %:  0.0802055   MPKI: 0.00229
LLC RFO       ACCESS:      32879  HIT:      32879  MISS:          0  HIT %:        100  MISS %:          0   MPKI: 0
LLC PREFETCH  ACCESS:      70132  HIT:      69211  MISS:        921  HIT %:    98.6868  MISS %:    1.31324   MPKI: 0.004605
AGUS PREFETCH L1 MISS: 0
LLC WRITEBACK ACCESS:      40052  HIT:      40050  MISS:          2  HIT %:     99.995  MISS %: 0.00499351   MPKI: 1e-05
LLC LOAD TRANSLATION ACCESS:        475  HIT:        475  MISS:          0  HIT %:        100  MISS %:          0   MPKI: 0
LLC TRANSLATION FROM L1D PREFETCHER ACCESS:        160  HIT:        160  MISS:          0  HIT %:        100  MISS %:          0   MPKI: 0
LLC PREFETCH  REQUESTED:          0  ISSUED:          0  USEFUL:       1989  USELESS:        379
LLC USEFUL LOAD PREFETCHES:       1989 PREFETCH ISSUED TO LOWER LEVEL:        921  ACCURACY: 215.961
LLC TIMELY PREFETCHES:       1989 LATE PREFETCHES: 0 DROPPED PREFETCHES: 0
LLC PREFETCHES SAME FILL-ORIGIN LEVEL: 0 DIFFERENT FILL-ORIGIN LEVEL: 0
LLC AVERAGE MISS LATENCY: 165.198 cycles
LLC RQ	ACCESS:     604547	FORWARD:          0	MERGED:          0	TO_CACHE:     604547
LLC WQ	ACCESS:      40052	FORWARD:          0	MERGED:          0	TO_CACHE:      40052
LLC PQ	ACCESS:      70132	FORWARD:          0	MERGED:          0	TO_CACHE:      70132

LLC Dense regions hint to LLC: 0

RAW hits: 1518017
Loads Generated: 48732586
Loads sent to L1D: 47214567
Stores Generated: 28029087
Stores sent to L1D: 28029091
Major fault: 0 Minor fault: 1251
Allocated PAGES: 1251
CPU 0 L1d next line prefetcher final stats

DRAM Statistics
 CHANNEL 0
 RQ ROW_BUFFER_HIT:         63  ROW_BUFFER_MISS:       1316
 DBUS_CONGESTED:          0
 WQ ROW_BUFFER_HIT:          0  ROW_BUFFER_MISS:          0  FULL:          0

 AVG_CONGESTED_CYCLE: -
 All warmup complete: 2
Channel 0 Bank busy for read cycles: 0
Channel 0 Bank busy for write cycles: 0
Channel 0
Rank 0
0banks busy for read cycles: 667490307
0banks busy for write cycles: 0
1banks busy for read cycles: 187332
1banks busy for write cycles: 0
2banks busy for read cycles: 6519
2banks busy for write cycles: 0
3banks busy for read cycles: 60
3banks busy for write cycles: 0
4banks busy for read cycles: 0
4banks busy for write cycles: 0
5banks busy for read cycles: 0
5banks busy for write cycles: 0
6banks busy for read cycles: 0
6banks busy for write cycles: 0
7banks busy for read cycles: 0
7banks busy for write cycles: 0
8banks busy for read cycles: 0
8banks busy for write cycles: 0

CPU 0 Branch Prediction Accuracy: 99.9093% MPKI: 0.16097 Average ROB Occupancy at Mispredict: 30.8901
Branch types
NOT_BRANCH: 164496944 82.2485%
BRANCH_DIRECT_JUMP: 1953106 0.976553%
BRANCH_INDIRECT: 12762841 6.38142%
BRANCH_CONDITIONAL: 10951337 5.47567%
BRANCH_DIRECT_CALL: 4143765 2.07188%
BRANCH_INDIRECT_CALL: 774109 0.387055%
BRANCH_RETURN: 4917864 2.45893%
BRANCH_OTHER: 0 0%

DRAM PAGES: 1048576
Allocated PAGES: 1251
