
*** ChampSim Multicore Out-of-Order Simulator ***

Warmup Instructions: 50000000
Simulation Instructions: 200000000
Number of CPUs: 1
LLC sets: 2048
LLC ways: 16
Off-chip DRAM Size: 4096 MB Channels: 1 Width: 64-bit Data Rate: 6400 MT/s
CPU 0 runs traces/spec2k17/srv_58.champsimtrace.xz
.xz
BTB has LRU replacement policy
ITLB has LRU replacement policy
DTLB has LRU replacement policy
STLB has LRU replacement policy
L1I has LRU replacement policy
CPU 0 L2C next line prefetcher
L1D has LRU replacement policy
Initialize SRRIP state for L2C
Initialize DRRIP state for LLC
Heartbeat CPU 0 instructions: 10000001 cycles: 2795285 heartbeat IPC: 3.57745 cumulative IPC: 3.57745 (Simulation time: 0 hr 0 min 43 sec) 
Heartbeat CPU 0 instructions: 20000002 cycles: 5589112 heartbeat IPC: 3.57932 cumulative IPC: 3.57839 (Simulation time: 0 hr 1 min 26 sec) 
Heartbeat CPU 0 instructions: 30000003 cycles: 8610528 heartbeat IPC: 3.30971 cumulative IPC: 3.48411 (Simulation time: 0 hr 2 min 16 sec) 
*** Reached end of trace for Core: 0 Repeating trace: traces/spec2k17/srv_58.champsimtrace.xz
Heartbeat CPU 0 instructions: 40000003 cycles: 11429351 heartbeat IPC: 3.54758 cumulative IPC: 3.49976 (Simulation time: 0 hr 2 min 58 sec) 
Heartbeat CPU 0 instructions: 50000000 cycles: 14219800 heartbeat IPC: 3.58365 cumulative IPC: 3.51622 (Simulation time: 0 hr 3 min 42 sec) 

Warmup complete CPU 0 instructions: 50000004 cycles: 14219801 (Simulation time: 0 hr 3 min 42 sec) 

Heartbeat CPU 0 instructions: 60000000 cycles: 25402130 heartbeat IPC: 0.894268 cumulative IPC: 0.894268 (Simulation time: 0 hr 4 min 43 sec) 
*** Reached end of trace for Core: 0 Repeating trace: traces/spec2k17/srv_58.champsimtrace.xz
Heartbeat CPU 0 instructions: 70000000 cycles: 42602122 heartbeat IPC: 0.581396 cumulative IPC: 0.704664 (Simulation time: 0 hr 5 min 43 sec) 
Heartbeat CPU 0 instructions: 80000003 cycles: 61178412 heartbeat IPC: 0.538321 cumulative IPC: 0.63886 (Simulation time: 0 hr 6 min 43 sec) 
Heartbeat CPU 0 instructions: 90000001 cycles: 73427704 heartbeat IPC: 0.816374 cumulative IPC: 0.675585 (Simulation time: 0 hr 7 min 42 sec) 
*** Reached end of trace for Core: 0 Repeating trace: traces/spec2k17/srv_58.champsimtrace.xz
Heartbeat CPU 0 instructions: 100000002 cycles: 89437117 heartbeat IPC: 0.624633 cumulative IPC: 0.664741 (Simulation time: 0 hr 8 min 43 sec) 
Heartbeat CPU 0 instructions: 110000000 cycles: 108278781 heartbeat IPC: 0.530739 cumulative IPC: 0.637898 (Simulation time: 0 hr 9 min 43 sec) 
Heartbeat CPU 0 instructions: 120000001 cycles: 121291574 heartbeat IPC: 0.768475 cumulative IPC: 0.653767 (Simulation time: 0 hr 10 min 44 sec) 
*** Reached end of trace for Core: 0 Repeating trace: traces/spec2k17/srv_58.champsimtrace.xz
Heartbeat CPU 0 instructions: 130000000 cycles: 136425034 heartbeat IPC: 0.660787 cumulative IPC: 0.654636 (Simulation time: 0 hr 11 min 45 sec) 
Heartbeat CPU 0 instructions: 140000000 cycles: 155135980 heartbeat IPC: 0.534447 cumulative IPC: 0.638678 (Simulation time: 0 hr 12 min 44 sec) 
Heartbeat CPU 0 instructions: 150000003 cycles: 169125350 heartbeat IPC: 0.714829 cumulative IPC: 0.645555 (Simulation time: 0 hr 13 min 45 sec) 
*** Reached end of trace for Core: 0 Repeating trace: traces/spec2k17/srv_58.champsimtrace.xz
Heartbeat CPU 0 instructions: 160000000 cycles: 183334245 heartbeat IPC: 0.703784 cumulative IPC: 0.650447 (Simulation time: 0 hr 14 min 44 sec) 
Heartbeat CPU 0 instructions: 170000000 cycles: 202116763 heartbeat IPC: 0.53241 cumulative IPC: 0.638648 (Simulation time: 0 hr 15 min 43 sec) 
Heartbeat CPU 0 instructions: 180000000 cycles: 216918559 heartbeat IPC: 0.675594 cumulative IPC: 0.641346 (Simulation time: 0 hr 16 min 42 sec) 
*** Reached end of trace for Core: 0 Repeating trace: traces/spec2k17/srv_58.champsimtrace.xz
Heartbeat CPU 0 instructions: 190000000 cycles: 230190228 heartbeat IPC: 0.753485 cumulative IPC: 0.648237 (Simulation time: 0 hr 17 min 42 sec) 
Heartbeat CPU 0 instructions: 200000000 cycles: 249002571 heartbeat IPC: 0.531566 cumulative IPC: 0.638888 (Simulation time: 0 hr 18 min 43 sec) 
Heartbeat CPU 0 instructions: 210000002 cycles: 264786980 heartbeat IPC: 0.633537 cumulative IPC: 0.638551 (Simulation time: 0 hr 19 min 44 sec) 
*** Reached end of trace for Core: 0 Repeating trace: traces/spec2k17/srv_58.champsimtrace.xz
Heartbeat CPU 0 instructions: 220000000 cycles: 277267801 heartbeat IPC: 0.801229 cumulative IPC: 0.64627 (Simulation time: 0 hr 20 min 45 sec) 
Heartbeat CPU 0 instructions: 230000001 cycles: 295859630 heartbeat IPC: 0.537871 cumulative IPC: 0.639114 (Simulation time: 0 hr 21 min 43 sec) 
Heartbeat CPU 0 instructions: 240000003 cycles: 312642580 heartbeat IPC: 0.595843 cumulative IPC: 0.636681 (Simulation time: 0 hr 22 min 43 sec) 
*** Reached end of trace for Core: 0 Repeating trace: traces/spec2k17/srv_58.champsimtrace.xz
Heartbeat CPU 0 instructions: 250000000 cycles: 324034343 heartbeat IPC: 0.877827 cumulative IPC: 0.645547 (Simulation time: 0 hr 23 min 43 sec) 
Finished CPU 0 instructions: 200000000 cycles: 309814543 cumulative IPC: 0.645548 (Simulation time: 0 hr 23 min 43 sec) 

ChampSim completed all CPUs

Region of Interest Statistics

CPU 0 cumulative IPC: 0.645548 instructions: 200000000 cycles: 309814543
ITLB TOTAL     ACCESS:   36473056  HIT:   35953004  MISS:     520052  HIT %:    98.5741  MISS %:    1.42585   MPKI: 2.60026
ITLB LOAD TRANSLATION ACCESS:   36473056  HIT:   35953004  MISS:     520052  HIT %:    98.5741  MISS %:    1.42585   MPKI: 2.60026
ITLB PREFETCH  REQUESTED:          0  ISSUED:          0  USEFUL:          0  USELESS:          0
ITLB USEFUL LOAD PREFETCHES:          0 PREFETCH ISSUED TO LOWER LEVEL:          0  ACCURACY: -nan
ITLB TIMELY PREFETCHES:          0 LATE PREFETCHES: 0 DROPPED PREFETCHES: 0
ITLB PREFETCHES SAME FILL-ORIGIN LEVEL: 0 DIFFERENT FILL-ORIGIN LEVEL: 0
ITLB AVERAGE MISS LATENCY: 9.01394 cycles
ITLB RQ	ACCESS:   40846874	FORWARD:          0	MERGED:    4205612	TO_CACHE:   36641262

DTLB TOTAL     ACCESS:   43230971  HIT:   42579628  MISS:     651343  HIT %:    98.4933  MISS %:    1.50666   MPKI: 3.25671
DTLB LOAD TRANSLATION ACCESS:   43230971  HIT:   42579628  MISS:     651343  HIT %:    98.4933  MISS %:    1.50666   MPKI: 3.25671
DTLB PREFETCH  REQUESTED:          0  ISSUED:          0  USEFUL:          0  USELESS:          0
DTLB USEFUL LOAD PREFETCHES:          0 PREFETCH ISSUED TO LOWER LEVEL:          0  ACCURACY: -nan
DTLB TIMELY PREFETCHES:          0 LATE PREFETCHES: 0 DROPPED PREFETCHES: 0
DTLB PREFETCHES SAME FILL-ORIGIN LEVEL: 0 DIFFERENT FILL-ORIGIN LEVEL: 0
DTLB AVERAGE MISS LATENCY: 9.03929 cycles
DTLB RQ	ACCESS:   59540760	FORWARD:          0	MERGED:   16280541	TO_CACHE:   43260219

STLB TOTAL     ACCESS:    1360102  HIT:    1359576  MISS:        526  HIT %:    99.9613  MISS %:  0.0386736   MPKI: 0.00263
STLB LOAD TRANSLATION ACCESS:    1171395  HIT:    1170877  MISS:        518  HIT %:    99.9558  MISS %:  0.0442208   MPKI: 0.00259
STLB TRANSLATION FROM L1D PREFETCHER ACCESS:     188707  HIT:     188699  MISS:          8  HIT %:    99.9958  MISS %: 0.00423938   MPKI: 4e-05
STLB PREFETCH  REQUESTED:          0  ISSUED:          0  USEFUL:          8  USELESS:          0
STLB USEFUL LOAD PREFETCHES:          8 PREFETCH ISSUED TO LOWER LEVEL:          0  ACCURACY: inf
STLB TIMELY PREFETCHES:          8 LATE PREFETCHES: 0 DROPPED PREFETCHES: 512
STLB PREFETCHES SAME FILL-ORIGIN LEVEL: 0 DIFFERENT FILL-ORIGIN LEVEL: 0
STLB AVERAGE MISS LATENCY: 55.5133 cycles
STLB RQ	ACCESS:    1399944	FORWARD:          0	MERGED:      39275	TO_CACHE:    1360669

STLB Hit, L1D data hit: 0
STLB Hit, L2C data hit: 0
STLB Hit, LLC data hit: 0
STLB Hit, LLC data miss: 0
STLB STLB hints to L2: 0
L1D TOTAL     ACCESS:   59372390  HIT:   58385227  MISS:     987163  HIT %:    98.3373  MISS %:    1.66266   MPKI: 4.93581
L1D LOAD      ACCESS:   38530203  HIT:   37921371  MISS:     608832  HIT %:    98.4199  MISS %:    1.58014   MPKI: 3.04416
L1D RFO       ACCESS:   20664938  HIT:   20410054  MISS:     254884  HIT %:    98.7666  MISS %:    1.23341   MPKI: 1.27442
L1D PREFETCH  ACCESS:     177249  HIT:      53802  MISS:     123447  HIT %:    30.3539  MISS %:    69.6461   MPKI: 0.617235
AGUS PREFETCH L1 MISS: 0
L1D PREFETCH  REQUESTED:     461376  ISSUED:     461376  USEFUL:      39020  USELESS:      84427
L1D USEFUL LOAD PREFETCHES:      39020 PREFETCH ISSUED TO LOWER LEVEL:     143065  ACCURACY: 27.2743
L1D TIMELY PREFETCHES:      39020 LATE PREFETCHES: 19077 DROPPED PREFETCHES: 599
L1D PREFETCHES SAME FILL-ORIGIN LEVEL: 143065 DIFFERENT FILL-ORIGIN LEVEL: 0
L1D AVERAGE MISS LATENCY: 3.39696e+06 cycles
L1D RQ	ACCESS:   53962744	FORWARD:          0	MERGED:   15197709	TO_CACHE:   38554741
L1D WQ	ACCESS:   21214489	FORWARD:     210540	MERGED:     228470	TO_CACHE:   20986019
L1D PQ	ACCESS:     232827	FORWARD:          0	MERGED:       4032	TO_CACHE:     228549

L1D UNIQUE REGIONS ACCESSED: 0
L1D REGIONS CONFLICTS: 0
L1D Cross Page Prefetch Requests: 12205
L1D Same Page Prefetch Requests: 300493
L1D ROI Sum of L1D PQ occupancy: 2943922
L1D PREFETCHES PUSHED FROM L2C: 0
L1I TOTAL     ACCESS:   40497550  HIT:   38561450  MISS:    1936100  HIT %:    95.2192  MISS %:    4.78078   MPKI: 9.6805
L1I LOAD      ACCESS:   40497550  HIT:   38561450  MISS:    1936100  HIT %:    95.2192  MISS %:    4.78078   MPKI: 9.6805
L1I PREFETCH  REQUESTED:          0  ISSUED:          0  USEFUL:          0  USELESS:          0
L1I USEFUL LOAD PREFETCHES:          0 PREFETCH ISSUED TO LOWER LEVEL:          0  ACCURACY: -nan
L1I TIMELY PREFETCHES:          0 LATE PREFETCHES: 0 DROPPED PREFETCHES: 0
L1I PREFETCHES SAME FILL-ORIGIN LEVEL: 0 DIFFERENT FILL-ORIGIN LEVEL: 0
L1I AVERAGE MISS LATENCY: 18.4047 cycles
L1I RQ	ACCESS:   63948764	FORWARD:          0	MERGED:   23101890	TO_CACHE:   40846874

BTB TOTAL     ACCESS:   35033009  HIT:   31765673  MISS:    3267336  HIT %:    90.6736  MISS %:    9.32645   MPKI: 16.3367
BTB BRANCH_DIRECT_JUMP	ACCESS:    3530101  HIT:    3387873  MISS:     142228
BTB BRANCH_INDIRECT	ACCESS:   14433198  HIT:   13493749  MISS:     939449
BTB BRANCH_CONDITIONAL	ACCESS:    7608282  HIT:    7427963  MISS:     180319
BTB BRANCH_DIRECT_CALL	ACCESS:    2343708  HIT:    2092536  MISS:     251172
BTB BRANCH_INDIRECT_CALL	ACCESS:    2387048  HIT:    2184647  MISS:     202401
BTB BRANCH_RETURN	ACCESS:    4730672  HIT:    3178905  MISS:    1551767
BTB BRANCH_OTHER ACCESS:          0  HIT:          0  MISS:          0

L2C TOTAL     ACCESS:    3351341  HIT:    2850295  MISS:     501046  HIT %:    85.0494  MISS %:    14.9506   MPKI: 2.50523
L2C LOAD      ACCESS:    2525825  HIT:    2144787  MISS:     381038  HIT %:    84.9143  MISS %:    15.0857   MPKI: 1.90519
L2C DATA LOAD MPKI: 0.502645
L2C INSTRUCTION LOAD MPKI: 1.40254
L2C RFO       ACCESS:     254343  HIT:     192690  MISS:      61653  HIT %:    75.7599  MISS %:    24.2401   MPKI: 0.308265
L2C PREFETCH  ACCESS:     143065  HIT:      94841  MISS:      48224  HIT %:    66.2922  MISS %:    33.7078   MPKI: 0.24112
AGUS PREFETCH L1 MISS: 0
L2C DATA PREFETCH MPKI: 0.24112
L2C INSTRUCTION PREFETCH MPKI: 0
L2C WRITEBACK ACCESS:     426532  HIT:     417337  MISS:       9195  HIT %:    97.8442  MISS %:    2.15576   MPKI: 0.045975
L2C LOAD TRANSLATION ACCESS:        651  HIT:        140  MISS:        511  HIT %:    21.5054  MISS %:    78.4946   MPKI: 0.002555
L2C TRANSLATION FROM L1D PREFETCHER ACCESS:        925  HIT:        500  MISS:        425  HIT %:    54.0541  MISS %:    45.9459   MPKI: 0.002125
L2C PREFETCH  REQUESTED:          0  ISSUED:          0  USEFUL:       4410  USELESS:      44498
L2C USEFUL LOAD PREFETCHES:       4410 PREFETCH ISSUED TO LOWER LEVEL:      48224  ACCURACY: 9.14482
L2C TIMELY PREFETCHES:       4410 LATE PREFETCHES: 0 DROPPED PREFETCHES: 0
L2C PREFETCHES SAME FILL-ORIGIN LEVEL: 0 DIFFERENT FILL-ORIGIN LEVEL: 0
L2C AVERAGE MISS LATENCY: 29.7931 cycles
L2C RQ	ACCESS:    2781774	FORWARD:          0	MERGED:          0	TO_CACHE:    2781744
L2C WQ	ACCESS:     426532	FORWARD:         30	MERGED:          0	TO_CACHE:     426532
L2C PQ	ACCESS:     143065	FORWARD:          0	MERGED:          0	TO_CACHE:     143065

L2C Instructions Evicting Data 106190
L2C Translations Evicting Data 615
L2C Data Evicting Data 108187
L2C Instructions Evicting Instructions 174012
L2C Translations Evicting Instructions 313
L2C Data Evicting Instructions 101613
L2C Instructions Evicting Translations 307
L2C Translations Evicting Translations 8
L2C Data Evicting Translations 599
L2C Dense regions hint from L2: 0
PSCL5 TOTAL     ACCESS:       1038  HIT:       1038  MISS:          0  HIT %:        100  MISS %:          0   MPKI: 0
PSCL5 LOAD TRANSLATION ACCESS:        518  HIT:        518  MISS:          0  HIT %:        100  MISS %:          0   MPKI: 0
PSCL5 TRANSLATION FROM L1D PREFETCHER ACCESS:        520  HIT:        520  MISS:          0  HIT %:        100  MISS %:          0   MPKI: 0
PSCL5 PREFETCH  REQUESTED:          0  ISSUED:          0  USEFUL:          0  USELESS:          0
PSCL5 USEFUL LOAD PREFETCHES:          0 PREFETCH ISSUED TO LOWER LEVEL:          0  ACCURACY: -nan
PSCL5 TIMELY PREFETCHES:          0 LATE PREFETCHES: 0 DROPPED PREFETCHES: 0
PSCL5 PREFETCHES SAME FILL-ORIGIN LEVEL: 0 DIFFERENT FILL-ORIGIN LEVEL: 0

PSCL4 TOTAL     ACCESS:       1038  HIT:       1038  MISS:          0  HIT %:        100  MISS %:          0   MPKI: 0
PSCL4 LOAD TRANSLATION ACCESS:        518  HIT:        518  MISS:          0  HIT %:        100  MISS %:          0   MPKI: 0
PSCL4 TRANSLATION FROM L1D PREFETCHER ACCESS:        520  HIT:        520  MISS:          0  HIT %:        100  MISS %:          0   MPKI: 0
PSCL4 PREFETCH  REQUESTED:          0  ISSUED:          0  USEFUL:          0  USELESS:          0
PSCL4 USEFUL LOAD PREFETCHES:          0 PREFETCH ISSUED TO LOWER LEVEL:          0  ACCURACY: -nan
PSCL4 TIMELY PREFETCHES:          0 LATE PREFETCHES: 0 DROPPED PREFETCHES: 0
PSCL4 PREFETCHES SAME FILL-ORIGIN LEVEL: 0 DIFFERENT FILL-ORIGIN LEVEL: 0

PSCL3 TOTAL     ACCESS:        608  HIT:        569  MISS:         39  HIT %:    93.5855  MISS %:    6.41447   MPKI: 0.000195
PSCL3 LOAD TRANSLATION ACCESS:        347  HIT:        308  MISS:         39  HIT %:    88.7608  MISS %:    11.2392   MPKI: 0.000195
PSCL3 TRANSLATION FROM L1D PREFETCHER ACCESS:        261  HIT:        261  MISS:          0  HIT %:        100  MISS %:          0   MPKI: 0
PSCL3 PREFETCH  REQUESTED:          0  ISSUED:          0  USEFUL:          0  USELESS:          0
PSCL3 USEFUL LOAD PREFETCHES:          0 PREFETCH ISSUED TO LOWER LEVEL:          0  ACCURACY: -nan
PSCL3 TIMELY PREFETCHES:          0 LATE PREFETCHES: 0 DROPPED PREFETCHES: 0
PSCL3 PREFETCHES SAME FILL-ORIGIN LEVEL: 0 DIFFERENT FILL-ORIGIN LEVEL: 0

PSCL2 TOTAL     ACCESS:        749  HIT:        653  MISS:         96  HIT %:    87.1829  MISS %:    12.8171   MPKI: 0.00048
PSCL2 LOAD TRANSLATION ACCESS:        519  HIT:        423  MISS:         96  HIT %:    81.5029  MISS %:    18.4971   MPKI: 0.00048
PSCL2 TRANSLATION FROM L1D PREFETCHER ACCESS:        230  HIT:        230  MISS:          0  HIT %:        100  MISS %:          0   MPKI: 0
PSCL2 PREFETCH  REQUESTED:          0  ISSUED:          0  USEFUL:          0  USELESS:          0
PSCL2 USEFUL LOAD PREFETCHES:          0 PREFETCH ISSUED TO LOWER LEVEL:          0  ACCURACY: -nan
PSCL2 TIMELY PREFETCHES:          0 LATE PREFETCHES: 0 DROPPED PREFETCHES: 0
PSCL2 PREFETCHES SAME FILL-ORIGIN LEVEL: 0 DIFFERENT FILL-ORIGIN LEVEL: 0

LLC TOTAL     ACCESS:     575899  HIT:     574773  MISS:       1126  HIT %:    99.8045  MISS %:    0.19552   MPKI: 0.00563
LLC LOAD      ACCESS:     381038  HIT:     380759  MISS:        279  HIT %:    99.9268  MISS %:   0.073221   MPKI: 0.001395
LLC RFO       ACCESS:      61653  HIT:      61648  MISS:          5  HIT %:    99.9919  MISS %: 0.00810991   MPKI: 2.5e-05
LLC PREFETCH  ACCESS:      48224  HIT:      47397  MISS:        827  HIT %:    98.2851  MISS %:    1.71491   MPKI: 0.004135
AGUS PREFETCH L1 MISS: 0
LLC WRITEBACK ACCESS:      84048  HIT:      84046  MISS:          2  HIT %:    99.9976  MISS %: 0.00237959   MPKI: 1e-05
LLC LOAD TRANSLATION ACCESS:        511  HIT:        500  MISS:         11  HIT %:    97.8474  MISS %:    2.15264   MPKI: 5.5e-05
LLC TRANSLATION FROM L1D PREFETCHER ACCESS:        425  HIT:        423  MISS:          2  HIT %:    99.5294  MISS %:   0.470588   MPKI: 1e-05
LLC PREFETCH  REQUESTED:          0  ISSUED:          0  USEFUL:       1315  USELESS:        100
LLC USEFUL LOAD PREFETCHES:       1315 PREFETCH ISSUED TO LOWER LEVEL:        827  ACCURACY: 159.008
LLC TIMELY PREFETCHES:       1315 LATE PREFETCHES: 0 DROPPED PREFETCHES: 0
LLC PREFETCHES SAME FILL-ORIGIN LEVEL: 0 DIFFERENT FILL-ORIGIN LEVEL: 0
LLC AVERAGE MISS LATENCY: 152.895 cycles
LLC RQ	ACCESS:     443627	FORWARD:          0	MERGED:          0	TO_CACHE:     443627
LLC WQ	ACCESS:      84048	FORWARD:          0	MERGED:          0	TO_CACHE:      84048
LLC PQ	ACCESS:      48224	FORWARD:          0	MERGED:          0	TO_CACHE:      48224

LLC Dense regions hint to LLC: 0

RAW hits: 3385853
Loads Generated: 57348600
Loads sent to L1D: 53962744
Stores Generated: 21214489
Stores sent to L1D: 21214489
Major fault: 0 Minor fault: 1185
Allocated PAGES: 1185
CPU 0 L1d next line prefetcher final stats

DRAM Statistics
 CHANNEL 0
 RQ ROW_BUFFER_HIT:        190  ROW_BUFFER_MISS:        934
 DBUS_CONGESTED:          0
 WQ ROW_BUFFER_HIT:          0  ROW_BUFFER_MISS:         10  FULL:          0

 AVG_CONGESTED_CYCLE: -
 All warmup complete: 2
Channel 0 Bank busy for read cycles: 0
Channel 0 Bank busy for write cycles: 0
Channel 0
Rank 0
0banks busy for read cycles: 309672454
0banks busy for write cycles: 10
1banks busy for read cycles: 132261
1banks busy for write cycles: 1500
2banks busy for read cycles: 7749
2banks busy for write cycles: 0
3banks busy for read cycles: 439
3banks busy for write cycles: 0
4banks busy for read cycles: 131
4banks busy for write cycles: 0
5banks busy for read cycles: 0
5banks busy for write cycles: 0
6banks busy for read cycles: 0
6banks busy for write cycles: 0
7banks busy for read cycles: 0
7banks busy for write cycles: 0
8banks busy for read cycles: 0
8banks busy for write cycles: 0

CPU 0 Branch Prediction Accuracy: 99.8678% MPKI: 0.264215 Average ROB Occupancy at Mispredict: 41.4828
Branch types
NOT_BRANCH: 160022998 80.0115%
BRANCH_DIRECT_JUMP: 3530101 1.76505%
BRANCH_INDIRECT: 14433198 7.2166%
BRANCH_CONDITIONAL: 12551976 6.27599%
BRANCH_DIRECT_CALL: 2343708 1.17185%
BRANCH_INDIRECT_CALL: 2387048 1.19352%
BRANCH_RETURN: 4730672 2.36534%
BRANCH_OTHER: 0 0%

DRAM PAGES: 1048576
Allocated PAGES: 1185
