
*** ChampSim Multicore Out-of-Order Simulator ***

Warmup Instructions: 50000000
Simulation Instructions: 200000000
Number of CPUs: 1
LLC sets: 2048
LLC ways: 16
Off-chip DRAM Size: 4096 MB Channels: 1 Width: 64-bit Data Rate: 6400 MT/s
CPU 0 runs traces/spec2k17/srv_35.champsimtrace.xz
.xz
BTB has LRU replacement policy
ITLB has LRU replacement policy
DTLB has LRU replacement policy
STLB has LRU replacement policy
L1I has LRU replacement policy
CPU 0 L2C next line prefetcher
L1D has LRU replacement policy
Initialize SRRIP state for L2C
Initialize DRRIP state for LLC
Heartbeat CPU 0 instructions: 10000002 cycles: 2937844 heartbeat IPC: 3.40386 cumulative IPC: 3.40386 (Simulation time: 0 hr 0 min 46 sec) 
Heartbeat CPU 0 instructions: 20000000 cycles: 5879261 heartbeat IPC: 3.39972 cumulative IPC: 3.40179 (Simulation time: 0 hr 1 min 27 sec) 
Heartbeat CPU 0 instructions: 30000001 cycles: 8822491 heartbeat IPC: 3.39763 cumulative IPC: 3.4004 (Simulation time: 0 hr 2 min 11 sec) 
*** Reached end of trace for Core: 0 Repeating trace: traces/spec2k17/srv_35.champsimtrace.xz
Heartbeat CPU 0 instructions: 40000002 cycles: 11756362 heartbeat IPC: 3.40847 cumulative IPC: 3.40241 (Simulation time: 0 hr 2 min 55 sec) 
Heartbeat CPU 0 instructions: 50000002 cycles: 14696682 heartbeat IPC: 3.40099 cumulative IPC: 3.40213 (Simulation time: 0 hr 3 min 39 sec) 

Warmup complete CPU 0 instructions: 50000002 cycles: 14696682 (Simulation time: 0 hr 3 min 39 sec) 

Heartbeat CPU 0 instructions: 60000002 cycles: 34499682 heartbeat IPC: 0.504974 cumulative IPC: 0.504974 (Simulation time: 0 hr 5 min 0 sec) 
*** Reached end of trace for Core: 0 Repeating trace: traces/spec2k17/srv_35.champsimtrace.xz
Heartbeat CPU 0 instructions: 70000001 cycles: 53819023 heartbeat IPC: 0.517616 cumulative IPC: 0.511217 (Simulation time: 0 hr 6 min 21 sec) 
Heartbeat CPU 0 instructions: 80000002 cycles: 73454643 heartbeat IPC: 0.509279 cumulative IPC: 0.510569 (Simulation time: 0 hr 7 min 41 sec) 
Heartbeat CPU 0 instructions: 90000003 cycles: 93113006 heartbeat IPC: 0.508689 cumulative IPC: 0.510098 (Simulation time: 0 hr 9 min 3 sec) 
*** Reached end of trace for Core: 0 Repeating trace: traces/spec2k17/srv_35.champsimtrace.xz
Heartbeat CPU 0 instructions: 100000001 cycles: 112355514 heartbeat IPC: 0.519683 cumulative IPC: 0.511986 (Simulation time: 0 hr 10 min 23 sec) 
Heartbeat CPU 0 instructions: 110000000 cycles: 132051547 heartbeat IPC: 0.507716 cumulative IPC: 0.51127 (Simulation time: 0 hr 11 min 44 sec) 
Heartbeat CPU 0 instructions: 120000000 cycles: 151694046 heartbeat IPC: 0.5091 cumulative IPC: 0.510959 (Simulation time: 0 hr 13 min 6 sec) 
*** Reached end of trace for Core: 0 Repeating trace: traces/spec2k17/srv_35.champsimtrace.xz
Heartbeat CPU 0 instructions: 130000001 cycles: 170975644 heartbeat IPC: 0.518629 cumulative IPC: 0.511905 (Simulation time: 0 hr 14 min 25 sec) 
Heartbeat CPU 0 instructions: 140000000 cycles: 190605369 heartbeat IPC: 0.509431 cumulative IPC: 0.511629 (Simulation time: 0 hr 15 min 47 sec) 
Heartbeat CPU 0 instructions: 150000002 cycles: 210212120 heartbeat IPC: 0.510028 cumulative IPC: 0.511469 (Simulation time: 0 hr 17 min 5 sec) 
Heartbeat CPU 0 instructions: 160000001 cycles: 229623051 heartbeat IPC: 0.515174 cumulative IPC: 0.511803 (Simulation time: 0 hr 18 min 28 sec) 
*** Reached end of trace for Core: 0 Repeating trace: traces/spec2k17/srv_35.champsimtrace.xz
Heartbeat CPU 0 instructions: 170000000 cycles: 248947151 heartbeat IPC: 0.517488 cumulative IPC: 0.512272 (Simulation time: 0 hr 19 min 49 sec) 
Heartbeat CPU 0 instructions: 180000000 cycles: 268697692 heartbeat IPC: 0.506315 cumulative IPC: 0.511809 (Simulation time: 0 hr 21 min 9 sec) 
Heartbeat CPU 0 instructions: 190000003 cycles: 288077654 heartbeat IPC: 0.515997 cumulative IPC: 0.512106 (Simulation time: 0 hr 22 min 30 sec) 
*** Reached end of trace for Core: 0 Repeating trace: traces/spec2k17/srv_35.champsimtrace.xz
Heartbeat CPU 0 instructions: 200000000 cycles: 307370835 heartbeat IPC: 0.518318 cumulative IPC: 0.512515 (Simulation time: 0 hr 23 min 51 sec) 
Heartbeat CPU 0 instructions: 210000001 cycles: 326928175 heartbeat IPC: 0.511317 cumulative IPC: 0.51244 (Simulation time: 0 hr 25 min 8 sec) 
Heartbeat CPU 0 instructions: 220000000 cycles: 346504150 heartbeat IPC: 0.51083 cumulative IPC: 0.512345 (Simulation time: 0 hr 26 min 27 sec) 
*** Reached end of trace for Core: 0 Repeating trace: traces/spec2k17/srv_35.champsimtrace.xz
Heartbeat CPU 0 instructions: 230000000 cycles: 365787950 heartbeat IPC: 0.51857 cumulative IPC: 0.512687 (Simulation time: 0 hr 27 min 46 sec) 
Heartbeat CPU 0 instructions: 240000001 cycles: 385359737 heartbeat IPC: 0.51094 cumulative IPC: 0.512595 (Simulation time: 0 hr 29 min 8 sec) 
Heartbeat CPU 0 instructions: 250000001 cycles: 404920978 heartbeat IPC: 0.511215 cumulative IPC: 0.512526 (Simulation time: 0 hr 30 min 30 sec) 
Finished CPU 0 instructions: 200000003 cycles: 390224297 cumulative IPC: 0.512526 (Simulation time: 0 hr 30 min 30 sec) 

ChampSim completed all CPUs

Region of Interest Statistics

CPU 0 cumulative IPC: 0.512526 instructions: 200000003 cycles: 390224297
ITLB TOTAL     ACCESS:   33774183  HIT:   32235869  MISS:    1538314  HIT %:    95.4453  MISS %:     4.5547   MPKI: 7.69157
ITLB LOAD TRANSLATION ACCESS:   33774183  HIT:   32235869  MISS:    1538314  HIT %:    95.4453  MISS %:     4.5547   MPKI: 7.69157
ITLB PREFETCH  REQUESTED:          0  ISSUED:          0  USEFUL:          0  USELESS:          0
ITLB USEFUL LOAD PREFETCHES:          0 PREFETCH ISSUED TO LOWER LEVEL:          0  ACCURACY: -nan
ITLB TIMELY PREFETCHES:          0 LATE PREFETCHES: 0 DROPPED PREFETCHES: 0
ITLB PREFETCHES SAME FILL-ORIGIN LEVEL: 0 DIFFERENT FILL-ORIGIN LEVEL: 0
ITLB AVERAGE MISS LATENCY: 9.25897 cycles
ITLB RQ	ACCESS:   40658184	FORWARD:          0	MERGED:    6389213	TO_CACHE:   34268971

DTLB TOTAL     ACCESS:   40023454  HIT:   38492543  MISS:    1530911  HIT %:     96.175  MISS %:    3.82503   MPKI: 7.65455
DTLB LOAD TRANSLATION ACCESS:   40023454  HIT:   38492543  MISS:    1530911  HIT %:     96.175  MISS %:    3.82503   MPKI: 7.65455
DTLB PREFETCH  REQUESTED:          0  ISSUED:          0  USEFUL:          0  USELESS:          0
DTLB USEFUL LOAD PREFETCHES:          0 PREFETCH ISSUED TO LOWER LEVEL:          0  ACCURACY: -nan
DTLB TIMELY PREFETCHES:          0 LATE PREFETCHES: 0 DROPPED PREFETCHES: 0
DTLB PREFETCHES SAME FILL-ORIGIN LEVEL: 0 DIFFERENT FILL-ORIGIN LEVEL: 0
DTLB AVERAGE MISS LATENCY: 14.8988 cycles
DTLB RQ	ACCESS:   61110944	FORWARD:          0	MERGED:   20691231	TO_CACHE:   40419713

STLB TOTAL     ACCESS:    4434223  HIT:    4355833  MISS:      78390  HIT %:    98.2322  MISS %:    1.76784   MPKI: 0.39195
STLB LOAD TRANSLATION ACCESS:    3069225  HIT:    2993469  MISS:      75756  HIT %:    97.5318  MISS %:    2.46825   MPKI: 0.37878
STLB TRANSLATION FROM L1D PREFETCHER ACCESS:    1364998  HIT:    1362364  MISS:       2634  HIT %:     99.807  MISS %:   0.192967   MPKI: 0.01317
STLB PREFETCH  REQUESTED:          0  ISSUED:          0  USEFUL:       2487  USELESS:        147
STLB USEFUL LOAD PREFETCHES:       2487 PREFETCH ISSUED TO LOWER LEVEL:          0  ACCURACY: inf
STLB TIMELY PREFETCHES:       2487 LATE PREFETCHES: 773 DROPPED PREFETCHES: 2974
STLB PREFETCHES SAME FILL-ORIGIN LEVEL: 0 DIFFERENT FILL-ORIGIN LEVEL: 0
STLB AVERAGE MISS LATENCY: 595192 cycles
STLB RQ	ACCESS:    4925694	FORWARD:          0	MERGED:     485978	TO_CACHE:    4439716

STLB Hit, L1D data hit: 0
STLB Hit, L2C data hit: 0
STLB Hit, LLC data hit: 0
STLB Hit, LLC data miss: 0
STLB STLB hints to L2: 0
L1D TOTAL     ACCESS:   50008077  HIT:   42812896  MISS:    7195181  HIT %:     85.612  MISS %:     14.388   MPKI: 35.9759
L1D LOAD      ACCESS:   26797085  HIT:   24022771  MISS:    2774314  HIT %:     89.647  MISS %:     10.353   MPKI: 13.8716
L1D RFO       ACCESS:   22331795  HIT:   18658123  MISS:    3673672  HIT %:    83.5496  MISS %:    16.4504   MPKI: 18.3684
L1D PREFETCH  ACCESS:     879197  HIT:     132002  MISS:     747195  HIT %:    15.0139  MISS %:    84.9861   MPKI: 3.73597
AGUS PREFETCH L1 MISS: 0
L1D PREFETCH  REQUESTED:    3847510  ISSUED:    3847152  USEFUL:     345719  USELESS:     401460
L1D USEFUL LOAD PREFETCHES:     345719 PREFETCH ISSUED TO LOWER LEVEL:    1137424  ACCURACY: 30.3949
L1D TIMELY PREFETCHES:     345719 LATE PREFETCHES: 388529 DROPPED PREFETCHES: 4455
L1D PREFETCHES SAME FILL-ORIGIN LEVEL: 1137424 DIFFERENT FILL-ORIGIN LEVEL: 0
L1D AVERAGE MISS LATENCY: 1.14376e+07 cycles
L1D RQ	ACCESS:   45287665	FORWARD:          0	MERGED:   17845129	TO_CACHE:   27174267
L1D WQ	ACCESS:   34133602	FORWARD:     268296	MERGED:     196925	TO_CACHE:   33936677
L1D PQ	ACCESS:    1990683	FORWARD:          0	MERGED:     134187	TO_CACHE:    1856469

L1D UNIQUE REGIONS ACCESSED: 0
L1D REGIONS CONFLICTS: 0
L1D Cross Page Prefetch Requests: 79192
L1D Same Page Prefetch Requests: 2286986
L1D ROI Sum of L1D PQ occupancy: 26986291
L1D PREFETCHES PUSHED FROM L2C: 0
L1I TOTAL     ACCESS:   38001445  HIT:   28895978  MISS:    9105467  HIT %:    76.0392  MISS %:    23.9608   MPKI: 45.5273
L1I LOAD      ACCESS:   38001445  HIT:   28895978  MISS:    9105467  HIT %:    76.0392  MISS %:    23.9608   MPKI: 45.5273
L1I PREFETCH  REQUESTED:          0  ISSUED:          0  USEFUL:          0  USELESS:          0
L1I USEFUL LOAD PREFETCHES:          0 PREFETCH ISSUED TO LOWER LEVEL:          0  ACCURACY: -nan
L1I TIMELY PREFETCHES:          0 LATE PREFETCHES: 0 DROPPED PREFETCHES: 0
L1I PREFETCHES SAME FILL-ORIGIN LEVEL: 0 DIFFERENT FILL-ORIGIN LEVEL: 0
L1I AVERAGE MISS LATENCY: 16.8716 cycles
L1I RQ	ACCESS:   58970732	FORWARD:          0	MERGED:   18312548	TO_CACHE:   40658184

BTB TOTAL     ACCESS:   25730492  HIT:   24146056  MISS:    1584436  HIT %:    93.8422  MISS %:    6.15781   MPKI: 7.92218
BTB BRANCH_DIRECT_JUMP	ACCESS:    1658706  HIT:    1646127  MISS:      12579
BTB BRANCH_INDIRECT	ACCESS:    9991436  HIT:    9459142  MISS:     532294
BTB BRANCH_CONDITIONAL	ACCESS:    7236367  HIT:    7219065  MISS:      17302
BTB BRANCH_DIRECT_CALL	ACCESS:    2824055  HIT:    2784656  MISS:      39399
BTB BRANCH_INDIRECT_CALL	ACCESS:     597965  HIT:     486107  MISS:     111858
BTB BRANCH_RETURN	ACCESS:    3421963  HIT:    2550959  MISS:     871004
BTB BRANCH_OTHER ACCESS:          0  HIT:          0  MISS:          0

L2C TOTAL     ACCESS:   20736514  HIT:   13837926  MISS:    6898588  HIT %:    66.7322  MISS %:    33.2678   MPKI: 34.4929
L2C LOAD      ACCESS:   11490949  HIT:    9229293  MISS:    2261656  HIT %:    80.3179  MISS %:    19.6821   MPKI: 11.3083
L2C DATA LOAD MPKI: 8.39625
L2C INSTRUCTION LOAD MPKI: 2.91202
L2C RFO       ACCESS:    3671965  HIT:     156373  MISS:    3515592  HIT %:    4.25856  MISS %:    95.7414   MPKI: 17.578
L2C PREFETCH  ACCESS:    1137424  HIT:     201824  MISS:     935600  HIT %:     17.744  MISS %:     82.256   MPKI: 4.678
AGUS PREFETCH L1 MISS: 0
L2C DATA PREFETCH MPKI: 4.678
L2C INSTRUCTION PREFETCH MPKI: 0
L2C WRITEBACK ACCESS:    4341086  HIT:    4201539  MISS:     139547  HIT %:    96.7854  MISS %:    3.21456   MPKI: 0.697735
L2C LOAD TRANSLATION ACCESS:      87471  HIT:      44032  MISS:      43439  HIT %:     50.339  MISS %:     49.661   MPKI: 0.217195
L2C TRANSLATION FROM L1D PREFETCHER ACCESS:       7619  HIT:       4865  MISS:       2754  HIT %:    63.8535  MISS %:    36.1465   MPKI: 0.01377
L2C PREFETCH  REQUESTED:          0  ISSUED:          0  USEFUL:      33947  USELESS:     904548
L2C USEFUL LOAD PREFETCHES:      33947 PREFETCH ISSUED TO LOWER LEVEL:     935600  ACCURACY: 3.62837
L2C TIMELY PREFETCHES:      33947 LATE PREFETCHES: 0 DROPPED PREFETCHES: 0
L2C PREFETCHES SAME FILL-ORIGIN LEVEL: 0 DIFFERENT FILL-ORIGIN LEVEL: 0
L2C AVERAGE MISS LATENCY: 154.078 cycles
L2C RQ	ACCESS:   15258314	FORWARD:          0	MERGED:          0	TO_CACHE:   15258004
L2C WQ	ACCESS:    4341086	FORWARD:        310	MERGED:          0	TO_CACHE:    4341086
L2C PQ	ACCESS:    1137424	FORWARD:          0	MERGED:          0	TO_CACHE:    1137424

L2C Instructions Evicting Data 531377
L2C Translations Evicting Data 42241
L2C Data Evicting Data 5569910
L2C Instructions Evicting Instructions 47146
L2C Translations Evicting Instructions 3653
L2C Data Evicting Instructions 519222
L2C Instructions Evicting Translations 3882
L2C Translations Evicting Translations 299
L2C Data Evicting Translations 41311
L2C Dense regions hint from L2: 0
PSCL5 TOTAL     ACCESS:      81364  HIT:      81364  MISS:          0  HIT %:        100  MISS %:          0   MPKI: 0
PSCL5 LOAD TRANSLATION ACCESS:      74983  HIT:      74983  MISS:          0  HIT %:        100  MISS %:          0   MPKI: 0
PSCL5 TRANSLATION FROM L1D PREFETCHER ACCESS:       6381  HIT:       6381  MISS:          0  HIT %:        100  MISS %:          0   MPKI: 0
PSCL5 PREFETCH  REQUESTED:          0  ISSUED:          0  USEFUL:          0  USELESS:          0
PSCL5 USEFUL LOAD PREFETCHES:          0 PREFETCH ISSUED TO LOWER LEVEL:          0  ACCURACY: -nan
PSCL5 TIMELY PREFETCHES:          0 LATE PREFETCHES: 0 DROPPED PREFETCHES: 0
PSCL5 PREFETCHES SAME FILL-ORIGIN LEVEL: 0 DIFFERENT FILL-ORIGIN LEVEL: 0

PSCL4 TOTAL     ACCESS:      79415  HIT:      79256  MISS:        159  HIT %:    99.7998  MISS %:   0.200214   MPKI: 0.000795
PSCL4 LOAD TRANSLATION ACCESS:      73143  HIT:      72984  MISS:        159  HIT %:    99.7826  MISS %:   0.217382   MPKI: 0.000795
PSCL4 TRANSLATION FROM L1D PREFETCHER ACCESS:       6272  HIT:       6272  MISS:          0  HIT %:        100  MISS %:          0   MPKI: 0
PSCL4 PREFETCH  REQUESTED:          0  ISSUED:          0  USEFUL:          0  USELESS:          0
PSCL4 USEFUL LOAD PREFETCHES:          0 PREFETCH ISSUED TO LOWER LEVEL:          0  ACCURACY: -nan
PSCL4 TIMELY PREFETCHES:          0 LATE PREFETCHES: 0 DROPPED PREFETCHES: 0
PSCL4 PREFETCHES SAME FILL-ORIGIN LEVEL: 0 DIFFERENT FILL-ORIGIN LEVEL: 0

PSCL3 TOTAL     ACCESS:      74333  HIT:      73179  MISS:       1154  HIT %:    98.4475  MISS %:    1.55247   MPKI: 0.00577
PSCL3 LOAD TRANSLATION ACCESS:      68018  HIT:      66864  MISS:       1154  HIT %:    98.3034  MISS %:    1.69661   MPKI: 0.00577
PSCL3 TRANSLATION FROM L1D PREFETCHER ACCESS:       6315  HIT:       6315  MISS:          0  HIT %:        100  MISS %:          0   MPKI: 0
PSCL3 PREFETCH  REQUESTED:          0  ISSUED:          0  USEFUL:          0  USELESS:          0
PSCL3 USEFUL LOAD PREFETCHES:          0 PREFETCH ISSUED TO LOWER LEVEL:          0  ACCURACY: -nan
PSCL3 TIMELY PREFETCHES:          0 LATE PREFETCHES: 0 DROPPED PREFETCHES: 0
PSCL3 PREFETCHES SAME FILL-ORIGIN LEVEL: 0 DIFFERENT FILL-ORIGIN LEVEL: 0

PSCL2 TOTAL     ACCESS:      80242  HIT:      68939  MISS:      11303  HIT %:    85.9139  MISS %:    14.0861   MPKI: 0.056515
PSCL2 LOAD TRANSLATION ACCESS:      75111  HIT:      63808  MISS:      11303  HIT %:    84.9516  MISS %:    15.0484   MPKI: 0.056515
PSCL2 TRANSLATION FROM L1D PREFETCHER ACCESS:       5131  HIT:       5131  MISS:          0  HIT %:        100  MISS %:          0   MPKI: 0
PSCL2 PREFETCH  REQUESTED:          0  ISSUED:          0  USEFUL:          0  USELESS:          0
PSCL2 USEFUL LOAD PREFETCHES:          0 PREFETCH ISSUED TO LOWER LEVEL:          0  ACCURACY: -nan
PSCL2 TIMELY PREFETCHES:          0 LATE PREFETCHES: 0 DROPPED PREFETCHES: 0
PSCL2 PREFETCHES SAME FILL-ORIGIN LEVEL: 0 DIFFERENT FILL-ORIGIN LEVEL: 0

LLC TOTAL     ACCESS:   10783034  HIT:    4383261  MISS:    6399773  HIT %:    40.6496  MISS %:    59.3504   MPKI: 31.9989
LLC LOAD      ACCESS:    2261653  HIT:    1521220  MISS:     740433  HIT %:    67.2614  MISS %:    32.7386   MPKI: 3.70216
LLC RFO       ACCESS:    3515570  HIT:     984124  MISS:    2531446  HIT %:    27.9933  MISS %:    72.0067   MPKI: 12.6572
LLC PREFETCH  ACCESS:     935600  HIT:     303215  MISS:     632385  HIT %:    32.4086  MISS %:    67.5914   MPKI: 3.16192
AGUS PREFETCH L1 MISS: 0
LLC WRITEBACK ACCESS:    4024018  HIT:    1559753  MISS:    2464265  HIT %:    38.7611  MISS %:    61.2389   MPKI: 12.3213
LLC LOAD TRANSLATION ACCESS:      43439  HIT:      13873  MISS:      29566  HIT %:    31.9367  MISS %:    68.0633   MPKI: 0.14783
LLC TRANSLATION FROM L1D PREFETCHER ACCESS:       2754  HIT:       1076  MISS:       1678  HIT %:    39.0704  MISS %:    60.9296   MPKI: 0.00839
LLC PREFETCH  REQUESTED:          0  ISSUED:          0  USEFUL:       2280  USELESS:     631779
LLC USEFUL LOAD PREFETCHES:       2280 PREFETCH ISSUED TO LOWER LEVEL:     632385  ACCURACY: 0.36054
LLC TIMELY PREFETCHES:       2280 LATE PREFETCHES: 0 DROPPED PREFETCHES: 0
LLC PREFETCHES SAME FILL-ORIGIN LEVEL: 0 DIFFERENT FILL-ORIGIN LEVEL: 0
LLC AVERAGE MISS LATENCY: 134.401 cycles
LLC RQ	ACCESS:    5823441	FORWARD:          0	MERGED:          0	TO_CACHE:    5823416
LLC WQ	ACCESS:    4024019	FORWARD:         25	MERGED:          0	TO_CACHE:    4024019
LLC PQ	ACCESS:     935600	FORWARD:          0	MERGED:          0	TO_CACHE:     935600

LLC Dense regions hint to LLC: 0

RAW hits: 2431876
Loads Generated: 47719541
Loads sent to L1D: 45287665
Stores Generated: 34133593
Stores sent to L1D: 34133602
Major fault: 0 Minor fault: 9063
Allocated PAGES: 9063
CPU 0 L1d next line prefetcher final stats

DRAM Statistics
 CHANNEL 0
 RQ ROW_BUFFER_HIT:    1880561  ROW_BUFFER_MISS:    2054624
 DBUS_CONGESTED:       2349
 WQ ROW_BUFFER_HIT:     540546  ROW_BUFFER_MISS:    2063078  FULL:      51900

 AVG_CONGESTED_CYCLE: 3
 All warmup complete: 2
Channel 0 Bank busy for read cycles: 0
Channel 0 Bank busy for write cycles: 0
Channel 0
Rank 0
0banks busy for read cycles: 167954746
0banks busy for write cycles: 249039
1banks busy for read cycles: 40625982
1banks busy for write cycles: 33556977
2banks busy for read cycles: 15412732
2banks busy for write cycles: 13474263
3banks busy for read cycles: 16567889
3banks busy for write cycles: 6983925
4banks busy for read cycles: 5994275
4banks busy for write cycles: 4586601
5banks busy for read cycles: 4962813
5banks busy for write cycles: 3685165
6banks busy for read cycles: 5723763
6banks busy for write cycles: 3674064
7banks busy for read cycles: 8809776
7banks busy for write cycles: 6196408
8banks busy for read cycles: 17837428
8banks busy for write cycles: 33928452

CPU 0 Branch Prediction Accuracy: 99.9446% MPKI: 0.08472 Average ROB Occupancy at Mispredict: 120.067
Branch types
NOT_BRANCH: 169425254 84.7126%
BRANCH_DIRECT_JUMP: 1658706 0.829353%
BRANCH_INDIRECT: 9991436 4.99572%
BRANCH_CONDITIONAL: 12080659 6.04033%
BRANCH_DIRECT_CALL: 2824055 1.41203%
BRANCH_INDIRECT_CALL: 597965 0.298982%
BRANCH_RETURN: 3421963 1.71098%
BRANCH_OTHER: 0 0%

DRAM PAGES: 1048576
Allocated PAGES: 9063
