
*** ChampSim Multicore Out-of-Order Simulator ***

Warmup Instructions: 50000000
Simulation Instructions: 200000000
Number of CPUs: 1
LLC sets: 2048
LLC ways: 16
Off-chip DRAM Size: 4096 MB Channels: 1 Width: 64-bit Data Rate: 6400 MT/s
CPU 0 runs traces/spec2k17/srv_45.champsimtrace.xz
.xz
BTB has LRU replacement policy
ITLB has LRU replacement policy
DTLB has LRU replacement policy
STLB has LRU replacement policy
L1I has LRU replacement policy
CPU 0 L2C next line prefetcher
L1D has LRU replacement policy
Initialize SRRIP state for L2C
Initialize DRRIP state for LLC
Heartbeat CPU 0 instructions: 10000003 cycles: 2936228 heartbeat IPC: 3.40573 cumulative IPC: 3.40573 (Simulation time: 0 hr 0 min 41 sec) 
Heartbeat CPU 0 instructions: 20000002 cycles: 5872488 heartbeat IPC: 3.40569 cumulative IPC: 3.40571 (Simulation time: 0 hr 1 min 23 sec) 
Heartbeat CPU 0 instructions: 30000000 cycles: 8804981 heartbeat IPC: 3.41007 cumulative IPC: 3.40716 (Simulation time: 0 hr 2 min 5 sec) 
*** Reached end of trace for Core: 0 Repeating trace: traces/spec2k17/srv_45.champsimtrace.xz
Heartbeat CPU 0 instructions: 40000000 cycles: 11735016 heartbeat IPC: 3.41293 cumulative IPC: 3.4086 (Simulation time: 0 hr 2 min 45 sec) 
Heartbeat CPU 0 instructions: 50000001 cycles: 14667966 heartbeat IPC: 3.40954 cumulative IPC: 3.40879 (Simulation time: 0 hr 3 min 25 sec) 

Warmup complete CPU 0 instructions: 50000001 cycles: 14667966 (Simulation time: 0 hr 3 min 25 sec) 

Heartbeat CPU 0 instructions: 60000000 cycles: 54267623 heartbeat IPC: 0.252527 cumulative IPC: 0.252527 (Simulation time: 0 hr 4 min 40 sec) 
*** Reached end of trace for Core: 0 Repeating trace: traces/spec2k17/srv_45.champsimtrace.xz
Heartbeat CPU 0 instructions: 70000000 cycles: 93778236 heartbeat IPC: 0.253097 cumulative IPC: 0.252812 (Simulation time: 0 hr 5 min 56 sec) 
Heartbeat CPU 0 instructions: 80000001 cycles: 133392128 heartbeat IPC: 0.252437 cumulative IPC: 0.252687 (Simulation time: 0 hr 7 min 11 sec) 
Heartbeat CPU 0 instructions: 90000003 cycles: 172846261 heartbeat IPC: 0.253459 cumulative IPC: 0.252879 (Simulation time: 0 hr 8 min 28 sec) 
*** Reached end of trace for Core: 0 Repeating trace: traces/spec2k17/srv_45.champsimtrace.xz
Heartbeat CPU 0 instructions: 100000003 cycles: 212376234 heartbeat IPC: 0.252973 cumulative IPC: 0.252898 (Simulation time: 0 hr 9 min 41 sec) 
Heartbeat CPU 0 instructions: 110000000 cycles: 252101324 heartbeat IPC: 0.25173 cumulative IPC: 0.252702 (Simulation time: 0 hr 10 min 58 sec) 
Heartbeat CPU 0 instructions: 120000000 cycles: 291507727 heartbeat IPC: 0.253766 cumulative IPC: 0.252854 (Simulation time: 0 hr 12 min 14 sec) 
*** Reached end of trace for Core: 0 Repeating trace: traces/spec2k17/srv_45.champsimtrace.xz
Heartbeat CPU 0 instructions: 130000002 cycles: 330958808 heartbeat IPC: 0.253479 cumulative IPC: 0.252932 (Simulation time: 0 hr 13 min 30 sec) 
Heartbeat CPU 0 instructions: 140000003 cycles: 370438142 heartbeat IPC: 0.253297 cumulative IPC: 0.252972 (Simulation time: 0 hr 14 min 44 sec) 
Heartbeat CPU 0 instructions: 150000000 cycles: 410038065 heartbeat IPC: 0.252526 cumulative IPC: 0.252928 (Simulation time: 0 hr 15 min 59 sec) 
*** Reached end of trace for Core: 0 Repeating trace: traces/spec2k17/srv_45.champsimtrace.xz
Heartbeat CPU 0 instructions: 160000001 cycles: 449416232 heartbeat IPC: 0.253948 cumulative IPC: 0.25302 (Simulation time: 0 hr 17 min 15 sec) 
Heartbeat CPU 0 instructions: 170000001 cycles: 488850299 heartbeat IPC: 0.253588 cumulative IPC: 0.253067 (Simulation time: 0 hr 18 min 31 sec) 
Heartbeat CPU 0 instructions: 180000000 cycles: 528560573 heartbeat IPC: 0.251824 cumulative IPC: 0.252971 (Simulation time: 0 hr 19 min 46 sec) 
*** Reached end of trace for Core: 0 Repeating trace: traces/spec2k17/srv_45.champsimtrace.xz
Heartbeat CPU 0 instructions: 190000001 cycles: 567841614 heartbeat IPC: 0.254576 cumulative IPC: 0.253085 (Simulation time: 0 hr 21 min 1 sec) 
Heartbeat CPU 0 instructions: 200000000 cycles: 607484156 heartbeat IPC: 0.252254 cumulative IPC: 0.25303 (Simulation time: 0 hr 22 min 16 sec) 
Heartbeat CPU 0 instructions: 210000003 cycles: 646920406 heartbeat IPC: 0.253574 cumulative IPC: 0.253063 (Simulation time: 0 hr 23 min 31 sec) 
*** Reached end of trace for Core: 0 Repeating trace: traces/spec2k17/srv_45.champsimtrace.xz
Heartbeat CPU 0 instructions: 220000000 cycles: 686229748 heartbeat IPC: 0.254392 cumulative IPC: 0.253141 (Simulation time: 0 hr 24 min 46 sec) 
Heartbeat CPU 0 instructions: 230000000 cycles: 725766838 heartbeat IPC: 0.252927 cumulative IPC: 0.253129 (Simulation time: 0 hr 26 min 0 sec) 
Heartbeat CPU 0 instructions: 240000000 cycles: 765381540 heartbeat IPC: 0.252432 cumulative IPC: 0.253093 (Simulation time: 0 hr 27 min 16 sec) 
*** Reached end of trace for Core: 0 Repeating trace: traces/spec2k17/srv_45.champsimtrace.xz
Heartbeat CPU 0 instructions: 250000003 cycles: 804714980 heartbeat IPC: 0.254237 cumulative IPC: 0.253149 (Simulation time: 0 hr 28 min 31 sec) 
Finished CPU 0 instructions: 200000002 cycles: 790047014 cumulative IPC: 0.253149 (Simulation time: 0 hr 28 min 31 sec) 

ChampSim completed all CPUs

Region of Interest Statistics

CPU 0 cumulative IPC: 0.253149 instructions: 200000002 cycles: 790047014
ITLB TOTAL     ACCESS:   36326840  HIT:   33579014  MISS:    2747826  HIT %:    92.4358  MISS %:    7.56418   MPKI: 13.7391
ITLB LOAD TRANSLATION ACCESS:   36326840  HIT:   33579014  MISS:    2747826  HIT %:    92.4358  MISS %:    7.56418   MPKI: 13.7391
ITLB PREFETCH  REQUESTED:          0  ISSUED:          0  USEFUL:          0  USELESS:          0
ITLB USEFUL LOAD PREFETCHES:          0 PREFETCH ISSUED TO LOWER LEVEL:          0  ACCURACY: -nan
ITLB TIMELY PREFETCHES:          0 LATE PREFETCHES: 0 DROPPED PREFETCHES: 0
ITLB PREFETCHES SAME FILL-ORIGIN LEVEL: 0 DIFFERENT FILL-ORIGIN LEVEL: 0
ITLB AVERAGE MISS LATENCY: 9.31512 cycles
ITLB RQ	ACCESS:   42980560	FORWARD:          0	MERGED:    5914605	TO_CACHE:   37065955

DTLB TOTAL     ACCESS:   49800136  HIT:   47342523  MISS:    2457613  HIT %:     95.065  MISS %:    4.93495   MPKI: 12.2881
DTLB LOAD TRANSLATION ACCESS:   49800136  HIT:   47342523  MISS:    2457613  HIT %:     95.065  MISS %:    4.93495   MPKI: 12.2881
DTLB PREFETCH  REQUESTED:          0  ISSUED:          0  USEFUL:          0  USELESS:          0
DTLB USEFUL LOAD PREFETCHES:          0 PREFETCH ISSUED TO LOWER LEVEL:          0  ACCURACY: -nan
DTLB TIMELY PREFETCHES:          0 LATE PREFETCHES: 0 DROPPED PREFETCHES: 0
DTLB PREFETCHES SAME FILL-ORIGIN LEVEL: 0 DIFFERENT FILL-ORIGIN LEVEL: 0
DTLB AVERAGE MISS LATENCY: 12.2323 cycles
DTLB RQ	ACCESS:   66047079	FORWARD:          0	MERGED:   16106788	TO_CACHE:   49940291

STLB TOTAL     ACCESS:    6316146  HIT:    6207961  MISS:     108185  HIT %:    98.2872  MISS %:    1.71283   MPKI: 0.540925
STLB LOAD TRANSLATION ACCESS:    5205439  HIT:    5097923  MISS:     107516  HIT %:    97.9345  MISS %:    2.06545   MPKI: 0.53758
STLB TRANSLATION FROM L1D PREFETCHER ACCESS:    1110707  HIT:    1110038  MISS:        669  HIT %:    99.9398  MISS %:  0.0602319   MPKI: 0.003345
STLB PREFETCH  REQUESTED:          0  ISSUED:          0  USEFUL:        610  USELESS:         59
STLB USEFUL LOAD PREFETCHES:        610 PREFETCH ISSUED TO LOWER LEVEL:          0  ACCURACY: inf
STLB TIMELY PREFETCHES:        610 LATE PREFETCHES: 61 DROPPED PREFETCHES: 2162
STLB PREFETCHES SAME FILL-ORIGIN LEVEL: 0 DIFFERENT FILL-ORIGIN LEVEL: 0
STLB AVERAGE MISS LATENCY: 98355.3 cycles
STLB RQ	ACCESS:    6448032	FORWARD:          0	MERGED:     129527	TO_CACHE:    6318505

STLB Hit, L1D data hit: 0
STLB Hit, L2C data hit: 0
STLB Hit, LLC data hit: 0
STLB Hit, LLC data miss: 0
STLB STLB hints to L2: 0
L1D TOTAL     ACCESS:   64350765  HIT:   58040684  MISS:    6310081  HIT %:    90.1942  MISS %:    9.80576   MPKI: 31.5504
L1D LOAD      ACCESS:   39557755  HIT:   35681831  MISS:    3875924  HIT %:    90.2019  MISS %:    9.79814   MPKI: 19.3796
L1D RFO       ACCESS:   23766643  HIT:   22076579  MISS:    1690064  HIT %:    92.8889  MISS %:    7.11108   MPKI: 8.45032
L1D PREFETCH  ACCESS:    1026367  HIT:     282274  MISS:     744093  HIT %:    27.5022  MISS %:    72.4978   MPKI: 3.72046
AGUS PREFETCH L1 MISS: 0
L1D PREFETCH  REQUESTED:    2501212  ISSUED:    2501212  USEFUL:     229953  USELESS:     514134
L1D USEFUL LOAD PREFETCHES:     229953 PREFETCH ISSUED TO LOWER LEVEL:     804052  ACCURACY: 28.5993
L1D TIMELY PREFETCHES:     229953 LATE PREFETCHES: 56008 DROPPED PREFETCHES: 2266
L1D PREFETCHES SAME FILL-ORIGIN LEVEL: 804052 DIFFERENT FILL-ORIGIN LEVEL: 0
L1D AVERAGE MISS LATENCY: 3.8924e+06 cycles
L1D RQ	ACCESS:   50623925	FORWARD:          0	MERGED:   10718781	TO_CACHE:   39730534
L1D WQ	ACCESS:   26484793	FORWARD:     175373	MERGED:     168248	TO_CACHE:   26316545
L1D PQ	ACCESS:    1258619	FORWARD:          0	MERGED:      15263	TO_CACHE:    1242593

L1D UNIQUE REGIONS ACCESSED: 0
L1D REGIONS CONFLICTS: 0
L1D Cross Page Prefetch Requests: 48131
L1D Same Page Prefetch Requests: 1550548
L1D ROI Sum of L1D PQ occupancy: 16135062
L1D PREFETCHES PUSHED FROM L2C: 0
L1I TOTAL     ACCESS:   41298330  HIT:   28144604  MISS:   13153726  HIT %:    68.1495  MISS %:    31.8505   MPKI: 65.7686
L1I LOAD      ACCESS:   41298330  HIT:   28144604  MISS:   13153726  HIT %:    68.1495  MISS %:    31.8505   MPKI: 65.7686
L1I PREFETCH  REQUESTED:          0  ISSUED:          0  USEFUL:          0  USELESS:          0
L1I USEFUL LOAD PREFETCHES:          0 PREFETCH ISSUED TO LOWER LEVEL:          0  ACCURACY: -nan
L1I TIMELY PREFETCHES:          0 LATE PREFETCHES: 0 DROPPED PREFETCHES: 0
L1I PREFETCHES SAME FILL-ORIGIN LEVEL: 0 DIFFERENT FILL-ORIGIN LEVEL: 0
L1I AVERAGE MISS LATENCY: 16.2518 cycles
L1I RQ	ACCESS:   59970236	FORWARD:          0	MERGED:   16989676	TO_CACHE:   42980560

BTB TOTAL     ACCESS:   31973433  HIT:   16686947  MISS:   15286486  HIT %:      52.19  MISS %:      47.81   MPKI: 76.4324
BTB BRANCH_DIRECT_JUMP	ACCESS:    2345713  HIT:    1227110  MISS:    1118603
BTB BRANCH_INDIRECT	ACCESS:   14157352  HIT:    8110274  MISS:    6047078
BTB BRANCH_CONDITIONAL	ACCESS:    4344280  HIT:    3034534  MISS:    1309746
BTB BRANCH_DIRECT_CALL	ACCESS:    4151171  HIT:    2145079  MISS:    2006092
BTB BRANCH_INDIRECT_CALL	ACCESS:    1411897  HIT:     576080  MISS:     835817
BTB BRANCH_RETURN	ACCESS:    5563020  HIT:    1593870  MISS:    3969150
BTB BRANCH_OTHER ACCESS:          0  HIT:          0  MISS:          0

L2C TOTAL     ACCESS:   22481145  HIT:   19394320  MISS:    3086825  HIT %:    86.2693  MISS %:    13.7307   MPKI: 15.4341
L2C LOAD      ACCESS:   16973600  HIT:   15061409  MISS:    1912191  HIT %:    88.7343  MISS %:    11.2657   MPKI: 9.56095
L2C DATA LOAD MPKI: 4.94744
L2C INSTRUCTION LOAD MPKI: 4.61351
L2C RFO       ACCESS:    1686110  HIT:    1088455  MISS:     597655  HIT %:    64.5542  MISS %:    35.4458   MPKI: 2.98827
L2C PREFETCH  ACCESS:     804043  HIT:     463106  MISS:     340937  HIT %:    57.5972  MISS %:    42.4028   MPKI: 1.70468
AGUS PREFETCH L1 MISS: 0
L2C DATA PREFETCH MPKI: 1.70468
L2C INSTRUCTION PREFETCH MPKI: 0
L2C WRITEBACK ACCESS:    2838834  HIT:    2695097  MISS:     143737  HIT %:    94.9368  MISS %:    5.06324   MPKI: 0.718685
L2C LOAD TRANSLATION ACCESS:     174227  HIT:      83262  MISS:      90965  HIT %:    47.7894  MISS %:    52.2106   MPKI: 0.454825
L2C TRANSLATION FROM L1D PREFETCHER ACCESS:       4331  HIT:       2991  MISS:       1340  HIT %:    69.0603  MISS %:    30.9397   MPKI: 0.0067
L2C PREFETCH  REQUESTED:          0  ISSUED:          0  USEFUL:      25612  USELESS:     316663
L2C USEFUL LOAD PREFETCHES:      25612 PREFETCH ISSUED TO LOWER LEVEL:     340937  ACCURACY: 7.51224
L2C TIMELY PREFETCHES:      25612 LATE PREFETCHES: 0 DROPPED PREFETCHES: 0
L2C PREFETCHES SAME FILL-ORIGIN LEVEL: 0 DIFFERENT FILL-ORIGIN LEVEL: 0
L2C AVERAGE MISS LATENCY: 51.3309 cycles
L2C RQ	ACCESS:   18838312	FORWARD:          0	MERGED:          0	TO_CACHE:   18838268
L2C WQ	ACCESS:    2838834	FORWARD:         53	MERGED:          0	TO_CACHE:    2838834
L2C PQ	ACCESS:     804052	FORWARD:          0	MERGED:          0	TO_CACHE:     804043

L2C Instructions Evicting Data 488341
L2C Translations Evicting Data 73373
L2C Data Evicting Data 1419862
L2C Instructions Evicting Instructions 419060
L2C Translations Evicting Instructions 15378
L2C Data Evicting Instructions 437529
L2C Instructions Evicting Translations 15302
L2C Translations Evicting Translations 3554
L2C Data Evicting Translations 70689
L2C Dense regions hint from L2: 0
PSCL5 TOTAL     ACCESS:     110347  HIT:     110347  MISS:          0  HIT %:        100  MISS %:          0   MPKI: 0
PSCL5 LOAD TRANSLATION ACCESS:     107455  HIT:     107455  MISS:          0  HIT %:        100  MISS %:          0   MPKI: 0
PSCL5 TRANSLATION FROM L1D PREFETCHER ACCESS:       2892  HIT:       2892  MISS:          0  HIT %:        100  MISS %:          0   MPKI: 0
PSCL5 PREFETCH  REQUESTED:          0  ISSUED:          0  USEFUL:          0  USELESS:          0
PSCL5 USEFUL LOAD PREFETCHES:          0 PREFETCH ISSUED TO LOWER LEVEL:          0  ACCURACY: -nan
PSCL5 TIMELY PREFETCHES:          0 LATE PREFETCHES: 0 DROPPED PREFETCHES: 0
PSCL5 PREFETCHES SAME FILL-ORIGIN LEVEL: 0 DIFFERENT FILL-ORIGIN LEVEL: 0

PSCL4 TOTAL     ACCESS:     108425  HIT:     107650  MISS:        775  HIT %:    99.2852  MISS %:    0.71478   MPKI: 0.003875
PSCL4 LOAD TRANSLATION ACCESS:     105651  HIT:     104876  MISS:        775  HIT %:    99.2665  MISS %:   0.733547   MPKI: 0.003875
PSCL4 TRANSLATION FROM L1D PREFETCHER ACCESS:       2774  HIT:       2774  MISS:          0  HIT %:        100  MISS %:          0   MPKI: 0
PSCL4 PREFETCH  REQUESTED:          0  ISSUED:          0  USEFUL:          0  USELESS:          0
PSCL4 USEFUL LOAD PREFETCHES:          0 PREFETCH ISSUED TO LOWER LEVEL:          0  ACCURACY: -nan
PSCL4 TIMELY PREFETCHES:          0 LATE PREFETCHES: 0 DROPPED PREFETCHES: 0
PSCL4 PREFETCHES SAME FILL-ORIGIN LEVEL: 0 DIFFERENT FILL-ORIGIN LEVEL: 0

PSCL3 TOTAL     ACCESS:      96238  HIT:      76680  MISS:      19558  HIT %:    79.6775  MISS %:    20.3225   MPKI: 0.09779
PSCL3 LOAD TRANSLATION ACCESS:      94113  HIT:      74555  MISS:      19558  HIT %:    79.2186  MISS %:    20.7814   MPKI: 0.09779
PSCL3 TRANSLATION FROM L1D PREFETCHER ACCESS:       2125  HIT:       2125  MISS:          0  HIT %:        100  MISS %:          0   MPKI: 0
PSCL3 PREFETCH  REQUESTED:          0  ISSUED:          0  USEFUL:          0  USELESS:          0
PSCL3 USEFUL LOAD PREFETCHES:          0 PREFETCH ISSUED TO LOWER LEVEL:          0  ACCURACY: -nan
PSCL3 TIMELY PREFETCHES:          0 LATE PREFETCHES: 0 DROPPED PREFETCHES: 0
PSCL3 PREFETCHES SAME FILL-ORIGIN LEVEL: 0 DIFFERENT FILL-ORIGIN LEVEL: 0

PSCL2 TOTAL     ACCESS:     109450  HIT:      62919  MISS:      46531  HIT %:    57.4865  MISS %:    42.5135   MPKI: 0.232655
PSCL2 LOAD TRANSLATION ACCESS:     107526  HIT:      60995  MISS:      46531  HIT %:    56.7258  MISS %:    43.2742   MPKI: 0.232655
PSCL2 TRANSLATION FROM L1D PREFETCHER ACCESS:       1924  HIT:       1924  MISS:          0  HIT %:        100  MISS %:          0   MPKI: 0
PSCL2 PREFETCH  REQUESTED:          0  ISSUED:          0  USEFUL:          0  USELESS:          0
PSCL2 USEFUL LOAD PREFETCHES:          0 PREFETCH ISSUED TO LOWER LEVEL:          0  ACCURACY: -nan
PSCL2 TIMELY PREFETCHES:          0 LATE PREFETCHES: 0 DROPPED PREFETCHES: 0
PSCL2 PREFETCHES SAME FILL-ORIGIN LEVEL: 0 DIFFERENT FILL-ORIGIN LEVEL: 0

LLC TOTAL     ACCESS:    3928738  HIT:    3596562  MISS:     332176  HIT %:     91.545  MISS %:    8.45503   MPKI: 1.66088
LLC LOAD      ACCESS:    1912190  HIT:    1773924  MISS:     138266  HIT %:    92.7692  MISS %:    7.23077   MPKI: 0.69133
LLC RFO       ACCESS:     597655  HIT:     475850  MISS:     121805  HIT %:    79.6195  MISS %:    20.3805   MPKI: 0.609025
LLC PREFETCH  ACCESS:     340936  HIT:     285397  MISS:      55539  HIT %:    83.7098  MISS %:    16.2902   MPKI: 0.277695
AGUS PREFETCH L1 MISS: 0
LLC WRITEBACK ACCESS:     985652  HIT:     983997  MISS:       1655  HIT %:    99.8321  MISS %:   0.167909   MPKI: 0.008275
LLC LOAD TRANSLATION ACCESS:      90965  HIT:      76286  MISS:      14679  HIT %:     83.863  MISS %:     16.137   MPKI: 0.073395
LLC TRANSLATION FROM L1D PREFETCHER ACCESS:       1340  HIT:       1108  MISS:        232  HIT %:    82.6866  MISS %:    17.3134   MPKI: 0.00116
LLC PREFETCH  REQUESTED:          0  ISSUED:          0  USEFUL:       4191  USELESS:      51706
LLC USEFUL LOAD PREFETCHES:       4191 PREFETCH ISSUED TO LOWER LEVEL:      55539  ACCURACY: 7.54605
LLC TIMELY PREFETCHES:       4191 LATE PREFETCHES: 0 DROPPED PREFETCHES: 0
LLC PREFETCHES SAME FILL-ORIGIN LEVEL: 0 DIFFERENT FILL-ORIGIN LEVEL: 0
LLC AVERAGE MISS LATENCY: 211.202 cycles
LLC RQ	ACCESS:    2602152	FORWARD:          0	MERGED:          0	TO_CACHE:    2602150
LLC WQ	ACCESS:     985652	FORWARD:          3	MERGED:          0	TO_CACHE:     985652
LLC PQ	ACCESS:     340937	FORWARD:          0	MERGED:          0	TO_CACHE:     340936

LLC Dense regions hint to LLC: 0

RAW hits: 1581456
Loads Generated: 52205381
Loads sent to L1D: 50623925
Stores Generated: 26484783
Stores sent to L1D: 26484793
Major fault: 0 Minor fault: 6405
Allocated PAGES: 6405
CPU 0 L1d next line prefetcher final stats

DRAM Statistics
 CHANNEL 0
 RQ ROW_BUFFER_HIT:      84833  ROW_BUFFER_MISS:     245688
 DBUS_CONGESTED:         92
 WQ ROW_BUFFER_HIT:      27419  ROW_BUFFER_MISS:     147562  FULL:          0

 AVG_CONGESTED_CYCLE: 4
 All warmup complete: 2
Channel 0 Bank busy for read cycles: 0
Channel 0 Bank busy for write cycles: 0
Channel 0
Rank 0
0banks busy for read cycles: 751899006
0banks busy for write cycles: 63953
1banks busy for read cycles: 17120796
1banks busy for write cycles: 9214091
2banks busy for read cycles: 3377551
2banks busy for write cycles: 2242974
3banks busy for read cycles: 965520
3banks busy for write cycles: 738711
4banks busy for read cycles: 165158
4banks busy for write cycles: 293701
5banks busy for read cycles: 78736
5banks busy for write cycles: 163348
6banks busy for read cycles: 162603
6banks busy for write cycles: 125712
7banks busy for read cycles: 222515
7banks busy for write cycles: 199315
8banks busy for read cycles: 1369889
8banks busy for write cycles: 1643436

CPU 0 Branch Prediction Accuracy: 99.9107% MPKI: 0.163205 Average ROB Occupancy at Mispredict: 44.6858
Branch types
NOT_BRANCH: 163456044 81.728%
BRANCH_DIRECT_JUMP: 2345713 1.17286%
BRANCH_INDIRECT: 14157352 7.07868%
BRANCH_CONDITIONAL: 8914733 4.45737%
BRANCH_DIRECT_CALL: 4151171 2.07559%
BRANCH_INDIRECT_CALL: 1411897 0.705948%
BRANCH_RETURN: 5563020 2.78151%
BRANCH_OTHER: 0 0%

DRAM PAGES: 1048576
Allocated PAGES: 6405
