
*** ChampSim Multicore Out-of-Order Simulator ***

Warmup Instructions: 50000000
Simulation Instructions: 200000000
Number of CPUs: 1
LLC sets: 2048
LLC ways: 16
Off-chip DRAM Size: 4096 MB Channels: 1 Width: 64-bit Data Rate: 6400 MT/s
CPU 0 runs traces/spec2k17/srv_70.champsimtrace.xz
.xz
BTB has LRU replacement policy
ITLB has LRU replacement policy
DTLB has LRU replacement policy
STLB has LRU replacement policy
L1I has LRU replacement policy
CPU 0 L2C next line prefetcher
L1D has LRU replacement policy
Initialize SRRIP state for L2C
Initialize DRRIP state for LLC
Heartbeat CPU 0 instructions: 10000000 cycles: 2809114 heartbeat IPC: 3.55984 cumulative IPC: 3.55984 (Simulation time: 0 hr 0 min 37 sec) 
Heartbeat CPU 0 instructions: 20000000 cycles: 5617123 heartbeat IPC: 3.56124 cumulative IPC: 3.56054 (Simulation time: 0 hr 1 min 17 sec) 
Heartbeat CPU 0 instructions: 30000000 cycles: 8426181 heartbeat IPC: 3.55991 cumulative IPC: 3.56033 (Simulation time: 0 hr 1 min 56 sec) 
*** Reached end of trace for Core: 0 Repeating trace: traces/spec2k17/srv_70.champsimtrace.xz
Heartbeat CPU 0 instructions: 40000003 cycles: 11229934 heartbeat IPC: 3.56665 cumulative IPC: 3.56191 (Simulation time: 0 hr 2 min 35 sec) 
Heartbeat CPU 0 instructions: 50000003 cycles: 14036895 heartbeat IPC: 3.56257 cumulative IPC: 3.56204 (Simulation time: 0 hr 3 min 12 sec) 

Warmup complete CPU 0 instructions: 50000003 cycles: 14036895 (Simulation time: 0 hr 3 min 12 sec) 

Heartbeat CPU 0 instructions: 60000001 cycles: 44409108 heartbeat IPC: 0.329248 cumulative IPC: 0.329248 (Simulation time: 0 hr 4 min 20 sec) 
*** Reached end of trace for Core: 0 Repeating trace: traces/spec2k17/srv_70.champsimtrace.xz
Heartbeat CPU 0 instructions: 70000001 cycles: 74204847 heartbeat IPC: 0.335618 cumulative IPC: 0.332403 (Simulation time: 0 hr 5 min 27 sec) 
Heartbeat CPU 0 instructions: 80000001 cycles: 104444769 heartbeat IPC: 0.330689 cumulative IPC: 0.331829 (Simulation time: 0 hr 6 min 37 sec) 
Heartbeat CPU 0 instructions: 90000003 cycles: 134243288 heartbeat IPC: 0.335587 cumulative IPC: 0.332761 (Simulation time: 0 hr 7 min 45 sec) 
*** Reached end of trace for Core: 0 Repeating trace: traces/spec2k17/srv_70.champsimtrace.xz
Heartbeat CPU 0 instructions: 100000002 cycles: 164098814 heartbeat IPC: 0.334946 cumulative IPC: 0.333196 (Simulation time: 0 hr 8 min 51 sec) 
Heartbeat CPU 0 instructions: 110000000 cycles: 194176369 heartbeat IPC: 0.332474 cumulative IPC: 0.333075 (Simulation time: 0 hr 9 min 58 sec) 
Heartbeat CPU 0 instructions: 120000000 cycles: 224011015 heartbeat IPC: 0.335181 cumulative IPC: 0.333374 (Simulation time: 0 hr 11 min 5 sec) 
*** Reached end of trace for Core: 0 Repeating trace: traces/spec2k17/srv_70.champsimtrace.xz
Heartbeat CPU 0 instructions: 130000000 cycles: 253964297 heartbeat IPC: 0.333853 cumulative IPC: 0.333434 (Simulation time: 0 hr 12 min 14 sec) 
Heartbeat CPU 0 instructions: 140000002 cycles: 283970379 heartbeat IPC: 0.333266 cumulative IPC: 0.333415 (Simulation time: 0 hr 13 min 21 sec) 
Heartbeat CPU 0 instructions: 150000003 cycles: 313959862 heartbeat IPC: 0.33345 cumulative IPC: 0.333419 (Simulation time: 0 hr 14 min 23 sec) 
*** Reached end of trace for Core: 0 Repeating trace: traces/spec2k17/srv_70.champsimtrace.xz
Heartbeat CPU 0 instructions: 160000000 cycles: 344066503 heartbeat IPC: 0.332153 cumulative IPC: 0.333303 (Simulation time: 0 hr 15 min 14 sec) 
Heartbeat CPU 0 instructions: 170000001 cycles: 373681504 heartbeat IPC: 0.337667 cumulative IPC: 0.333663 (Simulation time: 0 hr 16 min 7 sec) 
Heartbeat CPU 0 instructions: 180000001 cycles: 403864871 heartbeat IPC: 0.331308 cumulative IPC: 0.33348 (Simulation time: 0 hr 16 min 58 sec) 
*** Reached end of trace for Core: 0 Repeating trace: traces/spec2k17/srv_70.champsimtrace.xz
Heartbeat CPU 0 instructions: 190000003 cycles: 433789462 heartbeat IPC: 0.334173 cumulative IPC: 0.33353 (Simulation time: 0 hr 17 min 46 sec) 
Heartbeat CPU 0 instructions: 200000002 cycles: 463545456 heartbeat IPC: 0.336067 cumulative IPC: 0.333698 (Simulation time: 0 hr 18 min 37 sec) 
Heartbeat CPU 0 instructions: 210000000 cycles: 493637122 heartbeat IPC: 0.332318 cumulative IPC: 0.333611 (Simulation time: 0 hr 19 min 27 sec) 
*** Reached end of trace for Core: 0 Repeating trace: traces/spec2k17/srv_70.champsimtrace.xz
Heartbeat CPU 0 instructions: 220000000 cycles: 523582542 heartbeat IPC: 0.333941 cumulative IPC: 0.333631 (Simulation time: 0 hr 20 min 12 sec) 
Heartbeat CPU 0 instructions: 230000001 cycles: 553112850 heartbeat IPC: 0.338635 cumulative IPC: 0.333905 (Simulation time: 0 hr 21 min 2 sec) 
Heartbeat CPU 0 instructions: 240000001 cycles: 583238871 heartbeat IPC: 0.331939 cumulative IPC: 0.333801 (Simulation time: 0 hr 21 min 47 sec) 
*** Reached end of trace for Core: 0 Repeating trace: traces/spec2k17/srv_70.champsimtrace.xz
Heartbeat CPU 0 instructions: 250000001 cycles: 613145248 heartbeat IPC: 0.334377 cumulative IPC: 0.333829 (Simulation time: 0 hr 22 min 41 sec) 
Finished CPU 0 instructions: 200000000 cycles: 599108365 cumulative IPC: 0.333829 (Simulation time: 0 hr 22 min 41 sec) 

ChampSim completed all CPUs

Region of Interest Statistics

CPU 0 cumulative IPC: 0.333829 instructions: 200000000 cycles: 599108365
ITLB TOTAL     ACCESS:   34463106  HIT:   32607217  MISS:    1855889  HIT %:    94.6149  MISS %:    5.38515   MPKI: 9.27945
ITLB LOAD TRANSLATION ACCESS:   34463106  HIT:   32607217  MISS:    1855889  HIT %:    94.6149  MISS %:    5.38515   MPKI: 9.27945
ITLB PREFETCH  REQUESTED:          0  ISSUED:          0  USEFUL:          0  USELESS:          0
ITLB USEFUL LOAD PREFETCHES:          0 PREFETCH ISSUED TO LOWER LEVEL:          0  ACCURACY: -nan
ITLB TIMELY PREFETCHES:          0 LATE PREFETCHES: 0 DROPPED PREFETCHES: 0
ITLB PREFETCHES SAME FILL-ORIGIN LEVEL: 0 DIFFERENT FILL-ORIGIN LEVEL: 0
ITLB AVERAGE MISS LATENCY: 9.03837 cycles
ITLB RQ	ACCESS:   40290630	FORWARD:          0	MERGED:    5379538	TO_CACHE:   34911092

DTLB TOTAL     ACCESS:   45338543  HIT:   43543822  MISS:    1794721  HIT %:    96.0415  MISS %:    3.95849   MPKI: 8.9736
DTLB LOAD TRANSLATION ACCESS:   45338543  HIT:   43543822  MISS:    1794721  HIT %:    96.0415  MISS %:    3.95849   MPKI: 8.9736
DTLB PREFETCH  REQUESTED:          0  ISSUED:          0  USEFUL:          0  USELESS:          0
DTLB USEFUL LOAD PREFETCHES:          0 PREFETCH ISSUED TO LOWER LEVEL:          0  ACCURACY: -nan
DTLB TIMELY PREFETCHES:          0 LATE PREFETCHES: 0 DROPPED PREFETCHES: 0
DTLB PREFETCHES SAME FILL-ORIGIN LEVEL: 0 DIFFERENT FILL-ORIGIN LEVEL: 0
DTLB AVERAGE MISS LATENCY: 9.20813 cycles
DTLB RQ	ACCESS:   59842676	FORWARD:          0	MERGED:   14440268	TO_CACHE:   45402408

STLB TOTAL     ACCESS:    4428920  HIT:    4418956  MISS:       9964  HIT %:     99.775  MISS %:   0.224976   MPKI: 0.04982
STLB LOAD TRANSLATION ACCESS:    3650610  HIT:    3640742  MISS:       9868  HIT %:    99.7297  MISS %:   0.270311   MPKI: 0.04934
STLB TRANSLATION FROM L1D PREFETCHER ACCESS:     778310  HIT:     778214  MISS:         96  HIT %:    99.9877  MISS %:  0.0123344   MPKI: 0.00048
STLB PREFETCH  REQUESTED:          0  ISSUED:          0  USEFUL:         76  USELESS:         20
STLB USEFUL LOAD PREFETCHES:         76 PREFETCH ISSUED TO LOWER LEVEL:          0  ACCURACY: inf
STLB TIMELY PREFETCHES:         76 LATE PREFETCHES: 129 DROPPED PREFETCHES: 2511
STLB PREFETCHES SAME FILL-ORIGIN LEVEL: 0 DIFFERENT FILL-ORIGIN LEVEL: 0
STLB AVERAGE MISS LATENCY: 362455 cycles
STLB RQ	ACCESS:    4599086	FORWARD:          0	MERGED:     167186	TO_CACHE:    4431900

STLB Hit, L1D data hit: 0
STLB Hit, L2C data hit: 0
STLB Hit, LLC data hit: 0
STLB Hit, LLC data miss: 0
STLB STLB hints to L2: 0
L1D TOTAL     ACCESS:   58625269  HIT:   54439699  MISS:    4185570  HIT %:    92.8605  MISS %:    7.13953   MPKI: 20.9278
L1D LOAD      ACCESS:   33593576  HIT:   30888469  MISS:    2705107  HIT %:    91.9475  MISS %:    8.05245   MPKI: 13.5255
L1D RFO       ACCESS:   24474964  HIT:   23399043  MISS:    1075921  HIT %:     95.604  MISS %:    4.39601   MPKI: 5.3796
L1D PREFETCH  ACCESS:     556729  HIT:     152187  MISS:     404542  HIT %:    27.3359  MISS %:    72.6641   MPKI: 2.02271
AGUS PREFETCH L1 MISS: 0
L1D PREFETCH  REQUESTED:    1920438  ISSUED:    1920438  USEFUL:     144764  USELESS:     259781
L1D USEFUL LOAD PREFETCHES:     144764 PREFETCH ISSUED TO LOWER LEVEL:     619962  ACCURACY: 23.3505
L1D TIMELY PREFETCHES:     144764 LATE PREFETCHES: 215358 DROPPED PREFETCHES: 2820
L1D PREFETCHES SAME FILL-ORIGIN LEVEL: 619962 DIFFERENT FILL-ORIGIN LEVEL: 0
L1D AVERAGE MISS LATENCY: 1.59805e+07 cycles
L1D RQ	ACCESS:   46889587	FORWARD:          0	MERGED:   12888045	TO_CACHE:   33706308
L1D WQ	ACCESS:   26309150	FORWARD:     295248	MERGED:     172782	TO_CACHE:   26136368
L1D PQ	ACCESS:     971962	FORWARD:          0	MERGED:      23472	TO_CACHE:     948476

L1D UNIQUE REGIONS ACCESSED: 0
L1D REGIONS CONFLICTS: 0
L1D Cross Page Prefetch Requests: 19606
L1D Same Page Prefetch Requests: 1174755
L1D ROI Sum of L1D PQ occupancy: 12061929
L1D PREFETCHES PUSHED FROM L2C: 0
L1I TOTAL     ACCESS:   38869891  HIT:   29159632  MISS:    9710259  HIT %:    75.0186  MISS %:    24.9814   MPKI: 48.5513
L1I LOAD      ACCESS:   38869891  HIT:   29159632  MISS:    9710259  HIT %:    75.0186  MISS %:    24.9814   MPKI: 48.5513
L1I PREFETCH  REQUESTED:          0  ISSUED:          0  USEFUL:          0  USELESS:          0
L1I USEFUL LOAD PREFETCHES:          0 PREFETCH ISSUED TO LOWER LEVEL:          0  ACCURACY: -nan
L1I TIMELY PREFETCHES:          0 LATE PREFETCHES: 0 DROPPED PREFETCHES: 0
L1I PREFETCHES SAME FILL-ORIGIN LEVEL: 0 DIFFERENT FILL-ORIGIN LEVEL: 0
L1I AVERAGE MISS LATENCY: 16.7543 cycles
L1I RQ	ACCESS:   57818244	FORWARD:          0	MERGED:   17527614	TO_CACHE:   40290630

BTB TOTAL     ACCESS:   30330112  HIT:   18855293  MISS:   11474819  HIT %:    62.1669  MISS %:    37.8331   MPKI: 57.3741
BTB BRANCH_DIRECT_JUMP	ACCESS:    2183492  HIT:    1381264  MISS:     802228
BTB BRANCH_INDIRECT	ACCESS:   11409987  HIT:    7107186  MISS:    4302801
BTB BRANCH_CONDITIONAL	ACCESS:    8659441  HIT:    7498829  MISS:    1160612
BTB BRANCH_DIRECT_CALL	ACCESS:    3412328  HIT:    1528915  MISS:    1883413
BTB BRANCH_INDIRECT_CALL	ACCESS:     626274  HIT:     246325  MISS:     379949
BTB BRANCH_RETURN	ACCESS:    4038590  HIT:    1092774  MISS:    2945816
BTB BRANCH_OTHER ACCESS:          0  HIT:          0  MISS:          0

L2C TOTAL     ACCESS:   15758044  HIT:   14185584  MISS:    1572460  HIT %:    90.0212  MISS %:    9.97878   MPKI: 7.8623
L2C LOAD      ACCESS:   12199967  HIT:   11048755  MISS:    1151212  HIT %:    90.5638  MISS %:    9.43619   MPKI: 5.75606
L2C DATA LOAD MPKI: 1.44335
L2C INSTRUCTION LOAD MPKI: 4.31271
L2C RFO       ACCESS:    1075856  HIT:     867623  MISS:     208233  HIT %:    80.6449  MISS %:    19.3551   MPKI: 1.04116
L2C PREFETCH  ACCESS:     619961  HIT:     461886  MISS:     158075  HIT %:    74.5024  MISS %:    25.4976   MPKI: 0.790375
AGUS PREFETCH L1 MISS: 0
L2C DATA PREFETCH MPKI: 0.790375
L2C INSTRUCTION PREFETCH MPKI: 0
L2C WRITEBACK ACCESS:    1846522  HIT:    1799521  MISS:      47001  HIT %:    97.4546  MISS %:    2.54538   MPKI: 0.235005
L2C LOAD TRANSLATION ACCESS:      10745  HIT:       3753  MISS:       6992  HIT %:    34.9279  MISS %:    65.0721   MPKI: 0.03496
L2C TRANSLATION FROM L1D PREFETCHER ACCESS:       4993  HIT:       4046  MISS:        947  HIT %:    81.0334  MISS %:    18.9666   MPKI: 0.004735
L2C PREFETCH  REQUESTED:          0  ISSUED:          0  USEFUL:      10351  USELESS:     148722
L2C USEFUL LOAD PREFETCHES:      10351 PREFETCH ISSUED TO LOWER LEVEL:     158075  ACCURACY: 6.54816
L2C TIMELY PREFETCHES:      10351 LATE PREFETCHES: 0 DROPPED PREFETCHES: 0
L2C PREFETCHES SAME FILL-ORIGIN LEVEL: 0 DIFFERENT FILL-ORIGIN LEVEL: 0
L2C AVERAGE MISS LATENCY: 31.4952 cycles
L2C RQ	ACCESS:   13291603	FORWARD:          0	MERGED:          0	TO_CACHE:   13291560
L2C WQ	ACCESS:    1846522	FORWARD:         44	MERGED:          0	TO_CACHE:    1846522
L2C PQ	ACCESS:     619962	FORWARD:          0	MERGED:          0	TO_CACHE:     619961

L2C Instructions Evicting Data 334906
L2C Translations Evicting Data 5245
L2C Data Evicting Data 340412
L2C Instructions Evicting Instructions 525307
L2C Translations Evicting Instructions 2385
L2C Data Evicting Instructions 309352
L2C Instructions Evicting Translations 2330
L2C Translations Evicting Translations 309
L2C Data Evicting Translations 5213
L2C Dense regions hint from L2: 0
PSCL5 TOTAL     ACCESS:      12475  HIT:      12475  MISS:          0  HIT %:        100  MISS %:          0   MPKI: 0
PSCL5 LOAD TRANSLATION ACCESS:       9739  HIT:       9739  MISS:          0  HIT %:        100  MISS %:          0   MPKI: 0
PSCL5 TRANSLATION FROM L1D PREFETCHER ACCESS:       2736  HIT:       2736  MISS:          0  HIT %:        100  MISS %:          0   MPKI: 0
PSCL5 PREFETCH  REQUESTED:          0  ISSUED:          0  USEFUL:          0  USELESS:          0
PSCL5 USEFUL LOAD PREFETCHES:          0 PREFETCH ISSUED TO LOWER LEVEL:          0  ACCURACY: -nan
PSCL5 TIMELY PREFETCHES:          0 LATE PREFETCHES: 0 DROPPED PREFETCHES: 0
PSCL5 PREFETCHES SAME FILL-ORIGIN LEVEL: 0 DIFFERENT FILL-ORIGIN LEVEL: 0

PSCL4 TOTAL     ACCESS:      12398  HIT:      12368  MISS:         30  HIT %:     99.758  MISS %:   0.241975   MPKI: 0.00015
PSCL4 LOAD TRANSLATION ACCESS:       9685  HIT:       9655  MISS:         30  HIT %:    99.6902  MISS %:   0.309757   MPKI: 0.00015
PSCL4 TRANSLATION FROM L1D PREFETCHER ACCESS:       2713  HIT:       2713  MISS:          0  HIT %:        100  MISS %:          0   MPKI: 0
PSCL4 PREFETCH  REQUESTED:          0  ISSUED:          0  USEFUL:          0  USELESS:          0
PSCL4 USEFUL LOAD PREFETCHES:          0 PREFETCH ISSUED TO LOWER LEVEL:          0  ACCURACY: -nan
PSCL4 TIMELY PREFETCHES:          0 LATE PREFETCHES: 0 DROPPED PREFETCHES: 0
PSCL4 PREFETCHES SAME FILL-ORIGIN LEVEL: 0 DIFFERENT FILL-ORIGIN LEVEL: 0

PSCL3 TOTAL     ACCESS:      12450  HIT:      12420  MISS:         30  HIT %:     99.759  MISS %:   0.240964   MPKI: 0.00015
PSCL3 LOAD TRANSLATION ACCESS:       9721  HIT:       9691  MISS:         30  HIT %:    99.6914  MISS %:    0.30861   MPKI: 0.00015
PSCL3 TRANSLATION FROM L1D PREFETCHER ACCESS:       2729  HIT:       2729  MISS:          0  HIT %:        100  MISS %:          0   MPKI: 0
PSCL3 PREFETCH  REQUESTED:          0  ISSUED:          0  USEFUL:          0  USELESS:          0
PSCL3 USEFUL LOAD PREFETCHES:          0 PREFETCH ISSUED TO LOWER LEVEL:          0  ACCURACY: -nan
PSCL3 TIMELY PREFETCHES:          0 LATE PREFETCHES: 0 DROPPED PREFETCHES: 0
PSCL3 PREFETCHES SAME FILL-ORIGIN LEVEL: 0 DIFFERENT FILL-ORIGIN LEVEL: 0

PSCL2 TOTAL     ACCESS:      10247  HIT:       9284  MISS:        963  HIT %:    90.6021  MISS %:    9.39787   MPKI: 0.004815
PSCL2 LOAD TRANSLATION ACCESS:       9756  HIT:       8793  MISS:        963  HIT %:    90.1292  MISS %:    9.87085   MPKI: 0.004815
PSCL2 TRANSLATION FROM L1D PREFETCHER ACCESS:        491  HIT:        491  MISS:          0  HIT %:        100  MISS %:          0   MPKI: 0
PSCL2 PREFETCH  REQUESTED:          0  ISSUED:          0  USEFUL:          0  USELESS:          0
PSCL2 USEFUL LOAD PREFETCHES:          0 PREFETCH ISSUED TO LOWER LEVEL:          0  ACCURACY: -nan
PSCL2 TIMELY PREFETCHES:          0 LATE PREFETCHES: 0 DROPPED PREFETCHES: 0
PSCL2 PREFETCHES SAME FILL-ORIGIN LEVEL: 0 DIFFERENT FILL-ORIGIN LEVEL: 0

LLC TOTAL     ACCESS:    1803681  HIT:    1777454  MISS:      26227  HIT %:    98.5459  MISS %:    1.45408   MPKI: 0.131135
LLC LOAD      ACCESS:    1151212  HIT:    1143327  MISS:       7885  HIT %:    99.3151  MISS %:    0.68493   MPKI: 0.039425
LLC RFO       ACCESS:     208233  HIT:     197358  MISS:      10875  HIT %:    94.7775  MISS %:    5.22252   MPKI: 0.054375
LLC PREFETCH  ACCESS:     158074  HIT:     150795  MISS:       7279  HIT %:    95.3952  MISS %:    4.60481   MPKI: 0.036395
AGUS PREFETCH L1 MISS: 0
LLC WRITEBACK ACCESS:     278223  HIT:     278112  MISS:        111  HIT %:    99.9601  MISS %:  0.0398961   MPKI: 0.000555
LLC LOAD TRANSLATION ACCESS:       6992  HIT:       6922  MISS:         70  HIT %:    98.9989  MISS %:    1.00114   MPKI: 0.00035
LLC TRANSLATION FROM L1D PREFETCHER ACCESS:        947  HIT:        940  MISS:          7  HIT %:    99.2608  MISS %:   0.739176   MPKI: 3.5e-05
LLC PREFETCH  REQUESTED:          0  ISSUED:          0  USEFUL:       1917  USELESS:       6312
LLC USEFUL LOAD PREFETCHES:       1917 PREFETCH ISSUED TO LOWER LEVEL:       7279  ACCURACY: 26.336
LLC TIMELY PREFETCHES:       1917 LATE PREFETCHES: 0 DROPPED PREFETCHES: 0
LLC PREFETCHES SAME FILL-ORIGIN LEVEL: 0 DIFFERENT FILL-ORIGIN LEVEL: 0
LLC AVERAGE MISS LATENCY: 143.395 cycles
LLC RQ	ACCESS:    1367384	FORWARD:          0	MERGED:          0	TO_CACHE:    1367384
LLC WQ	ACCESS:     278223	FORWARD:          1	MERGED:          0	TO_CACHE:     278223
LLC PQ	ACCESS:     158075	FORWARD:          0	MERGED:          0	TO_CACHE:     158074

LLC Dense regions hint to LLC: 0

RAW hits: 1399211
Loads Generated: 48288798
Loads sent to L1D: 46889587
Stores Generated: 26309148
Stores sent to L1D: 26309150
Major fault: 0 Minor fault: 1865
Allocated PAGES: 1865
CPU 0 L1d next line prefetcher final stats

DRAM Statistics
 CHANNEL 0
 RQ ROW_BUFFER_HIT:       7693  ROW_BUFFER_MISS:      18407
 DBUS_CONGESTED:         31
 WQ ROW_BUFFER_HIT:       1046  ROW_BUFFER_MISS:      11369  FULL:          0

 AVG_CONGESTED_CYCLE: 5
 All warmup complete: 2
Channel 0 Bank busy for read cycles: 0
Channel 0 Bank busy for write cycles: 0
Channel 0
Rank 0
0banks busy for read cycles: 596276589
0banks busy for write cycles: 5217
1banks busy for read cycles: 1248976
1banks busy for write cycles: 650776
2banks busy for read cycles: 243589
2banks busy for write cycles: 135076
3banks busy for read cycles: 125979
3banks busy for write cycles: 72584
4banks busy for read cycles: 81193
4banks busy for write cycles: 42909
5banks busy for read cycles: 45738
5banks busy for write cycles: 40513
6banks busy for read cycles: 28478
6banks busy for write cycles: 27395
7banks busy for read cycles: 23215
7banks busy for write cycles: 22719
8banks busy for read cycles: 18147
8banks busy for write cycles: 19273

CPU 0 Branch Prediction Accuracy: 99.8462% MPKI: 0.271815 Average ROB Occupancy at Mispredict: 54.3627
Branch types
NOT_BRANCH: 164663070 82.3315%
BRANCH_DIRECT_JUMP: 2183492 1.09175%
BRANCH_INDIRECT: 11409987 5.70499%
BRANCH_CONDITIONAL: 13666237 6.83312%
BRANCH_DIRECT_CALL: 3412328 1.70616%
BRANCH_INDIRECT_CALL: 626274 0.313137%
BRANCH_RETURN: 4038590 2.0193%
BRANCH_OTHER: 0 0%

DRAM PAGES: 1048576
Allocated PAGES: 1865
