
*** ChampSim Multicore Out-of-Order Simulator ***

Warmup Instructions: 50000000
Simulation Instructions: 200000000
Number of CPUs: 1
LLC sets: 2048
LLC ways: 16
Off-chip DRAM Size: 4096 MB Channels: 1 Width: 64-bit Data Rate: 6400 MT/s
CPU 0 runs traces/spec2k17/srv_68.champsimtrace.xz
.xz
BTB has LRU replacement policy
ITLB has LRU replacement policy
DTLB has LRU replacement policy
STLB has LRU replacement policy
L1I has LRU replacement policy
CPU 0 L2C next line prefetcher
L1D has LRU replacement policy
Initialize SRRIP state for L2C
Initialize DRRIP state for LLC
Heartbeat CPU 0 instructions: 10000002 cycles: 2769775 heartbeat IPC: 3.6104 cumulative IPC: 3.6104 (Simulation time: 0 hr 0 min 39 sec) 
Heartbeat CPU 0 instructions: 20000003 cycles: 5535696 heartbeat IPC: 3.61543 cumulative IPC: 3.61292 (Simulation time: 0 hr 1 min 18 sec) 
Heartbeat CPU 0 instructions: 30000003 cycles: 8302364 heartbeat IPC: 3.61446 cumulative IPC: 3.61343 (Simulation time: 0 hr 1 min 58 sec) 
*** Reached end of trace for Core: 0 Repeating trace: traces/spec2k17/srv_68.champsimtrace.xz
Heartbeat CPU 0 instructions: 40000001 cycles: 11065072 heartbeat IPC: 3.61964 cumulative IPC: 3.61498 (Simulation time: 0 hr 2 min 38 sec) 
Heartbeat CPU 0 instructions: 50000000 cycles: 13830303 heartbeat IPC: 3.61633 cumulative IPC: 3.61525 (Simulation time: 0 hr 3 min 16 sec) 

Warmup complete CPU 0 instructions: 50000004 cycles: 13830304 (Simulation time: 0 hr 3 min 16 sec) 

Heartbeat CPU 0 instructions: 60000001 cycles: 36361928 heartbeat IPC: 0.443821 cumulative IPC: 0.443821 (Simulation time: 0 hr 4 min 17 sec) 
*** Reached end of trace for Core: 0 Repeating trace: traces/spec2k17/srv_68.champsimtrace.xz
Heartbeat CPU 0 instructions: 70000003 cycles: 58241842 heartbeat IPC: 0.45704 cumulative IPC: 0.450333 (Simulation time: 0 hr 5 min 22 sec) 
Heartbeat CPU 0 instructions: 80000001 cycles: 80279753 heartbeat IPC: 0.453763 cumulative IPC: 0.451471 (Simulation time: 0 hr 6 min 25 sec) 
Heartbeat CPU 0 instructions: 90000000 cycles: 102975758 heartbeat IPC: 0.440606 cumulative IPC: 0.448705 (Simulation time: 0 hr 7 min 25 sec) 
*** Reached end of trace for Core: 0 Repeating trace: traces/spec2k17/srv_68.champsimtrace.xz
Heartbeat CPU 0 instructions: 100000001 cycles: 124372040 heartbeat IPC: 0.467371 cumulative IPC: 0.452318 (Simulation time: 0 hr 8 min 27 sec) 
Heartbeat CPU 0 instructions: 110000000 cycles: 146709938 heartbeat IPC: 0.44767 cumulative IPC: 0.451536 (Simulation time: 0 hr 9 min 32 sec) 
Heartbeat CPU 0 instructions: 120000001 cycles: 169181317 heartbeat IPC: 0.445011 cumulative IPC: 0.450592 (Simulation time: 0 hr 10 min 37 sec) 
*** Reached end of trace for Core: 0 Repeating trace: traces/spec2k17/srv_68.champsimtrace.xz
Heartbeat CPU 0 instructions: 130000001 cycles: 190485785 heartbeat IPC: 0.469385 cumulative IPC: 0.452859 (Simulation time: 0 hr 11 min 39 sec) 
Heartbeat CPU 0 instructions: 140000002 cycles: 212858918 heartbeat IPC: 0.446965 cumulative IPC: 0.452196 (Simulation time: 0 hr 12 min 41 sec) 
Heartbeat CPU 0 instructions: 150000002 cycles: 235249972 heartbeat IPC: 0.446607 cumulative IPC: 0.451631 (Simulation time: 0 hr 13 min 47 sec) 
*** Reached end of trace for Core: 0 Repeating trace: traces/spec2k17/srv_68.champsimtrace.xz
Heartbeat CPU 0 instructions: 160000001 cycles: 256759747 heartbeat IPC: 0.464905 cumulative IPC: 0.452806 (Simulation time: 0 hr 14 min 50 sec) 
Heartbeat CPU 0 instructions: 170000000 cycles: 279031233 heartbeat IPC: 0.449005 cumulative IPC: 0.452487 (Simulation time: 0 hr 15 min 54 sec) 
Heartbeat CPU 0 instructions: 180000001 cycles: 301500667 heartbeat IPC: 0.445049 cumulative IPC: 0.451906 (Simulation time: 0 hr 16 min 57 sec) 
*** Reached end of trace for Core: 0 Repeating trace: traces/spec2k17/srv_68.champsimtrace.xz
Heartbeat CPU 0 instructions: 190000000 cycles: 322972249 heartbeat IPC: 0.465732 cumulative IPC: 0.452866 (Simulation time: 0 hr 17 min 58 sec) 
Heartbeat CPU 0 instructions: 200000000 cycles: 345005069 heartbeat IPC: 0.453868 cumulative IPC: 0.452933 (Simulation time: 0 hr 19 min 0 sec) 
Heartbeat CPU 0 instructions: 210000000 cycles: 367601577 heartbeat IPC: 0.442546 cumulative IPC: 0.45227 (Simulation time: 0 hr 20 min 5 sec) 
*** Reached end of trace for Core: 0 Repeating trace: traces/spec2k17/srv_68.champsimtrace.xz
Heartbeat CPU 0 instructions: 220000000 cycles: 388923812 heartbeat IPC: 0.468994 cumulative IPC: 0.45322 (Simulation time: 0 hr 21 min 5 sec) 
Heartbeat CPU 0 instructions: 230000001 cycles: 411160870 heartbeat IPC: 0.4497 cumulative IPC: 0.453023 (Simulation time: 0 hr 22 min 8 sec) 
Heartbeat CPU 0 instructions: 240000002 cycles: 433646056 heartbeat IPC: 0.444737 cumulative IPC: 0.452579 (Simulation time: 0 hr 23 min 12 sec) 
*** Reached end of trace for Core: 0 Repeating trace: traces/spec2k17/srv_68.champsimtrace.xz
Heartbeat CPU 0 instructions: 250000002 cycles: 454999065 heartbeat IPC: 0.468318 cumulative IPC: 0.453341 (Simulation time: 0 hr 24 min 12 sec) 
Finished CPU 0 instructions: 200000002 cycles: 441168762 cumulative IPC: 0.453341 (Simulation time: 0 hr 24 min 12 sec) 

ChampSim completed all CPUs

Region of Interest Statistics

CPU 0 cumulative IPC: 0.453341 instructions: 200000002 cycles: 441168762
ITLB TOTAL     ACCESS:   31179717  HIT:   30444004  MISS:     735713  HIT %:    97.6404  MISS %:    2.35959   MPKI: 3.67856
ITLB LOAD TRANSLATION ACCESS:   31179717  HIT:   30444004  MISS:     735713  HIT %:    97.6404  MISS %:    2.35959   MPKI: 3.67856
ITLB PREFETCH  REQUESTED:          0  ISSUED:          0  USEFUL:          0  USELESS:          0
ITLB USEFUL LOAD PREFETCHES:          0 PREFETCH ISSUED TO LOWER LEVEL:          0  ACCURACY: -nan
ITLB TIMELY PREFETCHES:          0 LATE PREFETCHES: 0 DROPPED PREFETCHES: 0
ITLB PREFETCHES SAME FILL-ORIGIN LEVEL: 0 DIFFERENT FILL-ORIGIN LEVEL: 0
ITLB AVERAGE MISS LATENCY: 14.6332 cycles
ITLB RQ	ACCESS:   38047610	FORWARD:          0	MERGED:    6688351	TO_CACHE:   31359259

DTLB TOTAL     ACCESS:   36906564  HIT:   34517214  MISS:    2389350  HIT %:    93.5259  MISS %:    6.47405   MPKI: 11.9467
DTLB LOAD TRANSLATION ACCESS:   36906564  HIT:   34517214  MISS:    2389350  HIT %:    93.5259  MISS %:    6.47405   MPKI: 11.9467
DTLB PREFETCH  REQUESTED:          0  ISSUED:          0  USEFUL:          0  USELESS:          0
DTLB USEFUL LOAD PREFETCHES:          0 PREFETCH ISSUED TO LOWER LEVEL:          0  ACCURACY: -nan
DTLB TIMELY PREFETCHES:          0 LATE PREFETCHES: 0 DROPPED PREFETCHES: 0
DTLB PREFETCHES SAME FILL-ORIGIN LEVEL: 0 DIFFERENT FILL-ORIGIN LEVEL: 0
DTLB AVERAGE MISS LATENCY: 14.2027 cycles
DTLB RQ	ACCESS:   47264893	FORWARD:          0	MERGED:   10215727	TO_CACHE:   37049166

STLB TOTAL     ACCESS:    3605978  HIT:    3227481  MISS:     378497  HIT %:    89.5036  MISS %:    10.4964   MPKI: 1.89248
STLB LOAD TRANSLATION ACCESS:    3125062  HIT:    2748012  MISS:     377050  HIT %:    87.9346  MISS %:    12.0654   MPKI: 1.88525
STLB TRANSLATION FROM L1D PREFETCHER ACCESS:     480916  HIT:     479469  MISS:       1447  HIT %:    99.6991  MISS %:   0.300884   MPKI: 0.007235
STLB PREFETCH  REQUESTED:          0  ISSUED:          0  USEFUL:       1322  USELESS:        126
STLB USEFUL LOAD PREFETCHES:       1322 PREFETCH ISSUED TO LOWER LEVEL:          0  ACCURACY: inf
STLB TIMELY PREFETCHES:       1322 LATE PREFETCHES: 29 DROPPED PREFETCHES: 4986
STLB PREFETCHES SAME FILL-ORIGIN LEVEL: 0 DIFFERENT FILL-ORIGIN LEVEL: 0
STLB AVERAGE MISS LATENCY: 43.7293 cycles
STLB RQ	ACCESS:    3681770	FORWARD:          0	MERGED:      70526	TO_CACHE:    3611244

STLB Hit, L1D data hit: 0
STLB Hit, L2C data hit: 0
STLB Hit, LLC data hit: 0
STLB Hit, LLC data miss: 0
STLB STLB hints to L2: 0
L1D TOTAL     ACCESS:   47229088  HIT:   44618222  MISS:    2610866  HIT %:    94.4719  MISS %:    5.52809   MPKI: 13.0543
L1D LOAD      ACCESS:   27501353  HIT:   25561575  MISS:    1939778  HIT %:    92.9466  MISS %:    7.05339   MPKI: 9.69889
L1D RFO       ACCESS:   19270266  HIT:   18966682  MISS:     303584  HIT %:    98.4246  MISS %:     1.5754   MPKI: 1.51792
L1D PREFETCH  ACCESS:     457469  HIT:      89965  MISS:     367504  HIT %:    19.6658  MISS %:    80.3342   MPKI: 1.83752
AGUS PREFETCH L1 MISS: 0
L1D PREFETCH  REQUESTED:    1120047  ISSUED:    1120047  USEFUL:     139996  USELESS:     227519
L1D USEFUL LOAD PREFETCHES:     139996 PREFETCH ISSUED TO LOWER LEVEL:     378546  ACCURACY: 36.9826
L1D TIMELY PREFETCHES:     139996 LATE PREFETCHES: 10368 DROPPED PREFETCHES: 5772
L1D PREFETCHES SAME FILL-ORIGIN LEVEL: 378546 DIFFERENT FILL-ORIGIN LEVEL: 0
L1D AVERAGE MISS LATENCY: 981309 cycles
L1D RQ	ACCESS:   42640772	FORWARD:          0	MERGED:   14799198	TO_CACHE:   27612695
L1D WQ	ACCESS:   19969250	FORWARD:     229267	MERGED:     317052	TO_CACHE:   19652198
L1D PQ	ACCESS:     563339	FORWARD:          0	MERGED:       6243	TO_CACHE:     556708

L1D UNIQUE REGIONS ACCESSED: 0
L1D REGIONS CONFLICTS: 0
L1D Cross Page Prefetch Requests: 17971
L1D Same Page Prefetch Requests: 695122
L1D ROI Sum of L1D PQ occupancy: 7571858
L1D PREFETCHES PUSHED FROM L2C: 0
L1I TOTAL     ACCESS:   36406431  HIT:   31636360  MISS:    4770071  HIT %:    86.8977  MISS %:    13.1023   MPKI: 23.8504
L1I LOAD      ACCESS:   36406431  HIT:   31636360  MISS:    4770071  HIT %:    86.8977  MISS %:    13.1023   MPKI: 23.8504
L1I PREFETCH  REQUESTED:          0  ISSUED:          0  USEFUL:          0  USELESS:          0
L1I USEFUL LOAD PREFETCHES:          0 PREFETCH ISSUED TO LOWER LEVEL:          0  ACCURACY: -nan
L1I TIMELY PREFETCHES:          0 LATE PREFETCHES: 0 DROPPED PREFETCHES: 0
L1I PREFETCHES SAME FILL-ORIGIN LEVEL: 0 DIFFERENT FILL-ORIGIN LEVEL: 0
L1I AVERAGE MISS LATENCY: 26.9732 cycles
L1I RQ	ACCESS:   56567524	FORWARD:          0	MERGED:   18519914	TO_CACHE:   38047610

BTB TOTAL     ACCESS:   21751551  HIT:   17439369  MISS:    4312182  HIT %:    80.1753  MISS %:    19.8247   MPKI: 21.5609
BTB BRANCH_DIRECT_JUMP	ACCESS:    1714565  HIT:    1465961  MISS:     248604
BTB BRANCH_INDIRECT	ACCESS:    9411853  HIT:    7323167  MISS:    2088686
BTB BRANCH_CONDITIONAL	ACCESS:    4498891  HIT:    4091160  MISS:     407731
BTB BRANCH_DIRECT_CALL	ACCESS:    2431594  HIT:    1968834  MISS:     462760
BTB BRANCH_INDIRECT_CALL	ACCESS:     630486  HIT:     593321  MISS:      37165
BTB BRANCH_RETURN	ACCESS:    3064162  HIT:    1996926  MISS:    1067236
BTB BRANCH_OTHER ACCESS:          0  HIT:          0  MISS:          0

L2C TOTAL     ACCESS:    8854931  HIT:    5365414  MISS:    3489517  HIT %:    60.5924  MISS %:    39.4076   MPKI: 17.4476
L2C LOAD      ACCESS:    6699366  HIT:    3820729  MISS:    2878637  HIT %:    57.0312  MISS %:    42.9688   MPKI: 14.3932
L2C DATA LOAD MPKI: 4.62318
L2C INSTRUCTION LOAD MPKI: 9.77
L2C RFO       ACCESS:     302871  HIT:     162704  MISS:     140167  HIT %:    53.7206  MISS %:    46.2794   MPKI: 0.700835
L2C PREFETCH  ACCESS:     378547  HIT:     146859  MISS:     231688  HIT %:    38.7954  MISS %:    61.2046   MPKI: 1.15844
AGUS PREFETCH L1 MISS: 0
L2C DATA PREFETCH MPKI: 1.15844
L2C INSTRUCTION PREFETCH MPKI: 0
L2C WRITEBACK ACCESS:     978252  HIT:     930144  MISS:      48108  HIT %:    95.0822  MISS %:    4.91775   MPKI: 0.24054
L2C LOAD TRANSLATION ACCESS:     487198  HIT:     298767  MISS:     188431  HIT %:    61.3235  MISS %:    38.6765   MPKI: 0.942155
L2C TRANSLATION FROM L1D PREFETCHER ACCESS:       8697  HIT:       6211  MISS:       2486  HIT %:    71.4154  MISS %:    28.5846   MPKI: 0.01243
L2C PREFETCH  REQUESTED:          0  ISSUED:          0  USEFUL:      17077  USELESS:     217221
L2C USEFUL LOAD PREFETCHES:      17077 PREFETCH ISSUED TO LOWER LEVEL:     231688  ACCURACY: 7.37069
L2C TIMELY PREFETCHES:      17077 LATE PREFETCHES: 0 DROPPED PREFETCHES: 0
L2C PREFETCHES SAME FILL-ORIGIN LEVEL: 0 DIFFERENT FILL-ORIGIN LEVEL: 0
L2C AVERAGE MISS LATENCY: 44.6308 cycles
L2C RQ	ACCESS:    7498283	FORWARD:          0	MERGED:          0	TO_CACHE:    7498131
L2C WQ	ACCESS:     978252	FORWARD:        152	MERGED:          0	TO_CACHE:     978252
L2C PQ	ACCESS:     378546	FORWARD:          0	MERGED:          0	TO_CACHE:     378546

L2C Instructions Evicting Data 750238
L2C Translations Evicting Data 74186
L2C Data Evicting Data 502113
L2C Instructions Evicting Instructions 1097716
L2C Translations Evicting Instructions 107177
L2C Data Evicting Instructions 721743
L2C Instructions Evicting Translations 106047
L2C Translations Evicting Translations 9554
L2C Data Evicting Translations 72635
L2C Dense regions hint from L2: 0
PSCL5 TOTAL     ACCESS:     383483  HIT:     383483  MISS:          0  HIT %:        100  MISS %:          0   MPKI: 0
PSCL5 LOAD TRANSLATION ACCESS:     377021  HIT:     377021  MISS:          0  HIT %:        100  MISS %:          0   MPKI: 0
PSCL5 TRANSLATION FROM L1D PREFETCHER ACCESS:       6462  HIT:       6462  MISS:          0  HIT %:        100  MISS %:          0   MPKI: 0
PSCL5 PREFETCH  REQUESTED:          0  ISSUED:          0  USEFUL:          0  USELESS:          0
PSCL5 USEFUL LOAD PREFETCHES:          0 PREFETCH ISSUED TO LOWER LEVEL:          0  ACCURACY: -nan
PSCL5 TIMELY PREFETCHES:          0 LATE PREFETCHES: 0 DROPPED PREFETCHES: 0
PSCL5 PREFETCHES SAME FILL-ORIGIN LEVEL: 0 DIFFERENT FILL-ORIGIN LEVEL: 0

PSCL4 TOTAL     ACCESS:     343633  HIT:     342989  MISS:        644  HIT %:    99.8126  MISS %:   0.187409   MPKI: 0.00322
PSCL4 LOAD TRANSLATION ACCESS:     338517  HIT:     337873  MISS:        644  HIT %:    99.8098  MISS %:   0.190242   MPKI: 0.00322
PSCL4 TRANSLATION FROM L1D PREFETCHER ACCESS:       5116  HIT:       5116  MISS:          0  HIT %:        100  MISS %:          0   MPKI: 0
PSCL4 PREFETCH  REQUESTED:          0  ISSUED:          0  USEFUL:          0  USELESS:          0
PSCL4 USEFUL LOAD PREFETCHES:          0 PREFETCH ISSUED TO LOWER LEVEL:          0  ACCURACY: -nan
PSCL4 TIMELY PREFETCHES:          0 LATE PREFETCHES: 0 DROPPED PREFETCHES: 0
PSCL4 PREFETCHES SAME FILL-ORIGIN LEVEL: 0 DIFFERENT FILL-ORIGIN LEVEL: 0

PSCL3 TOTAL     ACCESS:     381350  HIT:     379368  MISS:       1982  HIT %:    99.4803  MISS %:   0.519733   MPKI: 0.00991
PSCL3 LOAD TRANSLATION ACCESS:     374891  HIT:     372909  MISS:       1982  HIT %:    99.4713  MISS %:   0.528687   MPKI: 0.00991
PSCL3 TRANSLATION FROM L1D PREFETCHER ACCESS:       6459  HIT:       6459  MISS:          0  HIT %:        100  MISS %:          0   MPKI: 0
PSCL3 PREFETCH  REQUESTED:          0  ISSUED:          0  USEFUL:          0  USELESS:          0
PSCL3 USEFUL LOAD PREFETCHES:          0 PREFETCH ISSUED TO LOWER LEVEL:          0  ACCURACY: -nan
PSCL3 TIMELY PREFETCHES:          0 LATE PREFETCHES: 0 DROPPED PREFETCHES: 0
PSCL3 PREFETCHES SAME FILL-ORIGIN LEVEL: 0 DIFFERENT FILL-ORIGIN LEVEL: 0

PSCL2 TOTAL     ACCESS:     381614  HIT:     273701  MISS:     107913  HIT %:    71.7219  MISS %:    28.2781   MPKI: 0.539565
PSCL2 LOAD TRANSLATION ACCESS:     377383  HIT:     269470  MISS:     107913  HIT %:    71.4049  MISS %:    28.5951   MPKI: 0.539565
PSCL2 TRANSLATION FROM L1D PREFETCHER ACCESS:       4231  HIT:       4231  MISS:          0  HIT %:        100  MISS %:          0   MPKI: 0
PSCL2 PREFETCH  REQUESTED:          0  ISSUED:          0  USEFUL:          0  USELESS:          0
PSCL2 USEFUL LOAD PREFETCHES:          0 PREFETCH ISSUED TO LOWER LEVEL:          0  ACCURACY: -nan
PSCL2 TIMELY PREFETCHES:          0 LATE PREFETCHES: 0 DROPPED PREFETCHES: 0
PSCL2 PREFETCHES SAME FILL-ORIGIN LEVEL: 0 DIFFERENT FILL-ORIGIN LEVEL: 0

LLC TOTAL     ACCESS:    3891082  HIT:    3555521  MISS:     335561  HIT %:    91.3762  MISS %:    8.62385   MPKI: 1.6778
LLC LOAD      ACCESS:    2878633  HIT:    2661938  MISS:     216695  HIT %:    92.4723  MISS %:     7.5277   MPKI: 1.08347
LLC RFO       ACCESS:     140165  HIT:      91320  MISS:      48845  HIT %:    65.1518  MISS %:    34.8482   MPKI: 0.244225
LLC PREFETCH  ACCESS:     231686  HIT:     175488  MISS:      56198  HIT %:    75.7439  MISS %:    24.2561   MPKI: 0.28099
AGUS PREFETCH L1 MISS: 0
LLC WRITEBACK ACCESS:     449681  HIT:     447095  MISS:       2586  HIT %:    99.4249  MISS %:   0.575074   MPKI: 0.01293
LLC LOAD TRANSLATION ACCESS:     188431  HIT:     177299  MISS:      11132  HIT %:    94.0923  MISS %:    5.90773   MPKI: 0.05566
LLC TRANSLATION FROM L1D PREFETCHER ACCESS:       2486  HIT:       2381  MISS:        105  HIT %:    95.7763  MISS %:    4.22365   MPKI: 0.000525
LLC PREFETCH  REQUESTED:          0  ISSUED:          0  USEFUL:       3799  USELESS:      52953
LLC USEFUL LOAD PREFETCHES:       3799 PREFETCH ISSUED TO LOWER LEVEL:      56198  ACCURACY: 6.76003
LLC TIMELY PREFETCHES:       3799 LATE PREFETCHES: 0 DROPPED PREFETCHES: 0
LLC PREFETCHES SAME FILL-ORIGIN LEVEL: 0 DIFFERENT FILL-ORIGIN LEVEL: 0
LLC AVERAGE MISS LATENCY: 156.443 cycles
LLC RQ	ACCESS:    3209720	FORWARD:          0	MERGED:          0	TO_CACHE:    3209714
LLC WQ	ACCESS:     449681	FORWARD:          8	MERGED:          0	TO_CACHE:     449681
LLC PQ	ACCESS:     231688	FORWARD:          0	MERGED:          0	TO_CACHE:     231686

LLC Dense regions hint to LLC: 0

RAW hits: 3113414
Loads Generated: 45754187
Loads sent to L1D: 42640772
Stores Generated: 19969261
Stores sent to L1D: 19969250
Major fault: 0 Minor fault: 5849
Allocated PAGES: 5849
CPU 0 L1d next line prefetcher final stats

DRAM Statistics
 CHANNEL 0
 RQ ROW_BUFFER_HIT:      65765  ROW_BUFFER_MISS:     267209
 DBUS_CONGESTED:        174
 WQ ROW_BUFFER_HIT:      29723  ROW_BUFFER_MISS:     190505  FULL:          0

 AVG_CONGESTED_CYCLE: 4
 All warmup complete: 2
Channel 0 Bank busy for read cycles: 0
Channel 0 Bank busy for write cycles: 0
Channel 0
Rank 0
0banks busy for read cycles: 383738103
0banks busy for write cycles: 118247
1banks busy for read cycles: 26041183
1banks busy for write cycles: 15634159
2banks busy for read cycles: 5750279
2banks busy for write cycles: 4833696
3banks busy for read cycles: 945463
3banks busy for write cycles: 1633938
4banks busy for read cycles: 286148
4banks busy for write cycles: 777349
5banks busy for read cycles: 91586
5banks busy for write cycles: 424928
6banks busy for read cycles: 49144
6banks busy for write cycles: 268519
7banks busy for read cycles: 42761
7banks busy for write cycles: 184870
8banks busy for read cycles: 102187
8banks busy for write cycles: 246203

CPU 0 Branch Prediction Accuracy: 99.7946% MPKI: 0.361505 Average ROB Occupancy at Mispredict: 43.3087
Branch types
NOT_BRANCH: 164798107 82.3991%
BRANCH_DIRECT_JUMP: 1714565 0.857282%
BRANCH_INDIRECT: 9411853 4.70593%
BRANCH_CONDITIONAL: 17949372 8.97469%
BRANCH_DIRECT_CALL: 2431594 1.2158%
BRANCH_INDIRECT_CALL: 630486 0.315243%
BRANCH_RETURN: 3064162 1.53208%
BRANCH_OTHER: 0 0%

DRAM PAGES: 1048576
Allocated PAGES: 5849
