
*** ChampSim Multicore Out-of-Order Simulator ***

Warmup Instructions: 50000000
Simulation Instructions: 200000000
Number of CPUs: 1
LLC sets: 2048
LLC ways: 16
Off-chip DRAM Size: 4096 MB Channels: 1 Width: 64-bit Data Rate: 6400 MT/s
CPU 0 runs traces/spec2k17/srv_9.champsimtrace.xz
.xz
BTB has LRU replacement policy
ITLB has LRU replacement policy
DTLB has LRU replacement policy
STLB has LRU replacement policy
L1I has LRU replacement policy
CPU 0 L2C next line prefetcher
L1D has LRU replacement policy
Initialize SRRIP state for L2C
Initialize DRRIP state for LLC
Heartbeat CPU 0 instructions: 10000001 cycles: 3605803 heartbeat IPC: 2.77331 cumulative IPC: 2.77331 (Simulation time: 0 hr 0 min 51 sec) 
Heartbeat CPU 0 instructions: 20000002 cycles: 7627634 heartbeat IPC: 2.48643 cumulative IPC: 2.62205 (Simulation time: 0 hr 1 min 43 sec) 
Heartbeat CPU 0 instructions: 30000000 cycles: 10589418 heartbeat IPC: 3.37634 cumulative IPC: 2.83302 (Simulation time: 0 hr 2 min 14 sec) 
*** Reached end of trace for Core: 0 Repeating trace: traces/spec2k17/srv_9.champsimtrace.xz
Heartbeat CPU 0 instructions: 40000001 cycles: 14110801 heartbeat IPC: 2.83979 cumulative IPC: 2.83471 (Simulation time: 0 hr 2 min 57 sec) 
Heartbeat CPU 0 instructions: 50000003 cycles: 18031825 heartbeat IPC: 2.55035 cumulative IPC: 2.77288 (Simulation time: 0 hr 3 min 40 sec) 

Warmup complete CPU 0 instructions: 50000003 cycles: 18031825 (Simulation time: 0 hr 3 min 40 sec) 

Heartbeat CPU 0 instructions: 60000001 cycles: 41242482 heartbeat IPC: 0.430836 cumulative IPC: 0.430836 (Simulation time: 0 hr 4 min 44 sec) 
*** Reached end of trace for Core: 0 Repeating trace: traces/spec2k17/srv_9.champsimtrace.xz
Heartbeat CPU 0 instructions: 70000000 cycles: 68654036 heartbeat IPC: 0.36481 cumulative IPC: 0.395083 (Simulation time: 0 hr 5 min 44 sec) 
Heartbeat CPU 0 instructions: 80000000 cycles: 103426624 heartbeat IPC: 0.287583 cumulative IPC: 0.351309 (Simulation time: 0 hr 6 min 51 sec) 
Heartbeat CPU 0 instructions: 90000001 cycles: 126793899 heartbeat IPC: 0.427949 cumulative IPC: 0.367775 (Simulation time: 0 hr 7 min 48 sec) 
*** Reached end of trace for Core: 0 Repeating trace: traces/spec2k17/srv_9.champsimtrace.xz
Heartbeat CPU 0 instructions: 100000003 cycles: 152891464 heartbeat IPC: 0.383178 cumulative IPC: 0.370756 (Simulation time: 0 hr 8 min 52 sec) 
Heartbeat CPU 0 instructions: 110000000 cycles: 188818504 heartbeat IPC: 0.278342 cumulative IPC: 0.351315 (Simulation time: 0 hr 10 min 1 sec) 
Heartbeat CPU 0 instructions: 120000001 cycles: 212179429 heartbeat IPC: 0.428065 cumulative IPC: 0.36055 (Simulation time: 0 hr 10 min 54 sec) 
*** Reached end of trace for Core: 0 Repeating trace: traces/spec2k17/srv_9.champsimtrace.xz
Heartbeat CPU 0 instructions: 130000003 cycles: 236994466 heartbeat IPC: 0.402982 cumulative IPC: 0.365359 (Simulation time: 0 hr 11 min 40 sec) 
Heartbeat CPU 0 instructions: 140000001 cycles: 273840563 heartbeat IPC: 0.271399 cumulative IPC: 0.351825 (Simulation time: 0 hr 12 min 38 sec) 
Heartbeat CPU 0 instructions: 150000000 cycles: 297428044 heartbeat IPC: 0.423954 cumulative IPC: 0.357915 (Simulation time: 0 hr 13 min 21 sec) 
*** Reached end of trace for Core: 0 Repeating trace: traces/spec2k17/srv_9.champsimtrace.xz
Heartbeat CPU 0 instructions: 160000001 cycles: 320956756 heartbeat IPC: 0.425013 cumulative IPC: 0.363126 (Simulation time: 0 hr 14 min 3 sec) 
Heartbeat CPU 0 instructions: 170000000 cycles: 358336424 heartbeat IPC: 0.267525 cumulative IPC: 0.352625 (Simulation time: 0 hr 14 min 53 sec) 
Heartbeat CPU 0 instructions: 180000000 cycles: 382655032 heartbeat IPC: 0.411208 cumulative IPC: 0.356532 (Simulation time: 0 hr 15 min 35 sec) 
*** Reached end of trace for Core: 0 Repeating trace: traces/spec2k17/srv_9.champsimtrace.xz
Heartbeat CPU 0 instructions: 190000000 cycles: 405410097 heartbeat IPC: 0.439463 cumulative IPC: 0.361404 (Simulation time: 0 hr 16 min 15 sec) 
Heartbeat CPU 0 instructions: 200000000 cycles: 442739828 heartbeat IPC: 0.267883 cumulative IPC: 0.353184 (Simulation time: 0 hr 17 min 5 sec) 
Heartbeat CPU 0 instructions: 210000000 cycles: 468442534 heartbeat IPC: 0.389064 cumulative IPC: 0.355231 (Simulation time: 0 hr 17 min 45 sec) 
*** Reached end of trace for Core: 0 Repeating trace: traces/spec2k17/srv_9.champsimtrace.xz
Heartbeat CPU 0 instructions: 220000000 cycles: 487322939 heartbeat IPC: 0.52965 cumulative IPC: 0.362248 (Simulation time: 0 hr 18 min 22 sec) 
Heartbeat CPU 0 instructions: 230000000 cycles: 526554350 heartbeat IPC: 0.254898 cumulative IPC: 0.353967 (Simulation time: 0 hr 19 min 10 sec) 
Heartbeat CPU 0 instructions: 240000000 cycles: 553048414 heartbeat IPC: 0.377443 cumulative IPC: 0.355129 (Simulation time: 0 hr 19 min 51 sec) 
*** Reached end of trace for Core: 0 Repeating trace: traces/spec2k17/srv_9.champsimtrace.xz
Heartbeat CPU 0 instructions: 250000003 cycles: 570652578 heartbeat IPC: 0.568048 cumulative IPC: 0.361912 (Simulation time: 0 hr 20 min 27 sec) 
Finished CPU 0 instructions: 200000000 cycles: 552620753 cumulative IPC: 0.361912 (Simulation time: 0 hr 20 min 27 sec) 

ChampSim completed all CPUs

Region of Interest Statistics

CPU 0 cumulative IPC: 0.361912 instructions: 200000000 cycles: 552620753
ITLB TOTAL     ACCESS:   41279879  HIT:   41139767  MISS:     140112  HIT %:    99.6606  MISS %:    0.33942   MPKI: 0.70056
ITLB LOAD TRANSLATION ACCESS:   41279879  HIT:   41139767  MISS:     140112  HIT %:    99.6606  MISS %:    0.33942   MPKI: 0.70056
ITLB PREFETCH  REQUESTED:          0  ISSUED:          0  USEFUL:          0  USELESS:          0
ITLB USEFUL LOAD PREFETCHES:          0 PREFETCH ISSUED TO LOWER LEVEL:          0  ACCURACY: -nan
ITLB TIMELY PREFETCHES:          0 LATE PREFETCHES: 0 DROPPED PREFETCHES: 0
ITLB PREFETCHES SAME FILL-ORIGIN LEVEL: 0 DIFFERENT FILL-ORIGIN LEVEL: 0
ITLB AVERAGE MISS LATENCY: 19.2714 cycles
ITLB RQ	ACCESS:   44851802	FORWARD:          0	MERGED:    3533225	TO_CACHE:   41318577

DTLB TOTAL     ACCESS:   42754407  HIT:   34244205  MISS:    8510202  HIT %:    80.0951  MISS %:    19.9049   MPKI: 42.551
DTLB LOAD TRANSLATION ACCESS:   42754407  HIT:   34244205  MISS:    8510202  HIT %:    80.0951  MISS %:    19.9049   MPKI: 42.551
DTLB PREFETCH  REQUESTED:          0  ISSUED:          0  USEFUL:          0  USELESS:          0
DTLB USEFUL LOAD PREFETCHES:          0 PREFETCH ISSUED TO LOWER LEVEL:          0  ACCURACY: -nan
DTLB TIMELY PREFETCHES:          0 LATE PREFETCHES: 0 DROPPED PREFETCHES: 0
DTLB PREFETCHES SAME FILL-ORIGIN LEVEL: 0 DIFFERENT FILL-ORIGIN LEVEL: 0
DTLB AVERAGE MISS LATENCY: 9.82524 cycles
DTLB RQ	ACCESS:   56044260	FORWARD:          0	MERGED:   13174941	TO_CACHE:   42869319

STLB TOTAL     ACCESS:   14688058  HIT:   14589593  MISS:      98465  HIT %:    99.3296  MISS %:   0.670375   MPKI: 0.492325
STLB LOAD TRANSLATION ACCESS:    8650314  HIT:    8562804  MISS:      87510  HIT %:    98.9884  MISS %:    1.01164   MPKI: 0.43755
STLB TRANSLATION FROM L1D PREFETCHER ACCESS:    6037744  HIT:    6026789  MISS:      10955  HIT %:    99.8186  MISS %:   0.181442   MPKI: 0.054775
STLB PREFETCH  REQUESTED:          0  ISSUED:          0  USEFUL:      10751  USELESS:        203
STLB USEFUL LOAD PREFETCHES:      10751 PREFETCH ISSUED TO LOWER LEVEL:          0  ACCURACY: inf
STLB TIMELY PREFETCHES:      10751 LATE PREFETCHES: 52 DROPPED PREFETCHES: 15493
STLB PREFETCHES SAME FILL-ORIGIN LEVEL: 0 DIFFERENT FILL-ORIGIN LEVEL: 0
STLB AVERAGE MISS LATENCY: 6455.78 cycles
STLB RQ	ACCESS:   15189120	FORWARD:          0	MERGED:     484474	TO_CACHE:   14704646

STLB Hit, L1D data hit: 0
STLB Hit, L2C data hit: 0
STLB Hit, LLC data hit: 0
STLB Hit, LLC data miss: 0
STLB STLB hints to L2: 0
L1D TOTAL     ACCESS:   57123179  HIT:   42714480  MISS:   14408699  HIT %:    74.7761  MISS %:    25.2239   MPKI: 72.0435
L1D LOAD      ACCESS:   40633418  HIT:   27656924  MISS:   12976494  HIT %:    68.0645  MISS %:    31.9355   MPKI: 64.8825
L1D RFO       ACCESS:   14367622  HIT:   14132569  MISS:     235053  HIT %:     98.364  MISS %:    1.63599   MPKI: 1.17527
L1D PREFETCH  ACCESS:    2122139  HIT:     924987  MISS:    1197152  HIT %:    43.5875  MISS %:    56.4125   MPKI: 5.98576
AGUS PREFETCH L1 MISS: 0
L1D PREFETCH  REQUESTED:   13083535  ISSUED:   13083459  USEFUL:     268336  USELESS:     928817
L1D USEFUL LOAD PREFETCHES:     268336 PREFETCH ISSUED TO LOWER LEVEL:    1211666  ACCURACY: 22.146
L1D TIMELY PREFETCHES:     268336 LATE PREFETCHES: 14390 DROPPED PREFETCHES: 16610
L1D PREFETCHES SAME FILL-ORIGIN LEVEL: 1211666 DIFFERENT FILL-ORIGIN LEVEL: 0
L1D AVERAGE MISS LATENCY: 272814 cycles
L1D RQ	ACCESS:   58999103	FORWARD:          0	MERGED:   17493482	TO_CACHE:   41398779
L1D WQ	ACCESS:   18280129	FORWARD:     106868	MERGED:    3634648	TO_CACHE:   14645481
L1D PQ	ACCESS:    6544653	FORWARD:          0	MERGED:       5821	TO_CACHE:    6538806

L1D UNIQUE REGIONS ACCESSED: 0
L1D REGIONS CONFLICTS: 0
L1D Cross Page Prefetch Requests: 174385
L1D Same Page Prefetch Requests: 8168884
L1D ROI Sum of L1D PQ occupancy: 85225349
L1D PREFETCHES PUSHED FROM L2C: 0
L1I TOTAL     ACCESS:   44609670  HIT:   43917162  MISS:     692508  HIT %:    98.4476  MISS %:    1.55237   MPKI: 3.46254
L1I LOAD      ACCESS:   44609670  HIT:   43917162  MISS:     692508  HIT %:    98.4476  MISS %:    1.55237   MPKI: 3.46254
L1I PREFETCH  REQUESTED:          0  ISSUED:          0  USEFUL:          0  USELESS:          0
L1I USEFUL LOAD PREFETCHES:          0 PREFETCH ISSUED TO LOWER LEVEL:          0  ACCURACY: -nan
L1I TIMELY PREFETCHES:          0 LATE PREFETCHES: 0 DROPPED PREFETCHES: 0
L1I PREFETCHES SAME FILL-ORIGIN LEVEL: 0 DIFFERENT FILL-ORIGIN LEVEL: 0
L1I AVERAGE MISS LATENCY: 51.1774 cycles
L1I RQ	ACCESS:   72839950	FORWARD:          0	MERGED:   27988148	TO_CACHE:   44851802

BTB TOTAL     ACCESS:   41124960  HIT:   38918352  MISS:    2206608  HIT %:    94.6344  MISS %:    5.36562   MPKI: 11.033
BTB BRANCH_DIRECT_JUMP	ACCESS:    1846529  HIT:    1816856  MISS:      29673
BTB BRANCH_INDIRECT	ACCESS:   24302767  HIT:   22906219  MISS:    1396548
BTB BRANCH_CONDITIONAL	ACCESS:    9638325  HIT:    9593200  MISS:      45125
BTB BRANCH_DIRECT_CALL	ACCESS:    2098552  HIT:    2045391  MISS:      53161
BTB BRANCH_INDIRECT_CALL	ACCESS:     567787  HIT:     550197  MISS:      17590
BTB BRANCH_RETURN	ACCESS:    2671000  HIT:    2006489  MISS:     664511
BTB BRANCH_OTHER ACCESS:          0  HIT:          0  MISS:          0

L2C TOTAL     ACCESS:   15621906  HIT:   14004996  MISS:    1616910  HIT %:    89.6497  MISS %:    10.3503   MPKI: 8.08455
L2C LOAD      ACCESS:   13654610  HIT:   12483137  MISS:    1171473  HIT %:    91.4207  MISS %:    8.57932   MPKI: 5.85736
L2C DATA LOAD MPKI: 4.5784
L2C INSTRUCTION LOAD MPKI: 1.27896
L2C RFO       ACCESS:     234928  HIT:     164095  MISS:      70833  HIT %:    69.8491  MISS %:    30.1509   MPKI: 0.354165
L2C PREFETCH  ACCESS:    1211666  HIT:     893851  MISS:     317815  HIT %:    73.7704  MISS %:    26.2296   MPKI: 1.58908
AGUS PREFETCH L1 MISS: 0
L2C DATA PREFETCH MPKI: 1.58908
L2C INSTRUCTION PREFETCH MPKI: 0
L2C WRITEBACK ACCESS:     384659  HIT:     376936  MISS:       7723  HIT %:    97.9922  MISS %:    2.00775   MPKI: 0.038615
L2C LOAD TRANSLATION ACCESS:     107873  HIT:      60740  MISS:      47133  HIT %:     56.307  MISS %:     43.693   MPKI: 0.235665
L2C TRANSLATION FROM L1D PREFETCHER ACCESS:      28170  HIT:      26237  MISS:       1933  HIT %:    93.1381  MISS %:    6.86191   MPKI: 0.009665
L2C PREFETCH  REQUESTED:          0  ISSUED:          0  USEFUL:       6540  USELESS:     312730
L2C USEFUL LOAD PREFETCHES:       6540 PREFETCH ISSUED TO LOWER LEVEL:     317815  ACCURACY: 2.0578
L2C TIMELY PREFETCHES:       6540 LATE PREFETCHES: 0 DROPPED PREFETCHES: 0
L2C PREFETCHES SAME FILL-ORIGIN LEVEL: 0 DIFFERENT FILL-ORIGIN LEVEL: 0
L2C AVERAGE MISS LATENCY: 125.575 cycles
L2C RQ	ACCESS:   14025584	FORWARD:          0	MERGED:          0	TO_CACHE:   14025581
L2C WQ	ACCESS:     384659	FORWARD:          3	MERGED:          0	TO_CACHE:     384659
L2C PQ	ACCESS:    1211666	FORWARD:          0	MERGED:          0	TO_CACHE:    1211666

L2C Instructions Evicting Data 162550
L2C Translations Evicting Data 33343
L2C Data Evicting Data 1109432
L2C Instructions Evicting Instructions 79894
L2C Translations Evicting Instructions 13427
L2C Data Evicting Instructions 161749
L2C Instructions Evicting Translations 13349
L2C Translations Evicting Translations 2296
L2C Data Evicting Translations 33147
L2C Dense regions hint from L2: 0
PSCL5 TOTAL     ACCESS:     113958  HIT:     113958  MISS:          0  HIT %:        100  MISS %:          0   MPKI: 0
PSCL5 LOAD TRANSLATION ACCESS:      87458  HIT:      87458  MISS:          0  HIT %:        100  MISS %:          0   MPKI: 0
PSCL5 TRANSLATION FROM L1D PREFETCHER ACCESS:      26500  HIT:      26500  MISS:          0  HIT %:        100  MISS %:          0   MPKI: 0
PSCL5 PREFETCH  REQUESTED:          0  ISSUED:          0  USEFUL:          0  USELESS:          0
PSCL5 USEFUL LOAD PREFETCHES:          0 PREFETCH ISSUED TO LOWER LEVEL:          0  ACCURACY: -nan
PSCL5 TIMELY PREFETCHES:          0 LATE PREFETCHES: 0 DROPPED PREFETCHES: 0
PSCL5 PREFETCHES SAME FILL-ORIGIN LEVEL: 0 DIFFERENT FILL-ORIGIN LEVEL: 0

PSCL4 TOTAL     ACCESS:     103988  HIT:     103890  MISS:         98  HIT %:    99.9058  MISS %:  0.0942416   MPKI: 0.00049
PSCL4 LOAD TRANSLATION ACCESS:      77598  HIT:      77500  MISS:         98  HIT %:    99.8737  MISS %:   0.126292   MPKI: 0.00049
PSCL4 TRANSLATION FROM L1D PREFETCHER ACCESS:      26390  HIT:      26390  MISS:          0  HIT %:        100  MISS %:          0   MPKI: 0
PSCL4 PREFETCH  REQUESTED:          0  ISSUED:          0  USEFUL:          0  USELESS:          0
PSCL4 USEFUL LOAD PREFETCHES:          0 PREFETCH ISSUED TO LOWER LEVEL:          0  ACCURACY: -nan
PSCL4 TIMELY PREFETCHES:          0 LATE PREFETCHES: 0 DROPPED PREFETCHES: 0
PSCL4 PREFETCHES SAME FILL-ORIGIN LEVEL: 0 DIFFERENT FILL-ORIGIN LEVEL: 0

PSCL3 TOTAL     ACCESS:     113737  HIT:     113507  MISS:        230  HIT %:    99.7978  MISS %:   0.202221   MPKI: 0.00115
PSCL3 LOAD TRANSLATION ACCESS:      87246  HIT:      87016  MISS:        230  HIT %:    99.7364  MISS %:   0.263622   MPKI: 0.00115
PSCL3 TRANSLATION FROM L1D PREFETCHER ACCESS:      26491  HIT:      26491  MISS:          0  HIT %:        100  MISS %:          0   MPKI: 0
PSCL3 PREFETCH  REQUESTED:          0  ISSUED:          0  USEFUL:          0  USELESS:          0
PSCL3 USEFUL LOAD PREFETCHES:          0 PREFETCH ISSUED TO LOWER LEVEL:          0  ACCURACY: -nan
PSCL3 TIMELY PREFETCHES:          0 LATE PREFETCHES: 0 DROPPED PREFETCHES: 0
PSCL3 PREFETCHES SAME FILL-ORIGIN LEVEL: 0 DIFFERENT FILL-ORIGIN LEVEL: 0

PSCL2 TOTAL     ACCESS:     112389  HIT:      92191  MISS:      20198  HIT %:    82.0285  MISS %:    17.9715   MPKI: 0.10099
PSCL2 LOAD TRANSLATION ACCESS:      87569  HIT:      67371  MISS:      20198  HIT %:    76.9348  MISS %:    23.0652   MPKI: 0.10099
PSCL2 TRANSLATION FROM L1D PREFETCHER ACCESS:      24820  HIT:      24820  MISS:          0  HIT %:        100  MISS %:          0   MPKI: 0
PSCL2 PREFETCH  REQUESTED:          0  ISSUED:          0  USEFUL:          0  USELESS:          0
PSCL2 USEFUL LOAD PREFETCHES:          0 PREFETCH ISSUED TO LOWER LEVEL:          0  ACCURACY: -nan
PSCL2 TIMELY PREFETCHES:          0 LATE PREFETCHES: 0 DROPPED PREFETCHES: 0
PSCL2 PREFETCHES SAME FILL-ORIGIN LEVEL: 0 DIFFERENT FILL-ORIGIN LEVEL: 0

LLC TOTAL     ACCESS:    1786231  HIT:     432569  MISS:    1353662  HIT %:    24.2169  MISS %:    75.7831   MPKI: 6.76831
LLC LOAD      ACCESS:    1171473  HIT:     247563  MISS:     923910  HIT %:    21.1326  MISS %:    78.8674   MPKI: 4.61955
LLC RFO       ACCESS:      70833  HIT:      15622  MISS:      55211  HIT %:    22.0547  MISS %:    77.9453   MPKI: 0.276055
LLC PREFETCH  ACCESS:     317814  HIT:      17559  MISS:     300255  HIT %:    5.52493  MISS %:    94.4751   MPKI: 1.50127
AGUS PREFETCH L1 MISS: 0
LLC WRITEBACK ACCESS:     177045  HIT:     132174  MISS:      44871  HIT %:    74.6556  MISS %:    25.3444   MPKI: 0.224355
LLC LOAD TRANSLATION ACCESS:      47133  HIT:      19294  MISS:      27839  HIT %:    40.9352  MISS %:    59.0648   MPKI: 0.139195
LLC TRANSLATION FROM L1D PREFETCHER ACCESS:       1933  HIT:        357  MISS:       1576  HIT %:    18.4687  MISS %:    81.5313   MPKI: 0.00788
LLC PREFETCH  REQUESTED:          0  ISSUED:          0  USEFUL:       2596  USELESS:     300637
LLC USEFUL LOAD PREFETCHES:       2596 PREFETCH ISSUED TO LOWER LEVEL:     300255  ACCURACY: 0.864598
LLC TIMELY PREFETCHES:       2596 LATE PREFETCHES: 0 DROPPED PREFETCHES: 0
LLC PREFETCHES SAME FILL-ORIGIN LEVEL: 0 DIFFERENT FILL-ORIGIN LEVEL: 0
LLC AVERAGE MISS LATENCY: 114.333 cycles
LLC RQ	ACCESS:    1291372	FORWARD:          0	MERGED:          0	TO_CACHE:    1291372
LLC WQ	ACCESS:     177045	FORWARD:          1	MERGED:          0	TO_CACHE:     177045
LLC PQ	ACCESS:     317815	FORWARD:          0	MERGED:          0	TO_CACHE:     317814

LLC Dense regions hint to LLC: 0

RAW hits: 7076917
Loads Generated: 66076024
Loads sent to L1D: 58999103
Stores Generated: 18280128
Stores sent to L1D: 18280129
Major fault: 0 Minor fault: 9438
Allocated PAGES: 9438
CPU 0 L1d next line prefetcher final stats

DRAM Statistics
 CHANNEL 0
 RQ ROW_BUFFER_HIT:     753633  ROW_BUFFER_MISS:     555156
 DBUS_CONGESTED:        923
 WQ ROW_BUFFER_HIT:      64037  ROW_BUFFER_MISS:      69194  FULL:          0

 AVG_CONGESTED_CYCLE: 4
 All warmup complete: 2
Channel 0 Bank busy for read cycles: 0
Channel 0 Bank busy for write cycles: 0
Channel 0
Rank 0
0banks busy for read cycles: 444990686
0banks busy for write cycles: 57695
1banks busy for read cycles: 64421951
1banks busy for write cycles: 10822794
2banks busy for read cycles: 18963176
2banks busy for write cycles: 2818942
3banks busy for read cycles: 4214692
3banks busy for write cycles: 1123931
4banks busy for read cycles: 624925
4banks busy for write cycles: 615133
5banks busy for read cycles: 169221
5banks busy for write cycles: 468925
6banks busy for read cycles: 107763
6banks busy for write cycles: 558343
7banks busy for read cycles: 102887
7banks busy for write cycles: 801395
8banks busy for read cycles: 160995
8banks busy for write cycles: 1597300

CPU 0 Branch Prediction Accuracy: 99.6511% MPKI: 0.819515 Average ROB Occupancy at Mispredict: 29.3985
Branch types
NOT_BRANCH: 153025148 76.5126%
BRANCH_DIRECT_JUMP: 1846529 0.923265%
BRANCH_INDIRECT: 24302767 12.1514%
BRANCH_CONDITIONAL: 15487960 7.74398%
BRANCH_DIRECT_CALL: 2098552 1.04928%
BRANCH_INDIRECT_CALL: 567787 0.283894%
BRANCH_RETURN: 2671000 1.3355%
BRANCH_OTHER: 0 0%

DRAM PAGES: 1048576
Allocated PAGES: 9438
