
*** ChampSim Multicore Out-of-Order Simulator ***

Warmup Instructions: 50000000
Simulation Instructions: 200000000
Number of CPUs: 1
LLC sets: 2048
LLC ways: 16
Off-chip DRAM Size: 4096 MB Channels: 1 Width: 64-bit Data Rate: 6400 MT/s
CPU 0 runs traces/spec2k17/srv_64.champsimtrace.xz
.xz
BTB has LRU replacement policy
ITLB has LRU replacement policy
DTLB has LRU replacement policy
STLB has LRU replacement policy
L1I has LRU replacement policy
CPU 0 L2C next line prefetcher
L1D has LRU replacement policy
Initialize SRRIP state for L2C
Initialize DRRIP state for LLC
Heartbeat CPU 0 instructions: 10000003 cycles: 2762992 heartbeat IPC: 3.61927 cumulative IPC: 3.61927 (Simulation time: 0 hr 0 min 39 sec) 
Heartbeat CPU 0 instructions: 20000001 cycles: 5522771 heartbeat IPC: 3.62348 cumulative IPC: 3.62137 (Simulation time: 0 hr 1 min 19 sec) 
Heartbeat CPU 0 instructions: 30000000 cycles: 8282546 heartbeat IPC: 3.62348 cumulative IPC: 3.62207 (Simulation time: 0 hr 1 min 57 sec) 
*** Reached end of trace for Core: 0 Repeating trace: traces/spec2k17/srv_64.champsimtrace.xz
Heartbeat CPU 0 instructions: 40000003 cycles: 11040513 heartbeat IPC: 3.62586 cumulative IPC: 3.62302 (Simulation time: 0 hr 2 min 35 sec) 
Heartbeat CPU 0 instructions: 50000001 cycles: 13798888 heartbeat IPC: 3.62532 cumulative IPC: 3.62348 (Simulation time: 0 hr 3 min 13 sec) 

Warmup complete CPU 0 instructions: 50000001 cycles: 13798888 (Simulation time: 0 hr 3 min 13 sec) 

Heartbeat CPU 0 instructions: 60000000 cycles: 35624515 heartbeat IPC: 0.458177 cumulative IPC: 0.458177 (Simulation time: 0 hr 4 min 16 sec) 
*** Reached end of trace for Core: 0 Repeating trace: traces/spec2k17/srv_64.champsimtrace.xz
Heartbeat CPU 0 instructions: 70000001 cycles: 57168678 heartbeat IPC: 0.464163 cumulative IPC: 0.46115 (Simulation time: 0 hr 5 min 19 sec) 
Heartbeat CPU 0 instructions: 80000002 cycles: 78422191 heartbeat IPC: 0.470511 cumulative IPC: 0.464229 (Simulation time: 0 hr 6 min 22 sec) 
Heartbeat CPU 0 instructions: 90000000 cycles: 100239052 heartbeat IPC: 0.458361 cumulative IPC: 0.462748 (Simulation time: 0 hr 7 min 26 sec) 
*** Reached end of trace for Core: 0 Repeating trace: traces/spec2k17/srv_64.champsimtrace.xz
Heartbeat CPU 0 instructions: 100000002 cycles: 121897743 heartbeat IPC: 0.461709 cumulative IPC: 0.46254 (Simulation time: 0 hr 8 min 30 sec) 
Heartbeat CPU 0 instructions: 110000000 cycles: 143183696 heartbeat IPC: 0.469793 cumulative IPC: 0.463733 (Simulation time: 0 hr 9 min 32 sec) 
Heartbeat CPU 0 instructions: 120000000 cycles: 164872183 heartbeat IPC: 0.461074 cumulative IPC: 0.463351 (Simulation time: 0 hr 10 min 34 sec) 
*** Reached end of trace for Core: 0 Repeating trace: traces/spec2k17/srv_64.champsimtrace.xz
Heartbeat CPU 0 instructions: 130000003 cycles: 186454941 heartbeat IPC: 0.463333 cumulative IPC: 0.463349 (Simulation time: 0 hr 11 min 37 sec) 
Heartbeat CPU 0 instructions: 140000003 cycles: 207676232 heartbeat IPC: 0.471225 cumulative IPC: 0.464211 (Simulation time: 0 hr 12 min 39 sec) 
Heartbeat CPU 0 instructions: 150000000 cycles: 229461264 heartbeat IPC: 0.459031 cumulative IPC: 0.463688 (Simulation time: 0 hr 13 min 42 sec) 
*** Reached end of trace for Core: 0 Repeating trace: traces/spec2k17/srv_64.champsimtrace.xz
Heartbeat CPU 0 instructions: 160000003 cycles: 251029582 heartbeat IPC: 0.463643 cumulative IPC: 0.463684 (Simulation time: 0 hr 14 min 45 sec) 
Heartbeat CPU 0 instructions: 170000003 cycles: 272269444 heartbeat IPC: 0.470813 cumulative IPC: 0.46427 (Simulation time: 0 hr 15 min 48 sec) 
Heartbeat CPU 0 instructions: 180000000 cycles: 293933312 heartbeat IPC: 0.461598 cumulative IPC: 0.464063 (Simulation time: 0 hr 16 min 49 sec) 
*** Reached end of trace for Core: 0 Repeating trace: traces/spec2k17/srv_64.champsimtrace.xz
Heartbeat CPU 0 instructions: 190000001 cycles: 315540001 heartbeat IPC: 0.46282 cumulative IPC: 0.463974 (Simulation time: 0 hr 17 min 52 sec) 
Heartbeat CPU 0 instructions: 200000001 cycles: 336932591 heartbeat IPC: 0.467452 cumulative IPC: 0.464204 (Simulation time: 0 hr 18 min 53 sec) 
Heartbeat CPU 0 instructions: 210000002 cycles: 358512601 heartbeat IPC: 0.463392 cumulative IPC: 0.464153 (Simulation time: 0 hr 19 min 57 sec) 
*** Reached end of trace for Core: 0 Repeating trace: traces/spec2k17/srv_64.champsimtrace.xz
Heartbeat CPU 0 instructions: 220000000 cycles: 380263960 heartbeat IPC: 0.459741 cumulative IPC: 0.463891 (Simulation time: 0 hr 21 min 0 sec) 
Heartbeat CPU 0 instructions: 230000002 cycles: 401550101 heartbeat IPC: 0.469789 cumulative IPC: 0.464215 (Simulation time: 0 hr 22 min 5 sec) 
Heartbeat CPU 0 instructions: 240000002 cycles: 422968503 heartbeat IPC: 0.466888 cumulative IPC: 0.464355 (Simulation time: 0 hr 23 min 7 sec) 
*** Reached end of trace for Core: 0 Repeating trace: traces/spec2k17/srv_64.champsimtrace.xz
Heartbeat CPU 0 instructions: 250000002 cycles: 444629191 heartbeat IPC: 0.461666 cumulative IPC: 0.46422 (Simulation time: 0 hr 24 min 10 sec) 
Finished CPU 0 instructions: 200000001 cycles: 430830303 cumulative IPC: 0.46422 (Simulation time: 0 hr 24 min 10 sec) 

ChampSim completed all CPUs

Region of Interest Statistics

CPU 0 cumulative IPC: 0.46422 instructions: 200000001 cycles: 430830303
ITLB TOTAL     ACCESS:   31178415  HIT:   30377655  MISS:     800760  HIT %:    97.4317  MISS %:    2.56832   MPKI: 4.0038
ITLB LOAD TRANSLATION ACCESS:   31178415  HIT:   30377655  MISS:     800760  HIT %:    97.4317  MISS %:    2.56832   MPKI: 4.0038
ITLB PREFETCH  REQUESTED:          0  ISSUED:          0  USEFUL:          0  USELESS:          0
ITLB USEFUL LOAD PREFETCHES:          0 PREFETCH ISSUED TO LOWER LEVEL:          0  ACCURACY: -nan
ITLB TIMELY PREFETCHES:          0 LATE PREFETCHES: 0 DROPPED PREFETCHES: 0
ITLB PREFETCHES SAME FILL-ORIGIN LEVEL: 0 DIFFERENT FILL-ORIGIN LEVEL: 0
ITLB AVERAGE MISS LATENCY: 13.5452 cycles
ITLB RQ	ACCESS:   38101815	FORWARD:          0	MERGED:    6721273	TO_CACHE:   31380542

DTLB TOTAL     ACCESS:   36990512  HIT:   34385661  MISS:    2604851  HIT %:    92.9581  MISS %:    7.04194   MPKI: 13.0243
DTLB LOAD TRANSLATION ACCESS:   36990512  HIT:   34385661  MISS:    2604851  HIT %:    92.9581  MISS %:    7.04194   MPKI: 13.0243
DTLB PREFETCH  REQUESTED:          0  ISSUED:          0  USEFUL:          0  USELESS:          0
DTLB USEFUL LOAD PREFETCHES:          0 PREFETCH ISSUED TO LOWER LEVEL:          0  ACCURACY: -nan
DTLB TIMELY PREFETCHES:          0 LATE PREFETCHES: 0 DROPPED PREFETCHES: 0
DTLB PREFETCHES SAME FILL-ORIGIN LEVEL: 0 DIFFERENT FILL-ORIGIN LEVEL: 0
DTLB AVERAGE MISS LATENCY: 13.5161 cycles
DTLB RQ	ACCESS:   47364414	FORWARD:          0	MERGED:   10227226	TO_CACHE:   37137188

STLB TOTAL     ACCESS:    3908258  HIT:    3588188  MISS:     320070  HIT %:    91.8104  MISS %:    8.18958   MPKI: 1.60035
STLB LOAD TRANSLATION ACCESS:    3405610  HIT:    3086750  MISS:     318860  HIT %:    90.6372  MISS %:    9.36279   MPKI: 1.5943
STLB TRANSLATION FROM L1D PREFETCHER ACCESS:     502648  HIT:     501438  MISS:       1210  HIT %:    99.7593  MISS %:   0.240725   MPKI: 0.00605
STLB PREFETCH  REQUESTED:          0  ISSUED:          0  USEFUL:       1113  USELESS:         97
STLB USEFUL LOAD PREFETCHES:       1113 PREFETCH ISSUED TO LOWER LEVEL:          0  ACCURACY: inf
STLB TIMELY PREFETCHES:       1113 LATE PREFETCHES: 39 DROPPED PREFETCHES: 5071
STLB PREFETCHES SAME FILL-ORIGIN LEVEL: 0 DIFFERENT FILL-ORIGIN LEVEL: 0
STLB AVERAGE MISS LATENCY: 47.9729 cycles
STLB RQ	ACCESS:    3991431	FORWARD:          0	MERGED:      77858	TO_CACHE:    3913573

STLB Hit, L1D data hit: 0
STLB Hit, L2C data hit: 0
STLB Hit, LLC data hit: 0
STLB Hit, LLC data miss: 0
STLB STLB hints to L2: 0
L1D TOTAL     ACCESS:   47313193  HIT:   44562184  MISS:    2751009  HIT %:    94.1855  MISS %:    5.81446   MPKI: 13.755
L1D LOAD      ACCESS:   27410789  HIT:   25366545  MISS:    2044244  HIT %:    92.5422  MISS %:    7.45781   MPKI: 10.2212
L1D RFO       ACCESS:   19425630  HIT:   19100612  MISS:     325018  HIT %:    98.3269  MISS %:    1.67314   MPKI: 1.62509
L1D PREFETCH  ACCESS:     476774  HIT:      95027  MISS:     381747  HIT %:    19.9312  MISS %:    80.0688   MPKI: 1.90873
AGUS PREFETCH L1 MISS: 0
L1D PREFETCH  REQUESTED:    1179624  ISSUED:    1179624  USEFUL:     141494  USELESS:     240250
L1D USEFUL LOAD PREFETCHES:     141494 PREFETCH ISSUED TO LOWER LEVEL:     394585  ACCURACY: 35.8589
L1D TIMELY PREFETCHES:     141494 LATE PREFETCHES: 11723 DROPPED PREFETCHES: 5863
L1D PREFETCHES SAME FILL-ORIGIN LEVEL: 394585 DIFFERENT FILL-ORIGIN LEVEL: 0
L1D AVERAGE MISS LATENCY: 1.06907e+06 cycles
L1D RQ	ACCESS:   41987035	FORWARD:          0	MERGED:   14231049	TO_CACHE:   27533715
L1D WQ	ACCESS:   20142213	FORWARD:     222685	MERGED:     311514	TO_CACHE:   19830699
L1D PQ	ACCESS:     593803	FORWARD:          0	MERGED:       7568	TO_CACHE:     585821

L1D UNIQUE REGIONS ACCESSED: 0
L1D REGIONS CONFLICTS: 0
L1D Cross Page Prefetch Requests: 18546
L1D Same Page Prefetch Requests: 730728
L1D ROI Sum of L1D PQ occupancy: 7947155
L1D PREFETCHES PUSHED FROM L2C: 0
L1I TOTAL     ACCESS:   36265658  HIT:   31137982  MISS:    5127676  HIT %:    85.8608  MISS %:    14.1392   MPKI: 25.6384
L1I LOAD      ACCESS:   36265658  HIT:   31137982  MISS:    5127676  HIT %:    85.8608  MISS %:    14.1392   MPKI: 25.6384
L1I PREFETCH  REQUESTED:          0  ISSUED:          0  USEFUL:          0  USELESS:          0
L1I USEFUL LOAD PREFETCHES:          0 PREFETCH ISSUED TO LOWER LEVEL:          0  ACCURACY: -nan
L1I TIMELY PREFETCHES:          0 LATE PREFETCHES: 0 DROPPED PREFETCHES: 0
L1I PREFETCHES SAME FILL-ORIGIN LEVEL: 0 DIFFERENT FILL-ORIGIN LEVEL: 0
L1I AVERAGE MISS LATENCY: 24.9613 cycles
L1I RQ	ACCESS:   57093439	FORWARD:          0	MERGED:   18991624	TO_CACHE:   38101815

BTB TOTAL     ACCESS:   22126813  HIT:   17903550  MISS:    4223263  HIT %:    80.9134  MISS %:    19.0866   MPKI: 21.1163
BTB BRANCH_DIRECT_JUMP	ACCESS:    1749818  HIT:    1515945  MISS:     233873
BTB BRANCH_INDIRECT	ACCESS:    9526517  HIT:    7477995  MISS:    2048522
BTB BRANCH_CONDITIONAL	ACCESS:    4523779  HIT:    4140505  MISS:     383274
BTB BRANCH_DIRECT_CALL	ACCESS:    2479596  HIT:    2022582  MISS:     457014
BTB BRANCH_INDIRECT_CALL	ACCESS:     683372  HIT:     643593  MISS:      39779
BTB BRANCH_RETURN	ACCESS:    3163731  HIT:    2102930  MISS:    1060801
BTB BRANCH_OTHER ACCESS:          0  HIT:          0  MISS:          0

L2C TOTAL     ACCESS:    9340934  HIT:    6064369  MISS:    3276565  HIT %:    64.9225  MISS %:    35.0775   MPKI: 16.3828
L2C LOAD      ACCESS:    7160087  HIT:    4486443  MISS:    2673644  HIT %:    62.6591  MISS %:    37.3409   MPKI: 13.3682
L2C DATA LOAD MPKI: 4.23914
L2C INSTRUCTION LOAD MPKI: 9.12908
L2C RFO       ACCESS:     323900  HIT:     175463  MISS:     148437  HIT %:     54.172  MISS %:     45.828   MPKI: 0.742185
L2C PREFETCH  ACCESS:     394585  HIT:     177871  MISS:     216714  HIT %:     45.078  MISS %:     54.922   MPKI: 1.08357
AGUS PREFETCH L1 MISS: 0
L2C DATA PREFETCH MPKI: 1.08357
L2C INSTRUCTION PREFETCH MPKI: 0
L2C WRITEBACK ACCESS:    1030153  HIT:     975516  MISS:      54637  HIT %:    94.6962  MISS %:    5.30378   MPKI: 0.273185
L2C LOAD TRANSLATION ACCESS:     423189  HIT:     243065  MISS:     180124  HIT %:    57.4365  MISS %:    42.5635   MPKI: 0.90062
L2C TRANSLATION FROM L1D PREFETCHER ACCESS:       9020  HIT:       6011  MISS:       3009  HIT %:    66.6408  MISS %:    33.3592   MPKI: 0.015045
L2C PREFETCH  REQUESTED:          0  ISSUED:          0  USEFUL:      17318  USELESS:     202415
L2C USEFUL LOAD PREFETCHES:      17318 PREFETCH ISSUED TO LOWER LEVEL:     216714  ACCURACY: 7.99118
L2C TIMELY PREFETCHES:      17318 LATE PREFETCHES: 0 DROPPED PREFETCHES: 0
L2C PREFETCHES SAME FILL-ORIGIN LEVEL: 0 DIFFERENT FILL-ORIGIN LEVEL: 0
L2C AVERAGE MISS LATENCY: 43.8432 cycles
L2C RQ	ACCESS:    7916309	FORWARD:          0	MERGED:          0	TO_CACHE:    7916196
L2C WQ	ACCESS:    1030153	FORWARD:        113	MERGED:          0	TO_CACHE:    1030153
L2C PQ	ACCESS:     394585	FORWARD:          0	MERGED:          0	TO_CACHE:     394585

L2C Instructions Evicting Data 693635
L2C Translations Evicting Data 71445
L2C Data Evicting Data 481711
L2C Instructions Evicting Instructions 1029878
L2C Translations Evicting Instructions 102198
L2C Data Evicting Instructions 662766
L2C Instructions Evicting Translations 102303
L2C Translations Evicting Translations 9490
L2C Data Evicting Translations 68502
L2C Dense regions hint from L2: 0
PSCL5 TOTAL     ACCESS:     325141  HIT:     325141  MISS:          0  HIT %:        100  MISS %:          0   MPKI: 0
PSCL5 LOAD TRANSLATION ACCESS:     318821  HIT:     318821  MISS:          0  HIT %:        100  MISS %:          0   MPKI: 0
PSCL5 TRANSLATION FROM L1D PREFETCHER ACCESS:       6320  HIT:       6320  MISS:          0  HIT %:        100  MISS %:          0   MPKI: 0
PSCL5 PREFETCH  REQUESTED:          0  ISSUED:          0  USEFUL:          0  USELESS:          0
PSCL5 USEFUL LOAD PREFETCHES:          0 PREFETCH ISSUED TO LOWER LEVEL:          0  ACCURACY: -nan
PSCL5 TIMELY PREFETCHES:          0 LATE PREFETCHES: 0 DROPPED PREFETCHES: 0
PSCL5 PREFETCHES SAME FILL-ORIGIN LEVEL: 0 DIFFERENT FILL-ORIGIN LEVEL: 0

PSCL4 TOTAL     ACCESS:     317524  HIT:     315990  MISS:       1534  HIT %:    99.5169  MISS %:   0.483113   MPKI: 0.00767
PSCL4 LOAD TRANSLATION ACCESS:     312645  HIT:     311111  MISS:       1534  HIT %:    99.5093  MISS %:   0.490652   MPKI: 0.00767
PSCL4 TRANSLATION FROM L1D PREFETCHER ACCESS:       4879  HIT:       4879  MISS:          0  HIT %:        100  MISS %:          0   MPKI: 0
PSCL4 PREFETCH  REQUESTED:          0  ISSUED:          0  USEFUL:          0  USELESS:          0
PSCL4 USEFUL LOAD PREFETCHES:          0 PREFETCH ISSUED TO LOWER LEVEL:          0  ACCURACY: -nan
PSCL4 TIMELY PREFETCHES:          0 LATE PREFETCHES: 0 DROPPED PREFETCHES: 0
PSCL4 PREFETCHES SAME FILL-ORIGIN LEVEL: 0 DIFFERENT FILL-ORIGIN LEVEL: 0

PSCL3 TOTAL     ACCESS:     324122  HIT:     322588  MISS:       1534  HIT %:    99.5267  MISS %:   0.473279   MPKI: 0.00767
PSCL3 LOAD TRANSLATION ACCESS:     317807  HIT:     316273  MISS:       1534  HIT %:    99.5173  MISS %:   0.482683   MPKI: 0.00767
PSCL3 TRANSLATION FROM L1D PREFETCHER ACCESS:       6315  HIT:       6315  MISS:          0  HIT %:        100  MISS %:          0   MPKI: 0
PSCL3 PREFETCH  REQUESTED:          0  ISSUED:          0  USEFUL:          0  USELESS:          0
PSCL3 USEFUL LOAD PREFETCHES:          0 PREFETCH ISSUED TO LOWER LEVEL:          0  ACCURACY: -nan
PSCL3 TIMELY PREFETCHES:          0 LATE PREFETCHES: 0 DROPPED PREFETCHES: 0
PSCL3 PREFETCHES SAME FILL-ORIGIN LEVEL: 0 DIFFERENT FILL-ORIGIN LEVEL: 0

PSCL2 TOTAL     ACCESS:     322754  HIT:     221141  MISS:     101613  HIT %:    68.5169  MISS %:    31.4831   MPKI: 0.508065
PSCL2 LOAD TRANSLATION ACCESS:     319124  HIT:     217511  MISS:     101613  HIT %:    68.1588  MISS %:    31.8412   MPKI: 0.508065
PSCL2 TRANSLATION FROM L1D PREFETCHER ACCESS:       3630  HIT:       3630  MISS:          0  HIT %:        100  MISS %:          0   MPKI: 0
PSCL2 PREFETCH  REQUESTED:          0  ISSUED:          0  USEFUL:          0  USELESS:          0
PSCL2 USEFUL LOAD PREFETCHES:          0 PREFETCH ISSUED TO LOWER LEVEL:          0  ACCURACY: -nan
PSCL2 TIMELY PREFETCHES:          0 LATE PREFETCHES: 0 DROPPED PREFETCHES: 0
PSCL2 PREFETCHES SAME FILL-ORIGIN LEVEL: 0 DIFFERENT FILL-ORIGIN LEVEL: 0

LLC TOTAL     ACCESS:    3664446  HIT:    3352778  MISS:     311668  HIT %:    91.4948  MISS %:    8.50519   MPKI: 1.55834
LLC LOAD      ACCESS:    2673636  HIT:    2473436  MISS:     200200  HIT %:    92.5121  MISS %:    7.48793   MPKI: 1.001
LLC RFO       ACCESS:     148434  HIT:     101384  MISS:      47050  HIT %:    68.3024  MISS %:    31.6976   MPKI: 0.23525
LLC PREFETCH  ACCESS:     216714  HIT:     165568  MISS:      51146  HIT %:    76.3993  MISS %:    23.6007   MPKI: 0.25573
AGUS PREFETCH L1 MISS: 0
LLC WRITEBACK ACCESS:     442529  HIT:     440481  MISS:       2048  HIT %:    99.5372  MISS %:   0.462795   MPKI: 0.01024
LLC LOAD TRANSLATION ACCESS:     180124  HIT:     168962  MISS:      11162  HIT %:    93.8032  MISS %:    6.19684   MPKI: 0.05581
LLC TRANSLATION FROM L1D PREFETCHER ACCESS:       3009  HIT:       2947  MISS:         62  HIT %:    97.9395  MISS %:    2.06049   MPKI: 0.00031
LLC PREFETCH  REQUESTED:          0  ISSUED:          0  USEFUL:       2379  USELESS:      49189
LLC USEFUL LOAD PREFETCHES:       2379 PREFETCH ISSUED TO LOWER LEVEL:      51146  ACCURACY: 4.65139
LLC TIMELY PREFETCHES:       2379 LATE PREFETCHES: 0 DROPPED PREFETCHES: 0
LLC PREFETCHES SAME FILL-ORIGIN LEVEL: 0 DIFFERENT FILL-ORIGIN LEVEL: 0
LLC AVERAGE MISS LATENCY: 150.789 cycles
LLC RQ	ACCESS:    3005214	FORWARD:          0	MERGED:          0	TO_CACHE:    3005203
LLC WQ	ACCESS:     442529	FORWARD:         11	MERGED:          0	TO_CACHE:     442529
LLC PQ	ACCESS:     216714	FORWARD:          0	MERGED:          0	TO_CACHE:     216714

LLC Dense regions hint to LLC: 0

RAW hits: 2822276
Loads Generated: 44809311
Loads sent to L1D: 41987035
Stores Generated: 20142201
Stores sent to L1D: 20142213
Major fault: 0 Minor fault: 5806
Allocated PAGES: 5806
CPU 0 L1d next line prefetcher final stats

DRAM Statistics
 CHANNEL 0
 RQ ROW_BUFFER_HIT:      63308  ROW_BUFFER_MISS:     246312
 DBUS_CONGESTED:        193
 WQ ROW_BUFFER_HIT:      26119  ROW_BUFFER_MISS:     190588  FULL:          0

 AVG_CONGESTED_CYCLE: 4
 All warmup complete: 2
Channel 0 Bank busy for read cycles: 0
Channel 0 Bank busy for write cycles: 0
Channel 0
Rank 0
0banks busy for read cycles: 378727415
0banks busy for write cycles: 110272
1banks busy for read cycles: 22397085
1banks busy for write cycles: 14006561
2banks busy for read cycles: 5659843
2banks busy for write cycles: 4464437
3banks busy for read cycles: 1071518
3banks busy for write cycles: 1580713
4banks busy for read cycles: 314487
4banks busy for write cycles: 816821
5banks busy for read cycles: 119741
5banks busy for write cycles: 502970
6banks busy for read cycles: 73134
6banks busy for write cycles: 344446
7banks busy for read cycles: 50770
7banks busy for write cycles: 268632
8banks busy for read cycles: 66381
8banks busy for write cycles: 255078

CPU 0 Branch Prediction Accuracy: 99.8723% MPKI: 0.229165 Average ROB Occupancy at Mispredict: 57.7228
Branch types
NOT_BRANCH: 164119051 82.0595%
BRANCH_DIRECT_JUMP: 1749818 0.874909%
BRANCH_INDIRECT: 9526517 4.76326%
BRANCH_CONDITIONAL: 18277793 9.1389%
BRANCH_DIRECT_CALL: 2479596 1.2398%
BRANCH_INDIRECT_CALL: 683372 0.341686%
BRANCH_RETURN: 3163731 1.58187%
BRANCH_OTHER: 0 0%

DRAM PAGES: 1048576
Allocated PAGES: 5806
