
*** ChampSim Multicore Out-of-Order Simulator ***

Warmup Instructions: 50000000
Simulation Instructions: 200000000
Number of CPUs: 1
LLC sets: 2048
LLC ways: 16
Off-chip DRAM Size: 4096 MB Channels: 1 Width: 64-bit Data Rate: 6400 MT/s
CPU 0 runs traces/spec2k17/srv_12.champsimtrace.xz
.xz
BTB has LRU replacement policy
ITLB has LRU replacement policy
DTLB has LRU replacement policy
STLB has LRU replacement policy
L1I has LRU replacement policy
CPU 0 L2C next line prefetcher
L1D has LRU replacement policy
Initialize SRRIP state for L2C
Initialize DRRIP state for LLC
Heartbeat CPU 0 instructions: 10000002 cycles: 2817871 heartbeat IPC: 3.54878 cumulative IPC: 3.54878 (Simulation time: 0 hr 0 min 39 sec) 
Heartbeat CPU 0 instructions: 20000001 cycles: 5631091 heartbeat IPC: 3.55465 cumulative IPC: 3.55171 (Simulation time: 0 hr 1 min 18 sec) 
Heartbeat CPU 0 instructions: 30000002 cycles: 8442004 heartbeat IPC: 3.55756 cumulative IPC: 3.55366 (Simulation time: 0 hr 1 min 57 sec) 
*** Reached end of trace for Core: 0 Repeating trace: traces/spec2k17/srv_12.champsimtrace.xz
Heartbeat CPU 0 instructions: 40000001 cycles: 11253072 heartbeat IPC: 3.55737 cumulative IPC: 3.55458 (Simulation time: 0 hr 2 min 36 sec) 
Heartbeat CPU 0 instructions: 50000000 cycles: 14065407 heartbeat IPC: 3.55576 cumulative IPC: 3.55482 (Simulation time: 0 hr 3 min 15 sec) 

Warmup complete CPU 0 instructions: 50000004 cycles: 14065408 (Simulation time: 0 hr 3 min 15 sec) 

Heartbeat CPU 0 instructions: 60000001 cycles: 44361760 heartbeat IPC: 0.330073 cumulative IPC: 0.330073 (Simulation time: 0 hr 4 min 23 sec) 
*** Reached end of trace for Core: 0 Repeating trace: traces/spec2k17/srv_12.champsimtrace.xz
Heartbeat CPU 0 instructions: 70000000 cycles: 74821432 heartbeat IPC: 0.328303 cumulative IPC: 0.329185 (Simulation time: 0 hr 5 min 29 sec) 
Heartbeat CPU 0 instructions: 80000001 cycles: 105133719 heartbeat IPC: 0.329899 cumulative IPC: 0.329423 (Simulation time: 0 hr 6 min 36 sec) 
Heartbeat CPU 0 instructions: 90000003 cycles: 135481171 heartbeat IPC: 0.329517 cumulative IPC: 0.329446 (Simulation time: 0 hr 7 min 45 sec) 
*** Reached end of trace for Core: 0 Repeating trace: traces/spec2k17/srv_12.champsimtrace.xz
Heartbeat CPU 0 instructions: 100000000 cycles: 166117018 heartbeat IPC: 0.326415 cumulative IPC: 0.328836 (Simulation time: 0 hr 8 min 54 sec) 
Heartbeat CPU 0 instructions: 110000000 cycles: 196468740 heartbeat IPC: 0.329471 cumulative IPC: 0.328941 (Simulation time: 0 hr 10 min 2 sec) 
Heartbeat CPU 0 instructions: 120000003 cycles: 226478047 heartbeat IPC: 0.33323 cumulative IPC: 0.329547 (Simulation time: 0 hr 11 min 6 sec) 
*** Reached end of trace for Core: 0 Repeating trace: traces/spec2k17/srv_12.champsimtrace.xz
Heartbeat CPU 0 instructions: 130000003 cycles: 257201444 heartbeat IPC: 0.325485 cumulative IPC: 0.329034 (Simulation time: 0 hr 12 min 14 sec) 
Heartbeat CPU 0 instructions: 140000003 cycles: 287565578 heartbeat IPC: 0.329336 cumulative IPC: 0.329067 (Simulation time: 0 hr 13 min 20 sec) 
Heartbeat CPU 0 instructions: 150000001 cycles: 317605093 heartbeat IPC: 0.332895 cumulative IPC: 0.329446 (Simulation time: 0 hr 14 min 21 sec) 
*** Reached end of trace for Core: 0 Repeating trace: traces/spec2k17/srv_12.champsimtrace.xz
Heartbeat CPU 0 instructions: 160000001 cycles: 348144797 heartbeat IPC: 0.327443 cumulative IPC: 0.329263 (Simulation time: 0 hr 15 min 29 sec) 
Heartbeat CPU 0 instructions: 170000001 cycles: 378463842 heartbeat IPC: 0.329826 cumulative IPC: 0.32931 (Simulation time: 0 hr 16 min 35 sec) 
Heartbeat CPU 0 instructions: 180000001 cycles: 408662012 heartbeat IPC: 0.331146 cumulative IPC: 0.32945 (Simulation time: 0 hr 17 min 43 sec) 
*** Reached end of trace for Core: 0 Repeating trace: traces/spec2k17/srv_12.champsimtrace.xz
Heartbeat CPU 0 instructions: 190000002 cycles: 439171724 heartbeat IPC: 0.327765 cumulative IPC: 0.329329 (Simulation time: 0 hr 18 min 52 sec) 
Heartbeat CPU 0 instructions: 200000001 cycles: 469240326 heartbeat IPC: 0.332573 cumulative IPC: 0.329544 (Simulation time: 0 hr 20 min 0 sec) 
Heartbeat CPU 0 instructions: 210000003 cycles: 499530215 heartbeat IPC: 0.330143 cumulative IPC: 0.329581 (Simulation time: 0 hr 21 min 9 sec) 
*** Reached end of trace for Core: 0 Repeating trace: traces/spec2k17/srv_12.champsimtrace.xz
Heartbeat CPU 0 instructions: 220000000 cycles: 530055667 heartbeat IPC: 0.327595 cumulative IPC: 0.329464 (Simulation time: 0 hr 22 min 17 sec) 
Heartbeat CPU 0 instructions: 230000001 cycles: 560362819 heartbeat IPC: 0.329955 cumulative IPC: 0.329491 (Simulation time: 0 hr 23 min 24 sec) 
Heartbeat CPU 0 instructions: 240000000 cycles: 590557992 heartbeat IPC: 0.331179 cumulative IPC: 0.329579 (Simulation time: 0 hr 24 min 30 sec) 
*** Reached end of trace for Core: 0 Repeating trace: traces/spec2k17/srv_12.champsimtrace.xz
Heartbeat CPU 0 instructions: 250000000 cycles: 620864327 heartbeat IPC: 0.329964 cumulative IPC: 0.329598 (Simulation time: 0 hr 25 min 34 sec) 
Finished CPU 0 instructions: 200000002 cycles: 606798923 cumulative IPC: 0.329598 (Simulation time: 0 hr 25 min 34 sec) 

ChampSim completed all CPUs

Region of Interest Statistics

CPU 0 cumulative IPC: 0.329598 instructions: 200000002 cycles: 606798923
ITLB TOTAL     ACCESS:   34560592  HIT:   32662431  MISS:    1898161  HIT %:    94.5077  MISS %:    5.49227   MPKI: 9.4908
ITLB LOAD TRANSLATION ACCESS:   34560592  HIT:   32662431  MISS:    1898161  HIT %:    94.5077  MISS %:    5.49227   MPKI: 9.4908
ITLB PREFETCH  REQUESTED:          0  ISSUED:          0  USEFUL:          0  USELESS:          0
ITLB USEFUL LOAD PREFETCHES:          0 PREFETCH ISSUED TO LOWER LEVEL:          0  ACCURACY: -nan
ITLB TIMELY PREFETCHES:          0 LATE PREFETCHES: 0 DROPPED PREFETCHES: 0
ITLB PREFETCHES SAME FILL-ORIGIN LEVEL: 0 DIFFERENT FILL-ORIGIN LEVEL: 0
ITLB AVERAGE MISS LATENCY: 9.03523 cycles
ITLB RQ	ACCESS:   40436859	FORWARD:          0	MERGED:    5416336	TO_CACHE:   35020523

DTLB TOTAL     ACCESS:   45399009  HIT:   43545143  MISS:    1853866  HIT %:    95.9165  MISS %:    4.08349   MPKI: 9.26933
DTLB LOAD TRANSLATION ACCESS:   45399009  HIT:   43545143  MISS:    1853866  HIT %:    95.9165  MISS %:    4.08349   MPKI: 9.26933
DTLB PREFETCH  REQUESTED:          0  ISSUED:          0  USEFUL:          0  USELESS:          0
DTLB USEFUL LOAD PREFETCHES:          0 PREFETCH ISSUED TO LOWER LEVEL:          0  ACCURACY: -nan
DTLB TIMELY PREFETCHES:          0 LATE PREFETCHES: 0 DROPPED PREFETCHES: 0
DTLB PREFETCHES SAME FILL-ORIGIN LEVEL: 0 DIFFERENT FILL-ORIGIN LEVEL: 0
DTLB AVERAGE MISS LATENCY: 9.18804 cycles
DTLB RQ	ACCESS:   59944292	FORWARD:          0	MERGED:   14482145	TO_CACHE:   45462147

STLB TOTAL     ACCESS:    4574835  HIT:    4565518  MISS:       9317  HIT %:    99.7963  MISS %:   0.203658   MPKI: 0.046585
STLB LOAD TRANSLATION ACCESS:    3752027  HIT:    3742817  MISS:       9210  HIT %:    99.7545  MISS %:   0.245467   MPKI: 0.04605
STLB TRANSLATION FROM L1D PREFETCHER ACCESS:     822808  HIT:     822701  MISS:        107  HIT %:     99.987  MISS %:  0.0130042   MPKI: 0.000535
STLB PREFETCH  REQUESTED:          0  ISSUED:          0  USEFUL:         89  USELESS:         18
STLB USEFUL LOAD PREFETCHES:         89 PREFETCH ISSUED TO LOWER LEVEL:          0  ACCURACY: inf
STLB TIMELY PREFETCHES:         89 LATE PREFETCHES: 130 DROPPED PREFETCHES: 3006
STLB PREFETCHES SAME FILL-ORIGIN LEVEL: 0 DIFFERENT FILL-ORIGIN LEVEL: 0
STLB AVERAGE MISS LATENCY: 502057 cycles
STLB RQ	ACCESS:    4751486	FORWARD:          0	MERGED:     173034	TO_CACHE:    4578452

STLB Hit, L1D data hit: 0
STLB Hit, L2C data hit: 0
STLB Hit, LLC data hit: 0
STLB Hit, LLC data miss: 0
STLB STLB hints to L2: 0
L1D TOTAL     ACCESS:   58764508  HIT:   54402797  MISS:    4361711  HIT %:    92.5776  MISS %:    7.42236   MPKI: 21.8086
L1D LOAD      ACCESS:   33626371  HIT:   30806856  MISS:    2819515  HIT %:    91.6152  MISS %:    8.38483   MPKI: 14.0976
L1D RFO       ACCESS:   24537762  HIT:   23442793  MISS:    1094969  HIT %:    95.5376  MISS %:    4.46238   MPKI: 5.47484
L1D PREFETCH  ACCESS:     600375  HIT:     153148  MISS:     447227  HIT %:    25.5087  MISS %:    74.4913   MPKI: 2.23613
AGUS PREFETCH L1 MISS: 0
L1D PREFETCH  REQUESTED:    2017721  ISSUED:    2017721  USEFUL:     164390  USELESS:     282835
L1D USEFUL LOAD PREFETCHES:     164390 PREFETCH ISSUED TO LOWER LEVEL:     675710  ACCURACY: 24.3285
L1D TIMELY PREFETCHES:     164390 LATE PREFETCHES: 228399 DROPPED PREFETCHES: 3451
L1D PREFETCHES SAME FILL-ORIGIN LEVEL: 675710 DIFFERENT FILL-ORIGIN LEVEL: 0
L1D AVERAGE MISS LATENCY: 1.68638e+07 cycles
L1D RQ	ACCESS:   46852384	FORWARD:          0	MERGED:   12817464	TO_CACHE:   33738217
L1D WQ	ACCESS:   26377432	FORWARD:     296714	MERGED:     171357	TO_CACHE:   26206075
L1D PQ	ACCESS:    1018262	FORWARD:          0	MERGED:      18792	TO_CACHE:     999459

L1D UNIQUE REGIONS ACCESSED: 0
L1D REGIONS CONFLICTS: 0
L1D Cross Page Prefetch Requests: 20600
L1D Same Page Prefetch Requests: 1240709
L1D ROI Sum of L1D PQ occupancy: 12738884
L1D PREFETCHES PUSHED FROM L2C: 0
L1I TOTAL     ACCESS:   38993548  HIT:   29090584  MISS:    9902964  HIT %:    74.6036  MISS %:    25.3964   MPKI: 49.5148
L1I LOAD      ACCESS:   38993548  HIT:   29090584  MISS:    9902964  HIT %:    74.6036  MISS %:    25.3964   MPKI: 49.5148
L1I PREFETCH  REQUESTED:          0  ISSUED:          0  USEFUL:          0  USELESS:          0
L1I USEFUL LOAD PREFETCHES:          0 PREFETCH ISSUED TO LOWER LEVEL:          0  ACCURACY: -nan
L1I TIMELY PREFETCHES:          0 LATE PREFETCHES: 0 DROPPED PREFETCHES: 0
L1I PREFETCHES SAME FILL-ORIGIN LEVEL: 0 DIFFERENT FILL-ORIGIN LEVEL: 0
L1I AVERAGE MISS LATENCY: 16.7708 cycles
L1I RQ	ACCESS:   57846474	FORWARD:          0	MERGED:   17409615	TO_CACHE:   40436859

BTB TOTAL     ACCESS:   30343267  HIT:   18703041  MISS:   11640226  HIT %:    61.6382  MISS %:    38.3618   MPKI: 58.2011
BTB BRANCH_DIRECT_JUMP	ACCESS:    2169196  HIT:    1357881  MISS:     811315
BTB BRANCH_INDIRECT	ACCESS:   11477795  HIT:    7107158  MISS:    4370637
BTB BRANCH_CONDITIONAL	ACCESS:    8505201  HIT:    7327634  MISS:    1177567
BTB BRANCH_DIRECT_CALL	ACCESS:    3457228  HIT:    1544444  MISS:    1912784
BTB BRANCH_INDIRECT_CALL	ACCESS:     638342  HIT:     254235  MISS:     384107
BTB BRANCH_RETURN	ACCESS:    4095505  HIT:    1111689  MISS:    2983816
BTB BRANCH_OTHER ACCESS:          0  HIT:          0  MISS:          0

L2C TOTAL     ACCESS:   16180576  HIT:   14566511  MISS:    1614065  HIT %:    90.0247  MISS %:    9.97532   MPKI: 8.07032
L2C LOAD      ACCESS:   12494005  HIT:   11289334  MISS:    1204671  HIT %:     90.358  MISS %:    9.64199   MPKI: 6.02335
L2C DATA LOAD MPKI: 1.59403
L2C INSTRUCTION LOAD MPKI: 4.42932
L2C RFO       ACCESS:    1094883  HIT:     920044  MISS:     174839  HIT %:    84.0313  MISS %:    15.9687   MPKI: 0.874195
L2C PREFETCH  ACCESS:     675710  HIT:     498167  MISS:     177543  HIT %:     73.725  MISS %:     26.275   MPKI: 0.887715
AGUS PREFETCH L1 MISS: 0
L2C DATA PREFETCH MPKI: 0.887715
L2C INSTRUCTION PREFETCH MPKI: 0
L2C WRITEBACK ACCESS:    1900242  HIT:    1851206  MISS:      49036  HIT %:    97.4195  MISS %:    2.58051   MPKI: 0.24518
L2C LOAD TRANSLATION ACCESS:       9732  HIT:       3306  MISS:       6426  HIT %:    33.9704  MISS %:    66.0296   MPKI: 0.03213
L2C TRANSLATION FROM L1D PREFETCHER ACCESS:       6004  HIT:       4454  MISS:       1550  HIT %:    74.1839  MISS %:    25.8161   MPKI: 0.00775
L2C PREFETCH  REQUESTED:          0  ISSUED:          0  USEFUL:      12208  USELESS:     166997
L2C USEFUL LOAD PREFETCHES:      12208 PREFETCH ISSUED TO LOWER LEVEL:     177543  ACCURACY: 6.87608
L2C TIMELY PREFETCHES:      12208 LATE PREFETCHES: 0 DROPPED PREFETCHES: 0
L2C PREFETCHES SAME FILL-ORIGIN LEVEL: 0 DIFFERENT FILL-ORIGIN LEVEL: 0
L2C AVERAGE MISS LATENCY: 31.0269 cycles
L2C RQ	ACCESS:   13604701	FORWARD:          0	MERGED:          0	TO_CACHE:   13604624
L2C WQ	ACCESS:    1900242	FORWARD:         77	MERGED:          0	TO_CACHE:    1900242
L2C PQ	ACCESS:     675710	FORWARD:          0	MERGED:          0	TO_CACHE:     675710

L2C Instructions Evicting Data 353981
L2C Translations Evicting Data 4920
L2C Data Evicting Data 341206
L2C Instructions Evicting Instructions 528950
L2C Translations Evicting Instructions 3003
L2C Data Evicting Instructions 325077
L2C Instructions Evicting Translations 2933
L2C Translations Evicting Translations 53
L2C Data Evicting Translations 4906
L2C Dense regions hint from L2: 0
PSCL5 TOTAL     ACCESS:      12323  HIT:      12323  MISS:          0  HIT %:        100  MISS %:          0   MPKI: 0
PSCL5 LOAD TRANSLATION ACCESS:       9080  HIT:       9080  MISS:          0  HIT %:        100  MISS %:          0   MPKI: 0
PSCL5 TRANSLATION FROM L1D PREFETCHER ACCESS:       3243  HIT:       3243  MISS:          0  HIT %:        100  MISS %:          0   MPKI: 0
PSCL5 PREFETCH  REQUESTED:          0  ISSUED:          0  USEFUL:          0  USELESS:          0
PSCL5 USEFUL LOAD PREFETCHES:          0 PREFETCH ISSUED TO LOWER LEVEL:          0  ACCURACY: -nan
PSCL5 TIMELY PREFETCHES:          0 LATE PREFETCHES: 0 DROPPED PREFETCHES: 0
PSCL5 PREFETCHES SAME FILL-ORIGIN LEVEL: 0 DIFFERENT FILL-ORIGIN LEVEL: 0

PSCL4 TOTAL     ACCESS:      11013  HIT:      10982  MISS:         31  HIT %:    99.7185  MISS %:   0.281486   MPKI: 0.000155
PSCL4 LOAD TRANSLATION ACCESS:       8543  HIT:       8512  MISS:         31  HIT %:    99.6371  MISS %:    0.36287   MPKI: 0.000155
PSCL4 TRANSLATION FROM L1D PREFETCHER ACCESS:       2470  HIT:       2470  MISS:          0  HIT %:        100  MISS %:          0   MPKI: 0
PSCL4 PREFETCH  REQUESTED:          0  ISSUED:          0  USEFUL:          0  USELESS:          0
PSCL4 USEFUL LOAD PREFETCHES:          0 PREFETCH ISSUED TO LOWER LEVEL:          0  ACCURACY: -nan
PSCL4 TIMELY PREFETCHES:          0 LATE PREFETCHES: 0 DROPPED PREFETCHES: 0
PSCL4 PREFETCHES SAME FILL-ORIGIN LEVEL: 0 DIFFERENT FILL-ORIGIN LEVEL: 0

PSCL3 TOTAL     ACCESS:      12311  HIT:      12280  MISS:         31  HIT %:    99.7482  MISS %:   0.251807   MPKI: 0.000155
PSCL3 LOAD TRANSLATION ACCESS:       9068  HIT:       9037  MISS:         31  HIT %:    99.6581  MISS %:   0.341861   MPKI: 0.000155
PSCL3 TRANSLATION FROM L1D PREFETCHER ACCESS:       3243  HIT:       3243  MISS:          0  HIT %:        100  MISS %:          0   MPKI: 0
PSCL3 PREFETCH  REQUESTED:          0  ISSUED:          0  USEFUL:          0  USELESS:          0
PSCL3 USEFUL LOAD PREFETCHES:          0 PREFETCH ISSUED TO LOWER LEVEL:          0  ACCURACY: -nan
PSCL3 TIMELY PREFETCHES:          0 LATE PREFETCHES: 0 DROPPED PREFETCHES: 0
PSCL3 PREFETCHES SAME FILL-ORIGIN LEVEL: 0 DIFFERENT FILL-ORIGIN LEVEL: 0

PSCL2 TOTAL     ACCESS:       9563  HIT:       8972  MISS:        591  HIT %:    93.8199  MISS %:    6.18007   MPKI: 0.002955
PSCL2 LOAD TRANSLATION ACCESS:       9081  HIT:       8490  MISS:        591  HIT %:    93.4919  MISS %:    6.50809   MPKI: 0.002955
PSCL2 TRANSLATION FROM L1D PREFETCHER ACCESS:        482  HIT:        482  MISS:          0  HIT %:        100  MISS %:          0   MPKI: 0
PSCL2 PREFETCH  REQUESTED:          0  ISSUED:          0  USEFUL:          0  USELESS:          0
PSCL2 USEFUL LOAD PREFETCHES:          0 PREFETCH ISSUED TO LOWER LEVEL:          0  ACCURACY: -nan
PSCL2 TIMELY PREFETCHES:          0 LATE PREFETCHES: 0 DROPPED PREFETCHES: 0
PSCL2 PREFETCHES SAME FILL-ORIGIN LEVEL: 0 DIFFERENT FILL-ORIGIN LEVEL: 0

LLC TOTAL     ACCESS:    1821577  HIT:    1799517  MISS:      22060  HIT %:     98.789  MISS %:    1.21104   MPKI: 0.1103
LLC LOAD      ACCESS:    1204671  HIT:    1198341  MISS:       6330  HIT %:    99.4745  MISS %:   0.525455   MPKI: 0.03165
LLC RFO       ACCESS:     174837  HIT:     166695  MISS:       8142  HIT %:    95.3431  MISS %:    4.65691   MPKI: 0.04071
LLC PREFETCH  ACCESS:     177543  HIT:     170162  MISS:       7381  HIT %:    95.8427  MISS %:     4.1573   MPKI: 0.036905
AGUS PREFETCH L1 MISS: 0
LLC WRITEBACK ACCESS:     256550  HIT:     256433  MISS:        117  HIT %:    99.9544  MISS %:  0.0456051   MPKI: 0.000585
LLC LOAD TRANSLATION ACCESS:       6426  HIT:       6341  MISS:         85  HIT %:    98.6772  MISS %:    1.32275   MPKI: 0.000425
LLC TRANSLATION FROM L1D PREFETCHER ACCESS:       1550  HIT:       1545  MISS:          5  HIT %:    99.6774  MISS %:   0.322581   MPKI: 2.5e-05
LLC PREFETCH  REQUESTED:          0  ISSUED:          0  USEFUL:       1805  USELESS:       6187
LLC USEFUL LOAD PREFETCHES:       1805 PREFETCH ISSUED TO LOWER LEVEL:       7381  ACCURACY: 24.4547
LLC TIMELY PREFETCHES:       1805 LATE PREFETCHES: 0 DROPPED PREFETCHES: 0
LLC PREFETCHES SAME FILL-ORIGIN LEVEL: 0 DIFFERENT FILL-ORIGIN LEVEL: 0
LLC AVERAGE MISS LATENCY: 141.804 cycles
LLC RQ	ACCESS:    1387486	FORWARD:          0	MERGED:          0	TO_CACHE:    1387484
LLC WQ	ACCESS:     256550	FORWARD:          2	MERGED:          0	TO_CACHE:     256550
LLC PQ	ACCESS:     177543	FORWARD:          0	MERGED:          0	TO_CACHE:     177543

LLC Dense regions hint to LLC: 0

RAW hits: 1393684
Loads Generated: 48246069
Loads sent to L1D: 46852384
Stores Generated: 26377415
Stores sent to L1D: 26377432
Major fault: 0 Minor fault: 1862
Allocated PAGES: 1862
CPU 0 L1d next line prefetcher final stats

DRAM Statistics
 CHANNEL 0
 RQ ROW_BUFFER_HIT:       6503  ROW_BUFFER_MISS:      15439
 DBUS_CONGESTED:         29
 WQ ROW_BUFFER_HIT:        721  ROW_BUFFER_MISS:       8693  FULL:          0

 AVG_CONGESTED_CYCLE: 5
 All warmup complete: 2
Channel 0 Bank busy for read cycles: 0
Channel 0 Bank busy for write cycles: 0
Channel 0
Rank 0
0banks busy for read cycles: 604390288
0banks busy for write cycles: 4313
1banks busy for read cycles: 1101410
1banks busy for write cycles: 522933
2banks busy for read cycles: 228464
2banks busy for write cycles: 114168
3banks busy for read cycles: 114281
3banks busy for write cycles: 60565
4banks busy for read cycles: 66042
4banks busy for write cycles: 40356
5banks busy for read cycles: 41281
5banks busy for write cycles: 34161
6banks busy for read cycles: 23047
6banks busy for write cycles: 19999
7banks busy for read cycles: 12271
7banks busy for write cycles: 12337
8banks busy for read cycles: 5659
8banks busy for write cycles: 7349

CPU 0 Branch Prediction Accuracy: 99.8469% MPKI: 0.27084 Average ROB Occupancy at Mispredict: 54.4407
Branch types
NOT_BRANCH: 164615244 82.3076%
BRANCH_DIRECT_JUMP: 2169196 1.0846%
BRANCH_INDIRECT: 11477795 5.7389%
BRANCH_CONDITIONAL: 13546570 6.77328%
BRANCH_DIRECT_CALL: 3457228 1.72861%
BRANCH_INDIRECT_CALL: 638342 0.319171%
BRANCH_RETURN: 4095505 2.04775%
BRANCH_OTHER: 0 0%

DRAM PAGES: 1048576
Allocated PAGES: 1862
