
*** ChampSim Multicore Out-of-Order Simulator ***

Warmup Instructions: 50000000
Simulation Instructions: 200000000
Number of CPUs: 1
LLC sets: 2048
LLC ways: 16
Off-chip DRAM Size: 4096 MB Channels: 1 Width: 64-bit Data Rate: 6400 MT/s
CPU 0 runs traces/spec2k17/srv_15.champsimtrace.xz
.xz
BTB has LRU replacement policy
ITLB has LRU replacement policy
DTLB has LRU replacement policy
STLB has LRU replacement policy
L1I has LRU replacement policy
CPU 0 L2C next line prefetcher
L1D has LRU replacement policy
Initialize SRRIP state for L2C
Initialize DRRIP state for LLC
Heartbeat CPU 0 instructions: 10000002 cycles: 2856537 heartbeat IPC: 3.50074 cumulative IPC: 3.50074 (Simulation time: 0 hr 0 min 35 sec) 
Heartbeat CPU 0 instructions: 20000000 cycles: 5702647 heartbeat IPC: 3.51357 cumulative IPC: 3.50714 (Simulation time: 0 hr 1 min 11 sec) 
Heartbeat CPU 0 instructions: 30000000 cycles: 8548971 heartbeat IPC: 3.5133 cumulative IPC: 3.50919 (Simulation time: 0 hr 1 min 48 sec) 
*** Reached end of trace for Core: 0 Repeating trace: traces/spec2k17/srv_15.champsimtrace.xz
Heartbeat CPU 0 instructions: 40000000 cycles: 11399105 heartbeat IPC: 3.50861 cumulative IPC: 3.50905 (Simulation time: 0 hr 2 min 22 sec) 
Heartbeat CPU 0 instructions: 50000001 cycles: 14245306 heartbeat IPC: 3.51346 cumulative IPC: 3.50993 (Simulation time: 0 hr 2 min 58 sec) 

Warmup complete CPU 0 instructions: 50000001 cycles: 14245306 (Simulation time: 0 hr 2 min 58 sec) 

Heartbeat CPU 0 instructions: 60000000 cycles: 46263002 heartbeat IPC: 0.312327 cumulative IPC: 0.312327 (Simulation time: 0 hr 4 min 6 sec) 
*** Reached end of trace for Core: 0 Repeating trace: traces/spec2k17/srv_15.champsimtrace.xz
Heartbeat CPU 0 instructions: 70000000 cycles: 78261013 heartbeat IPC: 0.312519 cumulative IPC: 0.312423 (Simulation time: 0 hr 5 min 13 sec) 
Heartbeat CPU 0 instructions: 80000001 cycles: 110414613 heartbeat IPC: 0.311007 cumulative IPC: 0.31195 (Simulation time: 0 hr 6 min 20 sec) 
Heartbeat CPU 0 instructions: 90000001 cycles: 142222864 heartbeat IPC: 0.314384 cumulative IPC: 0.312555 (Simulation time: 0 hr 7 min 28 sec) 
*** Reached end of trace for Core: 0 Repeating trace: traces/spec2k17/srv_15.champsimtrace.xz
Heartbeat CPU 0 instructions: 100000002 cycles: 174416985 heartbeat IPC: 0.310616 cumulative IPC: 0.312165 (Simulation time: 0 hr 8 min 37 sec) 
Heartbeat CPU 0 instructions: 110000000 cycles: 206424460 heartbeat IPC: 0.312427 cumulative IPC: 0.312209 (Simulation time: 0 hr 9 min 46 sec) 
Heartbeat CPU 0 instructions: 120000001 cycles: 238279446 heartbeat IPC: 0.313923 cumulative IPC: 0.312452 (Simulation time: 0 hr 10 min 52 sec) 
*** Reached end of trace for Core: 0 Repeating trace: traces/spec2k17/srv_15.champsimtrace.xz
Heartbeat CPU 0 instructions: 130000001 cycles: 270478942 heartbeat IPC: 0.310564 cumulative IPC: 0.312215 (Simulation time: 0 hr 12 min 1 sec) 
Heartbeat CPU 0 instructions: 140000000 cycles: 302280299 heartbeat IPC: 0.314452 cumulative IPC: 0.312462 (Simulation time: 0 hr 13 min 9 sec) 
Heartbeat CPU 0 instructions: 150000003 cycles: 334165123 heartbeat IPC: 0.313629 cumulative IPC: 0.312578 (Simulation time: 0 hr 14 min 17 sec) 
*** Reached end of trace for Core: 0 Repeating trace: traces/spec2k17/srv_15.champsimtrace.xz
Heartbeat CPU 0 instructions: 160000000 cycles: 366313211 heartbeat IPC: 0.31106 cumulative IPC: 0.31244 (Simulation time: 0 hr 15 min 21 sec) 
Heartbeat CPU 0 instructions: 170000002 cycles: 398231326 heartbeat IPC: 0.313302 cumulative IPC: 0.312511 (Simulation time: 0 hr 16 min 29 sec) 
Heartbeat CPU 0 instructions: 180000000 cycles: 430259936 heartbeat IPC: 0.312221 cumulative IPC: 0.312489 (Simulation time: 0 hr 17 min 38 sec) 
*** Reached end of trace for Core: 0 Repeating trace: traces/spec2k17/srv_15.champsimtrace.xz
Heartbeat CPU 0 instructions: 190000003 cycles: 462196044 heartbeat IPC: 0.313125 cumulative IPC: 0.312534 (Simulation time: 0 hr 18 min 44 sec) 
Heartbeat CPU 0 instructions: 200000001 cycles: 494235580 heartbeat IPC: 0.312114 cumulative IPC: 0.312506 (Simulation time: 0 hr 19 min 53 sec) 
Heartbeat CPU 0 instructions: 210000001 cycles: 526109591 heartbeat IPC: 0.313735 cumulative IPC: 0.312583 (Simulation time: 0 hr 21 min 1 sec) 
*** Reached end of trace for Core: 0 Repeating trace: traces/spec2k17/srv_15.champsimtrace.xz
Heartbeat CPU 0 instructions: 220000000 cycles: 557957538 heartbeat IPC: 0.313992 cumulative IPC: 0.312665 (Simulation time: 0 hr 22 min 8 sec) 
Heartbeat CPU 0 instructions: 230000001 cycles: 590067861 heartbeat IPC: 0.311426 cumulative IPC: 0.312596 (Simulation time: 0 hr 23 min 11 sec) 
Heartbeat CPU 0 instructions: 240000001 cycles: 621942777 heartbeat IPC: 0.313726 cumulative IPC: 0.312656 (Simulation time: 0 hr 24 min 20 sec) 
Heartbeat CPU 0 instructions: 250000000 cycles: 653855483 heartbeat IPC: 0.313355 cumulative IPC: 0.31269 (Simulation time: 0 hr 25 min 28 sec) 
Finished CPU 0 instructions: 200000000 cycles: 639610178 cumulative IPC: 0.31269 (Simulation time: 0 hr 25 min 28 sec) 

ChampSim completed all CPUs

Region of Interest Statistics

CPU 0 cumulative IPC: 0.31269 instructions: 200000000 cycles: 639610178
ITLB TOTAL     ACCESS:   35715610  HIT:   33461227  MISS:    2254383  HIT %:     93.688  MISS %:    6.31204   MPKI: 11.2719
ITLB LOAD TRANSLATION ACCESS:   35715610  HIT:   33461227  MISS:    2254383  HIT %:     93.688  MISS %:    6.31204   MPKI: 11.2719
ITLB PREFETCH  REQUESTED:          0  ISSUED:          0  USEFUL:          0  USELESS:          0
ITLB USEFUL LOAD PREFETCHES:          0 PREFETCH ISSUED TO LOWER LEVEL:          0  ACCURACY: -nan
ITLB TIMELY PREFETCHES:          0 LATE PREFETCHES: 0 DROPPED PREFETCHES: 0
ITLB PREFETCHES SAME FILL-ORIGIN LEVEL: 0 DIFFERENT FILL-ORIGIN LEVEL: 0
ITLB AVERAGE MISS LATENCY: 9.20755 cycles
ITLB RQ	ACCESS:   41952063	FORWARD:          0	MERGED:    5691047	TO_CACHE:   36261016

DTLB TOTAL     ACCESS:   45716462  HIT:   43677594  MISS:    2038868  HIT %:    95.5402  MISS %:    4.45981   MPKI: 10.1943
DTLB LOAD TRANSLATION ACCESS:   45716462  HIT:   43677594  MISS:    2038868  HIT %:    95.5402  MISS %:    4.45981   MPKI: 10.1943
DTLB PREFETCH  REQUESTED:          0  ISSUED:          0  USEFUL:          0  USELESS:          0
DTLB USEFUL LOAD PREFETCHES:          0 PREFETCH ISSUED TO LOWER LEVEL:          0  ACCURACY: -nan
DTLB TIMELY PREFETCHES:          0 LATE PREFETCHES: 0 DROPPED PREFETCHES: 0
DTLB PREFETCHES SAME FILL-ORIGIN LEVEL: 0 DIFFERENT FILL-ORIGIN LEVEL: 0
DTLB AVERAGE MISS LATENCY: 9.22268 cycles
DTLB RQ	ACCESS:   60498988	FORWARD:          0	MERGED:   14721124	TO_CACHE:   45777864

STLB TOTAL     ACCESS:    5653731  HIT:    5624547  MISS:      29184  HIT %:    99.4838  MISS %:    0.51619   MPKI: 0.14592
STLB LOAD TRANSLATION ACCESS:    4293251  HIT:    4264348  MISS:      28903  HIT %:    99.3268  MISS %:   0.673219   MPKI: 0.144515
STLB TRANSLATION FROM L1D PREFETCHER ACCESS:    1360480  HIT:    1360199  MISS:        281  HIT %:    99.9793  MISS %:  0.0206545   MPKI: 0.001405
STLB PREFETCH  REQUESTED:          0  ISSUED:          0  USEFUL:        245  USELESS:         36
STLB USEFUL LOAD PREFETCHES:        245 PREFETCH ISSUED TO LOWER LEVEL:          0  ACCURACY: inf
STLB TIMELY PREFETCHES:        245 LATE PREFETCHES: 578 DROPPED PREFETCHES: 8315
STLB PREFETCHES SAME FILL-ORIGIN LEVEL: 0 DIFFERENT FILL-ORIGIN LEVEL: 0
STLB AVERAGE MISS LATENCY: 169834 cycles
STLB RQ	ACCESS:    5940556	FORWARD:          0	MERGED:     275066	TO_CACHE:    5665490

STLB Hit, L1D data hit: 0
STLB Hit, L2C data hit: 0
STLB Hit, LLC data hit: 0
STLB Hit, LLC data miss: 0
STLB STLB hints to L2: 0
L1D TOTAL     ACCESS:   59622021  HIT:   53622150  MISS:    5999871  HIT %:    89.9368  MISS %:    10.0632   MPKI: 29.9994
L1D LOAD      ACCESS:   33926140  HIT:   29964717  MISS:    3961423  HIT %:    88.3234  MISS %:    11.6766   MPKI: 19.8071
L1D RFO       ACCESS:   24676519  HIT:   23476639  MISS:    1199880  HIT %:    95.1376  MISS %:    4.86244   MPKI: 5.9994
L1D PREFETCH  ACCESS:    1019362  HIT:     180794  MISS:     838568  HIT %:     17.736  MISS %:     82.264   MPKI: 4.19284
AGUS PREFETCH L1 MISS: 0
L1D PREFETCH  REQUESTED:    3316974  ISSUED:    3316974  USEFUL:     393671  USELESS:     444852
L1D USEFUL LOAD PREFETCHES:     393671 PREFETCH ISSUED TO LOWER LEVEL:    1237860  ACCURACY: 31.8025
L1D TIMELY PREFETCHES:     393671 LATE PREFETCHES: 399214 DROPPED PREFETCHES: 11073
L1D PREFETCHES SAME FILL-ORIGIN LEVEL: 1237860 DIFFERENT FILL-ORIGIN LEVEL: 0
L1D AVERAGE MISS LATENCY: 2.26002e+07 cycles
L1D RQ	ACCESS:   46484947	FORWARD:          0	MERGED:   12103321	TO_CACHE:   34059659
L1D WQ	ACCESS:   26586297	FORWARD:     321990	MERGED:     146968	TO_CACHE:   26439329
L1D PQ	ACCESS:    1669669	FORWARD:          0	MERGED:      22341	TO_CACHE:    1647305

L1D UNIQUE REGIONS ACCESSED: 0
L1D REGIONS CONFLICTS: 0
L1D Cross Page Prefetch Requests: 68828
L1D Same Page Prefetch Requests: 2000493
L1D ROI Sum of L1D PQ occupancy: 21073472
L1D PREFETCHES PUSHED FROM L2C: 0
L1I TOTAL     ACCESS:   40221824  HIT:   28777946  MISS:   11443878  HIT %:    71.5481  MISS %:    28.4519   MPKI: 57.2194
L1I LOAD      ACCESS:   40221824  HIT:   28777946  MISS:   11443878  HIT %:    71.5481  MISS %:    28.4519   MPKI: 57.2194
L1I PREFETCH  REQUESTED:          0  ISSUED:          0  USEFUL:          0  USELESS:          0
L1I USEFUL LOAD PREFETCHES:          0 PREFETCH ISSUED TO LOWER LEVEL:          0  ACCURACY: -nan
L1I TIMELY PREFETCHES:          0 LATE PREFETCHES: 0 DROPPED PREFETCHES: 0
L1I PREFETCHES SAME FILL-ORIGIN LEVEL: 0 DIFFERENT FILL-ORIGIN LEVEL: 0
L1I AVERAGE MISS LATENCY: 15.8026 cycles
L1I RQ	ACCESS:   58621120	FORWARD:          0	MERGED:   16669057	TO_CACHE:   41952063

BTB TOTAL     ACCESS:   30711818  HIT:   18461253  MISS:   12250565  HIT %:    60.1112  MISS %:    39.8888   MPKI: 61.2528
BTB BRANCH_DIRECT_JUMP	ACCESS:    1879118  HIT:    1082631  MISS:     796487
BTB BRANCH_INDIRECT	ACCESS:   12151411  HIT:    7482071  MISS:    4669340
BTB BRANCH_CONDITIONAL	ACCESS:    7502009  HIT:    6260750  MISS:    1241259
BTB BRANCH_DIRECT_CALL	ACCESS:    3871933  HIT:    1894091  MISS:    1977842
BTB BRANCH_INDIRECT_CALL	ACCESS:     717697  HIT:     351527  MISS:     366170
BTB BRANCH_RETURN	ACCESS:    4589650  HIT:    1390183  MISS:    3199467
BTB BRANCH_OTHER ACCESS:          0  HIT:          0  MISS:          0

L2C TOTAL     ACCESS:   19821403  HIT:   18614722  MISS:    1206681  HIT %:    93.9122  MISS %:    6.08777   MPKI: 6.03341
L2C LOAD      ACCESS:   15006073  HIT:   14089703  MISS:     916370  HIT %:    93.8933  MISS %:    6.10666   MPKI: 4.58185
L2C DATA LOAD MPKI: 1.29052
L2C INSTRUCTION LOAD MPKI: 3.29133
L2C RFO       ACCESS:    1199798  HIT:    1133372  MISS:      66426  HIT %:    94.4636  MISS %:    5.53643   MPKI: 0.33213
L2C PREFETCH  ACCESS:    1237860  HIT:    1049734  MISS:     188126  HIT %:    84.8023  MISS %:    15.1977   MPKI: 0.94063
AGUS PREFETCH L1 MISS: 0
L2C DATA PREFETCH MPKI: 0.94063
L2C INSTRUCTION PREFETCH MPKI: 0
L2C WRITEBACK ACCESS:    2333675  HIT:    2309499  MISS:      24176  HIT %:     98.964  MISS %:    1.03596   MPKI: 0.12088
L2C LOAD TRANSLATION ACCESS:      29348  HIT:      18395  MISS:      10953  HIT %:    62.6789  MISS %:    37.3211   MPKI: 0.054765
L2C TRANSLATION FROM L1D PREFETCHER ACCESS:      14649  HIT:      14019  MISS:        630  HIT %:    95.6994  MISS %:    4.30063   MPKI: 0.00315
L2C PREFETCH  REQUESTED:          0  ISSUED:          0  USEFUL:       9644  USELESS:     179013
L2C USEFUL LOAD PREFETCHES:       9644 PREFETCH ISSUED TO LOWER LEVEL:     188126  ACCURACY: 5.12635
L2C TIMELY PREFETCHES:       9644 LATE PREFETCHES: 0 DROPPED PREFETCHES: 0
L2C PREFETCHES SAME FILL-ORIGIN LEVEL: 0 DIFFERENT FILL-ORIGIN LEVEL: 0
L2C AVERAGE MISS LATENCY: 30.152 cycles
L2C RQ	ACCESS:   16249886	FORWARD:          0	MERGED:          0	TO_CACHE:   16249868
L2C WQ	ACCESS:    2333675	FORWARD:         18	MERGED:          0	TO_CACHE:    2333675
L2C PQ	ACCESS:    1237860	FORWARD:          0	MERGED:          0	TO_CACHE:    1237860

L2C Instructions Evicting Data 278241
L2C Translations Evicting Data 6174
L2C Data Evicting Data 244467
L2C Instructions Evicting Instructions 374741
L2C Translations Evicting Instructions 5305
L2C Data Evicting Instructions 262109
L2C Instructions Evicting Translations 5283
L2C Translations Evicting Translations 104
L2C Data Evicting Translations 6081
L2C Dense regions hint from L2: 0
PSCL5 TOTAL     ACCESS:      37499  HIT:      37499  MISS:          0  HIT %:        100  MISS %:          0   MPKI: 0
PSCL5 LOAD TRANSLATION ACCESS:      28325  HIT:      28325  MISS:          0  HIT %:        100  MISS %:          0   MPKI: 0
PSCL5 TRANSLATION FROM L1D PREFETCHER ACCESS:       9174  HIT:       9174  MISS:          0  HIT %:        100  MISS %:          0   MPKI: 0
PSCL5 PREFETCH  REQUESTED:          0  ISSUED:          0  USEFUL:          0  USELESS:          0
PSCL5 USEFUL LOAD PREFETCHES:          0 PREFETCH ISSUED TO LOWER LEVEL:          0  ACCURACY: -nan
PSCL5 TIMELY PREFETCHES:          0 LATE PREFETCHES: 0 DROPPED PREFETCHES: 0
PSCL5 PREFETCHES SAME FILL-ORIGIN LEVEL: 0 DIFFERENT FILL-ORIGIN LEVEL: 0

PSCL4 TOTAL     ACCESS:      31086  HIT:      31008  MISS:         78  HIT %:    99.7491  MISS %:   0.250917   MPKI: 0.00039
PSCL4 LOAD TRANSLATION ACCESS:      25337  HIT:      25259  MISS:         78  HIT %:    99.6921  MISS %:    0.30785   MPKI: 0.00039
PSCL4 TRANSLATION FROM L1D PREFETCHER ACCESS:       5749  HIT:       5749  MISS:          0  HIT %:        100  MISS %:          0   MPKI: 0
PSCL4 PREFETCH  REQUESTED:          0  ISSUED:          0  USEFUL:          0  USELESS:          0
PSCL4 USEFUL LOAD PREFETCHES:          0 PREFETCH ISSUED TO LOWER LEVEL:          0  ACCURACY: -nan
PSCL4 TIMELY PREFETCHES:          0 LATE PREFETCHES: 0 DROPPED PREFETCHES: 0
PSCL4 PREFETCHES SAME FILL-ORIGIN LEVEL: 0 DIFFERENT FILL-ORIGIN LEVEL: 0

PSCL3 TOTAL     ACCESS:      35524  HIT:      35446  MISS:         78  HIT %:    99.7804  MISS %:    0.21957   MPKI: 0.00039
PSCL3 LOAD TRANSLATION ACCESS:      26571  HIT:      26493  MISS:         78  HIT %:    99.7064  MISS %:   0.293553   MPKI: 0.00039
PSCL3 TRANSLATION FROM L1D PREFETCHER ACCESS:       8953  HIT:       8953  MISS:          0  HIT %:        100  MISS %:          0   MPKI: 0
PSCL3 PREFETCH  REQUESTED:          0  ISSUED:          0  USEFUL:          0  USELESS:          0
PSCL3 USEFUL LOAD PREFETCHES:          0 PREFETCH ISSUED TO LOWER LEVEL:          0  ACCURACY: -nan
PSCL3 TIMELY PREFETCHES:          0 LATE PREFETCHES: 0 DROPPED PREFETCHES: 0
PSCL3 PREFETCHES SAME FILL-ORIGIN LEVEL: 0 DIFFERENT FILL-ORIGIN LEVEL: 0

PSCL2 TOTAL     ACCESS:      32219  HIT:      31321  MISS:        898  HIT %:    97.2128  MISS %:    2.78718   MPKI: 0.00449
PSCL2 LOAD TRANSLATION ACCESS:      28356  HIT:      27458  MISS:        898  HIT %:    96.8331  MISS %:    3.16688   MPKI: 0.00449
PSCL2 TRANSLATION FROM L1D PREFETCHER ACCESS:       3863  HIT:       3863  MISS:          0  HIT %:        100  MISS %:          0   MPKI: 0
PSCL2 PREFETCH  REQUESTED:          0  ISSUED:          0  USEFUL:          0  USELESS:          0
PSCL2 USEFUL LOAD PREFETCHES:          0 PREFETCH ISSUED TO LOWER LEVEL:          0  ACCURACY: -nan
PSCL2 TIMELY PREFETCHES:          0 LATE PREFETCHES: 0 DROPPED PREFETCHES: 0
PSCL2 PREFETCHES SAME FILL-ORIGIN LEVEL: 0 DIFFERENT FILL-ORIGIN LEVEL: 0

LLC TOTAL     ACCESS:    1285427  HIT:    1279520  MISS:       5907  HIT %:    99.5405  MISS %:   0.459536   MPKI: 0.029535
LLC LOAD      ACCESS:     916370  HIT:     915019  MISS:       1351  HIT %:    99.8526  MISS %:    0.14743   MPKI: 0.006755
LLC RFO       ACCESS:      66423  HIT:      66050  MISS:        373  HIT %:    99.4384  MISS %:   0.561552   MPKI: 0.001865
LLC PREFETCH  ACCESS:     188126  HIT:     184022  MISS:       4104  HIT %:    97.8185  MISS %:    2.18152   MPKI: 0.02052
AGUS PREFETCH L1 MISS: 0
LLC WRITEBACK ACCESS:     102925  HIT:     102882  MISS:         43  HIT %:    99.9582  MISS %:   0.041778   MPKI: 0.000215
LLC LOAD TRANSLATION ACCESS:      10953  HIT:      10919  MISS:         34  HIT %:    99.6896  MISS %:   0.310417   MPKI: 0.00017
LLC TRANSLATION FROM L1D PREFETCHER ACCESS:        630  HIT:        628  MISS:          2  HIT %:    99.6825  MISS %:    0.31746   MPKI: 1e-05
LLC PREFETCH  REQUESTED:          0  ISSUED:          0  USEFUL:       1976  USELESS:       1799
LLC USEFUL LOAD PREFETCHES:       1976 PREFETCH ISSUED TO LOWER LEVEL:       4104  ACCURACY: 48.1481
LLC TIMELY PREFETCHES:       1976 LATE PREFETCHES: 0 DROPPED PREFETCHES: 0
LLC PREFETCHES SAME FILL-ORIGIN LEVEL: 0 DIFFERENT FILL-ORIGIN LEVEL: 0
LLC AVERAGE MISS LATENCY: 153.837 cycles
LLC RQ	ACCESS:     994379	FORWARD:          0	MERGED:          0	TO_CACHE:     994376
LLC WQ	ACCESS:     102925	FORWARD:          3	MERGED:          0	TO_CACHE:     102925
LLC PQ	ACCESS:     188126	FORWARD:          0	MERGED:          0	TO_CACHE:     188126

LLC Dense regions hint to LLC: 0

RAW hits: 1483958
Loads Generated: 47968905
Loads sent to L1D: 46484947
Stores Generated: 26586297
Stores sent to L1D: 26586297
Major fault: 0 Minor fault: 1825
Allocated PAGES: 1825
CPU 0 L1d next line prefetcher final stats

DRAM Statistics
 CHANNEL 0
 RQ ROW_BUFFER_HIT:        927  ROW_BUFFER_MISS:       4937
 DBUS_CONGESTED:          0
 WQ ROW_BUFFER_HIT:         18  ROW_BUFFER_MISS:        491  FULL:          0

 AVG_CONGESTED_CYCLE: -
 All warmup complete: 2
Channel 0 Bank busy for read cycles: 0
Channel 0 Bank busy for write cycles: 0
Channel 0
Rank 0
0banks busy for read cycles: 638892022
0banks busy for write cycles: 414
1banks busy for read cycles: 561543
1banks busy for write cycles: 55667
2banks busy for read cycles: 61258
2banks busy for write cycles: 7903
3banks busy for read cycles: 17672
3banks busy for write cycles: 1585
4banks busy for read cycles: 8844
4banks busy for write cycles: 540
5banks busy for read cycles: 2036
5banks busy for write cycles: 0
6banks busy for read cycles: 595
6banks busy for write cycles: 0
7banks busy for read cycles: 100
7banks busy for write cycles: 0
8banks busy for read cycles: 0
8banks busy for write cycles: 0

CPU 0 Branch Prediction Accuracy: 99.883% MPKI: 0.21111 Average ROB Occupancy at Mispredict: 28.8031
Branch types
NOT_BRANCH: 163917781 81.9589%
BRANCH_DIRECT_JUMP: 1879118 0.939559%
BRANCH_INDIRECT: 12151411 6.07571%
BRANCH_CONDITIONAL: 12872309 6.43615%
BRANCH_DIRECT_CALL: 3871933 1.93597%
BRANCH_INDIRECT_CALL: 717697 0.358849%
BRANCH_RETURN: 4589650 2.29482%
BRANCH_OTHER: 0 0%

DRAM PAGES: 1048576
Allocated PAGES: 1825
