
*** ChampSim Multicore Out-of-Order Simulator ***

Warmup Instructions: 50000000
Simulation Instructions: 200000000
Number of CPUs: 1
LLC sets: 2048
LLC ways: 16
Off-chip DRAM Size: 4096 MB Channels: 1 Width: 64-bit Data Rate: 6400 MT/s
CPU 0 runs traces/spec2k17/srv_66.champsimtrace.xz
.xz
BTB has LRU replacement policy
ITLB has LRU replacement policy
DTLB has LRU replacement policy
STLB has LRU replacement policy
L1I has LRU replacement policy
CPU 0 L2C next line prefetcher
L1D has LRU replacement policy
Initialize SRRIP state for L2C
Initialize DRRIP state for LLC
Heartbeat CPU 0 instructions: 10000000 cycles: 2773543 heartbeat IPC: 3.6055 cumulative IPC: 3.6055 (Simulation time: 0 hr 0 min 39 sec) 
Heartbeat CPU 0 instructions: 20000000 cycles: 5536492 heartbeat IPC: 3.61932 cumulative IPC: 3.6124 (Simulation time: 0 hr 1 min 19 sec) 
Heartbeat CPU 0 instructions: 30000002 cycles: 8301122 heartbeat IPC: 3.61712 cumulative IPC: 3.61397 (Simulation time: 0 hr 1 min 56 sec) 
*** Reached end of trace for Core: 0 Repeating trace: traces/spec2k17/srv_66.champsimtrace.xz
Heartbeat CPU 0 instructions: 40000003 cycles: 11067874 heartbeat IPC: 3.61435 cumulative IPC: 3.61406 (Simulation time: 0 hr 2 min 35 sec) 
Heartbeat CPU 0 instructions: 50000001 cycles: 13831508 heartbeat IPC: 3.61842 cumulative IPC: 3.61493 (Simulation time: 0 hr 3 min 14 sec) 

Warmup complete CPU 0 instructions: 50000001 cycles: 13831508 (Simulation time: 0 hr 3 min 14 sec) 

Heartbeat CPU 0 instructions: 60000000 cycles: 35281719 heartbeat IPC: 0.466196 cumulative IPC: 0.466196 (Simulation time: 0 hr 4 min 16 sec) 
*** Reached end of trace for Core: 0 Repeating trace: traces/spec2k17/srv_66.champsimtrace.xz
Heartbeat CPU 0 instructions: 70000001 cycles: 57569531 heartbeat IPC: 0.448676 cumulative IPC: 0.457268 (Simulation time: 0 hr 5 min 20 sec) 
Heartbeat CPU 0 instructions: 80000002 cycles: 79030297 heartbeat IPC: 0.465967 cumulative IPC: 0.460131 (Simulation time: 0 hr 6 min 22 sec) 
Heartbeat CPU 0 instructions: 90000000 cycles: 100392592 heartbeat IPC: 0.468114 cumulative IPC: 0.462101 (Simulation time: 0 hr 7 min 25 sec) 
*** Reached end of trace for Core: 0 Repeating trace: traces/spec2k17/srv_66.champsimtrace.xz
Heartbeat CPU 0 instructions: 100000001 cycles: 122628424 heartbeat IPC: 0.449725 cumulative IPC: 0.459572 (Simulation time: 0 hr 8 min 31 sec) 
Heartbeat CPU 0 instructions: 110000000 cycles: 143886413 heartbeat IPC: 0.470411 cumulative IPC: 0.461344 (Simulation time: 0 hr 9 min 34 sec) 
Heartbeat CPU 0 instructions: 120000002 cycles: 165424495 heartbeat IPC: 0.464294 cumulative IPC: 0.461763 (Simulation time: 0 hr 10 min 37 sec) 
*** Reached end of trace for Core: 0 Repeating trace: traces/spec2k17/srv_66.champsimtrace.xz
Heartbeat CPU 0 instructions: 130000003 cycles: 187480916 heartbeat IPC: 0.453383 cumulative IPC: 0.460698 (Simulation time: 0 hr 11 min 42 sec) 
Heartbeat CPU 0 instructions: 140000002 cycles: 208831373 heartbeat IPC: 0.468374 cumulative IPC: 0.461539 (Simulation time: 0 hr 12 min 46 sec) 
Heartbeat CPU 0 instructions: 150000003 cycles: 230443901 heartbeat IPC: 0.462695 cumulative IPC: 0.461654 (Simulation time: 0 hr 13 min 50 sec) 
*** Reached end of trace for Core: 0 Repeating trace: traces/spec2k17/srv_66.champsimtrace.xz
Heartbeat CPU 0 instructions: 160000002 cycles: 252192825 heartbeat IPC: 0.459793 cumulative IPC: 0.461484 (Simulation time: 0 hr 14 min 54 sec) 
Heartbeat CPU 0 instructions: 170000003 cycles: 273769756 heartbeat IPC: 0.463458 cumulative IPC: 0.461648 (Simulation time: 0 hr 15 min 58 sec) 
Heartbeat CPU 0 instructions: 180000002 cycles: 295397640 heartbeat IPC: 0.462366 cumulative IPC: 0.461703 (Simulation time: 0 hr 17 min 0 sec) 
*** Reached end of trace for Core: 0 Repeating trace: traces/spec2k17/srv_66.champsimtrace.xz
Heartbeat CPU 0 instructions: 190000003 cycles: 317116031 heartbeat IPC: 0.460439 cumulative IPC: 0.461613 (Simulation time: 0 hr 18 min 3 sec) 
Heartbeat CPU 0 instructions: 200000002 cycles: 338566009 heartbeat IPC: 0.466201 cumulative IPC: 0.461916 (Simulation time: 0 hr 19 min 6 sec) 
Heartbeat CPU 0 instructions: 210000003 cycles: 360306724 heartbeat IPC: 0.459967 cumulative IPC: 0.461794 (Simulation time: 0 hr 20 min 9 sec) 
*** Reached end of trace for Core: 0 Repeating trace: traces/spec2k17/srv_66.champsimtrace.xz
Heartbeat CPU 0 instructions: 220000000 cycles: 381830798 heartbeat IPC: 0.464596 cumulative IPC: 0.461957 (Simulation time: 0 hr 21 min 12 sec) 
Heartbeat CPU 0 instructions: 230000002 cycles: 403364835 heartbeat IPC: 0.464381 cumulative IPC: 0.462091 (Simulation time: 0 hr 22 min 17 sec) 
Heartbeat CPU 0 instructions: 240000001 cycles: 425059300 heartbeat IPC: 0.460947 cumulative IPC: 0.462031 (Simulation time: 0 hr 23 min 20 sec) 
*** Reached end of trace for Core: 0 Repeating trace: traces/spec2k17/srv_66.champsimtrace.xz
Heartbeat CPU 0 instructions: 250000003 cycles: 446480472 heartbeat IPC: 0.466828 cumulative IPC: 0.462269 (Simulation time: 0 hr 24 min 20 sec) 
Finished CPU 0 instructions: 200000002 cycles: 432648964 cumulative IPC: 0.462269 (Simulation time: 0 hr 24 min 20 sec) 

ChampSim completed all CPUs

Region of Interest Statistics

CPU 0 cumulative IPC: 0.462269 instructions: 200000002 cycles: 432648964
ITLB TOTAL     ACCESS:   31542371  HIT:   30748609  MISS:     793762  HIT %:    97.4835  MISS %:    2.51649   MPKI: 3.96881
ITLB LOAD TRANSLATION ACCESS:   31542371  HIT:   30748609  MISS:     793762  HIT %:    97.4835  MISS %:    2.51649   MPKI: 3.96881
ITLB PREFETCH  REQUESTED:          0  ISSUED:          0  USEFUL:          0  USELESS:          0
ITLB USEFUL LOAD PREFETCHES:          0 PREFETCH ISSUED TO LOWER LEVEL:          0  ACCURACY: -nan
ITLB TIMELY PREFETCHES:          0 LATE PREFETCHES: 0 DROPPED PREFETCHES: 0
ITLB PREFETCHES SAME FILL-ORIGIN LEVEL: 0 DIFFERENT FILL-ORIGIN LEVEL: 0
ITLB AVERAGE MISS LATENCY: 13.9446 cycles
ITLB RQ	ACCESS:   38319022	FORWARD:          0	MERGED:    6582564	TO_CACHE:   31736458

DTLB TOTAL     ACCESS:   37018722  HIT:   34449879  MISS:    2568843  HIT %:    93.0607  MISS %:    6.93931   MPKI: 12.8442
DTLB LOAD TRANSLATION ACCESS:   37018722  HIT:   34449879  MISS:    2568843  HIT %:    93.0607  MISS %:    6.93931   MPKI: 12.8442
DTLB PREFETCH  REQUESTED:          0  ISSUED:          0  USEFUL:          0  USELESS:          0
DTLB USEFUL LOAD PREFETCHES:          0 PREFETCH ISSUED TO LOWER LEVEL:          0  ACCURACY: -nan
DTLB TIMELY PREFETCHES:          0 LATE PREFETCHES: 0 DROPPED PREFETCHES: 0
DTLB PREFETCHES SAME FILL-ORIGIN LEVEL: 0 DIFFERENT FILL-ORIGIN LEVEL: 0
DTLB AVERAGE MISS LATENCY: 13.7606 cycles
DTLB RQ	ACCESS:   47539113	FORWARD:          0	MERGED:   10372773	TO_CACHE:   37166340

STLB TOTAL     ACCESS:    3861079  HIT:    3517732  MISS:     343347  HIT %:    91.1075  MISS %:    8.89251   MPKI: 1.71673
STLB LOAD TRANSLATION ACCESS:    3362605  HIT:    3020837  MISS:     341768  HIT %:    89.8362  MISS %:    10.1638   MPKI: 1.70884
STLB TRANSLATION FROM L1D PREFETCHER ACCESS:     498474  HIT:     496895  MISS:       1579  HIT %:    99.6832  MISS %:   0.316767   MPKI: 0.007895
STLB PREFETCH  REQUESTED:          0  ISSUED:          0  USEFUL:       1366  USELESS:        213
STLB USEFUL LOAD PREFETCHES:       1366 PREFETCH ISSUED TO LOWER LEVEL:          0  ACCURACY: inf
STLB TIMELY PREFETCHES:       1366 LATE PREFETCHES: 16 DROPPED PREFETCHES: 4648
STLB PREFETCHES SAME FILL-ORIGIN LEVEL: 0 DIFFERENT FILL-ORIGIN LEVEL: 0
STLB AVERAGE MISS LATENCY: 46.9586 cycles
STLB RQ	ACCESS:    3940094	FORWARD:          0	MERGED:      74089	TO_CACHE:    3866005

STLB Hit, L1D data hit: 0
STLB Hit, L2C data hit: 0
STLB Hit, LLC data hit: 0
STLB Hit, LLC data miss: 0
STLB STLB hints to L2: 0
L1D TOTAL     ACCESS:   47483251  HIT:   44751168  MISS:    2732083  HIT %:    94.2462  MISS %:    5.75378   MPKI: 13.6604
L1D LOAD      ACCESS:   27438376  HIT:   25414590  MISS:    2023786  HIT %:    92.6243  MISS %:    7.37575   MPKI: 10.1189
L1D RFO       ACCESS:   19570921  HIT:   19247331  MISS:     323590  HIT %:    98.3466  MISS %:    1.65342   MPKI: 1.61795
L1D PREFETCH  ACCESS:     473954  HIT:      89247  MISS:     384707  HIT %:    18.8303  MISS %:    81.1697   MPKI: 1.92353
AGUS PREFETCH L1 MISS: 0
L1D PREFETCH  REQUESTED:    1163572  ISSUED:    1163572  USEFUL:     142358  USELESS:     242357
L1D USEFUL LOAD PREFETCHES:     142358 PREFETCH ISSUED TO LOWER LEVEL:     396779  ACCURACY: 35.8784
L1D TIMELY PREFETCHES:     142358 LATE PREFETCHES: 11118 DROPPED PREFETCHES: 5597
L1D PREFETCHES SAME FILL-ORIGIN LEVEL: 396779 DIFFERENT FILL-ORIGIN LEVEL: 0
L1D AVERAGE MISS LATENCY: 1.02267e+06 cycles
L1D RQ	ACCESS:   42125375	FORWARD:          0	MERGED:   14317727	TO_CACHE:   27560079
L1D WQ	ACCESS:   20281804	FORWARD:     248006	MERGED:     302770	TO_CACHE:   19979034
L1D PQ	ACCESS:     586083	FORWARD:          0	MERGED:       8157	TO_CACHE:     577489

L1D UNIQUE REGIONS ACCESSED: 0
L1D REGIONS CONFLICTS: 0
L1D Cross Page Prefetch Requests: 18464
L1D Same Page Prefetch Requests: 721636
L1D ROI Sum of L1D PQ occupancy: 7733720
L1D PREFETCHES PUSHED FROM L2C: 0
L1I TOTAL     ACCESS:   36537748  HIT:   31499283  MISS:    5038465  HIT %:    86.2102  MISS %:    13.7898   MPKI: 25.1923
L1I LOAD      ACCESS:   36537748  HIT:   31499283  MISS:    5038465  HIT %:    86.2102  MISS %:    13.7898   MPKI: 25.1923
L1I PREFETCH  REQUESTED:          0  ISSUED:          0  USEFUL:          0  USELESS:          0
L1I USEFUL LOAD PREFETCHES:          0 PREFETCH ISSUED TO LOWER LEVEL:          0  ACCURACY: -nan
L1I TIMELY PREFETCHES:          0 LATE PREFETCHES: 0 DROPPED PREFETCHES: 0
L1I PREFETCHES SAME FILL-ORIGIN LEVEL: 0 DIFFERENT FILL-ORIGIN LEVEL: 0
L1I AVERAGE MISS LATENCY: 25.4761 cycles
L1I RQ	ACCESS:   57202495	FORWARD:          0	MERGED:   18883473	TO_CACHE:   38319022

BTB TOTAL     ACCESS:   22223395  HIT:   18065540  MISS:    4157855  HIT %:    81.2906  MISS %:    18.7094   MPKI: 20.7893
BTB BRANCH_DIRECT_JUMP	ACCESS:    1718257  HIT:    1473997  MISS:     244260
BTB BRANCH_INDIRECT	ACCESS:    9436324  HIT:    7433911  MISS:    2002413
BTB BRANCH_CONDITIONAL	ACCESS:    4754690  HIT:    4374903  MISS:     379787
BTB BRANCH_DIRECT_CALL	ACCESS:    2480174  HIT:    2032253  MISS:     447921
BTB BRANCH_INDIRECT_CALL	ACCESS:     676469  HIT:     636836  MISS:      39633
BTB BRANCH_RETURN	ACCESS:    3157481  HIT:    2113640  MISS:    1043841
BTB BRANCH_OTHER ACCESS:          0  HIT:          0  MISS:          0

L2C TOTAL     ACCESS:    9255926  HIT:    5980726  MISS:    3275200  HIT %:    64.6151  MISS %:    35.3849   MPKI: 16.376
L2C LOAD      ACCESS:    7051059  HIT:    4381862  MISS:    2669197  HIT %:    62.1447  MISS %:    37.8553   MPKI: 13.346
L2C DATA LOAD MPKI: 4.28643
L2C INSTRUCTION LOAD MPKI: 9.05955
L2C RFO       ACCESS:     322630  HIT:     177606  MISS:     145024  HIT %:    55.0494  MISS %:    44.9506   MPKI: 0.72512
L2C PREFETCH  ACCESS:     396779  HIT:     170653  MISS:     226126  HIT %:    43.0096  MISS %:    56.9904   MPKI: 1.13063
AGUS PREFETCH L1 MISS: 0
L2C DATA PREFETCH MPKI: 1.13063
L2C INSTRUCTION PREFETCH MPKI: 0
L2C WRITEBACK ACCESS:    1022677  HIT:     969492  MISS:      53185  HIT %:    94.7994  MISS %:    5.20057   MPKI: 0.265925
L2C LOAD TRANSLATION ACCESS:     454124  HIT:     273992  MISS:     180132  HIT %:    60.3342  MISS %:    39.6658   MPKI: 0.90066
L2C TRANSLATION FROM L1D PREFETCHER ACCESS:       8657  HIT:       7121  MISS:       1536  HIT %:    82.2571  MISS %:    17.7429   MPKI: 0.00768
L2C PREFETCH  REQUESTED:          0  ISSUED:          0  USEFUL:      16165  USELESS:     211539
L2C USEFUL LOAD PREFETCHES:      16165 PREFETCH ISSUED TO LOWER LEVEL:     226126  ACCURACY: 7.14867
L2C TIMELY PREFETCHES:      16165 LATE PREFETCHES: 0 DROPPED PREFETCHES: 0
L2C PREFETCHES SAME FILL-ORIGIN LEVEL: 0 DIFFERENT FILL-ORIGIN LEVEL: 0
L2C AVERAGE MISS LATENCY: 44.8859 cycles
L2C RQ	ACCESS:    7836551	FORWARD:          0	MERGED:          0	TO_CACHE:    7836471
L2C WQ	ACCESS:    1022677	FORWARD:         80	MERGED:          0	TO_CACHE:    1022677
L2C PQ	ACCESS:     396779	FORWARD:          0	MERGED:          0	TO_CACHE:     396779

L2C Instructions Evicting Data 682083
L2C Translations Evicting Data 73340
L2C Data Evicting Data 505019
L2C Instructions Evicting Instructions 1033653
L2C Translations Evicting Instructions 95822
L2C Data Evicting Instructions 652948
L2C Instructions Evicting Translations 96175
L2C Translations Evicting Translations 12506
L2C Data Evicting Translations 70469
L2C Dense regions hint from L2: 0
PSCL5 TOTAL     ACCESS:     347995  HIT:     347995  MISS:          0  HIT %:        100  MISS %:          0   MPKI: 0
PSCL5 LOAD TRANSLATION ACCESS:     341752  HIT:     341752  MISS:          0  HIT %:        100  MISS %:          0   MPKI: 0
PSCL5 TRANSLATION FROM L1D PREFETCHER ACCESS:       6243  HIT:       6243  MISS:          0  HIT %:        100  MISS %:          0   MPKI: 0
PSCL5 PREFETCH  REQUESTED:          0  ISSUED:          0  USEFUL:          0  USELESS:          0
PSCL5 USEFUL LOAD PREFETCHES:          0 PREFETCH ISSUED TO LOWER LEVEL:          0  ACCURACY: -nan
PSCL5 TIMELY PREFETCHES:          0 LATE PREFETCHES: 0 DROPPED PREFETCHES: 0
PSCL5 PREFETCHES SAME FILL-ORIGIN LEVEL: 0 DIFFERENT FILL-ORIGIN LEVEL: 0

PSCL4 TOTAL     ACCESS:     336936  HIT:     335676  MISS:       1260  HIT %:     99.626  MISS %:   0.373958   MPKI: 0.0063
PSCL4 LOAD TRANSLATION ACCESS:     331607  HIT:     330347  MISS:       1260  HIT %:      99.62  MISS %:   0.379968   MPKI: 0.0063
PSCL4 TRANSLATION FROM L1D PREFETCHER ACCESS:       5329  HIT:       5329  MISS:          0  HIT %:        100  MISS %:          0   MPKI: 0
PSCL4 PREFETCH  REQUESTED:          0  ISSUED:          0  USEFUL:          0  USELESS:          0
PSCL4 USEFUL LOAD PREFETCHES:          0 PREFETCH ISSUED TO LOWER LEVEL:          0  ACCURACY: -nan
PSCL4 TIMELY PREFETCHES:          0 LATE PREFETCHES: 0 DROPPED PREFETCHES: 0
PSCL4 PREFETCHES SAME FILL-ORIGIN LEVEL: 0 DIFFERENT FILL-ORIGIN LEVEL: 0

PSCL3 TOTAL     ACCESS:     344988  HIT:     343728  MISS:       1260  HIT %:    99.6348  MISS %:    0.36523   MPKI: 0.0063
PSCL3 LOAD TRANSLATION ACCESS:     338747  HIT:     337487  MISS:       1260  HIT %:     99.628  MISS %:   0.371959   MPKI: 0.0063
PSCL3 TRANSLATION FROM L1D PREFETCHER ACCESS:       6241  HIT:       6241  MISS:          0  HIT %:        100  MISS %:          0   MPKI: 0
PSCL3 PREFETCH  REQUESTED:          0  ISSUED:          0  USEFUL:          0  USELESS:          0
PSCL3 USEFUL LOAD PREFETCHES:          0 PREFETCH ISSUED TO LOWER LEVEL:          0  ACCURACY: -nan
PSCL3 TIMELY PREFETCHES:          0 LATE PREFETCHES: 0 DROPPED PREFETCHES: 0
PSCL3 PREFETCHES SAME FILL-ORIGIN LEVEL: 0 DIFFERENT FILL-ORIGIN LEVEL: 0

PSCL2 TOTAL     ACCESS:     345919  HIT:     235731  MISS:     110188  HIT %:    68.1463  MISS %:    31.8537   MPKI: 0.55094
PSCL2 LOAD TRANSLATION ACCESS:     342088  HIT:     231900  MISS:     110188  HIT %:    67.7896  MISS %:    32.2104   MPKI: 0.55094
PSCL2 TRANSLATION FROM L1D PREFETCHER ACCESS:       3831  HIT:       3831  MISS:          0  HIT %:        100  MISS %:          0   MPKI: 0
PSCL2 PREFETCH  REQUESTED:          0  ISSUED:          0  USEFUL:          0  USELESS:          0
PSCL2 USEFUL LOAD PREFETCHES:          0 PREFETCH ISSUED TO LOWER LEVEL:          0  ACCURACY: -nan
PSCL2 TIMELY PREFETCHES:          0 LATE PREFETCHES: 0 DROPPED PREFETCHES: 0
PSCL2 PREFETCHES SAME FILL-ORIGIN LEVEL: 0 DIFFERENT FILL-ORIGIN LEVEL: 0

LLC TOTAL     ACCESS:    3661010  HIT:    3324207  MISS:     336803  HIT %:    90.8003  MISS %:    9.19973   MPKI: 1.68401
LLC LOAD      ACCESS:    2669196  HIT:    2452047  MISS:     217149  HIT %:    91.8646  MISS %:    8.13537   MPKI: 1.08574
LLC RFO       ACCESS:     145023  HIT:      97772  MISS:      47251  HIT %:    67.4183  MISS %:    32.5817   MPKI: 0.236255
LLC PREFETCH  ACCESS:     226126  HIT:     169475  MISS:      56651  HIT %:    74.9472  MISS %:    25.0528   MPKI: 0.283255
AGUS PREFETCH L1 MISS: 0
LLC WRITEBACK ACCESS:     438997  HIT:     436946  MISS:       2051  HIT %:    99.5328  MISS %:   0.467201   MPKI: 0.010255
LLC LOAD TRANSLATION ACCESS:     180132  HIT:     166510  MISS:      13622  HIT %:    92.4378  MISS %:    7.56223   MPKI: 0.06811
LLC TRANSLATION FROM L1D PREFETCHER ACCESS:       1536  HIT:       1457  MISS:         79  HIT %:    94.8568  MISS %:    5.14323   MPKI: 0.000395
LLC PREFETCH  REQUESTED:          0  ISSUED:          0  USEFUL:       2247  USELESS:      54737
LLC USEFUL LOAD PREFETCHES:       2247 PREFETCH ISSUED TO LOWER LEVEL:      56651  ACCURACY: 3.96639
LLC TIMELY PREFETCHES:       2247 LATE PREFETCHES: 0 DROPPED PREFETCHES: 0
LLC PREFETCHES SAME FILL-ORIGIN LEVEL: 0 DIFFERENT FILL-ORIGIN LEVEL: 0
LLC AVERAGE MISS LATENCY: 149.49 cycles
LLC RQ	ACCESS:    2995890	FORWARD:          0	MERGED:          0	TO_CACHE:    2995888
LLC WQ	ACCESS:     438997	FORWARD:          2	MERGED:          0	TO_CACHE:     438997
LLC PQ	ACCESS:     226126	FORWARD:          0	MERGED:          0	TO_CACHE:     226126

LLC Dense regions hint to LLC: 0

RAW hits: 2842865
Loads Generated: 44968240
Loads sent to L1D: 42125375
Stores Generated: 20281799
Stores sent to L1D: 20281804
Major fault: 0 Minor fault: 6269
Allocated PAGES: 6269
CPU 0 L1d next line prefetcher final stats

DRAM Statistics
 CHANNEL 0
 RQ ROW_BUFFER_HIT:      71996  ROW_BUFFER_MISS:     262755
 DBUS_CONGESTED:        232
 WQ ROW_BUFFER_HIT:      29959  ROW_BUFFER_MISS:     192108  FULL:          0

 AVG_CONGESTED_CYCLE: 4
 All warmup complete: 2
Channel 0 Bank busy for read cycles: 0
Channel 0 Bank busy for write cycles: 0
Channel 0
Rank 0
0banks busy for read cycles: 376923540
0banks busy for write cycles: 112985
1banks busy for read cycles: 24555461
1banks busy for write cycles: 14592183
2banks busy for read cycles: 5924215
2banks busy for write cycles: 4736816
3banks busy for read cycles: 1166361
3banks busy for write cycles: 1724187
4banks busy for read cycles: 324708
4banks busy for write cycles: 861866
5banks busy for read cycles: 118407
5banks busy for write cycles: 539449
6banks busy for read cycles: 69112
6banks busy for write cycles: 361310
7banks busy for read cycles: 49854
7banks busy for write cycles: 283555
8banks busy for read cycles: 57099
8banks busy for write cycles: 247857

CPU 0 Branch Prediction Accuracy: 99.8407% MPKI: 0.28518 Average ROB Occupancy at Mispredict: 47.6566
Branch types
NOT_BRANCH: 164201255 82.1006%
BRANCH_DIRECT_JUMP: 1718257 0.859128%
BRANCH_INDIRECT: 9436324 4.71816%
BRANCH_CONDITIONAL: 18329757 9.16488%
BRANCH_DIRECT_CALL: 2480174 1.24009%
BRANCH_INDIRECT_CALL: 676469 0.338234%
BRANCH_RETURN: 3157481 1.57874%
BRANCH_OTHER: 0 0%

DRAM PAGES: 1048576
Allocated PAGES: 6269
