
*** ChampSim Multicore Out-of-Order Simulator ***

Warmup Instructions: 50000000
Simulation Instructions: 200000000
Number of CPUs: 1
LLC sets: 2048
LLC ways: 16
Off-chip DRAM Size: 4096 MB Channels: 1 Width: 64-bit Data Rate: 6400 MT/s
CPU 0 runs traces/spec2k17/srv_7.champsimtrace.xz
.xz
BTB has LRU replacement policy
ITLB has LRU replacement policy
DTLB has LRU replacement policy
STLB has LRU replacement policy
L1I has LRU replacement policy
CPU 0 L2C next line prefetcher
L1D has LRU replacement policy
Initialize SRRIP state for L2C
Initialize DRRIP state for LLC
Heartbeat CPU 0 instructions: 10000001 cycles: 2781451 heartbeat IPC: 3.59525 cumulative IPC: 3.59525 (Simulation time: 0 hr 0 min 38 sec) 
Heartbeat CPU 0 instructions: 20000001 cycles: 5559136 heartbeat IPC: 3.60012 cumulative IPC: 3.59768 (Simulation time: 0 hr 1 min 18 sec) 
Heartbeat CPU 0 instructions: 30000003 cycles: 8335328 heartbeat IPC: 3.60206 cumulative IPC: 3.59914 (Simulation time: 0 hr 1 min 56 sec) 
*** Reached end of trace for Core: 0 Repeating trace: traces/spec2k17/srv_7.champsimtrace.xz
Heartbeat CPU 0 instructions: 40000000 cycles: 11112501 heartbeat IPC: 3.60078 cumulative IPC: 3.59955 (Simulation time: 0 hr 2 min 35 sec) 
Heartbeat CPU 0 instructions: 50000000 cycles: 13890323 heartbeat IPC: 3.59994 cumulative IPC: 3.59963 (Simulation time: 0 hr 3 min 12 sec) 

Warmup complete CPU 0 instructions: 50000004 cycles: 13890324 (Simulation time: 0 hr 3 min 12 sec) 

Heartbeat CPU 0 instructions: 60000000 cycles: 36647782 heartbeat IPC: 0.439416 cumulative IPC: 0.439416 (Simulation time: 0 hr 4 min 9 sec) 
*** Reached end of trace for Core: 0 Repeating trace: traces/spec2k17/srv_7.champsimtrace.xz
Heartbeat CPU 0 instructions: 70000000 cycles: 59825110 heartbeat IPC: 0.431456 cumulative IPC: 0.4354 (Simulation time: 0 hr 5 min 6 sec) 
Heartbeat CPU 0 instructions: 80000003 cycles: 82728161 heartbeat IPC: 0.436623 cumulative IPC: 0.435807 (Simulation time: 0 hr 6 min 0 sec) 
Heartbeat CPU 0 instructions: 90000001 cycles: 105486821 heartbeat IPC: 0.439393 cumulative IPC: 0.436698 (Simulation time: 0 hr 6 min 49 sec) 
*** Reached end of trace for Core: 0 Repeating trace: traces/spec2k17/srv_7.champsimtrace.xz
Heartbeat CPU 0 instructions: 100000001 cycles: 128336775 heartbeat IPC: 0.437638 cumulative IPC: 0.436886 (Simulation time: 0 hr 7 min 38 sec) 
Heartbeat CPU 0 instructions: 110000000 cycles: 151332133 heartbeat IPC: 0.43487 cumulative IPC: 0.436548 (Simulation time: 0 hr 8 min 22 sec) 
Heartbeat CPU 0 instructions: 120000003 cycles: 174170914 heartbeat IPC: 0.437852 cumulative IPC: 0.436734 (Simulation time: 0 hr 9 min 11 sec) 
*** Reached end of trace for Core: 0 Repeating trace: traces/spec2k17/srv_7.champsimtrace.xz
Heartbeat CPU 0 instructions: 130000002 cycles: 196857986 heartbeat IPC: 0.44078 cumulative IPC: 0.437236 (Simulation time: 0 hr 9 min 52 sec) 
Heartbeat CPU 0 instructions: 140000001 cycles: 219881493 heartbeat IPC: 0.434339 cumulative IPC: 0.436912 (Simulation time: 0 hr 10 min 34 sec) 
Heartbeat CPU 0 instructions: 150000000 cycles: 242719190 heartbeat IPC: 0.437872 cumulative IPC: 0.437008 (Simulation time: 0 hr 11 min 27 sec) 
*** Reached end of trace for Core: 0 Repeating trace: traces/spec2k17/srv_7.champsimtrace.xz
Heartbeat CPU 0 instructions: 160000003 cycles: 265464174 heartbeat IPC: 0.439658 cumulative IPC: 0.437247 (Simulation time: 0 hr 12 min 6 sec) 
Heartbeat CPU 0 instructions: 170000002 cycles: 288247962 heartbeat IPC: 0.438909 cumulative IPC: 0.437385 (Simulation time: 0 hr 12 min 45 sec) 
Heartbeat CPU 0 instructions: 180000002 cycles: 311161271 heartbeat IPC: 0.436428 cumulative IPC: 0.437311 (Simulation time: 0 hr 13 min 32 sec) 
*** Reached end of trace for Core: 0 Repeating trace: traces/spec2k17/srv_7.champsimtrace.xz
Heartbeat CPU 0 instructions: 190000003 cycles: 333850665 heartbeat IPC: 0.440735 cumulative IPC: 0.437554 (Simulation time: 0 hr 14 min 10 sec) 
Heartbeat CPU 0 instructions: 200000001 cycles: 356894813 heartbeat IPC: 0.43395 cumulative IPC: 0.437312 (Simulation time: 0 hr 14 min 48 sec) 
Heartbeat CPU 0 instructions: 210000003 cycles: 379707048 heartbeat IPC: 0.438361 cumulative IPC: 0.437377 (Simulation time: 0 hr 15 min 24 sec) 
*** Reached end of trace for Core: 0 Repeating trace: traces/spec2k17/srv_7.champsimtrace.xz
Heartbeat CPU 0 instructions: 220000000 cycles: 402498322 heartbeat IPC: 0.438764 cumulative IPC: 0.437459 (Simulation time: 0 hr 16 min 1 sec) 
Heartbeat CPU 0 instructions: 230000000 cycles: 425359308 heartbeat IPC: 0.437426 cumulative IPC: 0.437457 (Simulation time: 0 hr 16 min 39 sec) 
Heartbeat CPU 0 instructions: 240000001 cycles: 447914166 heartbeat IPC: 0.443364 cumulative IPC: 0.437764 (Simulation time: 0 hr 17 min 16 sec) 
*** Reached end of trace for Core: 0 Repeating trace: traces/spec2k17/srv_7.champsimtrace.xz
Heartbeat CPU 0 instructions: 250000001 cycles: 470931247 heartbeat IPC: 0.43446 cumulative IPC: 0.437598 (Simulation time: 0 hr 17 min 53 sec) 
Finished CPU 0 instructions: 200000003 cycles: 457040929 cumulative IPC: 0.437598 (Simulation time: 0 hr 17 min 53 sec) 

ChampSim completed all CPUs

Region of Interest Statistics

CPU 0 cumulative IPC: 0.437598 instructions: 200000003 cycles: 457040929
ITLB TOTAL     ACCESS:   31420674  HIT:   30602627  MISS:     818047  HIT %:    97.3965  MISS %:    2.60353   MPKI: 4.09023
ITLB LOAD TRANSLATION ACCESS:   31420674  HIT:   30602627  MISS:     818047  HIT %:    97.3965  MISS %:    2.60353   MPKI: 4.09023
ITLB PREFETCH  REQUESTED:          0  ISSUED:          0  USEFUL:          0  USELESS:          0
ITLB USEFUL LOAD PREFETCHES:          0 PREFETCH ISSUED TO LOWER LEVEL:          0  ACCURACY: -nan
ITLB TIMELY PREFETCHES:          0 LATE PREFETCHES: 0 DROPPED PREFETCHES: 0
ITLB PREFETCHES SAME FILL-ORIGIN LEVEL: 0 DIFFERENT FILL-ORIGIN LEVEL: 0
ITLB AVERAGE MISS LATENCY: 15.1962 cycles
ITLB RQ	ACCESS:   38273216	FORWARD:          0	MERGED:    6657731	TO_CACHE:   31615485

DTLB TOTAL     ACCESS:   37173071  HIT:   34806984  MISS:    2366087  HIT %:    93.6349  MISS %:    6.36506   MPKI: 11.8304
DTLB LOAD TRANSLATION ACCESS:   37173071  HIT:   34806984  MISS:    2366087  HIT %:    93.6349  MISS %:    6.36506   MPKI: 11.8304
DTLB PREFETCH  REQUESTED:          0  ISSUED:          0  USEFUL:          0  USELESS:          0
DTLB USEFUL LOAD PREFETCHES:          0 PREFETCH ISSUED TO LOWER LEVEL:          0  ACCURACY: -nan
DTLB TIMELY PREFETCHES:          0 LATE PREFETCHES: 0 DROPPED PREFETCHES: 0
DTLB PREFETCHES SAME FILL-ORIGIN LEVEL: 0 DIFFERENT FILL-ORIGIN LEVEL: 0
DTLB AVERAGE MISS LATENCY: 15.0306 cycles
DTLB RQ	ACCESS:   47707141	FORWARD:          0	MERGED:   10389967	TO_CACHE:   37317174

STLB TOTAL     ACCESS:    3699165  HIT:    3273439  MISS:     425726  HIT %:    88.4913  MISS %:    11.5087   MPKI: 2.12863
STLB LOAD TRANSLATION ACCESS:    3184134  HIT:    2759981  MISS:     424153  HIT %:    86.6792  MISS %:    13.3208   MPKI: 2.12076
STLB TRANSLATION FROM L1D PREFETCHER ACCESS:     515031  HIT:     513458  MISS:       1573  HIT %:    99.6946  MISS %:   0.305419   MPKI: 0.007865
STLB PREFETCH  REQUESTED:          0  ISSUED:          0  USEFUL:       1331  USELESS:        243
STLB USEFUL LOAD PREFETCHES:       1331 PREFETCH ISSUED TO LOWER LEVEL:          0  ACCURACY: inf
STLB TIMELY PREFETCHES:       1331 LATE PREFETCHES: 89 DROPPED PREFETCHES: 4616
STLB PREFETCHES SAME FILL-ORIGIN LEVEL: 0 DIFFERENT FILL-ORIGIN LEVEL: 0
STLB AVERAGE MISS LATENCY: 45.3544 cycles
STLB RQ	ACCESS:    3783365	FORWARD:          0	MERGED:      79285	TO_CACHE:    3704080

STLB Hit, L1D data hit: 0
STLB Hit, L2C data hit: 0
STLB Hit, LLC data hit: 0
STLB Hit, LLC data miss: 0
STLB STLB hints to L2: 0
L1D TOTAL     ACCESS:   47649205  HIT:   44871333  MISS:    2777872  HIT %:    94.1702  MISS %:    5.82984   MPKI: 13.8894
L1D LOAD      ACCESS:   27529449  HIT:   25490853  MISS:    2038596  HIT %:    92.5949  MISS %:    7.40515   MPKI: 10.193
L1D RFO       ACCESS:   19629850  HIT:   19281704  MISS:     348146  HIT %:    98.2264  MISS %:    1.77355   MPKI: 1.74073
L1D PREFETCH  ACCESS:     489906  HIT:      98776  MISS:     391130  HIT %:    20.1622  MISS %:    79.8378   MPKI: 1.95565
AGUS PREFETCH L1 MISS: 0
L1D PREFETCH  REQUESTED:    1206443  ISSUED:    1206443  USEFUL:     143059  USELESS:     248056
L1D USEFUL LOAD PREFETCHES:     143059 PREFETCH ISSUED TO LOWER LEVEL:     405515  ACCURACY: 35.2783
L1D TIMELY PREFETCHES:     143059 LATE PREFETCHES: 13398 DROPPED PREFETCHES: 5353
L1D PREFETCHES SAME FILL-ORIGIN LEVEL: 405515 DIFFERENT FILL-ORIGIN LEVEL: 0
L1D AVERAGE MISS LATENCY: 1.26602e+06 cycles
L1D RQ	ACCESS:   42089236	FORWARD:          0	MERGED:   14184669	TO_CACHE:   27653977
L1D WQ	ACCESS:   20434181	FORWARD:     250977	MERGED:     381017	TO_CACHE:   20053164
L1D PQ	ACCESS:     607212	FORWARD:          0	MERGED:       7594	TO_CACHE:     599231

L1D UNIQUE REGIONS ACCESSED: 0
L1D REGIONS CONFLICTS: 0
L1D Cross Page Prefetch Requests: 18696
L1D Same Page Prefetch Requests: 747593
L1D ROI Sum of L1D PQ occupancy: 7989822
L1D PREFETCHES PUSHED FROM L2C: 0
L1I TOTAL     ACCESS:   36590545  HIT:   31497393  MISS:    5093152  HIT %:    86.0807  MISS %:    13.9193   MPKI: 25.4658
L1I LOAD      ACCESS:   36590545  HIT:   31497393  MISS:    5093152  HIT %:    86.0807  MISS %:    13.9193   MPKI: 25.4658
L1I PREFETCH  REQUESTED:          0  ISSUED:          0  USEFUL:          0  USELESS:          0
L1I USEFUL LOAD PREFETCHES:          0 PREFETCH ISSUED TO LOWER LEVEL:          0  ACCURACY: -nan
L1I TIMELY PREFETCHES:          0 LATE PREFETCHES: 0 DROPPED PREFETCHES: 0
L1I PREFETCHES SAME FILL-ORIGIN LEVEL: 0 DIFFERENT FILL-ORIGIN LEVEL: 0
L1I AVERAGE MISS LATENCY: 27.0464 cycles
L1I RQ	ACCESS:   57202876	FORWARD:          0	MERGED:   18929660	TO_CACHE:   38273216

BTB TOTAL     ACCESS:   22366378  HIT:   17715697  MISS:    4650681  HIT %:    79.2068  MISS %:    20.7932   MPKI: 23.2534
BTB BRANCH_DIRECT_JUMP	ACCESS:    1867626  HIT:    1582862  MISS:     284764
BTB BRANCH_INDIRECT	ACCESS:    9379894  HIT:    7206637  MISS:    2173257
BTB BRANCH_CONDITIONAL	ACCESS:    4614315  HIT:    4180590  MISS:     433725
BTB BRANCH_DIRECT_CALL	ACCESS:    2585717  HIT:    2040743  MISS:     544974
BTB BRANCH_INDIRECT_CALL	ACCESS:     665918  HIT:     607579  MISS:      58339
BTB BRANCH_RETURN	ACCESS:    3252908  HIT:    2097286  MISS:    1155622
BTB BRANCH_OTHER ACCESS:          0  HIT:          0  MISS:          0

L2C TOTAL     ACCESS:    9468685  HIT:    5711722  MISS:    3756963  HIT %:    60.3222  MISS %:    39.6778   MPKI: 18.7848
L2C LOAD      ACCESS:    7118293  HIT:    4055864  MISS:    3062429  HIT %:     56.978  MISS %:     43.022   MPKI: 15.3121
L2C DATA LOAD MPKI: 4.78568
L2C INSTRUCTION LOAD MPKI: 10.5265
L2C RFO       ACCESS:     347154  HIT:     174788  MISS:     172366  HIT %:    50.3488  MISS %:    49.6512   MPKI: 0.86183
L2C PREFETCH  ACCESS:     405516  HIT:     156796  MISS:     248720  HIT %:    38.6658  MISS %:    61.3342   MPKI: 1.2436
AGUS PREFETCH L1 MISS: 0
L2C DATA PREFETCH MPKI: 1.2436
L2C INSTRUCTION PREFETCH MPKI: 0
L2C WRITEBACK ACCESS:    1032586  HIT:     978807  MISS:      53779  HIT %:    94.7918  MISS %:    5.20819   MPKI: 0.268895
L2C LOAD TRANSLATION ACCESS:     556501  HIT:     337914  MISS:     218587  HIT %:    60.7212  MISS %:    39.2788   MPKI: 1.09293
L2C TRANSLATION FROM L1D PREFETCHER ACCESS:       8635  HIT:       7553  MISS:       1082  HIT %:    87.4696  MISS %:    12.5304   MPKI: 0.00541
L2C PREFETCH  REQUESTED:          0  ISSUED:          0  USEFUL:      16837  USELESS:     232998
L2C USEFUL LOAD PREFETCHES:      16837 PREFETCH ISSUED TO LOWER LEVEL:     248719  ACCURACY: 6.76949
L2C TIMELY PREFETCHES:      16837 LATE PREFETCHES: 0 DROPPED PREFETCHES: 0
L2C PREFETCHES SAME FILL-ORIGIN LEVEL: 0 DIFFERENT FILL-ORIGIN LEVEL: 0
L2C AVERAGE MISS LATENCY: 43.7597 cycles
L2C RQ	ACCESS:    8030643	FORWARD:          0	MERGED:          0	TO_CACHE:    8030582
L2C WQ	ACCESS:    1032586	FORWARD:         61	MERGED:          0	TO_CACHE:    1032586
L2C PQ	ACCESS:     405515	FORWARD:          0	MERGED:          0	TO_CACHE:     405515

L2C Instructions Evicting Data 788154
L2C Translations Evicting Data 86064
L2C Data Evicting Data 536315
L2C Instructions Evicting Instructions 1195893
L2C Translations Evicting Instructions 120179
L2C Data Evicting Instructions 759621
L2C Instructions Evicting Translations 121246
L2C Translations Evicting Translations 13426
L2C Data Evicting Translations 82286
L2C Dense regions hint from L2: 0
PSCL5 TOTAL     ACCESS:     430342  HIT:     430342  MISS:          0  HIT %:        100  MISS %:          0   MPKI: 0
PSCL5 LOAD TRANSLATION ACCESS:     424064  HIT:     424064  MISS:          0  HIT %:        100  MISS %:          0   MPKI: 0
PSCL5 TRANSLATION FROM L1D PREFETCHER ACCESS:       6278  HIT:       6278  MISS:          0  HIT %:        100  MISS %:          0   MPKI: 0
PSCL5 PREFETCH  REQUESTED:          0  ISSUED:          0  USEFUL:          0  USELESS:          0
PSCL5 USEFUL LOAD PREFETCHES:          0 PREFETCH ISSUED TO LOWER LEVEL:          0  ACCURACY: -nan
PSCL5 TIMELY PREFETCHES:          0 LATE PREFETCHES: 0 DROPPED PREFETCHES: 0
PSCL5 PREFETCHES SAME FILL-ORIGIN LEVEL: 0 DIFFERENT FILL-ORIGIN LEVEL: 0

PSCL4 TOTAL     ACCESS:     414810  HIT:     413195  MISS:       1615  HIT %:    99.6107  MISS %:   0.389335   MPKI: 0.008075
PSCL4 LOAD TRANSLATION ACCESS:     409354  HIT:     407739  MISS:       1615  HIT %:    99.6055  MISS %:   0.394524   MPKI: 0.008075
PSCL4 TRANSLATION FROM L1D PREFETCHER ACCESS:       5456  HIT:       5456  MISS:          0  HIT %:        100  MISS %:          0   MPKI: 0
PSCL4 PREFETCH  REQUESTED:          0  ISSUED:          0  USEFUL:          0  USELESS:          0
PSCL4 USEFUL LOAD PREFETCHES:          0 PREFETCH ISSUED TO LOWER LEVEL:          0  ACCURACY: -nan
PSCL4 TIMELY PREFETCHES:          0 LATE PREFETCHES: 0 DROPPED PREFETCHES: 0
PSCL4 PREFETCHES SAME FILL-ORIGIN LEVEL: 0 DIFFERENT FILL-ORIGIN LEVEL: 0

PSCL3 TOTAL     ACCESS:     426462  HIT:     424812  MISS:       1650  HIT %:    99.6131  MISS %:   0.386904   MPKI: 0.00825
PSCL3 LOAD TRANSLATION ACCESS:     420184  HIT:     418534  MISS:       1650  HIT %:    99.6073  MISS %:   0.392685   MPKI: 0.00825
PSCL3 TRANSLATION FROM L1D PREFETCHER ACCESS:       6278  HIT:       6278  MISS:          0  HIT %:        100  MISS %:          0   MPKI: 0
PSCL3 PREFETCH  REQUESTED:          0  ISSUED:          0  USEFUL:          0  USELESS:          0
PSCL3 USEFUL LOAD PREFETCHES:          0 PREFETCH ISSUED TO LOWER LEVEL:          0  ACCURACY: -nan
PSCL3 TIMELY PREFETCHES:          0 LATE PREFETCHES: 0 DROPPED PREFETCHES: 0
PSCL3 PREFETCHES SAME FILL-ORIGIN LEVEL: 0 DIFFERENT FILL-ORIGIN LEVEL: 0

PSCL2 TOTAL     ACCESS:     428349  HIT:     298813  MISS:     129536  HIT %:    69.7592  MISS %:    30.2408   MPKI: 0.64768
PSCL2 LOAD TRANSLATION ACCESS:     424428  HIT:     294892  MISS:     129536  HIT %:    69.4799  MISS %:    30.5201   MPKI: 0.64768
PSCL2 TRANSLATION FROM L1D PREFETCHER ACCESS:       3921  HIT:       3921  MISS:          0  HIT %:        100  MISS %:          0   MPKI: 0
PSCL2 PREFETCH  REQUESTED:          0  ISSUED:          0  USEFUL:          0  USELESS:          0
PSCL2 USEFUL LOAD PREFETCHES:          0 PREFETCH ISSUED TO LOWER LEVEL:          0  ACCURACY: -nan
PSCL2 TIMELY PREFETCHES:          0 LATE PREFETCHES: 0 DROPPED PREFETCHES: 0
PSCL2 PREFETCHES SAME FILL-ORIGIN LEVEL: 0 DIFFERENT FILL-ORIGIN LEVEL: 0

LLC TOTAL     ACCESS:    4178249  HIT:    3834162  MISS:     344087  HIT %:    91.7648  MISS %:     8.2352   MPKI: 1.72043
LLC LOAD      ACCESS:    3062429  HIT:    2846810  MISS:     215619  HIT %:    92.9592  MISS %:    7.04078   MPKI: 1.07809
LLC RFO       ACCESS:     172366  HIT:     118102  MISS:      54264  HIT %:    68.5182  MISS %:    31.4818   MPKI: 0.27132
LLC PREFETCH  ACCESS:     248720  HIT:     191669  MISS:      57051  HIT %:    77.0622  MISS %:    22.9378   MPKI: 0.285255
AGUS PREFETCH L1 MISS: 0
LLC WRITEBACK ACCESS:     475065  HIT:     472453  MISS:       2612  HIT %:    99.4502  MISS %:   0.549819   MPKI: 0.01306
LLC LOAD TRANSLATION ACCESS:     218587  HIT:     204148  MISS:      14439  HIT %:    93.3944  MISS %:    6.60561   MPKI: 0.072195
LLC TRANSLATION FROM L1D PREFETCHER ACCESS:       1082  HIT:        980  MISS:        102  HIT %:     90.573  MISS %:    9.42699   MPKI: 0.00051
LLC PREFETCH  REQUESTED:          0  ISSUED:          0  USEFUL:       2368  USELESS:      55472
LLC USEFUL LOAD PREFETCHES:       2368 PREFETCH ISSUED TO LOWER LEVEL:      57051  ACCURACY: 4.15067
LLC TIMELY PREFETCHES:       2368 LATE PREFETCHES: 0 DROPPED PREFETCHES: 0
LLC PREFETCHES SAME FILL-ORIGIN LEVEL: 0 DIFFERENT FILL-ORIGIN LEVEL: 0
LLC AVERAGE MISS LATENCY: 154.922 cycles
LLC RQ	ACCESS:    3454463	FORWARD:          0	MERGED:          0	TO_CACHE:    3454463
LLC WQ	ACCESS:     475065	FORWARD:          0	MERGED:          0	TO_CACHE:     475065
LLC PQ	ACCESS:     248719	FORWARD:          0	MERGED:          0	TO_CACHE:     248719

LLC Dense regions hint to LLC: 0

RAW hits: 2794711
Loads Generated: 44883947
Loads sent to L1D: 42089236
Stores Generated: 20434162
Stores sent to L1D: 20434181
Major fault: 0 Minor fault: 6471
Allocated PAGES: 6471
CPU 0 L1d next line prefetcher final stats

DRAM Statistics
 CHANNEL 0
 RQ ROW_BUFFER_HIT:      72679  ROW_BUFFER_MISS:     268794
 DBUS_CONGESTED:        148
 WQ ROW_BUFFER_HIT:      30806  ROW_BUFFER_MISS:     191245  FULL:          0

 AVG_CONGESTED_CYCLE: 4
 All warmup complete: 2
Channel 0 Bank busy for read cycles: 0
Channel 0 Bank busy for write cycles: 0
Channel 0
Rank 0
0banks busy for read cycles: 400812269
0banks busy for write cycles: 113020
1banks busy for read cycles: 24950134
1banks busy for write cycles: 14697336
2banks busy for read cycles: 5956403
2banks busy for write cycles: 4665453
3banks busy for read cycles: 1178383
3banks busy for write cycles: 1691536
4banks busy for read cycles: 321903
4banks busy for write cycles: 867634
5banks busy for read cycles: 118293
5banks busy for write cycles: 517493
6banks busy for read cycles: 67120
6banks busy for write cycles: 353356
7banks busy for read cycles: 51502
7banks busy for write cycles: 259085
8banks busy for read cycles: 116488
8banks busy for write cycles: 303522

CPU 0 Branch Prediction Accuracy: 99.8311% MPKI: 0.303505 Average ROB Occupancy at Mispredict: 49.0045
Branch types
NOT_BRANCH: 164070802 82.0354%
BRANCH_DIRECT_JUMP: 1867626 0.933813%
BRANCH_INDIRECT: 9379894 4.68995%
BRANCH_CONDITIONAL: 18176769 9.08838%
BRANCH_DIRECT_CALL: 2585717 1.29286%
BRANCH_INDIRECT_CALL: 665918 0.332959%
BRANCH_RETURN: 3252908 1.62645%
BRANCH_OTHER: 0 0%

DRAM PAGES: 1048576
Allocated PAGES: 6471
