
*** ChampSim Multicore Out-of-Order Simulator ***

Warmup Instructions: 50000000
Simulation Instructions: 200000000
Number of CPUs: 1
LLC sets: 2048
LLC ways: 16
Off-chip DRAM Size: 4096 MB Channels: 1 Width: 64-bit Data Rate: 6400 MT/s
CPU 0 runs traces/spec2k17/srv_71.champsimtrace.xz
.xz
BTB has LRU replacement policy
ITLB has LRU replacement policy
DTLB has LRU replacement policy
STLB has LRU replacement policy
L1I has LRU replacement policy
CPU 0 L2C next line prefetcher
L1D has LRU replacement policy
Initialize SRRIP state for L2C
Initialize DRRIP state for LLC
Heartbeat CPU 0 instructions: 10000002 cycles: 2851688 heartbeat IPC: 3.5067 cumulative IPC: 3.5067 (Simulation time: 0 hr 0 min 36 sec) 
Heartbeat CPU 0 instructions: 20000000 cycles: 5697128 heartbeat IPC: 3.51439 cumulative IPC: 3.51054 (Simulation time: 0 hr 1 min 11 sec) 
Heartbeat CPU 0 instructions: 30000001 cycles: 8538865 heartbeat IPC: 3.51897 cumulative IPC: 3.51335 (Simulation time: 0 hr 1 min 47 sec) 
*** Reached end of trace for Core: 0 Repeating trace: traces/spec2k17/srv_71.champsimtrace.xz
Heartbeat CPU 0 instructions: 40000003 cycles: 11382547 heartbeat IPC: 3.51657 cumulative IPC: 3.51415 (Simulation time: 0 hr 2 min 22 sec) 
Heartbeat CPU 0 instructions: 50000003 cycles: 14227180 heartbeat IPC: 3.51539 cumulative IPC: 3.5144 (Simulation time: 0 hr 2 min 56 sec) 

Warmup complete CPU 0 instructions: 50000003 cycles: 14227180 (Simulation time: 0 hr 2 min 56 sec) 

Heartbeat CPU 0 instructions: 60000000 cycles: 46888302 heartbeat IPC: 0.306174 cumulative IPC: 0.306174 (Simulation time: 0 hr 4 min 6 sec) 
*** Reached end of trace for Core: 0 Repeating trace: traces/spec2k17/srv_71.champsimtrace.xz
Heartbeat CPU 0 instructions: 70000000 cycles: 79522523 heartbeat IPC: 0.306427 cumulative IPC: 0.306301 (Simulation time: 0 hr 5 min 15 sec) 
Heartbeat CPU 0 instructions: 80000002 cycles: 112198827 heartbeat IPC: 0.306032 cumulative IPC: 0.306211 (Simulation time: 0 hr 6 min 20 sec) 
Heartbeat CPU 0 instructions: 90000001 cycles: 144843123 heartbeat IPC: 0.306332 cumulative IPC: 0.306241 (Simulation time: 0 hr 7 min 30 sec) 
*** Reached end of trace for Core: 0 Repeating trace: traces/spec2k17/srv_71.champsimtrace.xz
Heartbeat CPU 0 instructions: 100000003 cycles: 177407266 heartbeat IPC: 0.307086 cumulative IPC: 0.30641 (Simulation time: 0 hr 8 min 37 sec) 
Heartbeat CPU 0 instructions: 110000000 cycles: 210023131 heartbeat IPC: 0.306599 cumulative IPC: 0.306441 (Simulation time: 0 hr 9 min 43 sec) 
Heartbeat CPU 0 instructions: 120000001 cycles: 242689436 heartbeat IPC: 0.306126 cumulative IPC: 0.306396 (Simulation time: 0 hr 10 min 51 sec) 
*** Reached end of trace for Core: 0 Repeating trace: traces/spec2k17/srv_71.champsimtrace.xz
Heartbeat CPU 0 instructions: 130000000 cycles: 275305434 heartbeat IPC: 0.306598 cumulative IPC: 0.306422 (Simulation time: 0 hr 11 min 59 sec) 
Heartbeat CPU 0 instructions: 140000000 cycles: 307915452 heartbeat IPC: 0.306654 cumulative IPC: 0.306447 (Simulation time: 0 hr 12 min 57 sec) 
Heartbeat CPU 0 instructions: 150000001 cycles: 340533768 heartbeat IPC: 0.306576 cumulative IPC: 0.30646 (Simulation time: 0 hr 13 min 55 sec) 
*** Reached end of trace for Core: 0 Repeating trace: traces/spec2k17/srv_71.champsimtrace.xz
Heartbeat CPU 0 instructions: 160000000 cycles: 373098259 heartbeat IPC: 0.307083 cumulative IPC: 0.306517 (Simulation time: 0 hr 14 min 55 sec) 
Heartbeat CPU 0 instructions: 170000000 cycles: 405690675 heartbeat IPC: 0.30682 cumulative IPC: 0.306542 (Simulation time: 0 hr 15 min 51 sec) 
Heartbeat CPU 0 instructions: 180000000 cycles: 438346455 heartbeat IPC: 0.306224 cumulative IPC: 0.306518 (Simulation time: 0 hr 16 min 54 sec) 
*** Reached end of trace for Core: 0 Repeating trace: traces/spec2k17/srv_71.champsimtrace.xz
Heartbeat CPU 0 instructions: 190000003 cycles: 470944428 heartbeat IPC: 0.306768 cumulative IPC: 0.306535 (Simulation time: 0 hr 17 min 50 sec) 
Heartbeat CPU 0 instructions: 200000000 cycles: 503574259 heartbeat IPC: 0.306468 cumulative IPC: 0.306531 (Simulation time: 0 hr 18 min 48 sec) 
Heartbeat CPU 0 instructions: 210000001 cycles: 536222489 heartbeat IPC: 0.306295 cumulative IPC: 0.306516 (Simulation time: 0 hr 19 min 31 sec) 
*** Reached end of trace for Core: 0 Repeating trace: traces/spec2k17/srv_71.champsimtrace.xz
Heartbeat CPU 0 instructions: 220000000 cycles: 568760501 heartbeat IPC: 0.307333 cumulative IPC: 0.306564 (Simulation time: 0 hr 20 min 19 sec) 
Heartbeat CPU 0 instructions: 230000000 cycles: 601357559 heartbeat IPC: 0.306776 cumulative IPC: 0.306576 (Simulation time: 0 hr 21 min 9 sec) 
Heartbeat CPU 0 instructions: 240000003 cycles: 634042730 heartbeat IPC: 0.305949 cumulative IPC: 0.306543 (Simulation time: 0 hr 21 min 50 sec) 
Heartbeat CPU 0 instructions: 250000003 cycles: 666576430 heartbeat IPC: 0.307374 cumulative IPC: 0.306584 (Simulation time: 0 hr 22 min 31 sec) 
Finished CPU 0 instructions: 200000000 cycles: 652349250 cumulative IPC: 0.306584 (Simulation time: 0 hr 22 min 31 sec) 

ChampSim completed all CPUs

Region of Interest Statistics

CPU 0 cumulative IPC: 0.306584 instructions: 200000000 cycles: 652349250
ITLB TOTAL     ACCESS:   35736387  HIT:   33464777  MISS:    2271610  HIT %:    93.6434  MISS %:    6.35657   MPKI: 11.3581
ITLB LOAD TRANSLATION ACCESS:   35736387  HIT:   33464777  MISS:    2271610  HIT %:    93.6434  MISS %:    6.35657   MPKI: 11.3581
ITLB PREFETCH  REQUESTED:          0  ISSUED:          0  USEFUL:          0  USELESS:          0
ITLB USEFUL LOAD PREFETCHES:          0 PREFETCH ISSUED TO LOWER LEVEL:          0  ACCURACY: -nan
ITLB TIMELY PREFETCHES:          0 LATE PREFETCHES: 0 DROPPED PREFETCHES: 0
ITLB PREFETCHES SAME FILL-ORIGIN LEVEL: 0 DIFFERENT FILL-ORIGIN LEVEL: 0
ITLB AVERAGE MISS LATENCY: 9.1453 cycles
ITLB RQ	ACCESS:   42034221	FORWARD:          0	MERGED:    5755084	TO_CACHE:   36279137

DTLB TOTAL     ACCESS:   45910878  HIT:   43852702  MISS:    2058176  HIT %:     95.517  MISS %:    4.48298   MPKI: 10.2909
DTLB LOAD TRANSLATION ACCESS:   45910878  HIT:   43852702  MISS:    2058176  HIT %:     95.517  MISS %:    4.48298   MPKI: 10.2909
DTLB PREFETCH  REQUESTED:          0  ISSUED:          0  USEFUL:          0  USELESS:          0
DTLB USEFUL LOAD PREFETCHES:          0 PREFETCH ISSUED TO LOWER LEVEL:          0  ACCURACY: -nan
DTLB TIMELY PREFETCHES:          0 LATE PREFETCHES: 0 DROPPED PREFETCHES: 0
DTLB PREFETCHES SAME FILL-ORIGIN LEVEL: 0 DIFFERENT FILL-ORIGIN LEVEL: 0
DTLB AVERAGE MISS LATENCY: 9.23117 cycles
DTLB RQ	ACCESS:   60736192	FORWARD:          0	MERGED:   14764063	TO_CACHE:   45972129

STLB TOTAL     ACCESS:    5742470  HIT:    5713300  MISS:      29170  HIT %:     99.492  MISS %:    0.50797   MPKI: 0.14585
STLB LOAD TRANSLATION ACCESS:    4329786  HIT:    4301029  MISS:      28757  HIT %:    99.3358  MISS %:   0.664167   MPKI: 0.143785
STLB TRANSLATION FROM L1D PREFETCHER ACCESS:    1412684  HIT:    1412271  MISS:        413  HIT %:    99.9708  MISS %:  0.0292351   MPKI: 0.002065
STLB PREFETCH  REQUESTED:          0  ISSUED:          0  USEFUL:        402  USELESS:         11
STLB USEFUL LOAD PREFETCHES:        402 PREFETCH ISSUED TO LOWER LEVEL:          0  ACCURACY: inf
STLB TIMELY PREFETCHES:        402 LATE PREFETCHES: 650 DROPPED PREFETCHES: 8139
STLB PREFETCHES SAME FILL-ORIGIN LEVEL: 0 DIFFERENT FILL-ORIGIN LEVEL: 0
STLB AVERAGE MISS LATENCY: 90322.9 cycles
STLB RQ	ACCESS:    6037765	FORWARD:          0	MERGED:     283085	TO_CACHE:    5754680

STLB Hit, L1D data hit: 0
STLB Hit, L2C data hit: 0
STLB Hit, LLC data hit: 0
STLB Hit, LLC data miss: 0
STLB STLB hints to L2: 0
L1D TOTAL     ACCESS:   59841646  HIT:   53683969  MISS:    6157677  HIT %:      89.71  MISS %:      10.29   MPKI: 30.7884
L1D LOAD      ACCESS:   34054261  HIT:   29991448  MISS:    4062813  HIT %:    88.0696  MISS %:    11.9304   MPKI: 20.3141
L1D RFO       ACCESS:   24726384  HIT:   23503737  MISS:    1222647  HIT %:    95.0553  MISS %:    4.94471   MPKI: 6.11324
L1D PREFETCH  ACCESS:    1061001  HIT:     188784  MISS:     872217  HIT %:     17.793  MISS %:     82.207   MPKI: 4.36109
AGUS PREFETCH L1 MISS: 0
L1D PREFETCH  REQUESTED:    3445953  ISSUED:    3445953  USEFUL:     416216  USELESS:     456027
L1D USEFUL LOAD PREFETCHES:     416216 PREFETCH ISSUED TO LOWER LEVEL:    1279784  ACCURACY: 32.5224
L1D TIMELY PREFETCHES:     416216 LATE PREFETCHES: 407529 DROPPED PREFETCHES: 11212
L1D PREFETCHES SAME FILL-ORIGIN LEVEL: 1279784 DIFFERENT FILL-ORIGIN LEVEL: 0
L1D AVERAGE MISS LATENCY: 2.21611e+07 cycles
L1D RQ	ACCESS:   46538339	FORWARD:          0	MERGED:   12020281	TO_CACHE:   34198503
L1D WQ	ACCESS:   26687093	FORWARD:     319572	MERGED:     149404	TO_CACHE:   26537689
L1D PQ	ACCESS:    1737974	FORWARD:          0	MERGED:      29978	TO_CACHE:    1707979

L1D UNIQUE REGIONS ACCESSED: 0
L1D REGIONS CONFLICTS: 0
L1D Cross Page Prefetch Requests: 73770
L1D Same Page Prefetch Requests: 2084256
L1D ROI Sum of L1D PQ occupancy: 21851326
L1D PREFETCHES PUSHED FROM L2C: 0
L1I TOTAL     ACCESS:   40345327  HIT:   28857432  MISS:   11487895  HIT %:    71.5261  MISS %:    28.4739   MPKI: 57.4395
L1I LOAD      ACCESS:   40345327  HIT:   28857432  MISS:   11487895  HIT %:    71.5261  MISS %:    28.4739   MPKI: 57.4395
L1I PREFETCH  REQUESTED:          0  ISSUED:          0  USEFUL:          0  USELESS:          0
L1I USEFUL LOAD PREFETCHES:          0 PREFETCH ISSUED TO LOWER LEVEL:          0  ACCURACY: -nan
L1I TIMELY PREFETCHES:          0 LATE PREFETCHES: 0 DROPPED PREFETCHES: 0
L1I PREFETCHES SAME FILL-ORIGIN LEVEL: 0 DIFFERENT FILL-ORIGIN LEVEL: 0
L1I AVERAGE MISS LATENCY: 15.5887 cycles
L1I RQ	ACCESS:   58266950	FORWARD:          0	MERGED:   16232729	TO_CACHE:   42034221

BTB TOTAL     ACCESS:   30381247  HIT:   17587956  MISS:   12793291  HIT %:    57.8908  MISS %:    42.1092   MPKI: 63.9665
BTB BRANCH_DIRECT_JUMP	ACCESS:    1874465  HIT:    1039962  MISS:     834503
BTB BRANCH_INDIRECT	ACCESS:   12070930  HIT:    7181477  MISS:    4889453
BTB BRANCH_CONDITIONAL	ACCESS:    7200933  HIT:    5892738  MISS:    1308195
BTB BRANCH_DIRECT_CALL	ACCESS:    3894488  HIT:    1805611  MISS:    2088877
BTB BRANCH_INDIRECT_CALL	ACCESS:     722993  HIT:     337731  MISS:     385262
BTB BRANCH_RETURN	ACCESS:    4617438  HIT:    1330437  MISS:    3287001
BTB BRANCH_OTHER ACCESS:          0  HIT:          0  MISS:          0

L2C TOTAL     ACCESS:   20065827  HIT:   18931906  MISS:    1133921  HIT %:     94.349  MISS %:    5.65101   MPKI: 5.6696
L2C LOAD      ACCESS:   15143168  HIT:   14300474  MISS:     842694  HIT %:    94.4352  MISS %:    5.56485   MPKI: 4.21347
L2C DATA LOAD MPKI: 1.3339
L2C INSTRUCTION LOAD MPKI: 2.87956
L2C RFO       ACCESS:    1222609  HIT:    1151298  MISS:      71311  HIT %:    94.1673  MISS %:    5.83269   MPKI: 0.356555
L2C PREFETCH  ACCESS:    1279385  HIT:    1085788  MISS:     193597  HIT %:     84.868  MISS %:     15.132   MPKI: 0.967985
AGUS PREFETCH L1 MISS: 0
L2C DATA PREFETCH MPKI: 0.967985
L2C INSTRUCTION PREFETCH MPKI: 0
L2C WRITEBACK ACCESS:    2376649  HIT:    2358110  MISS:      18539  HIT %:      99.22  MISS %:   0.780048   MPKI: 0.092695
L2C LOAD TRANSLATION ACCESS:      29464  HIT:      22267  MISS:       7197  HIT %:    75.5736  MISS %:    24.4264   MPKI: 0.035985
L2C TRANSLATION FROM L1D PREFETCHER ACCESS:      14552  HIT:      13969  MISS:        583  HIT %:    95.9937  MISS %:    4.00632   MPKI: 0.002915
L2C PREFETCH  REQUESTED:          0  ISSUED:          0  USEFUL:       9070  USELESS:     185124
L2C USEFUL LOAD PREFETCHES:       9070 PREFETCH ISSUED TO LOWER LEVEL:     193597  ACCURACY: 4.68499
L2C TIMELY PREFETCHES:       9070 LATE PREFETCHES: 0 DROPPED PREFETCHES: 0
L2C PREFETCHES SAME FILL-ORIGIN LEVEL: 0 DIFFERENT FILL-ORIGIN LEVEL: 0
L2C AVERAGE MISS LATENCY: 30.945 cycles
L2C RQ	ACCESS:   16409805	FORWARD:          0	MERGED:          0	TO_CACHE:   16409794
L2C WQ	ACCESS:    2376649	FORWARD:        410	MERGED:          0	TO_CACHE:    2376649
L2C PQ	ACCESS:    1279784	FORWARD:          0	MERGED:          0	TO_CACHE:    1279385

L2C Instructions Evicting Data 259493
L2C Translations Evicting Data 4736
L2C Data Evicting Data 279290
L2C Instructions Evicting Instructions 313886
L2C Translations Evicting Instructions 2822
L2C Data Evicting Instructions 247452
L2C Instructions Evicting Translations 2534
L2C Translations Evicting Translations 222
L2C Data Evicting Translations 4947
L2C Dense regions hint from L2: 0
PSCL5 TOTAL     ACCESS:      37309  HIT:      37309  MISS:          0  HIT %:        100  MISS %:          0   MPKI: 0
PSCL5 LOAD TRANSLATION ACCESS:      28107  HIT:      28107  MISS:          0  HIT %:        100  MISS %:          0   MPKI: 0
PSCL5 TRANSLATION FROM L1D PREFETCHER ACCESS:       9202  HIT:       9202  MISS:          0  HIT %:        100  MISS %:          0   MPKI: 0
PSCL5 PREFETCH  REQUESTED:          0  ISSUED:          0  USEFUL:          0  USELESS:          0
PSCL5 USEFUL LOAD PREFETCHES:          0 PREFETCH ISSUED TO LOWER LEVEL:          0  ACCURACY: -nan
PSCL5 TIMELY PREFETCHES:          0 LATE PREFETCHES: 0 DROPPED PREFETCHES: 0
PSCL5 PREFETCHES SAME FILL-ORIGIN LEVEL: 0 DIFFERENT FILL-ORIGIN LEVEL: 0

PSCL4 TOTAL     ACCESS:      30873  HIT:      30724  MISS:        149  HIT %:    99.5174  MISS %:   0.482622   MPKI: 0.000745
PSCL4 LOAD TRANSLATION ACCESS:      25242  HIT:      25093  MISS:        149  HIT %:    99.4097  MISS %:   0.590286   MPKI: 0.000745
PSCL4 TRANSLATION FROM L1D PREFETCHER ACCESS:       5631  HIT:       5631  MISS:          0  HIT %:        100  MISS %:          0   MPKI: 0
PSCL4 PREFETCH  REQUESTED:          0  ISSUED:          0  USEFUL:          0  USELESS:          0
PSCL4 USEFUL LOAD PREFETCHES:          0 PREFETCH ISSUED TO LOWER LEVEL:          0  ACCURACY: -nan
PSCL4 TIMELY PREFETCHES:          0 LATE PREFETCHES: 0 DROPPED PREFETCHES: 0
PSCL4 PREFETCHES SAME FILL-ORIGIN LEVEL: 0 DIFFERENT FILL-ORIGIN LEVEL: 0

PSCL3 TOTAL     ACCESS:      35973  HIT:      35824  MISS:        149  HIT %:    99.5858  MISS %:     0.4142   MPKI: 0.000745
PSCL3 LOAD TRANSLATION ACCESS:      26962  HIT:      26813  MISS:        149  HIT %:    99.4474  MISS %:    0.55263   MPKI: 0.000745
PSCL3 TRANSLATION FROM L1D PREFETCHER ACCESS:       9011  HIT:       9011  MISS:          0  HIT %:        100  MISS %:          0   MPKI: 0
PSCL3 PREFETCH  REQUESTED:          0  ISSUED:          0  USEFUL:          0  USELESS:          0
PSCL3 USEFUL LOAD PREFETCHES:          0 PREFETCH ISSUED TO LOWER LEVEL:          0  ACCURACY: -nan
PSCL3 TIMELY PREFETCHES:          0 LATE PREFETCHES: 0 DROPPED PREFETCHES: 0
PSCL3 PREFETCHES SAME FILL-ORIGIN LEVEL: 0 DIFFERENT FILL-ORIGIN LEVEL: 0

PSCL2 TOTAL     ACCESS:      32083  HIT:      31002  MISS:       1081  HIT %:    96.6306  MISS %:    3.36939   MPKI: 0.005405
PSCL2 LOAD TRANSLATION ACCESS:      28129  HIT:      27048  MISS:       1081  HIT %:     96.157  MISS %:    3.84301   MPKI: 0.005405
PSCL2 TRANSLATION FROM L1D PREFETCHER ACCESS:       3954  HIT:       3954  MISS:          0  HIT %:        100  MISS %:          0   MPKI: 0
PSCL2 PREFETCH  REQUESTED:          0  ISSUED:          0  USEFUL:          0  USELESS:          0
PSCL2 USEFUL LOAD PREFETCHES:          0 PREFETCH ISSUED TO LOWER LEVEL:          0  ACCURACY: -nan
PSCL2 TIMELY PREFETCHES:          0 LATE PREFETCHES: 0 DROPPED PREFETCHES: 0
PSCL2 PREFETCHES SAME FILL-ORIGIN LEVEL: 0 DIFFERENT FILL-ORIGIN LEVEL: 0

LLC TOTAL     ACCESS:    1215746  HIT:    1204342  MISS:      11404  HIT %:     99.062  MISS %:   0.938025   MPKI: 0.05702
LLC LOAD      ACCESS:     842694  HIT:     838986  MISS:       3708  HIT %:      99.56  MISS %:   0.440017   MPKI: 0.01854
LLC RFO       ACCESS:      71311  HIT:      69867  MISS:       1444  HIT %:    97.9751  MISS %:    2.02493   MPKI: 0.00722
LLC PREFETCH  ACCESS:     193597  HIT:     187459  MISS:       6138  HIT %:    96.8295  MISS %:     3.1705   MPKI: 0.03069
AGUS PREFETCH L1 MISS: 0
LLC WRITEBACK ACCESS:     100364  HIT:     100280  MISS:         84  HIT %:    99.9163  MISS %:  0.0836953   MPKI: 0.00042
LLC LOAD TRANSLATION ACCESS:       7197  HIT:       7175  MISS:         22  HIT %:    99.6943  MISS %:   0.305683   MPKI: 0.00011
LLC TRANSLATION FROM L1D PREFETCHER ACCESS:        583  HIT:        575  MISS:          8  HIT %:    98.6278  MISS %:    1.37221   MPKI: 4e-05
LLC PREFETCH  REQUESTED:          0  ISSUED:          0  USEFUL:       2426  USELESS:       4316
LLC USEFUL LOAD PREFETCHES:       2426 PREFETCH ISSUED TO LOWER LEVEL:       6138  ACCURACY: 39.5243
LLC TIMELY PREFETCHES:       2426 LATE PREFETCHES: 0 DROPPED PREFETCHES: 0
LLC PREFETCHES SAME FILL-ORIGIN LEVEL: 0 DIFFERENT FILL-ORIGIN LEVEL: 0
LLC AVERAGE MISS LATENCY: 142.723 cycles
LLC RQ	ACCESS:     921786	FORWARD:          0	MERGED:          0	TO_CACHE:     921786
LLC WQ	ACCESS:     100364	FORWARD:          0	MERGED:          0	TO_CACHE:     100364
LLC PQ	ACCESS:     193597	FORWARD:          0	MERGED:          0	TO_CACHE:     193597

LLC Dense regions hint to LLC: 0

RAW hits: 1446181
Loads Generated: 47984521
Loads sent to L1D: 46538339
Stores Generated: 26687087
Stores sent to L1D: 26687093
Major fault: 0 Minor fault: 1956
Allocated PAGES: 1956
CPU 0 L1d next line prefetcher final stats

DRAM Statistics
 CHANNEL 0
 RQ ROW_BUFFER_HIT:       3102  ROW_BUFFER_MISS:       8218
 DBUS_CONGESTED:         10
 WQ ROW_BUFFER_HIT:        117  ROW_BUFFER_MISS:       1671  FULL:          0

 AVG_CONGESTED_CYCLE: 4
 All warmup complete: 2
Channel 0 Bank busy for read cycles: 0
Channel 0 Bank busy for write cycles: 0
Channel 0
Rank 0
0banks busy for read cycles: 651050780
0banks busy for write cycles: 1323
1banks busy for read cycles: 874498
1banks busy for write cycles: 185099
2banks busy for read cycles: 124977
2banks busy for write cycles: 23200
3banks busy for read cycles: 42298
3banks busy for write cycles: 9798
4banks busy for read cycles: 18262
4banks busy for write cycles: 4531
5banks busy for read cycles: 8001
5banks busy for write cycles: 1149
6banks busy for read cycles: 2449
6banks busy for write cycles: 1257
7banks busy for read cycles: 1002
7banks busy for write cycles: 408
8banks busy for read cycles: 219
8banks busy for write cycles: 0

CPU 0 Branch Prediction Accuracy: 99.8837% MPKI: 0.20904 Average ROB Occupancy at Mispredict: 29.6228
Branch types
NOT_BRANCH: 164064544 82.0323%
BRANCH_DIRECT_JUMP: 1874465 0.937233%
BRANCH_INDIRECT: 12070930 6.03547%
BRANCH_CONDITIONAL: 12755089 6.37754%
BRANCH_DIRECT_CALL: 3894488 1.94724%
BRANCH_INDIRECT_CALL: 722993 0.361496%
BRANCH_RETURN: 4617438 2.30872%
BRANCH_OTHER: 0 0%

DRAM PAGES: 1048576
Allocated PAGES: 1956
