
*** ChampSim Multicore Out-of-Order Simulator ***

Warmup Instructions: 50000000
Simulation Instructions: 200000000
Number of CPUs: 1
LLC sets: 2048
LLC ways: 16
Off-chip DRAM Size: 4096 MB Channels: 1 Width: 64-bit Data Rate: 6400 MT/s
CPU 0 runs traces/spec2k17/srv_52.champsimtrace.xz
.xz
BTB has LRU replacement policy
ITLB has LRU replacement policy
DTLB has LRU replacement policy
STLB has LRU replacement policy
L1I has LRU replacement policy
CPU 0 L2C next line prefetcher
L1D has LRU replacement policy
Initialize SRRIP state for L2C
Initialize DRRIP state for LLC
Heartbeat CPU 0 instructions: 10000000 cycles: 2947041 heartbeat IPC: 3.39323 cumulative IPC: 3.39323 (Simulation time: 0 hr 0 min 40 sec) 
Heartbeat CPU 0 instructions: 20000003 cycles: 5887396 heartbeat IPC: 3.40095 cumulative IPC: 3.39709 (Simulation time: 0 hr 1 min 20 sec) 
Heartbeat CPU 0 instructions: 30000000 cycles: 8820755 heartbeat IPC: 3.40906 cumulative IPC: 3.40107 (Simulation time: 0 hr 2 min 0 sec) 
*** Reached end of trace for Core: 0 Repeating trace: traces/spec2k17/srv_52.champsimtrace.xz
Heartbeat CPU 0 instructions: 40000001 cycles: 11761720 heartbeat IPC: 3.40024 cumulative IPC: 3.40086 (Simulation time: 0 hr 2 min 40 sec) 
Heartbeat CPU 0 instructions: 50000001 cycles: 14701564 heartbeat IPC: 3.40154 cumulative IPC: 3.401 (Simulation time: 0 hr 3 min 19 sec) 

Warmup complete CPU 0 instructions: 50000001 cycles: 14701564 (Simulation time: 0 hr 3 min 19 sec) 

Heartbeat CPU 0 instructions: 60000000 cycles: 47826052 heartbeat IPC: 0.301891 cumulative IPC: 0.301891 (Simulation time: 0 hr 4 min 28 sec) 
*** Reached end of trace for Core: 0 Repeating trace: traces/spec2k17/srv_52.champsimtrace.xz
Heartbeat CPU 0 instructions: 70000000 cycles: 80496853 heartbeat IPC: 0.306084 cumulative IPC: 0.303973 (Simulation time: 0 hr 5 min 36 sec) 
Heartbeat CPU 0 instructions: 80000000 cycles: 114913736 heartbeat IPC: 0.290555 cumulative IPC: 0.299365 (Simulation time: 0 hr 6 min 46 sec) 
Heartbeat CPU 0 instructions: 90000000 cycles: 147951207 heartbeat IPC: 0.302687 cumulative IPC: 0.300188 (Simulation time: 0 hr 7 min 54 sec) 
*** Reached end of trace for Core: 0 Repeating trace: traces/spec2k17/srv_52.champsimtrace.xz
Heartbeat CPU 0 instructions: 100000000 cycles: 180841545 heartbeat IPC: 0.304041 cumulative IPC: 0.300951 (Simulation time: 0 hr 9 min 4 sec) 
Heartbeat CPU 0 instructions: 110000000 cycles: 214467958 heartbeat IPC: 0.297385 cumulative IPC: 0.300351 (Simulation time: 0 hr 10 min 11 sec) 
Heartbeat CPU 0 instructions: 120000000 cycles: 248052162 heartbeat IPC: 0.297759 cumulative IPC: 0.299978 (Simulation time: 0 hr 11 min 17 sec) 
*** Reached end of trace for Core: 0 Repeating trace: traces/spec2k17/srv_52.champsimtrace.xz
Heartbeat CPU 0 instructions: 130000002 cycles: 280747476 heartbeat IPC: 0.305854 cumulative IPC: 0.3007 (Simulation time: 0 hr 12 min 26 sec) 
Heartbeat CPU 0 instructions: 140000000 cycles: 314504810 heartbeat IPC: 0.296232 cumulative IPC: 0.300197 (Simulation time: 0 hr 13 min 35 sec) 
Heartbeat CPU 0 instructions: 150000000 cycles: 347753495 heartbeat IPC: 0.300764 cumulative IPC: 0.300253 (Simulation time: 0 hr 14 min 45 sec) 
*** Reached end of trace for Core: 0 Repeating trace: traces/spec2k17/srv_52.champsimtrace.xz
Heartbeat CPU 0 instructions: 160000000 cycles: 380365097 heartbeat IPC: 0.306639 cumulative IPC: 0.300823 (Simulation time: 0 hr 15 min 52 sec) 
Heartbeat CPU 0 instructions: 170000000 cycles: 414388218 heartbeat IPC: 0.293918 cumulative IPC: 0.300235 (Simulation time: 0 hr 16 min 59 sec) 
Heartbeat CPU 0 instructions: 180000000 cycles: 447361039 heartbeat IPC: 0.30328 cumulative IPC: 0.300467 (Simulation time: 0 hr 18 min 6 sec) 
*** Reached end of trace for Core: 0 Repeating trace: traces/spec2k17/srv_52.champsimtrace.xz
Heartbeat CPU 0 instructions: 190000001 cycles: 480206621 heartbeat IPC: 0.304455 cumulative IPC: 0.300749 (Simulation time: 0 hr 19 min 14 sec) 
Heartbeat CPU 0 instructions: 200000001 cycles: 514016796 heartbeat IPC: 0.295769 cumulative IPC: 0.300411 (Simulation time: 0 hr 20 min 22 sec) 
Heartbeat CPU 0 instructions: 210000003 cycles: 547338888 heartbeat IPC: 0.300101 cumulative IPC: 0.300392 (Simulation time: 0 hr 21 min 31 sec) 
*** Reached end of trace for Core: 0 Repeating trace: traces/spec2k17/srv_52.champsimtrace.xz
Heartbeat CPU 0 instructions: 220000000 cycles: 580224482 heartbeat IPC: 0.304084 cumulative IPC: 0.300607 (Simulation time: 0 hr 22 min 37 sec) 
Heartbeat CPU 0 instructions: 230000001 cycles: 613839768 heartbeat IPC: 0.297484 cumulative IPC: 0.300432 (Simulation time: 0 hr 23 min 47 sec) 
Heartbeat CPU 0 instructions: 240000000 cycles: 647028515 heartbeat IPC: 0.301307 cumulative IPC: 0.300477 (Simulation time: 0 hr 24 min 57 sec) 
*** Reached end of trace for Core: 0 Repeating trace: traces/spec2k17/srv_52.champsimtrace.xz
Heartbeat CPU 0 instructions: 250000000 cycles: 680256248 heartbeat IPC: 0.300953 cumulative IPC: 0.300501 (Simulation time: 0 hr 26 min 6 sec) 
Finished CPU 0 instructions: 200000003 cycles: 665554729 cumulative IPC: 0.300501 (Simulation time: 0 hr 26 min 6 sec) 

ChampSim completed all CPUs

Region of Interest Statistics

CPU 0 cumulative IPC: 0.300501 instructions: 200000003 cycles: 665554729
ITLB TOTAL     ACCESS:   34830636  HIT:   33189547  MISS:    1641089  HIT %:    95.2884  MISS %:    4.71163   MPKI: 8.20544
ITLB LOAD TRANSLATION ACCESS:   34830636  HIT:   33189547  MISS:    1641089  HIT %:    95.2884  MISS %:    4.71163   MPKI: 8.20544
ITLB PREFETCH  REQUESTED:          0  ISSUED:          0  USEFUL:          0  USELESS:          0
ITLB USEFUL LOAD PREFETCHES:          0 PREFETCH ISSUED TO LOWER LEVEL:          0  ACCURACY: -nan
ITLB TIMELY PREFETCHES:          0 LATE PREFETCHES: 0 DROPPED PREFETCHES: 0
ITLB PREFETCHES SAME FILL-ORIGIN LEVEL: 0 DIFFERENT FILL-ORIGIN LEVEL: 0
ITLB AVERAGE MISS LATENCY: 10.1532 cycles
ITLB RQ	ACCESS:   41088138	FORWARD:          0	MERGED:    5804228	TO_CACHE:   35283910

DTLB TOTAL     ACCESS:   43544694  HIT:   41855437  MISS:    1689257  HIT %:    96.1206  MISS %:    3.87936   MPKI: 8.44628
DTLB LOAD TRANSLATION ACCESS:   43544694  HIT:   41855437  MISS:    1689257  HIT %:    96.1206  MISS %:    3.87936   MPKI: 8.44628
DTLB PREFETCH  REQUESTED:          0  ISSUED:          0  USEFUL:          0  USELESS:          0
DTLB USEFUL LOAD PREFETCHES:          0 PREFETCH ISSUED TO LOWER LEVEL:          0  ACCURACY: -nan
DTLB TIMELY PREFETCHES:          0 LATE PREFETCHES: 0 DROPPED PREFETCHES: 0
DTLB PREFETCHES SAME FILL-ORIGIN LEVEL: 0 DIFFERENT FILL-ORIGIN LEVEL: 0
DTLB AVERAGE MISS LATENCY: 13.1854 cycles
DTLB RQ	ACCESS:   58960418	FORWARD:          0	MERGED:   15302191	TO_CACHE:   43658227

STLB TOTAL     ACCESS:    4160635  HIT:    4014568  MISS:     146067  HIT %:    96.4893  MISS %:    3.51069   MPKI: 0.730335
STLB LOAD TRANSLATION ACCESS:    3330346  HIT:    3185366  MISS:     144980  HIT %:    95.6467  MISS %:     4.3533   MPKI: 0.7249
STLB TRANSLATION FROM L1D PREFETCHER ACCESS:     830289  HIT:     829202  MISS:       1087  HIT %:    99.8691  MISS %:   0.130918   MPKI: 0.005435
STLB PREFETCH  REQUESTED:          0  ISSUED:          0  USEFUL:        981  USELESS:        106
STLB USEFUL LOAD PREFETCHES:        981 PREFETCH ISSUED TO LOWER LEVEL:          0  ACCURACY: inf
STLB TIMELY PREFETCHES:        981 LATE PREFETCHES: 116 DROPPED PREFETCHES: 4447
STLB PREFETCHES SAME FILL-ORIGIN LEVEL: 0 DIFFERENT FILL-ORIGIN LEVEL: 0
STLB AVERAGE MISS LATENCY: 41830.6 cycles
STLB RQ	ACCESS:    4297322	FORWARD:          0	MERGED:     131882	TO_CACHE:    4165440

STLB Hit, L1D data hit: 0
STLB Hit, L2C data hit: 0
STLB Hit, LLC data hit: 0
STLB Hit, LLC data miss: 0
STLB STLB hints to L2: 0
L1D TOTAL     ACCESS:   57926039  HIT:   53419995  MISS:    4506044  HIT %:     92.221  MISS %:    7.77896   MPKI: 22.5302
L1D LOAD      ACCESS:   35390126  HIT:   32629066  MISS:    2761060  HIT %:    92.1982  MISS %:    7.80178   MPKI: 13.8053
L1D RFO       ACCESS:   21738255  HIT:   20569872  MISS:    1168383  HIT %:    94.6252  MISS %:    5.37478   MPKI: 5.84191
L1D PREFETCH  ACCESS:     797658  HIT:     221057  MISS:     576601  HIT %:    27.7133  MISS %:    72.2867   MPKI: 2.883
AGUS PREFETCH L1 MISS: 0
L1D PREFETCH  REQUESTED:    1951758  ISSUED:    1951758  USEFUL:     205263  USELESS:     371374
L1D USEFUL LOAD PREFETCHES:     205263 PREFETCH ISSUED TO LOWER LEVEL:     611063  ACCURACY: 33.5911
L1D TIMELY PREFETCHES:     205263 LATE PREFETCHES: 33071 DROPPED PREFETCHES: 4726
L1D PREFETCHES SAME FILL-ORIGIN LEVEL: 611063 DIFFERENT FILL-ORIGIN LEVEL: 0
L1D AVERAGE MISS LATENCY: 2.68267e+06 cycles
L1D RQ	ACCESS:   45979173	FORWARD:          0	MERGED:   10236441	TO_CACHE:   35555480
L1D WQ	ACCESS:   23620808	FORWARD:     188240	MERGED:     215870	TO_CACHE:   23404938
L1D PQ	ACCESS:     984782	FORWARD:          0	MERGED:      16818	TO_CACHE:     966976

L1D UNIQUE REGIONS ACCESSED: 0
L1D REGIONS CONFLICTS: 0
L1D Cross Page Prefetch Requests: 37563
L1D Same Page Prefetch Requests: 1209142
L1D ROI Sum of L1D PQ occupancy: 12688412
L1D PREFETCHES PUSHED FROM L2C: 0
L1I TOTAL     ACCESS:   39830687  HIT:   31330937  MISS:    8499750  HIT %:    78.6603  MISS %:    21.3397   MPKI: 42.4987
L1I LOAD      ACCESS:   39830687  HIT:   31330937  MISS:    8499750  HIT %:    78.6603  MISS %:    21.3397   MPKI: 42.4987
L1I PREFETCH  REQUESTED:          0  ISSUED:          0  USEFUL:          0  USELESS:          0
L1I USEFUL LOAD PREFETCHES:          0 PREFETCH ISSUED TO LOWER LEVEL:          0  ACCURACY: -nan
L1I TIMELY PREFETCHES:          0 LATE PREFETCHES: 0 DROPPED PREFETCHES: 0
L1I PREFETCHES SAME FILL-ORIGIN LEVEL: 0 DIFFERENT FILL-ORIGIN LEVEL: 0
L1I AVERAGE MISS LATENCY: 22.1137 cycles
L1I RQ	ACCESS:   60222038	FORWARD:          0	MERGED:   19133900	TO_CACHE:   41088138

BTB TOTAL     ACCESS:   30246500  HIT:   19435982  MISS:   10810518  HIT %:    64.2586  MISS %:    35.7414   MPKI: 54.0526
BTB BRANCH_DIRECT_JUMP	ACCESS:    1982982  HIT:    1218303  MISS:     764679
BTB BRANCH_INDIRECT	ACCESS:   12253769  HIT:    7844105  MISS:    4409664
BTB BRANCH_CONDITIONAL	ACCESS:    7055940  HIT:    6130165  MISS:     925775
BTB BRANCH_DIRECT_CALL	ACCESS:    3467834  HIT:    2019941  MISS:    1447893
BTB BRANCH_INDIRECT_CALL	ACCESS:    1009127  HIT:     529624  MISS:     479503
BTB BRANCH_RETURN	ACCESS:    4476848  HIT:    1693844  MISS:    2783004
BTB BRANCH_OTHER ACCESS:          0  HIT:          0  MISS:          0

L2C TOTAL     ACCESS:   15360077  HIT:   10825485  MISS:    4534592  HIT %:    70.4781  MISS %:    29.5219   MPKI: 22.673
L2C LOAD      ACCESS:   11227706  HIT:    7931574  MISS:    3296132  HIT %:    70.6429  MISS %:    29.3571   MPKI: 16.4807
L2C DATA LOAD MPKI: 5.31251
L2C INSTRUCTION LOAD MPKI: 11.1681
L2C RFO       ACCESS:    1166992  HIT:     526462  MISS:     640530  HIT %:    45.1127  MISS %:    54.8873   MPKI: 3.20265
L2C PREFETCH  ACCESS:     611063  HIT:     267185  MISS:     343878  HIT %:    43.7246  MISS %:    56.2754   MPKI: 1.71939
AGUS PREFETCH L1 MISS: 0
L2C DATA PREFETCH MPKI: 1.71939
L2C INSTRUCTION PREFETCH MPKI: 0
L2C WRITEBACK ACCESS:    2123054  HIT:    1988107  MISS:     134947  HIT %:    93.6437  MISS %:    6.35627   MPKI: 0.674735
L2C LOAD TRANSLATION ACCESS:     223107  HIT:     105707  MISS:     117400  HIT %:    47.3795  MISS %:    52.6205   MPKI: 0.587
L2C TRANSLATION FROM L1D PREFETCHER ACCESS:       8155  HIT:       6450  MISS:       1705  HIT %:    79.0926  MISS %:    20.9074   MPKI: 0.008525
L2C PREFETCH  REQUESTED:          0  ISSUED:          0  USEFUL:      27556  USELESS:     318081
L2C USEFUL LOAD PREFETCHES:      27556 PREFETCH ISSUED TO LOWER LEVEL:     343878  ACCURACY: 8.01331
L2C TIMELY PREFETCHES:      27556 LATE PREFETCHES: 0 DROPPED PREFETCHES: 0
L2C PREFETCHES SAME FILL-ORIGIN LEVEL: 0 DIFFERENT FILL-ORIGIN LEVEL: 0
L2C AVERAGE MISS LATENCY: 47.4379 cycles
L2C RQ	ACCESS:   12626009	FORWARD:          0	MERGED:          0	TO_CACHE:   12625976
L2C WQ	ACCESS:    2123055	FORWARD:         33	MERGED:          0	TO_CACHE:    2123055
L2C PQ	ACCESS:     611063	FORWARD:          0	MERGED:          0	TO_CACHE:     611063

L2C Instructions Evicting Data 942932
L2C Translations Evicting Data 67183
L2C Data Evicting Data 1102905
L2C Instructions Evicting Instructions 1243499
L2C Translations Evicting Instructions 47501
L2C Data Evicting Instructions 879628
L2C Instructions Evicting Translations 47199
L2C Translations Evicting Translations 4421
L2C Data Evicting Translations 64377
L2C Dense regions hint from L2: 0
PSCL5 TOTAL     ACCESS:     150514  HIT:     150514  MISS:          0  HIT %:        100  MISS %:          0   MPKI: 0
PSCL5 LOAD TRANSLATION ACCESS:     144864  HIT:     144864  MISS:          0  HIT %:        100  MISS %:          0   MPKI: 0
PSCL5 TRANSLATION FROM L1D PREFETCHER ACCESS:       5650  HIT:       5650  MISS:          0  HIT %:        100  MISS %:          0   MPKI: 0
PSCL5 PREFETCH  REQUESTED:          0  ISSUED:          0  USEFUL:          0  USELESS:          0
PSCL5 USEFUL LOAD PREFETCHES:          0 PREFETCH ISSUED TO LOWER LEVEL:          0  ACCURACY: -nan
PSCL5 TIMELY PREFETCHES:          0 LATE PREFETCHES: 0 DROPPED PREFETCHES: 0
PSCL5 PREFETCHES SAME FILL-ORIGIN LEVEL: 0 DIFFERENT FILL-ORIGIN LEVEL: 0

PSCL4 TOTAL     ACCESS:     147106  HIT:     145850  MISS:       1256  HIT %:    99.1462  MISS %:   0.853806   MPKI: 0.00628
PSCL4 LOAD TRANSLATION ACCESS:     141644  HIT:     140388  MISS:       1256  HIT %:    99.1133  MISS %:    0.88673   MPKI: 0.00628
PSCL4 TRANSLATION FROM L1D PREFETCHER ACCESS:       5462  HIT:       5462  MISS:          0  HIT %:        100  MISS %:          0   MPKI: 0
PSCL4 PREFETCH  REQUESTED:          0  ISSUED:          0  USEFUL:          0  USELESS:          0
PSCL4 USEFUL LOAD PREFETCHES:          0 PREFETCH ISSUED TO LOWER LEVEL:          0  ACCURACY: -nan
PSCL4 TIMELY PREFETCHES:          0 LATE PREFETCHES: 0 DROPPED PREFETCHES: 0
PSCL4 PREFETCHES SAME FILL-ORIGIN LEVEL: 0 DIFFERENT FILL-ORIGIN LEVEL: 0

PSCL3 TOTAL     ACCESS:     139000  HIT:     119647  MISS:      19353  HIT %:     86.077  MISS %:     13.923   MPKI: 0.096765
PSCL3 LOAD TRANSLATION ACCESS:     133941  HIT:     114588  MISS:      19353  HIT %:    85.5511  MISS %:    14.4489   MPKI: 0.096765
PSCL3 TRANSLATION FROM L1D PREFETCHER ACCESS:       5059  HIT:       5059  MISS:          0  HIT %:        100  MISS %:          0   MPKI: 0
PSCL3 PREFETCH  REQUESTED:          0  ISSUED:          0  USEFUL:          0  USELESS:          0
PSCL3 USEFUL LOAD PREFETCHES:          0 PREFETCH ISSUED TO LOWER LEVEL:          0  ACCURACY: -nan
PSCL3 TIMELY PREFETCHES:          0 LATE PREFETCHES: 0 DROPPED PREFETCHES: 0
PSCL3 PREFETCHES SAME FILL-ORIGIN LEVEL: 0 DIFFERENT FILL-ORIGIN LEVEL: 0

PSCL2 TOTAL     ACCESS:     148372  HIT:      90547  MISS:      57825  HIT %:     61.027  MISS %:     38.973   MPKI: 0.289125
PSCL2 LOAD TRANSLATION ACCESS:     145021  HIT:      87196  MISS:      57825  HIT %:    60.1265  MISS %:    39.8735   MPKI: 0.289125
PSCL2 TRANSLATION FROM L1D PREFETCHER ACCESS:       3351  HIT:       3351  MISS:          0  HIT %:        100  MISS %:          0   MPKI: 0
PSCL2 PREFETCH  REQUESTED:          0  ISSUED:          0  USEFUL:          0  USELESS:          0
PSCL2 USEFUL LOAD PREFETCHES:          0 PREFETCH ISSUED TO LOWER LEVEL:          0  ACCURACY: -nan
PSCL2 TIMELY PREFETCHES:          0 LATE PREFETCHES: 0 DROPPED PREFETCHES: 0
PSCL2 PREFETCHES SAME FILL-ORIGIN LEVEL: 0 DIFFERENT FILL-ORIGIN LEVEL: 0

LLC TOTAL     ACCESS:    5486729  HIT:    5089087  MISS:     397642  HIT %:    92.7527  MISS %:    7.24734   MPKI: 1.98821
LLC LOAD      ACCESS:    3296132  HIT:    3133830  MISS:     162302  HIT %:     95.076  MISS %:    4.92401   MPKI: 0.81151
LLC RFO       ACCESS:     640532  HIT:     480003  MISS:     160529  HIT %:    74.9382  MISS %:    25.0618   MPKI: 0.802645
LLC PREFETCH  ACCESS:     343878  HIT:     280658  MISS:      63220  HIT %:    81.6156  MISS %:    18.3844   MPKI: 0.3161
AGUS PREFETCH L1 MISS: 0
LLC WRITEBACK ACCESS:    1087082  HIT:    1085376  MISS:       1706  HIT %:    99.8431  MISS %:   0.156934   MPKI: 0.00853
LLC LOAD TRANSLATION ACCESS:     117400  HIT:     107657  MISS:       9743  HIT %:     91.701  MISS %:    8.29898   MPKI: 0.048715
LLC TRANSLATION FROM L1D PREFETCHER ACCESS:       1705  HIT:       1563  MISS:        142  HIT %:    91.6716  MISS %:    8.32845   MPKI: 0.00071
LLC PREFETCH  REQUESTED:          0  ISSUED:          0  USEFUL:       6908  USELESS:      56802
LLC USEFUL LOAD PREFETCHES:       6908 PREFETCH ISSUED TO LOWER LEVEL:      63220  ACCURACY: 10.9269
LLC TIMELY PREFETCHES:       6908 LATE PREFETCHES: 0 DROPPED PREFETCHES: 0
LLC PREFETCHES SAME FILL-ORIGIN LEVEL: 0 DIFFERENT FILL-ORIGIN LEVEL: 0
LLC AVERAGE MISS LATENCY: 209.035 cycles
LLC RQ	ACCESS:    4055782	FORWARD:          0	MERGED:          0	TO_CACHE:    4055781
LLC WQ	ACCESS:    1087082	FORWARD:          1	MERGED:          0	TO_CACHE:    1087082
LLC PQ	ACCESS:     343878	FORWARD:          0	MERGED:          0	TO_CACHE:     343878

LLC Dense regions hint to LLC: 0

RAW hits: 1995728
Loads Generated: 47974901
Loads sent to L1D: 45979173
Stores Generated: 23620832
Stores sent to L1D: 23620808
Major fault: 0 Minor fault: 5016
Allocated PAGES: 5016
CPU 0 L1d next line prefetcher final stats

DRAM Statistics
 CHANNEL 0
 RQ ROW_BUFFER_HIT:      83390  ROW_BUFFER_MISS:     312544
 DBUS_CONGESTED:        124
 WQ ROW_BUFFER_HIT:      29806  ROW_BUFFER_MISS:     227655  FULL:          0

 AVG_CONGESTED_CYCLE: 4
 All warmup complete: 2
Channel 0 Bank busy for read cycles: 0
Channel 0 Bank busy for write cycles: 0
Channel 0
Rank 0
0banks busy for read cycles: 613021451
0banks busy for write cycles: 102246
1banks busy for read cycles: 22143013
1banks busy for write cycles: 13707390
2banks busy for read cycles: 4931795
2banks busy for write cycles: 3821293
3banks busy for read cycles: 1361564
3banks busy for write cycles: 1366725
4banks busy for read cycles: 276193
4banks busy for write cycles: 549998
5banks busy for read cycles: 107144
5banks busy for write cycles: 250369
6banks busy for read cycles: 167694
6banks busy for write cycles: 137597
7banks busy for read cycles: 192101
7banks busy for write cycles: 184929
8banks busy for read cycles: 1397570
8banks busy for write cycles: 1835658

CPU 0 Branch Prediction Accuracy: 99.8298% MPKI: 0.297015 Average ROB Occupancy at Mispredict: 21.7732
Branch types
NOT_BRANCH: 165095776 82.5479%
BRANCH_DIRECT_JUMP: 1982982 0.991491%
BRANCH_INDIRECT: 12253769 6.12688%
BRANCH_CONDITIONAL: 11713944 5.85697%
BRANCH_DIRECT_CALL: 3467834 1.73392%
BRANCH_INDIRECT_CALL: 1009127 0.504563%
BRANCH_RETURN: 4476848 2.23842%
BRANCH_OTHER: 0 0%

DRAM PAGES: 1048576
Allocated PAGES: 5016
