
*** ChampSim Multicore Out-of-Order Simulator ***

Warmup Instructions: 50000000
Simulation Instructions: 200000000
Number of CPUs: 1
LLC sets: 2048
LLC ways: 16
Off-chip DRAM Size: 4096 MB Channels: 1 Width: 64-bit Data Rate: 6400 MT/s
CPU 0 runs traces/spec2k17/srv_57.champsimtrace.xz
.xz
BTB has LRU replacement policy
ITLB has LRU replacement policy
DTLB has LRU replacement policy
STLB has LRU replacement policy
L1I has LRU replacement policy
CPU 0 L2C next line prefetcher
L1D has LRU replacement policy
Initialize SRRIP state for L2C
Initialize DRRIP state for LLC
Heartbeat CPU 0 instructions: 10000001 cycles: 2833033 heartbeat IPC: 3.52979 cumulative IPC: 3.52979 (Simulation time: 0 hr 0 min 46 sec) 
Heartbeat CPU 0 instructions: 20000001 cycles: 5624568 heartbeat IPC: 3.58226 cumulative IPC: 3.55583 (Simulation time: 0 hr 1 min 31 sec) 
Heartbeat CPU 0 instructions: 30000002 cycles: 8432072 heartbeat IPC: 3.56188 cumulative IPC: 3.55784 (Simulation time: 0 hr 2 min 16 sec) 
*** Reached end of trace for Core: 0 Repeating trace: traces/spec2k17/srv_57.champsimtrace.xz
Heartbeat CPU 0 instructions: 40000002 cycles: 11255633 heartbeat IPC: 3.54163 cumulative IPC: 3.55378 (Simulation time: 0 hr 3 min 2 sec) 
Heartbeat CPU 0 instructions: 50000002 cycles: 14037873 heartbeat IPC: 3.59423 cumulative IPC: 3.56179 (Simulation time: 0 hr 3 min 47 sec) 

Warmup complete CPU 0 instructions: 50000002 cycles: 14037873 (Simulation time: 0 hr 3 min 47 sec) 

Heartbeat CPU 0 instructions: 60000001 cycles: 30526414 heartbeat IPC: 0.606482 cumulative IPC: 0.606482 (Simulation time: 0 hr 4 min 47 sec) 
*** Reached end of trace for Core: 0 Repeating trace: traces/spec2k17/srv_57.champsimtrace.xz
Heartbeat CPU 0 instructions: 70000000 cycles: 46986336 heartbeat IPC: 0.607536 cumulative IPC: 0.607009 (Simulation time: 0 hr 5 min 50 sec) 
Heartbeat CPU 0 instructions: 80000001 cycles: 64112417 heartbeat IPC: 0.583905 cumulative IPC: 0.599107 (Simulation time: 0 hr 6 min 49 sec) 
Heartbeat CPU 0 instructions: 90000000 cycles: 80526663 heartbeat IPC: 0.609227 cumulative IPC: 0.601605 (Simulation time: 0 hr 7 min 51 sec) 
*** Reached end of trace for Core: 0 Repeating trace: traces/spec2k17/srv_57.champsimtrace.xz
Heartbeat CPU 0 instructions: 100000002 cycles: 96730860 heartbeat IPC: 0.617124 cumulative IPC: 0.604646 (Simulation time: 0 hr 8 min 50 sec) 
Heartbeat CPU 0 instructions: 110000000 cycles: 113928972 heartbeat IPC: 0.581459 cumulative IPC: 0.600654 (Simulation time: 0 hr 9 min 50 sec) 
Heartbeat CPU 0 instructions: 120000003 cycles: 130371766 heartbeat IPC: 0.608169 cumulative IPC: 0.601716 (Simulation time: 0 hr 10 min 51 sec) 
*** Reached end of trace for Core: 0 Repeating trace: traces/spec2k17/srv_57.champsimtrace.xz
Heartbeat CPU 0 instructions: 130000003 cycles: 146778121 heartbeat IPC: 0.60952 cumulative IPC: 0.602681 (Simulation time: 0 hr 11 min 52 sec) 
Heartbeat CPU 0 instructions: 140000000 cycles: 163721032 heartbeat IPC: 0.590217 cumulative IPC: 0.60127 (Simulation time: 0 hr 12 min 51 sec) 
Heartbeat CPU 0 instructions: 150000000 cycles: 180094531 heartbeat IPC: 0.610743 cumulative IPC: 0.602204 (Simulation time: 0 hr 13 min 53 sec) 
*** Reached end of trace for Core: 0 Repeating trace: traces/spec2k17/srv_57.champsimtrace.xz
Heartbeat CPU 0 instructions: 160000001 cycles: 196802754 heartbeat IPC: 0.598508 cumulative IPC: 0.601866 (Simulation time: 0 hr 14 min 54 sec) 
Heartbeat CPU 0 instructions: 170000000 cycles: 213464080 heartbeat IPC: 0.600192 cumulative IPC: 0.601726 (Simulation time: 0 hr 15 min 55 sec) 
Heartbeat CPU 0 instructions: 180000000 cycles: 229845737 heartbeat IPC: 0.610439 cumulative IPC: 0.602388 (Simulation time: 0 hr 16 min 56 sec) 
*** Reached end of trace for Core: 0 Repeating trace: traces/spec2k17/srv_57.champsimtrace.xz
Heartbeat CPU 0 instructions: 190000002 cycles: 246729874 heartbeat IPC: 0.592272 cumulative IPC: 0.601654 (Simulation time: 0 hr 17 min 57 sec) 
Heartbeat CPU 0 instructions: 200000000 cycles: 263321141 heartbeat IPC: 0.602727 cumulative IPC: 0.601725 (Simulation time: 0 hr 18 min 58 sec) 
Heartbeat CPU 0 instructions: 210000001 cycles: 279674544 heartbeat IPC: 0.611494 cumulative IPC: 0.602326 (Simulation time: 0 hr 20 min 0 sec) 
*** Reached end of trace for Core: 0 Repeating trace: traces/spec2k17/srv_57.champsimtrace.xz
Heartbeat CPU 0 instructions: 220000000 cycles: 296691096 heartbeat IPC: 0.587663 cumulative IPC: 0.601444 (Simulation time: 0 hr 21 min 0 sec) 
Heartbeat CPU 0 instructions: 230000000 cycles: 313114863 heartbeat IPC: 0.608874 cumulative IPC: 0.601852 (Simulation time: 0 hr 22 min 0 sec) 
Heartbeat CPU 0 instructions: 240000002 cycles: 329260644 heartbeat IPC: 0.619357 cumulative IPC: 0.602748 (Simulation time: 0 hr 23 min 1 sec) 
*** Reached end of trace for Core: 0 Repeating trace: traces/spec2k17/srv_57.champsimtrace.xz
Heartbeat CPU 0 instructions: 250000000 cycles: 346420223 heartbeat IPC: 0.582765 cumulative IPC: 0.601717 (Simulation time: 0 hr 24 min 0 sec) 
Finished CPU 0 instructions: 200000002 cycles: 332382351 cumulative IPC: 0.601717 (Simulation time: 0 hr 24 min 0 sec) 

ChampSim completed all CPUs

Region of Interest Statistics

CPU 0 cumulative IPC: 0.601717 instructions: 200000002 cycles: 332382351
ITLB TOTAL     ACCESS:   34740415  HIT:   33902242  MISS:     838173  HIT %:    97.5873  MISS %:    2.41267   MPKI: 4.19086
ITLB LOAD TRANSLATION ACCESS:   34740415  HIT:   33902242  MISS:     838173  HIT %:    97.5873  MISS %:    2.41267   MPKI: 4.19086
ITLB PREFETCH  REQUESTED:          0  ISSUED:          0  USEFUL:          0  USELESS:          0
ITLB USEFUL LOAD PREFETCHES:          0 PREFETCH ISSUED TO LOWER LEVEL:          0  ACCURACY: -nan
ITLB TIMELY PREFETCHES:          0 LATE PREFETCHES: 0 DROPPED PREFETCHES: 0
ITLB PREFETCHES SAME FILL-ORIGIN LEVEL: 0 DIFFERENT FILL-ORIGIN LEVEL: 0
ITLB AVERAGE MISS LATENCY: 9.3542 cycles
ITLB RQ	ACCESS:   39588727	FORWARD:          0	MERGED:    4554666	TO_CACHE:   35034061

DTLB TOTAL     ACCESS:   40538112  HIT:   39598408  MISS:     939704  HIT %:    97.6819  MISS %:    2.31808   MPKI: 4.69852
DTLB LOAD TRANSLATION ACCESS:   40538112  HIT:   39598408  MISS:     939704  HIT %:    97.6819  MISS %:    2.31808   MPKI: 4.69852
DTLB PREFETCH  REQUESTED:          0  ISSUED:          0  USEFUL:          0  USELESS:          0
DTLB USEFUL LOAD PREFETCHES:          0 PREFETCH ISSUED TO LOWER LEVEL:          0  ACCURACY: -nan
DTLB TIMELY PREFETCHES:          0 LATE PREFETCHES: 0 DROPPED PREFETCHES: 0
DTLB PREFETCHES SAME FILL-ORIGIN LEVEL: 0 DIFFERENT FILL-ORIGIN LEVEL: 0
DTLB AVERAGE MISS LATENCY: 16.6623 cycles
DTLB RQ	ACCESS:   55800566	FORWARD:          0	MERGED:   15208602	TO_CACHE:   40591964

STLB TOTAL     ACCESS:    2053241  HIT:    1979834  MISS:      73407  HIT %:    96.4248  MISS %:    3.57518   MPKI: 0.367035
STLB LOAD TRANSLATION ACCESS:    1777877  HIT:    1704897  MISS:      72980  HIT %:    95.8951  MISS %:     4.1049   MPKI: 0.3649
STLB TRANSLATION FROM L1D PREFETCHER ACCESS:     275364  HIT:     274937  MISS:        427  HIT %:    99.8449  MISS %:   0.155067   MPKI: 0.002135
STLB PREFETCH  REQUESTED:          0  ISSUED:          0  USEFUL:        338  USELESS:         87
STLB USEFUL LOAD PREFETCHES:        338 PREFETCH ISSUED TO LOWER LEVEL:          0  ACCURACY: inf
STLB TIMELY PREFETCHES:        338 LATE PREFETCHES: 0 DROPPED PREFETCHES: 1075
STLB PREFETCHES SAME FILL-ORIGIN LEVEL: 0 DIFFERENT FILL-ORIGIN LEVEL: 0
STLB AVERAGE MISS LATENCY: 102.212 cycles
STLB RQ	ACCESS:    2114421	FORWARD:          0	MERGED:      59994	TO_CACHE:    2054427

STLB Hit, L1D data hit: 0
STLB Hit, L2C data hit: 0
STLB Hit, LLC data hit: 0
STLB Hit, LLC data miss: 0
STLB STLB hints to L2: 0
L1D TOTAL     ACCESS:   55496863  HIT:   54066936  MISS:    1429927  HIT %:    97.4234  MISS %:    2.57659   MPKI: 7.14963
L1D LOAD      ACCESS:   33590790  HIT:   32673388  MISS:     917402  HIT %:    97.2689  MISS %:    2.73111   MPKI: 4.58701
L1D RFO       ACCESS:   21656555  HIT:   21320147  MISS:     336408  HIT %:    98.4466  MISS %:    1.55338   MPKI: 1.68204
L1D PREFETCH  ACCESS:     249518  HIT:      73401  MISS:     176117  HIT %:    29.4171  MISS %:    70.5829   MPKI: 0.880585
AGUS PREFETCH L1 MISS: 0
L1D PREFETCH  REQUESTED:     678958  ISSUED:     678958  USEFUL:      64096  USELESS:     112031
L1D USEFUL LOAD PREFETCHES:      64096 PREFETCH ISSUED TO LOWER LEVEL:     209019  ACCURACY: 30.6652
L1D TIMELY PREFETCHES:      64096 LATE PREFETCHES: 32476 DROPPED PREFETCHES: 1208
L1D PREFETCHES SAME FILL-ORIGIN LEVEL: 209019 DIFFERENT FILL-ORIGIN LEVEL: 0
L1D AVERAGE MISS LATENCY: 4.07546e+06 cycles
L1D RQ	ACCESS:   48182274	FORWARD:          0	MERGED:   14268048	TO_CACHE:   33636526
L1D WQ	ACCESS:   22465122	FORWARD:     277761	MERGED:     301082	TO_CACHE:   22164040
L1D PQ	ACCESS:     342414	FORWARD:          0	MERGED:       5809	TO_CACHE:     336544

L1D UNIQUE REGIONS ACCESSED: 0
L1D REGIONS CONFLICTS: 0
L1D Cross Page Prefetch Requests: 16026
L1D Same Page Prefetch Requests: 417448
L1D ROI Sum of L1D PQ occupancy: 4369899
L1D PREFETCHES PUSHED FROM L2C: 0
L1I TOTAL     ACCESS:   39120901  HIT:   36595883  MISS:    2525018  HIT %:    93.5456  MISS %:     6.4544   MPKI: 12.6251
L1I LOAD      ACCESS:   39120901  HIT:   36595883  MISS:    2525018  HIT %:    93.5456  MISS %:     6.4544   MPKI: 12.6251
L1I PREFETCH  REQUESTED:          0  ISSUED:          0  USEFUL:          0  USELESS:          0
L1I USEFUL LOAD PREFETCHES:          0 PREFETCH ISSUED TO LOWER LEVEL:          0  ACCURACY: -nan
L1I TIMELY PREFETCHES:          0 LATE PREFETCHES: 0 DROPPED PREFETCHES: 0
L1I PREFETCHES SAME FILL-ORIGIN LEVEL: 0 DIFFERENT FILL-ORIGIN LEVEL: 0
L1I AVERAGE MISS LATENCY: 18.1101 cycles
L1I RQ	ACCESS:   62215525	FORWARD:          0	MERGED:   22626798	TO_CACHE:   39588727

BTB TOTAL     ACCESS:   32784881  HIT:   29386582  MISS:    3398299  HIT %:    89.6346  MISS %:    10.3654   MPKI: 16.9915
BTB BRANCH_DIRECT_JUMP	ACCESS:    3353840  HIT:    3191984  MISS:     161856
BTB BRANCH_INDIRECT	ACCESS:   13231468  HIT:   11990093  MISS:    1241375
BTB BRANCH_CONDITIONAL	ACCESS:    8791342  HIT:    8583888  MISS:     207454
BTB BRANCH_DIRECT_CALL	ACCESS:    2800344  HIT:    2510637  MISS:     289707
BTB BRANCH_INDIRECT_CALL	ACCESS:     903748  HIT:     779612  MISS:     124136
BTB BRANCH_RETURN	ACCESS:    3704139  HIT:    2330368  MISS:    1373771
BTB BRANCH_OTHER ACCESS:          0  HIT:          0  MISS:          0

L2C TOTAL     ACCESS:    4664243  HIT:    3844915  MISS:     819328  HIT %:    82.4338  MISS %:    17.5662   MPKI: 4.09664
L2C LOAD      ACCESS:    3409906  HIT:    2828546  MISS:     581360  HIT %:    82.9508  MISS %:    17.0492   MPKI: 2.9068
L2C DATA LOAD MPKI: 1.30421
L2C INSTRUCTION LOAD MPKI: 1.60258
L2C RFO       ACCESS:     335973  HIT:     246444  MISS:      89529  HIT %:    73.3523  MISS %:    26.6477   MPKI: 0.447645
L2C PREFETCH  ACCESS:     209019  HIT:     124800  MISS:      84219  HIT %:    59.7075  MISS %:    40.2925   MPKI: 0.421095
AGUS PREFETCH L1 MISS: 0
L2C DATA PREFETCH MPKI: 0.421095
L2C INSTRUCTION PREFETCH MPKI: 0
L2C WRITEBACK ACCESS:     568821  HIT:     555975  MISS:      12846  HIT %:    97.7416  MISS %:    2.25836   MPKI: 0.06423
L2C LOAD TRANSLATION ACCESS:     138613  HIT:      87731  MISS:      50882  HIT %:     63.292  MISS %:     36.708   MPKI: 0.25441
L2C TRANSLATION FROM L1D PREFETCHER ACCESS:       1911  HIT:       1419  MISS:        492  HIT %:    74.2543  MISS %:    25.7457   MPKI: 0.00246
L2C PREFETCH  REQUESTED:          0  ISSUED:          0  USEFUL:       5181  USELESS:      79853
L2C USEFUL LOAD PREFETCHES:       5181 PREFETCH ISSUED TO LOWER LEVEL:      84219  ACCURACY: 6.15182
L2C TIMELY PREFETCHES:       5181 LATE PREFETCHES: 0 DROPPED PREFETCHES: 0
L2C PREFETCHES SAME FILL-ORIGIN LEVEL: 0 DIFFERENT FILL-ORIGIN LEVEL: 0
L2C AVERAGE MISS LATENCY: 63.9329 cycles
L2C RQ	ACCESS:    3886450	FORWARD:          0	MERGED:          0	TO_CACHE:    3886403
L2C WQ	ACCESS:     568821	FORWARD:         47	MERGED:          0	TO_CACHE:     568821
L2C PQ	ACCESS:     209019	FORWARD:          0	MERGED:          0	TO_CACHE:     209019

L2C Instructions Evicting Data 127048
L2C Translations Evicting Data 36535
L2C Data Evicting Data 278337
L2C Instructions Evicting Instructions 183495
L2C Translations Evicting Instructions 8795
L2C Data Evicting Instructions 120929
L2C Instructions Evicting Translations 9974
L2C Translations Evicting Translations 6044
L2C Data Evicting Translations 35325
L2C Dense regions hint from L2: 0
PSCL5 TOTAL     ACCESS:      74482  HIT:      74482  MISS:          0  HIT %:        100  MISS %:          0   MPKI: 0
PSCL5 LOAD TRANSLATION ACCESS:      72980  HIT:      72980  MISS:          0  HIT %:        100  MISS %:          0   MPKI: 0
PSCL5 TRANSLATION FROM L1D PREFETCHER ACCESS:       1502  HIT:       1502  MISS:          0  HIT %:        100  MISS %:          0   MPKI: 0
PSCL5 PREFETCH  REQUESTED:          0  ISSUED:          0  USEFUL:          0  USELESS:          0
PSCL5 USEFUL LOAD PREFETCHES:          0 PREFETCH ISSUED TO LOWER LEVEL:          0  ACCURACY: -nan
PSCL5 TIMELY PREFETCHES:          0 LATE PREFETCHES: 0 DROPPED PREFETCHES: 0
PSCL5 PREFETCHES SAME FILL-ORIGIN LEVEL: 0 DIFFERENT FILL-ORIGIN LEVEL: 0

PSCL4 TOTAL     ACCESS:      73803  HIT:      73676  MISS:        127  HIT %:    99.8279  MISS %:    0.17208   MPKI: 0.000635
PSCL4 LOAD TRANSLATION ACCESS:      72308  HIT:      72181  MISS:        127  HIT %:    99.8244  MISS %:   0.175638   MPKI: 0.000635
PSCL4 TRANSLATION FROM L1D PREFETCHER ACCESS:       1495  HIT:       1495  MISS:          0  HIT %:        100  MISS %:          0   MPKI: 0
PSCL4 PREFETCH  REQUESTED:          0  ISSUED:          0  USEFUL:          0  USELESS:          0
PSCL4 USEFUL LOAD PREFETCHES:          0 PREFETCH ISSUED TO LOWER LEVEL:          0  ACCURACY: -nan
PSCL4 TIMELY PREFETCHES:          0 LATE PREFETCHES: 0 DROPPED PREFETCHES: 0
PSCL4 PREFETCHES SAME FILL-ORIGIN LEVEL: 0 DIFFERENT FILL-ORIGIN LEVEL: 0

PSCL3 TOTAL     ACCESS:      72519  HIT:      51957  MISS:      20562  HIT %:    71.6461  MISS %:    28.3539   MPKI: 0.10281
PSCL3 LOAD TRANSLATION ACCESS:      71206  HIT:      50644  MISS:      20562  HIT %:    71.1232  MISS %:    28.8768   MPKI: 0.10281
PSCL3 TRANSLATION FROM L1D PREFETCHER ACCESS:       1313  HIT:       1313  MISS:          0  HIT %:        100  MISS %:          0   MPKI: 0
PSCL3 PREFETCH  REQUESTED:          0  ISSUED:          0  USEFUL:          0  USELESS:          0
PSCL3 USEFUL LOAD PREFETCHES:          0 PREFETCH ISSUED TO LOWER LEVEL:          0  ACCURACY: -nan
PSCL3 TIMELY PREFETCHES:          0 LATE PREFETCHES: 0 DROPPED PREFETCHES: 0
PSCL3 PREFETCHES SAME FILL-ORIGIN LEVEL: 0 DIFFERENT FILL-ORIGIN LEVEL: 0

PSCL2 TOTAL     ACCESS:      74179  HIT:      29205  MISS:      44974  HIT %:     39.371  MISS %:     60.629   MPKI: 0.22487
PSCL2 LOAD TRANSLATION ACCESS:      73006  HIT:      28032  MISS:      44974  HIT %:    38.3968  MISS %:    61.6032   MPKI: 0.22487
PSCL2 TRANSLATION FROM L1D PREFETCHER ACCESS:       1173  HIT:       1173  MISS:          0  HIT %:        100  MISS %:          0   MPKI: 0
PSCL2 PREFETCH  REQUESTED:          0  ISSUED:          0  USEFUL:          0  USELESS:          0
PSCL2 USEFUL LOAD PREFETCHES:          0 PREFETCH ISSUED TO LOWER LEVEL:          0  ACCURACY: -nan
PSCL2 TIMELY PREFETCHES:          0 LATE PREFETCHES: 0 DROPPED PREFETCHES: 0
PSCL2 PREFETCHES SAME FILL-ORIGIN LEVEL: 0 DIFFERENT FILL-ORIGIN LEVEL: 0

LLC TOTAL     ACCESS:     965731  HIT:     763960  MISS:     201771  HIT %:    79.1069  MISS %:    20.8931   MPKI: 1.00885
LLC LOAD      ACCESS:     581360  HIT:     454003  MISS:     127357  HIT %:    78.0933  MISS %:    21.9067   MPKI: 0.636785
LLC RFO       ACCESS:      89529  HIT:      73156  MISS:      16373  HIT %:    81.7121  MISS %:    18.2879   MPKI: 0.081865
LLC PREFETCH  ACCESS:      84219  HIT:      45574  MISS:      38645  HIT %:    54.1137  MISS %:    45.8863   MPKI: 0.193225
AGUS PREFETCH L1 MISS: 0
LLC WRITEBACK ACCESS:     159249  HIT:     158427  MISS:        822  HIT %:    99.4838  MISS %:   0.516173   MPKI: 0.00411
LLC LOAD TRANSLATION ACCESS:      50882  HIT:      32365  MISS:      18517  HIT %:     63.608  MISS %:     36.392   MPKI: 0.092585
LLC TRANSLATION FROM L1D PREFETCHER ACCESS:        492  HIT:        435  MISS:         57  HIT %:    88.4146  MISS %:    11.5854   MPKI: 0.000285
LLC PREFETCH  REQUESTED:          0  ISSUED:          0  USEFUL:       1330  USELESS:      37640
LLC USEFUL LOAD PREFETCHES:       1330 PREFETCH ISSUED TO LOWER LEVEL:      38645  ACCURACY: 3.44158
LLC TIMELY PREFETCHES:       1330 LATE PREFETCHES: 0 DROPPED PREFETCHES: 0
LLC PREFETCHES SAME FILL-ORIGIN LEVEL: 0 DIFFERENT FILL-ORIGIN LEVEL: 0
LLC AVERAGE MISS LATENCY: 139.699 cycles
LLC RQ	ACCESS:     722263	FORWARD:          0	MERGED:          0	TO_CACHE:     722263
LLC WQ	ACCESS:     159249	FORWARD:          0	MERGED:          0	TO_CACHE:     159249
LLC PQ	ACCESS:      84219	FORWARD:          0	MERGED:          0	TO_CACHE:      84219

LLC Dense regions hint to LLC: 0

RAW hits: 2601016
Loads Generated: 50783293
Loads sent to L1D: 48182274
Stores Generated: 22465114
Stores sent to L1D: 22465122
Major fault: 0 Minor fault: 8932
Allocated PAGES: 8932
CPU 0 L1d next line prefetcher final stats

DRAM Statistics
 CHANNEL 0
 RQ ROW_BUFFER_HIT:      67098  ROW_BUFFER_MISS:     133834
 DBUS_CONGESTED:        116
 WQ ROW_BUFFER_HIT:       8748  ROW_BUFFER_MISS:      41597  FULL:          0

 AVG_CONGESTED_CYCLE: 5
 All warmup complete: 2
Channel 0 Bank busy for read cycles: 0
Channel 0 Bank busy for write cycles: 0
Channel 0
Rank 0
0banks busy for read cycles: 310871936
0banks busy for write cycles: 32240
1banks busy for read cycles: 10788349
1banks busy for write cycles: 4678344
2banks busy for read cycles: 2482100
2banks busy for write cycles: 1047216
3banks busy for read cycles: 1052564
3banks busy for write cycles: 276668
4banks busy for read cycles: 364468
4banks busy for write cycles: 83494
5banks busy for read cycles: 242400
5banks busy for write cycles: 39264
6banks busy for read cycles: 154834
6banks busy for write cycles: 32504
7banks busy for read cycles: 72851
7banks busy for write cycles: 40654
8banks busy for read cycles: 51470
8banks busy for write cycles: 70996

CPU 0 Branch Prediction Accuracy: 99.8045% MPKI: 0.370935 Average ROB Occupancy at Mispredict: 33.7226
Branch types
NOT_BRANCH: 162058956 81.0295%
BRANCH_DIRECT_JUMP: 3353840 1.67692%
BRANCH_INDIRECT: 13231468 6.61573%
BRANCH_CONDITIONAL: 13947212 6.97361%
BRANCH_DIRECT_CALL: 2800344 1.40017%
BRANCH_INDIRECT_CALL: 903748 0.451874%
BRANCH_RETURN: 3704139 1.85207%
BRANCH_OTHER: 0 0%

DRAM PAGES: 1048576
Allocated PAGES: 8932
