
*** ChampSim Multicore Out-of-Order Simulator ***

Warmup Instructions: 50000000
Simulation Instructions: 200000000
Number of CPUs: 1
LLC sets: 2048
LLC ways: 16
Off-chip DRAM Size: 4096 MB Channels: 1 Width: 64-bit Data Rate: 6400 MT/s
CPU 0 runs traces/spec2k17/srv_55.champsimtrace.xz
.xz
BTB has LRU replacement policy
ITLB has LRU replacement policy
DTLB has LRU replacement policy
STLB has LRU replacement policy
L1I has LRU replacement policy
CPU 0 L2C next line prefetcher
L1D has LRU replacement policy
Initialize SRRIP state for L2C
Initialize DRRIP state for LLC
Heartbeat CPU 0 instructions: 10000000 cycles: 2860518 heartbeat IPC: 3.49587 cumulative IPC: 3.49587 (Simulation time: 0 hr 0 min 39 sec) 
Heartbeat CPU 0 instructions: 20000002 cycles: 5726364 heartbeat IPC: 3.48937 cumulative IPC: 3.49262 (Simulation time: 0 hr 1 min 20 sec) 
Heartbeat CPU 0 instructions: 30000001 cycles: 8572153 heartbeat IPC: 3.51396 cumulative IPC: 3.4997 (Simulation time: 0 hr 1 min 58 sec) 
*** Reached end of trace for Core: 0 Repeating trace: traces/spec2k17/srv_55.champsimtrace.xz
Heartbeat CPU 0 instructions: 40000000 cycles: 11435682 heartbeat IPC: 3.49219 cumulative IPC: 3.49782 (Simulation time: 0 hr 2 min 37 sec) 
Heartbeat CPU 0 instructions: 50000002 cycles: 14290825 heartbeat IPC: 3.50245 cumulative IPC: 3.49875 (Simulation time: 0 hr 3 min 15 sec) 

Warmup complete CPU 0 instructions: 50000002 cycles: 14290825 (Simulation time: 0 hr 3 min 15 sec) 

Heartbeat CPU 0 instructions: 60000001 cycles: 37011646 heartbeat IPC: 0.440125 cumulative IPC: 0.440125 (Simulation time: 0 hr 4 min 18 sec) 
*** Reached end of trace for Core: 0 Repeating trace: traces/spec2k17/srv_55.champsimtrace.xz
Heartbeat CPU 0 instructions: 70000000 cycles: 58149866 heartbeat IPC: 0.473077 cumulative IPC: 0.456006 (Simulation time: 0 hr 5 min 18 sec) 
Heartbeat CPU 0 instructions: 80000003 cycles: 82302505 heartbeat IPC: 0.414034 cumulative IPC: 0.441101 (Simulation time: 0 hr 6 min 21 sec) 
Heartbeat CPU 0 instructions: 90000000 cycles: 103604980 heartbeat IPC: 0.469429 cumulative IPC: 0.447857 (Simulation time: 0 hr 7 min 24 sec) 
*** Reached end of trace for Core: 0 Repeating trace: traces/spec2k17/srv_55.champsimtrace.xz
Heartbeat CPU 0 instructions: 100000003 cycles: 126463708 heartbeat IPC: 0.43747 cumulative IPC: 0.445741 (Simulation time: 0 hr 8 min 25 sec) 
Heartbeat CPU 0 instructions: 110000000 cycles: 149793976 heartbeat IPC: 0.428628 cumulative IPC: 0.442794 (Simulation time: 0 hr 9 min 26 sec) 
Heartbeat CPU 0 instructions: 120000003 cycles: 172003966 heartbeat IPC: 0.450248 cumulative IPC: 0.443844 (Simulation time: 0 hr 10 min 28 sec) 
*** Reached end of trace for Core: 0 Repeating trace: traces/spec2k17/srv_55.champsimtrace.xz
Heartbeat CPU 0 instructions: 130000000 cycles: 193024502 heartbeat IPC: 0.475725 cumulative IPC: 0.447593 (Simulation time: 0 hr 11 min 29 sec) 
Heartbeat CPU 0 instructions: 140000002 cycles: 216694547 heartbeat IPC: 0.422475 cumulative IPC: 0.444656 (Simulation time: 0 hr 12 min 33 sec) 
Heartbeat CPU 0 instructions: 150000003 cycles: 238610146 heartbeat IPC: 0.456296 cumulative IPC: 0.445793 (Simulation time: 0 hr 13 min 35 sec) 
*** Reached end of trace for Core: 0 Repeating trace: traces/spec2k17/srv_55.champsimtrace.xz
Heartbeat CPU 0 instructions: 160000001 cycles: 261229805 heartbeat IPC: 0.442093 cumulative IPC: 0.445454 (Simulation time: 0 hr 14 min 37 sec) 
Heartbeat CPU 0 instructions: 170000000 cycles: 285103558 heartbeat IPC: 0.41887 cumulative IPC: 0.443111 (Simulation time: 0 hr 15 min 40 sec) 
Heartbeat CPU 0 instructions: 180000000 cycles: 305454108 heartbeat IPC: 0.491387 cumulative IPC: 0.446485 (Simulation time: 0 hr 16 min 40 sec) 
*** Reached end of trace for Core: 0 Repeating trace: traces/spec2k17/srv_55.champsimtrace.xz
Heartbeat CPU 0 instructions: 190000002 cycles: 327671320 heartbeat IPC: 0.450102 cumulative IPC: 0.446741 (Simulation time: 0 hr 17 min 42 sec) 
Heartbeat CPU 0 instructions: 200000000 cycles: 352706193 heartbeat IPC: 0.399443 cumulative IPC: 0.443242 (Simulation time: 0 hr 18 min 45 sec) 
Heartbeat CPU 0 instructions: 210000000 cycles: 373602029 heartbeat IPC: 0.478564 cumulative IPC: 0.445296 (Simulation time: 0 hr 19 min 48 sec) 
*** Reached end of trace for Core: 0 Repeating trace: traces/spec2k17/srv_55.champsimtrace.xz
Heartbeat CPU 0 instructions: 220000000 cycles: 395435503 heartbeat IPC: 0.458012 cumulative IPC: 0.446025 (Simulation time: 0 hr 20 min 50 sec) 
Heartbeat CPU 0 instructions: 230000001 cycles: 419206091 heartbeat IPC: 0.420688 cumulative IPC: 0.444537 (Simulation time: 0 hr 21 min 53 sec) 
Heartbeat CPU 0 instructions: 240000003 cycles: 441301750 heartbeat IPC: 0.452578 cumulative IPC: 0.444954 (Simulation time: 0 hr 22 min 54 sec) 
*** Reached end of trace for Core: 0 Repeating trace: traces/spec2k17/srv_55.champsimtrace.xz
Heartbeat CPU 0 instructions: 250000001 cycles: 463611062 heartbeat IPC: 0.448243 cumulative IPC: 0.445117 (Simulation time: 0 hr 23 min 57 sec) 
Finished CPU 0 instructions: 200000000 cycles: 449320254 cumulative IPC: 0.445117 (Simulation time: 0 hr 23 min 57 sec) 

ChampSim completed all CPUs

Region of Interest Statistics

CPU 0 cumulative IPC: 0.445117 instructions: 200000000 cycles: 449320254
ITLB TOTAL     ACCESS:   34473166  HIT:   33629763  MISS:     843403  HIT %:    97.5535  MISS %:    2.44655   MPKI: 4.21701
ITLB LOAD TRANSLATION ACCESS:   34473166  HIT:   33629763  MISS:     843403  HIT %:    97.5535  MISS %:    2.44655   MPKI: 4.21701
ITLB PREFETCH  REQUESTED:          0  ISSUED:          0  USEFUL:          0  USELESS:          0
ITLB USEFUL LOAD PREFETCHES:          0 PREFETCH ISSUED TO LOWER LEVEL:          0  ACCURACY: -nan
ITLB TIMELY PREFETCHES:          0 LATE PREFETCHES: 0 DROPPED PREFETCHES: 0
ITLB PREFETCHES SAME FILL-ORIGIN LEVEL: 0 DIFFERENT FILL-ORIGIN LEVEL: 0
ITLB AVERAGE MISS LATENCY: 10.7022 cycles
ITLB RQ	ACCESS:   39353934	FORWARD:          0	MERGED:    4639337	TO_CACHE:   34714597

DTLB TOTAL     ACCESS:   39165211  HIT:   38268760  MISS:     896451  HIT %:    97.7111  MISS %:     2.2889   MPKI: 4.48226
DTLB LOAD TRANSLATION ACCESS:   39165211  HIT:   38268760  MISS:     896451  HIT %:    97.7111  MISS %:     2.2889   MPKI: 4.48226
DTLB PREFETCH  REQUESTED:          0  ISSUED:          0  USEFUL:          0  USELESS:          0
DTLB USEFUL LOAD PREFETCHES:          0 PREFETCH ISSUED TO LOWER LEVEL:          0  ACCURACY: -nan
DTLB TIMELY PREFETCHES:          0 LATE PREFETCHES: 0 DROPPED PREFETCHES: 0
DTLB PREFETCHES SAME FILL-ORIGIN LEVEL: 0 DIFFERENT FILL-ORIGIN LEVEL: 0
DTLB AVERAGE MISS LATENCY: 16.7529 cycles
DTLB RQ	ACCESS:   51472853	FORWARD:          0	MERGED:   12238505	TO_CACHE:   39234348

STLB TOTAL     ACCESS:    2178554  HIT:    2064963  MISS:     113591  HIT %:    94.7859  MISS %:    5.21405   MPKI: 0.567955
STLB LOAD TRANSLATION ACCESS:    1739854  HIT:    1626901  MISS:     112953  HIT %:    93.5079  MISS %:     6.4921   MPKI: 0.564765
STLB TRANSLATION FROM L1D PREFETCHER ACCESS:     438700  HIT:     438062  MISS:        638  HIT %:    99.8546  MISS %:    0.14543   MPKI: 0.00319
STLB PREFETCH  REQUESTED:          0  ISSUED:          0  USEFUL:        519  USELESS:        119
STLB USEFUL LOAD PREFETCHES:        519 PREFETCH ISSUED TO LOWER LEVEL:          0  ACCURACY: inf
STLB TIMELY PREFETCHES:        519 LATE PREFETCHES: 119 DROPPED PREFETCHES: 1560
STLB PREFETCHES SAME FILL-ORIGIN LEVEL: 0 DIFFERENT FILL-ORIGIN LEVEL: 0
STLB AVERAGE MISS LATENCY: 73.977 cycles
STLB RQ	ACCESS:    2248214	FORWARD:          0	MERGED:      67813	TO_CACHE:    2180401

STLB Hit, L1D data hit: 0
STLB Hit, L2C data hit: 0
STLB Hit, LLC data hit: 0
STLB Hit, LLC data miss: 0
STLB STLB hints to L2: 0
L1D TOTAL     ACCESS:   50729703  HIT:   48220940  MISS:    2508763  HIT %:    95.0546  MISS %:    4.94535   MPKI: 12.5438
L1D LOAD      ACCESS:   31602055  HIT:   30099409  MISS:    1502646  HIT %:    95.2451  MISS %:     4.7549   MPKI: 7.51323
L1D RFO       ACCESS:   18721615  HIT:   18013984  MISS:     707631  HIT %:    96.2202  MISS %:    3.77975   MPKI: 3.53816
L1D PREFETCH  ACCESS:     406033  HIT:     107547  MISS:     298486  HIT %:    26.4873  MISS %:    73.5127   MPKI: 1.49243
AGUS PREFETCH L1 MISS: 0
L1D PREFETCH  REQUESTED:    1027940  ISSUED:    1027940  USEFUL:      95005  USELESS:     203482
L1D USEFUL LOAD PREFETCHES:      95005 PREFETCH ISSUED TO LOWER LEVEL:     319497  ACCURACY: 29.7358
L1D TIMELY PREFETCHES:      95005 LATE PREFETCHES: 20119 DROPPED PREFETCHES: 1777
L1D PREFETCHES SAME FILL-ORIGIN LEVEL: 319497 DIFFERENT FILL-ORIGIN LEVEL: 0
L1D AVERAGE MISS LATENCY: 1.96668e+06 cycles
L1D RQ	ACCESS:   43677775	FORWARD:          0	MERGED:   11675397	TO_CACHE:   31721035
L1D WQ	ACCESS:   20006828	FORWARD:     281736	MERGED:     255010	TO_CACHE:   19751818
L1D PQ	ACCESS:     519580	FORWARD:          0	MERGED:      10827	TO_CACHE:     508360

L1D UNIQUE REGIONS ACCESSED: 0
L1D REGIONS CONFLICTS: 0
L1D Cross Page Prefetch Requests: 18304
L1D Same Page Prefetch Requests: 641482
L1D ROI Sum of L1D PQ occupancy: 6765211
L1D PREFETCHES PUSHED FROM L2C: 0
L1I TOTAL     ACCESS:   38615393  HIT:   34060147  MISS:    4555246  HIT %:    88.2035  MISS %:    11.7965   MPKI: 22.7762
L1I LOAD      ACCESS:   38615393  HIT:   34060147  MISS:    4555246  HIT %:    88.2035  MISS %:    11.7965   MPKI: 22.7762
L1I PREFETCH  REQUESTED:          0  ISSUED:          0  USEFUL:          0  USELESS:          0
L1I USEFUL LOAD PREFETCHES:          0 PREFETCH ISSUED TO LOWER LEVEL:          0  ACCURACY: -nan
L1I TIMELY PREFETCHES:          0 LATE PREFETCHES: 0 DROPPED PREFETCHES: 0
L1I PREFETCHES SAME FILL-ORIGIN LEVEL: 0 DIFFERENT FILL-ORIGIN LEVEL: 0
L1I AVERAGE MISS LATENCY: 22.9247 cycles
L1I RQ	ACCESS:   59997796	FORWARD:          0	MERGED:   20643862	TO_CACHE:   39353934

BTB TOTAL     ACCESS:   31459047  HIT:   25911136  MISS:    5547911  HIT %:    82.3647  MISS %:    17.6353   MPKI: 27.7396
BTB BRANCH_DIRECT_JUMP	ACCESS:    3339084  HIT:    2970489  MISS:     368595
BTB BRANCH_INDIRECT	ACCESS:   11794433  HIT:    9601232  MISS:    2193201
BTB BRANCH_CONDITIONAL	ACCESS:   10201130  HIT:    9749255  MISS:     451875
BTB BRANCH_DIRECT_CALL	ACCESS:    2608135  HIT:    1905671  MISS:     702464
BTB BRANCH_INDIRECT_CALL	ACCESS:     454121  HIT:     253463  MISS:     200658
BTB BRANCH_RETURN	ACCESS:    3062144  HIT:    1431026  MISS:    1631118
BTB BRANCH_OTHER ACCESS:          0  HIT:          0  MISS:          0

L2C TOTAL     ACCESS:    8467023  HIT:    5710023  MISS:    2757000  HIT %:    67.4384  MISS %:    32.5616   MPKI: 13.785
L2C LOAD      ACCESS:    6037735  HIT:    4076052  MISS:    1961683  HIT %:    67.5096  MISS %:    32.4904   MPKI: 9.80842
L2C DATA LOAD MPKI: 3.35385
L2C INSTRUCTION LOAD MPKI: 6.45456
L2C RFO       ACCESS:     706728  HIT:     291372  MISS:     415356  HIT %:    41.2283  MISS %:    58.7717   MPKI: 2.07678
L2C PREFETCH  ACCESS:     319495  HIT:     117966  MISS:     201529  HIT %:    36.9226  MISS %:    63.0774   MPKI: 1.00764
AGUS PREFETCH L1 MISS: 0
L2C DATA PREFETCH MPKI: 1.00764
L2C INSTRUCTION PREFETCH MPKI: 0
L2C WRITEBACK ACCESS:    1227216  HIT:    1147057  MISS:      80159  HIT %:    93.4682  MISS %:    6.53178   MPKI: 0.400795
L2C LOAD TRANSLATION ACCESS:     172123  HIT:      74974  MISS:      97149  HIT %:    43.5584  MISS %:    56.4416   MPKI: 0.485745
L2C TRANSLATION FROM L1D PREFETCHER ACCESS:       3726  HIT:       2602  MISS:       1124  HIT %:    69.8336  MISS %:    30.1664   MPKI: 0.00562
L2C PREFETCH  REQUESTED:          0  ISSUED:          0  USEFUL:      16952  USELESS:     185683
L2C USEFUL LOAD PREFETCHES:      16952 PREFETCH ISSUED TO LOWER LEVEL:     201529  ACCURACY: 8.41169
L2C TIMELY PREFETCHES:      16952 LATE PREFETCHES: 0 DROPPED PREFETCHES: 0
L2C PREFETCHES SAME FILL-ORIGIN LEVEL: 0 DIFFERENT FILL-ORIGIN LEVEL: 0
L2C AVERAGE MISS LATENCY: 54.7862 cycles
L2C RQ	ACCESS:    6920361	FORWARD:          0	MERGED:          0	TO_CACHE:    6920313
L2C WQ	ACCESS:    1227216	FORWARD:         50	MERGED:          0	TO_CACHE:    1227216
L2C PQ	ACCESS:     319497	FORWARD:          0	MERGED:          0	TO_CACHE:     319495

L2C Instructions Evicting Data 623518
L2C Translations Evicting Data 50300
L2C Data Evicting Data 653684
L2C Instructions Evicting Instructions 622884
L2C Translations Evicting Instructions 44464
L2C Data Evicting Instructions 585826
L2C Instructions Evicting Translations 44510
L2C Translations Evicting Translations 3509
L2C Data Evicting Translations 48146
L2C Dense regions hint from L2: 0
PSCL5 TOTAL     ACCESS:     115151  HIT:     115151  MISS:          0  HIT %:        100  MISS %:          0   MPKI: 0
PSCL5 LOAD TRANSLATION ACCESS:     112834  HIT:     112834  MISS:          0  HIT %:        100  MISS %:          0   MPKI: 0
PSCL5 TRANSLATION FROM L1D PREFETCHER ACCESS:       2317  HIT:       2317  MISS:          0  HIT %:        100  MISS %:          0   MPKI: 0
PSCL5 PREFETCH  REQUESTED:          0  ISSUED:          0  USEFUL:          0  USELESS:          0
PSCL5 USEFUL LOAD PREFETCHES:          0 PREFETCH ISSUED TO LOWER LEVEL:          0  ACCURACY: -nan
PSCL5 TIMELY PREFETCHES:          0 LATE PREFETCHES: 0 DROPPED PREFETCHES: 0
PSCL5 PREFETCHES SAME FILL-ORIGIN LEVEL: 0 DIFFERENT FILL-ORIGIN LEVEL: 0

PSCL4 TOTAL     ACCESS:     113742  HIT:     113192  MISS:        550  HIT %:    99.5164  MISS %:    0.48355   MPKI: 0.00275
PSCL4 LOAD TRANSLATION ACCESS:     111523  HIT:     110973  MISS:        550  HIT %:    99.5068  MISS %:   0.493172   MPKI: 0.00275
PSCL4 TRANSLATION FROM L1D PREFETCHER ACCESS:       2219  HIT:       2219  MISS:          0  HIT %:        100  MISS %:          0   MPKI: 0
PSCL4 PREFETCH  REQUESTED:          0  ISSUED:          0  USEFUL:          0  USELESS:          0
PSCL4 USEFUL LOAD PREFETCHES:          0 PREFETCH ISSUED TO LOWER LEVEL:          0  ACCURACY: -nan
PSCL4 TIMELY PREFETCHES:          0 LATE PREFETCHES: 0 DROPPED PREFETCHES: 0
PSCL4 PREFETCHES SAME FILL-ORIGIN LEVEL: 0 DIFFERENT FILL-ORIGIN LEVEL: 0

PSCL3 TOTAL     ACCESS:     106099  HIT:      90667  MISS:      15432  HIT %:    85.4551  MISS %:    14.5449   MPKI: 0.07716
PSCL3 LOAD TRANSLATION ACCESS:     104462  HIT:      89030  MISS:      15432  HIT %:    85.2272  MISS %:    14.7728   MPKI: 0.07716
PSCL3 TRANSLATION FROM L1D PREFETCHER ACCESS:       1637  HIT:       1637  MISS:          0  HIT %:        100  MISS %:          0   MPKI: 0
PSCL3 PREFETCH  REQUESTED:          0  ISSUED:          0  USEFUL:          0  USELESS:          0
PSCL3 USEFUL LOAD PREFETCHES:          0 PREFETCH ISSUED TO LOWER LEVEL:          0  ACCURACY: -nan
PSCL3 TIMELY PREFETCHES:          0 LATE PREFETCHES: 0 DROPPED PREFETCHES: 0
PSCL3 PREFETCHES SAME FILL-ORIGIN LEVEL: 0 DIFFERENT FILL-ORIGIN LEVEL: 0

PSCL2 TOTAL     ACCESS:     114434  HIT:      70977  MISS:      43457  HIT %:    62.0244  MISS %:    37.9756   MPKI: 0.217285
PSCL2 LOAD TRANSLATION ACCESS:     112952  HIT:      69495  MISS:      43457  HIT %:    61.5261  MISS %:    38.4739   MPKI: 0.217285
PSCL2 TRANSLATION FROM L1D PREFETCHER ACCESS:       1482  HIT:       1482  MISS:          0  HIT %:        100  MISS %:          0   MPKI: 0
PSCL2 PREFETCH  REQUESTED:          0  ISSUED:          0  USEFUL:          0  USELESS:          0
PSCL2 USEFUL LOAD PREFETCHES:          0 PREFETCH ISSUED TO LOWER LEVEL:          0  ACCURACY: -nan
PSCL2 TIMELY PREFETCHES:          0 LATE PREFETCHES: 0 DROPPED PREFETCHES: 0
PSCL2 PREFETCHES SAME FILL-ORIGIN LEVEL: 0 DIFFERENT FILL-ORIGIN LEVEL: 0

LLC TOTAL     ACCESS:    3340994  HIT:    2942081  MISS:     398913  HIT %:    88.0601  MISS %:    11.9399   MPKI: 1.99456
LLC LOAD      ACCESS:    1961682  HIT:    1781770  MISS:     179912  HIT %:    90.8287  MISS %:    9.17131   MPKI: 0.89956
LLC RFO       ACCESS:     415356  HIT:     272193  MISS:     143163  HIT %:    65.5325  MISS %:    34.4675   MPKI: 0.715815
LLC PREFETCH  ACCESS:     201529  HIT:     141462  MISS:      60067  HIT %:    70.1944  MISS %:    29.8056   MPKI: 0.300335
AGUS PREFETCH L1 MISS: 0
LLC WRITEBACK ACCESS:     664154  HIT:     661787  MISS:       2367  HIT %:    99.6436  MISS %:   0.356393   MPKI: 0.011835
LLC LOAD TRANSLATION ACCESS:      97149  HIT:      83892  MISS:      13257  HIT %:     86.354  MISS %:     13.646   MPKI: 0.066285
LLC TRANSLATION FROM L1D PREFETCHER ACCESS:       1124  HIT:        977  MISS:        147  HIT %:    86.9217  MISS %:    13.0783   MPKI: 0.000735
LLC PREFETCH  REQUESTED:          0  ISSUED:          0  USEFUL:       4994  USELESS:      55239
LLC USEFUL LOAD PREFETCHES:       4994 PREFETCH ISSUED TO LOWER LEVEL:      60067  ACCURACY: 8.31405
LLC TIMELY PREFETCHES:       4994 LATE PREFETCHES: 0 DROPPED PREFETCHES: 0
LLC PREFETCHES SAME FILL-ORIGIN LEVEL: 0 DIFFERENT FILL-ORIGIN LEVEL: 0
LLC AVERAGE MISS LATENCY: 177.328 cycles
LLC RQ	ACCESS:    2475313	FORWARD:          0	MERGED:          0	TO_CACHE:    2475312
LLC WQ	ACCESS:     664154	FORWARD:          1	MERGED:          0	TO_CACHE:     664154
LLC PQ	ACCESS:     201529	FORWARD:          0	MERGED:          0	TO_CACHE:     201529

LLC Dense regions hint to LLC: 0

RAW hits: 1938687
Loads Generated: 45616462
Loads sent to L1D: 43677775
Stores Generated: 20006822
Stores sent to L1D: 20006828
Major fault: 0 Minor fault: 5873
Allocated PAGES: 5873
CPU 0 L1d next line prefetcher final stats

DRAM Statistics
 CHANNEL 0
 RQ ROW_BUFFER_HIT:      84941  ROW_BUFFER_MISS:     311601
 DBUS_CONGESTED:        137
 WQ ROW_BUFFER_HIT:      33064  ROW_BUFFER_MISS:     206450  FULL:          0

 AVG_CONGESTED_CYCLE: 4
 All warmup complete: 2
Channel 0 Bank busy for read cycles: 0
Channel 0 Bank busy for write cycles: 0
Channel 0
Rank 0
0banks busy for read cycles: 392166292
0banks busy for write cycles: 107615
1banks busy for read cycles: 25183487
1banks busy for write cycles: 14808413
2banks busy for read cycles: 5685632
2banks busy for write cycles: 4013656
3banks busy for read cycles: 1629385
3banks busy for write cycles: 1568968
4banks busy for read cycles: 400353
4banks busy for write cycles: 717288
5banks busy for read cycles: 155953
5banks busy for write cycles: 392363
6banks busy for read cycles: 140107
6banks busy for write cycles: 240933
7banks busy for read cycles: 161118
7banks busy for write cycles: 242720
8banks busy for read cycles: 665238
8banks busy for write cycles: 1040734

CPU 0 Branch Prediction Accuracy: 99.6074% MPKI: 0.711955 Average ROB Occupancy at Mispredict: 30.7165
Branch types
NOT_BRANCH: 163727781 81.8639%
BRANCH_DIRECT_JUMP: 3339084 1.66954%
BRANCH_INDIRECT: 11794433 5.89722%
BRANCH_CONDITIONAL: 15014282 7.50714%
BRANCH_DIRECT_CALL: 2608135 1.30407%
BRANCH_INDIRECT_CALL: 454121 0.22706%
BRANCH_RETURN: 3062144 1.53107%
BRANCH_OTHER: 0 0%

DRAM PAGES: 1048576
Allocated PAGES: 5873
