
*** ChampSim Multicore Out-of-Order Simulator ***

Warmup Instructions: 50000000
Simulation Instructions: 200000000
Number of CPUs: 1
LLC sets: 2048
LLC ways: 16
Off-chip DRAM Size: 4096 MB Channels: 1 Width: 64-bit Data Rate: 6400 MT/s
CPU 0 runs traces/spec2k17/server_024.champsimtrace.xz
.xz
BTB has LRU replacement policy
ITLB has LRU replacement policy
DTLB has LRU replacement policy
STLB has LRU replacement policy
L1I has LRU replacement policy
L1D has LRU replacement policy
Initialize SRRIP state for L2C
Initialize DRRIP state for LLC
Offsets elements: -63 -62 -61 -60 -59 -58 -57 -56 -55 -54 -53 -52 -51 -50 -49 -48 -47 -46 -45 -44 -43 -42 -41 -40 -39 -38 -37 -36 -35 -34 -33 -32 -31 -30 -29 -28 -27 -26 -25 -24 -23 -22 -21 -20 -19 -18 -17 -16 -15 -14 -13 -12 -11 -10 -9 -8 -7 -6 -5 -4 -3 -2 -1 1 2 3 4 5 6 7 8 9 10 11 12 13 14 15 16 17 18 19 20 21 22 23 24 25 26 27 28 29 30 31 32 33 34 35 36 37 38 39 40 41 42 43 44 45 46 47 48 49 50 51 52 53 54 55 56 57 58 59 60 61 62 63 
Potential of Offsets elements: 
rewards of Offsets elements: 15 166 0 42 55 0 1 0 0 0 37 42 11 24 13 2 0 0 2 176 158 169 60 23 0 45 65 10 1 0 1 119 281 0 58 52 248 214 61 2 41 7 206 4 602 83 316 91 633 145 75 211 276 217 203 783 286 280 948 927 704 719 877 1345 8360 4348 1881 3030 251 257 310 97 109 100 397 121 150 372 29 74 350 16 11 107 24 46 17 94 40 221 111 8 59 275 25 58 0 14 20 10 64 56 82 24 22 0 0 0 84 146 145 90 8 2 0 36 5 0 7 0 107 160 260 0 11 232 
Printing Sanity1
Heartbeat CPU 0 instructions: 10000001 cycles: 2825534 heartbeat IPC: 3.53915 cumulative IPC: 3.53915 (Simulation time: 0 hr 0 min 37 sec) 
Heartbeat CPU 0 instructions: 20000002 cycles: 5645357 heartbeat IPC: 3.54632 cumulative IPC: 3.54273 (Simulation time: 0 hr 1 min 13 sec) 
Heartbeat CPU 0 instructions: 30000002 cycles: 8476073 heartbeat IPC: 3.53268 cumulative IPC: 3.53938 (Simulation time: 0 hr 1 min 49 sec) 
Heartbeat CPU 0 instructions: 40000001 cycles: 11299891 heartbeat IPC: 3.5413 cumulative IPC: 3.53986 (Simulation time: 0 hr 2 min 25 sec) 
Heartbeat CPU 0 instructions: 50000003 cycles: 14116891 heartbeat IPC: 3.54988 cumulative IPC: 3.54186 (Simulation time: 0 hr 3 min 1 sec) 

Warmup complete CPU 0 instructions: 50000003 cycles: 14116891 (Simulation time: 0 hr 3 min 1 sec) 

Heartbeat CPU 0 instructions: 60000000 cycles: 43871740 heartbeat IPC: 0.33608 cumulative IPC: 0.33608 (Simulation time: 0 hr 4 min 3 sec) 
Heartbeat CPU 0 instructions: 70000000 cycles: 74265213 heartbeat IPC: 0.329018 cumulative IPC: 0.332511 (Simulation time: 0 hr 5 min 6 sec) 
*** Reached end of trace for Core: 0 Repeating trace: traces/spec2k17/server_024.champsimtrace.xz
Heartbeat CPU 0 instructions: 80000001 cycles: 104322677 heartbeat IPC: 0.332696 cumulative IPC: 0.332573 (Simulation time: 0 hr 6 min 8 sec) 
Heartbeat CPU 0 instructions: 90000003 cycles: 134449186 heartbeat IPC: 0.331934 cumulative IPC: 0.332413 (Simulation time: 0 hr 7 min 14 sec) 
Heartbeat CPU 0 instructions: 100000000 cycles: 164411513 heartbeat IPC: 0.333752 cumulative IPC: 0.33268 (Simulation time: 0 hr 8 min 12 sec) 
Heartbeat CPU 0 instructions: 110000000 cycles: 195239589 heartbeat IPC: 0.32438 cumulative IPC: 0.331267 (Simulation time: 0 hr 8 min 53 sec) 
Heartbeat CPU 0 instructions: 120000000 cycles: 225620256 heartbeat IPC: 0.329157 cumulative IPC: 0.330964 (Simulation time: 0 hr 9 min 38 sec) 
Heartbeat CPU 0 instructions: 130000000 cycles: 255056602 heartbeat IPC: 0.339716 cumulative IPC: 0.332033 (Simulation time: 0 hr 10 min 43 sec) 
Heartbeat CPU 0 instructions: 140000002 cycles: 285038453 heartbeat IPC: 0.333535 cumulative IPC: 0.332199 (Simulation time: 0 hr 11 min 50 sec) 
Heartbeat CPU 0 instructions: 150000001 cycles: 315163934 heartbeat IPC: 0.331945 cumulative IPC: 0.332174 (Simulation time: 0 hr 12 min 56 sec) 
*** Reached end of trace for Core: 0 Repeating trace: traces/spec2k17/server_024.champsimtrace.xz
Heartbeat CPU 0 instructions: 160000000 cycles: 345062954 heartbeat IPC: 0.334459 cumulative IPC: 0.33238 (Simulation time: 0 hr 14 min 1 sec) 
Heartbeat CPU 0 instructions: 170000000 cycles: 375182426 heartbeat IPC: 0.332011 cumulative IPC: 0.33235 (Simulation time: 0 hr 14 min 42 sec) 
Heartbeat CPU 0 instructions: 180000000 cycles: 405499798 heartbeat IPC: 0.329844 cumulative IPC: 0.332156 (Simulation time: 0 hr 15 min 23 sec) 
Heartbeat CPU 0 instructions: 190000001 cycles: 436194105 heartbeat IPC: 0.325793 cumulative IPC: 0.331693 (Simulation time: 0 hr 16 min 4 sec) 
Heartbeat CPU 0 instructions: 200000000 cycles: 466274449 heartbeat IPC: 0.332443 cumulative IPC: 0.331743 (Simulation time: 0 hr 16 min 53 sec) 
Heartbeat CPU 0 instructions: 210000000 cycles: 495720328 heartbeat IPC: 0.339606 cumulative IPC: 0.332224 (Simulation time: 0 hr 17 min 59 sec) 
Heartbeat CPU 0 instructions: 220000000 cycles: 525968047 heartbeat IPC: 0.330603 cumulative IPC: 0.332128 (Simulation time: 0 hr 19 min 5 sec) 
Heartbeat CPU 0 instructions: 230000000 cycles: 555739794 heartbeat IPC: 0.335889 cumulative IPC: 0.332335 (Simulation time: 0 hr 19 min 54 sec) 
*** Reached end of trace for Core: 0 Repeating trace: traces/spec2k17/server_024.champsimtrace.xz
Heartbeat CPU 0 instructions: 240000002 cycles: 585682553 heartbeat IPC: 0.333971 cumulative IPC: 0.33242 (Simulation time: 0 hr 20 min 35 sec) 
Heartbeat CPU 0 instructions: 250000003 cycles: 616007305 heartbeat IPC: 0.329764 cumulative IPC: 0.332286 (Simulation time: 0 hr 21 min 18 sec) 
Finished CPU 0 instructions: 200000000 cycles: 601890414 cumulative IPC: 0.332286 (Simulation time: 0 hr 21 min 18 sec) 

ChampSim completed all CPUs

Region of Interest Statistics

CPU 0 cumulative IPC: 0.332286 instructions: 200000000 cycles: 601890414
ITLB TOTAL     ACCESS:   34439514  HIT:   32611562  MISS:    1827952  HIT %:    94.6923  MISS %:    5.30772   MPKI: 9.13976
ITLB LOAD TRANSLATION ACCESS:   34439514  HIT:   32611562  MISS:    1827952  HIT %:    94.6923  MISS %:    5.30772   MPKI: 9.13976
ITLB PREFETCH  REQUESTED:          0  ISSUED:          0  USEFUL:          0  USELESS:          0
ITLB USEFUL LOAD PREFETCHES:          0 PREFETCH ISSUED TO LOWER LEVEL:          0  ACCURACY: -nan
ITLB TIMELY PREFETCHES:          0 LATE PREFETCHES: 0 DROPPED PREFETCHES: 0
ITLB PREFETCHES SAME FILL-ORIGIN LEVEL: 0 DIFFERENT FILL-ORIGIN LEVEL: 0
ITLB AVERAGE MISS LATENCY: 9.07059 cycles
ITLB RQ	ACCESS:   40231991	FORWARD:          0	MERGED:    5353961	TO_CACHE:   34878030

DTLB TOTAL     ACCESS:   45295360  HIT:   43505557  MISS:    1789803  HIT %:    96.0486  MISS %:     3.9514   MPKI: 8.94901
DTLB LOAD TRANSLATION ACCESS:   45295360  HIT:   43505557  MISS:    1789803  HIT %:    96.0486  MISS %:     3.9514   MPKI: 8.94901
DTLB PREFETCH  REQUESTED:          0  ISSUED:          0  USEFUL:          0  USELESS:          0
DTLB USEFUL LOAD PREFETCHES:          0 PREFETCH ISSUED TO LOWER LEVEL:          0  ACCURACY: -nan
DTLB TIMELY PREFETCHES:          0 LATE PREFETCHES: 0 DROPPED PREFETCHES: 0
DTLB PREFETCHES SAME FILL-ORIGIN LEVEL: 0 DIFFERENT FILL-ORIGIN LEVEL: 0
DTLB AVERAGE MISS LATENCY: 9.29462 cycles
DTLB RQ	ACCESS:   59806245	FORWARD:          0	MERGED:   14441191	TO_CACHE:   45365054

STLB TOTAL     ACCESS:   11542149  HIT:   11530569  MISS:      11580  HIT %:    99.8997  MISS %:   0.100328   MPKI: 0.0579
STLB LOAD TRANSLATION ACCESS:    3617755  HIT:    3606475  MISS:      11280  HIT %:    99.6882  MISS %:   0.311796   MPKI: 0.0564
STLB TRANSLATION FROM L1D PREFETCHER ACCESS:    7924394  HIT:    7924094  MISS:        300  HIT %:    99.9962  MISS %: 0.00378578   MPKI: 0.0015
STLB PREFETCH  REQUESTED:          0  ISSUED:          0  USEFUL:        278  USELESS:         22
STLB USEFUL LOAD PREFETCHES:        278 PREFETCH ISSUED TO LOWER LEVEL:          0  ACCURACY: inf
STLB TIMELY PREFETCHES:        278 LATE PREFETCHES: 144 DROPPED PREFETCHES: 24013
STLB PREFETCHES SAME FILL-ORIGIN LEVEL: 0 DIFFERENT FILL-ORIGIN LEVEL: 0
STLB AVERAGE MISS LATENCY: 1.51245e+06 cycles
STLB RQ	ACCESS:   13263881	FORWARD:          0	MERGED:    1692386	TO_CACHE:   11571495

STLB Hit, L1D data hit: 0
STLB Hit, L2C data hit: 0
STLB Hit, LLC data hit: 0
STLB Hit, LLC data miss: 0
STLB STLB hints to L2: 0
L1D TOTAL     ACCESS:   67367891  HIT:   62405493  MISS:    4962398  HIT %:    92.6339  MISS %:    7.36612   MPKI: 24.812
L1D LOAD      ACCESS:   33566863  HIT:   31075657  MISS:    2491206  HIT %:    92.5784  MISS %:    7.42162   MPKI: 12.456
L1D RFO       ACCESS:   24433255  HIT:   23371339  MISS:    1061916  HIT %:    95.6538  MISS %:    4.34619   MPKI: 5.30958
L1D PREFETCH  ACCESS:    9367773  HIT:    7958497  MISS:    1409276  HIT %:    84.9561  MISS %:    15.0439   MPKI: 7.04638
AGUS PREFETCH L1 MISS: 0
L1D PREFETCH  REQUESTED:   29560964  ISSUED:   29560964  USEFUL:     499274  USELESS:     909994
L1D USEFUL LOAD PREFETCHES:     499274 PREFETCH ISSUED TO LOWER LEVEL:    1549438  ACCURACY: 32.2229
L1D TIMELY PREFETCHES:     499274 LATE PREFETCHES: 138670 DROPPED PREFETCHES: 34474
L1D PREFETCHES SAME FILL-ORIGIN LEVEL: 1549438 DIFFERENT FILL-ORIGIN LEVEL: 0
L1D AVERAGE MISS LATENCY: 8.91533e+06 cycles
L1D RQ	ACCESS:   46968802	FORWARD:          0	MERGED:   13013005	TO_CACHE:   33660404
L1D WQ	ACCESS:   26317198	FORWARD:     302227	MERGED:     171357	TO_CACHE:   26145841
L1D PQ	ACCESS:   19914838	FORWARD:          0	MERGED:   10261878	TO_CACHE:    9646126

L1D UNIQUE REGIONS ACCESSED: 0
L1D REGIONS CONFLICTS: 0
L1D Cross Page Prefetch Requests: 1057904
L1D Same Page Prefetch Requests: 23427213
L1D ROI Sum of L1D PQ occupancy: 123171175
L1D PREFETCHES PUSHED FROM L2C: 0
L1I TOTAL     ACCESS:   38816523  HIT:   29200855  MISS:    9615668  HIT %:    75.2279  MISS %:    24.7721   MPKI: 48.0783
L1I LOAD      ACCESS:   38816523  HIT:   29200855  MISS:    9615668  HIT %:    75.2279  MISS %:    24.7721   MPKI: 48.0783
L1I PREFETCH  REQUESTED:          0  ISSUED:          0  USEFUL:          0  USELESS:          0
L1I USEFUL LOAD PREFETCHES:          0 PREFETCH ISSUED TO LOWER LEVEL:          0  ACCURACY: -nan
L1I TIMELY PREFETCHES:          0 LATE PREFETCHES: 0 DROPPED PREFETCHES: 0
L1I PREFETCHES SAME FILL-ORIGIN LEVEL: 0 DIFFERENT FILL-ORIGIN LEVEL: 0
L1I AVERAGE MISS LATENCY: 17.2536 cycles
L1I RQ	ACCESS:   57804740	FORWARD:          0	MERGED:   17572749	TO_CACHE:   40231991

BTB TOTAL     ACCESS:   30276053  HIT:   18932727  MISS:   11343326  HIT %:    62.5337  MISS %:    37.4663   MPKI: 56.7166
BTB BRANCH_DIRECT_JUMP	ACCESS:    2183763  HIT:    1387870  MISS:     795893
BTB BRANCH_INDIRECT	ACCESS:   11358220  HIT:    7100301  MISS:    4257919
BTB BRANCH_CONDITIONAL	ACCESS:    8733205  HIT:    7588000  MISS:    1145205
BTB BRANCH_DIRECT_CALL	ACCESS:    3381429  HIT:    1525546  MISS:    1855883
BTB BRANCH_INDIRECT_CALL	ACCESS:     619012  HIT:     244340  MISS:     374672
BTB BRANCH_RETURN	ACCESS:    4000424  HIT:    1086670  MISS:    2913754
BTB BRANCH_OTHER ACCESS:          0  HIT:          0  MISS:          0

L2C TOTAL     ACCESS:   16557474  HIT:   14531744  MISS:    2025730  HIT %:    87.7655  MISS %:    12.2345   MPKI: 10.1287
L2C LOAD      ACCESS:   11968199  HIT:   10627007  MISS:    1341192  HIT %:    88.7937  MISS %:    11.2063   MPKI: 6.70596
L2C DATA LOAD MPKI: 1.73199
L2C INSTRUCTION LOAD MPKI: 4.97398
L2C RFO       ACCESS:    1060419  HIT:     792520  MISS:     267899  HIT %:    74.7365  MISS %:    25.2635   MPKI: 1.3395
L2C PREFETCH  ACCESS:    1549437  HIT:    1205399  MISS:     344038  HIT %:    77.7959  MISS %:    22.2041   MPKI: 1.72019
AGUS PREFETCH L1 MISS: 0
L2C DATA PREFETCH MPKI: 1.72019
L2C INSTRUCTION PREFETCH MPKI: 0
L2C WRITEBACK ACCESS:    1929280  HIT:    1868621  MISS:      60659  HIT %:    96.8559  MISS %:    3.14413   MPKI: 0.303295
L2C LOAD TRANSLATION ACCESS:      12348  HIT:       4167  MISS:       8181  HIT %:    33.7464  MISS %:    66.2536   MPKI: 0.040905
L2C TRANSLATION FROM L1D PREFETCHER ACCESS:      37791  HIT:      34030  MISS:       3761  HIT %:    90.0479  MISS %:     9.9521   MPKI: 0.018805
L2C PREFETCH  REQUESTED:          0  ISSUED:          0  USEFUL:      18939  USELESS:     328810
L2C USEFUL LOAD PREFETCHES:      18939 PREFETCH ISSUED TO LOWER LEVEL:     344038  ACCURACY: 5.50492
L2C TIMELY PREFETCHES:      18939 LATE PREFETCHES: 0 DROPPED PREFETCHES: 0
L2C PREFETCHES SAME FILL-ORIGIN LEVEL: 0 DIFFERENT FILL-ORIGIN LEVEL: 0
L2C AVERAGE MISS LATENCY: 41.3596 cycles
L2C RQ	ACCESS:   13078767	FORWARD:          0	MERGED:          0	TO_CACHE:   13078757
L2C WQ	ACCESS:    1929280	FORWARD:         11	MERGED:          0	TO_CACHE:    1929280
L2C PQ	ACCESS:    1549438	FORWARD:          0	MERGED:          0	TO_CACHE:    1549437

L2C Instructions Evicting Data 466177
L2C Translations Evicting Data 8422
L2C Data Evicting Data 516803
L2C Instructions Evicting Instructions 525091
L2C Translations Evicting Instructions 3391
L2C Data Evicting Instructions 433487
L2C Instructions Evicting Translations 3527
L2C Translations Evicting Translations 129
L2C Data Evicting Translations 8044
L2C Dense regions hint from L2: 0
PSCL5 TOTAL     ACCESS:      35603  HIT:      35603  MISS:          0  HIT %:        100  MISS %:          0   MPKI: 0
PSCL5 LOAD TRANSLATION ACCESS:      11146  HIT:      11146  MISS:          0  HIT %:        100  MISS %:          0   MPKI: 0
PSCL5 TRANSLATION FROM L1D PREFETCHER ACCESS:      24457  HIT:      24457  MISS:          0  HIT %:        100  MISS %:          0   MPKI: 0
PSCL5 PREFETCH  REQUESTED:          0  ISSUED:          0  USEFUL:          0  USELESS:          0
PSCL5 USEFUL LOAD PREFETCHES:          0 PREFETCH ISSUED TO LOWER LEVEL:          0  ACCURACY: -nan
PSCL5 TIMELY PREFETCHES:          0 LATE PREFETCHES: 0 DROPPED PREFETCHES: 0
PSCL5 PREFETCHES SAME FILL-ORIGIN LEVEL: 0 DIFFERENT FILL-ORIGIN LEVEL: 0

PSCL4 TOTAL     ACCESS:      28181  HIT:      28146  MISS:         35  HIT %:    99.8758  MISS %:   0.124197   MPKI: 0.000175
PSCL4 LOAD TRANSLATION ACCESS:      10609  HIT:      10574  MISS:         35  HIT %:    99.6701  MISS %:   0.329909   MPKI: 0.000175
PSCL4 TRANSLATION FROM L1D PREFETCHER ACCESS:      17572  HIT:      17572  MISS:          0  HIT %:        100  MISS %:          0   MPKI: 0
PSCL4 PREFETCH  REQUESTED:          0  ISSUED:          0  USEFUL:          0  USELESS:          0
PSCL4 USEFUL LOAD PREFETCHES:          0 PREFETCH ISSUED TO LOWER LEVEL:          0  ACCURACY: -nan
PSCL4 TIMELY PREFETCHES:          0 LATE PREFETCHES: 0 DROPPED PREFETCHES: 0
PSCL4 PREFETCHES SAME FILL-ORIGIN LEVEL: 0 DIFFERENT FILL-ORIGIN LEVEL: 0

PSCL3 TOTAL     ACCESS:      34876  HIT:      34841  MISS:         35  HIT %:    99.8996  MISS %:   0.100356   MPKI: 0.000175
PSCL3 LOAD TRANSLATION ACCESS:      11121  HIT:      11086  MISS:         35  HIT %:    99.6853  MISS %:    0.31472   MPKI: 0.000175
PSCL3 TRANSLATION FROM L1D PREFETCHER ACCESS:      23755  HIT:      23755  MISS:          0  HIT %:        100  MISS %:          0   MPKI: 0
PSCL3 PREFETCH  REQUESTED:          0  ISSUED:          0  USEFUL:          0  USELESS:          0
PSCL3 USEFUL LOAD PREFETCHES:          0 PREFETCH ISSUED TO LOWER LEVEL:          0  ACCURACY: -nan
PSCL3 TIMELY PREFETCHES:          0 LATE PREFETCHES: 0 DROPPED PREFETCHES: 0
PSCL3 PREFETCHES SAME FILL-ORIGIN LEVEL: 0 DIFFERENT FILL-ORIGIN LEVEL: 0

PSCL2 TOTAL     ACCESS:      23561  HIT:      22420  MISS:       1141  HIT %:    95.1573  MISS %:    4.84275   MPKI: 0.005705
PSCL2 LOAD TRANSLATION ACCESS:      11154  HIT:      10013  MISS:       1141  HIT %:    89.7705  MISS %:    10.2295   MPKI: 0.005705
PSCL2 TRANSLATION FROM L1D PREFETCHER ACCESS:      12407  HIT:      12407  MISS:          0  HIT %:        100  MISS %:          0   MPKI: 0
PSCL2 PREFETCH  REQUESTED:          0  ISSUED:          0  USEFUL:          0  USELESS:          0
PSCL2 USEFUL LOAD PREFETCHES:          0 PREFETCH ISSUED TO LOWER LEVEL:          0  ACCURACY: -nan
PSCL2 TIMELY PREFETCHES:          0 LATE PREFETCHES: 0 DROPPED PREFETCHES: 0
PSCL2 PREFETCHES SAME FILL-ORIGIN LEVEL: 0 DIFFERENT FILL-ORIGIN LEVEL: 0

LLC TOTAL     ACCESS:    2337986  HIT:    2193290  MISS:     144696  HIT %:    93.8111  MISS %:    6.18892   MPKI: 0.72348
LLC LOAD      ACCESS:    1341191  HIT:    1315172  MISS:      26019  HIT %:      98.06  MISS %:    1.93999   MPKI: 0.130095
LLC RFO       ACCESS:     267898  HIT:     191626  MISS:      76272  HIT %:    71.5295  MISS %:    28.4705   MPKI: 0.38136
LLC PREFETCH  ACCESS:     344036  HIT:     303348  MISS:      40688  HIT %:    88.1733  MISS %:    11.8267   MPKI: 0.20344
AGUS PREFETCH L1 MISS: 0
LLC WRITEBACK ACCESS:     372919  HIT:     371924  MISS:        995  HIT %:    99.7332  MISS %:   0.266814   MPKI: 0.004975
LLC LOAD TRANSLATION ACCESS:       8181  HIT:       7498  MISS:        683  HIT %:    91.6514  MISS %:    8.34861   MPKI: 0.003415
LLC TRANSLATION FROM L1D PREFETCHER ACCESS:       3761  HIT:       3722  MISS:         39  HIT %:     98.963  MISS %:    1.03696   MPKI: 0.000195
LLC PREFETCH  REQUESTED:          0  ISSUED:          0  USEFUL:       2452  USELESS:      38964
LLC USEFUL LOAD PREFETCHES:       2452 PREFETCH ISSUED TO LOWER LEVEL:      40688  ACCURACY: 6.02635
LLC TIMELY PREFETCHES:       2452 LATE PREFETCHES: 0 DROPPED PREFETCHES: 0
LLC PREFETCHES SAME FILL-ORIGIN LEVEL: 0 DIFFERENT FILL-ORIGIN LEVEL: 0
LLC AVERAGE MISS LATENCY: 171.348 cycles
LLC RQ	ACCESS:    1621033	FORWARD:          0	MERGED:          0	TO_CACHE:    1621031
LLC WQ	ACCESS:     372919	FORWARD:          4	MERGED:          0	TO_CACHE:     372919
LLC PQ	ACCESS:     344038	FORWARD:          0	MERGED:          0	TO_CACHE:     344036

LLC Dense regions hint to LLC: 0

RAW hits: 1395170
Loads Generated: 48363973
Loads sent to L1D: 46968802
Stores Generated: 26317189
Stores sent to L1D: 26317198
Major fault: 0 Minor fault: 2466
Allocated PAGES: 2466
ucb ended
-----------------------------------------------------------------------------------------------------------------------------------------------------------------------------------------------------
Offsets elements: -63 -62 -61 -60 -59 -58 -57 -56 -55 -54 -53 -52 -51 -50 -49 -48 -47 -46 -45 -44 -43 -42 -41 -40 -39 -38 -37 -36 -35 -34 -33 -32 -31 -30 -29 -28 -27 -26 -25 -24 -23 -22 -21 -20 -19 -18 -17 -16 -15 -14 -13 -12 -11 -10 -9 -8 -7 -6 -5 -4 -3 -2 -1 1 2 3 4 5 6 7 8 9 10 11 12 13 14 15 16 17 18 19 20 21 22 23 24 25 26 27 28 29 30 31 32 33 34 35 36 37 38 39 40 41 42 43 44 45 46 47 48 49 50 51 52 53 54 55 56 57 58 59 60 61 62 63 
Potential of Offsets elements: 43.5122 194.512 28.5122 70.5122 83.5122 28.5122 29.5122 28.5122 28.5122 28.5122 65.5122 70.5122 39.5122 52.5122 41.5122 30.5122 28.5122 28.5122 30.5122 204.512 186.512 197.512 88.5122 51.5122 28.5122 73.5122 93.5122 38.5122 29.5122 28.5122 29.5122 147.512 309.512 28.5122 86.5122 80.5122 276.512 242.512 89.5122 30.5122 69.5122 35.5122 234.512 32.5122 630.512 111.512 344.512 119.512 661.512 173.512 103.512 239.512 304.512 245.512 231.512 811.512 314.512 308.512 976.512 955.512 732.512 747.512 905.512 1373.51 978.462 4348.1 1909.51 3058.51 279.512 285.512 338.512 125.512 137.512 128.512 425.512 149.512 178.512 400.512 57.5122 102.512 378.512 44.5122 39.5122 135.512 52.5122 74.5122 45.5122 122.512 68.5122 249.512 139.512 36.5122 87.5122 303.512 53.5122 86.5122 28.5122 42.5122 48.5122 38.5122 92.5122 84.5122 110.512 52.5122 50.5122 28.5122 28.5122 28.5122 112.512 174.512 173.512 118.512 36.5122 30.5122 28.5122 64.5122 33.5122 28.5122 35.5122 28.5122 135.512 188.512 288.512 28.5122 39.5122 260.512 
rewards of Offsets elements: 15 166 0 42 55 0 1 0 0 0 37 42 11 24 13 2 0 0 2 176 158 169 60 23 0 45 65 10 1 0 1 119 281 0 58 52 248 214 61 2 41 7 206 4 602 83 316 91 633 145 75 211 276 217 203 783 286 280 948 927 704 719 877 1345 962 4348 1881 3030 251 257 310 97 109 100 397 121 150 372 29 74 350 16 11 107 24 46 17 94 40 221 111 8 59 275 25 58 0 14 20 10 64 56 82 24 22 0 0 0 84 146 145 90 8 2 0 36 5 0 7 0 107 160 260 0 11 232 Printing Sanity2
offset_index value126
offset list size126
reward size126
potential size126
-----------------------------------------------------------------------------------------------------------------------------------------------------------------------------------------------------

DRAM Statistics
 CHANNEL 0
 RQ ROW_BUFFER_HIT:      58297  ROW_BUFFER_MISS:      85384
 DBUS_CONGESTED:        254
 WQ ROW_BUFFER_HIT:       7809  ROW_BUFFER_MISS:      76076  FULL:          0

 AVG_CONGESTED_CYCLE: 5
 All warmup complete: 2
Channel 0 Bank busy for read cycles: 0
Channel 0 Bank busy for write cycles: 0
Channel 0
Rank 0
0banks busy for read cycles: 591170480
0banks busy for write cycles: 17317
1banks busy for read cycles: 3813886
1banks busy for write cycles: 2203761
2banks busy for read cycles: 582831
2banks busy for write cycles: 489984
3banks busy for read cycles: 316473
3banks busy for write cycles: 284694
4banks busy for read cycles: 249527
4banks busy for write cycles: 205685
5banks busy for read cycles: 220906
5banks busy for write cycles: 191732
6banks busy for read cycles: 212634
6banks busy for write cycles: 206951
7banks busy for read cycles: 234342
7banks busy for write cycles: 251887
8banks busy for read cycles: 604169
8banks busy for write cycles: 633156

CPU 0 Branch Prediction Accuracy: 99.8129% MPKI: 0.329815 Average ROB Occupancy at Mispredict: 49.101
Branch types
NOT_BRANCH: 164744991 82.3725%
BRANCH_DIRECT_JUMP: 2183763 1.09188%
BRANCH_INDIRECT: 11358220 5.67911%
BRANCH_CONDITIONAL: 13711964 6.85598%
BRANCH_DIRECT_CALL: 3381429 1.69071%
BRANCH_INDIRECT_CALL: 619012 0.309506%
BRANCH_RETURN: 4000424 2.00021%
BRANCH_OTHER: 0 0%

DRAM PAGES: 1048576
Allocated PAGES: 2466
