
*** ChampSim Multicore Out-of-Order Simulator ***

Warmup Instructions: 50000000
Simulation Instructions: 200000000
Number of CPUs: 1
LLC sets: 2048
LLC ways: 16
Off-chip DRAM Size: 4096 MB Channels: 1 Width: 64-bit Data Rate: 6400 MT/s
CPU 0 runs traces/spec2k17/server_021.champsimtrace.xz
.xz
BTB has LRU replacement policy
ITLB has LRU replacement policy
DTLB has LRU replacement policy
STLB has LRU replacement policy
L1I has LRU replacement policy
L1D has LRU replacement policy
Initialize SRRIP state for L2C
Initialize DRRIP state for LLC
Offsets elements: -63 -62 -61 -60 -59 -58 -57 -56 -55 -54 -53 -52 -51 -50 -49 -48 -47 -46 -45 -44 -43 -42 -41 -40 -39 -38 -37 -36 -35 -34 -33 -32 -31 -30 -29 -28 -27 -26 -25 -24 -23 -22 -21 -20 -19 -18 -17 -16 -15 -14 -13 -12 -11 -10 -9 -8 -7 -6 -5 -4 -3 -2 -1 1 2 3 4 5 6 7 8 9 10 11 12 13 14 15 16 17 18 19 20 21 22 23 24 25 26 27 28 29 30 31 32 33 34 35 36 37 38 39 40 41 42 43 44 45 46 47 48 49 50 51 52 53 54 55 56 57 58 59 60 61 62 63 
Potential of Offsets elements: 
rewards of Offsets elements: 82 104 44 114 0 58 31 75 108 2 69 68 89 102 15 91 124 85 117 92 158 72 141 3 89 99 105 235 53 60 127 0 0 0 43 121 221 131 179 121 51 78 131 95 214 49 271 65 197 179 178 276 49 248 283 255 328 128 423 361 620 471 834 909 410 2056 604 1543 582 510 325 477 160 454 333 150 411 187 390 339 110 403 362 337 281 50 568 198 46 361 2 32 211 0 376 0 3 238 6 6 234 4 2 8 1 119 4 0 118 2 0 5 0 73 0 27 64 2 2 0 4 20 0 2 4 0 
Printing Sanity1
Heartbeat CPU 0 instructions: 10000003 cycles: 2955652 heartbeat IPC: 3.38335 cumulative IPC: 3.38335 (Simulation time: 0 hr 0 min 31 sec) 
Heartbeat CPU 0 instructions: 20000002 cycles: 5903475 heartbeat IPC: 3.39233 cumulative IPC: 3.38784 (Simulation time: 0 hr 1 min 16 sec) 
Heartbeat CPU 0 instructions: 30000000 cycles: 8857445 heartbeat IPC: 3.38527 cumulative IPC: 3.38698 (Simulation time: 0 hr 2 min 1 sec) 
Heartbeat CPU 0 instructions: 40000003 cycles: 11805746 heartbeat IPC: 3.39178 cumulative IPC: 3.38818 (Simulation time: 0 hr 2 min 46 sec) 
Heartbeat CPU 0 instructions: 50000000 cycles: 14758698 heartbeat IPC: 3.38644 cumulative IPC: 3.38783 (Simulation time: 0 hr 3 min 29 sec) 

Warmup complete CPU 0 instructions: 50000001 cycles: 14758699 (Simulation time: 0 hr 3 min 29 sec) 

Heartbeat CPU 0 instructions: 60000001 cycles: 34859137 heartbeat IPC: 0.497502 cumulative IPC: 0.497502 (Simulation time: 0 hr 4 min 49 sec) 
Heartbeat CPU 0 instructions: 70000001 cycles: 54642703 heartbeat IPC: 0.50547 cumulative IPC: 0.501454 (Simulation time: 0 hr 5 min 55 sec) 
Heartbeat CPU 0 instructions: 80000001 cycles: 74176907 heartbeat IPC: 0.511923 cumulative IPC: 0.504896 (Simulation time: 0 hr 6 min 44 sec) 
Heartbeat CPU 0 instructions: 90000002 cycles: 92998120 heartbeat IPC: 0.531315 cumulative IPC: 0.511251 (Simulation time: 0 hr 7 min 36 sec) 
Heartbeat CPU 0 instructions: 100000000 cycles: 111767819 heartbeat IPC: 0.532773 cumulative IPC: 0.515415 (Simulation time: 0 hr 8 min 41 sec) 
*** Reached end of trace for Core: 0 Repeating trace: traces/spec2k17/server_021.champsimtrace.xz
Heartbeat CPU 0 instructions: 110000000 cycles: 130600913 heartbeat IPC: 0.53098 cumulative IPC: 0.517946 (Simulation time: 0 hr 9 min 57 sec) 
Heartbeat CPU 0 instructions: 120000003 cycles: 149264059 heartbeat IPC: 0.535815 cumulative IPC: 0.520425 (Simulation time: 0 hr 11 min 14 sec) 
Heartbeat CPU 0 instructions: 130000003 cycles: 167899479 heartbeat IPC: 0.536613 cumulative IPC: 0.522395 (Simulation time: 0 hr 12 min 31 sec) 
Heartbeat CPU 0 instructions: 140000003 cycles: 186614724 heartbeat IPC: 0.534324 cumulative IPC: 0.523694 (Simulation time: 0 hr 13 min 30 sec) 
Heartbeat CPU 0 instructions: 150000003 cycles: 205295967 heartbeat IPC: 0.535296 cumulative IPC: 0.524832 (Simulation time: 0 hr 14 min 19 sec) 
Heartbeat CPU 0 instructions: 160000002 cycles: 224124231 heartbeat IPC: 0.531116 cumulative IPC: 0.525397 (Simulation time: 0 hr 15 min 7 sec) 
Heartbeat CPU 0 instructions: 170000000 cycles: 242806687 heartbeat IPC: 0.535261 cumulative IPC: 0.526205 (Simulation time: 0 hr 15 min 55 sec) 
Heartbeat CPU 0 instructions: 180000000 cycles: 261552824 heartbeat IPC: 0.533443 cumulative IPC: 0.526755 (Simulation time: 0 hr 16 min 43 sec) 
Heartbeat CPU 0 instructions: 190000000 cycles: 280269398 heartbeat IPC: 0.534286 cumulative IPC: 0.527286 (Simulation time: 0 hr 17 min 32 sec) 
Heartbeat CPU 0 instructions: 200000002 cycles: 298918987 heartbeat IPC: 0.536205 cumulative IPC: 0.527871 (Simulation time: 0 hr 18 min 21 sec) 
Heartbeat CPU 0 instructions: 210000003 cycles: 317539798 heartbeat IPC: 0.537034 cumulative IPC: 0.528435 (Simulation time: 0 hr 19 min 16 sec) 
*** Reached end of trace for Core: 0 Repeating trace: traces/spec2k17/server_021.champsimtrace.xz
Heartbeat CPU 0 instructions: 220000000 cycles: 336352835 heartbeat IPC: 0.531546 cumulative IPC: 0.528617 (Simulation time: 0 hr 20 min 13 sec) 
Heartbeat CPU 0 instructions: 230000003 cycles: 354974733 heartbeat IPC: 0.537002 cumulative IPC: 0.529076 (Simulation time: 0 hr 21 min 3 sec) 
Heartbeat CPU 0 instructions: 240000002 cycles: 373648382 heartbeat IPC: 0.535514 cumulative IPC: 0.529411 (Simulation time: 0 hr 21 min 53 sec) 
Heartbeat CPU 0 instructions: 250000000 cycles: 392373877 heartbeat IPC: 0.534031 cumulative IPC: 0.52964 (Simulation time: 0 hr 22 min 41 sec) 
Finished CPU 0 instructions: 200000003 cycles: 377615179 cumulative IPC: 0.52964 (Simulation time: 0 hr 22 min 41 sec) 

ChampSim completed all CPUs

Region of Interest Statistics

CPU 0 cumulative IPC: 0.52964 instructions: 200000003 cycles: 377615179
ITLB TOTAL     ACCESS:   33743134  HIT:   32208873  MISS:    1534261  HIT %:    95.4531  MISS %:    4.54688   MPKI: 7.6713
ITLB LOAD TRANSLATION ACCESS:   33743134  HIT:   32208873  MISS:    1534261  HIT %:    95.4531  MISS %:    4.54688   MPKI: 7.6713
ITLB PREFETCH  REQUESTED:          0  ISSUED:          0  USEFUL:          0  USELESS:          0
ITLB USEFUL LOAD PREFETCHES:          0 PREFETCH ISSUED TO LOWER LEVEL:          0  ACCURACY: -nan
ITLB TIMELY PREFETCHES:          0 LATE PREFETCHES: 0 DROPPED PREFETCHES: 0
ITLB PREFETCHES SAME FILL-ORIGIN LEVEL: 0 DIFFERENT FILL-ORIGIN LEVEL: 0
ITLB AVERAGE MISS LATENCY: 9.23051 cycles
ITLB RQ	ACCESS:   40638106	FORWARD:          0	MERGED:    6400981	TO_CACHE:   34237125

DTLB TOTAL     ACCESS:   40127698  HIT:   38628870  MISS:    1498828  HIT %:    96.2649  MISS %:    3.73515   MPKI: 7.49414
DTLB LOAD TRANSLATION ACCESS:   40127698  HIT:   38628870  MISS:    1498828  HIT %:    96.2649  MISS %:    3.73515   MPKI: 7.49414
DTLB PREFETCH  REQUESTED:          0  ISSUED:          0  USEFUL:          0  USELESS:          0
DTLB USEFUL LOAD PREFETCHES:          0 PREFETCH ISSUED TO LOWER LEVEL:          0  ACCURACY: -nan
DTLB TIMELY PREFETCHES:          0 LATE PREFETCHES: 0 DROPPED PREFETCHES: 0
DTLB PREFETCHES SAME FILL-ORIGIN LEVEL: 0 DIFFERENT FILL-ORIGIN LEVEL: 0
DTLB AVERAGE MISS LATENCY: 14.3488 cycles
DTLB RQ	ACCESS:   61073059	FORWARD:          0	MERGED:   20562085	TO_CACHE:   40510974

STLB TOTAL     ACCESS:   11029788  HIT:   10953552  MISS:      76236  HIT %:    99.3088  MISS %:   0.691183   MPKI: 0.38118
STLB LOAD TRANSLATION ACCESS:    3033089  HIT:    2963334  MISS:      69755  HIT %:    97.7002  MISS %:     2.2998   MPKI: 0.348775
STLB TRANSLATION FROM L1D PREFETCHER ACCESS:    7996699  HIT:    7990218  MISS:       6481  HIT %:     99.919  MISS %:  0.0810459   MPKI: 0.032405
STLB PREFETCH  REQUESTED:          0  ISSUED:          0  USEFUL:       5909  USELESS:        570
STLB USEFUL LOAD PREFETCHES:       5909 PREFETCH ISSUED TO LOWER LEVEL:          0  ACCURACY: inf
STLB TIMELY PREFETCHES:       5909 LATE PREFETCHES: 1473 DROPPED PREFETCHES: 50053
STLB PREFETCHES SAME FILL-ORIGIN LEVEL: 0 DIFFERENT FILL-ORIGIN LEVEL: 0
STLB AVERAGE MISS LATENCY: 3.06937e+06 cycles
STLB RQ	ACCESS:   14167546	FORWARD:          0	MERGED:    3038071	TO_CACHE:   11129475

STLB Hit, L1D data hit: 0
STLB Hit, L2C data hit: 0
STLB Hit, LLC data hit: 0
STLB Hit, LLC data miss: 0
STLB STLB hints to L2: 0
L1D TOTAL     ACCESS:   58836352  HIT:   51035795  MISS:    7800557  HIT %:    86.7419  MISS %:    13.2581   MPKI: 39.0028
L1D LOAD      ACCESS:   26845027  HIT:   24327346  MISS:    2517681  HIT %:    90.6214  MISS %:    9.37858   MPKI: 12.5884
L1D RFO       ACCESS:   22003622  HIT:   18342295  MISS:    3661327  HIT %:    83.3603  MISS %:    16.6397   MPKI: 18.3066
L1D PREFETCH  ACCESS:    9987703  HIT:    8366154  MISS:    1621549  HIT %:    83.7645  MISS %:    16.2355   MPKI: 8.10774
AGUS PREFETCH L1 MISS: 0
L1D PREFETCH  REQUESTED:   34327503  ISSUED:   34326210  USEFUL:     683157  USELESS:     938387
L1D USEFUL LOAD PREFETCHES:     683157 PREFETCH ISSUED TO LOWER LEVEL:    2331451  ACCURACY: 29.3018
L1D TIMELY PREFETCHES:     683157 LATE PREFETCHES: 699806 DROPPED PREFETCHES: 130429
L1D PREFETCHES SAME FILL-ORIGIN LEVEL: 2331451 DIFFERENT FILL-ORIGIN LEVEL: 0
L1D AVERAGE MISS LATENCY: 1.87257e+07 cycles
L1D RQ	ACCESS:   45282644	FORWARD:          0	MERGED:   17854739	TO_CACHE:   27172222
L1D WQ	ACCESS:   34105995	FORWARD:     256320	MERGED:     205158	TO_CACHE:   33900837
L1D PQ	ACCESS:   23191753	FORWARD:          0	MERGED:   12056659	TO_CACHE:   11134457

L1D UNIQUE REGIONS ACCESSED: 0
L1D REGIONS CONFLICTS: 0
L1D Cross Page Prefetch Requests: 2235773
L1D Same Page Prefetch Requests: 26450098
L1D ROI Sum of L1D PQ occupancy: 157764456
L1D PREFETCHES PUSHED FROM L2C: 0
L1I TOTAL     ACCESS:   37992552  HIT:   28912324  MISS:    9080228  HIT %:       76.1  MISS %:       23.9   MPKI: 45.4011
L1I LOAD      ACCESS:   37992552  HIT:   28912324  MISS:    9080228  HIT %:       76.1  MISS %:       23.9   MPKI: 45.4011
L1I PREFETCH  REQUESTED:          0  ISSUED:          0  USEFUL:          0  USELESS:          0
L1I USEFUL LOAD PREFETCHES:          0 PREFETCH ISSUED TO LOWER LEVEL:          0  ACCURACY: -nan
L1I TIMELY PREFETCHES:          0 LATE PREFETCHES: 0 DROPPED PREFETCHES: 0
L1I PREFETCHES SAME FILL-ORIGIN LEVEL: 0 DIFFERENT FILL-ORIGIN LEVEL: 0
L1I AVERAGE MISS LATENCY: 16.6289 cycles
L1I RQ	ACCESS:   58883943	FORWARD:          0	MERGED:   18245837	TO_CACHE:   40638106

BTB TOTAL     ACCESS:   25736961  HIT:   24179944  MISS:    1557017  HIT %:    93.9503  MISS %:    6.04973   MPKI: 7.78508
BTB BRANCH_DIRECT_JUMP	ACCESS:    1656182  HIT:    1646075  MISS:      10107
BTB BRANCH_INDIRECT	ACCESS:    9984753  HIT:    9460939  MISS:     523814
BTB BRANCH_CONDITIONAL	ACCESS:    7260252  HIT:    7246132  MISS:      14120
BTB BRANCH_DIRECT_CALL	ACCESS:    2821015  HIT:    2786715  MISS:      34300
BTB BRANCH_INDIRECT_CALL	ACCESS:     596869  HIT:     485589  MISS:     111280
BTB BRANCH_RETURN	ACCESS:    3417890  HIT:    2554494  MISS:     863396
BTB BRANCH_OTHER ACCESS:          0  HIT:          0  MISS:          0

L2C TOTAL     ACCESS:   21385182  HIT:   14207963  MISS:    7177219  HIT %:    66.4384  MISS %:    33.5616   MPKI: 35.8861
L2C LOAD      ACCESS:   10897275  HIT:    9227837  MISS:    1669438  HIT %:    84.6802  MISS %:    15.3198   MPKI: 8.34719
L2C DATA LOAD MPKI: 5.42517
L2C INSTRUCTION LOAD MPKI: 2.92201
L2C RFO       ACCESS:    3651227  HIT:     147285  MISS:    3503942  HIT %:    4.03385  MISS %:    95.9662   MPKI: 17.5197
L2C PREFETCH  ACCESS:    2331439  HIT:     482056  MISS:    1849383  HIT %:    20.6763  MISS %:    79.3237   MPKI: 9.24691
AGUS PREFETCH L1 MISS: 0
L2C DATA PREFETCH MPKI: 9.24691
L2C INSTRUCTION PREFETCH MPKI: 0
L2C WRITEBACK ACCESS:    4361664  HIT:    4251523  MISS:     110141  HIT %:    97.4748  MISS %:    2.52521   MPKI: 0.550705
L2C LOAD TRANSLATION ACCESS:      73907  HIT:      41153  MISS:      32754  HIT %:    55.6821  MISS %:    44.3179   MPKI: 0.16377
L2C TRANSLATION FROM L1D PREFETCHER ACCESS:      69670  HIT:      58109  MISS:      11561  HIT %:    83.4061  MISS %:    16.5939   MPKI: 0.057805
L2C PREFETCH  REQUESTED:          0  ISSUED:          0  USEFUL:      55311  USELESS:    1805260
L2C USEFUL LOAD PREFETCHES:      55311 PREFETCH ISSUED TO LOWER LEVEL:    1849387  ACCURACY: 2.99077
L2C TIMELY PREFETCHES:      55311 LATE PREFETCHES: 0 DROPPED PREFETCHES: 0
L2C PREFETCHES SAME FILL-ORIGIN LEVEL: 0 DIFFERENT FILL-ORIGIN LEVEL: 0
L2C AVERAGE MISS LATENCY: 159.886 cycles
L2C RQ	ACCESS:   14692916	FORWARD:          0	MERGED:          0	TO_CACHE:   14692080
L2C WQ	ACCESS:    4361664	FORWARD:        844	MERGED:          0	TO_CACHE:    4361664
L2C PQ	ACCESS:    2331451	FORWARD:          0	MERGED:          0	TO_CACHE:    2331443

L2C Instructions Evicting Data 542875
L2C Translations Evicting Data 40439
L2C Data Evicting Data 5865954
L2C Instructions Evicting Instructions 38340
L2C Translations Evicting Instructions 3499
L2C Data Evicting Instructions 532165
L2C Instructions Evicting Translations 3188
L2C Translations Evicting Translations 377
L2C Data Evicting Translations 40241
L2C Dense regions hint from L2: 0
PSCL5 TOTAL     ACCESS:     126290  HIT:     126290  MISS:          0  HIT %:        100  MISS %:          0   MPKI: 0
PSCL5 LOAD TRANSLATION ACCESS:      68283  HIT:      68283  MISS:          0  HIT %:        100  MISS %:          0   MPKI: 0
PSCL5 TRANSLATION FROM L1D PREFETCHER ACCESS:      58007  HIT:      58007  MISS:          0  HIT %:        100  MISS %:          0   MPKI: 0
PSCL5 PREFETCH  REQUESTED:          0  ISSUED:          0  USEFUL:          0  USELESS:          0
PSCL5 USEFUL LOAD PREFETCHES:          0 PREFETCH ISSUED TO LOWER LEVEL:          0  ACCURACY: -nan
PSCL5 TIMELY PREFETCHES:          0 LATE PREFETCHES: 0 DROPPED PREFETCHES: 0
PSCL5 PREFETCHES SAME FILL-ORIGIN LEVEL: 0 DIFFERENT FILL-ORIGIN LEVEL: 0

PSCL4 TOTAL     ACCESS:     121627  HIT:     121448  MISS:        179  HIT %:    99.8528  MISS %:   0.147171   MPKI: 0.000895
PSCL4 LOAD TRANSLATION ACCESS:      66367  HIT:      66188  MISS:        179  HIT %:    99.7303  MISS %:   0.269712   MPKI: 0.000895
PSCL4 TRANSLATION FROM L1D PREFETCHER ACCESS:      55260  HIT:      55260  MISS:          0  HIT %:        100  MISS %:          0   MPKI: 0
PSCL4 PREFETCH  REQUESTED:          0  ISSUED:          0  USEFUL:          0  USELESS:          0
PSCL4 USEFUL LOAD PREFETCHES:          0 PREFETCH ISSUED TO LOWER LEVEL:          0  ACCURACY: -nan
PSCL4 TIMELY PREFETCHES:          0 LATE PREFETCHES: 0 DROPPED PREFETCHES: 0
PSCL4 PREFETCHES SAME FILL-ORIGIN LEVEL: 0 DIFFERENT FILL-ORIGIN LEVEL: 0

PSCL3 TOTAL     ACCESS:     124957  HIT:     124778  MISS:        179  HIT %:    99.8568  MISS %:   0.143249   MPKI: 0.000895
PSCL3 LOAD TRANSLATION ACCESS:      67031  HIT:      66852  MISS:        179  HIT %:     99.733  MISS %:   0.267041   MPKI: 0.000895
PSCL3 TRANSLATION FROM L1D PREFETCHER ACCESS:      57926  HIT:      57926  MISS:          0  HIT %:        100  MISS %:          0   MPKI: 0
PSCL3 PREFETCH  REQUESTED:          0  ISSUED:          0  USEFUL:          0  USELESS:          0
PSCL3 USEFUL LOAD PREFETCHES:          0 PREFETCH ISSUED TO LOWER LEVEL:          0  ACCURACY: -nan
PSCL3 TIMELY PREFETCHES:          0 LATE PREFETCHES: 0 DROPPED PREFETCHES: 0
PSCL3 PREFETCHES SAME FILL-ORIGIN LEVEL: 0 DIFFERENT FILL-ORIGIN LEVEL: 0

PSCL2 TOTAL     ACCESS:     114879  HIT:     109402  MISS:       5477  HIT %:    95.2324  MISS %:    4.76763   MPKI: 0.027385
PSCL2 LOAD TRANSLATION ACCESS:      68461  HIT:      62984  MISS:       5477  HIT %:    91.9998  MISS %:    8.00018   MPKI: 0.027385
PSCL2 TRANSLATION FROM L1D PREFETCHER ACCESS:      46418  HIT:      46418  MISS:          0  HIT %:        100  MISS %:          0   MPKI: 0
PSCL2 PREFETCH  REQUESTED:          0  ISSUED:          0  USEFUL:          0  USELESS:          0
PSCL2 USEFUL LOAD PREFETCHES:          0 PREFETCH ISSUED TO LOWER LEVEL:          0  ACCURACY: -nan
PSCL2 TIMELY PREFETCHES:          0 LATE PREFETCHES: 0 DROPPED PREFETCHES: 0
PSCL2 PREFETCHES SAME FILL-ORIGIN LEVEL: 0 DIFFERENT FILL-ORIGIN LEVEL: 0

LLC TOTAL     ACCESS:   11114821  HIT:    4910383  MISS:    6204438  HIT %:    44.1787  MISS %:    55.8213   MPKI: 31.0222
LLC LOAD      ACCESS:    1669435  HIT:    1453836  MISS:     215599  HIT %:    87.0855  MISS %:    12.9145   MPKI: 1.07799
LLC RFO       ACCESS:    3503919  HIT:     913465  MISS:    2590454  HIT %:    26.0698  MISS %:    73.9302   MPKI: 12.9523
LLC PREFETCH  ACCESS:    1849383  HIT:     657746  MISS:    1191637  HIT %:    35.5657  MISS %:    64.4343   MPKI: 5.95818
AGUS PREFETCH L1 MISS: 0
LLC WRITEBACK ACCESS:    4047769  HIT:    1863208  MISS:    2184561  HIT %:    46.0305  MISS %:    53.9695   MPKI: 10.9228
LLC LOAD TRANSLATION ACCESS:      32754  HIT:      12867  MISS:      19887  HIT %:    39.2838  MISS %:    60.7162   MPKI: 0.099435
LLC TRANSLATION FROM L1D PREFETCHER ACCESS:      11561  HIT:       9261  MISS:       2300  HIT %:    80.1055  MISS %:    19.8945   MPKI: 0.0115
LLC PREFETCH  REQUESTED:          0  ISSUED:          0  USEFUL:       6145  USELESS:    1192704
LLC USEFUL LOAD PREFETCHES:       6145 PREFETCH ISSUED TO LOWER LEVEL:    1191641  ACCURACY: 0.515675
LLC TIMELY PREFETCHES:       6145 LATE PREFETCHES: 0 DROPPED PREFETCHES: 0
LLC PREFETCHES SAME FILL-ORIGIN LEVEL: 0 DIFFERENT FILL-ORIGIN LEVEL: 0
LLC AVERAGE MISS LATENCY: 150.351 cycles
LLC RQ	ACCESS:    5217695	FORWARD:          0	MERGED:          0	TO_CACHE:    5217669
LLC WQ	ACCESS:    4047770	FORWARD:         26	MERGED:          0	TO_CACHE:    4047770
LLC PQ	ACCESS:    1849387	FORWARD:          0	MERGED:          0	TO_CACHE:    1849387

LLC Dense regions hint to LLC: 0

RAW hits: 2387853
Loads Generated: 47670499
Loads sent to L1D: 45282644
Stores Generated: 34105974
Stores sent to L1D: 34105995
Major fault: 0 Minor fault: 22424
Allocated PAGES: 22424
ucb ended
-----------------------------------------------------------------------------------------------------------------------------------------------------------------------------------------------------
Offsets elements: -63 -62 -61 -60 -59 -58 -57 -56 -55 -54 -53 -52 -51 -50 -49 -48 -47 -46 -45 -44 -43 -42 -41 -40 -39 -38 -37 -36 -35 -34 -33 -32 -31 -30 -29 -28 -27 -26 -25 -24 -23 -22 -21 -20 -19 -18 -17 -16 -15 -14 -13 -12 -11 -10 -9 -8 -7 -6 -5 -4 -3 -2 -1 1 2 3 4 5 6 7 8 9 10 11 12 13 14 15 16 17 18 19 20 21 22 23 24 25 26 27 28 29 30 31 32 33 34 35 36 37 38 39 40 41 42 43 44 45 46 47 48 49 50 51 52 53 54 55 56 57 58 59 60 61 62 63 
Potential of Offsets elements: 110.255 132.255 72.2547 142.255 28.2547 86.2547 59.2547 103.255 136.255 30.2547 97.2547 96.2547 117.255 130.255 43.2547 119.255 152.255 113.255 145.255 120.255 186.255 100.255 169.255 31.2547 117.255 127.255 133.255 263.255 81.2547 88.2547 155.255 28.2547 28.2547 28.2547 71.2547 149.255 249.255 159.255 207.255 149.255 79.2547 106.255 159.255 123.255 242.255 77.2547 299.255 93.2547 225.255 207.255 206.255 304.255 77.2547 276.255 311.255 283.255 356.255 156.255 451.255 389.255 648.255 499.255 862.255 937.255 438.255 573.679 632.255 1543.11 610.255 538.255 353.255 505.255 188.255 482.255 361.255 178.255 439.255 215.255 418.255 367.255 138.255 431.255 390.255 365.255 309.255 78.2547 596.255 226.255 74.2547 389.255 30.2547 60.2547 239.255 28.2547 404.255 28.2547 31.2547 266.255 34.2547 34.2547 262.255 32.2547 30.2547 36.2547 29.2547 147.255 32.2547 28.2547 146.255 30.2547 28.2547 33.2547 28.2547 101.255 28.2547 55.2547 92.2547 30.2547 30.2547 28.2547 32.2547 48.2547 28.2547 30.2547 32.2547 28.2547 
rewards of Offsets elements: 82 104 44 114 0 58 31 75 108 2 69 68 89 102 15 91 124 85 117 92 158 72 141 3 89 99 105 235 53 60 127 0 0 0 43 121 221 131 179 121 51 78 131 95 214 49 271 65 197 179 178 276 49 248 283 255 328 128 423 361 620 471 834 909 410 563 604 1543 582 510 325 477 160 454 333 150 411 187 390 339 110 403 362 337 281 50 568 198 46 361 2 32 211 0 376 0 3 238 6 6 234 4 2 8 1 119 4 0 118 2 0 5 0 73 0 27 64 2 2 0 4 20 0 2 4 0 Printing Sanity2
offset_index value126
offset list size126
reward size126
potential size126
-----------------------------------------------------------------------------------------------------------------------------------------------------------------------------------------------------

DRAM Statistics
 CHANNEL 0
 RQ ROW_BUFFER_HIT:    2046233  ROW_BUFFER_MISS:    1973134
 DBUS_CONGESTED:       2339
 WQ ROW_BUFFER_HIT:     552262  ROW_BUFFER_MISS:    2136857  FULL:      55030

 AVG_CONGESTED_CYCLE: 3
 All warmup complete: 2
Channel 0 Bank busy for read cycles: 0
Channel 0 Bank busy for write cycles: 0
Channel 0
Rank 0
0banks busy for read cycles: 169003872
0banks busy for write cycles: 256738
1banks busy for read cycles: 32950132
1banks busy for write cycles: 34708026
2banks busy for read cycles: 11460926
2banks busy for write cycles: 13504383
3banks busy for read cycles: 14701078
3banks busy for write cycles: 6767242
4banks busy for read cycles: 5094882
4banks busy for write cycles: 4340756
5banks busy for read cycles: 4567875
5banks busy for write cycles: 3202235
6banks busy for read cycles: 5199894
6banks busy for write cycles: 2976067
7banks busy for read cycles: 7220508
7banks busy for write cycles: 5163473
8banks busy for read cycles: 22837958
8banks busy for write cycles: 33659135

CPU 0 Branch Prediction Accuracy: 99.9423% MPKI: 0.088365 Average ROB Occupancy at Mispredict: 111.474
Branch types
NOT_BRANCH: 169393845 84.6969%
BRANCH_DIRECT_JUMP: 1656182 0.828091%
BRANCH_INDIRECT: 9984753 4.99238%
BRANCH_CONDITIONAL: 12129382 6.06469%
BRANCH_DIRECT_CALL: 2821015 1.41051%
BRANCH_INDIRECT_CALL: 596869 0.298434%
BRANCH_RETURN: 3417890 1.70894%
BRANCH_OTHER: 0 0%

DRAM PAGES: 1048576
Allocated PAGES: 22424
