
*** ChampSim Multicore Out-of-Order Simulator ***

Warmup Instructions: 50000000
Simulation Instructions: 200000000
Number of CPUs: 1
LLC sets: 2048
LLC ways: 16
Off-chip DRAM Size: 4096 MB Channels: 1 Width: 64-bit Data Rate: 6400 MT/s
CPU 0 runs traces/spec2k17/server_022.champsimtrace.xz
.xz
BTB has LRU replacement policy
ITLB has LRU replacement policy
DTLB has LRU replacement policy
STLB has LRU replacement policy
L1I has LRU replacement policy
L1D has LRU replacement policy
Initialize SRRIP state for L2C
Initialize DRRIP state for LLC
Offsets elements: -63 -62 -61 -60 -59 -58 -57 -56 -55 -54 -53 -52 -51 -50 -49 -48 -47 -46 -45 -44 -43 -42 -41 -40 -39 -38 -37 -36 -35 -34 -33 -32 -31 -30 -29 -28 -27 -26 -25 -24 -23 -22 -21 -20 -19 -18 -17 -16 -15 -14 -13 -12 -11 -10 -9 -8 -7 -6 -5 -4 -3 -2 -1 1 2 3 4 5 6 7 8 9 10 11 12 13 14 15 16 17 18 19 20 21 22 23 24 25 26 27 28 29 30 31 32 33 34 35 36 37 38 39 40 41 42 43 44 45 46 47 48 49 50 51 52 53 54 55 56 57 58 59 60 61 62 63 
Potential of Offsets elements: 
rewards of Offsets elements: 0 6 0 0 4 2 0 0 8 125 2 0 137 0 0 71 2 2 8 6 164 2 11 77 10 164 2 6 220 28 16 67 0 502 1 49 216 1 412 183 207 376 97 524 276 26 480 484 206 439 84 529 403 84 420 376 493 600 222 822 511 987 275 998 658 647 530 304 351 458 197 334 86 200 171 65 293 51 241 151 173 188 97 179 30 126 107 142 157 150 104 125 101 161 23 181 59 86 198 19 188 6 85 130 91 164 37 4 114 118 125 15 92 72 71 110 75 116 28 120 6 90 95 4 65 167 
Printing Sanity1
Heartbeat CPU 0 instructions: 10000001 cycles: 2949235 heartbeat IPC: 3.39071 cumulative IPC: 3.39071 (Simulation time: 0 hr 0 min 32 sec) 
Heartbeat CPU 0 instructions: 20000003 cycles: 5903844 heartbeat IPC: 3.38454 cumulative IPC: 3.38762 (Simulation time: 0 hr 1 min 4 sec) 
Heartbeat CPU 0 instructions: 30000000 cycles: 8853584 heartbeat IPC: 3.39013 cumulative IPC: 3.38846 (Simulation time: 0 hr 1 min 48 sec) 
Heartbeat CPU 0 instructions: 40000002 cycles: 11807237 heartbeat IPC: 3.38564 cumulative IPC: 3.38775 (Simulation time: 0 hr 2 min 23 sec) 
Heartbeat CPU 0 instructions: 50000002 cycles: 14759831 heartbeat IPC: 3.38685 cumulative IPC: 3.38757 (Simulation time: 0 hr 2 min 53 sec) 

Warmup complete CPU 0 instructions: 50000002 cycles: 14759831 (Simulation time: 0 hr 2 min 53 sec) 

Heartbeat CPU 0 instructions: 60000002 cycles: 35875538 heartbeat IPC: 0.473581 cumulative IPC: 0.473581 (Simulation time: 0 hr 3 min 44 sec) 
Heartbeat CPU 0 instructions: 70000000 cycles: 56255287 heartbeat IPC: 0.490683 cumulative IPC: 0.48198 (Simulation time: 0 hr 4 min 37 sec) 
Heartbeat CPU 0 instructions: 80000003 cycles: 76095601 heartbeat IPC: 0.504024 cumulative IPC: 0.489111 (Simulation time: 0 hr 5 min 55 sec) 
Heartbeat CPU 0 instructions: 90000002 cycles: 95984764 heartbeat IPC: 0.502786 cumulative IPC: 0.49246 (Simulation time: 0 hr 7 min 12 sec) 
Heartbeat CPU 0 instructions: 100000000 cycles: 116124104 heartbeat IPC: 0.496541 cumulative IPC: 0.49327 (Simulation time: 0 hr 8 min 1 sec) 
*** Reached end of trace for Core: 0 Repeating trace: traces/spec2k17/server_022.champsimtrace.xz
Heartbeat CPU 0 instructions: 110000000 cycles: 136045756 heartbeat IPC: 0.501966 cumulative IPC: 0.494699 (Simulation time: 0 hr 8 min 57 sec) 
Heartbeat CPU 0 instructions: 120000001 cycles: 155929107 heartbeat IPC: 0.502933 cumulative IPC: 0.495859 (Simulation time: 0 hr 10 min 1 sec) 
Heartbeat CPU 0 instructions: 130000002 cycles: 175820992 heartbeat IPC: 0.502718 cumulative IPC: 0.496706 (Simulation time: 0 hr 11 min 17 sec) 
Heartbeat CPU 0 instructions: 140000000 cycles: 195626500 heartbeat IPC: 0.50491 cumulative IPC: 0.497604 (Simulation time: 0 hr 12 min 7 sec) 
Heartbeat CPU 0 instructions: 150000002 cycles: 215505532 heartbeat IPC: 0.503043 cumulative IPC: 0.498143 (Simulation time: 0 hr 12 min 56 sec) 
Heartbeat CPU 0 instructions: 160000001 cycles: 235642389 heartbeat IPC: 0.496602 cumulative IPC: 0.498002 (Simulation time: 0 hr 13 min 46 sec) 
Heartbeat CPU 0 instructions: 170000001 cycles: 255543170 heartbeat IPC: 0.502493 cumulative IPC: 0.498373 (Simulation time: 0 hr 14 min 35 sec) 
Heartbeat CPU 0 instructions: 180000003 cycles: 275437744 heartbeat IPC: 0.50265 cumulative IPC: 0.4987 (Simulation time: 0 hr 15 min 24 sec) 
Heartbeat CPU 0 instructions: 190000003 cycles: 295199364 heartbeat IPC: 0.506031 cumulative IPC: 0.499216 (Simulation time: 0 hr 16 min 14 sec) 
Heartbeat CPU 0 instructions: 200000000 cycles: 314971008 heartbeat IPC: 0.505775 cumulative IPC: 0.499648 (Simulation time: 0 hr 17 min 3 sec) 
Heartbeat CPU 0 instructions: 210000002 cycles: 334879909 heartbeat IPC: 0.502288 cumulative IPC: 0.499812 (Simulation time: 0 hr 17 min 54 sec) 
*** Reached end of trace for Core: 0 Repeating trace: traces/spec2k17/server_022.champsimtrace.xz
Heartbeat CPU 0 instructions: 220000000 cycles: 354727428 heartbeat IPC: 0.503841 cumulative IPC: 0.500048 (Simulation time: 0 hr 18 min 48 sec) 
Heartbeat CPU 0 instructions: 230000003 cycles: 374638504 heartbeat IPC: 0.502233 cumulative IPC: 0.500169 (Simulation time: 0 hr 19 min 56 sec) 
Heartbeat CPU 0 instructions: 240000000 cycles: 394445510 heartbeat IPC: 0.504872 cumulative IPC: 0.500414 (Simulation time: 0 hr 20 min 58 sec) 
Heartbeat CPU 0 instructions: 250000002 cycles: 414276669 heartbeat IPC: 0.504257 cumulative IPC: 0.500605 (Simulation time: 0 hr 21 min 44 sec) 
Finished CPU 0 instructions: 200000000 cycles: 399516838 cumulative IPC: 0.500605 (Simulation time: 0 hr 21 min 44 sec) 

ChampSim completed all CPUs

Region of Interest Statistics

CPU 0 cumulative IPC: 0.500605 instructions: 200000000 cycles: 399516838
ITLB TOTAL     ACCESS:   33796914  HIT:   32254195  MISS:    1542719  HIT %:    95.4353  MISS %:    4.56467   MPKI: 7.71359
ITLB LOAD TRANSLATION ACCESS:   33796914  HIT:   32254195  MISS:    1542719  HIT %:    95.4353  MISS %:    4.56467   MPKI: 7.71359
ITLB PREFETCH  REQUESTED:          0  ISSUED:          0  USEFUL:          0  USELESS:          0
ITLB USEFUL LOAD PREFETCHES:          0 PREFETCH ISSUED TO LOWER LEVEL:          0  ACCURACY: -nan
ITLB TIMELY PREFETCHES:          0 LATE PREFETCHES: 0 DROPPED PREFETCHES: 0
ITLB PREFETCHES SAME FILL-ORIGIN LEVEL: 0 DIFFERENT FILL-ORIGIN LEVEL: 0
ITLB AVERAGE MISS LATENCY: 9.21433 cycles
ITLB RQ	ACCESS:   40690221	FORWARD:          0	MERGED:    6397309	TO_CACHE:   34292912

DTLB TOTAL     ACCESS:   40068208  HIT:   38545088  MISS:    1523120  HIT %:    96.1987  MISS %:    3.80132   MPKI: 7.6156
DTLB LOAD TRANSLATION ACCESS:   40068208  HIT:   38545088  MISS:    1523120  HIT %:    96.1987  MISS %:    3.80132   MPKI: 7.6156
DTLB PREFETCH  REQUESTED:          0  ISSUED:          0  USEFUL:          0  USELESS:          0
DTLB USEFUL LOAD PREFETCHES:          0 PREFETCH ISSUED TO LOWER LEVEL:          0  ACCURACY: -nan
DTLB TIMELY PREFETCHES:          0 LATE PREFETCHES: 0 DROPPED PREFETCHES: 0
DTLB PREFETCHES SAME FILL-ORIGIN LEVEL: 0 DIFFERENT FILL-ORIGIN LEVEL: 0
DTLB AVERAGE MISS LATENCY: 15.0553 cycles
DTLB RQ	ACCESS:   61232900	FORWARD:          0	MERGED:   20776570	TO_CACHE:   40456330

STLB TOTAL     ACCESS:   10937005  HIT:   10863292  MISS:      73713  HIT %:     99.326  MISS %:   0.673978   MPKI: 0.368565
STLB LOAD TRANSLATION ACCESS:    3065839  HIT:    2992794  MISS:      73045  HIT %:    97.6175  MISS %:    2.38255   MPKI: 0.365225
STLB TRANSLATION FROM L1D PREFETCHER ACCESS:    7871166  HIT:    7870498  MISS:        668  HIT %:    99.9915  MISS %: 0.00848667   MPKI: 0.00334
STLB PREFETCH  REQUESTED:          0  ISSUED:          0  USEFUL:        439  USELESS:        226
STLB USEFUL LOAD PREFETCHES:        439 PREFETCH ISSUED TO LOWER LEVEL:          0  ACCURACY: inf
STLB TIMELY PREFETCHES:        439 LATE PREFETCHES: 0 DROPPED PREFETCHES: 336331
STLB PREFETCHES SAME FILL-ORIGIN LEVEL: 0 DIFFERENT FILL-ORIGIN LEVEL: 0
STLB AVERAGE MISS LATENCY: 130.768 cycles
STLB RQ	ACCESS:   22176536	FORWARD:          0	MERGED:   10890732	TO_CACHE:   11285804

STLB Hit, L1D data hit: 0
STLB Hit, L2C data hit: 0
STLB Hit, LLC data hit: 0
STLB Hit, LLC data miss: 0
STLB STLB hints to L2: 0
L1D TOTAL     ACCESS:   66597856  HIT:   58427922  MISS:    8169934  HIT %:    87.7324  MISS %:    12.2676   MPKI: 40.8497
L1D LOAD      ACCESS:   26748174  HIT:   23727792  MISS:    3020382  HIT %:    88.7081  MISS %:    11.2919   MPKI: 15.1019
L1D RFO       ACCESS:   22634539  HIT:   18973025  MISS:    3661514  HIT %:    83.8233  MISS %:    16.1767   MPKI: 18.3076
L1D PREFETCH  ACCESS:   17215143  HIT:   15727105  MISS:    1488038  HIT %:    91.3562  MISS %:    8.64377   MPKI: 7.44019
AGUS PREFETCH L1 MISS: 0
L1D PREFETCH  REQUESTED:   42305993  ISSUED:   42283135  USEFUL:     271065  USELESS:    1216977
L1D USEFUL LOAD PREFETCHES:     271065 PREFETCH ISSUED TO LOWER LEVEL:    1512786  ACCURACY: 17.9183
L1D TIMELY PREFETCHES:     271065 LATE PREFETCHES: 22535 DROPPED PREFETCHES: 673691
L1D PREFETCHES SAME FILL-ORIGIN LEVEL: 1512786 DIFFERENT FILL-ORIGIN LEVEL: 0
L1D AVERAGE MISS LATENCY: 643618 cycles
L1D RQ	ACCESS:   45310961	FORWARD:          0	MERGED:   17851574	TO_CACHE:   27199376
L1D WQ	ACCESS:   34236669	FORWARD:     270135	MERGED:     203145	TO_CACHE:   34033524
L1D PQ	ACCESS:   23172438	FORWARD:          0	MERGED:    4051617	TO_CACHE:   19110697

L1D UNIQUE REGIONS ACCESSED: 0
L1D REGIONS CONFLICTS: 0
L1D Cross Page Prefetch Requests: 1520005
L1D Same Page Prefetch Requests: 27176163
L1D ROI Sum of L1D PQ occupancy: 268512333
L1D PREFETCHES PUSHED FROM L2C: 0
L1I TOTAL     ACCESS:   38020531  HIT:   28891325  MISS:    9129206  HIT %:    75.9887  MISS %:    24.0113   MPKI: 45.646
L1I LOAD      ACCESS:   38020531  HIT:   28891325  MISS:    9129206  HIT %:    75.9887  MISS %:    24.0113   MPKI: 45.646
L1I PREFETCH  REQUESTED:          0  ISSUED:          0  USEFUL:          0  USELESS:          0
L1I USEFUL LOAD PREFETCHES:          0 PREFETCH ISSUED TO LOWER LEVEL:          0  ACCURACY: -nan
L1I TIMELY PREFETCHES:          0 LATE PREFETCHES: 0 DROPPED PREFETCHES: 0
L1I PREFETCHES SAME FILL-ORIGIN LEVEL: 0 DIFFERENT FILL-ORIGIN LEVEL: 0
L1I AVERAGE MISS LATENCY: 16.8221 cycles
L1I RQ	ACCESS:   59006797	FORWARD:          0	MERGED:   18316576	TO_CACHE:   40690221

BTB TOTAL     ACCESS:   25686192  HIT:   24135282  MISS:    1550910  HIT %:    93.9621  MISS %:    6.03791   MPKI: 7.75455
BTB BRANCH_DIRECT_JUMP	ACCESS:    1661001  HIT:    1650247  MISS:      10754
BTB BRANCH_INDIRECT	ACCESS:    9967571  HIT:    9455077  MISS:     512494
BTB BRANCH_CONDITIONAL	ACCESS:    7219465  HIT:    7204509  MISS:      14956
BTB BRANCH_DIRECT_CALL	ACCESS:    2825891  HIT:    2790313  MISS:      35578
BTB BRANCH_INDIRECT_CALL	ACCESS:     593170  HIT:     481443  MISS:     111727
BTB BRANCH_RETURN	ACCESS:    3419094  HIT:    2553693  MISS:     865401
BTB BRANCH_OTHER ACCESS:          0  HIT:          0  MISS:          0

L2C TOTAL     ACCESS:   22215375  HIT:   14815264  MISS:    7400111  HIT %:    66.6892  MISS %:    33.3108   MPKI: 37.0006
L2C LOAD      ACCESS:   12126341  HIT:    9424377  MISS:    2701964  HIT %:    77.7182  MISS %:    22.2818   MPKI: 13.5098
L2C DATA LOAD MPKI: 10.4118
L2C INSTRUCTION LOAD MPKI: 3.09797
L2C RFO       ACCESS:    3659281  HIT:     110778  MISS:    3548503  HIT %:    3.02732  MISS %:    96.9727   MPKI: 17.7425
L2C PREFETCH  ACCESS:    1512786  HIT:     542811  MISS:     969975  HIT %:    35.8815  MISS %:    64.1185   MPKI: 4.84987
AGUS PREFETCH L1 MISS: 0
L2C DATA PREFETCH MPKI: 4.84987
L2C INSTRUCTION PREFETCH MPKI: 0
L2C WRITEBACK ACCESS:    4387410  HIT:    4265128  MISS:     122282  HIT %:    97.2129  MISS %:    2.78711   MPKI: 0.61141
L2C LOAD TRANSLATION ACCESS:      81042  HIT:      45843  MISS:      35199  HIT %:     56.567  MISS %:     43.433   MPKI: 0.175995
L2C TRANSLATION FROM L1D PREFETCHER ACCESS:     448515  HIT:     426327  MISS:      22188  HIT %:     95.053  MISS %:    4.94699   MPKI: 0.11094
L2C PREFETCH  REQUESTED:          0  ISSUED:          0  USEFUL:      72656  USELESS:     919559
L2C USEFUL LOAD PREFETCHES:      72656 PREFETCH ISSUED TO LOWER LEVEL:     969975  ACCURACY: 7.4905
L2C TIMELY PREFETCHES:      72656 LATE PREFETCHES: 0 DROPPED PREFETCHES: 0
L2C PREFETCHES SAME FILL-ORIGIN LEVEL: 0 DIFFERENT FILL-ORIGIN LEVEL: 0
L2C AVERAGE MISS LATENCY: 147.456 cycles
L2C RQ	ACCESS:   16315913	FORWARD:          0	MERGED:          0	TO_CACHE:   16315181
L2C WQ	ACCESS:    4387410	FORWARD:        732	MERGED:          0	TO_CACHE:    4387410
L2C PQ	ACCESS:    1512786	FORWARD:          0	MERGED:          0	TO_CACHE:    1512786

L2C Instructions Evicting Data 568950
L2C Translations Evicting Data 51651
L2C Data Evicting Data 5992858
L2C Instructions Evicting Instructions 45384
L2C Translations Evicting Instructions 5246
L2C Data Evicting Instructions 557082
L2C Instructions Evicting Translations 5260
L2C Translations Evicting Translations 490
L2C Data Evicting Translations 50908
L2C Dense regions hint from L2: 0
PSCL5 TOTAL     ACCESS:     410044  HIT:     410044  MISS:          0  HIT %:        100  MISS %:          0   MPKI: 0
PSCL5 LOAD TRANSLATION ACCESS:      73045  HIT:      73045  MISS:          0  HIT %:        100  MISS %:          0   MPKI: 0
PSCL5 TRANSLATION FROM L1D PREFETCHER ACCESS:     336999  HIT:     336999  MISS:          0  HIT %:        100  MISS %:          0   MPKI: 0
PSCL5 PREFETCH  REQUESTED:          0  ISSUED:          0  USEFUL:          0  USELESS:          0
PSCL5 USEFUL LOAD PREFETCHES:          0 PREFETCH ISSUED TO LOWER LEVEL:          0  ACCURACY: -nan
PSCL5 TIMELY PREFETCHES:          0 LATE PREFETCHES: 0 DROPPED PREFETCHES: 0
PSCL5 PREFETCHES SAME FILL-ORIGIN LEVEL: 0 DIFFERENT FILL-ORIGIN LEVEL: 0

PSCL4 TOTAL     ACCESS:     395297  HIT:     395216  MISS:         81  HIT %:    99.9795  MISS %:  0.0204909   MPKI: 0.000405
PSCL4 LOAD TRANSLATION ACCESS:      65029  HIT:      64948  MISS:         81  HIT %:    99.8754  MISS %:    0.12456   MPKI: 0.000405
PSCL4 TRANSLATION FROM L1D PREFETCHER ACCESS:     330268  HIT:     330268  MISS:          0  HIT %:        100  MISS %:          0   MPKI: 0
PSCL4 PREFETCH  REQUESTED:          0  ISSUED:          0  USEFUL:          0  USELESS:          0
PSCL4 USEFUL LOAD PREFETCHES:          0 PREFETCH ISSUED TO LOWER LEVEL:          0  ACCURACY: -nan
PSCL4 TIMELY PREFETCHES:          0 LATE PREFETCHES: 0 DROPPED PREFETCHES: 0
PSCL4 PREFETCHES SAME FILL-ORIGIN LEVEL: 0 DIFFERENT FILL-ORIGIN LEVEL: 0

PSCL3 TOTAL     ACCESS:     407865  HIT:     407700  MISS:        165  HIT %:    99.9595  MISS %:  0.0404546   MPKI: 0.000825
PSCL3 LOAD TRANSLATION ACCESS:      73024  HIT:      72859  MISS:        165  HIT %:     99.774  MISS %:   0.225953   MPKI: 0.000825
PSCL3 TRANSLATION FROM L1D PREFETCHER ACCESS:     334841  HIT:     334841  MISS:          0  HIT %:        100  MISS %:          0   MPKI: 0
PSCL3 PREFETCH  REQUESTED:          0  ISSUED:          0  USEFUL:          0  USELESS:          0
PSCL3 USEFUL LOAD PREFETCHES:          0 PREFETCH ISSUED TO LOWER LEVEL:          0  ACCURACY: -nan
PSCL3 TIMELY PREFETCHES:          0 LATE PREFETCHES: 0 DROPPED PREFETCHES: 0
PSCL3 PREFETCHES SAME FILL-ORIGIN LEVEL: 0 DIFFERENT FILL-ORIGIN LEVEL: 0

PSCL2 TOTAL     ACCESS:     299884  HIT:     292054  MISS:       7830  HIT %:     97.389  MISS %:    2.61101   MPKI: 0.03915
PSCL2 LOAD TRANSLATION ACCESS:      73091  HIT:      65261  MISS:       7830  HIT %:    89.2873  MISS %:    10.7127   MPKI: 0.03915
PSCL2 TRANSLATION FROM L1D PREFETCHER ACCESS:     226793  HIT:     226793  MISS:          0  HIT %:        100  MISS %:          0   MPKI: 0
PSCL2 PREFETCH  REQUESTED:          0  ISSUED:          0  USEFUL:          0  USELESS:          0
PSCL2 USEFUL LOAD PREFETCHES:          0 PREFETCH ISSUED TO LOWER LEVEL:          0  ACCURACY: -nan
PSCL2 TIMELY PREFETCHES:          0 LATE PREFETCHES: 0 DROPPED PREFETCHES: 0
PSCL2 PREFETCHES SAME FILL-ORIGIN LEVEL: 0 DIFFERENT FILL-ORIGIN LEVEL: 0

LLC TOTAL     ACCESS:   11368488  HIT:    5048538  MISS:    6319950  HIT %:    44.4082  MISS %:    55.5918   MPKI: 31.5998
LLC LOAD      ACCESS:    2701962  HIT:    1456724  MISS:    1245238  HIT %:    53.9136  MISS %:    46.0864   MPKI: 6.22619
LLC RFO       ACCESS:    3548482  HIT:     958569  MISS:    2589913  HIT %:    27.0135  MISS %:    72.9865   MPKI: 12.9496
LLC PREFETCH  ACCESS:     969974  HIT:     834403  MISS:     135571  HIT %:    86.0232  MISS %:    13.9768   MPKI: 0.677855
AGUS PREFETCH L1 MISS: 0
LLC WRITEBACK ACCESS:    4090683  HIT:    1769343  MISS:    2321340  HIT %:     43.253  MISS %:     56.747   MPKI: 11.6067
LLC LOAD TRANSLATION ACCESS:      35199  HIT:       8731  MISS:      26468  HIT %:    24.8047  MISS %:    75.1953   MPKI: 0.13234
LLC TRANSLATION FROM L1D PREFETCHER ACCESS:      22188  HIT:      20768  MISS:       1420  HIT %:    93.6001  MISS %:    6.39986   MPKI: 0.0071
LLC PREFETCH  REQUESTED:          0  ISSUED:          0  USEFUL:       2355  USELESS:     135546
LLC USEFUL LOAD PREFETCHES:       2355 PREFETCH ISSUED TO LOWER LEVEL:     135571  ACCURACY: 1.7371
LLC TIMELY PREFETCHES:       2355 LATE PREFETCHES: 0 DROPPED PREFETCHES: 0
LLC PREFETCHES SAME FILL-ORIGIN LEVEL: 0 DIFFERENT FILL-ORIGIN LEVEL: 0
LLC AVERAGE MISS LATENCY: 137.673 cycles
LLC RQ	ACCESS:    6307854	FORWARD:          0	MERGED:          0	TO_CACHE:    6307831
LLC WQ	ACCESS:    4090683	FORWARD:         24	MERGED:          0	TO_CACHE:    4090683
LLC PQ	ACCESS:     969975	FORWARD:          0	MERGED:          0	TO_CACHE:     969974

LLC Dense regions hint to LLC: 0

RAW hits: 2416126
Loads Generated: 47727088
Loads sent to L1D: 45310961
Stores Generated: 34236666
Stores sent to L1D: 34236669
Major fault: 0 Minor fault: 23678
Allocated PAGES: 23678
ucb ended
-----------------------------------------------------------------------------------------------------------------------------------------------------------------------------------------------------
Offsets elements: -63 -62 -61 -60 -59 -58 -57 -56 -55 -54 -53 -52 -51 -50 -49 -48 -47 -46 -45 -44 -43 -42 -41 -40 -39 -38 -37 -36 -35 -34 -33 -32 -31 -30 -29 -28 -27 -26 -25 -24 -23 -22 -21 -20 -19 -18 -17 -16 -15 -14 -13 -12 -11 -10 -9 -8 -7 -6 -5 -4 -3 -2 -1 1 2 3 4 5 6 7 8 9 10 11 12 13 14 15 16 17 18 19 20 21 22 23 24 25 26 27 28 29 30 31 32 33 34 35 36 37 38 39 40 41 42 43 44 45 46 47 48 49 50 51 52 53 54 55 56 57 58 59 60 61 62 63 
Potential of Offsets elements: 28.2562 34.2562 28.2562 28.2562 32.2562 30.2562 28.2562 28.2562 36.2562 153.256 30.2562 28.2562 165.256 28.2562 28.2562 99.2562 30.2562 30.2562 36.2562 34.2562 192.256 30.2562 39.2562 105.256 38.2562 192.256 30.2562 34.2562 248.256 56.2562 44.2562 95.2562 28.2562 530.256 29.2562 77.2562 244.256 29.2562 440.256 211.256 235.256 404.256 125.256 552.256 304.256 54.2562 508.256 512.256 234.256 467.256 112.256 557.256 431.256 112.256 448.256 404.256 521.256 628.256 250.256 850.256 539.256 987.113 303.256 202.504 686.256 675.256 558.256 332.256 379.256 486.256 225.256 362.256 114.256 228.256 199.256 93.2562 321.256 79.2562 269.256 179.256 201.256 216.256 125.256 207.256 58.2562 154.256 135.256 170.256 185.256 178.256 132.256 153.256 129.256 189.256 51.2562 209.256 87.2562 114.256 226.256 47.2562 216.256 34.2562 113.256 158.256 119.256 192.256 65.2562 32.2562 142.256 146.256 153.256 43.2562 120.256 100.256 99.2562 138.256 103.256 144.256 56.2562 148.256 34.2562 118.256 123.256 32.2562 93.2562 195.256 
rewards of Offsets elements: 0 6 0 0 4 2 0 0 8 125 2 0 137 0 0 71 2 2 8 6 164 2 11 77 10 164 2 6 220 28 16 67 0 502 1 49 216 1 412 183 207 376 97 524 276 26 480 484 206 439 84 529 403 84 420 376 493 600 222 822 511 987 275 202 658 647 530 304 351 458 197 334 86 200 171 65 293 51 241 151 173 188 97 179 30 126 107 142 157 150 104 125 101 161 23 181 59 86 198 19 188 6 85 130 91 164 37 4 114 118 125 15 92 72 71 110 75 116 28 120 6 90 95 4 65 167 Printing Sanity2
offset_index value126
offset list size126
reward size126
potential size126
-----------------------------------------------------------------------------------------------------------------------------------------------------------------------------------------------------

DRAM Statistics
 CHANNEL 0
 RQ ROW_BUFFER_HIT:    1828801  ROW_BUFFER_MISS:    2169383
 DBUS_CONGESTED:       2400
 WQ ROW_BUFFER_HIT:     573429  ROW_BUFFER_MISS:    2089059  FULL:      50938

 AVG_CONGESTED_CYCLE: 3
 All warmup complete: 2
Channel 0 Bank busy for read cycles: 0
Channel 0 Bank busy for write cycles: 0
Channel 0
Rank 0
0banks busy for read cycles: 174104143
0banks busy for write cycles: 256928
1banks busy for read cycles: 32614517
1banks busy for write cycles: 33816523
2banks busy for read cycles: 15488332
2banks busy for write cycles: 13792598
3banks busy for read cycles: 18130915
3banks busy for write cycles: 7263200
4banks busy for read cycles: 9702794
4banks busy for write cycles: 4932219
5banks busy for read cycles: 6677207
5banks busy for write cycles: 4126194
6banks busy for read cycles: 11965515
6banks busy for write cycles: 3901162
7banks busy for read cycles: 5097468
7banks busy for write cycles: 6191947
8banks busy for read cycles: 15711371
8banks busy for write cycles: 35743806

CPU 0 Branch Prediction Accuracy: 99.9426% MPKI: 0.08767 Average ROB Occupancy at Mispredict: 121.087
Branch types
NOT_BRANCH: 169469654 84.7348%
BRANCH_DIRECT_JUMP: 1661001 0.8305%
BRANCH_INDIRECT: 9967571 4.98379%
BRANCH_CONDITIONAL: 12063601 6.0318%
BRANCH_DIRECT_CALL: 2825891 1.41295%
BRANCH_INDIRECT_CALL: 593170 0.296585%
BRANCH_RETURN: 3419094 1.70955%
BRANCH_OTHER: 0 0%

DRAM PAGES: 1048576
Allocated PAGES: 23678
