
*** ChampSim Multicore Out-of-Order Simulator ***

Warmup Instructions: 50000000
Simulation Instructions: 200000000
Number of CPUs: 1
LLC sets: 2048
LLC ways: 16
Off-chip DRAM Size: 4096 MB Channels: 1 Width: 64-bit Data Rate: 6400 MT/s
CPU 0 runs traces/spec2k17/srv_76.champsimtrace.xz
.xz
BTB has LRU replacement policy
ITLB has LRU replacement policy
DTLB has LRU replacement policy
STLB has LRU replacement policy
L1I has LRU replacement policy
L1D has LRU replacement policy
Initialize SRRIP state for L2C
Initialize DRRIP state for LLC
Offsets elements: -63 -62 -61 -60 -59 -58 -57 -56 -55 -54 -53 -52 -51 -50 -49 -48 -47 -46 -45 -44 -43 -42 -41 -40 -39 -38 -37 -36 -35 -34 -33 -32 -31 -30 -29 -28 -27 -26 -25 -24 -23 -22 -21 -20 -19 -18 -17 -16 -15 -14 -13 -12 -11 -10 -9 -8 -7 -6 -5 -4 -3 -2 -1 1 2 3 4 5 6 7 8 9 10 11 12 13 14 15 16 17 18 19 20 21 22 23 24 25 26 27 28 29 30 31 32 33 34 35 36 37 38 39 40 41 42 43 44 45 46 47 48 49 50 51 52 53 54 55 56 57 58 59 60 61 62 63 
Potential of Offsets elements: 
rewards of Offsets elements: 41 67 114 12 155 0 18 0 94 0 165 0 130 24 72 94 98 127 81 121 24 187 0 84 125 90 124 146 119 149 119 144 13 143 126 98 284 106 199 59 217 102 150 148 173 154 91 192 158 156 173 81 277 44 253 791 473 294 385 367 529 393 861 876 468 402 298 319 358 342 661 246 275 596 292 283 475 71 569 376 62 398 315 349 231 40 484 137 62 182 0 445 0 11 280 0 69 5 7 236 3 4 52 2 175 4 10 179 3 0 51 0 169 2 0 18 0 6 0 6 6 28 0 0 0 0 
Printing Sanity1
Heartbeat CPU 0 instructions: 10000002 cycles: 2954931 heartbeat IPC: 3.38417 cumulative IPC: 3.38417 (Simulation time: 0 hr 0 min 33 sec) 
Heartbeat CPU 0 instructions: 20000002 cycles: 5902687 heartbeat IPC: 3.39241 cumulative IPC: 3.38829 (Simulation time: 0 hr 1 min 3 sec) 
Heartbeat CPU 0 instructions: 30000000 cycles: 8858948 heartbeat IPC: 3.38265 cumulative IPC: 3.38641 (Simulation time: 0 hr 1 min 37 sec) 
*** Reached end of trace for Core: 0 Repeating trace: traces/spec2k17/srv_76.champsimtrace.xz
Heartbeat CPU 0 instructions: 40000002 cycles: 11814462 heartbeat IPC: 3.38351 cumulative IPC: 3.38568 (Simulation time: 0 hr 2 min 6 sec) 
Heartbeat CPU 0 instructions: 50000000 cycles: 14762528 heartbeat IPC: 3.39205 cumulative IPC: 3.38695 (Simulation time: 0 hr 2 min 35 sec) 

Warmup complete CPU 0 instructions: 50000004 cycles: 14762529 (Simulation time: 0 hr 2 min 35 sec) 

Heartbeat CPU 0 instructions: 60000001 cycles: 35741030 heartbeat IPC: 0.476679 cumulative IPC: 0.476678 (Simulation time: 0 hr 3 min 24 sec) 
*** Reached end of trace for Core: 0 Repeating trace: traces/spec2k17/srv_76.champsimtrace.xz
Heartbeat CPU 0 instructions: 70000002 cycles: 55863619 heartbeat IPC: 0.496954 cumulative IPC: 0.486605 (Simulation time: 0 hr 4 min 13 sec) 
Heartbeat CPU 0 instructions: 80000001 cycles: 75876616 heartbeat IPC: 0.499675 cumulative IPC: 0.490885 (Simulation time: 0 hr 5 min 4 sec) 
Heartbeat CPU 0 instructions: 90000001 cycles: 95900231 heartbeat IPC: 0.49941 cumulative IPC: 0.492989 (Simulation time: 0 hr 5 min 51 sec) 
*** Reached end of trace for Core: 0 Repeating trace: traces/spec2k17/srv_76.champsimtrace.xz
Heartbeat CPU 0 instructions: 100000000 cycles: 115911394 heartbeat IPC: 0.499721 cumulative IPC: 0.494321 (Simulation time: 0 hr 6 min 40 sec) 
Heartbeat CPU 0 instructions: 110000000 cycles: 135909687 heartbeat IPC: 0.500043 cumulative IPC: 0.495265 (Simulation time: 0 hr 7 min 28 sec) 
Heartbeat CPU 0 instructions: 120000000 cycles: 155847964 heartbeat IPC: 0.501548 cumulative IPC: 0.496153 (Simulation time: 0 hr 8 min 15 sec) 
*** Reached end of trace for Core: 0 Repeating trace: traces/spec2k17/srv_76.champsimtrace.xz
Heartbeat CPU 0 instructions: 130000001 cycles: 175911919 heartbeat IPC: 0.498406 cumulative IPC: 0.496434 (Simulation time: 0 hr 9 min 4 sec) 
Heartbeat CPU 0 instructions: 140000002 cycles: 195822232 heartbeat IPC: 0.502252 cumulative IPC: 0.497074 (Simulation time: 0 hr 9 min 52 sec) 
Heartbeat CPU 0 instructions: 150000001 cycles: 215769644 heartbeat IPC: 0.501318 cumulative IPC: 0.497495 (Simulation time: 0 hr 10 min 40 sec) 
Heartbeat CPU 0 instructions: 160000003 cycles: 235794548 heartbeat IPC: 0.499378 cumulative IPC: 0.497665 (Simulation time: 0 hr 11 min 27 sec) 
*** Reached end of trace for Core: 0 Repeating trace: traces/spec2k17/srv_76.champsimtrace.xz
Heartbeat CPU 0 instructions: 170000000 cycles: 255840555 heartbeat IPC: 0.498852 cumulative IPC: 0.497764 (Simulation time: 0 hr 12 min 15 sec) 
Heartbeat CPU 0 instructions: 180000001 cycles: 275788265 heartbeat IPC: 0.501311 cumulative IPC: 0.498035 (Simulation time: 0 hr 13 min 3 sec) 
Heartbeat CPU 0 instructions: 190000000 cycles: 295753953 heartbeat IPC: 0.500859 cumulative IPC: 0.498236 (Simulation time: 0 hr 13 min 45 sec) 
*** Reached end of trace for Core: 0 Repeating trace: traces/spec2k17/srv_76.champsimtrace.xz
Heartbeat CPU 0 instructions: 200000003 cycles: 315751283 heartbeat IPC: 0.500067 cumulative IPC: 0.498357 (Simulation time: 0 hr 14 min 26 sec) 
Heartbeat CPU 0 instructions: 210000000 cycles: 335710787 heartbeat IPC: 0.501014 cumulative IPC: 0.498523 (Simulation time: 0 hr 15 min 5 sec) 
Heartbeat CPU 0 instructions: 220000000 cycles: 355667925 heartbeat IPC: 0.501074 cumulative IPC: 0.498672 (Simulation time: 0 hr 15 min 38 sec) 
*** Reached end of trace for Core: 0 Repeating trace: traces/spec2k17/srv_76.champsimtrace.xz
Heartbeat CPU 0 instructions: 230000003 cycles: 375714301 heartbeat IPC: 0.498843 cumulative IPC: 0.498682 (Simulation time: 0 hr 16 min 11 sec) 
Heartbeat CPU 0 instructions: 240000000 cycles: 395607065 heartbeat IPC: 0.502695 cumulative IPC: 0.498891 (Simulation time: 0 hr 16 min 42 sec) 
Heartbeat CPU 0 instructions: 250000001 cycles: 415611426 heartbeat IPC: 0.499891 cumulative IPC: 0.498941 (Simulation time: 0 hr 17 min 11 sec) 
Finished CPU 0 instructions: 200000000 cycles: 400848899 cumulative IPC: 0.498941 (Simulation time: 0 hr 17 min 11 sec) 

ChampSim completed all CPUs

Region of Interest Statistics

CPU 0 cumulative IPC: 0.498941 instructions: 200000000 cycles: 400848899
ITLB TOTAL     ACCESS:   33786541  HIT:   32255296  MISS:    1531245  HIT %:    95.4679  MISS %:    4.53212   MPKI: 7.65623
ITLB LOAD TRANSLATION ACCESS:   33786541  HIT:   32255296  MISS:    1531245  HIT %:    95.4679  MISS %:    4.53212   MPKI: 7.65623
ITLB PREFETCH  REQUESTED:          0  ISSUED:          0  USEFUL:          0  USELESS:          0
ITLB USEFUL LOAD PREFETCHES:          0 PREFETCH ISSUED TO LOWER LEVEL:          0  ACCURACY: -nan
ITLB TIMELY PREFETCHES:          0 LATE PREFETCHES: 0 DROPPED PREFETCHES: 0
ITLB PREFETCHES SAME FILL-ORIGIN LEVEL: 0 DIFFERENT FILL-ORIGIN LEVEL: 0
ITLB AVERAGE MISS LATENCY: 9.24868 cycles
ITLB RQ	ACCESS:   40667468	FORWARD:          0	MERGED:    6386633	TO_CACHE:   34280835

DTLB TOTAL     ACCESS:   39995550  HIT:   38467596  MISS:    1527954  HIT %:    96.1797  MISS %:    3.82031   MPKI: 7.63977
DTLB LOAD TRANSLATION ACCESS:   39995550  HIT:   38467596  MISS:    1527954  HIT %:    96.1797  MISS %:    3.82031   MPKI: 7.63977
DTLB PREFETCH  REQUESTED:          0  ISSUED:          0  USEFUL:          0  USELESS:          0
DTLB USEFUL LOAD PREFETCHES:          0 PREFETCH ISSUED TO LOWER LEVEL:          0  ACCURACY: -nan
DTLB TIMELY PREFETCHES:          0 LATE PREFETCHES: 0 DROPPED PREFETCHES: 0
DTLB PREFETCHES SAME FILL-ORIGIN LEVEL: 0 DIFFERENT FILL-ORIGIN LEVEL: 0
DTLB AVERAGE MISS LATENCY: 15.1118 cycles
DTLB RQ	ACCESS:   61120160	FORWARD:          0	MERGED:   20723816	TO_CACHE:   40396344

STLB TOTAL     ACCESS:   10993823  HIT:   10915356  MISS:      78467  HIT %:    99.2863  MISS %:   0.713737   MPKI: 0.392335
STLB LOAD TRANSLATION ACCESS:    3059199  HIT:    2981124  MISS:      78075  HIT %:    97.4479  MISS %:    2.55214   MPKI: 0.390375
STLB TRANSLATION FROM L1D PREFETCHER ACCESS:    7934624  HIT:    7934232  MISS:        392  HIT %:    99.9951  MISS %: 0.00494037   MPKI: 0.00196
STLB PREFETCH  REQUESTED:          0  ISSUED:          0  USEFUL:        299  USELESS:         93
STLB USEFUL LOAD PREFETCHES:        299 PREFETCH ISSUED TO LOWER LEVEL:          0  ACCURACY: inf
STLB TIMELY PREFETCHES:        299 LATE PREFETCHES: 0 DROPPED PREFETCHES: 307484
STLB PREFETCHES SAME FILL-ORIGIN LEVEL: 0 DIFFERENT FILL-ORIGIN LEVEL: 0
STLB AVERAGE MISS LATENCY: 124.456 cycles
STLB RQ	ACCESS:   22135566	FORWARD:          0	MERGED:   10832733	TO_CACHE:   11302833

STLB Hit, L1D data hit: 0
STLB Hit, L2C data hit: 0
STLB Hit, LLC data hit: 0
STLB Hit, LLC data miss: 0
STLB STLB hints to L2: 0
L1D TOTAL     ACCESS:   66112652  HIT:   58087424  MISS:    8025228  HIT %:    87.8613  MISS %:    12.1387   MPKI: 40.1261
L1D LOAD      ACCESS:   26659787  HIT:   23666838  MISS:    2992949  HIT %:    88.7735  MISS %:    11.2265   MPKI: 14.9647
L1D RFO       ACCESS:   22526984  HIT:   18849318  MISS:    3677666  HIT %:    83.6744  MISS %:    16.3256   MPKI: 18.3883
L1D PREFETCH  ACCESS:   16925881  HIT:   15571268  MISS:    1354613  HIT %:    91.9968  MISS %:    8.00321   MPKI: 6.77306
AGUS PREFETCH L1 MISS: 0
L1D PREFETCH  REQUESTED:   42216897  ISSUED:   42194834  USEFUL:     287451  USELESS:    1067155
L1D USEFUL LOAD PREFETCHES:     287451 PREFETCH ISSUED TO LOWER LEVEL:    1380201  ACCURACY: 20.8267
L1D TIMELY PREFETCHES:     287451 LATE PREFETCHES: 21564 DROPPED PREFETCHES: 521248
L1D PREFETCHES SAME FILL-ORIGIN LEVEL: 1380201 DIFFERENT FILL-ORIGIN LEVEL: 0
L1D AVERAGE MISS LATENCY: 683523 cycles
L1D RQ	ACCESS:   45210270	FORWARD:          0	MERGED:   17839844	TO_CACHE:   27118672
L1D WQ	ACCESS:   34202058	FORWARD:     266186	MERGED:     200570	TO_CACHE:   34001488
L1D PQ	ACCESS:   23118467	FORWARD:          0	MERGED:    4027668	TO_CACHE:   19076367

L1D UNIQUE REGIONS ACCESSED: 0
L1D REGIONS CONFLICTS: 0
L1D Cross Page Prefetch Requests: 1071998
L1D Same Page Prefetch Requests: 27562953
L1D ROI Sum of L1D PQ occupancy: 265546112
L1D PREFETCHES PUSHED FROM L2C: 0
L1I TOTAL     ACCESS:   38022319  HIT:   28971277  MISS:    9051042  HIT %:    76.1954  MISS %:    23.8046   MPKI: 45.2552
L1I LOAD      ACCESS:   38022319  HIT:   28971277  MISS:    9051042  HIT %:    76.1954  MISS %:    23.8046   MPKI: 45.2552
L1I PREFETCH  REQUESTED:          0  ISSUED:          0  USEFUL:          0  USELESS:          0
L1I USEFUL LOAD PREFETCHES:          0 PREFETCH ISSUED TO LOWER LEVEL:          0  ACCURACY: -nan
L1I TIMELY PREFETCHES:          0 LATE PREFETCHES: 0 DROPPED PREFETCHES: 0
L1I PREFETCHES SAME FILL-ORIGIN LEVEL: 0 DIFFERENT FILL-ORIGIN LEVEL: 0
L1I AVERAGE MISS LATENCY: 16.9429 cycles
L1I RQ	ACCESS:   58980197	FORWARD:          0	MERGED:   18312729	TO_CACHE:   40667468

BTB TOTAL     ACCESS:   25729443  HIT:   24177548  MISS:    1551895  HIT %:    93.9684  MISS %:    6.03159   MPKI: 7.75948
BTB BRANCH_DIRECT_JUMP	ACCESS:    1656284  HIT:    1645281  MISS:      11003
BTB BRANCH_INDIRECT	ACCESS:    9938661  HIT:    9422853  MISS:     515808
BTB BRANCH_CONDITIONAL	ACCESS:    7324845  HIT:    7309493  MISS:      15352
BTB BRANCH_DIRECT_CALL	ACCESS:    2813378  HIT:    2777728  MISS:      35650
BTB BRANCH_INDIRECT_CALL	ACCESS:     591510  HIT:     480327  MISS:     111183
BTB BRANCH_RETURN	ACCESS:    3404765  HIT:    2541866  MISS:     862899
BTB BRANCH_OTHER ACCESS:          0  HIT:          0  MISS:          0

L2C TOTAL     ACCESS:   21986247  HIT:   14687987  MISS:    7298260  HIT %:    66.8053  MISS %:    33.1947   MPKI: 36.4913
L2C LOAD      ACCESS:   12021991  HIT:    9353332  MISS:    2668659  HIT %:    77.8019  MISS %:    22.1981   MPKI: 13.3433
L2C DATA LOAD MPKI: 10.3155
L2C INSTRUCTION LOAD MPKI: 3.02778
L2C RFO       ACCESS:    3673640  HIT:     119657  MISS:    3553983  HIT %:    3.25718  MISS %:    96.7428   MPKI: 17.7699
L2C PREFETCH  ACCESS:    1380201  HIT:     482547  MISS:     897654  HIT %:    34.9621  MISS %:    65.0379   MPKI: 4.48827
AGUS PREFETCH L1 MISS: 0
L2C DATA PREFETCH MPKI: 4.48827
L2C INSTRUCTION PREFETCH MPKI: 0
L2C WRITEBACK ACCESS:    4402063  HIT:    4286412  MISS:     115651  HIT %:    97.3728  MISS %:     2.6272   MPKI: 0.578255
L2C LOAD TRANSLATION ACCESS:      90145  HIT:      48756  MISS:      41389  HIT %:    54.0862  MISS %:    45.9138   MPKI: 0.206945
L2C TRANSLATION FROM L1D PREFETCHER ACCESS:     418207  HIT:     397283  MISS:      20924  HIT %:    94.9967  MISS %:    5.00326   MPKI: 0.10462
L2C PREFETCH  REQUESTED:          0  ISSUED:          0  USEFUL:      73830  USELESS:     845076
L2C USEFUL LOAD PREFETCHES:      73830 PREFETCH ISSUED TO LOWER LEVEL:     897654  ACCURACY: 8.22477
L2C TIMELY PREFETCHES:      73830 LATE PREFETCHES: 0 DROPPED PREFETCHES: 0
L2C PREFETCHES SAME FILL-ORIGIN LEVEL: 0 DIFFERENT FILL-ORIGIN LEVEL: 0
L2C AVERAGE MISS LATENCY: 149.031 cycles
L2C RQ	ACCESS:   16204422	FORWARD:          0	MERGED:          0	TO_CACHE:   16203984
L2C WQ	ACCESS:    4402063	FORWARD:        438	MERGED:          0	TO_CACHE:    4402063
L2C PQ	ACCESS:    1380201	FORWARD:          0	MERGED:          0	TO_CACHE:    1380201

L2C Instructions Evicting Data 554868
L2C Translations Evicting Data 55287
L2C Data Evicting Data 5916390
L2C Instructions Evicting Instructions 45035
L2C Translations Evicting Instructions 5934
L2C Data Evicting Instructions 543780
L2C Instructions Evicting Translations 5652
L2C Translations Evicting Translations 1092
L2C Data Evicting Translations 54571
L2C Dense regions hint from L2: 0
PSCL5 TOTAL     ACCESS:     385951  HIT:     385951  MISS:          0  HIT %:        100  MISS %:          0   MPKI: 0
PSCL5 LOAD TRANSLATION ACCESS:      78075  HIT:      78075  MISS:          0  HIT %:        100  MISS %:          0   MPKI: 0
PSCL5 TRANSLATION FROM L1D PREFETCHER ACCESS:     307876  HIT:     307876  MISS:          0  HIT %:        100  MISS %:          0   MPKI: 0
PSCL5 PREFETCH  REQUESTED:          0  ISSUED:          0  USEFUL:          0  USELESS:          0
PSCL5 USEFUL LOAD PREFETCHES:          0 PREFETCH ISSUED TO LOWER LEVEL:          0  ACCURACY: -nan
PSCL5 TIMELY PREFETCHES:          0 LATE PREFETCHES: 0 DROPPED PREFETCHES: 0
PSCL5 PREFETCHES SAME FILL-ORIGIN LEVEL: 0 DIFFERENT FILL-ORIGIN LEVEL: 0

PSCL4 TOTAL     ACCESS:     377261  HIT:     377013  MISS:        248  HIT %:    99.9343  MISS %:   0.065737   MPKI: 0.00124
PSCL4 LOAD TRANSLATION ACCESS:      75200  HIT:      74952  MISS:        248  HIT %:    99.6702  MISS %:   0.329787   MPKI: 0.00124
PSCL4 TRANSLATION FROM L1D PREFETCHER ACCESS:     302061  HIT:     302061  MISS:          0  HIT %:        100  MISS %:          0   MPKI: 0
PSCL4 PREFETCH  REQUESTED:          0  ISSUED:          0  USEFUL:          0  USELESS:          0
PSCL4 USEFUL LOAD PREFETCHES:          0 PREFETCH ISSUED TO LOWER LEVEL:          0  ACCURACY: -nan
PSCL4 TIMELY PREFETCHES:          0 LATE PREFETCHES: 0 DROPPED PREFETCHES: 0
PSCL4 PREFETCHES SAME FILL-ORIGIN LEVEL: 0 DIFFERENT FILL-ORIGIN LEVEL: 0

PSCL3 TOTAL     ACCESS:     358148  HIT:     356841  MISS:       1307  HIT %:    99.6351  MISS %:   0.364933   MPKI: 0.006535
PSCL3 LOAD TRANSLATION ACCESS:      72835  HIT:      71528  MISS:       1307  HIT %:    98.2055  MISS %:    1.79447   MPKI: 0.006535
PSCL3 TRANSLATION FROM L1D PREFETCHER ACCESS:     285313  HIT:     285313  MISS:          0  HIT %:        100  MISS %:          0   MPKI: 0
PSCL3 PREFETCH  REQUESTED:          0  ISSUED:          0  USEFUL:          0  USELESS:          0
PSCL3 USEFUL LOAD PREFETCHES:          0 PREFETCH ISSUED TO LOWER LEVEL:          0  ACCURACY: -nan
PSCL3 TIMELY PREFETCHES:          0 LATE PREFETCHES: 0 DROPPED PREFETCHES: 0
PSCL3 PREFETCHES SAME FILL-ORIGIN LEVEL: 0 DIFFERENT FILL-ORIGIN LEVEL: 0

PSCL2 TOTAL     ACCESS:     283963  HIT:     273391  MISS:      10572  HIT %:     96.277  MISS %:    3.72302   MPKI: 0.05286
PSCL2 LOAD TRANSLATION ACCESS:      78131  HIT:      67559  MISS:      10572  HIT %:    86.4689  MISS %:    13.5311   MPKI: 0.05286
PSCL2 TRANSLATION FROM L1D PREFETCHER ACCESS:     205832  HIT:     205832  MISS:          0  HIT %:        100  MISS %:          0   MPKI: 0
PSCL2 PREFETCH  REQUESTED:          0  ISSUED:          0  USEFUL:          0  USELESS:          0
PSCL2 USEFUL LOAD PREFETCHES:          0 PREFETCH ISSUED TO LOWER LEVEL:          0  ACCURACY: -nan
PSCL2 TIMELY PREFETCHES:          0 LATE PREFETCHES: 0 DROPPED PREFETCHES: 0
PSCL2 PREFETCHES SAME FILL-ORIGIN LEVEL: 0 DIFFERENT FILL-ORIGIN LEVEL: 0

LLC TOTAL     ACCESS:   11280647  HIT:    4842694  MISS:    6437953  HIT %:    42.9292  MISS %:    57.0708   MPKI: 32.1898
LLC LOAD      ACCESS:    2668657  HIT:    1422108  MISS:    1246549  HIT %:    53.2893  MISS %:    46.7107   MPKI: 6.23275
LLC RFO       ACCESS:    3553971  HIT:     940446  MISS:    2613525  HIT %:    26.4618  MISS %:    73.5382   MPKI: 13.0676
LLC PREFETCH  ACCESS:     897654  HIT:     768500  MISS:     129154  HIT %:    85.6121  MISS %:    14.3879   MPKI: 0.64577
AGUS PREFETCH L1 MISS: 0
LLC WRITEBACK ACCESS:    4098052  HIT:    1683355  MISS:    2414697  HIT %:     41.077  MISS %:     58.923   MPKI: 12.0735
LLC LOAD TRANSLATION ACCESS:      41389  HIT:       9679  MISS:      31710  HIT %:    23.3854  MISS %:    76.6146   MPKI: 0.15855
LLC TRANSLATION FROM L1D PREFETCHER ACCESS:      20924  HIT:      18606  MISS:       2318  HIT %:    88.9218  MISS %:    11.0782   MPKI: 0.01159
LLC PREFETCH  REQUESTED:          0  ISSUED:          0  USEFUL:       1532  USELESS:     130744
LLC USEFUL LOAD PREFETCHES:       1532 PREFETCH ISSUED TO LOWER LEVEL:     129154  ACCURACY: 1.18618
LLC TIMELY PREFETCHES:       1532 LATE PREFETCHES: 0 DROPPED PREFETCHES: 0
LLC PREFETCHES SAME FILL-ORIGIN LEVEL: 0 DIFFERENT FILL-ORIGIN LEVEL: 0
LLC AVERAGE MISS LATENCY: 135.475 cycles
LLC RQ	ACCESS:    6284955	FORWARD:          0	MERGED:          0	TO_CACHE:    6284941
LLC WQ	ACCESS:    4098052	FORWARD:         14	MERGED:          0	TO_CACHE:    4098052
LLC PQ	ACCESS:     897654	FORWARD:          0	MERGED:          0	TO_CACHE:     897654

LLC Dense regions hint to LLC: 0

RAW hits: 2413284
Loads Generated: 47623555
Loads sent to L1D: 45210270
Stores Generated: 34202037
Stores sent to L1D: 34202058
Major fault: 0 Minor fault: 9169
Allocated PAGES: 9169
ucb ended
-----------------------------------------------------------------------------------------------------------------------------------------------------------------------------------------------------
Offsets elements: -63 -62 -61 -60 -59 -58 -57 -56 -55 -54 -53 -52 -51 -50 -49 -48 -47 -46 -45 -44 -43 -42 -41 -40 -39 -38 -37 -36 -35 -34 -33 -32 -31 -30 -29 -28 -27 -26 -25 -24 -23 -22 -21 -20 -19 -18 -17 -16 -15 -14 -13 -12 -11 -10 -9 -8 -7 -6 -5 -4 -3 -2 -1 1 2 3 4 5 6 7 8 9 10 11 12 13 14 15 16 17 18 19 20 21 22 23 24 25 26 27 28 29 30 31 32 33 34 35 36 37 38 39 40 41 42 43 44 45 46 47 48 49 50 51 52 53 54 55 56 57 58 59 60 61 62 63 
Potential of Offsets elements: 69.2526 95.2526 142.253 40.2526 183.253 28.2526 46.2526 28.2526 122.253 28.2526 193.253 28.2526 158.253 52.2526 100.253 122.253 126.253 155.253 109.253 149.253 52.2526 215.253 28.2526 112.253 153.253 118.253 152.253 174.253 147.253 177.253 147.253 172.253 41.2526 171.253 154.253 126.253 312.253 134.253 227.253 87.2526 245.253 130.253 178.253 176.253 201.253 182.253 119.253 220.253 186.253 184.253 201.253 109.253 305.253 72.2526 281.253 819.253 501.253 322.253 413.253 395.253 557.253 421.253 861.114 786.466 496.253 430.253 326.253 347.253 386.253 370.253 689.253 274.253 303.253 624.253 320.253 311.253 503.253 99.2526 597.253 404.253 90.2526 426.253 343.253 377.253 259.253 68.2526 512.253 165.253 90.2526 210.253 28.2526 473.253 28.2526 39.2526 308.253 28.2526 97.2526 33.2526 35.2526 264.253 31.2526 32.2526 80.2526 30.2526 203.253 32.2526 38.2526 207.253 31.2526 28.2526 79.2526 28.2526 197.253 30.2526 28.2526 46.2526 28.2526 34.2526 28.2526 34.2526 34.2526 56.2526 28.2526 28.2526 28.2526 28.2526 
rewards of Offsets elements: 41 67 114 12 155 0 18 0 94 0 165 0 130 24 72 94 98 127 81 121 24 187 0 84 125 90 124 146 119 149 119 144 13 143 126 98 284 106 199 59 217 102 150 148 173 154 91 192 158 156 173 81 277 44 253 791 473 294 385 367 529 393 861 786 468 402 298 319 358 342 661 246 275 596 292 283 475 71 569 376 62 398 315 349 231 40 484 137 62 182 0 445 0 11 280 0 69 5 7 236 3 4 52 2 175 4 10 179 3 0 51 0 169 2 0 18 0 6 0 6 6 28 0 0 0 0 Printing Sanity2
offset_index value126
offset list size126
reward size126
potential size126
-----------------------------------------------------------------------------------------------------------------------------------------------------------------------------------------------------

DRAM Statistics
 CHANNEL 0
 RQ ROW_BUFFER_HIT:    1856873  ROW_BUFFER_MISS:    2166088
 DBUS_CONGESTED:       2445
 WQ ROW_BUFFER_HIT:     557668  ROW_BUFFER_MISS:    2131414  FULL:      50586

 AVG_CONGESTED_CYCLE: 3
 All warmup complete: 2
Channel 0 Bank busy for read cycles: 0
Channel 0 Bank busy for write cycles: 0
Channel 0
Rank 0
0banks busy for read cycles: 170254011
0banks busy for write cycles: 257727
1banks busy for read cycles: 34641088
1banks busy for write cycles: 33940892
2banks busy for read cycles: 15834853
2banks busy for write cycles: 14763383
3banks busy for read cycles: 19093242
3banks busy for write cycles: 7740698
4banks busy for read cycles: 10072306
4banks busy for write cycles: 5180598
5banks busy for read cycles: 6547744
5banks busy for write cycles: 4153072
6banks busy for read cycles: 11724173
6banks busy for write cycles: 3980100
7banks busy for read cycles: 5026252
7banks busy for write cycles: 6400860
8banks busy for read cycles: 15289118
8banks busy for write cycles: 35948783

CPU 0 Branch Prediction Accuracy: 99.9457% MPKI: 0.083 Average ROB Occupancy at Mispredict: 125.252
Branch types
NOT_BRANCH: 169416910 84.7085%
BRANCH_DIRECT_JUMP: 1656284 0.828142%
BRANCH_INDIRECT: 9938661 4.96933%
BRANCH_CONDITIONAL: 12178317 6.08916%
BRANCH_DIRECT_CALL: 2813378 1.40669%
BRANCH_INDIRECT_CALL: 591510 0.295755%
BRANCH_RETURN: 3404765 1.70238%
BRANCH_OTHER: 0 0%

DRAM PAGES: 1048576
Allocated PAGES: 9169
