
*** ChampSim Multicore Out-of-Order Simulator ***

Warmup Instructions: 50000000
Simulation Instructions: 200000000
Number of CPUs: 1
LLC sets: 2048
LLC ways: 16
Off-chip DRAM Size: 4096 MB Channels: 1 Width: 64-bit Data Rate: 6400 MT/s
CPU 0 runs traces/spec2k17/srv_42.champsimtrace.xz
.xz
BTB has LRU replacement policy
ITLB has LRU replacement policy
DTLB has LRU replacement policy
STLB has LRU replacement policy
L1I has LRU replacement policy
L1D has LRU replacement policy
Initialize SRRIP state for L2C
Initialize DRRIP state for LLC
Offsets elements: -63 -62 -61 -60 -59 -58 -57 -56 -55 -54 -53 -52 -51 -50 -49 -48 -47 -46 -45 -44 -43 -42 -41 -40 -39 -38 -37 -36 -35 -34 -33 -32 -31 -30 -29 -28 -27 -26 -25 -24 -23 -22 -21 -20 -19 -18 -17 -16 -15 -14 -13 -12 -11 -10 -9 -8 -7 -6 -5 -4 -3 -2 -1 1 2 3 4 5 6 7 8 9 10 11 12 13 14 15 16 17 18 19 20 21 22 23 24 25 26 27 28 29 30 31 32 33 34 35 36 37 38 39 40 41 42 43 44 45 46 47 48 49 50 51 52 53 54 55 56 57 58 59 60 61 62 63 
Potential of Offsets elements: 
rewards of Offsets elements: 0 20 161 1 121 87 2 1 45 93 70 116 88 112 117 99 328 152 72 99 69 190 19 1 40 69 105 26 146 650 1215 300 54 13 37 3 0 94 88 75 85 47 181 304 27 129 191 368 80 156 170 215 160 107 116 214 295 143 162 257 555 1006 996 384 354 2437 464 188 220 569 700 323 460 194 97 108 123 67 8 55 306 218 0 80 164 298 197 82 72 64 246 126 36 149 368 376 85 34 32 1329 1007 18 11 28 6 0 15 56 11 66 12 110 94 52 97 90 22 4 37 8 127 136 38 141 21 44 
Printing Sanity1
Heartbeat CPU 0 instructions: 10000000 cycles: 2960943 heartbeat IPC: 3.3773 cumulative IPC: 3.3773 (Simulation time: 0 hr 0 min 41 sec) 
Heartbeat CPU 0 instructions: 20000003 cycles: 5916603 heartbeat IPC: 3.38334 cumulative IPC: 3.38032 (Simulation time: 0 hr 1 min 22 sec) 
Heartbeat CPU 0 instructions: 30000003 cycles: 8875277 heartbeat IPC: 3.37989 cumulative IPC: 3.38018 (Simulation time: 0 hr 2 min 4 sec) 
*** Reached end of trace for Core: 0 Repeating trace: traces/spec2k17/srv_42.champsimtrace.xz
Heartbeat CPU 0 instructions: 40000000 cycles: 11831470 heartbeat IPC: 3.38273 cumulative IPC: 3.38081 (Simulation time: 0 hr 2 min 34 sec) 
Heartbeat CPU 0 instructions: 50000002 cycles: 14788039 heartbeat IPC: 3.3823 cumulative IPC: 3.38111 (Simulation time: 0 hr 3 min 11 sec) 

Warmup complete CPU 0 instructions: 50000002 cycles: 14788039 (Simulation time: 0 hr 3 min 11 sec) 

Heartbeat CPU 0 instructions: 60000000 cycles: 46075780 heartbeat IPC: 0.319614 cumulative IPC: 0.319614 (Simulation time: 0 hr 4 min 18 sec) 
*** Reached end of trace for Core: 0 Repeating trace: traces/spec2k17/srv_42.champsimtrace.xz
Heartbeat CPU 0 instructions: 70000001 cycles: 77000494 heartbeat IPC: 0.323366 cumulative IPC: 0.321479 (Simulation time: 0 hr 5 min 13 sec) 
Heartbeat CPU 0 instructions: 80000000 cycles: 107874990 heartbeat IPC: 0.323892 cumulative IPC: 0.322279 (Simulation time: 0 hr 5 min 55 sec) 
Heartbeat CPU 0 instructions: 90000001 cycles: 139159343 heartbeat IPC: 0.319649 cumulative IPC: 0.321618 (Simulation time: 0 hr 6 min 38 sec) 
*** Reached end of trace for Core: 0 Repeating trace: traces/spec2k17/srv_42.champsimtrace.xz
Heartbeat CPU 0 instructions: 100000002 cycles: 170056985 heartbeat IPC: 0.323649 cumulative IPC: 0.322022 (Simulation time: 0 hr 7 min 21 sec) 
Heartbeat CPU 0 instructions: 110000000 cycles: 200982839 heartbeat IPC: 0.323354 cumulative IPC: 0.322243 (Simulation time: 0 hr 8 min 3 sec) 
Heartbeat CPU 0 instructions: 120000000 cycles: 232205333 heartbeat IPC: 0.320282 cumulative IPC: 0.321961 (Simulation time: 0 hr 8 min 45 sec) 
*** Reached end of trace for Core: 0 Repeating trace: traces/spec2k17/srv_42.champsimtrace.xz
Heartbeat CPU 0 instructions: 130000000 cycles: 262997408 heartbeat IPC: 0.324759 cumulative IPC: 0.322309 (Simulation time: 0 hr 9 min 29 sec) 
Heartbeat CPU 0 instructions: 140000001 cycles: 293961964 heartbeat IPC: 0.32295 cumulative IPC: 0.32238 (Simulation time: 0 hr 10 min 11 sec) 
Heartbeat CPU 0 instructions: 150000000 cycles: 325194264 heartbeat IPC: 0.320181 cumulative IPC: 0.322158 (Simulation time: 0 hr 10 min 53 sec) 
*** Reached end of trace for Core: 0 Repeating trace: traces/spec2k17/srv_42.champsimtrace.xz
Heartbeat CPU 0 instructions: 160000002 cycles: 356055534 heartbeat IPC: 0.324031 cumulative IPC: 0.322328 (Simulation time: 0 hr 11 min 35 sec) 
Heartbeat CPU 0 instructions: 170000000 cycles: 387023375 heartbeat IPC: 0.322916 cumulative IPC: 0.322377 (Simulation time: 0 hr 12 min 18 sec) 
Heartbeat CPU 0 instructions: 180000000 cycles: 418169592 heartbeat IPC: 0.321066 cumulative IPC: 0.322276 (Simulation time: 0 hr 13 min 1 sec) 
*** Reached end of trace for Core: 0 Repeating trace: traces/spec2k17/srv_42.champsimtrace.xz
Heartbeat CPU 0 instructions: 190000002 cycles: 449037518 heartbeat IPC: 0.323961 cumulative IPC: 0.322395 (Simulation time: 0 hr 13 min 43 sec) 
Heartbeat CPU 0 instructions: 200000002 cycles: 479976570 heartbeat IPC: 0.323216 cumulative IPC: 0.32245 (Simulation time: 0 hr 14 min 25 sec) 
Heartbeat CPU 0 instructions: 210000002 cycles: 511098040 heartbeat IPC: 0.321322 cumulative IPC: 0.322379 (Simulation time: 0 hr 15 min 6 sec) 
*** Reached end of trace for Core: 0 Repeating trace: traces/spec2k17/srv_42.champsimtrace.xz
Heartbeat CPU 0 instructions: 220000000 cycles: 541988021 heartbeat IPC: 0.323729 cumulative IPC: 0.322458 (Simulation time: 0 hr 15 min 48 sec) 
Heartbeat CPU 0 instructions: 230000001 cycles: 572894512 heartbeat IPC: 0.323557 cumulative IPC: 0.322519 (Simulation time: 0 hr 16 min 29 sec) 
Heartbeat CPU 0 instructions: 240000001 cycles: 603871248 heartbeat IPC: 0.322823 cumulative IPC: 0.322535 (Simulation time: 0 hr 17 min 8 sec) 
*** Reached end of trace for Core: 0 Repeating trace: traces/spec2k17/srv_42.champsimtrace.xz
Heartbeat CPU 0 instructions: 250000002 cycles: 634934720 heartbeat IPC: 0.321922 cumulative IPC: 0.322504 (Simulation time: 0 hr 17 min 45 sec) 
Finished CPU 0 instructions: 200000000 cycles: 620146681 cumulative IPC: 0.322504 (Simulation time: 0 hr 17 min 45 sec) 

ChampSim completed all CPUs

Region of Interest Statistics

CPU 0 cumulative IPC: 0.322504 instructions: 200000000 cycles: 620146681
ITLB TOTAL     ACCESS:   34786668  HIT:   33135890  MISS:    1650778  HIT %:    95.2546  MISS %:    4.74543   MPKI: 8.25389
ITLB LOAD TRANSLATION ACCESS:   34786668  HIT:   33135890  MISS:    1650778  HIT %:    95.2546  MISS %:    4.74543   MPKI: 8.25389
ITLB PREFETCH  REQUESTED:          0  ISSUED:          0  USEFUL:          0  USELESS:          0
ITLB USEFUL LOAD PREFETCHES:          0 PREFETCH ISSUED TO LOWER LEVEL:          0  ACCURACY: -nan
ITLB TIMELY PREFETCHES:          0 LATE PREFETCHES: 0 DROPPED PREFETCHES: 0
ITLB PREFETCHES SAME FILL-ORIGIN LEVEL: 0 DIFFERENT FILL-ORIGIN LEVEL: 0
ITLB AVERAGE MISS LATENCY: 9.84225 cycles
ITLB RQ	ACCESS:   40690776	FORWARD:          0	MERGED:    5412034	TO_CACHE:   35278742

DTLB TOTAL     ACCESS:   45908879  HIT:   44085659  MISS:    1823220  HIT %:    96.0286  MISS %:    3.97139   MPKI: 9.1161
DTLB LOAD TRANSLATION ACCESS:   45908879  HIT:   44085659  MISS:    1823220  HIT %:    96.0286  MISS %:    3.97139   MPKI: 9.1161
DTLB PREFETCH  REQUESTED:          0  ISSUED:          0  USEFUL:          0  USELESS:          0
DTLB USEFUL LOAD PREFETCHES:          0 PREFETCH ISSUED TO LOWER LEVEL:          0  ACCURACY: -nan
DTLB TIMELY PREFETCHES:          0 LATE PREFETCHES: 0 DROPPED PREFETCHES: 0
DTLB PREFETCHES SAME FILL-ORIGIN LEVEL: 0 DIFFERENT FILL-ORIGIN LEVEL: 0
DTLB AVERAGE MISS LATENCY: 12.109 cycles
DTLB RQ	ACCESS:   61104848	FORWARD:          0	MERGED:   15079130	TO_CACHE:   46025718

STLB TOTAL     ACCESS:   12895728  HIT:   12761797  MISS:     133931  HIT %:    98.9614  MISS %:    1.03857   MPKI: 0.669655
STLB LOAD TRANSLATION ACCESS:    3473998  HIT:    3353162  MISS:     120836  HIT %:    96.5217  MISS %:     3.4783   MPKI: 0.60418
STLB TRANSLATION FROM L1D PREFETCHER ACCESS:    9421730  HIT:    9408635  MISS:      13095  HIT %:     99.861  MISS %:   0.138987   MPKI: 0.065475
STLB PREFETCH  REQUESTED:          0  ISSUED:          0  USEFUL:      11448  USELESS:       1647
STLB USEFUL LOAD PREFETCHES:      11448 PREFETCH ISSUED TO LOWER LEVEL:          0  ACCURACY: inf
STLB TIMELY PREFETCHES:      11448 LATE PREFETCHES: 253 DROPPED PREFETCHES: 705461
STLB PREFETCHES SAME FILL-ORIGIN LEVEL: 0 DIFFERENT FILL-ORIGIN LEVEL: 0
STLB AVERAGE MISS LATENCY: 56.5153 cycles
STLB RQ	ACCESS:   16446319	FORWARD:          0	MERGED:    2737742	TO_CACHE:   13708577

STLB Hit, L1D data hit: 0
STLB Hit, L2C data hit: 0
STLB Hit, LLC data hit: 0
STLB Hit, LLC data miss: 0
STLB STLB hints to L2: 0
L1D TOTAL     ACCESS:   71024607  HIT:   64454260  MISS:    6570347  HIT %:    90.7492  MISS %:     9.2508   MPKI: 32.8517
L1D LOAD      ACCESS:   35349491  HIT:   31990834  MISS:    3358657  HIT %:    90.4987  MISS %:    9.50129   MPKI: 16.7933
L1D RFO       ACCESS:   23797177  HIT:   22624217  MISS:    1172960  HIT %:     95.071  MISS %:    4.92899   MPKI: 5.8648
L1D PREFETCH  ACCESS:   11877939  HIT:    9839209  MISS:    2038730  HIT %:     82.836  MISS %:     17.164   MPKI: 10.1936
AGUS PREFETCH L1 MISS: 0
L1D PREFETCH  REQUESTED:   39751623  ISSUED:   39751623  USEFUL:     300682  USELESS:    1738045
L1D USEFUL LOAD PREFETCHES:     300682 PREFETCH ISSUED TO LOWER LEVEL:    2039006  ACCURACY: 14.7465
L1D TIMELY PREFETCHES:     300682 LATE PREFETCHES: 276 DROPPED PREFETCHES: 1010823
L1D PREFETCHES SAME FILL-ORIGIN LEVEL: 2039006 DIFFERENT FILL-ORIGIN LEVEL: 0
L1D AVERAGE MISS LATENCY: 13629.8 cycles
L1D RQ	ACCESS:   46592215	FORWARD:          0	MERGED:   10871198	TO_CACHE:   35504883
L1D WQ	ACCESS:   25941685	FORWARD:     216134	MERGED:     341720	TO_CACHE:   25599965
L1D PQ	ACCESS:   26779302	FORWARD:          0	MERGED:   13806981	TO_CACHE:   12972321

L1D UNIQUE REGIONS ACCESSED: 0
L1D REGIONS CONFLICTS: 0
L1D Cross Page Prefetch Requests: 20441128
L1D Same Page Prefetch Requests: 12203384
L1D ROI Sum of L1D PQ occupancy: 195932806
L1D PREFETCHES PUSHED FROM L2C: 0
L1I TOTAL     ACCESS:   39384412  HIT:   30926031  MISS:    8458381  HIT %:    78.5235  MISS %:    21.4765   MPKI: 42.2919
L1I LOAD      ACCESS:   39384412  HIT:   30926031  MISS:    8458381  HIT %:    78.5235  MISS %:    21.4765   MPKI: 42.2919
L1I PREFETCH  REQUESTED:          0  ISSUED:          0  USEFUL:          0  USELESS:          0
L1I USEFUL LOAD PREFETCHES:          0 PREFETCH ISSUED TO LOWER LEVEL:          0  ACCURACY: -nan
L1I TIMELY PREFETCHES:          0 LATE PREFETCHES: 0 DROPPED PREFETCHES: 0
L1I PREFETCHES SAME FILL-ORIGIN LEVEL: 0 DIFFERENT FILL-ORIGIN LEVEL: 0
L1I AVERAGE MISS LATENCY: 22.0304 cycles
L1I RQ	ACCESS:   60021235	FORWARD:          0	MERGED:   19330459	TO_CACHE:   40690776

BTB TOTAL     ACCESS:   29850924  HIT:   19884743  MISS:    9966181  HIT %:    66.6135  MISS %:    33.3865   MPKI: 49.8309
BTB BRANCH_DIRECT_JUMP	ACCESS:    2604773  HIT:    1779545  MISS:     825228
BTB BRANCH_INDIRECT	ACCESS:   12507392  HIT:    8343784  MISS:    4163608
BTB BRANCH_CONDITIONAL	ACCESS:    6652538  HIT:    5757723  MISS:     894815
BTB BRANCH_DIRECT_CALL	ACCESS:    3088472  HIT:    1613786  MISS:    1474686
BTB BRANCH_INDIRECT_CALL	ACCESS:     954646  HIT:     671097  MISS:     283549
BTB BRANCH_RETURN	ACCESS:    4043103  HIT:    1718808  MISS:    2324295
BTB BRANCH_OTHER ACCESS:          0  HIT:          0  MISS:          0

L2C TOTAL     ACCESS:   18772976  HIT:   13530735  MISS:    5242241  HIT %:    72.0756  MISS %:    27.9244   MPKI: 26.2112
L2C LOAD      ACCESS:   11816716  HIT:    8413322  MISS:    3403394  HIT %:    71.1985  MISS %:    28.8015   MPKI: 17.017
L2C DATA LOAD MPKI: 5.9692
L2C INSTRUCTION LOAD MPKI: 11.0478
L2C RFO       ACCESS:    1172954  HIT:     555429  MISS:     617525  HIT %:     47.353  MISS %:     52.647   MPKI: 3.08763
L2C PREFETCH  ACCESS:    2039005  HIT:    1050049  MISS:     988956  HIT %:    51.4981  MISS %:    48.5019   MPKI: 4.94478
AGUS PREFETCH L1 MISS: 0
L2C DATA PREFETCH MPKI: 4.94478
L2C INSTRUCTION PREFETCH MPKI: 0
L2C WRITEBACK ACCESS:    2216832  HIT:    2109318  MISS:     107514  HIT %:    95.1501  MISS %:    4.84989   MPKI: 0.53757
L2C LOAD TRANSLATION ACCESS:     212499  HIT:     120219  MISS:      92280  HIT %:    56.5739  MISS %:    43.4261   MPKI: 0.4614
L2C TRANSLATION FROM L1D PREFETCHER ACCESS:    1314970  HIT:    1282398  MISS:      32572  HIT %:     97.523  MISS %:    2.47701   MPKI: 0.16286
L2C PREFETCH  REQUESTED:          0  ISSUED:          0  USEFUL:      53972  USELESS:     967479
L2C USEFUL LOAD PREFETCHES:      53972 PREFETCH ISSUED TO LOWER LEVEL:     988956  ACCURACY: 5.45747
L2C TIMELY PREFETCHES:      53972 LATE PREFETCHES: 0 DROPPED PREFETCHES: 0
L2C PREFETCHES SAME FILL-ORIGIN LEVEL: 0 DIFFERENT FILL-ORIGIN LEVEL: 0
L2C AVERAGE MISS LATENCY: 35.0114 cycles
L2C RQ	ACCESS:   14517191	FORWARD:          0	MERGED:          0	TO_CACHE:   14517139
L2C WQ	ACCESS:    2216832	FORWARD:         53	MERGED:          0	TO_CACHE:    2216832
L2C PQ	ACCESS:    2039006	FORWARD:          0	MERGED:          0	TO_CACHE:    2039005

L2C Instructions Evicting Data 1099553
L2C Translations Evicting Data 80298
L2C Data Evicting Data 1660086
L2C Instructions Evicting Instructions 1068067
L2C Translations Evicting Instructions 40390
L2C Data Evicting Instructions 1063973
L2C Instructions Evicting Translations 41935
L2C Translations Evicting Translations 4164
L2C Data Evicting Translations 76261
L2C Dense regions hint from L2: 0
PSCL5 TOTAL     ACCESS:     839392  HIT:     839392  MISS:          0  HIT %:        100  MISS %:          0   MPKI: 0
PSCL5 LOAD TRANSLATION ACCESS:     120583  HIT:     120583  MISS:          0  HIT %:        100  MISS %:          0   MPKI: 0
PSCL5 TRANSLATION FROM L1D PREFETCHER ACCESS:     718809  HIT:     718809  MISS:          0  HIT %:        100  MISS %:          0   MPKI: 0
PSCL5 PREFETCH  REQUESTED:          0  ISSUED:          0  USEFUL:          0  USELESS:          0
PSCL5 USEFUL LOAD PREFETCHES:          0 PREFETCH ISSUED TO LOWER LEVEL:          0  ACCURACY: -nan
PSCL5 TIMELY PREFETCHES:          0 LATE PREFETCHES: 0 DROPPED PREFETCHES: 0
PSCL5 PREFETCHES SAME FILL-ORIGIN LEVEL: 0 DIFFERENT FILL-ORIGIN LEVEL: 0

PSCL4 TOTAL     ACCESS:     655096  HIT:     650112  MISS:       4984  HIT %:    99.2392  MISS %:   0.760805   MPKI: 0.02492
PSCL4 LOAD TRANSLATION ACCESS:     110320  HIT:     105336  MISS:       4984  HIT %:    95.4822  MISS %:    4.51777   MPKI: 0.02492
PSCL4 TRANSLATION FROM L1D PREFETCHER ACCESS:     544776  HIT:     544776  MISS:          0  HIT %:        100  MISS %:          0   MPKI: 0
PSCL4 PREFETCH  REQUESTED:          0  ISSUED:          0  USEFUL:          0  USELESS:          0
PSCL4 USEFUL LOAD PREFETCHES:          0 PREFETCH ISSUED TO LOWER LEVEL:          0  ACCURACY: -nan
PSCL4 TIMELY PREFETCHES:          0 LATE PREFETCHES: 0 DROPPED PREFETCHES: 0
PSCL4 PREFETCHES SAME FILL-ORIGIN LEVEL: 0 DIFFERENT FILL-ORIGIN LEVEL: 0

PSCL3 TOTAL     ACCESS:     609302  HIT:     585164  MISS:      24138  HIT %:    96.0384  MISS %:    3.96158   MPKI: 0.12069
PSCL3 LOAD TRANSLATION ACCESS:     115320  HIT:      91182  MISS:      24138  HIT %:    79.0687  MISS %:    20.9313   MPKI: 0.12069
PSCL3 TRANSLATION FROM L1D PREFETCHER ACCESS:     493982  HIT:     493982  MISS:          0  HIT %:        100  MISS %:          0   MPKI: 0
PSCL3 PREFETCH  REQUESTED:          0  ISSUED:          0  USEFUL:          0  USELESS:          0
PSCL3 USEFUL LOAD PREFETCHES:          0 PREFETCH ISSUED TO LOWER LEVEL:          0  ACCURACY: -nan
PSCL3 TIMELY PREFETCHES:          0 LATE PREFETCHES: 0 DROPPED PREFETCHES: 0
PSCL3 PREFETCHES SAME FILL-ORIGIN LEVEL: 0 DIFFERENT FILL-ORIGIN LEVEL: 0

PSCL2 TOTAL     ACCESS:     362995  HIT:     295761  MISS:      67234  HIT %:     81.478  MISS %:     18.522   MPKI: 0.33617
PSCL2 LOAD TRANSLATION ACCESS:     123700  HIT:      56466  MISS:      67234  HIT %:    45.6475  MISS %:    54.3525   MPKI: 0.33617
PSCL2 TRANSLATION FROM L1D PREFETCHER ACCESS:     239295  HIT:     239295  MISS:          0  HIT %:        100  MISS %:          0   MPKI: 0
PSCL2 PREFETCH  REQUESTED:          0  ISSUED:          0  USEFUL:          0  USELESS:          0
PSCL2 USEFUL LOAD PREFETCHES:          0 PREFETCH ISSUED TO LOWER LEVEL:          0  ACCURACY: -nan
PSCL2 TIMELY PREFETCHES:          0 LATE PREFETCHES: 0 DROPPED PREFETCHES: 0
PSCL2 PREFETCHES SAME FILL-ORIGIN LEVEL: 0 DIFFERENT FILL-ORIGIN LEVEL: 0

LLC TOTAL     ACCESS:    6152299  HIT:    5981662  MISS:     170637  HIT %:    97.2265  MISS %:    2.77355   MPKI: 0.853185
LLC LOAD      ACCESS:    3403390  HIT:    3322689  MISS:      80701  HIT %:    97.6288  MISS %:    2.37119   MPKI: 0.403505
LLC RFO       ACCESS:     617513  HIT:     566962  MISS:      50551  HIT %:    91.8138  MISS %:    8.18622   MPKI: 0.252755
LLC PREFETCH  ACCESS:     988956  HIT:     955744  MISS:      33212  HIT %:    96.6417  MISS %:    3.35829   MPKI: 0.16606
AGUS PREFETCH L1 MISS: 0
LLC WRITEBACK ACCESS:    1017588  HIT:    1017011  MISS:        577  HIT %:    99.9433  MISS %:  0.0567027   MPKI: 0.002885
LLC LOAD TRANSLATION ACCESS:      92280  HIT:      87118  MISS:       5162  HIT %:    94.4062  MISS %:    5.59384   MPKI: 0.02581
LLC TRANSLATION FROM L1D PREFETCHER ACCESS:      32572  HIT:      32138  MISS:        434  HIT %:    98.6676  MISS %:    1.33243   MPKI: 0.00217
LLC PREFETCH  REQUESTED:          0  ISSUED:          0  USEFUL:       4657  USELESS:      29199
LLC USEFUL LOAD PREFETCHES:       4657 PREFETCH ISSUED TO LOWER LEVEL:      33212  ACCURACY: 14.022
LLC TIMELY PREFETCHES:       4657 LATE PREFETCHES: 0 DROPPED PREFETCHES: 0
LLC PREFETCHES SAME FILL-ORIGIN LEVEL: 0 DIFFERENT FILL-ORIGIN LEVEL: 0
LLC AVERAGE MISS LATENCY: 172.851 cycles
LLC RQ	ACCESS:    4145771	FORWARD:          0	MERGED:          0	TO_CACHE:    4145755
LLC WQ	ACCESS:    1017588	FORWARD:         16	MERGED:          0	TO_CACHE:    1017588
LLC PQ	ACCESS:     988956	FORWARD:          0	MERGED:          0	TO_CACHE:     988956

LLC Dense regions hint to LLC: 0

RAW hits: 3204953
Loads Generated: 49797170
Loads sent to L1D: 46592215
Stores Generated: 25941683
Stores sent to L1D: 25941685
Major fault: 0 Minor fault: 4280
Allocated PAGES: 4280
ucb ended
-----------------------------------------------------------------------------------------------------------------------------------------------------------------------------------------------------
Offsets elements: -63 -62 -61 -60 -59 -58 -57 -56 -55 -54 -53 -52 -51 -50 -49 -48 -47 -46 -45 -44 -43 -42 -41 -40 -39 -38 -37 -36 -35 -34 -33 -32 -31 -30 -29 -28 -27 -26 -25 -24 -23 -22 -21 -20 -19 -18 -17 -16 -15 -14 -13 -12 -11 -10 -9 -8 -7 -6 -5 -4 -3 -2 -1 1 2 3 4 5 6 7 8 9 10 11 12 13 14 15 16 17 18 19 20 21 22 23 24 25 26 27 28 29 30 31 32 33 34 35 36 37 38 39 40 41 42 43 44 45 46 47 48 49 50 51 52 53 54 55 56 57 58 59 60 61 62 63 
Potential of Offsets elements: 28.5832 48.5832 189.583 29.5832 149.583 115.583 30.5832 29.5832 73.5832 121.583 98.5832 144.583 116.583 140.583 145.583 127.583 356.583 180.583 100.583 127.583 97.5832 218.583 47.5832 29.5832 68.5832 97.5832 133.583 54.5832 174.583 678.583 1243.58 328.583 82.5832 41.5832 65.5832 31.5832 28.5832 122.583 116.583 103.583 113.583 75.5832 209.583 332.583 55.5832 157.583 219.583 396.583 108.583 184.583 198.583 243.583 188.583 135.583 144.583 242.583 323.583 171.583 190.583 285.583 583.583 1034.58 1024.58 412.583 382.583 107.503 492.583 216.583 248.583 597.583 728.583 351.583 488.583 222.583 125.583 136.583 151.583 95.5832 36.5832 83.5832 334.583 246.583 28.5832 108.583 192.583 326.583 225.583 110.583 100.583 92.5832 274.583 154.583 64.5832 177.583 396.583 404.583 113.583 62.5832 60.5832 1329.1 1035.58 46.5832 39.5832 56.5832 34.5832 28.5832 43.5832 84.5832 39.5832 94.5832 40.5832 138.583 122.583 80.5832 125.583 118.583 50.5832 32.5832 65.5832 36.5832 155.583 164.583 66.5832 169.583 49.5832 72.5832 
rewards of Offsets elements: 0 20 161 1 121 87 2 1 45 93 70 116 88 112 117 99 328 152 72 99 69 190 19 1 40 69 105 26 146 650 1215 300 54 13 37 3 0 94 88 75 85 47 181 304 27 129 191 368 80 156 170 215 160 107 116 214 295 143 162 257 555 1006 996 384 354 91 464 188 220 569 700 323 460 194 97 108 123 67 8 55 306 218 0 80 164 298 197 82 72 64 246 126 36 149 368 376 85 34 32 1329 1007 18 11 28 6 0 15 56 11 66 12 110 94 52 97 90 22 4 37 8 127 136 38 141 21 44 Printing Sanity2
offset_index value126
offset list size126
reward size126
potential size126
-----------------------------------------------------------------------------------------------------------------------------------------------------------------------------------------------------

DRAM Statistics
 CHANNEL 0
 RQ ROW_BUFFER_HIT:      37432  ROW_BUFFER_MISS:     132627
 DBUS_CONGESTED:        105
 WQ ROW_BUFFER_HIT:      11293  ROW_BUFFER_MISS:      81001  FULL:          0

 AVG_CONGESTED_CYCLE: 6
 All warmup complete: 2
Channel 0 Bank busy for read cycles: 0
Channel 0 Bank busy for write cycles: 0
Channel 0
Rank 0
0banks busy for read cycles: 593555427
0banks busy for write cycles: 51472
1banks busy for read cycles: 13074839
1banks busy for write cycles: 7315022
2banks busy for read cycles: 2147766
2banks busy for write cycles: 1672018
3banks busy for read cycles: 679024
3banks busy for write cycles: 589643
4banks busy for read cycles: 113938
4banks busy for write cycles: 221809
5banks busy for read cycles: 52635
5banks busy for write cycles: 90241
6banks busy for read cycles: 46912
6banks busy for write cycles: 47655
7banks busy for read cycles: 56539
7banks busy for write cycles: 56031
8banks busy for read cycles: 130212
8banks busy for write cycles: 245499

CPU 0 Branch Prediction Accuracy: 99.8256% MPKI: 0.309945 Average ROB Occupancy at Mispredict: 44.5486
Branch types
NOT_BRANCH: 164461162 82.2306%
BRANCH_DIRECT_JUMP: 2604773 1.30239%
BRANCH_INDIRECT: 12507392 6.2537%
BRANCH_CONDITIONAL: 12340417 6.17021%
BRANCH_DIRECT_CALL: 3088472 1.54424%
BRANCH_INDIRECT_CALL: 954646 0.477323%
BRANCH_RETURN: 4043103 2.02155%
BRANCH_OTHER: 0 0%

DRAM PAGES: 1048576
Allocated PAGES: 4280
