
*** ChampSim Multicore Out-of-Order Simulator ***

Warmup Instructions: 50000000
Simulation Instructions: 200000000
Number of CPUs: 1
LLC sets: 2048
LLC ways: 16
Off-chip DRAM Size: 4096 MB Channels: 1 Width: 64-bit Data Rate: 6400 MT/s
CPU 0 runs traces/spec2k17/srv_39.champsimtrace.xz
.xz
BTB has LRU replacement policy
ITLB has LRU replacement policy
DTLB has LRU replacement policy
STLB has LRU replacement policy
L1I has LRU replacement policy
L1D has LRU replacement policy
Initialize SRRIP state for L2C
Initialize DRRIP state for LLC
Offsets elements: -63 -62 -61 -60 -59 -58 -57 -56 -55 -54 -53 -52 -51 -50 -49 -48 -47 -46 -45 -44 -43 -42 -41 -40 -39 -38 -37 -36 -35 -34 -33 -32 -31 -30 -29 -28 -27 -26 -25 -24 -23 -22 -21 -20 -19 -18 -17 -16 -15 -14 -13 -12 -11 -10 -9 -8 -7 -6 -5 -4 -3 -2 -1 1 2 3 4 5 6 7 8 9 10 11 12 13 14 15 16 17 18 19 20 21 22 23 24 25 26 27 28 29 30 31 32 33 34 35 36 37 38 39 40 41 42 43 44 45 46 47 48 49 50 51 52 53 54 55 56 57 58 59 60 61 62 63 
Potential of Offsets elements: 
rewards of Offsets elements: 32 98 0 56 106 0 0 0 0 0 110 18 106 105 15 130 75 52 116 83 168 56 174 3 98 110 92 222 88 99 163 123 131 110 154 49 174 143 135 174 64 231 21 155 176 184 29 203 53 593 277 409 518 355 299 547 250 986 989 237 656 2422 2588 1264 2079 1034 1369 331 599 357 530 539 81 360 590 94 433 274 424 353 42 468 398 163 359 156 328 271 1 345 0 20 402 0 7 7 0 264 4 12 215 3 5 80 0 80 4 2 112 1 0 54 0 85 0 0 24 4 12 0 2 2 0 1 215 0 
Printing Sanity1
Heartbeat CPU 0 instructions: 10000001 cycles: 2955224 heartbeat IPC: 3.38384 cumulative IPC: 3.38384 (Simulation time: 0 hr 0 min 28 sec) 
Heartbeat CPU 0 instructions: 20000002 cycles: 5902638 heartbeat IPC: 3.39281 cumulative IPC: 3.38832 (Simulation time: 0 hr 0 min 55 sec) 
Heartbeat CPU 0 instructions: 30000003 cycles: 8856613 heartbeat IPC: 3.38527 cumulative IPC: 3.3873 (Simulation time: 0 hr 1 min 23 sec) 
*** Reached end of trace for Core: 0 Repeating trace: traces/spec2k17/srv_39.champsimtrace.xz
Heartbeat CPU 0 instructions: 40000000 cycles: 11809229 heartbeat IPC: 3.38683 cumulative IPC: 3.38718 (Simulation time: 0 hr 1 min 50 sec) 
Heartbeat CPU 0 instructions: 50000000 cycles: 14756610 heartbeat IPC: 3.39284 cumulative IPC: 3.38831 (Simulation time: 0 hr 2 min 18 sec) 

Warmup complete CPU 0 instructions: 50000004 cycles: 14756611 (Simulation time: 0 hr 2 min 18 sec) 

Heartbeat CPU 0 instructions: 60000003 cycles: 34583388 heartbeat IPC: 0.504369 cumulative IPC: 0.504368 (Simulation time: 0 hr 3 min 6 sec) 
*** Reached end of trace for Core: 0 Repeating trace: traces/spec2k17/srv_39.champsimtrace.xz
Heartbeat CPU 0 instructions: 70000000 cycles: 54349152 heartbeat IPC: 0.505925 cumulative IPC: 0.505146 (Simulation time: 0 hr 3 min 54 sec) 
Heartbeat CPU 0 instructions: 80000001 cycles: 74266302 heartbeat IPC: 0.50208 cumulative IPC: 0.50412 (Simulation time: 0 hr 4 min 50 sec) 
Heartbeat CPU 0 instructions: 90000000 cycles: 93951144 heartbeat IPC: 0.508005 cumulative IPC: 0.505085 (Simulation time: 0 hr 5 min 42 sec) 
*** Reached end of trace for Core: 0 Repeating trace: traces/spec2k17/srv_39.champsimtrace.xz
Heartbeat CPU 0 instructions: 100000000 cycles: 113702513 heartbeat IPC: 0.506294 cumulative IPC: 0.505327 (Simulation time: 0 hr 6 min 33 sec) 
Heartbeat CPU 0 instructions: 110000000 cycles: 133551017 heartbeat IPC: 0.503816 cumulative IPC: 0.505074 (Simulation time: 0 hr 7 min 21 sec) 
Heartbeat CPU 0 instructions: 120000001 cycles: 153280462 heartbeat IPC: 0.506857 cumulative IPC: 0.505328 (Simulation time: 0 hr 8 min 9 sec) 
*** Reached end of trace for Core: 0 Repeating trace: traces/spec2k17/srv_39.champsimtrace.xz
Heartbeat CPU 0 instructions: 130000000 cycles: 172948291 heartbeat IPC: 0.508444 cumulative IPC: 0.505716 (Simulation time: 0 hr 8 min 57 sec) 
Heartbeat CPU 0 instructions: 140000000 cycles: 192816573 heartbeat IPC: 0.503315 cumulative IPC: 0.505448 (Simulation time: 0 hr 9 min 45 sec) 
Heartbeat CPU 0 instructions: 150000003 cycles: 212557689 heartbeat IPC: 0.506557 cumulative IPC: 0.505558 (Simulation time: 0 hr 10 min 33 sec) 
Heartbeat CPU 0 instructions: 160000000 cycles: 232220667 heartbeat IPC: 0.50857 cumulative IPC: 0.505831 (Simulation time: 0 hr 11 min 21 sec) 
*** Reached end of trace for Core: 0 Repeating trace: traces/spec2k17/srv_39.champsimtrace.xz
Heartbeat CPU 0 instructions: 170000001 cycles: 252037173 heartbeat IPC: 0.50463 cumulative IPC: 0.50573 (Simulation time: 0 hr 12 min 8 sec) 
Heartbeat CPU 0 instructions: 180000000 cycles: 271782156 heartbeat IPC: 0.506458 cumulative IPC: 0.505786 (Simulation time: 0 hr 12 min 56 sec) 
Heartbeat CPU 0 instructions: 190000000 cycles: 291514720 heartbeat IPC: 0.506777 cumulative IPC: 0.505857 (Simulation time: 0 hr 13 min 43 sec) 
*** Reached end of trace for Core: 0 Repeating trace: traces/spec2k17/srv_39.champsimtrace.xz
Heartbeat CPU 0 instructions: 200000001 cycles: 311200296 heartbeat IPC: 0.507986 cumulative IPC: 0.505998 (Simulation time: 0 hr 14 min 32 sec) 
Heartbeat CPU 0 instructions: 210000000 cycles: 331055070 heartbeat IPC: 0.503657 cumulative IPC: 0.505851 (Simulation time: 0 hr 15 min 19 sec) 
Heartbeat CPU 0 instructions: 220000000 cycles: 350779277 heartbeat IPC: 0.506991 cumulative IPC: 0.505918 (Simulation time: 0 hr 16 min 5 sec) 
*** Reached end of trace for Core: 0 Repeating trace: traces/spec2k17/srv_39.champsimtrace.xz
Heartbeat CPU 0 instructions: 230000000 cycles: 370532699 heartbeat IPC: 0.506241 cumulative IPC: 0.505936 (Simulation time: 0 hr 16 min 52 sec) 
Heartbeat CPU 0 instructions: 240000001 cycles: 390302550 heartbeat IPC: 0.505821 cumulative IPC: 0.50593 (Simulation time: 0 hr 17 min 39 sec) 
Heartbeat CPU 0 instructions: 250000000 cycles: 410019631 heartbeat IPC: 0.507174 cumulative IPC: 0.505992 (Simulation time: 0 hr 18 min 24 sec) 
Finished CPU 0 instructions: 200000000 cycles: 395263029 cumulative IPC: 0.505992 (Simulation time: 0 hr 18 min 24 sec) 

ChampSim completed all CPUs

Region of Interest Statistics

CPU 0 cumulative IPC: 0.505992 instructions: 200000000 cycles: 395263029
ITLB TOTAL     ACCESS:   33791475  HIT:   32251168  MISS:    1540307  HIT %:    95.4417  MISS %:    4.55827   MPKI: 7.70153
ITLB LOAD TRANSLATION ACCESS:   33791475  HIT:   32251168  MISS:    1540307  HIT %:    95.4417  MISS %:    4.55827   MPKI: 7.70153
ITLB PREFETCH  REQUESTED:          0  ISSUED:          0  USEFUL:          0  USELESS:          0
ITLB USEFUL LOAD PREFETCHES:          0 PREFETCH ISSUED TO LOWER LEVEL:          0  ACCURACY: -nan
ITLB TIMELY PREFETCHES:          0 LATE PREFETCHES: 0 DROPPED PREFETCHES: 0
ITLB PREFETCHES SAME FILL-ORIGIN LEVEL: 0 DIFFERENT FILL-ORIGIN LEVEL: 0
ITLB AVERAGE MISS LATENCY: 9.21613 cycles
ITLB RQ	ACCESS:   40675623	FORWARD:          0	MERGED:    6389392	TO_CACHE:   34286231

DTLB TOTAL     ACCESS:   40131557  HIT:   38615051  MISS:    1516506  HIT %:    96.2212  MISS %:    3.77884   MPKI: 7.58253
DTLB LOAD TRANSLATION ACCESS:   40131557  HIT:   38615051  MISS:    1516506  HIT %:    96.2212  MISS %:    3.77884   MPKI: 7.58253
DTLB PREFETCH  REQUESTED:          0  ISSUED:          0  USEFUL:          0  USELESS:          0
DTLB USEFUL LOAD PREFETCHES:          0 PREFETCH ISSUED TO LOWER LEVEL:          0  ACCURACY: -nan
DTLB TIMELY PREFETCHES:          0 LATE PREFETCHES: 0 DROPPED PREFETCHES: 0
DTLB PREFETCHES SAME FILL-ORIGIN LEVEL: 0 DIFFERENT FILL-ORIGIN LEVEL: 0
DTLB AVERAGE MISS LATENCY: 13.9908 cycles
DTLB RQ	ACCESS:   61235531	FORWARD:          0	MERGED:   20715127	TO_CACHE:   40520404

STLB TOTAL     ACCESS:   10941092  HIT:   10862570  MISS:      78522  HIT %:    99.2823  MISS %:    0.71768   MPKI: 0.39261
STLB LOAD TRANSLATION ACCESS:    3056813  HIT:    2978773  MISS:      78040  HIT %:     97.447  MISS %:    2.55299   MPKI: 0.3902
STLB TRANSLATION FROM L1D PREFETCHER ACCESS:    7884279  HIT:    7883797  MISS:        482  HIT %:    99.9939  MISS %: 0.00611343   MPKI: 0.00241
STLB PREFETCH  REQUESTED:          0  ISSUED:          0  USEFUL:        365  USELESS:        116
STLB USEFUL LOAD PREFETCHES:        365 PREFETCH ISSUED TO LOWER LEVEL:          0  ACCURACY: inf
STLB TIMELY PREFETCHES:        365 LATE PREFETCHES: 0 DROPPED PREFETCHES: 340674
STLB PREFETCHES SAME FILL-ORIGIN LEVEL: 0 DIFFERENT FILL-ORIGIN LEVEL: 0
STLB AVERAGE MISS LATENCY: 101.132 cycles
STLB RQ	ACCESS:   22188216	FORWARD:          0	MERGED:   10894515	TO_CACHE:   11293701

STLB Hit, L1D data hit: 0
STLB Hit, L2C data hit: 0
STLB Hit, LLC data hit: 0
STLB Hit, LLC data miss: 0
STLB STLB hints to L2: 0
L1D TOTAL     ACCESS:   66656868  HIT:   58505485  MISS:    8151383  HIT %:    87.7711  MISS %:    12.2289   MPKI: 40.7569
L1D LOAD      ACCESS:   26806398  HIT:   23793280  MISS:    3013118  HIT %:    88.7597  MISS %:    11.2403   MPKI: 15.0656
L1D RFO       ACCESS:   22615724  HIT:   18962011  MISS:    3653713  HIT %:    83.8444  MISS %:    16.1556   MPKI: 18.2686
L1D PREFETCH  ACCESS:   17234746  HIT:   15750194  MISS:    1484552  HIT %:    91.3863  MISS %:    8.61372   MPKI: 7.42276
AGUS PREFETCH L1 MISS: 0
L1D PREFETCH  REQUESTED:   42346995  ISSUED:   42323815  USEFUL:     269959  USELESS:    1214606
L1D USEFUL LOAD PREFETCHES:     269959 PREFETCH ISSUED TO LOWER LEVEL:    1508548  ACCURACY: 17.8953
L1D TIMELY PREFETCHES:     269959 LATE PREFETCHES: 22216 DROPPED PREFETCHES: 681652
L1D PREFETCHES SAME FILL-ORIGIN LEVEL: 1508548 DIFFERENT FILL-ORIGIN LEVEL: 0
L1D AVERAGE MISS LATENCY: 624936 cycles
L1D RQ	ACCESS:   45396775	FORWARD:          0	MERGED:   17883985	TO_CACHE:   27256166
L1D WQ	ACCESS:   34178909	FORWARD:     266309	MERGED:     199544	TO_CACHE:   33979365
L1D PQ	ACCESS:   23192412	FORWARD:          0	MERGED:    4051324	TO_CACHE:   19131403

L1D UNIQUE REGIONS ACCESSED: 0
L1D REGIONS CONFLICTS: 0
L1D Cross Page Prefetch Requests: 1590938
L1D Same Page Prefetch Requests: 27124439
L1D ROI Sum of L1D PQ occupancy: 268733609
L1D PREFETCHES PUSHED FROM L2C: 0
L1I TOTAL     ACCESS:   38012341  HIT:   28907331  MISS:    9105010  HIT %:    76.0472  MISS %:    23.9528   MPKI: 45.5251
L1I LOAD      ACCESS:   38012341  HIT:   28907331  MISS:    9105010  HIT %:    76.0472  MISS %:    23.9528   MPKI: 45.5251
L1I PREFETCH  REQUESTED:          0  ISSUED:          0  USEFUL:          0  USELESS:          0
L1I USEFUL LOAD PREFETCHES:          0 PREFETCH ISSUED TO LOWER LEVEL:          0  ACCURACY: -nan
L1I TIMELY PREFETCHES:          0 LATE PREFETCHES: 0 DROPPED PREFETCHES: 0
L1I PREFETCHES SAME FILL-ORIGIN LEVEL: 0 DIFFERENT FILL-ORIGIN LEVEL: 0
L1I AVERAGE MISS LATENCY: 16.6667 cycles
L1I RQ	ACCESS:   59021889	FORWARD:          0	MERGED:   18346266	TO_CACHE:   40675623

BTB TOTAL     ACCESS:   25656444  HIT:   24104582  MISS:    1551862  HIT %:    93.9514  MISS %:    6.04862   MPKI: 7.75931
BTB BRANCH_DIRECT_JUMP	ACCESS:    1660636  HIT:    1651091  MISS:       9545
BTB BRANCH_INDIRECT	ACCESS:   10006679  HIT:    9485917  MISS:     520762
BTB BRANCH_CONDITIONAL	ACCESS:    7142248  HIT:    7128880  MISS:      13368
BTB BRANCH_DIRECT_CALL	ACCESS:    2826795  HIT:    2793470  MISS:      33325
BTB BRANCH_INDIRECT_CALL	ACCESS:     596648  HIT:     485314  MISS:     111334
BTB BRANCH_RETURN	ACCESS:    3423438  HIT:    2559910  MISS:     863528
BTB BRANCH_OTHER ACCESS:          0  HIT:          0  MISS:          0

L2C TOTAL     ACCESS:   22149841  HIT:   14782020  MISS:    7367821  HIT %:    66.7365  MISS %:    33.2635   MPKI: 36.8391
L2C LOAD      ACCESS:   12095204  HIT:    9406577  MISS:    2688627  HIT %:    77.7711  MISS %:    22.2289   MPKI: 13.4431
L2C DATA LOAD MPKI: 10.3958
L2C INSTRUCTION LOAD MPKI: 3.04731
L2C RFO       ACCESS:    3651920  HIT:     119595  MISS:    3532325  HIT %:    3.27485  MISS %:    96.7251   MPKI: 17.6616
L2C PREFETCH  ACCESS:    1508543  HIT:     535832  MISS:     972711  HIT %:    35.5198  MISS %:    64.4802   MPKI: 4.86355
AGUS PREFETCH L1 MISS: 0
L2C DATA PREFETCH MPKI: 4.86355
L2C INSTRUCTION PREFETCH MPKI: 0
L2C WRITEBACK ACCESS:    4378141  HIT:    4263693  MISS:     114448  HIT %:    97.3859  MISS %:    2.61408   MPKI: 0.57224
L2C LOAD TRANSLATION ACCESS:      87202  HIT:      48628  MISS:      38574  HIT %:    55.7648  MISS %:    44.2352   MPKI: 0.19287
L2C TRANSLATION FROM L1D PREFETCHER ACCESS:     428831  HIT:     407695  MISS:      21136  HIT %:    95.0713  MISS %:    4.92875   MPKI: 0.10568
L2C PREFETCH  REQUESTED:          0  ISSUED:          0  USEFUL:      74234  USELESS:     920176
L2C USEFUL LOAD PREFETCHES:      74234 PREFETCH ISSUED TO LOWER LEVEL:     972711  ACCURACY: 7.63166
L2C TIMELY PREFETCHES:      74234 LATE PREFETCHES: 0 DROPPED PREFETCHES: 0
L2C PREFETCHES SAME FILL-ORIGIN LEVEL: 0 DIFFERENT FILL-ORIGIN LEVEL: 0
L2C AVERAGE MISS LATENCY: 143.212 cycles
L2C RQ	ACCESS:   16263878	FORWARD:          0	MERGED:          0	TO_CACHE:   16263157
L2C WQ	ACCESS:    4378141	FORWARD:        726	MERGED:          0	TO_CACHE:    4378141
L2C PQ	ACCESS:    1508548	FORWARD:          0	MERGED:          0	TO_CACHE:    1508543

L2C Instructions Evicting Data 555377
L2C Translations Evicting Data 55356
L2C Data Evicting Data 5985344
L2C Instructions Evicting Instructions 50106
L2C Translations Evicting Instructions 4028
L2C Data Evicting Instructions 544186
L2C Instructions Evicting Translations 3978
L2C Translations Evicting Translations 326
L2C Data Evicting Translations 54672
L2C Dense regions hint from L2: 0
PSCL5 TOTAL     ACCESS:     419196  HIT:     419196  MISS:          0  HIT %:        100  MISS %:          0   MPKI: 0
PSCL5 LOAD TRANSLATION ACCESS:      78040  HIT:      78040  MISS:          0  HIT %:        100  MISS %:          0   MPKI: 0
PSCL5 TRANSLATION FROM L1D PREFETCHER ACCESS:     341156  HIT:     341156  MISS:          0  HIT %:        100  MISS %:          0   MPKI: 0
PSCL5 PREFETCH  REQUESTED:          0  ISSUED:          0  USEFUL:          0  USELESS:          0
PSCL5 USEFUL LOAD PREFETCHES:          0 PREFETCH ISSUED TO LOWER LEVEL:          0  ACCURACY: -nan
PSCL5 TIMELY PREFETCHES:          0 LATE PREFETCHES: 0 DROPPED PREFETCHES: 0
PSCL5 PREFETCHES SAME FILL-ORIGIN LEVEL: 0 DIFFERENT FILL-ORIGIN LEVEL: 0

PSCL4 TOTAL     ACCESS:     410619  HIT:     410406  MISS:        213  HIT %:    99.9481  MISS %:  0.0518729   MPKI: 0.001065
PSCL4 LOAD TRANSLATION ACCESS:      74131  HIT:      73918  MISS:        213  HIT %:    99.7127  MISS %:   0.287329   MPKI: 0.001065
PSCL4 TRANSLATION FROM L1D PREFETCHER ACCESS:     336488  HIT:     336488  MISS:          0  HIT %:        100  MISS %:          0   MPKI: 0
PSCL4 PREFETCH  REQUESTED:          0  ISSUED:          0  USEFUL:          0  USELESS:          0
PSCL4 USEFUL LOAD PREFETCHES:          0 PREFETCH ISSUED TO LOWER LEVEL:          0  ACCURACY: -nan
PSCL4 TIMELY PREFETCHES:          0 LATE PREFETCHES: 0 DROPPED PREFETCHES: 0
PSCL4 PREFETCHES SAME FILL-ORIGIN LEVEL: 0 DIFFERENT FILL-ORIGIN LEVEL: 0

PSCL3 TOTAL     ACCESS:     417401  HIT:     417188  MISS:        213  HIT %:     99.949  MISS %:  0.0510301   MPKI: 0.001065
PSCL3 LOAD TRANSLATION ACCESS:      77962  HIT:      77749  MISS:        213  HIT %:    99.7268  MISS %:    0.27321   MPKI: 0.001065
PSCL3 TRANSLATION FROM L1D PREFETCHER ACCESS:     339439  HIT:     339439  MISS:          0  HIT %:        100  MISS %:          0   MPKI: 0
PSCL3 PREFETCH  REQUESTED:          0  ISSUED:          0  USEFUL:          0  USELESS:          0
PSCL3 USEFUL LOAD PREFETCHES:          0 PREFETCH ISSUED TO LOWER LEVEL:          0  ACCURACY: -nan
PSCL3 TIMELY PREFETCHES:          0 LATE PREFETCHES: 0 DROPPED PREFETCHES: 0
PSCL3 PREFETCHES SAME FILL-ORIGIN LEVEL: 0 DIFFERENT FILL-ORIGIN LEVEL: 0

PSCL2 TOTAL     ACCESS:     332613  HIT:     323823  MISS:       8790  HIT %:    97.3573  MISS %:    2.64271   MPKI: 0.04395
PSCL2 LOAD TRANSLATION ACCESS:      78094  HIT:      69304  MISS:       8790  HIT %:    88.7443  MISS %:    11.2557   MPKI: 0.04395
PSCL2 TRANSLATION FROM L1D PREFETCHER ACCESS:     254519  HIT:     254519  MISS:          0  HIT %:        100  MISS %:          0   MPKI: 0
PSCL2 PREFETCH  REQUESTED:          0  ISSUED:          0  USEFUL:          0  USELESS:          0
PSCL2 USEFUL LOAD PREFETCHES:          0 PREFETCH ISSUED TO LOWER LEVEL:          0  ACCURACY: -nan
PSCL2 TIMELY PREFETCHES:          0 LATE PREFETCHES: 0 DROPPED PREFETCHES: 0
PSCL2 PREFETCHES SAME FILL-ORIGIN LEVEL: 0 DIFFERENT FILL-ORIGIN LEVEL: 0

LLC TOTAL     ACCESS:   11327620  HIT:    4900278  MISS:    6427342  HIT %:    43.2596  MISS %:    56.7404   MPKI: 32.1367
LLC LOAD      ACCESS:    2688626  HIT:    1463521  MISS:    1225105  HIT %:    54.4338  MISS %:    45.5662   MPKI: 6.12552
LLC RFO       ACCESS:    3532319  HIT:     970108  MISS:    2562211  HIT %:    27.4638  MISS %:    72.5362   MPKI: 12.8111
LLC PREFETCH  ACCESS:     972711  HIT:     846236  MISS:     126475  HIT %:    86.9977  MISS %:    13.0023   MPKI: 0.632375
AGUS PREFETCH L1 MISS: 0
LLC WRITEBACK ACCESS:    4074254  HIT:    1585289  MISS:    2488965  HIT %:    38.9099  MISS %:    61.0901   MPKI: 12.4448
LLC LOAD TRANSLATION ACCESS:      38574  HIT:      15895  MISS:      22679  HIT %:    41.2065  MISS %:    58.7935   MPKI: 0.113395
LLC TRANSLATION FROM L1D PREFETCHER ACCESS:      21136  HIT:      19229  MISS:       1907  HIT %:    90.9775  MISS %:    9.02252   MPKI: 0.009535
LLC PREFETCH  REQUESTED:          0  ISSUED:          0  USEFUL:       1035  USELESS:     127503
LLC USEFUL LOAD PREFETCHES:       1035 PREFETCH ISSUED TO LOWER LEVEL:     126475  ACCURACY: 0.818344
LLC TIMELY PREFETCHES:       1035 LATE PREFETCHES: 0 DROPPED PREFETCHES: 0
LLC PREFETCHES SAME FILL-ORIGIN LEVEL: 0 DIFFERENT FILL-ORIGIN LEVEL: 0
LLC AVERAGE MISS LATENCY: 130.31 cycles
LLC RQ	ACCESS:    6280662	FORWARD:          0	MERGED:          0	TO_CACHE:    6280655
LLC WQ	ACCESS:    4074254	FORWARD:          7	MERGED:          0	TO_CACHE:    4074254
LLC PQ	ACCESS:     972711	FORWARD:          0	MERGED:          0	TO_CACHE:     972711

LLC Dense regions hint to LLC: 0

RAW hits: 2386446
Loads Generated: 47783216
Loads sent to L1D: 45396775
Stores Generated: 34178908
Stores sent to L1D: 34178909
Major fault: 0 Minor fault: 8494
Allocated PAGES: 8494
ucb ended
-----------------------------------------------------------------------------------------------------------------------------------------------------------------------------------------------------
Offsets elements: -63 -62 -61 -60 -59 -58 -57 -56 -55 -54 -53 -52 -51 -50 -49 -48 -47 -46 -45 -44 -43 -42 -41 -40 -39 -38 -37 -36 -35 -34 -33 -32 -31 -30 -29 -28 -27 -26 -25 -24 -23 -22 -21 -20 -19 -18 -17 -16 -15 -14 -13 -12 -11 -10 -9 -8 -7 -6 -5 -4 -3 -2 -1 1 2 3 4 5 6 7 8 9 10 11 12 13 14 15 16 17 18 19 20 21 22 23 24 25 26 27 28 29 30 31 32 33 34 35 36 37 38 39 40 41 42 43 44 45 46 47 48 49 50 51 52 53 54 55 56 57 58 59 60 61 62 63 
Potential of Offsets elements: 60.2589 126.259 28.2589 84.2589 134.259 28.2589 28.2589 28.2589 28.2589 28.2589 138.259 46.2589 134.259 133.259 43.2589 158.259 103.259 80.2589 144.259 111.259 196.259 84.2589 202.259 31.2589 126.259 138.259 120.259 250.259 116.259 127.259 191.259 151.259 159.259 138.259 182.259 77.2589 202.259 171.259 163.259 202.259 92.2589 259.259 49.2589 183.259 204.259 212.259 57.2589 231.259 81.2589 621.259 305.259 437.259 546.259 383.259 327.259 575.259 278.259 1014.26 1017.26 265.259 684.259 2422.11 1887.54 1292.26 2107.26 1062.26 1397.26 359.259 627.259 385.259 558.259 567.259 109.259 388.259 618.259 122.259 461.259 302.259 452.259 381.259 70.2589 496.259 426.259 191.259 387.259 184.259 356.259 299.259 29.2589 373.259 28.2589 48.2589 430.259 28.2589 35.2589 35.2589 28.2589 292.259 32.2589 40.2589 243.259 31.2589 33.2589 108.259 28.2589 108.259 32.2589 30.2589 140.259 29.2589 28.2589 82.2589 28.2589 113.259 28.2589 28.2589 52.2589 32.2589 40.2589 28.2589 30.2589 30.2589 28.2589 29.2589 243.259 28.2589 
rewards of Offsets elements: 32 98 0 56 106 0 0 0 0 0 110 18 106 105 15 130 75 52 116 83 168 56 174 3 98 110 92 222 88 99 163 123 131 110 154 49 174 143 135 174 64 231 21 155 176 184 29 203 53 593 277 409 518 355 299 547 250 986 989 237 656 2422 1876 1264 2079 1034 1369 331 599 357 530 539 81 360 590 94 433 274 424 353 42 468 398 163 359 156 328 271 1 345 0 20 402 0 7 7 0 264 4 12 215 3 5 80 0 80 4 2 112 1 0 54 0 85 0 0 24 4 12 0 2 2 0 1 215 0 Printing Sanity2
offset_index value126
offset list size126
reward size126
potential size126
-----------------------------------------------------------------------------------------------------------------------------------------------------------------------------------------------------

DRAM Statistics
 CHANNEL 0
 RQ ROW_BUFFER_HIT:    1873614  ROW_BUFFER_MISS:    2064284
 DBUS_CONGESTED:       2561
 WQ ROW_BUFFER_HIT:     548334  ROW_BUFFER_MISS:    2083165  FULL:      55648

 AVG_CONGESTED_CYCLE: 3
 All warmup complete: 2
Channel 0 Bank busy for read cycles: 0
Channel 0 Bank busy for write cycles: 0
Channel 0
Rank 0
0banks busy for read cycles: 172227837
0banks busy for write cycles: 271704
1banks busy for read cycles: 30428529
1banks busy for write cycles: 35639507
2banks busy for read cycles: 15034278
2banks busy for write cycles: 14858119
3banks busy for read cycles: 18428970
3banks busy for write cycles: 7611513
4banks busy for read cycles: 9607282
4banks busy for write cycles: 5021954
5banks busy for read cycles: 6529268
5banks busy for write cycles: 4157289
6banks busy for read cycles: 11516977
6banks busy for write cycles: 3843047
7banks busy for read cycles: 4811615
7banks busy for write cycles: 6127905
8banks busy for read cycles: 14962688
8banks busy for write cycles: 34184548

CPU 0 Branch Prediction Accuracy: 99.9484% MPKI: 0.078705 Average ROB Occupancy at Mispredict: 127.254
Branch types
NOT_BRANCH: 169466875 84.7334%
BRANCH_DIRECT_JUMP: 1660636 0.830318%
BRANCH_INDIRECT: 10006679 5.00334%
BRANCH_CONDITIONAL: 12018715 6.00936%
BRANCH_DIRECT_CALL: 2826795 1.4134%
BRANCH_INDIRECT_CALL: 596648 0.298324%
BRANCH_RETURN: 3423438 1.71172%
BRANCH_OTHER: 0 0%

DRAM PAGES: 1048576
Allocated PAGES: 8494
