
*** ChampSim Multicore Out-of-Order Simulator ***

Warmup Instructions: 50000000
Simulation Instructions: 200000000
Number of CPUs: 1
LLC sets: 2048
LLC ways: 16
Off-chip DRAM Size: 4096 MB Channels: 1 Width: 64-bit Data Rate: 6400 MT/s
CPU 0 runs traces/spec2k17/srv_7.champsimtrace.xz
.xz
BTB has LRU replacement policy
ITLB has LRU replacement policy
DTLB has LRU replacement policy
STLB has LRU replacement policy
L1I has LRU replacement policy
L1D has LRU replacement policy
Initialize SRRIP state for L2C
Initialize DRRIP state for LLC
Offsets elements: -63 -62 -61 -60 -59 -58 -57 -56 -55 -54 -53 -52 -51 -50 -49 -48 -47 -46 -45 -44 -43 -42 -41 -40 -39 -38 -37 -36 -35 -34 -33 -32 -31 -30 -29 -28 -27 -26 -25 -24 -23 -22 -21 -20 -19 -18 -17 -16 -15 -14 -13 -12 -11 -10 -9 -8 -7 -6 -5 -4 -3 -2 -1 1 2 3 4 5 6 7 8 9 10 11 12 13 14 15 16 17 18 19 20 21 22 23 24 25 26 27 28 29 30 31 32 33 34 35 36 37 38 39 40 41 42 43 44 45 46 47 48 49 50 51 52 53 54 55 56 57 58 59 60 61 62 63 
Potential of Offsets elements: 
rewards of Offsets elements: 50 11 1 11 0 0 0 0 0 0 0 0 0 0 0 0 0 0 0 0 0 0 0 0 0 0 0 0 0 0 193 1 0 1 6 0 0 0 0 0 0 0 9 50 14 4 164 76 488 98 519 1820 1364 1028 748 628 1422 2881 1708 1320 533 1837 2065 2914 549 474 530 140 212 32 188 143 0 203 241 400 336 280 7 1252 353 24 65 16 6 14 205 110 35 42 1 284 1007 671 739 28 0 0 196 0 22 44 27 0 37 2 0 0 0 0 41 0 9 10 31 0 0 0 27 0 0 0 32 1 24 0 
Printing Sanity1
Heartbeat CPU 0 instructions: 10000001 cycles: 2794285 heartbeat IPC: 3.57873 cumulative IPC: 3.57873 (Simulation time: 0 hr 0 min 27 sec) 
Heartbeat CPU 0 instructions: 20000001 cycles: 5586164 heartbeat IPC: 3.58182 cumulative IPC: 3.58027 (Simulation time: 0 hr 0 min 52 sec) 
Heartbeat CPU 0 instructions: 30000001 cycles: 8375782 heartbeat IPC: 3.58472 cumulative IPC: 3.58176 (Simulation time: 0 hr 1 min 17 sec) 
*** Reached end of trace for Core: 0 Repeating trace: traces/spec2k17/srv_7.champsimtrace.xz
Heartbeat CPU 0 instructions: 40000000 cycles: 11166690 heartbeat IPC: 3.58306 cumulative IPC: 3.58208 (Simulation time: 0 hr 1 min 40 sec) 
Heartbeat CPU 0 instructions: 50000000 cycles: 13958437 heartbeat IPC: 3.58199 cumulative IPC: 3.58206 (Simulation time: 0 hr 2 min 3 sec) 

Warmup complete CPU 0 instructions: 50000004 cycles: 13958438 (Simulation time: 0 hr 2 min 3 sec) 

Heartbeat CPU 0 instructions: 60000000 cycles: 37240856 heartbeat IPC: 0.429509 cumulative IPC: 0.429508 (Simulation time: 0 hr 2 min 40 sec) 
*** Reached end of trace for Core: 0 Repeating trace: traces/spec2k17/srv_7.champsimtrace.xz
Heartbeat CPU 0 instructions: 70000000 cycles: 60975066 heartbeat IPC: 0.421333 cumulative IPC: 0.425381 (Simulation time: 0 hr 3 min 16 sec) 
Heartbeat CPU 0 instructions: 80000003 cycles: 84497096 heartbeat IPC: 0.425133 cumulative IPC: 0.425299 (Simulation time: 0 hr 3 min 53 sec) 
Heartbeat CPU 0 instructions: 90000001 cycles: 107808114 heartbeat IPC: 0.428982 cumulative IPC: 0.426213 (Simulation time: 0 hr 4 min 29 sec) 
*** Reached end of trace for Core: 0 Repeating trace: traces/spec2k17/srv_7.champsimtrace.xz
Heartbeat CPU 0 instructions: 100000001 cycles: 131218793 heartbeat IPC: 0.427155 cumulative IPC: 0.426402 (Simulation time: 0 hr 5 min 12 sec) 
Heartbeat CPU 0 instructions: 110000000 cycles: 154818164 heartbeat IPC: 0.42374 cumulative IPC: 0.425956 (Simulation time: 0 hr 5 min 48 sec) 
Heartbeat CPU 0 instructions: 120000003 cycles: 178228005 heartbeat IPC: 0.427171 cumulative IPC: 0.426129 (Simulation time: 0 hr 6 min 25 sec) 
*** Reached end of trace for Core: 0 Repeating trace: traces/spec2k17/srv_7.champsimtrace.xz
Heartbeat CPU 0 instructions: 130000002 cycles: 201460393 heartbeat IPC: 0.430434 cumulative IPC: 0.426662 (Simulation time: 0 hr 7 min 1 sec) 
Heartbeat CPU 0 instructions: 140000001 cycles: 225107319 heartbeat IPC: 0.422888 cumulative IPC: 0.42624 (Simulation time: 0 hr 7 min 52 sec) 
Heartbeat CPU 0 instructions: 150000000 cycles: 248517099 heartbeat IPC: 0.427172 cumulative IPC: 0.426333 (Simulation time: 0 hr 8 min 56 sec) 
*** Reached end of trace for Core: 0 Repeating trace: traces/spec2k17/srv_7.champsimtrace.xz
Heartbeat CPU 0 instructions: 160000003 cycles: 271817422 heartbeat IPC: 0.429179 cumulative IPC: 0.42659 (Simulation time: 0 hr 9 min 40 sec) 
Heartbeat CPU 0 instructions: 170000002 cycles: 295213270 heartbeat IPC: 0.427426 cumulative IPC: 0.426659 (Simulation time: 0 hr 10 min 16 sec) 
Heartbeat CPU 0 instructions: 180000002 cycles: 318699025 heartbeat IPC: 0.42579 cumulative IPC: 0.426592 (Simulation time: 0 hr 10 min 52 sec) 
*** Reached end of trace for Core: 0 Repeating trace: traces/spec2k17/srv_7.champsimtrace.xz
Heartbeat CPU 0 instructions: 190000003 cycles: 341911877 heartbeat IPC: 0.430796 cumulative IPC: 0.42689 (Simulation time: 0 hr 11 min 28 sec) 
Heartbeat CPU 0 instructions: 200000001 cycles: 365538562 heartbeat IPC: 0.42325 cumulative IPC: 0.426645 (Simulation time: 0 hr 12 min 4 sec) 
Heartbeat CPU 0 instructions: 210000003 cycles: 388960134 heartbeat IPC: 0.426957 cumulative IPC: 0.426665 (Simulation time: 0 hr 12 min 40 sec) 
*** Reached end of trace for Core: 0 Repeating trace: traces/spec2k17/srv_7.champsimtrace.xz
Heartbeat CPU 0 instructions: 220000000 cycles: 412301807 heartbeat IPC: 0.428418 cumulative IPC: 0.426767 (Simulation time: 0 hr 13 min 15 sec) 
Heartbeat CPU 0 instructions: 230000000 cycles: 435749415 heartbeat IPC: 0.426483 cumulative IPC: 0.426752 (Simulation time: 0 hr 13 min 49 sec) 
Heartbeat CPU 0 instructions: 240000001 cycles: 458898376 heartbeat IPC: 0.431985 cumulative IPC: 0.427024 (Simulation time: 0 hr 14 min 21 sec) 
*** Reached end of trace for Core: 0 Repeating trace: traces/spec2k17/srv_7.champsimtrace.xz
Heartbeat CPU 0 instructions: 250000001 cycles: 482448115 heartbeat IPC: 0.424633 cumulative IPC: 0.426904 (Simulation time: 0 hr 14 min 52 sec) 
Finished CPU 0 instructions: 200000003 cycles: 468489683 cumulative IPC: 0.426904 (Simulation time: 0 hr 14 min 52 sec) 

ChampSim completed all CPUs

Region of Interest Statistics

CPU 0 cumulative IPC: 0.426904 instructions: 200000003 cycles: 468489683
ITLB TOTAL     ACCESS:   31422045  HIT:   30603998  MISS:     818047  HIT %:    97.3966  MISS %:    2.60342   MPKI: 4.09023
ITLB LOAD TRANSLATION ACCESS:   31422045  HIT:   30603998  MISS:     818047  HIT %:    97.3966  MISS %:    2.60342   MPKI: 4.09023
ITLB PREFETCH  REQUESTED:          0  ISSUED:          0  USEFUL:          0  USELESS:          0
ITLB USEFUL LOAD PREFETCHES:          0 PREFETCH ISSUED TO LOWER LEVEL:          0  ACCURACY: -nan
ITLB TIMELY PREFETCHES:          0 LATE PREFETCHES: 0 DROPPED PREFETCHES: 0
ITLB PREFETCHES SAME FILL-ORIGIN LEVEL: 0 DIFFERENT FILL-ORIGIN LEVEL: 0
ITLB AVERAGE MISS LATENCY: 15.6194 cycles
ITLB RQ	ACCESS:   38275999	FORWARD:          0	MERGED:    6659205	TO_CACHE:   31616794

DTLB TOTAL     ACCESS:   37145750  HIT:   34779496  MISS:    2366254  HIT %:    93.6298  MISS %:    6.37019   MPKI: 11.8313
DTLB LOAD TRANSLATION ACCESS:   37145750  HIT:   34779496  MISS:    2366254  HIT %:    93.6298  MISS %:    6.37019   MPKI: 11.8313
DTLB PREFETCH  REQUESTED:          0  ISSUED:          0  USEFUL:          0  USELESS:          0
DTLB USEFUL LOAD PREFETCHES:          0 PREFETCH ISSUED TO LOWER LEVEL:          0  ACCURACY: -nan
DTLB TIMELY PREFETCHES:          0 LATE PREFETCHES: 0 DROPPED PREFETCHES: 0
DTLB PREFETCHES SAME FILL-ORIGIN LEVEL: 0 DIFFERENT FILL-ORIGIN LEVEL: 0
DTLB AVERAGE MISS LATENCY: 15.3895 cycles
DTLB RQ	ACCESS:   47684280	FORWARD:          0	MERGED:   10393358	TO_CACHE:   37290922

STLB TOTAL     ACCESS:    9691109  HIT:    9259613  MISS:     431496  HIT %:    95.5475  MISS %:    4.45249   MPKI: 2.15748
STLB LOAD TRANSLATION ACCESS:    3184301  HIT:    2758842  MISS:     425459  HIT %:    86.6389  MISS %:    13.3611   MPKI: 2.12729
STLB TRANSLATION FROM L1D PREFETCHER ACCESS:    6506808  HIT:    6500771  MISS:       6037  HIT %:    99.9072  MISS %:  0.0927797   MPKI: 0.030185
STLB PREFETCH  REQUESTED:          0  ISSUED:          0  USEFUL:       5058  USELESS:        983
STLB USEFUL LOAD PREFETCHES:       5058 PREFETCH ISSUED TO LOWER LEVEL:          0  ACCURACY: inf
STLB TIMELY PREFETCHES:       5058 LATE PREFETCHES: 9 DROPPED PREFETCHES: 361205
STLB PREFETCHES SAME FILL-ORIGIN LEVEL: 0 DIFFERENT FILL-ORIGIN LEVEL: 0
STLB AVERAGE MISS LATENCY: 47.805 cycles
STLB RQ	ACCESS:   18383112	FORWARD:          0	MERGED:    8323567	TO_CACHE:   10059545

STLB Hit, L1D data hit: 0
STLB Hit, L2C data hit: 0
STLB Hit, LLC data hit: 0
STLB Hit, LLC data miss: 0
STLB STLB hints to L2: 0
L1D TOTAL     ACCESS:   61539587  HIT:   57348649  MISS:    4190938  HIT %:    93.1899  MISS %:    6.81015   MPKI: 20.9547
L1D LOAD      ACCESS:   27489693  HIT:   25191709  MISS:    2297984  HIT %:    91.6406  MISS %:    8.35944   MPKI: 11.4899
L1D RFO       ACCESS:   19662288  HIT:   19358712  MISS:     303576  HIT %:     98.456  MISS %:    1.54395   MPKI: 1.51788
L1D PREFETCH  ACCESS:   14387606  HIT:   12798228  MISS:    1589378  HIT %:    88.9531  MISS %:    11.0469   MPKI: 7.94689
AGUS PREFETCH L1 MISS: 0
L1D PREFETCH  REQUESTED:   31905873  ISSUED:   31904138  USEFUL:     159215  USELESS:    1430152
L1D USEFUL LOAD PREFETCHES:     159215 PREFETCH ISSUED TO LOWER LEVEL:    1591504  ACCURACY: 10.0041
L1D TIMELY PREFETCHES:     159215 LATE PREFETCHES: 1181 DROPPED PREFETCHES: 725020
L1D PREFETCHES SAME FILL-ORIGIN LEVEL: 1591504 DIFFERENT FILL-ORIGIN LEVEL: 0
L1D AVERAGE MISS LATENCY: 125832 cycles
L1D RQ	ACCESS:   42058803	FORWARD:          0	MERGED:   14170685	TO_CACHE:   27638182
L1D WQ	ACCESS:   20434181	FORWARD:     250206	MERGED:     388083	TO_CACHE:   20046098
L1D PQ	ACCESS:   16705327	FORWARD:          0	MERGED:    1506246	TO_CACHE:   15198811

L1D UNIQUE REGIONS ACCESSED: 0
L1D REGIONS CONFLICTS: 0
L1D Cross Page Prefetch Requests: 3485917
L1D Same Page Prefetch Requests: 18012282
L1D ROI Sum of L1D PQ occupancy: 218478276
L1D PREFETCHES PUSHED FROM L2C: 0
L1I TOTAL     ACCESS:   36592634  HIT:   31499482  MISS:    5093152  HIT %:    86.0815  MISS %:    13.9185   MPKI: 25.4658
L1I LOAD      ACCESS:   36592634  HIT:   31499482  MISS:    5093152  HIT %:    86.0815  MISS %:    13.9185   MPKI: 25.4658
L1I PREFETCH  REQUESTED:          0  ISSUED:          0  USEFUL:          0  USELESS:          0
L1I USEFUL LOAD PREFETCHES:          0 PREFETCH ISSUED TO LOWER LEVEL:          0  ACCURACY: -nan
L1I TIMELY PREFETCHES:          0 LATE PREFETCHES: 0 DROPPED PREFETCHES: 0
L1I PREFETCHES SAME FILL-ORIGIN LEVEL: 0 DIFFERENT FILL-ORIGIN LEVEL: 0
L1I AVERAGE MISS LATENCY: 28.721 cycles
L1I RQ	ACCESS:   57201691	FORWARD:          0	MERGED:   18925692	TO_CACHE:   38275999

BTB TOTAL     ACCESS:   22366378  HIT:   17715697  MISS:    4650681  HIT %:    79.2068  MISS %:    20.7932   MPKI: 23.2534
BTB BRANCH_DIRECT_JUMP	ACCESS:    1867626  HIT:    1582862  MISS:     284764
BTB BRANCH_INDIRECT	ACCESS:    9379894  HIT:    7206637  MISS:    2173257
BTB BRANCH_CONDITIONAL	ACCESS:    4614315  HIT:    4180590  MISS:     433725
BTB BRANCH_DIRECT_CALL	ACCESS:    2585717  HIT:    2040743  MISS:     544974
BTB BRANCH_INDIRECT_CALL	ACCESS:     665918  HIT:     607579  MISS:      58339
BTB BRANCH_RETURN	ACCESS:    3252908  HIT:    2097286  MISS:    1155622
BTB BRANCH_OTHER ACCESS:          0  HIT:          0  MISS:          0

L2C TOTAL     ACCESS:   11533457  HIT:    6889067  MISS:    4644390  HIT %:    59.7312  MISS %:    40.2688   MPKI: 23.2219
L2C LOAD      ACCESS:    7389766  HIT:    3971172  MISS:    3418594  HIT %:    53.7388  MISS %:    46.2612   MPKI: 17.093
L2C DATA LOAD MPKI: 5.39486
L2C INSTRUCTION LOAD MPKI: 11.6981
L2C RFO       ACCESS:     302630  HIT:     157295  MISS:     145335  HIT %:     51.976  MISS %:     48.024   MPKI: 0.726675
L2C PREFETCH  ACCESS:    1591403  HIT:     804369  MISS:     787034  HIT %:    50.5446  MISS %:    49.4554   MPKI: 3.93517
AGUS PREFETCH L1 MISS: 0
L2C DATA PREFETCH MPKI: 3.93517
L2C INSTRUCTION PREFETCH MPKI: 0
L2C WRITEBACK ACCESS:    1094962  HIT:    1047172  MISS:      47790  HIT %:    95.6355  MISS %:    4.36454   MPKI: 0.23895
L2C LOAD TRANSLATION ACCESS:     557815  HIT:     319328  MISS:     238487  HIT %:    57.2462  MISS %:    42.7538   MPKI: 1.19243
L2C TRANSLATION FROM L1D PREFETCHER ACCESS:     596881  HIT:     589731  MISS:       7150  HIT %:    98.8021  MISS %:    1.19789   MPKI: 0.03575
L2C PREFETCH  REQUESTED:          0  ISSUED:          0  USEFUL:      22088  USELESS:     772101
L2C USEFUL LOAD PREFETCHES:      22088 PREFETCH ISSUED TO LOWER LEVEL:     787034  ACCURACY: 2.80649
L2C TIMELY PREFETCHES:      22088 LATE PREFETCHES: 0 DROPPED PREFETCHES: 0
L2C PREFETCHES SAME FILL-ORIGIN LEVEL: 0 DIFFERENT FILL-ORIGIN LEVEL: 0
L2C AVERAGE MISS LATENCY: 43.0494 cycles
L2C RQ	ACCESS:    8847281	FORWARD:          0	MERGED:          0	TO_CACHE:    8847091
L2C WQ	ACCESS:    1094962	FORWARD:        291	MERGED:          0	TO_CACHE:    1094962
L2C PQ	ACCESS:    1591504	FORWARD:          0	MERGED:          0	TO_CACHE:    1591403

L2C Instructions Evicting Data 1023701
L2C Translations Evicting Data 109792
L2C Data Evicting Data 904029
L2C Instructions Evicting Instructions 1193242
L2C Translations Evicting Instructions 121990
L2C Data Evicting Instructions 1000546
L2C Instructions Evicting Translations 122679
L2C Translations Evicting Translations 13855
L2C Data Evicting Translations 106766
L2C Dense regions hint from L2: 0
PSCL5 TOTAL     ACCESS:     792701  HIT:     792701  MISS:          0  HIT %:        100  MISS %:          0   MPKI: 0
PSCL5 LOAD TRANSLATION ACCESS:     425450  HIT:     425450  MISS:          0  HIT %:        100  MISS %:          0   MPKI: 0
PSCL5 TRANSLATION FROM L1D PREFETCHER ACCESS:     367251  HIT:     367251  MISS:          0  HIT %:        100  MISS %:          0   MPKI: 0
PSCL5 PREFETCH  REQUESTED:          0  ISSUED:          0  USEFUL:          0  USELESS:          0
PSCL5 USEFUL LOAD PREFETCHES:          0 PREFETCH ISSUED TO LOWER LEVEL:          0  ACCURACY: -nan
PSCL5 TIMELY PREFETCHES:          0 LATE PREFETCHES: 0 DROPPED PREFETCHES: 0
PSCL5 PREFETCHES SAME FILL-ORIGIN LEVEL: 0 DIFFERENT FILL-ORIGIN LEVEL: 0

PSCL4 TOTAL     ACCESS:     744269  HIT:     742619  MISS:       1650  HIT %:    99.7783  MISS %:   0.221694   MPKI: 0.00825
PSCL4 LOAD TRANSLATION ACCESS:     409986  HIT:     408336  MISS:       1650  HIT %:    99.5975  MISS %:   0.402453   MPKI: 0.00825
PSCL4 TRANSLATION FROM L1D PREFETCHER ACCESS:     334283  HIT:     334283  MISS:          0  HIT %:        100  MISS %:          0   MPKI: 0
PSCL4 PREFETCH  REQUESTED:          0  ISSUED:          0  USEFUL:          0  USELESS:          0
PSCL4 USEFUL LOAD PREFETCHES:          0 PREFETCH ISSUED TO LOWER LEVEL:          0  ACCURACY: -nan
PSCL4 TIMELY PREFETCHES:          0 LATE PREFETCHES: 0 DROPPED PREFETCHES: 0
PSCL4 PREFETCHES SAME FILL-ORIGIN LEVEL: 0 DIFFERENT FILL-ORIGIN LEVEL: 0

PSCL3 TOTAL     ACCESS:     786815  HIT:     785130  MISS:       1685  HIT %:    99.7858  MISS %:   0.214155   MPKI: 0.008425
PSCL3 LOAD TRANSLATION ACCESS:     421422  HIT:     419737  MISS:       1685  HIT %:    99.6002  MISS %:   0.399837   MPKI: 0.008425
PSCL3 TRANSLATION FROM L1D PREFETCHER ACCESS:     365393  HIT:     365393  MISS:          0  HIT %:        100  MISS %:          0   MPKI: 0
PSCL3 PREFETCH  REQUESTED:          0  ISSUED:          0  USEFUL:          0  USELESS:          0
PSCL3 USEFUL LOAD PREFETCHES:          0 PREFETCH ISSUED TO LOWER LEVEL:          0  ACCURACY: -nan
PSCL3 TIMELY PREFETCHES:          0 LATE PREFETCHES: 0 DROPPED PREFETCHES: 0
PSCL3 PREFETCHES SAME FILL-ORIGIN LEVEL: 0 DIFFERENT FILL-ORIGIN LEVEL: 0

PSCL2 TOTAL     ACCESS:     564350  HIT:     434431  MISS:     129919  HIT %:     76.979  MISS %:     23.021   MPKI: 0.649595
PSCL2 LOAD TRANSLATION ACCESS:     426339  HIT:     296420  MISS:     129919  HIT %:    69.5268  MISS %:    30.4732   MPKI: 0.649595
PSCL2 TRANSLATION FROM L1D PREFETCHER ACCESS:     138011  HIT:     138011  MISS:          0  HIT %:        100  MISS %:          0   MPKI: 0
PSCL2 PREFETCH  REQUESTED:          0  ISSUED:          0  USEFUL:          0  USELESS:          0
PSCL2 USEFUL LOAD PREFETCHES:          0 PREFETCH ISSUED TO LOWER LEVEL:          0  ACCURACY: -nan
PSCL2 TIMELY PREFETCHES:          0 LATE PREFETCHES: 0 DROPPED PREFETCHES: 0
PSCL2 PREFETCHES SAME FILL-ORIGIN LEVEL: 0 DIFFERENT FILL-ORIGIN LEVEL: 0

LLC TOTAL     ACCESS:    5104592  HIT:    4694896  MISS:     409696  HIT %:     91.974  MISS %:    8.02603   MPKI: 2.04848
LLC LOAD      ACCESS:    3418594  HIT:    3151758  MISS:     266836  HIT %:    92.1946  MISS %:    7.80543   MPKI: 1.33418
LLC RFO       ACCESS:     145335  HIT:      91669  MISS:      53666  HIT %:    63.0743  MISS %:    36.9257   MPKI: 0.26833
LLC PREFETCH  ACCESS:     787034  HIT:     718055  MISS:      68979  HIT %:    91.2356  MISS %:    8.76442   MPKI: 0.344895
AGUS PREFETCH L1 MISS: 0
LLC WRITEBACK ACCESS:     507992  HIT:     505071  MISS:       2921  HIT %:     99.425  MISS %:   0.575009   MPKI: 0.014605
LLC LOAD TRANSLATION ACCESS:     238487  HIT:     221351  MISS:      17136  HIT %:    92.8147  MISS %:     7.1853   MPKI: 0.08568
LLC TRANSLATION FROM L1D PREFETCHER ACCESS:       7150  HIT:       6992  MISS:        158  HIT %:    97.7902  MISS %:    2.20979   MPKI: 0.00079
LLC PREFETCH  REQUESTED:          0  ISSUED:          0  USEFUL:       2201  USELESS:      67331
LLC USEFUL LOAD PREFETCHES:       2201 PREFETCH ISSUED TO LOWER LEVEL:      68979  ACCURACY: 3.19083
LLC TIMELY PREFETCHES:       2201 LATE PREFETCHES: 0 DROPPED PREFETCHES: 0
LLC PREFETCHES SAME FILL-ORIGIN LEVEL: 0 DIFFERENT FILL-ORIGIN LEVEL: 0
LLC AVERAGE MISS LATENCY: 151.425 cycles
LLC RQ	ACCESS:    3809565	FORWARD:          0	MERGED:          0	TO_CACHE:    3809565
LLC WQ	ACCESS:     507992	FORWARD:          0	MERGED:          0	TO_CACHE:     507992
LLC PQ	ACCESS:     787034	FORWARD:          0	MERGED:          0	TO_CACHE:     787034

LLC Dense regions hint to LLC: 0

RAW hits: 2825144
Loads Generated: 44883947
Loads sent to L1D: 42058803
Stores Generated: 20434162
Stores sent to L1D: 20434181
Major fault: 0 Minor fault: 6471
Allocated PAGES: 6471
ucb ended
-----------------------------------------------------------------------------------------------------------------------------------------------------------------------------------------------------
Offsets elements: -63 -62 -61 -60 -59 -58 -57 -56 -55 -54 -53 -52 -51 -50 -49 -48 -47 -46 -45 -44 -43 -42 -41 -40 -39 -38 -37 -36 -35 -34 -33 -32 -31 -30 -29 -28 -27 -26 -25 -24 -23 -22 -21 -20 -19 -18 -17 -16 -15 -14 -13 -12 -11 -10 -9 -8 -7 -6 -5 -4 -3 -2 -1 1 2 3 4 5 6 7 8 9 10 11 12 13 14 15 16 17 18 19 20 21 22 23 24 25 26 27 28 29 30 31 32 33 34 35 36 37 38 39 40 41 42 43 44 45 46 47 48 49 50 51 52 53 54 55 56 57 58 59 60 61 62 63 
Potential of Offsets elements: 78.2953 39.2953 29.2953 39.2953 28.2953 28.2953 28.2953 28.2953 28.2953 28.2953 28.2953 28.2953 28.2953 28.2953 28.2953 28.2953 28.2953 28.2953 28.2953 28.2953 28.2953 28.2953 28.2953 28.2953 28.2953 28.2953 28.2953 28.2953 28.2953 28.2953 221.295 29.2953 28.2953 29.2953 34.2953 28.2953 28.2953 28.2953 28.2953 28.2953 28.2953 28.2953 37.2953 78.2953 42.2953 32.2953 192.295 104.295 516.295 126.295 547.295 1848.3 1392.3 1056.3 776.295 656.295 1450.3 2881.11 1736.3 1348.3 561.295 1865.3 2093.3 831.008 577.295 502.295 558.295 168.295 240.295 60.2953 216.295 171.295 28.2953 231.295 269.295 428.295 364.295 308.295 35.2953 1280.3 381.295 52.2953 93.2953 44.2953 34.2953 42.2953 233.295 138.295 63.2953 70.2953 29.2953 312.295 1035.3 699.295 767.295 56.2953 28.2953 28.2953 224.295 28.2953 50.2953 72.2953 55.2953 28.2953 65.2953 30.2953 28.2953 28.2953 28.2953 28.2953 69.2953 28.2953 37.2953 38.2953 59.2953 28.2953 28.2953 28.2953 55.2953 28.2953 28.2953 28.2953 60.2953 29.2953 52.2953 28.2953 
rewards of Offsets elements: 50 11 1 11 0 0 0 0 0 0 0 0 0 0 0 0 0 0 0 0 0 0 0 0 0 0 0 0 0 0 193 1 0 1 6 0 0 0 0 0 0 0 9 50 14 4 164 76 488 98 519 1820 1364 1028 748 628 1422 2881 1708 1320 533 1837 2065 811 549 474 530 140 212 32 188 143 0 203 241 400 336 280 7 1252 353 24 65 16 6 14 205 110 35 42 1 284 1007 671 739 28 0 0 196 0 22 44 27 0 37 2 0 0 0 0 41 0 9 10 31 0 0 0 27 0 0 0 32 1 24 0 Printing Sanity2
offset_index value126
offset list size126
reward size126
potential size126
-----------------------------------------------------------------------------------------------------------------------------------------------------------------------------------------------------

DRAM Statistics
 CHANNEL 0
 RQ ROW_BUFFER_HIT:     103088  ROW_BUFFER_MISS:     303686
 DBUS_CONGESTED:        269
 WQ ROW_BUFFER_HIT:      38726  ROW_BUFFER_MISS:     186993  FULL:          0

 AVG_CONGESTED_CYCLE: 4
 All warmup complete: 2
Channel 0 Bank busy for read cycles: 0
Channel 0 Bank busy for write cycles: 0
Channel 0
Rank 0
0banks busy for read cycles: 405860032
0banks busy for write cycles: 112613
1banks busy for read cycles: 29633420
1banks busy for write cycles: 15898601
2banks busy for read cycles: 5374604
2banks busy for write cycles: 3981065
3banks busy for read cycles: 1848267
3banks busy for write cycles: 1718692
4banks busy for read cycles: 582716
4banks busy for write cycles: 1099416
5banks busy for read cycles: 190224
5banks busy for write cycles: 746666
6banks busy for read cycles: 82819
6banks busy for write cycles: 519096
7banks busy for read cycles: 44802
7banks busy for write cycles: 379334
8banks busy for read cycles: 88426
8banks busy for write cycles: 328891

CPU 0 Branch Prediction Accuracy: 99.8311% MPKI: 0.303505 Average ROB Occupancy at Mispredict: 50.5457
Branch types
NOT_BRANCH: 164070804 82.0354%
BRANCH_DIRECT_JUMP: 1867626 0.933813%
BRANCH_INDIRECT: 9379894 4.68995%
BRANCH_CONDITIONAL: 18176770 9.08838%
BRANCH_DIRECT_CALL: 2585717 1.29286%
BRANCH_INDIRECT_CALL: 665918 0.332959%
BRANCH_RETURN: 3252908 1.62645%
BRANCH_OTHER: 0 0%

DRAM PAGES: 1048576
Allocated PAGES: 6471
