
*** ChampSim Multicore Out-of-Order Simulator ***

Warmup Instructions: 50000000
Simulation Instructions: 200000000
Number of CPUs: 1
LLC sets: 2048
LLC ways: 16
Off-chip DRAM Size: 4096 MB Channels: 1 Width: 64-bit Data Rate: 6400 MT/s
CPU 0 runs traces/spec2k17/srv_36.champsimtrace.xz
.xz
BTB has LRU replacement policy
ITLB has LRU replacement policy
DTLB has LRU replacement policy
STLB has LRU replacement policy
L1I has LRU replacement policy
L1D has LRU replacement policy
Initialize SRRIP state for L2C
Initialize DRRIP state for LLC
Offsets elements: -63 -62 -61 -60 -59 -58 -57 -56 -55 -54 -53 -52 -51 -50 -49 -48 -47 -46 -45 -44 -43 -42 -41 -40 -39 -38 -37 -36 -35 -34 -33 -32 -31 -30 -29 -28 -27 -26 -25 -24 -23 -22 -21 -20 -19 -18 -17 -16 -15 -14 -13 -12 -11 -10 -9 -8 -7 -6 -5 -4 -3 -2 -1 1 2 3 4 5 6 7 8 9 10 11 12 13 14 15 16 17 18 19 20 21 22 23 24 25 26 27 28 29 30 31 32 33 34 35 36 37 38 39 40 41 42 43 44 45 46 47 48 49 50 51 52 53 54 55 56 57 58 59 60 61 62 63 
Potential of Offsets elements: 
rewards of Offsets elements: 147 35 106 15 75 97 0 134 42 84 90 0 170 0 110 90 100 129 7 132 26 102 83 112 131 1 81 193 0 0 0 109 165 168 2 0 23 241 32 412 147 25 423 446 287 400 227 408 334 95 386 416 216 529 193 598 499 190 587 1214 978 1457 4502 1774 1907 553 509 1063 767 601 117 532 332 120 374 184 467 341 137 319 303 438 401 75 21 120 143 123 34 152 135 157 119 145 40 189 63 96 129 29 167 6 86 75 97 138 79 124 6 148 0 83 114 15 80 57 76 0 87 0 133 8 72 53 71 166 
Printing Sanity1
Heartbeat CPU 0 instructions: 10000000 cycles: 2954507 heartbeat IPC: 3.38466 cumulative IPC: 3.38466 (Simulation time: 0 hr 0 min 43 sec) 
Heartbeat CPU 0 instructions: 20000003 cycles: 5904352 heartbeat IPC: 3.39001 cumulative IPC: 3.38733 (Simulation time: 0 hr 1 min 27 sec) 
Heartbeat CPU 0 instructions: 30000000 cycles: 8855075 heartbeat IPC: 3.389 cumulative IPC: 3.38789 (Simulation time: 0 hr 2 min 10 sec) 
*** Reached end of trace for Core: 0 Repeating trace: traces/spec2k17/srv_36.champsimtrace.xz
Heartbeat CPU 0 instructions: 40000001 cycles: 11808146 heartbeat IPC: 3.38631 cumulative IPC: 3.38749 (Simulation time: 0 hr 2 min 54 sec) 
Heartbeat CPU 0 instructions: 50000002 cycles: 14762274 heartbeat IPC: 3.38509 cumulative IPC: 3.38701 (Simulation time: 0 hr 3 min 32 sec) 

Warmup complete CPU 0 instructions: 50000002 cycles: 14762274 (Simulation time: 0 hr 3 min 32 sec) 

Heartbeat CPU 0 instructions: 60000003 cycles: 34095860 heartbeat IPC: 0.517235 cumulative IPC: 0.517235 (Simulation time: 0 hr 4 min 20 sec) 
*** Reached end of trace for Core: 0 Repeating trace: traces/spec2k17/srv_36.champsimtrace.xz
Heartbeat CPU 0 instructions: 70000001 cycles: 53316647 heartbeat IPC: 0.52027 cumulative IPC: 0.518748 (Simulation time: 0 hr 5 min 10 sec) 
Heartbeat CPU 0 instructions: 80000002 cycles: 72490467 heartbeat IPC: 0.521545 cumulative IPC: 0.519677 (Simulation time: 0 hr 5 min 59 sec) 
Heartbeat CPU 0 instructions: 90000000 cycles: 91672121 heartbeat IPC: 0.521331 cumulative IPC: 0.520089 (Simulation time: 0 hr 6 min 46 sec) 
*** Reached end of trace for Core: 0 Repeating trace: traces/spec2k17/srv_36.champsimtrace.xz
Heartbeat CPU 0 instructions: 100000000 cycles: 110789802 heartbeat IPC: 0.523076 cumulative IPC: 0.520684 (Simulation time: 0 hr 7 min 34 sec) 
Heartbeat CPU 0 instructions: 110000000 cycles: 129908109 heartbeat IPC: 0.523059 cumulative IPC: 0.521078 (Simulation time: 0 hr 8 min 21 sec) 
Heartbeat CPU 0 instructions: 120000000 cycles: 149030315 heartbeat IPC: 0.522952 cumulative IPC: 0.521345 (Simulation time: 0 hr 9 min 8 sec) 
*** Reached end of trace for Core: 0 Repeating trace: traces/spec2k17/srv_36.champsimtrace.xz
Heartbeat CPU 0 instructions: 130000000 cycles: 168174135 heartbeat IPC: 0.522362 cumulative IPC: 0.521472 (Simulation time: 0 hr 9 min 55 sec) 
Heartbeat CPU 0 instructions: 140000002 cycles: 187291697 heartbeat IPC: 0.523079 cumulative IPC: 0.52165 (Simulation time: 0 hr 10 min 41 sec) 
Heartbeat CPU 0 instructions: 150000001 cycles: 206442699 heartbeat IPC: 0.522166 cumulative IPC: 0.521702 (Simulation time: 0 hr 11 min 28 sec) 
Heartbeat CPU 0 instructions: 160000001 cycles: 225532694 heartbeat IPC: 0.523835 cumulative IPC: 0.521895 (Simulation time: 0 hr 12 min 15 sec) 
*** Reached end of trace for Core: 0 Repeating trace: traces/spec2k17/srv_36.champsimtrace.xz
Heartbeat CPU 0 instructions: 170000001 cycles: 244635658 heartbeat IPC: 0.523479 cumulative IPC: 0.522026 (Simulation time: 0 hr 13 min 2 sec) 
Heartbeat CPU 0 instructions: 180000000 cycles: 263700154 heartbeat IPC: 0.524535 cumulative IPC: 0.522219 (Simulation time: 0 hr 13 min 50 sec) 
Heartbeat CPU 0 instructions: 190000000 cycles: 282818172 heartbeat IPC: 0.523067 cumulative IPC: 0.522279 (Simulation time: 0 hr 14 min 37 sec) 
*** Reached end of trace for Core: 0 Repeating trace: traces/spec2k17/srv_36.champsimtrace.xz
Heartbeat CPU 0 instructions: 200000002 cycles: 301936171 heartbeat IPC: 0.523067 cumulative IPC: 0.522332 (Simulation time: 0 hr 15 min 24 sec) 
Heartbeat CPU 0 instructions: 210000001 cycles: 321045178 heartbeat IPC: 0.523313 cumulative IPC: 0.522393 (Simulation time: 0 hr 16 min 10 sec) 
Heartbeat CPU 0 instructions: 220000000 cycles: 340141038 heartbeat IPC: 0.523674 cumulative IPC: 0.522468 (Simulation time: 0 hr 16 min 56 sec) 
*** Reached end of trace for Core: 0 Repeating trace: traces/spec2k17/srv_36.champsimtrace.xz
Heartbeat CPU 0 instructions: 230000001 cycles: 359257243 heartbeat IPC: 0.523116 cumulative IPC: 0.522504 (Simulation time: 0 hr 17 min 43 sec) 
Heartbeat CPU 0 instructions: 240000002 cycles: 378383268 heartbeat IPC: 0.522848 cumulative IPC: 0.522522 (Simulation time: 0 hr 18 min 27 sec) 
Heartbeat CPU 0 instructions: 250000001 cycles: 397437854 heartbeat IPC: 0.524808 cumulative IPC: 0.522636 (Simulation time: 0 hr 19 min 7 sec) 
Finished CPU 0 instructions: 200000000 cycles: 382675581 cumulative IPC: 0.522636 (Simulation time: 0 hr 19 min 7 sec) 

ChampSim completed all CPUs

Region of Interest Statistics

CPU 0 cumulative IPC: 0.522636 instructions: 200000000 cycles: 382675581
ITLB TOTAL     ACCESS:   33762778  HIT:   32227775  MISS:    1535003  HIT %:    95.4536  MISS %:    4.54644   MPKI: 7.67502
ITLB LOAD TRANSLATION ACCESS:   33762778  HIT:   32227775  MISS:    1535003  HIT %:    95.4536  MISS %:    4.54644   MPKI: 7.67502
ITLB PREFETCH  REQUESTED:          0  ISSUED:          0  USEFUL:          0  USELESS:          0
ITLB USEFUL LOAD PREFETCHES:          0 PREFETCH ISSUED TO LOWER LEVEL:          0  ACCURACY: -nan
ITLB TIMELY PREFETCHES:          0 LATE PREFETCHES: 0 DROPPED PREFETCHES: 0
ITLB PREFETCHES SAME FILL-ORIGIN LEVEL: 0 DIFFERENT FILL-ORIGIN LEVEL: 0
ITLB AVERAGE MISS LATENCY: 9.23299 cycles
ITLB RQ	ACCESS:   40654264	FORWARD:          0	MERGED:    6397532	TO_CACHE:   34256732

DTLB TOTAL     ACCESS:   40150310  HIT:   38636703  MISS:    1513607  HIT %:    96.2301  MISS %:    3.76985   MPKI: 7.56804
DTLB LOAD TRANSLATION ACCESS:   40150310  HIT:   38636703  MISS:    1513607  HIT %:    96.2301  MISS %:    3.76985   MPKI: 7.56804
DTLB PREFETCH  REQUESTED:          0  ISSUED:          0  USEFUL:          0  USELESS:          0
DTLB USEFUL LOAD PREFETCHES:          0 PREFETCH ISSUED TO LOWER LEVEL:          0  ACCURACY: -nan
DTLB TIMELY PREFETCHES:          0 LATE PREFETCHES: 0 DROPPED PREFETCHES: 0
DTLB PREFETCHES SAME FILL-ORIGIN LEVEL: 0 DIFFERENT FILL-ORIGIN LEVEL: 0
DTLB AVERAGE MISS LATENCY: 15.2509 cycles
DTLB RQ	ACCESS:   61137847	FORWARD:          0	MERGED:   20587909	TO_CACHE:   40549938

STLB TOTAL     ACCESS:   11118263  HIT:   11038278  MISS:      79985  HIT %:    99.2806  MISS %:   0.719402   MPKI: 0.399925
STLB LOAD TRANSLATION ACCESS:    3048610  HIT:    2971890  MISS:      76720  HIT %:    97.4834  MISS %:    2.51656   MPKI: 0.3836
STLB TRANSLATION FROM L1D PREFETCHER ACCESS:    8069653  HIT:    8066388  MISS:       3265  HIT %:    99.9595  MISS %:  0.0404602   MPKI: 0.016325
STLB PREFETCH  REQUESTED:          0  ISSUED:          0  USEFUL:       3206  USELESS:         60
STLB USEFUL LOAD PREFETCHES:       3206 PREFETCH ISSUED TO LOWER LEVEL:          0  ACCURACY: inf
STLB TIMELY PREFETCHES:       3206 LATE PREFETCHES: 1744 DROPPED PREFETCHES: 31829
STLB PREFETCHES SAME FILL-ORIGIN LEVEL: 0 DIFFERENT FILL-ORIGIN LEVEL: 0
STLB AVERAGE MISS LATENCY: 2.69225e+06 cycles
STLB RQ	ACCESS:   14221933	FORWARD:          0	MERGED:    3063681	TO_CACHE:   11158252

STLB Hit, L1D data hit: 0
STLB Hit, L2C data hit: 0
STLB Hit, LLC data hit: 0
STLB Hit, LLC data miss: 0
STLB STLB hints to L2: 0
L1D TOTAL     ACCESS:   59000692  HIT:   51420712  MISS:    7579980  HIT %:    87.1527  MISS %:    12.8473   MPKI: 37.8999
L1D LOAD      ACCESS:   26794533  HIT:   24188614  MISS:    2605919  HIT %:    90.2744  MISS %:    9.72556   MPKI: 13.0296
L1D RFO       ACCESS:   22280308  HIT:   18594028  MISS:    3686280  HIT %:     83.455  MISS %:     16.545   MPKI: 18.4314
L1D PREFETCH  ACCESS:    9925851  HIT:    8638070  MISS:    1287781  HIT %:     87.026  MISS %:     12.974   MPKI: 6.43891
AGUS PREFETCH L1 MISS: 0
L1D PREFETCH  REQUESTED:   34352813  ISSUED:   34352553  USEFUL:     598347  USELESS:     689512
L1D USEFUL LOAD PREFETCHES:     598347 PREFETCH ISSUED TO LOWER LEVEL:    1806643  ACCURACY: 33.1193
L1D TIMELY PREFETCHES:     598347 LATE PREFETCHES: 518762 DROPPED PREFETCHES: 38274
L1D PREFETCHES SAME FILL-ORIGIN LEVEL: 1806643 DIFFERENT FILL-ORIGIN LEVEL: 0
L1D AVERAGE MISS LATENCY: 1.41496e+07 cycles
L1D RQ	ACCESS:   45261423	FORWARD:          0	MERGED:   17847228	TO_CACHE:   27141860
L1D WQ	ACCESS:   34191048	FORWARD:     282252	MERGED:     195061	TO_CACHE:   33995987
L1D PQ	ACCESS:   23179230	FORWARD:          0	MERGED:   11995990	TO_CACHE:   11173323

L1D UNIQUE REGIONS ACCESSED: 0
L1D REGIONS CONFLICTS: 0
L1D Cross Page Prefetch Requests: 779474
L1D Same Page Prefetch Requests: 27893469
L1D ROI Sum of L1D PQ occupancy: 147205598
L1D PREFETCHES PUSHED FROM L2C: 0
L1I TOTAL     ACCESS:   38007667  HIT:   28948672  MISS:    9058995  HIT %:    76.1653  MISS %:    23.8347   MPKI: 45.295
L1I LOAD      ACCESS:   38007667  HIT:   28948672  MISS:    9058995  HIT %:    76.1653  MISS %:    23.8347   MPKI: 45.295
L1I PREFETCH  REQUESTED:          0  ISSUED:          0  USEFUL:          0  USELESS:          0
L1I USEFUL LOAD PREFETCHES:          0 PREFETCH ISSUED TO LOWER LEVEL:          0  ACCURACY: -nan
L1I TIMELY PREFETCHES:          0 LATE PREFETCHES: 0 DROPPED PREFETCHES: 0
L1I PREFETCHES SAME FILL-ORIGIN LEVEL: 0 DIFFERENT FILL-ORIGIN LEVEL: 0
L1I AVERAGE MISS LATENCY: 16.703 cycles
L1I RQ	ACCESS:   58932002	FORWARD:          0	MERGED:   18277738	TO_CACHE:   40654264

BTB TOTAL     ACCESS:   25729049  HIT:   24193614  MISS:    1535435  HIT %:    94.0323  MISS %:    5.96771   MPKI: 7.67718
BTB BRANCH_DIRECT_JUMP	ACCESS:    1654273  HIT:    1644479  MISS:       9794
BTB BRANCH_INDIRECT	ACCESS:    9941101  HIT:    9432728  MISS:     508373
BTB BRANCH_CONDITIONAL	ACCESS:    7321751  HIT:    7308109  MISS:      13642
BTB BRANCH_DIRECT_CALL	ACCESS:    2814711  HIT:    2781382  MISS:      33329
BTB BRANCH_INDIRECT_CALL	ACCESS:     591266  HIT:     480297  MISS:     110969
BTB BRANCH_RETURN	ACCESS:    3405947  HIT:    2546619  MISS:     859328
BTB BRANCH_OTHER ACCESS:          0  HIT:          0  MISS:          0

L2C TOTAL     ACCESS:   21148760  HIT:   14102779  MISS:    7045981  HIT %:    66.6837  MISS %:    33.3163   MPKI: 35.2299
L2C LOAD      ACCESS:   11145805  HIT:    9181466  MISS:    1964339  HIT %:     82.376  MISS %:     17.624   MPKI: 9.8217
L2C DATA LOAD MPKI: 6.87997
L2C INSTRUCTION LOAD MPKI: 2.94173
L2C RFO       ACCESS:    3686141  HIT:     150107  MISS:    3536034  HIT %:     4.0722  MISS %:    95.9278   MPKI: 17.6802
L2C PREFETCH  ACCESS:    1806643  HIT:     421882  MISS:    1384761  HIT %:    23.3517  MISS %:    76.6483   MPKI: 6.9238
AGUS PREFETCH L1 MISS: 0
L2C DATA PREFETCH MPKI: 6.9238
L2C INSTRUCTION PREFETCH MPKI: 0
L2C WRITEBACK ACCESS:    4372514  HIT:    4255527  MISS:     116987  HIT %:    97.3245  MISS %:    2.67551   MPKI: 0.584935
L2C LOAD TRANSLATION ACCESS:      86379  HIT:      45140  MISS:      41239  HIT %:    52.2581  MISS %:    47.7419   MPKI: 0.206195
L2C TRANSLATION FROM L1D PREFETCHER ACCESS:      51278  HIT:      48657  MISS:       2621  HIT %:    94.8886  MISS %:    5.11135   MPKI: 0.013105
L2C PREFETCH  REQUESTED:          0  ISSUED:          0  USEFUL:      42203  USELESS:    1345127
L2C USEFUL LOAD PREFETCHES:      42203 PREFETCH ISSUED TO LOWER LEVEL:    1384761  ACCURACY: 3.04767
L2C TIMELY PREFETCHES:      42203 LATE PREFETCHES: 0 DROPPED PREFETCHES: 0
L2C PREFETCHES SAME FILL-ORIGIN LEVEL: 0 DIFFERENT FILL-ORIGIN LEVEL: 0
L2C AVERAGE MISS LATENCY: 151.278 cycles
L2C RQ	ACCESS:   14969989	FORWARD:          0	MERGED:          0	TO_CACHE:   14969603
L2C WQ	ACCESS:    4372514	FORWARD:        386	MERGED:          0	TO_CACHE:    4372514
L2C PQ	ACCESS:    1806643	FORWARD:          0	MERGED:          0	TO_CACHE:    1806643

L2C Instructions Evicting Data 535067
L2C Translations Evicting Data 40287
L2C Data Evicting Data 5731530
L2C Instructions Evicting Instructions 49854
L2C Translations Evicting Instructions 3319
L2C Data Evicting Instructions 525770
L2C Instructions Evicting Translations 3425
L2C Translations Evicting Translations 254
L2C Data Evicting Translations 39488
L2C Dense regions hint from L2: 0
PSCL5 TOTAL     ACCESS:     111814  HIT:     111814  MISS:          0  HIT %:        100  MISS %:          0   MPKI: 0
PSCL5 LOAD TRANSLATION ACCESS:      74976  HIT:      74976  MISS:          0  HIT %:        100  MISS %:          0   MPKI: 0
PSCL5 TRANSLATION FROM L1D PREFETCHER ACCESS:      36838  HIT:      36838  MISS:          0  HIT %:        100  MISS %:          0   MPKI: 0
PSCL5 PREFETCH  REQUESTED:          0  ISSUED:          0  USEFUL:          0  USELESS:          0
PSCL5 USEFUL LOAD PREFETCHES:          0 PREFETCH ISSUED TO LOWER LEVEL:          0  ACCURACY: -nan
PSCL5 TIMELY PREFETCHES:          0 LATE PREFETCHES: 0 DROPPED PREFETCHES: 0
PSCL5 PREFETCHES SAME FILL-ORIGIN LEVEL: 0 DIFFERENT FILL-ORIGIN LEVEL: 0

PSCL4 TOTAL     ACCESS:     102560  HIT:     102342  MISS:        218  HIT %:    99.7874  MISS %:   0.212559   MPKI: 0.00109
PSCL4 LOAD TRANSLATION ACCESS:      68746  HIT:      68528  MISS:        218  HIT %:    99.6829  MISS %:   0.317109   MPKI: 0.00109
PSCL4 TRANSLATION FROM L1D PREFETCHER ACCESS:      33814  HIT:      33814  MISS:          0  HIT %:        100  MISS %:          0   MPKI: 0
PSCL4 PREFETCH  REQUESTED:          0  ISSUED:          0  USEFUL:          0  USELESS:          0
PSCL4 USEFUL LOAD PREFETCHES:          0 PREFETCH ISSUED TO LOWER LEVEL:          0  ACCURACY: -nan
PSCL4 TIMELY PREFETCHES:          0 LATE PREFETCHES: 0 DROPPED PREFETCHES: 0
PSCL4 PREFETCHES SAME FILL-ORIGIN LEVEL: 0 DIFFERENT FILL-ORIGIN LEVEL: 0

PSCL3 TOTAL     ACCESS:     107168  HIT:     106107  MISS:       1061  HIT %:      99.01  MISS %:   0.990034   MPKI: 0.005305
PSCL3 LOAD TRANSLATION ACCESS:      70420  HIT:      69359  MISS:       1061  HIT %:    98.4933  MISS %:    1.50667   MPKI: 0.005305
PSCL3 TRANSLATION FROM L1D PREFETCHER ACCESS:      36748  HIT:      36748  MISS:          0  HIT %:        100  MISS %:          0   MPKI: 0
PSCL3 PREFETCH  REQUESTED:          0  ISSUED:          0  USEFUL:          0  USELESS:          0
PSCL3 USEFUL LOAD PREFETCHES:          0 PREFETCH ISSUED TO LOWER LEVEL:          0  ACCURACY: -nan
PSCL3 TIMELY PREFETCHES:          0 LATE PREFETCHES: 0 DROPPED PREFETCHES: 0
PSCL3 PREFETCHES SAME FILL-ORIGIN LEVEL: 0 DIFFERENT FILL-ORIGIN LEVEL: 0

PSCL2 TOTAL     ACCESS:      97602  HIT:      87258  MISS:      10344  HIT %:    89.4019  MISS %:    10.5981   MPKI: 0.05172
PSCL2 LOAD TRANSLATION ACCESS:      75173  HIT:      64829  MISS:      10344  HIT %:    86.2397  MISS %:    13.7603   MPKI: 0.05172
PSCL2 TRANSLATION FROM L1D PREFETCHER ACCESS:      22429  HIT:      22429  MISS:          0  HIT %:        100  MISS %:          0   MPKI: 0
PSCL2 PREFETCH  REQUESTED:          0  ISSUED:          0  USEFUL:          0  USELESS:          0
PSCL2 USEFUL LOAD PREFETCHES:          0 PREFETCH ISSUED TO LOWER LEVEL:          0  ACCURACY: -nan
PSCL2 TIMELY PREFETCHES:          0 LATE PREFETCHES: 0 DROPPED PREFETCHES: 0
PSCL2 PREFETCHES SAME FILL-ORIGIN LEVEL: 0 DIFFERENT FILL-ORIGIN LEVEL: 0

LLC TOTAL     ACCESS:   10989223  HIT:    4565273  MISS:    6423950  HIT %:    41.5432  MISS %:    58.4568   MPKI: 32.1198
LLC LOAD      ACCESS:    1964338  HIT:    1424251  MISS:     540087  HIT %:    72.5054  MISS %:    27.4946   MPKI: 2.70044
LLC RFO       ACCESS:    3536025  HIT:     968746  MISS:    2567279  HIT %:    27.3965  MISS %:    72.6035   MPKI: 12.8364
LLC PREFETCH  ACCESS:    1384761  HIT:     605945  MISS:     778816  HIT %:    43.7581  MISS %:    56.2419   MPKI: 3.89408
AGUS PREFETCH L1 MISS: 0
LLC WRITEBACK ACCESS:    4060239  HIT:    1555932  MISS:    2504307  HIT %:    38.3212  MISS %:    61.6788   MPKI: 12.5215
LLC LOAD TRANSLATION ACCESS:      41239  HIT:       9238  MISS:      32001  HIT %:    22.4011  MISS %:    77.5989   MPKI: 0.160005
LLC TRANSLATION FROM L1D PREFETCHER ACCESS:       2621  HIT:       1161  MISS:       1460  HIT %:    44.2961  MISS %:    55.7039   MPKI: 0.0073
LLC PREFETCH  REQUESTED:          0  ISSUED:          0  USEFUL:       2624  USELESS:     778038
LLC USEFUL LOAD PREFETCHES:       2624 PREFETCH ISSUED TO LOWER LEVEL:     778816  ACCURACY: 0.336922
LLC TIMELY PREFETCHES:       2624 LATE PREFETCHES: 0 DROPPED PREFETCHES: 0
LLC PREFETCHES SAME FILL-ORIGIN LEVEL: 0 DIFFERENT FILL-ORIGIN LEVEL: 0
LLC AVERAGE MISS LATENCY: 133.565 cycles
LLC RQ	ACCESS:    5544233	FORWARD:          0	MERGED:          0	TO_CACHE:    5544223
LLC WQ	ACCESS:    4060239	FORWARD:         10	MERGED:          0	TO_CACHE:    4060239
LLC PQ	ACCESS:    1384761	FORWARD:          0	MERGED:          0	TO_CACHE:    1384761

LLC Dense regions hint to LLC: 0

RAW hits: 2356772
Loads Generated: 47618197
Loads sent to L1D: 45261423
Stores Generated: 34191046
Stores sent to L1D: 34191048
Major fault: 0 Minor fault: 9094
Allocated PAGES: 9094
ucb ended
-----------------------------------------------------------------------------------------------------------------------------------------------------------------------------------------------------
Offsets elements: -63 -62 -61 -60 -59 -58 -57 -56 -55 -54 -53 -52 -51 -50 -49 -48 -47 -46 -45 -44 -43 -42 -41 -40 -39 -38 -37 -36 -35 -34 -33 -32 -31 -30 -29 -28 -27 -26 -25 -24 -23 -22 -21 -20 -19 -18 -17 -16 -15 -14 -13 -12 -11 -10 -9 -8 -7 -6 -5 -4 -3 -2 -1 1 2 3 4 5 6 7 8 9 10 11 12 13 14 15 16 17 18 19 20 21 22 23 24 25 26 27 28 29 30 31 32 33 34 35 36 37 38 39 40 41 42 43 44 45 46 47 48 49 50 51 52 53 54 55 56 57 58 59 60 61 62 63 
Potential of Offsets elements: 175.253 63.253 134.253 43.253 103.253 125.253 28.253 162.253 70.253 112.253 118.253 28.253 198.253 28.253 138.253 118.253 128.253 157.253 35.253 160.253 54.253 130.253 111.253 140.253 159.253 29.253 109.253 221.253 28.253 28.253 28.253 137.253 193.253 196.253 30.253 28.253 51.253 269.253 60.253 440.253 175.253 53.253 451.253 474.253 315.253 428.253 255.253 436.253 362.253 123.253 414.253 444.253 244.253 557.253 221.253 626.253 527.253 218.253 615.253 1242.25 1006.25 1485.25 1003.16 1802.25 1907.11 581.253 537.253 1091.25 795.253 629.253 145.253 560.253 360.253 148.253 402.253 212.253 495.253 369.253 165.253 347.253 331.253 466.253 429.253 103.253 49.253 148.253 171.253 151.253 62.253 180.253 163.253 185.253 147.253 173.253 68.253 217.253 91.253 124.253 157.253 57.253 195.253 34.253 114.253 103.253 125.253 166.253 107.253 152.253 34.253 176.253 28.253 111.253 142.253 43.253 108.253 85.253 104.253 28.253 115.253 28.253 161.253 36.253 100.253 81.253 99.253 194.253 
rewards of Offsets elements: 147 35 106 15 75 97 0 134 42 84 90 0 170 0 110 90 100 129 7 132 26 102 83 112 131 1 81 193 0 0 0 109 165 168 2 0 23 241 32 412 147 25 423 446 287 400 227 408 334 95 386 416 216 529 193 598 499 190 587 1214 978 1457 1000 1774 1907 553 509 1063 767 601 117 532 332 120 374 184 467 341 137 319 303 438 401 75 21 120 143 123 34 152 135 157 119 145 40 189 63 96 129 29 167 6 86 75 97 138 79 124 6 148 0 83 114 15 80 57 76 0 87 0 133 8 72 53 71 166 Printing Sanity2
offset_index value126
offset list size126
reward size126
potential size126
-----------------------------------------------------------------------------------------------------------------------------------------------------------------------------------------------------

DRAM Statistics
 CHANNEL 0
 RQ ROW_BUFFER_HIT:    1882539  ROW_BUFFER_MISS:    2036708
 DBUS_CONGESTED:       2487
 WQ ROW_BUFFER_HIT:     507031  ROW_BUFFER_MISS:    2138799  FULL:      62246

 AVG_CONGESTED_CYCLE: 3
 All warmup complete: 2
Channel 0 Bank busy for read cycles: 0
Channel 0 Bank busy for write cycles: 0
Channel 0
Rank 0
0banks busy for read cycles: 170708842
0banks busy for write cycles: 260182
1banks busy for read cycles: 31679923
1banks busy for write cycles: 35200667
2banks busy for read cycles: 11611848
2banks busy for write cycles: 14186439
3banks busy for read cycles: 15689188
3banks busy for write cycles: 7039737
4banks busy for read cycles: 5877985
4banks busy for write cycles: 4619585
5banks busy for read cycles: 4687682
5banks busy for write cycles: 3610272
6banks busy for read cycles: 5216188
6banks busy for write cycles: 3512285
7banks busy for read cycles: 7094467
7banks busy for write cycles: 5750273
8banks busy for read cycles: 22081970
8banks busy for write cycles: 33848049

CPU 0 Branch Prediction Accuracy: 99.9484% MPKI: 0.07887 Average ROB Occupancy at Mispredict: 118.769
Branch types
NOT_BRANCH: 169412825 84.7064%
BRANCH_DIRECT_JUMP: 1654273 0.827137%
BRANCH_INDIRECT: 9941101 4.97055%
BRANCH_CONDITIONAL: 12179886 6.08994%
BRANCH_DIRECT_CALL: 2814711 1.40736%
BRANCH_INDIRECT_CALL: 591266 0.295633%
BRANCH_RETURN: 3405947 1.70297%
BRANCH_OTHER: 0 0%

DRAM PAGES: 1048576
Allocated PAGES: 9094
