
*** ChampSim Multicore Out-of-Order Simulator ***

Warmup Instructions: 50000000
Simulation Instructions: 200000000
Number of CPUs: 1
LLC sets: 2048
LLC ways: 16
Off-chip DRAM Size: 4096 MB Channels: 1 Width: 64-bit Data Rate: 6400 MT/s
CPU 0 runs traces/spec2k17/srv_50.champsimtrace.xz
.xz
BTB has LRU replacement policy
ITLB has LRU replacement policy
DTLB has LRU replacement policy
STLB has LRU replacement policy
L1I has LRU replacement policy
L1D has LRU replacement policy
Initialize SRRIP state for L2C
Initialize DRRIP state for LLC
Offsets elements: -63 -62 -61 -60 -59 -58 -57 -56 -55 -54 -53 -52 -51 -50 -49 -48 -47 -46 -45 -44 -43 -42 -41 -40 -39 -38 -37 -36 -35 -34 -33 -32 -31 -30 -29 -28 -27 -26 -25 -24 -23 -22 -21 -20 -19 -18 -17 -16 -15 -14 -13 -12 -11 -10 -9 -8 -7 -6 -5 -4 -3 -2 -1 1 2 3 4 5 6 7 8 9 10 11 12 13 14 15 16 17 18 19 20 21 22 23 24 25 26 27 28 29 30 31 32 33 34 35 36 37 38 39 40 41 42 43 44 45 46 47 48 49 50 51 52 53 54 55 56 57 58 59 60 61 62 63 
Potential of Offsets elements: 
rewards of Offsets elements: 30 0 34 129 0 73 54 17 12 140 43 13 104 129 30 158 56 0 34 33 139 208 26 11 64 41 71 145 50 178 123 110 179 62 1311 1011 29 45 95 26 111 145 73 61 208 175 230 39 68 168 367 211 303 128 1020 183 326 850 1072 962 1724 1088 1756 1792 1121 2076 857 1170 1025 894 989 861 812 952 768 1484 1145 1249 8411 1761 765 1676 905 891 794 855 736 1061 1017 817 173 157 26 50 49 138 32 102 242 195 155 25 30 10 3 144 14 87 28 23 35 72 251 39 31 58 6 103 107 0 0 0 0 0 0 0 
Printing Sanity1
Heartbeat CPU 0 instructions: 10000000 cycles: 2887517 heartbeat IPC: 3.46318 cumulative IPC: 3.46318 (Simulation time: 0 hr 0 min 27 sec) 
Heartbeat CPU 0 instructions: 20000001 cycles: 5758095 heartbeat IPC: 3.48362 cumulative IPC: 3.47337 (Simulation time: 0 hr 0 min 55 sec) 
Heartbeat CPU 0 instructions: 30000003 cycles: 8595283 heartbeat IPC: 3.52462 cumulative IPC: 3.49029 (Simulation time: 0 hr 1 min 22 sec) 
*** Reached end of trace for Core: 0 Repeating trace: traces/spec2k17/srv_50.champsimtrace.xz
Heartbeat CPU 0 instructions: 40000000 cycles: 11466630 heartbeat IPC: 3.48268 cumulative IPC: 3.48838 (Simulation time: 0 hr 1 min 50 sec) 
Heartbeat CPU 0 instructions: 50000001 cycles: 14340601 heartbeat IPC: 3.47951 cumulative IPC: 3.4866 (Simulation time: 0 hr 2 min 23 sec) 

Warmup complete CPU 0 instructions: 50000001 cycles: 14340601 (Simulation time: 0 hr 2 min 23 sec) 

Heartbeat CPU 0 instructions: 60000002 cycles: 38494713 heartbeat IPC: 0.414008 cumulative IPC: 0.414008 (Simulation time: 0 hr 3 min 16 sec) 
*** Reached end of trace for Core: 0 Repeating trace: traces/spec2k17/srv_50.champsimtrace.xz
Heartbeat CPU 0 instructions: 70000002 cycles: 63347515 heartbeat IPC: 0.402369 cumulative IPC: 0.408106 (Simulation time: 0 hr 4 min 10 sec) 
Heartbeat CPU 0 instructions: 80000000 cycles: 89970094 heartbeat IPC: 0.375621 cumulative IPC: 0.396671 (Simulation time: 0 hr 4 min 47 sec) 
Heartbeat CPU 0 instructions: 90000001 cycles: 114449914 heartbeat IPC: 0.4085 cumulative IPC: 0.399563 (Simulation time: 0 hr 5 min 25 sec) 
*** Reached end of trace for Core: 0 Repeating trace: traces/spec2k17/srv_50.champsimtrace.xz
Heartbeat CPU 0 instructions: 100000002 cycles: 138729598 heartbeat IPC: 0.411867 cumulative IPC: 0.401965 (Simulation time: 0 hr 6 min 1 sec) 
Heartbeat CPU 0 instructions: 110000000 cycles: 165436460 heartbeat IPC: 0.374436 cumulative IPC: 0.397099 (Simulation time: 0 hr 6 min 39 sec) 
Heartbeat CPU 0 instructions: 120000001 cycles: 189817999 heartbeat IPC: 0.410146 cumulative IPC: 0.398912 (Simulation time: 0 hr 7 min 15 sec) 
*** Reached end of trace for Core: 0 Repeating trace: traces/spec2k17/srv_50.champsimtrace.xz
Heartbeat CPU 0 instructions: 130000000 cycles: 214035132 heartbeat IPC: 0.412931 cumulative IPC: 0.400612 (Simulation time: 0 hr 7 min 51 sec) 
Heartbeat CPU 0 instructions: 140000001 cycles: 239638039 heartbeat IPC: 0.390581 cumulative IPC: 0.399472 (Simulation time: 0 hr 8 min 28 sec) 
Heartbeat CPU 0 instructions: 150000003 cycles: 265186677 heartbeat IPC: 0.39141 cumulative IPC: 0.398651 (Simulation time: 0 hr 9 min 11 sec) 
*** Reached end of trace for Core: 0 Repeating trace: traces/spec2k17/srv_50.champsimtrace.xz
Heartbeat CPU 0 instructions: 160000000 cycles: 289340078 heartbeat IPC: 0.41402 cumulative IPC: 0.400001 (Simulation time: 0 hr 10 min 9 sec) 
Heartbeat CPU 0 instructions: 170000002 cycles: 314489440 heartbeat IPC: 0.397624 cumulative IPC: 0.399802 (Simulation time: 0 hr 11 min 8 sec) 
Heartbeat CPU 0 instructions: 180000000 cycles: 340441025 heartbeat IPC: 0.385333 cumulative IPC: 0.39865 (Simulation time: 0 hr 12 min 3 sec) 
*** Reached end of trace for Core: 0 Repeating trace: traces/spec2k17/srv_50.champsimtrace.xz
Heartbeat CPU 0 instructions: 190000001 cycles: 364791996 heartbeat IPC: 0.410661 cumulative IPC: 0.399485 (Simulation time: 0 hr 12 min 39 sec) 
Heartbeat CPU 0 instructions: 200000002 cycles: 390483210 heartbeat IPC: 0.389238 cumulative IPC: 0.398785 (Simulation time: 0 hr 13 min 16 sec) 
Heartbeat CPU 0 instructions: 210000002 cycles: 414915943 heartbeat IPC: 0.409287 cumulative IPC: 0.399425 (Simulation time: 0 hr 13 min 52 sec) 
*** Reached end of trace for Core: 0 Repeating trace: traces/spec2k17/srv_50.champsimtrace.xz
Heartbeat CPU 0 instructions: 220000000 cycles: 439015736 heartbeat IPC: 0.414941 cumulative IPC: 0.400306 (Simulation time: 0 hr 14 min 28 sec) 
Heartbeat CPU 0 instructions: 230000000 cycles: 465854533 heartbeat IPC: 0.372595 cumulative IPC: 0.398659 (Simulation time: 0 hr 15 min 4 sec) 
Heartbeat CPU 0 instructions: 240000000 cycles: 490810417 heartbeat IPC: 0.400707 cumulative IPC: 0.398766 (Simulation time: 0 hr 15 min 40 sec) 
*** Reached end of trace for Core: 0 Repeating trace: traces/spec2k17/srv_50.champsimtrace.xz
Heartbeat CPU 0 instructions: 250000000 cycles: 514390928 heartbeat IPC: 0.424079 cumulative IPC: 0.39996 (Simulation time: 0 hr 16 min 15 sec) 
Finished CPU 0 instructions: 200000003 cycles: 500050328 cumulative IPC: 0.39996 (Simulation time: 0 hr 16 min 15 sec) 

ChampSim completed all CPUs

Region of Interest Statistics

CPU 0 cumulative IPC: 0.39996 instructions: 200000003 cycles: 500050328
ITLB TOTAL     ACCESS:   34013477  HIT:   33053969  MISS:     959508  HIT %:     97.179  MISS %:    2.82096   MPKI: 4.79754
ITLB LOAD TRANSLATION ACCESS:   34013477  HIT:   33053969  MISS:     959508  HIT %:     97.179  MISS %:    2.82096   MPKI: 4.79754
ITLB PREFETCH  REQUESTED:          0  ISSUED:          0  USEFUL:          0  USELESS:          0
ITLB USEFUL LOAD PREFETCHES:          0 PREFETCH ISSUED TO LOWER LEVEL:          0  ACCURACY: -nan
ITLB TIMELY PREFETCHES:          0 LATE PREFETCHES: 0 DROPPED PREFETCHES: 0
ITLB PREFETCHES SAME FILL-ORIGIN LEVEL: 0 DIFFERENT FILL-ORIGIN LEVEL: 0
ITLB AVERAGE MISS LATENCY: 10.1864 cycles
ITLB RQ	ACCESS:   39260748	FORWARD:          0	MERGED:    4987660	TO_CACHE:   34273088

DTLB TOTAL     ACCESS:   41778480  HIT:   40773490  MISS:    1004990  HIT %:    97.5945  MISS %:    2.40552   MPKI: 5.02495
DTLB LOAD TRANSLATION ACCESS:   41778480  HIT:   40773490  MISS:    1004990  HIT %:    97.5945  MISS %:    2.40552   MPKI: 5.02495
DTLB PREFETCH  REQUESTED:          0  ISSUED:          0  USEFUL:          0  USELESS:          0
DTLB USEFUL LOAD PREFETCHES:          0 PREFETCH ISSUED TO LOWER LEVEL:          0  ACCURACY: -nan
DTLB TIMELY PREFETCHES:          0 LATE PREFETCHES: 0 DROPPED PREFETCHES: 0
DTLB PREFETCHES SAME FILL-ORIGIN LEVEL: 0 DIFFERENT FILL-ORIGIN LEVEL: 0
DTLB AVERAGE MISS LATENCY: 15.4024 cycles
DTLB RQ	ACCESS:   54605304	FORWARD:          0	MERGED:   12754138	TO_CACHE:   41851166

STLB TOTAL     ACCESS:   11692187  HIT:   11605494  MISS:      86693  HIT %:    99.2585  MISS %:   0.741461   MPKI: 0.433465
STLB LOAD TRANSLATION ACCESS:    1964498  HIT:    1879901  MISS:      84597  HIT %:    95.6937  MISS %:    4.30629   MPKI: 0.422985
STLB TRANSLATION FROM L1D PREFETCHER ACCESS:    9727689  HIT:    9725593  MISS:       2096  HIT %:    99.9785  MISS %:  0.0215467   MPKI: 0.01048
STLB PREFETCH  REQUESTED:          0  ISSUED:          0  USEFUL:       1883  USELESS:        213
STLB USEFUL LOAD PREFETCHES:       1883 PREFETCH ISSUED TO LOWER LEVEL:          0  ACCURACY: inf
STLB TIMELY PREFETCHES:       1883 LATE PREFETCHES: 123 DROPPED PREFETCHES: 35897
STLB PREFETCHES SAME FILL-ORIGIN LEVEL: 0 DIFFERENT FILL-ORIGIN LEVEL: 0
STLB AVERAGE MISS LATENCY: 190863 cycles
STLB RQ	ACCESS:   14729724	FORWARD:          0	MERGED:    2995393	TO_CACHE:   11734331

STLB Hit, L1D data hit: 0
STLB Hit, L2C data hit: 0
STLB Hit, LLC data hit: 0
STLB Hit, LLC data miss: 0
STLB STLB hints to L2: 0
L1D TOTAL     ACCESS:   66113638  HIT:   62576288  MISS:    3537350  HIT %:    94.6496  MISS %:    5.35041   MPKI: 17.6867
L1D LOAD      ACCESS:   34779108  HIT:   33034300  MISS:    1744808  HIT %:    94.9832  MISS %:    5.01683   MPKI: 8.72404
L1D RFO       ACCESS:   18735891  HIT:   17962400  MISS:     773491  HIT %:    95.8716  MISS %:    4.12839   MPKI: 3.86745
L1D PREFETCH  ACCESS:   12598639  HIT:   11579588  MISS:    1019051  HIT %:    91.9114  MISS %:    8.08858   MPKI: 5.09525
AGUS PREFETCH L1 MISS: 0
L1D PREFETCH  REQUESTED:   39635963  ISSUED:   39635963  USEFUL:     302401  USELESS:     716661
L1D USEFUL LOAD PREFETCHES:     302401 PREFETCH ISSUED TO LOWER LEVEL:    1057369  ACCURACY: 28.5994
L1D TIMELY PREFETCHES:     302401 LATE PREFETCHES: 35470 DROPPED PREFETCHES: 46998
L1D PREFETCHES SAME FILL-ORIGIN LEVEL: 1057369 DIFFERENT FILL-ORIGIN LEVEL: 0
L1D AVERAGE MISS LATENCY: 2.88331e+06 cycles
L1D RQ	ACCESS:   46288237	FORWARD:          0	MERGED:   11087975	TO_CACHE:   34875554
L1D WQ	ACCESS:   20039997	FORWARD:     325306	MERGED:     310247	TO_CACHE:   19729750
L1D PQ	ACCESS:   26870738	FORWARD:          0	MERGED:   14104915	TO_CACHE:   12765225

L1D UNIQUE REGIONS ACCESSED: 0
L1D REGIONS CONFLICTS: 0
L1D Cross Page Prefetch Requests: 1274074
L1D Same Page Prefetch Requests: 32318474
L1D ROI Sum of L1D PQ occupancy: 164561457
L1D PREFETCHES PUSHED FROM L2C: 0
L1I TOTAL     ACCESS:   38478646  HIT:   33370828  MISS:    5107818  HIT %:    86.7256  MISS %:    13.2744   MPKI: 25.5391
L1I LOAD      ACCESS:   38478646  HIT:   33370828  MISS:    5107818  HIT %:    86.7256  MISS %:    13.2744   MPKI: 25.5391
L1I PREFETCH  REQUESTED:          0  ISSUED:          0  USEFUL:          0  USELESS:          0
L1I USEFUL LOAD PREFETCHES:          0 PREFETCH ISSUED TO LOWER LEVEL:          0  ACCURACY: -nan
L1I TIMELY PREFETCHES:          0 LATE PREFETCHES: 0 DROPPED PREFETCHES: 0
L1I PREFETCHES SAME FILL-ORIGIN LEVEL: 0 DIFFERENT FILL-ORIGIN LEVEL: 0
L1I AVERAGE MISS LATENCY: 25.428 cycles
L1I RQ	ACCESS:   58592219	FORWARD:          0	MERGED:   19331471	TO_CACHE:   39260748

BTB TOTAL     ACCESS:   30370697  HIT:   23500645  MISS:    6870052  HIT %:    77.3793  MISS %:    22.6207   MPKI: 34.3503
BTB BRANCH_DIRECT_JUMP	ACCESS:    3828094  HIT:    3320175  MISS:     507919
BTB BRANCH_INDIRECT	ACCESS:   11538875  HIT:    8901928  MISS:    2636947
BTB BRANCH_CONDITIONAL	ACCESS:    8796378  HIT:    8197618  MISS:     598760
BTB BRANCH_DIRECT_CALL	ACCESS:    2543553  HIT:    1630776  MISS:     912777
BTB BRANCH_INDIRECT_CALL	ACCESS:     560087  HIT:     266833  MISS:     293254
BTB BRANCH_RETURN	ACCESS:    3103710  HIT:    1183315  MISS:    1920395
BTB BRANCH_OTHER ACCESS:          0  HIT:          0  MISS:          0

L2C TOTAL     ACCESS:   10276973  HIT:    6604806  MISS:    3672167  HIT %:     64.268  MISS %:     35.732   MPKI: 18.3608
L2C LOAD      ACCESS:    6817147  HIT:    4265959  MISS:    2551188  HIT %:    62.5769  MISS %:    37.4231   MPKI: 12.7559
L2C DATA LOAD MPKI: 3.53531
L2C INSTRUCTION LOAD MPKI: 9.22063
L2C RFO       ACCESS:     770640  HIT:     352307  MISS:     418333  HIT %:    45.7162  MISS %:    54.2838   MPKI: 2.09166
L2C PREFETCH  ACCESS:    1057367  HIT:     497951  MISS:     559416  HIT %:    47.0935  MISS %:    52.9065   MPKI: 2.79708
AGUS PREFETCH L1 MISS: 0
L2C DATA PREFETCH MPKI: 2.79708
L2C INSTRUCTION PREFETCH MPKI: 0
L2C WRITEBACK ACCESS:    1412710  HIT:    1352658  MISS:      60052  HIT %:    95.7492  MISS %:    4.25084   MPKI: 0.30026
L2C LOAD TRANSLATION ACCESS:     135773  HIT:      55842  MISS:      79931  HIT %:    41.1289  MISS %:    58.8711   MPKI: 0.399655
L2C TRANSLATION FROM L1D PREFETCHER ACCESS:      83336  HIT:      80089  MISS:       3247  HIT %:    96.1037  MISS %:    3.89628   MPKI: 0.016235
L2C PREFETCH  REQUESTED:          0  ISSUED:          0  USEFUL:      38708  USELESS:     524169
L2C USEFUL LOAD PREFETCHES:      38708 PREFETCH ISSUED TO LOWER LEVEL:     559416  ACCURACY: 6.91936
L2C TIMELY PREFETCHES:      38708 LATE PREFETCHES: 0 DROPPED PREFETCHES: 0
L2C PREFETCHES SAME FILL-ORIGIN LEVEL: 0 DIFFERENT FILL-ORIGIN LEVEL: 0
L2C AVERAGE MISS LATENCY: 59.2789 cycles
L2C RQ	ACCESS:    7806910	FORWARD:          0	MERGED:          0	TO_CACHE:    7806897
L2C WQ	ACCESS:    1412710	FORWARD:         15	MERGED:          0	TO_CACHE:    1412710
L2C PQ	ACCESS:    1057369	FORWARD:          0	MERGED:          0	TO_CACHE:    1057367

L2C Instructions Evicting Data 774971
L2C Translations Evicting Data 47238
L2C Data Evicting Data 889316
L2C Instructions Evicting Instructions 1034497
L2C Translations Evicting Instructions 33680
L2C Data Evicting Instructions 750762
L2C Instructions Evicting Translations 34658
L2C Translations Evicting Translations 2260
L2C Data Evicting Translations 44733
L2C Dense regions hint from L2: 0
PSCL5 TOTAL     ACCESS:     122590  HIT:     122590  MISS:          0  HIT %:        100  MISS %:          0   MPKI: 0
PSCL5 LOAD TRANSLATION ACCESS:      84474  HIT:      84474  MISS:          0  HIT %:        100  MISS %:          0   MPKI: 0
PSCL5 TRANSLATION FROM L1D PREFETCHER ACCESS:      38116  HIT:      38116  MISS:          0  HIT %:        100  MISS %:          0   MPKI: 0
PSCL5 PREFETCH  REQUESTED:          0  ISSUED:          0  USEFUL:          0  USELESS:          0
PSCL5 USEFUL LOAD PREFETCHES:          0 PREFETCH ISSUED TO LOWER LEVEL:          0  ACCURACY: -nan
PSCL5 TIMELY PREFETCHES:          0 LATE PREFETCHES: 0 DROPPED PREFETCHES: 0
PSCL5 PREFETCHES SAME FILL-ORIGIN LEVEL: 0 DIFFERENT FILL-ORIGIN LEVEL: 0

PSCL4 TOTAL     ACCESS:     109437  HIT:     108719  MISS:        718  HIT %:    99.3439  MISS %:   0.656085   MPKI: 0.00359
PSCL4 LOAD TRANSLATION ACCESS:      82661  HIT:      81943  MISS:        718  HIT %:    99.1314  MISS %:   0.868608   MPKI: 0.00359
PSCL4 TRANSLATION FROM L1D PREFETCHER ACCESS:      26776  HIT:      26776  MISS:          0  HIT %:        100  MISS %:          0   MPKI: 0
PSCL4 PREFETCH  REQUESTED:          0  ISSUED:          0  USEFUL:          0  USELESS:          0
PSCL4 USEFUL LOAD PREFETCHES:          0 PREFETCH ISSUED TO LOWER LEVEL:          0  ACCURACY: -nan
PSCL4 TIMELY PREFETCHES:          0 LATE PREFETCHES: 0 DROPPED PREFETCHES: 0
PSCL4 PREFETCHES SAME FILL-ORIGIN LEVEL: 0 DIFFERENT FILL-ORIGIN LEVEL: 0

PSCL3 TOTAL     ACCESS:     100813  HIT:      86728  MISS:      14085  HIT %:    86.0286  MISS %:    13.9714   MPKI: 0.070425
PSCL3 LOAD TRANSLATION ACCESS:      78795  HIT:      64710  MISS:      14085  HIT %:    82.1245  MISS %:    17.8755   MPKI: 0.070425
PSCL3 TRANSLATION FROM L1D PREFETCHER ACCESS:      22018  HIT:      22018  MISS:          0  HIT %:        100  MISS %:          0   MPKI: 0
PSCL3 PREFETCH  REQUESTED:          0  ISSUED:          0  USEFUL:          0  USELESS:          0
PSCL3 USEFUL LOAD PREFETCHES:          0 PREFETCH ISSUED TO LOWER LEVEL:          0  ACCURACY: -nan
PSCL3 TIMELY PREFETCHES:          0 LATE PREFETCHES: 0 DROPPED PREFETCHES: 0
PSCL3 PREFETCHES SAME FILL-ORIGIN LEVEL: 0 DIFFERENT FILL-ORIGIN LEVEL: 0

PSCL2 TOTAL     ACCESS:     103488  HIT:      66525  MISS:      36963  HIT %:    64.2828  MISS %:    35.7172   MPKI: 0.184815
PSCL2 LOAD TRANSLATION ACCESS:      84774  HIT:      47811  MISS:      36963  HIT %:    56.3982  MISS %:    43.6018   MPKI: 0.184815
PSCL2 TRANSLATION FROM L1D PREFETCHER ACCESS:      18714  HIT:      18714  MISS:          0  HIT %:        100  MISS %:          0   MPKI: 0
PSCL2 PREFETCH  REQUESTED:          0  ISSUED:          0  USEFUL:          0  USELESS:          0
PSCL2 USEFUL LOAD PREFETCHES:          0 PREFETCH ISSUED TO LOWER LEVEL:          0  ACCURACY: -nan
PSCL2 TIMELY PREFETCHES:          0 LATE PREFETCHES: 0 DROPPED PREFETCHES: 0
PSCL2 PREFETCHES SAME FILL-ORIGIN LEVEL: 0 DIFFERENT FILL-ORIGIN LEVEL: 0

LLC TOTAL     ACCESS:    4303058  HIT:    3734610  MISS:     568448  HIT %:    86.7897  MISS %:    13.2103   MPKI: 2.84224
LLC LOAD      ACCESS:    2551175  HIT:    2360192  MISS:     190983  HIT %:    92.5139  MISS %:    7.48608   MPKI: 0.954915
LLC RFO       ACCESS:     418332  HIT:     225015  MISS:     193317  HIT %:    53.7886  MISS %:    46.2114   MPKI: 0.966585
LLC PREFETCH  ACCESS:     559416  HIT:     395887  MISS:     163529  HIT %:    70.7679  MISS %:    29.2321   MPKI: 0.817645
AGUS PREFETCH L1 MISS: 0
LLC WRITEBACK ACCESS:     690957  HIT:     687229  MISS:       3728  HIT %:    99.4605  MISS %:   0.539542   MPKI: 0.01864
LLC LOAD TRANSLATION ACCESS:      79931  HIT:      63503  MISS:      16428  HIT %:    79.4473  MISS %:    20.5527   MPKI: 0.08214
LLC TRANSLATION FROM L1D PREFETCHER ACCESS:       3247  HIT:       2784  MISS:        463  HIT %:    85.7407  MISS %:    14.2593   MPKI: 0.002315
LLC PREFETCH  REQUESTED:          0  ISSUED:          0  USEFUL:       8631  USELESS:     156287
LLC USEFUL LOAD PREFETCHES:       8631 PREFETCH ISSUED TO LOWER LEVEL:     163529  ACCURACY: 5.27796
LLC TIMELY PREFETCHES:       8631 LATE PREFETCHES: 0 DROPPED PREFETCHES: 0
LLC PREFETCHES SAME FILL-ORIGIN LEVEL: 0 DIFFERENT FILL-ORIGIN LEVEL: 0
LLC AVERAGE MISS LATENCY: 192.307 cycles
LLC RQ	ACCESS:    3052699	FORWARD:          0	MERGED:          0	TO_CACHE:    3052685
LLC WQ	ACCESS:     690958	FORWARD:         14	MERGED:          0	TO_CACHE:     690958
LLC PQ	ACCESS:     559416	FORWARD:          0	MERGED:          0	TO_CACHE:     559416

LLC Dense regions hint to LLC: 0

RAW hits: 1986661
Loads Generated: 48274898
Loads sent to L1D: 46288237
Stores Generated: 20039989
Stores sent to L1D: 20039997
Major fault: 0 Minor fault: 6225
Allocated PAGES: 6225
ucb ended
-----------------------------------------------------------------------------------------------------------------------------------------------------------------------------------------------------
Offsets elements: -63 -62 -61 -60 -59 -58 -57 -56 -55 -54 -53 -52 -51 -50 -49 -48 -47 -46 -45 -44 -43 -42 -41 -40 -39 -38 -37 -36 -35 -34 -33 -32 -31 -30 -29 -28 -27 -26 -25 -24 -23 -22 -21 -20 -19 -18 -17 -16 -15 -14 -13 -12 -11 -10 -9 -8 -7 -6 -5 -4 -3 -2 -1 1 2 3 4 5 6 7 8 9 10 11 12 13 14 15 16 17 18 19 20 21 22 23 24 25 26 27 28 29 30 31 32 33 34 35 36 37 38 39 40 41 42 43 44 45 46 47 48 49 50 51 52 53 54 55 56 57 58 59 60 61 62 63 
Potential of Offsets elements: 58.5696 28.5696 62.5696 157.57 28.5696 101.57 82.5696 45.5696 40.5696 168.57 71.5696 41.5696 132.57 157.57 58.5696 186.57 84.5696 28.5696 62.5696 61.5696 167.57 236.57 54.5696 39.5696 92.5696 69.5696 99.5696 173.57 78.5696 206.57 151.57 138.57 207.57 90.5696 1339.57 1039.57 57.5696 73.5696 123.57 54.5696 139.57 173.57 101.57 89.5696 236.57 203.57 258.57 67.5696 96.5696 196.57 395.57 239.57 331.57 156.57 1048.57 211.57 354.57 878.57 1100.57 990.57 1752.57 1116.57 1784.57 1820.57 1149.57 2076.1 885.57 1198.57 1053.57 922.57 1017.57 889.57 840.57 980.57 796.57 1512.57 1173.57 1277.57 677.734 1789.57 793.57 1704.57 933.57 919.57 822.57 883.57 764.57 1089.57 1045.57 845.57 201.57 185.57 54.5696 78.5696 77.5696 166.57 60.5696 130.57 270.57 223.57 183.57 53.5696 58.5696 38.5696 31.5696 172.57 42.5696 115.57 56.5696 51.5696 63.5696 100.57 279.57 67.5696 59.5696 86.5696 34.5696 131.57 135.57 28.5696 28.5696 28.5696 28.5696 28.5696 28.5696 28.5696 
rewards of Offsets elements: 30 0 34 129 0 73 54 17 12 140 43 13 104 129 30 158 56 0 34 33 139 208 26 11 64 41 71 145 50 178 123 110 179 62 1311 1011 29 45 95 26 111 145 73 61 208 175 230 39 68 168 367 211 303 128 1020 183 326 850 1072 962 1724 1088 1756 1792 1121 2076 857 1170 1025 894 989 861 812 952 768 1484 1145 1249 671 1761 765 1676 905 891 794 855 736 1061 1017 817 173 157 26 50 49 138 32 102 242 195 155 25 30 10 3 144 14 87 28 23 35 72 251 39 31 58 6 103 107 0 0 0 0 0 0 0 Printing Sanity2
offset_index value126
offset list size126
reward size126
potential size126
-----------------------------------------------------------------------------------------------------------------------------------------------------------------------------------------------------

DRAM Statistics
 CHANNEL 0
 RQ ROW_BUFFER_HIT:     163659  ROW_BUFFER_MISS:     401060
 DBUS_CONGESTED:        285
 WQ ROW_BUFFER_HIT:      47125  ROW_BUFFER_MISS:     263827  FULL:          0

 AVG_CONGESTED_CYCLE: 3
 All warmup complete: 2
Channel 0 Bank busy for read cycles: 0
Channel 0 Bank busy for write cycles: 0
Channel 0
Rank 0
0banks busy for read cycles: 431592448
0banks busy for write cycles: 117887
1banks busy for read cycles: 30114707
1banks busy for write cycles: 16513831
2banks busy for read cycles: 6309443
2banks busy for write cycles: 4531543
3banks busy for read cycles: 1978812
3banks busy for write cycles: 1934138
4banks busy for read cycles: 558187
4banks busy for write cycles: 917934
5banks busy for read cycles: 266944
5banks busy for write cycles: 464060
6banks busy for read cycles: 244114
6banks busy for write cycles: 271450
7banks busy for read cycles: 383224
7banks busy for write cycles: 329751
8banks busy for read cycles: 1536211
8banks busy for write cycles: 1985645

CPU 0 Branch Prediction Accuracy: 99.6928% MPKI: 0.541945 Average ROB Occupancy at Mispredict: 41.3526
Branch types
NOT_BRANCH: 164715956 82.358%
BRANCH_DIRECT_JUMP: 3828094 1.91405%
BRANCH_INDIRECT: 11538875 5.76944%
BRANCH_CONDITIONAL: 13709397 6.8547%
BRANCH_DIRECT_CALL: 2543553 1.27178%
BRANCH_INDIRECT_CALL: 560087 0.280043%
BRANCH_RETURN: 3103710 1.55185%
BRANCH_OTHER: 0 0%

DRAM PAGES: 1048576
Allocated PAGES: 6225
