
*** ChampSim Multicore Out-of-Order Simulator ***

Warmup Instructions: 50000000
Simulation Instructions: 200000000
Number of CPUs: 1
LLC sets: 2048
LLC ways: 16
Off-chip DRAM Size: 4096 MB Channels: 1 Width: 64-bit Data Rate: 6400 MT/s
CPU 0 runs traces/spec2k17/srv_73.champsimtrace.xz
.xz
BTB has LRU replacement policy
ITLB has LRU replacement policy
DTLB has LRU replacement policy
STLB has LRU replacement policy
L1I has LRU replacement policy
L1D has LRU replacement policy
Initialize SRRIP state for L2C
Initialize DRRIP state for LLC
Offsets elements: -63 -62 -61 -60 -59 -58 -57 -56 -55 -54 -53 -52 -51 -50 -49 -48 -47 -46 -45 -44 -43 -42 -41 -40 -39 -38 -37 -36 -35 -34 -33 -32 -31 -30 -29 -28 -27 -26 -25 -24 -23 -22 -21 -20 -19 -18 -17 -16 -15 -14 -13 -12 -11 -10 -9 -8 -7 -6 -5 -4 -3 -2 -1 1 2 3 4 5 6 7 8 9 10 11 12 13 14 15 16 17 18 19 20 21 22 23 24 25 26 27 28 29 30 31 32 33 34 35 36 37 38 39 40 41 42 43 44 45 46 47 48 49 50 51 52 53 54 55 56 57 58 59 60 61 62 63 
Potential of Offsets elements: 
rewards of Offsets elements: 35 0 0 161 6 2 4 11 0 0 0 81 53 0 38 0 189 102 0 0 3 0 54 34 0 9 22 35 80 0 4 320 34 137 300 374 25 1 25 22 23 106 52 184 45 273 704 302 213 366 22 316 51 298 289 390 208 331 330 1355 708 2061 3621 1095 652 997 1683 314 280 458 119 240 403 138 105 180 148 184 32 181 45 78 201 24 318 82 157 6 7 84 359 7 3 22 6 19 280 50 4 4 88 0 34 32 107 73 12 57 32 310 8 0 0 31 4 17 3 2 8 21 0 0 15 140 29 0 
Printing Sanity1
Heartbeat CPU 0 instructions: 10000002 cycles: 2870356 heartbeat IPC: 3.48389 cumulative IPC: 3.48389 (Simulation time: 0 hr 0 min 27 sec) 
Heartbeat CPU 0 instructions: 20000002 cycles: 5734017 heartbeat IPC: 3.49203 cumulative IPC: 3.48796 (Simulation time: 0 hr 1 min 0 sec) 
Heartbeat CPU 0 instructions: 30000001 cycles: 8601316 heartbeat IPC: 3.4876 cumulative IPC: 3.48784 (Simulation time: 0 hr 1 min 29 sec) 
*** Reached end of trace for Core: 0 Repeating trace: traces/spec2k17/srv_73.champsimtrace.xz
Heartbeat CPU 0 instructions: 40000002 cycles: 11466023 heartbeat IPC: 3.49076 cumulative IPC: 3.48857 (Simulation time: 0 hr 1 min 57 sec) 
Heartbeat CPU 0 instructions: 50000003 cycles: 14328435 heartbeat IPC: 3.49356 cumulative IPC: 3.48956 (Simulation time: 0 hr 2 min 20 sec) 

Warmup complete CPU 0 instructions: 50000003 cycles: 14328435 (Simulation time: 0 hr 2 min 20 sec) 

Heartbeat CPU 0 instructions: 60000001 cycles: 47923244 heartbeat IPC: 0.297665 cumulative IPC: 0.297665 (Simulation time: 0 hr 3 min 2 sec) 
*** Reached end of trace for Core: 0 Repeating trace: traces/spec2k17/srv_73.champsimtrace.xz
Heartbeat CPU 0 instructions: 70000003 cycles: 81276231 heartbeat IPC: 0.299823 cumulative IPC: 0.29874 (Simulation time: 0 hr 4 min 3 sec) 
Heartbeat CPU 0 instructions: 80000002 cycles: 114391544 heartbeat IPC: 0.301975 cumulative IPC: 0.299811 (Simulation time: 0 hr 5 min 9 sec) 
Heartbeat CPU 0 instructions: 90000001 cycles: 147913757 heartbeat IPC: 0.29831 cumulative IPC: 0.299434 (Simulation time: 0 hr 5 min 51 sec) 
*** Reached end of trace for Core: 0 Repeating trace: traces/spec2k17/srv_73.champsimtrace.xz
Heartbeat CPU 0 instructions: 100000001 cycles: 181271601 heartbeat IPC: 0.29978 cumulative IPC: 0.299503 (Simulation time: 0 hr 6 min 33 sec) 
Heartbeat CPU 0 instructions: 110000000 cycles: 214391535 heartbeat IPC: 0.301933 cumulative IPC: 0.299905 (Simulation time: 0 hr 7 min 15 sec) 
Heartbeat CPU 0 instructions: 120000000 cycles: 247729589 heartbeat IPC: 0.299958 cumulative IPC: 0.299913 (Simulation time: 0 hr 7 min 56 sec) 
*** Reached end of trace for Core: 0 Repeating trace: traces/spec2k17/srv_73.champsimtrace.xz
Heartbeat CPU 0 instructions: 130000003 cycles: 281084565 heartbeat IPC: 0.299805 cumulative IPC: 0.299899 (Simulation time: 0 hr 8 min 38 sec) 
Heartbeat CPU 0 instructions: 140000000 cycles: 314130069 heartbeat IPC: 0.302613 cumulative IPC: 0.300198 (Simulation time: 0 hr 9 min 20 sec) 
Heartbeat CPU 0 instructions: 150000000 cycles: 347400773 heartbeat IPC: 0.300565 cumulative IPC: 0.300235 (Simulation time: 0 hr 10 min 2 sec) 
*** Reached end of trace for Core: 0 Repeating trace: traces/spec2k17/srv_73.champsimtrace.xz
Heartbeat CPU 0 instructions: 160000001 cycles: 380921934 heartbeat IPC: 0.298319 cumulative IPC: 0.30006 (Simulation time: 0 hr 10 min 43 sec) 
Heartbeat CPU 0 instructions: 170000001 cycles: 413979536 heartbeat IPC: 0.302502 cumulative IPC: 0.300262 (Simulation time: 0 hr 11 min 27 sec) 
Heartbeat CPU 0 instructions: 180000001 cycles: 447050488 heartbeat IPC: 0.30238 cumulative IPC: 0.300424 (Simulation time: 0 hr 12 min 21 sec) 
*** Reached end of trace for Core: 0 Repeating trace: traces/spec2k17/srv_73.champsimtrace.xz
Heartbeat CPU 0 instructions: 190000001 cycles: 480660197 heartbeat IPC: 0.297533 cumulative IPC: 0.300215 (Simulation time: 0 hr 13 min 3 sec) 
Heartbeat CPU 0 instructions: 200000001 cycles: 513631866 heartbeat IPC: 0.303291 cumulative IPC: 0.300419 (Simulation time: 0 hr 13 min 41 sec) 
Heartbeat CPU 0 instructions: 210000000 cycles: 546712528 heartbeat IPC: 0.302291 cumulative IPC: 0.300535 (Simulation time: 0 hr 14 min 18 sec) 
*** Reached end of trace for Core: 0 Repeating trace: traces/spec2k17/srv_73.champsimtrace.xz
Heartbeat CPU 0 instructions: 220000000 cycles: 580247642 heartbeat IPC: 0.298195 cumulative IPC: 0.300396 (Simulation time: 0 hr 14 min 52 sec) 
Heartbeat CPU 0 instructions: 230000000 cycles: 613223501 heartbeat IPC: 0.303252 cumulative IPC: 0.300553 (Simulation time: 0 hr 15 min 24 sec) 
Heartbeat CPU 0 instructions: 240000001 cycles: 646263332 heartbeat IPC: 0.302665 cumulative IPC: 0.300664 (Simulation time: 0 hr 15 min 51 sec) 
Heartbeat CPU 0 instructions: 250000000 cycles: 679811189 heartbeat IPC: 0.298082 cumulative IPC: 0.300534 (Simulation time: 0 hr 16 min 19 sec) 
Finished CPU 0 instructions: 200000000 cycles: 665482758 cumulative IPC: 0.300534 (Simulation time: 0 hr 16 min 19 sec) 

ChampSim completed all CPUs

Region of Interest Statistics

CPU 0 cumulative IPC: 0.300534 instructions: 200000000 cycles: 665482758
ITLB TOTAL     ACCESS:   35573813  HIT:   33360256  MISS:    2213557  HIT %:    93.7776  MISS %:    6.22243   MPKI: 11.0678
ITLB LOAD TRANSLATION ACCESS:   35573813  HIT:   33360256  MISS:    2213557  HIT %:    93.7776  MISS %:    6.22243   MPKI: 11.0678
ITLB PREFETCH  REQUESTED:          0  ISSUED:          0  USEFUL:          0  USELESS:          0
ITLB USEFUL LOAD PREFETCHES:          0 PREFETCH ISSUED TO LOWER LEVEL:          0  ACCURACY: -nan
ITLB TIMELY PREFETCHES:          0 LATE PREFETCHES: 0 DROPPED PREFETCHES: 0
ITLB PREFETCHES SAME FILL-ORIGIN LEVEL: 0 DIFFERENT FILL-ORIGIN LEVEL: 0
ITLB AVERAGE MISS LATENCY: 9.25294 cycles
ITLB RQ	ACCESS:   41809201	FORWARD:          0	MERGED:    5704427	TO_CACHE:   36104774

DTLB TOTAL     ACCESS:   45342766  HIT:   43213864  MISS:    2128902  HIT %:    95.3049  MISS %:    4.69513   MPKI: 10.6445
DTLB LOAD TRANSLATION ACCESS:   45342766  HIT:   43213864  MISS:    2128902  HIT %:    95.3049  MISS %:    4.69513   MPKI: 10.6445
DTLB PREFETCH  REQUESTED:          0  ISSUED:          0  USEFUL:          0  USELESS:          0
DTLB USEFUL LOAD PREFETCHES:          0 PREFETCH ISSUED TO LOWER LEVEL:          0  ACCURACY: -nan
DTLB TIMELY PREFETCHES:          0 LATE PREFETCHES: 0 DROPPED PREFETCHES: 0
DTLB PREFETCHES SAME FILL-ORIGIN LEVEL: 0 DIFFERENT FILL-ORIGIN LEVEL: 0
DTLB AVERAGE MISS LATENCY: 10.8175 cycles
DTLB RQ	ACCESS:   60048550	FORWARD:          0	MERGED:   14647819	TO_CACHE:   45400731

STLB TOTAL     ACCESS:   12751660  HIT:   12686311  MISS:      65349  HIT %:    99.4875  MISS %:   0.512474   MPKI: 0.326745
STLB LOAD TRANSLATION ACCESS:    4342458  HIT:    4277877  MISS:      64581  HIT %:    98.5128  MISS %:     1.4872   MPKI: 0.322905
STLB TRANSLATION FROM L1D PREFETCHER ACCESS:    8409202  HIT:    8408434  MISS:        768  HIT %:    99.9909  MISS %: 0.00913285   MPKI: 0.00384
STLB PREFETCH  REQUESTED:          0  ISSUED:          0  USEFUL:        538  USELESS:        229
STLB USEFUL LOAD PREFETCHES:        538 PREFETCH ISSUED TO LOWER LEVEL:          0  ACCURACY: inf
STLB TIMELY PREFETCHES:        538 LATE PREFETCHES: 0 DROPPED PREFETCHES: 91902
STLB PREFETCHES SAME FILL-ORIGIN LEVEL: 0 DIFFERENT FILL-ORIGIN LEVEL: 0
STLB AVERAGE MISS LATENCY: 67.9109 cycles
STLB RQ	ACCESS:   22977972	FORWARD:          0	MERGED:   10133524	TO_CACHE:   12844448

STLB Hit, L1D data hit: 0
STLB Hit, L2C data hit: 0
STLB Hit, LLC data hit: 0
STLB Hit, LLC data miss: 0
STLB STLB hints to L2: 0
L1D TOTAL     ACCESS:   76584244  HIT:   69093238  MISS:    7491006  HIT %:    90.2186  MISS %:    9.78139   MPKI: 37.455
L1D LOAD      ACCESS:   33536015  HIT:   29328581  MISS:    4207434  HIT %:     87.454  MISS %:     12.546   MPKI: 21.0372
L1D RFO       ACCESS:   24889199  HIT:   23913489  MISS:     975710  HIT %:    96.0798  MISS %:    3.92021   MPKI: 4.87855
L1D PREFETCH  ACCESS:   18159030  HIT:   15851168  MISS:    2307862  HIT %:    87.2908  MISS %:    12.7092   MPKI: 11.5393
AGUS PREFETCH L1 MISS: 0
L1D PREFETCH  REQUESTED:   39465930  ISSUED:   39465735  USEFUL:     462329  USELESS:    1845486
L1D USEFUL LOAD PREFETCHES:     462329 PREFETCH ISSUED TO LOWER LEVEL:    2318167  ACCURACY: 19.9437
L1D TIMELY PREFETCHES:     462329 LATE PREFETCHES: 9340 DROPPED PREFETCHES: 172035
L1D PREFETCHES SAME FILL-ORIGIN LEVEL: 2318167 DIFFERENT FILL-ORIGIN LEVEL: 0
L1D AVERAGE MISS LATENCY: 477771 cycles
L1D RQ	ACCESS:   46234573	FORWARD:          0	MERGED:   12223761	TO_CACHE:   33689481
L1D WQ	ACCESS:   26508991	FORWARD:     330763	MERGED:     149922	TO_CACHE:   26359069
L1D PQ	ACCESS:   20830221	FORWARD:          0	MERGED:    2185275	TO_CACHE:   18635514

L1D UNIQUE REGIONS ACCESSED: 0
L1D REGIONS CONFLICTS: 0
L1D Cross Page Prefetch Requests: 980419
L1D Same Page Prefetch Requests: 24813279
L1D ROI Sum of L1D PQ occupancy: 243395702
L1D PREFETCHES PUSHED FROM L2C: 0
L1I TOTAL     ACCESS:   40112455  HIT:   28893428  MISS:   11219027  HIT %:    72.0311  MISS %:    27.9689   MPKI: 56.0951
L1I LOAD      ACCESS:   40112455  HIT:   28893428  MISS:   11219027  HIT %:    72.0311  MISS %:    27.9689   MPKI: 56.0951
L1I PREFETCH  REQUESTED:          0  ISSUED:          0  USEFUL:          0  USELESS:          0
L1I USEFUL LOAD PREFETCHES:          0 PREFETCH ISSUED TO LOWER LEVEL:          0  ACCURACY: -nan
L1I TIMELY PREFETCHES:          0 LATE PREFETCHES: 0 DROPPED PREFETCHES: 0
L1I PREFETCHES SAME FILL-ORIGIN LEVEL: 0 DIFFERENT FILL-ORIGIN LEVEL: 0
L1I AVERAGE MISS LATENCY: 16.9841 cycles
L1I RQ	ACCESS:   58514599	FORWARD:          0	MERGED:   16705398	TO_CACHE:   41809201

BTB TOTAL     ACCESS:   30522117  HIT:   18157448  MISS:   12364669  HIT %:    59.4895  MISS %:    40.5105   MPKI: 61.8233
BTB BRANCH_DIRECT_JUMP	ACCESS:    2028929  HIT:    1233064  MISS:     795865
BTB BRANCH_INDIRECT	ACCESS:   12036857  HIT:    7263314  MISS:    4773543
BTB BRANCH_CONDITIONAL	ACCESS:    7346113  HIT:    6103114  MISS:    1242999
BTB BRANCH_DIRECT_CALL	ACCESS:    3832241  HIT:    1828799  MISS:    2003442
BTB BRANCH_INDIRECT_CALL	ACCESS:     722842  HIT:     356547  MISS:     366295
BTB BRANCH_RETURN	ACCESS:    4555135  HIT:    1372610  MISS:    3182525
BTB BRANCH_OTHER ACCESS:          0  HIT:          0  MISS:          0

L2C TOTAL     ACCESS:   21334221  HIT:   19147326  MISS:    2186895  HIT %:    89.7494  MISS %:    10.2506   MPKI: 10.9345
L2C LOAD      ACCESS:   15417096  HIT:   13808400  MISS:    1608696  HIT %:    89.5655  MISS %:    10.4345   MPKI: 8.04348
L2C DATA LOAD MPKI: 2.68953
L2C INSTRUCTION LOAD MPKI: 5.35395
L2C RFO       ACCESS:     974740  HIT:     866161  MISS:     108579  HIT %:    88.8607  MISS %:    11.1393   MPKI: 0.542895
L2C PREFETCH  ACCESS:    2318171  HIT:    1935211  MISS:     382960  HIT %:    83.4801  MISS %:    16.5199   MPKI: 1.9148
AGUS PREFETCH L1 MISS: 0
L2C DATA PREFETCH MPKI: 1.9148
L2C INSTRUCTION PREFETCH MPKI: 0
L2C WRITEBACK ACCESS:    2373107  HIT:    2348717  MISS:      24390  HIT %:    98.9722  MISS %:    1.02777   MPKI: 0.12195
L2C LOAD TRANSLATION ACCESS:      96560  HIT:      37443  MISS:      59117  HIT %:    38.7769  MISS %:    61.2231   MPKI: 0.295585
L2C TRANSLATION FROM L1D PREFETCHER ACCESS:     154547  HIT:     151394  MISS:       3153  HIT %:    97.9598  MISS %:    2.04016   MPKI: 0.015765
L2C PREFETCH  REQUESTED:          0  ISSUED:          0  USEFUL:       6194  USELESS:     379984
L2C USEFUL LOAD PREFETCHES:       6194 PREFETCH ISSUED TO LOWER LEVEL:     382960  ACCURACY: 1.6174
L2C TIMELY PREFETCHES:       6194 LATE PREFETCHES: 0 DROPPED PREFETCHES: 0
L2C PREFETCHES SAME FILL-ORIGIN LEVEL: 0 DIFFERENT FILL-ORIGIN LEVEL: 0
L2C AVERAGE MISS LATENCY: 42.2075 cycles
L2C RQ	ACCESS:   16642966	FORWARD:          0	MERGED:          0	TO_CACHE:   16642941
L2C WQ	ACCESS:    2373107	FORWARD:         25	MERGED:          0	TO_CACHE:    2373107
L2C PQ	ACCESS:    2318167	FORWARD:          0	MERGED:          0	TO_CACHE:    2318167

L2C Instructions Evicting Data 439138
L2C Translations Evicting Data 39300
L2C Data Evicting Data 563814
L2C Instructions Evicting Instructions 612817
L2C Translations Evicting Instructions 19181
L2C Data Evicting Instructions 426348
L2C Instructions Evicting Translations 18834
L2C Translations Evicting Translations 3789
L2C Data Evicting Translations 39284
L2C Dense regions hint from L2: 0
PSCL5 TOTAL     ACCESS:     157251  HIT:     157251  MISS:          0  HIT %:        100  MISS %:          0   MPKI: 0
PSCL5 LOAD TRANSLATION ACCESS:      64581  HIT:      64581  MISS:          0  HIT %:        100  MISS %:          0   MPKI: 0
PSCL5 TRANSLATION FROM L1D PREFETCHER ACCESS:      92670  HIT:      92670  MISS:          0  HIT %:        100  MISS %:          0   MPKI: 0
PSCL5 PREFETCH  REQUESTED:          0  ISSUED:          0  USEFUL:          0  USELESS:          0
PSCL5 USEFUL LOAD PREFETCHES:          0 PREFETCH ISSUED TO LOWER LEVEL:          0  ACCURACY: -nan
PSCL5 TIMELY PREFETCHES:          0 LATE PREFETCHES: 0 DROPPED PREFETCHES: 0
PSCL5 PREFETCHES SAME FILL-ORIGIN LEVEL: 0 DIFFERENT FILL-ORIGIN LEVEL: 0

PSCL4 TOTAL     ACCESS:     147109  HIT:     146297  MISS:        812  HIT %:     99.448  MISS %:   0.551972   MPKI: 0.00406
PSCL4 LOAD TRANSLATION ACCESS:      62577  HIT:      61765  MISS:        812  HIT %:    98.7024  MISS %:     1.2976   MPKI: 0.00406
PSCL4 TRANSLATION FROM L1D PREFETCHER ACCESS:      84532  HIT:      84532  MISS:          0  HIT %:        100  MISS %:          0   MPKI: 0
PSCL4 PREFETCH  REQUESTED:          0  ISSUED:          0  USEFUL:          0  USELESS:          0
PSCL4 USEFUL LOAD PREFETCHES:          0 PREFETCH ISSUED TO LOWER LEVEL:          0  ACCURACY: -nan
PSCL4 TIMELY PREFETCHES:          0 LATE PREFETCHES: 0 DROPPED PREFETCHES: 0
PSCL4 PREFETCHES SAME FILL-ORIGIN LEVEL: 0 DIFFERENT FILL-ORIGIN LEVEL: 0

PSCL3 TOTAL     ACCESS:     154931  HIT:     154119  MISS:        812  HIT %:    99.4759  MISS %:   0.524104   MPKI: 0.00406
PSCL3 LOAD TRANSLATION ACCESS:      64283  HIT:      63471  MISS:        812  HIT %:    98.7368  MISS %:    1.26316   MPKI: 0.00406
PSCL3 TRANSLATION FROM L1D PREFETCHER ACCESS:      90648  HIT:      90648  MISS:          0  HIT %:        100  MISS %:          0   MPKI: 0
PSCL3 PREFETCH  REQUESTED:          0  ISSUED:          0  USEFUL:          0  USELESS:          0
PSCL3 USEFUL LOAD PREFETCHES:          0 PREFETCH ISSUED TO LOWER LEVEL:          0  ACCURACY: -nan
PSCL3 TIMELY PREFETCHES:          0 LATE PREFETCHES: 0 DROPPED PREFETCHES: 0
PSCL3 PREFETCHES SAME FILL-ORIGIN LEVEL: 0 DIFFERENT FILL-ORIGIN LEVEL: 0

PSCL2 TOTAL     ACCESS:      99179  HIT:      68539  MISS:      30640  HIT %:    69.1064  MISS %:    30.8936   MPKI: 0.1532
PSCL2 LOAD TRANSLATION ACCESS:      64804  HIT:      34164  MISS:      30640  HIT %:     52.719  MISS %:     47.281   MPKI: 0.1532
PSCL2 TRANSLATION FROM L1D PREFETCHER ACCESS:      34375  HIT:      34375  MISS:          0  HIT %:        100  MISS %:          0   MPKI: 0
PSCL2 PREFETCH  REQUESTED:          0  ISSUED:          0  USEFUL:          0  USELESS:          0
PSCL2 USEFUL LOAD PREFETCHES:          0 PREFETCH ISSUED TO LOWER LEVEL:          0  ACCURACY: -nan
PSCL2 TIMELY PREFETCHES:          0 LATE PREFETCHES: 0 DROPPED PREFETCHES: 0
PSCL2 PREFETCHES SAME FILL-ORIGIN LEVEL: 0 DIFFERENT FILL-ORIGIN LEVEL: 0

LLC TOTAL     ACCESS:    2329663  HIT:    2136744  MISS:     192919  HIT %:     91.719  MISS %:    8.28098   MPKI: 0.964595
LLC LOAD      ACCESS:    1608695  HIT:    1499921  MISS:     108774  HIT %:    93.2384  MISS %:    6.76163   MPKI: 0.54387
LLC RFO       ACCESS:     108571  HIT:      87571  MISS:      21000  HIT %:    80.6578  MISS %:    19.3422   MPKI: 0.105
LLC PREFETCH  ACCESS:     382960  HIT:     326045  MISS:      56915  HIT %:    85.1381  MISS %:    14.8619   MPKI: 0.284575
AGUS PREFETCH L1 MISS: 0
LLC WRITEBACK ACCESS:     167167  HIT:     166792  MISS:        375  HIT %:    99.7757  MISS %:   0.224327   MPKI: 0.001875
LLC LOAD TRANSLATION ACCESS:      59117  HIT:      53379  MISS:       5738  HIT %:    90.2938  MISS %:    9.70618   MPKI: 0.02869
LLC TRANSLATION FROM L1D PREFETCHER ACCESS:       3153  HIT:       3036  MISS:        117  HIT %:    96.2892  MISS %:    3.71075   MPKI: 0.000585
LLC PREFETCH  REQUESTED:          0  ISSUED:          0  USEFUL:        564  USELESS:      56147
LLC USEFUL LOAD PREFETCHES:        564 PREFETCH ISSUED TO LOWER LEVEL:      56915  ACCURACY: 0.990951
LLC TIMELY PREFETCHES:        564 LATE PREFETCHES: 0 DROPPED PREFETCHES: 0
LLC PREFETCHES SAME FILL-ORIGIN LEVEL: 0 DIFFERENT FILL-ORIGIN LEVEL: 0
LLC AVERAGE MISS LATENCY: 142.173 cycles
LLC RQ	ACCESS:    1779545	FORWARD:          0	MERGED:          0	TO_CACHE:    1779536
LLC WQ	ACCESS:     167167	FORWARD:          9	MERGED:          0	TO_CACHE:     167167
LLC PQ	ACCESS:     382960	FORWARD:          0	MERGED:          0	TO_CACHE:     382960

LLC Dense regions hint to LLC: 0

RAW hits: 1456113
Loads Generated: 47690682
Loads sent to L1D: 46234573
Stores Generated: 26508983
Stores sent to L1D: 26508991
Major fault: 0 Minor fault: 4510
Allocated PAGES: 4510
ucb ended
-----------------------------------------------------------------------------------------------------------------------------------------------------------------------------------------------------
Offsets elements: -63 -62 -61 -60 -59 -58 -57 -56 -55 -54 -53 -52 -51 -50 -49 -48 -47 -46 -45 -44 -43 -42 -41 -40 -39 -38 -37 -36 -35 -34 -33 -32 -31 -30 -29 -28 -27 -26 -25 -24 -23 -22 -21 -20 -19 -18 -17 -16 -15 -14 -13 -12 -11 -10 -9 -8 -7 -6 -5 -4 -3 -2 -1 1 2 3 4 5 6 7 8 9 10 11 12 13 14 15 16 17 18 19 20 21 22 23 24 25 26 27 28 29 30 31 32 33 34 35 36 37 38 39 40 41 42 43 44 45 46 47 48 49 50 51 52 53 54 55 56 57 58 59 60 61 62 63 
Potential of Offsets elements: 63.5174 28.5174 28.5174 189.517 34.5174 30.5174 32.5174 39.5174 28.5174 28.5174 28.5174 109.517 81.5174 28.5174 66.5174 28.5174 217.517 130.517 28.5174 28.5174 31.5174 28.5174 82.5174 62.5174 28.5174 37.5174 50.5174 63.5174 108.517 28.5174 32.5174 348.517 62.5174 165.517 328.517 402.517 53.5174 29.5174 53.5174 50.5174 51.5174 134.517 80.5174 212.517 73.5174 301.517 732.517 330.517 241.517 394.517 50.5174 344.517 79.5174 326.517 317.517 418.517 236.517 359.517 358.517 1383.52 736.517 2061.1 1432.82 1123.52 680.517 1025.52 1711.52 342.517 308.517 486.517 147.517 268.517 431.517 166.517 133.517 208.517 176.517 212.517 60.5174 209.517 73.5174 106.517 229.517 52.5174 346.517 110.517 185.517 34.5174 35.5174 112.517 387.517 35.5174 31.5174 50.5174 34.5174 47.5174 308.517 78.5174 32.5174 32.5174 116.517 28.5174 62.5174 60.5174 135.517 101.517 40.5174 85.5174 60.5174 338.517 36.5174 28.5174 28.5174 59.5174 32.5174 45.5174 31.5174 30.5174 36.5174 49.5174 28.5174 28.5174 43.5174 168.517 57.5174 28.5174 
rewards of Offsets elements: 35 0 0 161 6 2 4 11 0 0 0 81 53 0 38 0 189 102 0 0 3 0 54 34 0 9 22 35 80 0 4 320 34 137 300 374 25 1 25 22 23 106 52 184 45 273 704 302 213 366 22 316 51 298 289 390 208 331 330 1355 708 2061 1428 1095 652 997 1683 314 280 458 119 240 403 138 105 180 148 184 32 181 45 78 201 24 318 82 157 6 7 84 359 7 3 22 6 19 280 50 4 4 88 0 34 32 107 73 12 57 32 310 8 0 0 31 4 17 3 2 8 21 0 0 15 140 29 0 Printing Sanity2
offset_index value126
offset list size126
reward size126
potential size126
-----------------------------------------------------------------------------------------------------------------------------------------------------------------------------------------------------

DRAM Statistics
 CHANNEL 0
 RQ ROW_BUFFER_HIT:      70722  ROW_BUFFER_MISS:     121808
 DBUS_CONGESTED:        239
 WQ ROW_BUFFER_HIT:       4487  ROW_BUFFER_MISS:      17978  FULL:          0

 AVG_CONGESTED_CYCLE: 4
 All warmup complete: 2
Channel 0 Bank busy for read cycles: 0
Channel 0 Bank busy for write cycles: 0
Channel 0
Rank 0
0banks busy for read cycles: 650892764
0banks busy for write cycles: 11140
1banks busy for read cycles: 6833375
1banks busy for write cycles: 1838890
2banks busy for read cycles: 2404577
2banks busy for write cycles: 602112
3banks busy for read cycles: 1023166
3banks busy for write cycles: 255886
4banks busy for read cycles: 515117
4banks busy for write cycles: 106902
5banks busy for read cycles: 227208
5banks busy for write cycles: 49534
6banks busy for read cycles: 219191
6banks busy for write cycles: 18848
7banks busy for read cycles: 189669
7banks busy for write cycles: 16742
8banks busy for read cycles: 157654
8banks busy for write cycles: 119984

CPU 0 Branch Prediction Accuracy: 99.8126% MPKI: 0.337515 Average ROB Occupancy at Mispredict: 51.5776
Branch types
NOT_BRANCH: 163976086 81.988%
BRANCH_DIRECT_JUMP: 2028929 1.01446%
BRANCH_INDIRECT: 12036857 6.01843%
BRANCH_CONDITIONAL: 12847814 6.42391%
BRANCH_DIRECT_CALL: 3832241 1.91612%
BRANCH_INDIRECT_CALL: 722842 0.361421%
BRANCH_RETURN: 4555135 2.27757%
BRANCH_OTHER: 0 0%

DRAM PAGES: 1048576
Allocated PAGES: 4510
