
*** ChampSim Multicore Out-of-Order Simulator ***

Warmup Instructions: 50000000
Simulation Instructions: 200000000
Number of CPUs: 1
LLC sets: 2048
LLC ways: 16
Off-chip DRAM Size: 4096 MB Channels: 1 Width: 64-bit Data Rate: 6400 MT/s
CPU 0 runs traces/spec2k17/srv_20.champsimtrace.xz
.xz
BTB has LRU replacement policy
ITLB has LRU replacement policy
DTLB has LRU replacement policy
STLB has LRU replacement policy
L1I has LRU replacement policy
L1D has LRU replacement policy
Initialize SRRIP state for L2C
Initialize DRRIP state for LLC
Offsets elements: -63 -62 -61 -60 -59 -58 -57 -56 -55 -54 -53 -52 -51 -50 -49 -48 -47 -46 -45 -44 -43 -42 -41 -40 -39 -38 -37 -36 -35 -34 -33 -32 -31 -30 -29 -28 -27 -26 -25 -24 -23 -22 -21 -20 -19 -18 -17 -16 -15 -14 -13 -12 -11 -10 -9 -8 -7 -6 -5 -4 -3 -2 -1 1 2 3 4 5 6 7 8 9 10 11 12 13 14 15 16 17 18 19 20 21 22 23 24 25 26 27 28 29 30 31 32 33 34 35 36 37 38 39 40 41 42 43 44 45 46 47 48 49 50 51 52 53 54 55 56 57 58 59 60 61 62 63 
Potential of Offsets elements: 
rewards of Offsets elements: 0 0 42 1 50 38 1 3 35 2 0 0 0 41 100 2 42 50 0 0 0 5 21 29 2 2 16 22 164 27 0 162 14 18 65 28 5 59 23 78 5 16 45 83 58 2 263 269 344 323 5567 1608 371 180 385 124 153 472 591 547 249 963 1918 1233 575 758 478 272 239 687 104 495 69 161 148 456 50 168 228 100 70 0 55 32 0 4 3 2 44 9 32 15 262 254 255 77 48 0 27 17 2 4 0 34 234 6 19 20 29 0 0 16 2 47 1 2 0 0 47 0 71 0 42 594 0 0 
Printing Sanity1
Heartbeat CPU 0 instructions: 10000001 cycles: 2847702 heartbeat IPC: 3.5116 cumulative IPC: 3.5116 (Simulation time: 0 hr 0 min 37 sec) 
Heartbeat CPU 0 instructions: 20000003 cycles: 5686410 heartbeat IPC: 3.52273 cumulative IPC: 3.51716 (Simulation time: 0 hr 1 min 13 sec) 
Heartbeat CPU 0 instructions: 30000003 cycles: 8527698 heartbeat IPC: 3.51953 cumulative IPC: 3.51795 (Simulation time: 0 hr 1 min 49 sec) 
*** Reached end of trace for Core: 0 Repeating trace: traces/spec2k17/srv_20.champsimtrace.xz
Heartbeat CPU 0 instructions: 40000000 cycles: 11368676 heartbeat IPC: 3.51991 cumulative IPC: 3.51844 (Simulation time: 0 hr 2 min 25 sec) 
Heartbeat CPU 0 instructions: 50000003 cycles: 14206806 heartbeat IPC: 3.52345 cumulative IPC: 3.51944 (Simulation time: 0 hr 3 min 1 sec) 

Warmup complete CPU 0 instructions: 50000003 cycles: 14206806 (Simulation time: 0 hr 3 min 1 sec) 

Heartbeat CPU 0 instructions: 60000003 cycles: 46940326 heartbeat IPC: 0.305497 cumulative IPC: 0.305497 (Simulation time: 0 hr 3 min 53 sec) 
*** Reached end of trace for Core: 0 Repeating trace: traces/spec2k17/srv_20.champsimtrace.xz
Heartbeat CPU 0 instructions: 70000003 cycles: 79628703 heartbeat IPC: 0.305919 cumulative IPC: 0.305708 (Simulation time: 0 hr 4 min 33 sec) 
Heartbeat CPU 0 instructions: 80000000 cycles: 112172293 heartbeat IPC: 0.30728 cumulative IPC: 0.30623 (Simulation time: 0 hr 5 min 12 sec) 
Heartbeat CPU 0 instructions: 90000001 cycles: 144778618 heartbeat IPC: 0.306689 cumulative IPC: 0.306345 (Simulation time: 0 hr 5 min 53 sec) 
*** Reached end of trace for Core: 0 Repeating trace: traces/spec2k17/srv_20.champsimtrace.xz
Heartbeat CPU 0 instructions: 100000001 cycles: 177432313 heartbeat IPC: 0.306244 cumulative IPC: 0.306325 (Simulation time: 0 hr 6 min 33 sec) 
Heartbeat CPU 0 instructions: 110000000 cycles: 210027315 heartbeat IPC: 0.306795 cumulative IPC: 0.306403 (Simulation time: 0 hr 7 min 13 sec) 
Heartbeat CPU 0 instructions: 120000000 cycles: 242589608 heartbeat IPC: 0.307104 cumulative IPC: 0.306503 (Simulation time: 0 hr 8 min 12 sec) 
*** Reached end of trace for Core: 0 Repeating trace: traces/spec2k17/srv_20.champsimtrace.xz
Heartbeat CPU 0 instructions: 130000000 cycles: 275215607 heartbeat IPC: 0.306504 cumulative IPC: 0.306503 (Simulation time: 0 hr 8 min 56 sec) 
Heartbeat CPU 0 instructions: 140000000 cycles: 307827776 heartbeat IPC: 0.306634 cumulative IPC: 0.306518 (Simulation time: 0 hr 9 min 37 sec) 
Heartbeat CPU 0 instructions: 150000000 cycles: 340384647 heartbeat IPC: 0.307155 cumulative IPC: 0.306581 (Simulation time: 0 hr 10 min 19 sec) 
*** Reached end of trace for Core: 0 Repeating trace: traces/spec2k17/srv_20.champsimtrace.xz
Heartbeat CPU 0 instructions: 160000003 cycles: 372973404 heartbeat IPC: 0.306854 cumulative IPC: 0.306606 (Simulation time: 0 hr 10 min 59 sec) 
Heartbeat CPU 0 instructions: 170000001 cycles: 405663011 heartbeat IPC: 0.305908 cumulative IPC: 0.306548 (Simulation time: 0 hr 11 min 40 sec) 
Heartbeat CPU 0 instructions: 180000001 cycles: 438089357 heartbeat IPC: 0.308391 cumulative IPC: 0.306689 (Simulation time: 0 hr 12 min 20 sec) 
*** Reached end of trace for Core: 0 Repeating trace: traces/spec2k17/srv_20.champsimtrace.xz
Heartbeat CPU 0 instructions: 190000002 cycles: 470667394 heartbeat IPC: 0.306955 cumulative IPC: 0.306708 (Simulation time: 0 hr 13 min 0 sec) 
Heartbeat CPU 0 instructions: 200000000 cycles: 503353903 heartbeat IPC: 0.305937 cumulative IPC: 0.306656 (Simulation time: 0 hr 13 min 40 sec) 
Heartbeat CPU 0 instructions: 210000002 cycles: 535766382 heartbeat IPC: 0.308523 cumulative IPC: 0.306772 (Simulation time: 0 hr 14 min 20 sec) 
*** Reached end of trace for Core: 0 Repeating trace: traces/spec2k17/srv_20.champsimtrace.xz
Heartbeat CPU 0 instructions: 220000000 cycles: 568356093 heartbeat IPC: 0.306845 cumulative IPC: 0.306777 (Simulation time: 0 hr 15 min 1 sec) 
Heartbeat CPU 0 instructions: 230000000 cycles: 601019686 heartbeat IPC: 0.306151 cumulative IPC: 0.306742 (Simulation time: 0 hr 15 min 41 sec) 
Heartbeat CPU 0 instructions: 240000000 cycles: 633533338 heartbeat IPC: 0.307563 cumulative IPC: 0.306785 (Simulation time: 0 hr 16 min 22 sec) 
*** Reached end of trace for Core: 0 Repeating trace: traces/spec2k17/srv_20.champsimtrace.xz
Heartbeat CPU 0 instructions: 250000002 cycles: 666166348 heartbeat IPC: 0.306438 cumulative IPC: 0.306767 (Simulation time: 0 hr 17 min 3 sec) 
Finished CPU 0 instructions: 200000003 cycles: 651959543 cumulative IPC: 0.306767 (Simulation time: 0 hr 17 min 3 sec) 

ChampSim completed all CPUs

Region of Interest Statistics

CPU 0 cumulative IPC: 0.306767 instructions: 200000003 cycles: 651959543
ITLB TOTAL     ACCESS:   34730162  HIT:   32696477  MISS:    2033685  HIT %:    94.1443  MISS %:    5.85567   MPKI: 10.1684
ITLB LOAD TRANSLATION ACCESS:   34730162  HIT:   32696477  MISS:    2033685  HIT %:    94.1443  MISS %:    5.85567   MPKI: 10.1684
ITLB PREFETCH  REQUESTED:          0  ISSUED:          0  USEFUL:          0  USELESS:          0
ITLB USEFUL LOAD PREFETCHES:          0 PREFETCH ISSUED TO LOWER LEVEL:          0  ACCURACY: -nan
ITLB TIMELY PREFETCHES:          0 LATE PREFETCHES: 0 DROPPED PREFETCHES: 0
ITLB PREFETCHES SAME FILL-ORIGIN LEVEL: 0 DIFFERENT FILL-ORIGIN LEVEL: 0
ITLB AVERAGE MISS LATENCY: 9.04351 cycles
ITLB RQ	ACCESS:   40959387	FORWARD:          0	MERGED:    5745092	TO_CACHE:   35214295

DTLB TOTAL     ACCESS:   46475434  HIT:   44633639  MISS:    1841795  HIT %:    96.0371  MISS %:    3.96294   MPKI: 9.20897
DTLB LOAD TRANSLATION ACCESS:   46475434  HIT:   44633639  MISS:    1841795  HIT %:    96.0371  MISS %:    3.96294   MPKI: 9.20897
DTLB PREFETCH  REQUESTED:          0  ISSUED:          0  USEFUL:          0  USELESS:          0
DTLB USEFUL LOAD PREFETCHES:          0 PREFETCH ISSUED TO LOWER LEVEL:          0  ACCURACY: -nan
DTLB TIMELY PREFETCHES:          0 LATE PREFETCHES: 0 DROPPED PREFETCHES: 0
DTLB PREFETCHES SAME FILL-ORIGIN LEVEL: 0 DIFFERENT FILL-ORIGIN LEVEL: 0
DTLB AVERAGE MISS LATENCY: 9.18212 cycles
DTLB RQ	ACCESS:   61133341	FORWARD:          0	MERGED:   14594388	TO_CACHE:   46538953

STLB TOTAL     ACCESS:   12051397  HIT:   12042734  MISS:       8663  HIT %:    99.9281  MISS %:  0.0718838   MPKI: 0.043315
STLB LOAD TRANSLATION ACCESS:    3875480  HIT:    3867132  MISS:       8348  HIT %:    99.7846  MISS %:   0.215406   MPKI: 0.04174
STLB TRANSLATION FROM L1D PREFETCHER ACCESS:    8175917  HIT:    8175602  MISS:        315  HIT %:    99.9961  MISS %: 0.00385278   MPKI: 0.001575
STLB PREFETCH  REQUESTED:          0  ISSUED:          0  USEFUL:        249  USELESS:         65
STLB USEFUL LOAD PREFETCHES:        249 PREFETCH ISSUED TO LOWER LEVEL:          0  ACCURACY: inf
STLB TIMELY PREFETCHES:        249 LATE PREFETCHES: 0 DROPPED PREFETCHES: 158250
STLB PREFETCHES SAME FILL-ORIGIN LEVEL: 0 DIFFERENT FILL-ORIGIN LEVEL: 0
STLB AVERAGE MISS LATENCY: 47.2445 cycles
STLB RQ	ACCESS:   21964732	FORWARD:          0	MERGED:    9751479	TO_CACHE:   12213253

STLB Hit, L1D data hit: 0
STLB Hit, L2C data hit: 0
STLB Hit, LLC data hit: 0
STLB Hit, LLC data miss: 0
STLB STLB hints to L2: 0
L1D TOTAL     ACCESS:   76963821  HIT:   71381148  MISS:    5582673  HIT %:    92.7464  MISS %:    7.25363   MPKI: 27.9134
L1D LOAD      ACCESS:   34190470  HIT:   31304626  MISS:    2885844  HIT %:    91.5595  MISS %:    8.44049   MPKI: 14.4292
L1D RFO       ACCESS:   25171562  HIT:   24141261  MISS:    1030301  HIT %:    95.9069  MISS %:    4.09312   MPKI: 5.1515
L1D PREFETCH  ACCESS:   17601789  HIT:   15935261  MISS:    1666528  HIT %:    90.5321  MISS %:    9.46795   MPKI: 8.33264
AGUS PREFETCH L1 MISS: 0
L1D PREFETCH  REQUESTED:   38201306  ISSUED:   38201112  USEFUL:     378456  USELESS:    1288088
L1D USEFUL LOAD PREFETCHES:     378456 PREFETCH ISSUED TO LOWER LEVEL:    1673044  ACCURACY: 22.6208
L1D TIMELY PREFETCHES:     378456 LATE PREFETCHES: 6446 DROPPED PREFETCHES: 255764
L1D PREFETCHES SAME FILL-ORIGIN LEVEL: 1673044 DIFFERENT FILL-ORIGIN LEVEL: 0
L1D AVERAGE MISS LATENCY: 399417 cycles
L1D RQ	ACCESS:   47506956	FORWARD:          0	MERGED:   12864837	TO_CACHE:   34343430
L1D WQ	ACCESS:   26961101	FORWARD:     312411	MERGED:     171190	TO_CACHE:   26789911
L1D PQ	ACCESS:   20111860	FORWARD:          0	MERGED:    2008886	TO_CACHE:   18089252

L1D UNIQUE REGIONS ACCESSED: 0
L1D REGIONS CONFLICTS: 0
L1D Cross Page Prefetch Requests: 905432
L1D Same Page Prefetch Requests: 23763390
L1D ROI Sum of L1D PQ occupancy: 239239141
L1D PREFETCHES PUSHED FROM L2C: 0
L1I TOTAL     ACCESS:   39413953  HIT:   28797446  MISS:   10616507  HIT %:    73.0641  MISS %:    26.9359   MPKI: 53.0825
L1I LOAD      ACCESS:   39413953  HIT:   28797446  MISS:   10616507  HIT %:    73.0641  MISS %:    26.9359   MPKI: 53.0825
L1I PREFETCH  REQUESTED:          0  ISSUED:          0  USEFUL:          0  USELESS:          0
L1I USEFUL LOAD PREFETCHES:          0 PREFETCH ISSUED TO LOWER LEVEL:          0  ACCURACY: -nan
L1I TIMELY PREFETCHES:          0 LATE PREFETCHES: 0 DROPPED PREFETCHES: 0
L1I PREFETCHES SAME FILL-ORIGIN LEVEL: 0 DIFFERENT FILL-ORIGIN LEVEL: 0
L1I AVERAGE MISS LATENCY: 17.6757 cycles
L1I RQ	ACCESS:   57982769	FORWARD:          0	MERGED:   17023382	TO_CACHE:   40959387

BTB TOTAL     ACCESS:   29994003  HIT:   17272559  MISS:   12721444  HIT %:    57.5867  MISS %:    42.4133   MPKI: 63.6072
BTB BRANCH_DIRECT_JUMP	ACCESS:    2025965  HIT:    1135056  MISS:     890909
BTB BRANCH_INDIRECT	ACCESS:   11876543  HIT:    7045667  MISS:    4830876
BTB BRANCH_CONDITIONAL	ACCESS:    7549910  HIT:    6212601  MISS:    1337309
BTB BRANCH_DIRECT_CALL	ACCESS:    3602863  HIT:    1507613  MISS:    2095250
BTB BRANCH_INDIRECT_CALL	ACCESS:     667964  HIT:     262432  MISS:     405532
BTB BRANCH_RETURN	ACCESS:    4270758  HIT:    1109190  MISS:    3161568
BTB BRANCH_OTHER ACCESS:          0  HIT:          0  MISS:          0

L2C TOTAL     ACCESS:   18574018  HIT:   16272187  MISS:    2301831  HIT %:    87.6073  MISS %:    12.3927   MPKI: 11.5092
L2C LOAD      ACCESS:   13495764  HIT:   11832132  MISS:    1663632  HIT %:    87.6729  MISS %:    12.3271   MPKI: 8.31816
L2C DATA LOAD MPKI: 1.97073
L2C INSTRUCTION LOAD MPKI: 6.34742
L2C RFO       ACCESS:    1030221  HIT:     797391  MISS:     232830  HIT %:       77.4  MISS %:       22.6   MPKI: 1.16415
L2C PREFETCH  ACCESS:    1673045  HIT:    1340821  MISS:     332224  HIT %:    80.1426  MISS %:    19.8574   MPKI: 1.66112
AGUS PREFETCH L1 MISS: 0
L2C DATA PREFETCH MPKI: 1.66112
L2C INSTRUCTION PREFETCH MPKI: 0
L2C WRITEBACK ACCESS:    2126921  HIT:    2065658  MISS:      61263  HIT %:    97.1196  MISS %:    2.88036   MPKI: 0.306315
L2C LOAD TRANSLATION ACCESS:       9246  HIT:       3002  MISS:       6244  HIT %:    32.4681  MISS %:    67.5319   MPKI: 0.03122
L2C TRANSLATION FROM L1D PREFETCHER ACCESS:     238821  HIT:     233183  MISS:       5638  HIT %:    97.6392  MISS %:    2.36076   MPKI: 0.02819
L2C PREFETCH  REQUESTED:          0  ISSUED:          0  USEFUL:      16347  USELESS:     321619
L2C USEFUL LOAD PREFETCHES:      16347 PREFETCH ISSUED TO LOWER LEVEL:     332223  ACCURACY: 4.92049
L2C TIMELY PREFETCHES:      16347 LATE PREFETCHES: 0 DROPPED PREFETCHES: 0
L2C PREFETCHES SAME FILL-ORIGIN LEVEL: 0 DIFFERENT FILL-ORIGIN LEVEL: 0
L2C AVERAGE MISS LATENCY: 31.0564 cycles
L2C RQ	ACCESS:   14774202	FORWARD:          0	MERGED:          0	TO_CACHE:   14774052
L2C WQ	ACCESS:    2126921	FORWARD:        150	MERGED:          0	TO_CACHE:    2126921
L2C PQ	ACCESS:    1673044	FORWARD:          0	MERGED:          0	TO_CACHE:    1673044

L2C Instructions Evicting Data 517959
L2C Translations Evicting Data 6837
L2C Data Evicting Data 468211
L2C Instructions Evicting Instructions 746630
L2C Translations Evicting Instructions 4991
L2C Data Evicting Instructions 484291
L2C Instructions Evicting Translations 4896
L2C Translations Evicting Translations 54
L2C Data Evicting Translations 6699
L2C Dense regions hint from L2: 0
PSCL5 TOTAL     ACCESS:     166913  HIT:     166913  MISS:          0  HIT %:        100  MISS %:          0   MPKI: 0
PSCL5 LOAD TRANSLATION ACCESS:       8348  HIT:       8348  MISS:          0  HIT %:        100  MISS %:          0   MPKI: 0
PSCL5 TRANSLATION FROM L1D PREFETCHER ACCESS:     158565  HIT:     158565  MISS:          0  HIT %:        100  MISS %:          0   MPKI: 0
PSCL5 PREFETCH  REQUESTED:          0  ISSUED:          0  USEFUL:          0  USELESS:          0
PSCL5 USEFUL LOAD PREFETCHES:          0 PREFETCH ISSUED TO LOWER LEVEL:          0  ACCURACY: -nan
PSCL5 TIMELY PREFETCHES:          0 LATE PREFETCHES: 0 DROPPED PREFETCHES: 0
PSCL5 PREFETCHES SAME FILL-ORIGIN LEVEL: 0 DIFFERENT FILL-ORIGIN LEVEL: 0

PSCL4 TOTAL     ACCESS:     147586  HIT:     147486  MISS:        100  HIT %:    99.9322  MISS %:  0.0677571   MPKI: 0.0005
PSCL4 LOAD TRANSLATION ACCESS:       7808  HIT:       7708  MISS:        100  HIT %:    98.7193  MISS %:    1.28074   MPKI: 0.0005
PSCL4 TRANSLATION FROM L1D PREFETCHER ACCESS:     139778  HIT:     139778  MISS:          0  HIT %:        100  MISS %:          0   MPKI: 0
PSCL4 PREFETCH  REQUESTED:          0  ISSUED:          0  USEFUL:          0  USELESS:          0
PSCL4 USEFUL LOAD PREFETCHES:          0 PREFETCH ISSUED TO LOWER LEVEL:          0  ACCURACY: -nan
PSCL4 TIMELY PREFETCHES:          0 LATE PREFETCHES: 0 DROPPED PREFETCHES: 0
PSCL4 PREFETCHES SAME FILL-ORIGIN LEVEL: 0 DIFFERENT FILL-ORIGIN LEVEL: 0

PSCL3 TOTAL     ACCESS:     161500  HIT:     161400  MISS:        100  HIT %:    99.9381  MISS %:  0.0619195   MPKI: 0.0005
PSCL3 LOAD TRANSLATION ACCESS:       8046  HIT:       7946  MISS:        100  HIT %:    98.7571  MISS %:    1.24285   MPKI: 0.0005
PSCL3 TRANSLATION FROM L1D PREFETCHER ACCESS:     153454  HIT:     153454  MISS:          0  HIT %:        100  MISS %:          0   MPKI: 0
PSCL3 PREFETCH  REQUESTED:          0  ISSUED:          0  USEFUL:          0  USELESS:          0
PSCL3 USEFUL LOAD PREFETCHES:          0 PREFETCH ISSUED TO LOWER LEVEL:          0  ACCURACY: -nan
PSCL3 TIMELY PREFETCHES:          0 LATE PREFETCHES: 0 DROPPED PREFETCHES: 0
PSCL3 PREFETCHES SAME FILL-ORIGIN LEVEL: 0 DIFFERENT FILL-ORIGIN LEVEL: 0

PSCL2 TOTAL     ACCESS:      96659  HIT:      95961  MISS:        698  HIT %:    99.2779  MISS %:   0.722126   MPKI: 0.00349
PSCL2 LOAD TRANSLATION ACCESS:       8348  HIT:       7650  MISS:        698  HIT %:    91.6387  MISS %:    8.36128   MPKI: 0.00349
PSCL2 TRANSLATION FROM L1D PREFETCHER ACCESS:      88311  HIT:      88311  MISS:          0  HIT %:        100  MISS %:          0   MPKI: 0
PSCL2 PREFETCH  REQUESTED:          0  ISSUED:          0  USEFUL:          0  USELESS:          0
PSCL2 USEFUL LOAD PREFETCHES:          0 PREFETCH ISSUED TO LOWER LEVEL:          0  ACCURACY: -nan
PSCL2 TIMELY PREFETCHES:          0 LATE PREFETCHES: 0 DROPPED PREFETCHES: 0
PSCL2 PREFETCHES SAME FILL-ORIGIN LEVEL: 0 DIFFERENT FILL-ORIGIN LEVEL: 0

LLC TOTAL     ACCESS:    2587643  HIT:    2558911  MISS:      28732  HIT %:    98.8896  MISS %:    1.11035   MPKI: 0.14366
LLC LOAD      ACCESS:    1663632  HIT:    1651005  MISS:      12627  HIT %:     99.241  MISS %:   0.759002   MPKI: 0.063135
LLC RFO       ACCESS:     232830  HIT:     220118  MISS:      12712  HIT %:    94.5402  MISS %:    5.45978   MPKI: 0.06356
LLC PREFETCH  ACCESS:     332224  HIT:     329190  MISS:       3034  HIT %:    99.0868  MISS %:   0.913239   MPKI: 0.01517
AGUS PREFETCH L1 MISS: 0
LLC WRITEBACK ACCESS:     347075  HIT:     346949  MISS:        126  HIT %:    99.9637  MISS %:  0.0363034   MPKI: 0.00063
LLC LOAD TRANSLATION ACCESS:       6244  HIT:       6021  MISS:        223  HIT %:    96.4286  MISS %:    3.57143   MPKI: 0.001115
LLC TRANSLATION FROM L1D PREFETCHER ACCESS:       5638  HIT:       5628  MISS:         10  HIT %:    99.8226  MISS %:   0.177368   MPKI: 5e-05
LLC PREFETCH  REQUESTED:          0  ISSUED:          0  USEFUL:        182  USELESS:       2723
LLC USEFUL LOAD PREFETCHES:        182 PREFETCH ISSUED TO LOWER LEVEL:       3034  ACCURACY: 5.99868
LLC TIMELY PREFETCHES:        182 LATE PREFETCHES: 0 DROPPED PREFETCHES: 0
LLC PREFETCHES SAME FILL-ORIGIN LEVEL: 0 DIFFERENT FILL-ORIGIN LEVEL: 0
LLC AVERAGE MISS LATENCY: 148.577 cycles
LLC RQ	ACCESS:    1908344	FORWARD:          0	MERGED:          0	TO_CACHE:    1908344
LLC WQ	ACCESS:     347075	FORWARD:          0	MERGED:          0	TO_CACHE:     347075
LLC PQ	ACCESS:     332223	FORWARD:          0	MERGED:          0	TO_CACHE:     332223

LLC Dense regions hint to LLC: 0

RAW hits: 1430979
Loads Generated: 48937935
Loads sent to L1D: 47506956
Stores Generated: 26961103
Stores sent to L1D: 26961101
Major fault: 0 Minor fault: 1949
Allocated PAGES: 1949
ucb ended
-----------------------------------------------------------------------------------------------------------------------------------------------------------------------------------------------------
Offsets elements: -63 -62 -61 -60 -59 -58 -57 -56 -55 -54 -53 -52 -51 -50 -49 -48 -47 -46 -45 -44 -43 -42 -41 -40 -39 -38 -37 -36 -35 -34 -33 -32 -31 -30 -29 -28 -27 -26 -25 -24 -23 -22 -21 -20 -19 -18 -17 -16 -15 -14 -13 -12 -11 -10 -9 -8 -7 -6 -5 -4 -3 -2 -1 1 2 3 4 5 6 7 8 9 10 11 12 13 14 15 16 17 18 19 20 21 22 23 24 25 26 27 28 29 30 31 32 33 34 35 36 37 38 39 40 41 42 43 44 45 46 47 48 49 50 51 52 53 54 55 56 57 58 59 60 61 62 63 
Potential of Offsets elements: 28.5364 28.5364 70.5364 29.5364 78.5364 66.5364 29.5364 31.5364 63.5364 30.5364 28.5364 28.5364 28.5364 69.5364 128.536 30.5364 70.5364 78.5364 28.5364 28.5364 28.5364 33.5364 49.5364 57.5364 30.5364 30.5364 44.5364 50.5364 192.536 55.5364 28.5364 190.536 42.5364 46.5364 93.5364 56.5364 33.5364 87.5364 51.5364 106.536 33.5364 44.5364 73.5364 111.536 86.5364 30.5364 291.536 297.536 372.536 351.536 1823.86 1636.54 399.536 208.536 413.536 152.536 181.536 500.536 619.536 575.536 277.536 991.536 1918.1 1261.54 603.536 786.536 506.536 300.536 267.536 715.536 132.536 523.536 97.5364 189.536 176.536 484.536 78.5364 196.536 256.536 128.536 98.5364 28.5364 83.5364 60.5364 28.5364 32.5364 31.5364 30.5364 72.5364 37.5364 60.5364 43.5364 290.536 282.536 283.536 105.536 76.5364 28.5364 55.5364 45.5364 30.5364 32.5364 28.5364 62.5364 262.536 34.5364 47.5364 48.5364 57.5364 28.5364 28.5364 44.5364 30.5364 75.5364 29.5364 30.5364 28.5364 28.5364 75.5364 28.5364 99.5364 28.5364 70.5364 622.536 28.5364 28.5364 
rewards of Offsets elements: 0 0 42 1 50 38 1 3 35 2 0 0 0 41 100 2 42 50 0 0 0 5 21 29 2 2 16 22 164 27 0 162 14 18 65 28 5 59 23 78 5 16 45 83 58 2 263 269 344 323 1822 1608 371 180 385 124 153 472 591 547 249 963 1918 1233 575 758 478 272 239 687 104 495 69 161 148 456 50 168 228 100 70 0 55 32 0 4 3 2 44 9 32 15 262 254 255 77 48 0 27 17 2 4 0 34 234 6 19 20 29 0 0 16 2 47 1 2 0 0 47 0 71 0 42 594 0 0 Printing Sanity2
offset_index value126
offset list size126
reward size126
potential size126
-----------------------------------------------------------------------------------------------------------------------------------------------------------------------------------------------------

DRAM Statistics
 CHANNEL 0
 RQ ROW_BUFFER_HIT:       7715  ROW_BUFFER_MISS:      20890
 DBUS_CONGESTED:         47
 WQ ROW_BUFFER_HIT:       2032  ROW_BUFFER_MISS:      11579  FULL:          0

 AVG_CONGESTED_CYCLE: 5
 All warmup complete: 2
Channel 0 Bank busy for read cycles: 0
Channel 0 Bank busy for write cycles: 0
Channel 0
Rank 0
0banks busy for read cycles: 648968257
0banks busy for write cycles: 4768
1banks busy for read cycles: 1178434
1banks busy for write cycles: 575695
2banks busy for read cycles: 351687
2banks busy for write cycles: 152292
3banks busy for read cycles: 185488
3banks busy for write cycles: 89062
4banks busy for read cycles: 102988
4banks busy for write cycles: 60112
5banks busy for read cycles: 58881
5banks busy for write cycles: 44734
6banks busy for read cycles: 34116
6banks busy for write cycles: 34221
7banks busy for read cycles: 14890
7banks busy for write cycles: 34406
8banks busy for read cycles: 8297
8banks busy for write cycles: 61216

CPU 0 Branch Prediction Accuracy: 99.8849% MPKI: 0.202245 Average ROB Occupancy at Mispredict: 31.8109
Branch types
NOT_BRANCH: 164866965 82.4335%
BRANCH_DIRECT_JUMP: 2025965 1.01298%
BRANCH_INDIRECT: 11876543 5.93827%
BRANCH_CONDITIONAL: 12688705 6.34435%
BRANCH_DIRECT_CALL: 3602863 1.80143%
BRANCH_INDIRECT_CALL: 667964 0.333982%
BRANCH_RETURN: 4270758 2.13538%
BRANCH_OTHER: 0 0%

DRAM PAGES: 1048576
Allocated PAGES: 1949
