
*** ChampSim Multicore Out-of-Order Simulator ***

Warmup Instructions: 50000000
Simulation Instructions: 200000000
Number of CPUs: 1
LLC sets: 2048
LLC ways: 16
Off-chip DRAM Size: 4096 MB Channels: 1 Width: 64-bit Data Rate: 6400 MT/s
CPU 0 runs traces/spec2k17/srv_27.champsimtrace.xz
.xz
BTB has LRU replacement policy
ITLB has LRU replacement policy
DTLB has LRU replacement policy
STLB has LRU replacement policy
L1I has LRU replacement policy
L1D has LRU replacement policy
Initialize SRRIP state for L2C
Initialize DRRIP state for LLC
Offsets elements: -63 -62 -61 -60 -59 -58 -57 -56 -55 -54 -53 -52 -51 -50 -49 -48 -47 -46 -45 -44 -43 -42 -41 -40 -39 -38 -37 -36 -35 -34 -33 -32 -31 -30 -29 -28 -27 -26 -25 -24 -23 -22 -21 -20 -19 -18 -17 -16 -15 -14 -13 -12 -11 -10 -9 -8 -7 -6 -5 -4 -3 -2 -1 1 2 3 4 5 6 7 8 9 10 11 12 13 14 15 16 17 18 19 20 21 22 23 24 25 26 27 28 29 30 31 32 33 34 35 36 37 38 39 40 41 42 43 44 45 46 47 48 49 50 51 52 53 54 55 56 57 58 59 60 61 62 63 
Potential of Offsets elements: 
rewards of Offsets elements: 51 18 0 0 0 0 0 18 0 0 0 16 38 17 36 0 66 3 1 0 85 0 12 0 12 0 12 152 54 73 290 174 142 232 272 278 379 333 376 271 331 343 298 314 369 343 394 369 332 399 326 354 367 365 419 491 531 449 504 631 759 683 1433 1340 734 820 738 492 308 508 397 383 337 267 302 257 280 234 199 218 199 177 144 131 157 115 100 87 87 190 31 8 179 91 15 60 84 42 147 10 0 12 0 5 0 28 0 1 3 57 0 18 15 60 0 0 0 12 26 0 0 0 0 0 0 52 
Printing Sanity1
Heartbeat CPU 0 instructions: 10000001 cycles: 2810901 heartbeat IPC: 3.55758 cumulative IPC: 3.55758 (Simulation time: 0 hr 0 min 32 sec) 
Heartbeat CPU 0 instructions: 20000002 cycles: 5619110 heartbeat IPC: 3.56099 cumulative IPC: 3.55928 (Simulation time: 0 hr 1 min 4 sec) 
Heartbeat CPU 0 instructions: 30000001 cycles: 8427847 heartbeat IPC: 3.56032 cumulative IPC: 3.55963 (Simulation time: 0 hr 1 min 38 sec) 
*** Reached end of trace for Core: 0 Repeating trace: traces/spec2k17/srv_27.champsimtrace.xz
Heartbeat CPU 0 instructions: 40000001 cycles: 11235549 heartbeat IPC: 3.56163 cumulative IPC: 3.56013 (Simulation time: 0 hr 2 min 10 sec) 
Heartbeat CPU 0 instructions: 50000000 cycles: 14042959 heartbeat IPC: 3.562 cumulative IPC: 3.5605 (Simulation time: 0 hr 2 min 41 sec) 

Warmup complete CPU 0 instructions: 50000004 cycles: 14042960 (Simulation time: 0 hr 2 min 41 sec) 

Heartbeat CPU 0 instructions: 60000002 cycles: 27888806 heartbeat IPC: 0.722238 cumulative IPC: 0.722238 (Simulation time: 0 hr 3 min 18 sec) 
*** Reached end of trace for Core: 0 Repeating trace: traces/spec2k17/srv_27.champsimtrace.xz
Heartbeat CPU 0 instructions: 70000003 cycles: 41850322 heartbeat IPC: 0.716255 cumulative IPC: 0.719234 (Simulation time: 0 hr 3 min 55 sec) 
Heartbeat CPU 0 instructions: 80000000 cycles: 55750632 heartbeat IPC: 0.719408 cumulative IPC: 0.719292 (Simulation time: 0 hr 4 min 31 sec) 
Heartbeat CPU 0 instructions: 90000000 cycles: 69511710 heartbeat IPC: 0.726687 cumulative IPC: 0.721127 (Simulation time: 0 hr 5 min 8 sec) 
*** Reached end of trace for Core: 0 Repeating trace: traces/spec2k17/srv_27.champsimtrace.xz
Heartbeat CPU 0 instructions: 100000000 cycles: 83485551 heartbeat IPC: 0.715623 cumulative IPC: 0.720019 (Simulation time: 0 hr 5 min 45 sec) 
Heartbeat CPU 0 instructions: 110000000 cycles: 97296450 heartbeat IPC: 0.724066 cumulative IPC: 0.72069 (Simulation time: 0 hr 6 min 21 sec) 
Heartbeat CPU 0 instructions: 120000000 cycles: 111080956 heartbeat IPC: 0.725452 cumulative IPC: 0.721367 (Simulation time: 0 hr 6 min 57 sec) 
*** Reached end of trace for Core: 0 Repeating trace: traces/spec2k17/srv_27.champsimtrace.xz
Heartbeat CPU 0 instructions: 130000001 cycles: 125087418 heartbeat IPC: 0.713956 cumulative IPC: 0.720432 (Simulation time: 0 hr 7 min 33 sec) 
Heartbeat CPU 0 instructions: 140000001 cycles: 138611317 heartbeat IPC: 0.739432 cumulative IPC: 0.722495 (Simulation time: 0 hr 8 min 9 sec) 
Heartbeat CPU 0 instructions: 150000001 cycles: 152626115 heartbeat IPC: 0.713531 cumulative IPC: 0.721588 (Simulation time: 0 hr 8 min 45 sec) 
*** Reached end of trace for Core: 0 Repeating trace: traces/spec2k17/srv_27.champsimtrace.xz
Heartbeat CPU 0 instructions: 160000002 cycles: 166567116 heartbeat IPC: 0.717309 cumulative IPC: 0.721197 (Simulation time: 0 hr 9 min 22 sec) 
Heartbeat CPU 0 instructions: 170000001 cycles: 180182328 heartbeat IPC: 0.734473 cumulative IPC: 0.722285 (Simulation time: 0 hr 9 min 58 sec) 
Heartbeat CPU 0 instructions: 180000001 cycles: 194161808 heartbeat IPC: 0.715334 cumulative IPC: 0.721746 (Simulation time: 0 hr 10 min 34 sec) 
Heartbeat CPU 0 instructions: 190000002 cycles: 208095481 heartbeat IPC: 0.717686 cumulative IPC: 0.721454 (Simulation time: 0 hr 11 min 10 sec) 
*** Reached end of trace for Core: 0 Repeating trace: traces/spec2k17/srv_27.champsimtrace.xz
Heartbeat CPU 0 instructions: 200000003 cycles: 221722464 heartbeat IPC: 0.733838 cumulative IPC: 0.722267 (Simulation time: 0 hr 11 min 47 sec) 
Heartbeat CPU 0 instructions: 210000002 cycles: 235674087 heartbeat IPC: 0.716762 cumulative IPC: 0.72192 (Simulation time: 0 hr 12 min 23 sec) 
Heartbeat CPU 0 instructions: 220000000 cycles: 249301841 heartbeat IPC: 0.733796 cumulative IPC: 0.722608 (Simulation time: 0 hr 13 min 0 sec) 
*** Reached end of trace for Core: 0 Repeating trace: traces/spec2k17/srv_27.champsimtrace.xz
Heartbeat CPU 0 instructions: 230000001 cycles: 263208795 heartbeat IPC: 0.719065 cumulative IPC: 0.72241 (Simulation time: 0 hr 13 min 36 sec) 
Heartbeat CPU 0 instructions: 240000003 cycles: 277026169 heartbeat IPC: 0.723727 cumulative IPC: 0.72248 (Simulation time: 0 hr 14 min 12 sec) 
Heartbeat CPU 0 instructions: 250000000 cycles: 290555121 heartbeat IPC: 0.739155 cumulative IPC: 0.723295 (Simulation time: 0 hr 14 min 48 sec) 
Finished CPU 0 instructions: 200000002 cycles: 276512181 cumulative IPC: 0.723295 (Simulation time: 0 hr 14 min 48 sec) 

ChampSim completed all CPUs

Region of Interest Statistics

CPU 0 cumulative IPC: 0.723295 instructions: 200000002 cycles: 276512181
ITLB TOTAL     ACCESS:   32432426  HIT:   32330132  MISS:     102294  HIT %:    99.6846  MISS %:   0.315407   MPKI: 0.51147
ITLB LOAD TRANSLATION ACCESS:   32432426  HIT:   32330132  MISS:     102294  HIT %:    99.6846  MISS %:   0.315407   MPKI: 0.51147
ITLB PREFETCH  REQUESTED:          0  ISSUED:          0  USEFUL:          0  USELESS:          0
ITLB USEFUL LOAD PREFETCHES:          0 PREFETCH ISSUED TO LOWER LEVEL:          0  ACCURACY: -nan
ITLB TIMELY PREFETCHES:          0 LATE PREFETCHES: 0 DROPPED PREFETCHES: 0
ITLB PREFETCHES SAME FILL-ORIGIN LEVEL: 0 DIFFERENT FILL-ORIGIN LEVEL: 0
ITLB AVERAGE MISS LATENCY: 10.6378 cycles
ITLB RQ	ACCESS:   38229491	FORWARD:          0	MERGED:    5763486	TO_CACHE:   32466005

DTLB TOTAL     ACCESS:   40741291  HIT:   38961411  MISS:    1779880  HIT %:    95.6313  MISS %:    4.36874   MPKI: 8.8994
DTLB LOAD TRANSLATION ACCESS:   40741291  HIT:   38961411  MISS:    1779880  HIT %:    95.6313  MISS %:    4.36874   MPKI: 8.8994
DTLB PREFETCH  REQUESTED:          0  ISSUED:          0  USEFUL:          0  USELESS:          0
DTLB USEFUL LOAD PREFETCHES:          0 PREFETCH ISSUED TO LOWER LEVEL:          0  ACCURACY: -nan
DTLB TIMELY PREFETCHES:          0 LATE PREFETCHES: 0 DROPPED PREFETCHES: 0
DTLB PREFETCHES SAME FILL-ORIGIN LEVEL: 0 DIFFERENT FILL-ORIGIN LEVEL: 0
DTLB AVERAGE MISS LATENCY: 10.6784 cycles
DTLB RQ	ACCESS:   54706646	FORWARD:          0	MERGED:   13765572	TO_CACHE:   40941074

STLB TOTAL     ACCESS:    9801266  HIT:    9715494  MISS:      85772  HIT %:    99.1249  MISS %:   0.875111   MPKI: 0.42886
STLB LOAD TRANSLATION ACCESS:    1882174  HIT:    1796846  MISS:      85328  HIT %:    95.4665  MISS %:    4.53348   MPKI: 0.42664
STLB TRANSLATION FROM L1D PREFETCHER ACCESS:    7919092  HIT:    7918648  MISS:        444  HIT %:    99.9944  MISS %:  0.0056067   MPKI: 0.00222
STLB PREFETCH  REQUESTED:          0  ISSUED:          0  USEFUL:        277  USELESS:        166
STLB USEFUL LOAD PREFETCHES:        277 PREFETCH ISSUED TO LOWER LEVEL:          0  ACCURACY: inf
STLB TIMELY PREFETCHES:        277 LATE PREFETCHES: 285 DROPPED PREFETCHES: 24860
STLB PREFETCHES SAME FILL-ORIGIN LEVEL: 0 DIFFERENT FILL-ORIGIN LEVEL: 0
STLB AVERAGE MISS LATENCY: 36.8752 cycles
STLB RQ	ACCESS:   12542210	FORWARD:          0	MERGED:    2715785	TO_CACHE:    9826425

STLB Hit, L1D data hit: 0
STLB Hit, L2C data hit: 0
STLB Hit, LLC data hit: 0
STLB Hit, LLC data miss: 0
STLB STLB hints to L2: 0
L1D TOTAL     ACCESS:   64628258  HIT:   64085546  MISS:     542712  HIT %:    99.1603  MISS %:   0.839744   MPKI: 2.71356
L1D LOAD      ACCESS:   30721819  HIT:   30378821  MISS:     342998  HIT %:    98.8835  MISS %:    1.11646   MPKI: 1.71499
L1D RFO       ACCESS:   23417976  HIT:   23308119  MISS:     109857  HIT %:    99.5309  MISS %:   0.469114   MPKI: 0.549285
L1D PREFETCH  ACCESS:   10488463  HIT:   10398606  MISS:      89857  HIT %:    99.1433  MISS %:   0.856722   MPKI: 0.449285
AGUS PREFETCH L1 MISS: 0
L1D PREFETCH  REQUESTED:   32311348  ISSUED:   32310862  USEFUL:      22149  USELESS:      67732
L1D USEFUL LOAD PREFETCHES:      22149 PREFETCH ISSUED TO LOWER LEVEL:     133812  ACCURACY: 16.5523
L1D TIMELY PREFETCHES:      22149 LATE PREFETCHES: 43569 DROPPED PREFETCHES: 41333
L1D PREFETCHES SAME FILL-ORIGIN LEVEL: 133812 DIFFERENT FILL-ORIGIN LEVEL: 0
L1D AVERAGE MISS LATENCY: 1.27124e+07 cycles
L1D RQ	ACCESS:   49491582	FORWARD:          0	MERGED:   18531391	TO_CACHE:   30838246
L1D WQ	ACCESS:   24124410	FORWARD:     177776	MERGED:     256010	TO_CACHE:   23868400
L1D PQ	ACCESS:   21650826	FORWARD:          0	MERGED:   10934959	TO_CACHE:   10660036

L1D UNIQUE REGIONS ACCESSED: 0
L1D REGIONS CONFLICTS: 0
L1D Cross Page Prefetch Requests: 592265
L1D Same Page Prefetch Requests: 27267316
L1D ROI Sum of L1D PQ occupancy: 135308169
L1D PREFETCHES PUSHED FROM L2C: 0
L1I TOTAL     ACCESS:   38045267  HIT:   37437806  MISS:     607461  HIT %:    98.4033  MISS %:    1.59668   MPKI: 3.0373
L1I LOAD      ACCESS:   38045267  HIT:   37437806  MISS:     607461  HIT %:    98.4033  MISS %:    1.59668   MPKI: 3.0373
L1I PREFETCH  REQUESTED:          0  ISSUED:          0  USEFUL:          0  USELESS:          0
L1I USEFUL LOAD PREFETCHES:          0 PREFETCH ISSUED TO LOWER LEVEL:          0  ACCURACY: -nan
L1I TIMELY PREFETCHES:          0 LATE PREFETCHES: 0 DROPPED PREFETCHES: 0
L1I PREFETCHES SAME FILL-ORIGIN LEVEL: 0 DIFFERENT FILL-ORIGIN LEVEL: 0
L1I AVERAGE MISS LATENCY: 16.5887 cycles
L1I RQ	ACCESS:   60441732	FORWARD:          0	MERGED:   22212241	TO_CACHE:   38229491

BTB TOTAL     ACCESS:   29347733  HIT:   27692669  MISS:    1655064  HIT %:    94.3605  MISS %:     5.6395   MPKI: 8.27532
BTB BRANCH_DIRECT_JUMP	ACCESS:    2290071  HIT:    2288950  MISS:       1121
BTB BRANCH_INDIRECT	ACCESS:   12563222  HIT:   12018859  MISS:     544363
BTB BRANCH_CONDITIONAL	ACCESS:    6926945  HIT:    6925297  MISS:       1648
BTB BRANCH_DIRECT_CALL	ACCESS:    3333321  HIT:    3330170  MISS:       3151
BTB BRANCH_INDIRECT_CALL	ACCESS:     450445  HIT:     256847  MISS:     193598
BTB BRANCH_RETURN	ACCESS:    3783729  HIT:    2872546  MISS:     911183
BTB BRANCH_OTHER ACCESS:          0  HIT:          0  MISS:          0

L2C TOTAL     ACCESS:    1467698  HIT:     940439  MISS:     527259  HIT %:    64.0758  MISS %:    35.9242   MPKI: 2.63629
L2C LOAD      ACCESS:     906769  HIT:     617046  MISS:     289723  HIT %:    68.0489  MISS %:    31.9511   MPKI: 1.44861
L2C DATA LOAD MPKI: 1.2742
L2C INSTRUCTION LOAD MPKI: 0.174415
L2C RFO       ACCESS:     109469  HIT:       7069  MISS:     102400  HIT %:    6.45754  MISS %:    93.5425   MPKI: 0.512
L2C PREFETCH  ACCESS:     133812  HIT:      29520  MISS:     104292  HIT %:    22.0608  MISS %:    77.9392   MPKI: 0.52146
AGUS PREFETCH L1 MISS: 0
L2C DATA PREFETCH MPKI: 0.52146
L2C INSTRUCTION PREFETCH MPKI: 0
L2C WRITEBACK ACCESS:     155205  HIT:     150335  MISS:       4870  HIT %:    96.8622  MISS %:    3.13779   MPKI: 0.02435
L2C LOAD TRANSLATION ACCESS:     122273  HIT:      96456  MISS:      25817  HIT %:    78.8858  MISS %:    21.1142   MPKI: 0.129085
L2C TRANSLATION FROM L1D PREFETCHER ACCESS:      40170  HIT:      40013  MISS:        157  HIT %:    99.6092  MISS %:   0.390839   MPKI: 0.000785
L2C PREFETCH  REQUESTED:          0  ISSUED:          0  USEFUL:       3257  USELESS:     101647
L2C USEFUL LOAD PREFETCHES:       3257 PREFETCH ISSUED TO LOWER LEVEL:     104292  ACCURACY: 3.12296
L2C TIMELY PREFETCHES:       3257 LATE PREFETCHES: 0 DROPPED PREFETCHES: 0
L2C PREFETCHES SAME FILL-ORIGIN LEVEL: 0 DIFFERENT FILL-ORIGIN LEVEL: 0
L2C AVERAGE MISS LATENCY: 111.166 cycles
L2C RQ	ACCESS:    1178804	FORWARD:          0	MERGED:          0	TO_CACHE:    1178681
L2C WQ	ACCESS:     155205	FORWARD:        123	MERGED:          0	TO_CACHE:     155205
L2C PQ	ACCESS:     133812	FORWARD:          0	MERGED:          0	TO_CACHE:     133812

L2C Instructions Evicting Data 31550
L2C Translations Evicting Data 22603
L2C Data Evicting Data 407704
L2C Instructions Evicting Instructions 1887
L2C Translations Evicting Instructions 1871
L2C Data Evicting Instructions 31358
L2C Instructions Evicting Translations 1446
L2C Translations Evicting Translations 1500
L2C Data Evicting Translations 22470
L2C Dense regions hint from L2: 0
PSCL5 TOTAL     ACCESS:     110632  HIT:     110632  MISS:          0  HIT %:        100  MISS %:          0   MPKI: 0
PSCL5 LOAD TRANSLATION ACCESS:      85043  HIT:      85043  MISS:          0  HIT %:        100  MISS %:          0   MPKI: 0
PSCL5 TRANSLATION FROM L1D PREFETCHER ACCESS:      25589  HIT:      25589  MISS:          0  HIT %:        100  MISS %:          0   MPKI: 0
PSCL5 PREFETCH  REQUESTED:          0  ISSUED:          0  USEFUL:          0  USELESS:          0
PSCL5 USEFUL LOAD PREFETCHES:          0 PREFETCH ISSUED TO LOWER LEVEL:          0  ACCURACY: -nan
PSCL5 TIMELY PREFETCHES:          0 LATE PREFETCHES: 0 DROPPED PREFETCHES: 0
PSCL5 PREFETCHES SAME FILL-ORIGIN LEVEL: 0 DIFFERENT FILL-ORIGIN LEVEL: 0

PSCL4 TOTAL     ACCESS:     108224  HIT:     108097  MISS:        127  HIT %:    99.8827  MISS %:   0.117349   MPKI: 0.000635
PSCL4 LOAD TRANSLATION ACCESS:      82878  HIT:      82751  MISS:        127  HIT %:    99.8468  MISS %:   0.153237   MPKI: 0.000635
PSCL4 TRANSLATION FROM L1D PREFETCHER ACCESS:      25346  HIT:      25346  MISS:          0  HIT %:        100  MISS %:          0   MPKI: 0
PSCL4 PREFETCH  REQUESTED:          0  ISSUED:          0  USEFUL:          0  USELESS:          0
PSCL4 USEFUL LOAD PREFETCHES:          0 PREFETCH ISSUED TO LOWER LEVEL:          0  ACCURACY: -nan
PSCL4 TIMELY PREFETCHES:          0 LATE PREFETCHES: 0 DROPPED PREFETCHES: 0
PSCL4 PREFETCHES SAME FILL-ORIGIN LEVEL: 0 DIFFERENT FILL-ORIGIN LEVEL: 0

PSCL3 TOTAL     ACCESS:     110193  HIT:     109834  MISS:        359  HIT %:    99.6742  MISS %:   0.325792   MPKI: 0.001795
PSCL3 LOAD TRANSLATION ACCESS:      84680  HIT:      84321  MISS:        359  HIT %:    99.5761  MISS %:   0.423949   MPKI: 0.001795
PSCL3 TRANSLATION FROM L1D PREFETCHER ACCESS:      25513  HIT:      25513  MISS:          0  HIT %:        100  MISS %:          0   MPKI: 0
PSCL3 PREFETCH  REQUESTED:          0  ISSUED:          0  USEFUL:          0  USELESS:          0
PSCL3 USEFUL LOAD PREFETCHES:          0 PREFETCH ISSUED TO LOWER LEVEL:          0  ACCURACY: -nan
PSCL3 TIMELY PREFETCHES:          0 LATE PREFETCHES: 0 DROPPED PREFETCHES: 0
PSCL3 PREFETCHES SAME FILL-ORIGIN LEVEL: 0 DIFFERENT FILL-ORIGIN LEVEL: 0

PSCL2 TOTAL     ACCESS:      96198  HIT:      59341  MISS:      36857  HIT %:    61.6863  MISS %:    38.3137   MPKI: 0.184285
PSCL2 LOAD TRANSLATION ACCESS:      85130  HIT:      48273  MISS:      36857  HIT %:     56.705  MISS %:     43.295   MPKI: 0.184285
PSCL2 TRANSLATION FROM L1D PREFETCHER ACCESS:      11068  HIT:      11068  MISS:          0  HIT %:        100  MISS %:          0   MPKI: 0
PSCL2 PREFETCH  REQUESTED:          0  ISSUED:          0  USEFUL:          0  USELESS:          0
PSCL2 USEFUL LOAD PREFETCHES:          0 PREFETCH ISSUED TO LOWER LEVEL:          0  ACCURACY: -nan
PSCL2 TIMELY PREFETCHES:          0 LATE PREFETCHES: 0 DROPPED PREFETCHES: 0
PSCL2 PREFETCHES SAME FILL-ORIGIN LEVEL: 0 DIFFERENT FILL-ORIGIN LEVEL: 0

LLC TOTAL     ACCESS:     661692  HIT:     382123  MISS:     279569  HIT %:    57.7494  MISS %:    42.2506   MPKI: 1.39784
LLC LOAD      ACCESS:     289723  HIT:     107003  MISS:     182720  HIT %:    36.9329  MISS %:    63.0671   MPKI: 0.9136
LLC RFO       ACCESS:     102400  HIT:      67651  MISS:      34749  HIT %:    66.0654  MISS %:    33.9346   MPKI: 0.173745
LLC PREFETCH  ACCESS:     104292  HIT:      47370  MISS:      56922  HIT %:    45.4205  MISS %:    54.5795   MPKI: 0.28461
AGUS PREFETCH L1 MISS: 0
LLC WRITEBACK ACCESS:     139303  HIT:     136059  MISS:       3244  HIT %:    97.6713  MISS %:    2.32874   MPKI: 0.01622
LLC LOAD TRANSLATION ACCESS:      25817  HIT:      23939  MISS:       1878  HIT %:    92.7257  MISS %:    7.27428   MPKI: 0.00939
LLC TRANSLATION FROM L1D PREFETCHER ACCESS:        157  HIT:        101  MISS:         56  HIT %:    64.3312  MISS %:    35.6688   MPKI: 0.00028
LLC PREFETCH  REQUESTED:          0  ISSUED:          0  USEFUL:       1591  USELESS:      57624
LLC USEFUL LOAD PREFETCHES:       1591 PREFETCH ISSUED TO LOWER LEVEL:      56922  ACCURACY: 2.79505
LLC TIMELY PREFETCHES:       1591 LATE PREFETCHES: 0 DROPPED PREFETCHES: 0
LLC PREFETCHES SAME FILL-ORIGIN LEVEL: 0 DIFFERENT FILL-ORIGIN LEVEL: 0
LLC AVERAGE MISS LATENCY: 153.595 cycles
LLC RQ	ACCESS:     418097	FORWARD:          0	MERGED:          0	TO_CACHE:     418097
LLC WQ	ACCESS:     139303	FORWARD:          0	MERGED:          0	TO_CACHE:     139303
LLC PQ	ACCESS:     104292	FORWARD:          0	MERGED:          0	TO_CACHE:     104292

LLC Dense regions hint to LLC: 0

RAW hits: 2371370
Loads Generated: 51862954
Loads sent to L1D: 49491582
Stores Generated: 24124397
Stores sent to L1D: 24124410
Major fault: 0 Minor fault: 6082
Allocated PAGES: 6082
ucb ended
-----------------------------------------------------------------------------------------------------------------------------------------------------------------------------------------------------
Offsets elements: -63 -62 -61 -60 -59 -58 -57 -56 -55 -54 -53 -52 -51 -50 -49 -48 -47 -46 -45 -44 -43 -42 -41 -40 -39 -38 -37 -36 -35 -34 -33 -32 -31 -30 -29 -28 -27 -26 -25 -24 -23 -22 -21 -20 -19 -18 -17 -16 -15 -14 -13 -12 -11 -10 -9 -8 -7 -6 -5 -4 -3 -2 -1 1 2 3 4 5 6 7 8 9 10 11 12 13 14 15 16 17 18 19 20 21 22 23 24 25 26 27 28 29 30 31 32 33 34 35 36 37 38 39 40 41 42 43 44 45 46 47 48 49 50 51 52 53 54 55 56 57 58 59 60 61 62 63 
Potential of Offsets elements: 79.4349 46.4349 28.4349 28.4349 28.4349 28.4349 28.4349 46.4349 28.4349 28.4349 28.4349 44.4349 66.4349 45.4349 64.4349 28.4349 94.4349 31.4349 29.4349 28.4349 113.435 28.4349 40.4349 28.4349 40.4349 28.4349 40.4349 180.435 82.4349 101.435 318.435 202.435 170.435 260.435 300.435 306.435 407.435 361.435 404.435 299.435 359.435 371.435 326.435 342.435 397.435 371.435 422.435 397.435 360.435 427.435 354.435 382.435 395.435 393.435 447.435 519.435 559.435 477.435 532.435 659.435 787.435 711.435 1001.62 1340.11 762.435 848.435 766.435 520.435 336.435 536.435 425.435 411.435 365.435 295.435 330.435 285.435 308.435 262.435 227.435 246.435 227.435 205.435 172.435 159.435 185.435 143.435 128.435 115.435 115.435 218.435 59.4349 36.4349 207.435 119.435 43.4349 88.4349 112.435 70.4349 175.435 38.4349 28.4349 40.4349 28.4349 33.4349 28.4349 56.4349 28.4349 29.4349 31.4349 85.4349 28.4349 46.4349 43.4349 88.4349 28.4349 28.4349 28.4349 40.4349 54.4349 28.4349 28.4349 28.4349 28.4349 28.4349 28.4349 80.4349 
rewards of Offsets elements: 51 18 0 0 0 0 0 18 0 0 0 16 38 17 36 0 66 3 1 0 85 0 12 0 12 0 12 152 54 73 290 174 142 232 272 278 379 333 376 271 331 343 298 314 369 343 394 369 332 399 326 354 367 365 419 491 531 449 504 631 759 683 1001 1340 734 820 738 492 308 508 397 383 337 267 302 257 280 234 199 218 199 177 144 131 157 115 100 87 87 190 31 8 179 91 15 60 84 42 147 10 0 12 0 5 0 28 0 1 3 57 0 18 15 60 0 0 0 12 26 0 0 0 0 0 0 52 Printing Sanity2
offset_index value126
offset list size126
reward size126
potential size126
-----------------------------------------------------------------------------------------------------------------------------------------------------------------------------------------------------

DRAM Statistics
 CHANNEL 0
 RQ ROW_BUFFER_HIT:      58737  ROW_BUFFER_MISS:     217553
 DBUS_CONGESTED:        200
 WQ ROW_BUFFER_HIT:       8811  ROW_BUFFER_MISS:      38383  FULL:          0

 AVG_CONGESTED_CYCLE: 5
 All warmup complete: 2
Channel 0 Bank busy for read cycles: 0
Channel 0 Bank busy for write cycles: 0
Channel 0
Rank 0
0banks busy for read cycles: 243866087
0banks busy for write cycles: 27403
1banks busy for read cycles: 22425990
1banks busy for write cycles: 4755933
2banks busy for read cycles: 2285211
2banks busy for write cycles: 683782
3banks busy for read cycles: 681567
3banks busy for write cycles: 192016
4banks busy for read cycles: 339102
4banks busy for write cycles: 97577
5banks busy for read cycles: 244859
5banks busy for write cycles: 82082
6banks busy for read cycles: 204057
6banks busy for write cycles: 73790
7banks busy for read cycles: 194458
7banks busy for write cycles: 79847
8banks busy for read cycles: 170486
8banks busy for write cycles: 107935

CPU 0 Branch Prediction Accuracy: 99.7868% MPKI: 0.389745 Average ROB Occupancy at Mispredict: 19.4971
Branch types
NOT_BRANCH: 163431817 81.7159%
BRANCH_DIRECT_JUMP: 2290071 1.14504%
BRANCH_INDIRECT: 12563222 6.28161%
BRANCH_CONDITIONAL: 14147089 7.07354%
BRANCH_DIRECT_CALL: 3333321 1.66666%
BRANCH_INDIRECT_CALL: 450445 0.225222%
BRANCH_RETURN: 3783729 1.89186%
BRANCH_OTHER: 0 0%

DRAM PAGES: 1048576
Allocated PAGES: 6082
