
*** ChampSim Multicore Out-of-Order Simulator ***

Warmup Instructions: 20000000
Simulation Instructions: 200000000
Number of CPUs: 1
LLC sets: 2048
LLC ways: 16
Off-chip DRAM Size: 4096 MB Channels: 1 Width: 64-bit Data Rate: 6400 MT/s
CPU 0 runs ../../traces/server_019.champsimtrace.xz
.xz
BTB has LRU replacement policy
ITLB has LRU replacement policy
DTLB has LRU replacement policy
STLB has LRU replacement policy
L1I has LRU replacement policy
L1D has LRU replacement policy
Initialize SRRIP state for L2C
Initialize DRRIP state for LLC
Offset table: -2 3 -1 -12482 33125 6 -12 -2200619129372 2200619129371 -20637 1 2 20619 -33102 12484 -12483 33107 -70261 70273 17 -72465877439 72465877439 -5 12 -6 -7 -2200619128562 2200619128568 -19 10 -2200619129371 -20634 20644 -3 5 -2200619128569 2200619128569 -8 2200619129361 4 -20627 -12750048 12750049 -24187 44804 -20617 20618 -2200619104806 2200619104811 -20620 20617 -44804 24187 10395151 -10395151 -2200619077825 2200619077826 -8970 -12703214 -37873 9 12741077 -1207998 1207998 -15197 -12725889 12750059 -8974 8973 -24198 24203 -288223780699134316 18880336 -1466015485225 1465995993479 19491745 -1466015485612 1466015485612 -19491746 500785 -1465996494242 -31 1466015485237 -53726868 34735793 -1465996494204 -332 1465995992583 -1465995990789 -1489 -301 1465961746116 -1465961746120 1794 1465996603501 -1465996605295 -1465996604963 -1425 3219 -1462 1465961746120 53739488 -19004387 19004388 -1466015487034 1465995994006 -1465995992581 -1797 1465961746123 34748416 -1465996492739 1465996479425 31746 -520380 612689 -1465996605253 1465996587447 288223780709547535 -2200629620939 2200619201324 23 -72119 72119 8 87281 9004 -9005 9005 -9004 -15193 15192 9006 -12750094 12741089 9003 -2200619101249 2200619101249 -12741094 12741094 -12741091 -2200606441088 2200606441083 12750100 -4444531 4459723 -2200619191180 2200619182179 -12741095 -2200606440826 2200619211290 -2200619104566 2200619060004 44564 -44564 10419340 -2200629472974 2200619077822 20379 -4 -16 18 -20399 20374 22 -20394 20381 -20377 20369 -12351 12346 -2200619104632 2200619104632 -2200619211508 2200619211503 -191505 -2200619019998 2200619191109 20382 14 -20393 20383 -20381 -20376 20373 -2200619104565 2200619104590 -20372 20377 16 -14 -70012 70012 -2200619128314 2200619128307 -2200619104564 -23978 2200614636860 4471306 10397320 -10397321 -12413 12419 -2200619065711 2200614594396 14868639 -14868639 4471316 62100 -62100 62131 -62130 -3744231586 3739760267 -3739760267 3744293709 -74536 12409 20378 -32787 -2200619071777 2200619084190 -32795 32812 -32812 32793 -2200619129138 2200619129143 -32814 32792 19 -2200619104581 2200619084191 20396 -2200619128327 -811 2200619108747 -12419 12416 -12417 12412 32795 -288223780699746992 288223780699746990 -9 -12414 32815 -32815 12421 20397 20376 -32813 -2200619095519 2200619128312 7 -2200619128277 2200619128277 -2200619128313 2200619128313 -20386 20384 -32793 12411 -12411 32810 -32811 32813 -18 -32794 -2200619095518 2200619128310 -20384 -2200619093666 2200619106075 -2200619108735 2200619129136 -32810 32814 74536 -74531 12407 -12407 74535 -12406 32807 -32790 12405 -12403 32794 -32792 32790 -32789 -11 -32786 32805 -20402 32791 -2200619128331 2200619128309 13 -20405 20404 -2200619211354 2200619211338 11 -32796 12403 32803 -32802 32808 -2200619129141 2200619129132 -2200619128287 2200619128291 -2200619129134 2200619108736 -32803 32806 -32805 32786 -70017 37231 -32804 32802 2200629588986 -10377637 -32797 -12333 -2200619092278 2200619092279 -8054 -171096 121478 37216 -12341 -20455 32796 12337 -2200619211497 2200619178700 -158694 158693 74533 -41748 -70018 70013 74508 -62108 -49594 37192 20456 -155254 134797 32787 -62109 -147200 134795 -62107 -12402 -2200619095667 162 2200619095504 -74509 12395 -2200619108067 2200619108070 -188387 -2200618919662 2200619095651 -37177 111685 -62115 -12394 -2200619178606 2200619178607 12397 -2200619107902 -2200619108048 2200619095652 -62116 -2200619108073 2200619108072 -2200619108069 -657 2200619108729 -135088 147058 -11971 11969 -11969 11970 -11970 -11973 11973 -2200619120019 2200619120021 -24369 11971 -36146 36144 50142 -50139 -2200619202974 2200619253113 50139 24369 74509 -50141 -11975 -37837 37837 11976 -11976 11974 62114 -49567 49569 11975 -61545 61541 -36144 2200619077802 11978 -2200619120700 2200619120700 -25443 37834 -147196 147195 20457 -20457 -37230 57686 10410434 -10410436 -37192 -97600 134793 -49812 37843 -147194 134791 49575 -147192 147191 -12401 12329 -20456 -158692 -2200619020006 2200619141477 57677 2200619092280 -2200619199154 2200619199154 -179156 158702 74534 -74534 -179158 -11778 11778 -2200619092200 2200619146252 -600561 600559 -2200619096329 2200619129121 -633349 600560 -37770 37771 -11776 11777 74532 -158700 179158 10387106 -10566258 158696 -158696 10566264 -10465864 10467775 -10506241 96766 -233239 158706 -158703 158703 -2200619185950 2200619185950 -74533 12396 -171101 100407 -10409478 -2200619095752 2200619095754 -158707 158707 -158702 -2200619027247 2200619185949 -20397 -233207 233207 -171086 -134519 10542082 -2200629503697 2200619096133 10409591 -10568298 10568298 -2200629505334 2200629503312 2200629475001 -10397197 10398035 -10398033 -70693 70695 10397081 -10568182 146929 24173 -24175 2200629472974 2200629473275 -11565845 1146204 -2200629503894 30920 2200619053634 -10419340 10419643 -2200629504297 100 614 2200629505302 -2200629505302 -10397199 10397198 -10409589 -158706 10568290 -10397195 -12389 -2200619095755 2200619095753 158708 158698 241 2200619107902 -171097 -2200619095514 2200619170046 -158693 121462 10447665 -10410434 10410433 -74508 -111740 111764 -24 10410438 -10410437 -37191 -97608 134799 -209310 147184 -12388 49558 10398058 -10398059 -147183 147183 -12384 -37221 37221 74510 -54053 -233202 121500 37193 -134789 159158 -109346 134787 49560 -147171 147170 -62127 -2200619058961 -48975 -82959 2200619178514 -111741 37233 -74511 20454 54052 -2200619170031 2200619107901 -2200619058969 3582431 2200615496915 -20375 20372 41754 -41743 -32760 24367 -61528 37162 32759 -20380 -12379 12382 10374808 -10374806 -32756 32773 -32773 -41759 -17 41752 -2200619170027 2200619128294 -20395 20375 -32754 32756 -32758 32766 -12311 -2200619092279 2200619092278 -179150 158694 -37215 69974 20 41735 -41735 -32775 32775 74511 -41731 41731 -20396 20400 -32776 32758 -32757 -32780 -2200619095420 2200619095403 -69986 -72465807171 72465877160 32757 -2200619084159 2200619104552 -32771 32772 32782 -2200619129114 2200619129103 -32778 12379 32781 -32781 32776 32761 -2200619126445 2200619056018 -2200619056018 2200619126443 -2200619129103 2200619129115 -2200619129091 2200619058678 70423 -20398 -20401 20401 -2200619128261 2200619128241 -2128153251929 2200619129111 -70413 70428 -15 50030 20406 -70435 70431 -70433 70430 -70430 50031 -50031 50027 -20400 -50030 70409 -70410 -2200619034130 2200619104538 50025 -50023 -77705 -3744103857 3744181561 -3744181712 3739760453 -3739760453 3754629092 -3754629092 3744231732 -50024 -2200619058111 -3739760389 3739760389 14868626 -3754629015 3744231657 20407 -21 -2200619129108 2200619129108 -20403 -2200619107899 -810 2200619129109 20405 20403 15 -12319 2200619191073 -20404 -10 -2200619128256 2200619107861 -2200619128257 2200619128263 -2200619128263 2200619107858 20395 20402 -20406 20398 2200619128257 -69999 -2200619058265 2200619128265 -2200619108704 2200619129107 -2200619128300 2200619128299 -20388 20386 -20385 20393 -12791735 12791737 -13 -12317 -2200619199153 2200619211469 -2200619128258 2200619128258 2200619129102 20385 -58204 37822 -37822 56861 59570 -62622 62623 -78610 -37820 -37821 37823 -49612 -10398050 10397196 -10397198 -2200619108722 2200619108725 10397190 -10397190 10397073 -10397076 -24170 10421350 -10397179 10395169 24172 -24172 24174 -24174 24175 -12410 32819 -2200619129132 2200619129131 -37226 -72465807161 72465856799 -2200619128334 2200619128328 -2200619129131 -2200619128329 2200619128329 -12770473 12750086 2200619104571 2200619077821 -9002 -12703101 -37994 12741085 -1207966 1192801 15165 -12750099 -9006 -19493026 -1465995992205 1465995992199 502055 -1465996494641 1465995992585 -1465995992178 1465996494233 18990970 -19493021 502056 18990973 -1466015485615 1466015485615 -1466015485613 1466015485616 -18873476 18873477 -1466015485616 1465996612139 -163679 -1465996448443 1465996453572 129867 345 28337 -4961 18878437 -19032024 -5129 -36338 -1465996412102 1465996583797 21458 288223780709529729 -10419615 -2200619201330 2200619201330 86955 9333 -9334 -2200619065735 -33466 33466 -10092 10092 2200619075064 -24192 -2200619084339 -10093 2200619085155 -2200619075063 2200619075065 -24191 24192 -24159 24159 -9341 9338 -9337 9336 -9336 9337 -9338 9340 -30557 21555 -2200619182175 2200619182178 -12741097 12770467 -12770467 -2200606440827 2200606440827 12750094 -25 -70005 70028 -20374 -30553 30557 -30535 21563 -2200619182210 2200606441121 -2200606440867 2200619211534 -20613 -12750054 12770668 -23 25 -20614 -2200619084193 2200619084192 -49634 49639 30533 -31125 21799 -2200619181854 2200619191175 -12697210 -2200606493711 2200619153890 37025 -31121 31125 -2200619084199 2200619047186 37036 -49637 19068 21552 -2200619182162 2200606441061 12750114 -12750114 -2200606440807 2200619211174 -2200619104445 2200619104470 -20254 -49639 49634 -30569 -540 31108 -9248 -2200619181930 2200619160068 31109 -12697164 12666479 -2200619160239 2200619154190 -28 6051 -2200619053514 2200619034560 40467 9165 -2200619191175 2200606440871 -2200606440617 2200619203886 -43645 30683 18872 21472 -2200619181883 2200619191179 -9293 9289 -30763 30765 -12697252 12666137 -2200619159807 2200619153650 6159 -2200619053082 40395 -2200619181938 -12697150 12660479 -2200619154250 2200619154251 -2200619047549 2200619047521 -12984 12969 5559 31117 -30617 21536 -2200619182098 -12750194 -2200606440727 2200619204546 -13626 19020 30617 -30723 21500 -2200619181954 2200606494045 -2200606493791 2200619154370 28 36550 -36533 5806 30725 -30509 -2200619053687 40699 8933 2200606441161 -2200606440907 2200619211774 -2200619105047 2200619105070 -51376 51357 -20846 49637 -30575 21549 9024 -9021 -2200619182154 2200606441051 12750128 -510 -2200619159837 2200619211115 -51275 -2200619053112 40295 -2200619181838 2200606493975 12697200 -12697200 -2200606493721 2200619153950 -2200619047240 2200619047244 -12661 18552 31087 21888 -2200619181946 2200606494035 12697140 -12697140 12660529 -2200619154310 2200619154311 36610 -36593 36613 18516 31121 -30651 21524 -2200619182050 2200606440921 -2200606440667 2200619204186 -13266 13283 -43913 30653 -30545 -2200619053651 40651 8981 2200606441101 -2200606440847 2200619211414 -2200619104687 2200619104710 -70125 49633 -156 30700 -9192 -2200619181986 2200606494085 12666391 30701 -31035 -2200619159889 2200619153557 6331 -2200619053164 40327 -2200619181870 -12697230 -2200606493691 2200619153770 -2200619047060 2200619047066 18604 31035 -30695 21510 -2200619181994 2200606440851 -2200606440597 2200619203766 -12845 -12750324 12750328 12842 12844 -43535 30695 -2200619084197 19008 21532 -2200619182082 2200606440961 12750214 -12750214 -2200606440707 2200619204426 -2200619097699 2200619097722 -44148 44129 -63137 40300 -30629 30631 -30589 21546 -2200619182138 2200606441031 12750144 -2200619190921 2200619210994 -20074 -9332 9339 -30587 30592 -9048 -2200619182130 2200606441021 -2200606440767 2200619210934 21 -50603 -2200619053604 -30601 21542 -2200619182122 2200606441011 12750164 -12750164 -2200606440757 2200619204726 -2200619097997 2200619098022 -13806 -30599 96 30501 -8928 -2200619182250 2200606441171 12770917 -2200619211834 2200619211835 -51413 21166 19134 -120 21534 -2200619182090 2200606440971 12750204 -12750204 12763769 -2200619204486 2200619204487 -2200619097782 2200619097776 -63205 -9333 -30623 -54 30675 -9160 -2200619182018 2200606440881 12719619 21340 -2200619181586 2200619203947 -43699 30677 -30611 21537 -2200619182106 2200606440991 12750184 -12750184 -2200606440737 2200619204606 24 -2200619097877 2200619097902 -63325 19026 21274 -21274 30613 -30513 21570 -2200619182234 2200606441151 12719511 21178 2200619211714 -51305 30515 18930 21506 -2200619181978 2200606494075 12697100 -12697100 -2200606493821 2200619154550 -2200619047846 2200619047840 -13269 21370 -21370 30707 -30659 30657 -9136 -2200619182042 2200606440911 12719607 21322 2200619204127 -43861 30659 -30605 21539 -2200619182114 2200606441001 12750174 -12750174 12763919 -2200619204666 2200619204667 -2200619097937 2200619097962 -63400 63385 -44347 21268 -21268 30605 -30637 21529 -2200619182071 2200619182074 9101 -30633 21298 -12740889 12719591 -2200619160288 2200619204366 -44077 30635 -30643 21528 -2200619182066 2200606440941 12750234 -12750234 -2200606440687 2200619204312 -2200619097602 2200619097600 -63019 18996 21304 -21304 30641 -30523 21568 -2200619182226 2200606441141 12770767 -2200619211654 2200606440887 12750034 -9335 9334 20730 -51251 30521 19056 21548 9029 2200606441041 -2200606440787 2200619211054 -2200619104348 2200619104327 -50717 -19056 -21244 30581 -30649 21526 -2200619182058 2200606440931 12750244 -12750244 12763569 -2200619204246 2200619204247 -13326 -2200619084194 18990 30647 -30711 21504 -2200619181970 2200606494065 -2200606493811 2200619154490 5721 -2200619053484 2200619074860 18918 21502 -2200619181962 2200606494055 12697120 -12697120 -2200606493801 2200619154430 36490 -30719 -460 31178 -9312 -2200619181866 2200606493955 -2200606493701 2200619153830 5915 -2200619053018 -30541 21562 -2200619182202 2200606441111 12750064 -12750064 12770617 -2200619211474 2200619211475 -2200619104745 2200619104770 -20554 19098 30539 -30663 21520 -2200619182034 2200606440901 -2200606440647 2200619204066 -43807 21328 18722 21614 -2200619181878 2200606493935 12697240 -12697240 -2200606493681 2200619153710 -2200619047004 2200619047000 -12421 12429 37210 -30915 -182 31095 -9264 -2200619181914 2200606493995 12666085 21760 2200619154076 5757 31097 19086 21558 -2200619182186 2200606441091 12750084 2200619211354 -2200619104625 2200619104650 -70065 70088 -50981 21214 -21214 30551 -30529 30526 -8960 -2200619182218 2200606441131 12719519 21190 2200619211594 -51197 30527 -30691 21512 -2200619182002 2200606440861 12750314 -12750314 -2200606440607 2200619203826 -2200619097122 2200619097116 -43591 -18948 -21352 30689 -31093 31090 -9272 -2200619181906 2200606493985 12666101 21754 -27576 -2200619154010 2200619154011 5823 31091 19074 21554 -2200619182170 2200606441071 12750104 -12750104 -2200606440817 2200619211234 -2200619104530 2200619104524 -69947 21226 -30671 21517 9152 -9149 -21520 -2200619160506 2200606440891 12719615 21334 2200619204006 -43753 30671 -31103 21845 -2200619181922 2200606494005 12697170 -12697170 12660379 -2200619154130 2200619154131 -2200619047426 2200619047420 -12843 18534 21766 9335 -21359 21358 9343 -24202 24202 18880338 -19073492 36339 -125956 125950 -125950 46073 -5280 -1465996363276 1465996311276 288223780709823698 -288223780699708404 288223780699708404 -288223780699127920 17806 288221580079908789 2200619201348 87187 9100 -24197 15097 9102 -9101 -12741112 -2200606351037 2200606389298 12711951 -9100 -12741109 11533239 1207870 -2200619182083 2200619191182 12726022 15096 -2200619182080 2200619191180 -4468727 4459630 9098 -12750218 -2200606440706 2200606440706 12763716 -2200619097698 2200619097701 -37697 37696 -20 24189 10395152 -10381627 -63485 49958 2200619027867 49959 41004 -41026 -49959 49961 41027 -16011 -25094 25095 -25103 25105 -75057 90988 -41030 43530 -43550 13531 30049 -43558 13533 -2200619122276 2200619108745 13523 -63480 58001 -58001 25766 -25767 63463 -63461 -2200619034237 2200619125225 -90989 63482 -13506 13520 -37715 -2200619097703 2200619097700 -13507 10395149 -10395147 -2200619077827 2200619068730 -12702852 -38267 12741109 -1207870 24170 -19174308 -1465996311306 1466015485613 -19478628 304320 409 1465996006598 -1465996006606 -353 1465996612113 -300832 -304320 -1465996310970 -125095 -1465996480200 -3219 1465996481625 125095 1465996481221 19004386 -1466015485310 -292 -1429 1757 1462 1465996309508 -1465996309505 1465996603498 1465996479868 19005406 -1466015487001 1465996482617 -1465996514393 1465996482647 124073 1465996479895 19005407 -1466015487032 1465996312727 -1465996311279 1465996006959 -1465996311006 328 1465996604963 -1465996606690 1727 1465996480889 -1465996482646 19004384 -18880311 18880310 -19004291 -1465996480982 1466015483812 -1466015485301 1465961745815 -1465961747545 1422 363 1465996006613 19478626 -19174305 -304321 -1465996006685 1465996606690 -1465996606720 30 -30 1465996482648 -1465996480891 1466015485274 -19004385 124074 -1466015485273 1465996481349 -1465996479555 1466015485301 -1466015485601 1465996480196 -1465996312726 1465996008406 -1465996006959 1465996006984 -1465996006613 -1753 1753 1465996480907 -18880309 -1466015485272 -1794 1465996482033 -1465996480239 -1466015485600 1465996006976 -34523006 34523006 -1465996008402 1465996008402 19478500 -1466015485311 -1727 -1466015487031 -1465996481221 1465996481284 19004323 -1466015483812 308 63 1465996310934 -34303036 -1465962009690 19478627 -19478626 -1465996311305 -300833 1465996497796 114343 -1465996612119 1465996583423 -34824696 -1465961758746 1465961758746 -1465961761469 3094 1465996604928 -114857 93131 -1465996583320 -219 1465996579358 4100 -34824728 34846553 -34846553 34820626 -34820625 34731696 88931 -88931 -1465996490422 233 1465996583190 -99490 77763 -4200 -1465996490189 -233 -85823 -34738862 34729649 18997218 -18906236 18906236 18880312 -53726865 34824826 -272268 268068 -1465996579367 371 37 -399 1465996497608 -1465996497206 1465996310904 -1465996311271 362 -397 382 -410 1465996311307 -1465996310928 -378 1465996612138 -117600 -1465996494140 -381 1465996583439 23376 4962 18873470 -19174303 -1465996311270 1465996311269 186491 -34464012 -1465962033785 -34578354 -541360 -1465961492425 1466015485609 -18873470 18873469 -19174302 19174303 -18987812 18987812 -1466015485609 -300834 19174302 -18980798 -14359 14358 2021 -16381 -1465996490195 1465996506577 -1465996506796 1465996506796 -16382 18995157 -36883346 36883347 -18978777 -1465996506530 -2921 2629 1465996605291 -1465996480890 19004380 -19004286 123981 18880306 -1466015485268 1466015485296 -53739481 1430 1465996506821 18978775 -18980797 -14360 1465961758504 -1465961758723 1465961758723 34731692 -17888188 17888189 -1465996490149 92 1465996480890 19004379 -18880304 18880304 53739480 -18995156 -1465996491870 1465978603681 36883345 -1466015485353 1466015485352 -18995157 -1465996490194 -53451821 -1465962033784 1466015485606 -1466015485198 1465962033376 34471024 16382 -1465996506577 1465996490194 -16843493 34748063 -34748073 -1465961758734 1465996506807 34748073 34748074 -34748074 53726849 -16380 -1465996504809 1465996490455 121684 18873468 -1466015485606 398 1465996310906 193504 -1465996504808 -1465996611730 -409 -18873468 -1465996612131 404 -412 183308 -1465996494614 377 -78 -1465996482616 1466015486996 -18880305 -1466015487026 1466015487025 -19004378 1465996481314 -1465996479520 -18991065 -34748416 53739482 -1466015487027 1466015487027 -18996155 -1032 -177112 -1465996311303 1465996494606 -6196 -177107 19174294 1466015485608 -1465996612139 1466015485610 -18873469 -1465996612121 4961 -4962 18878432 -1466015485210 1465996310924 35 375 1465996310894 386 -386 1465996494549 -1465996494163 1466015485222 -19174304 1465996311268 193503 395 -395 -377 -1465996611737 1465996494137 -1465996494539 1466015485607 400 -400 -1466015485227 1465996611754 18873472 1466015485611 -1466015485205 1466015485211 1465996494542 18991070 -18873473 186490 -34739049 53726864 -1466015485275 1466015485303 -53739487 -1465961745815 1465996606720 1465961745788 332 -1757 -1466015483813 1466015483810 -19174306 -34565182 34751673 15175 -31746 25604 18978781 -1466015485607 -27 1489 -1790 -1465996603501 1465996479869 -1465996480201 1465996481626 -1465996478404 1465996479424 1425 1465996309507 168899 -168900 186492 18987815 -18972640 -31745 -34447442 53451828 -1466015485614 380 1466015485233 -1465996311304 1465996363304 -356320 19478631 -19037155 -79876 -5276 -372324 -1465995990957 1465996605246 -593170 575364 -2200629620940 2200619201325 72096 -72089 87242 -2200619092206 2200619092206 -12741098 12741099 -12703027 -38068 12741095 -1207926 1216970 -9044 -2200619182136 2200619182137 -12741101 8281420 -8281421 12750150 -9046 -15152 24196 -2200619191179 2200619182139 -12741105 12725952 -2200619166728 2200619210990 -2200619104268 2200629479344 2200619097896 -70265 70268 -20094 -50174 50175 40972 -40994 40995 -41003 -50169 40997 -40995 24913 
Offset table size: 2071

Printing Sanity: 1

Round Robin Complete

Offset reward: 470 389 823 0 0 271 115 0 0 0 1493 583 0 0 0 0 0 0 0 200 0 0 352 39 382 320 0 0 146 230 0 0 0 362 299 0 0 215 0 439 0 0 0 0 0 0 0 0 0 0 0 0 23 1 3 0 6 0 0 0 212 0 0 0 0 0 0 0 0 0 10 0 0 25 0 0 0 6 0 0 0 12 1 0 0 6 0 0 0 0 2 0 15 0 0 10 0 0 10 0 15 0 0 3 0 0 0 0 6 0 0 1 0 0 0 0 1 0 0 12 16 0 6 135 0 0 0 0 0 0 0 0 0 0 0 1 0 0 0 0 0 0 0 9 0 0 0 0 0 0 0 18 0 0 5 36 6 0 516 57 157 0 0 224 0 0 0 0 0 0 0 0 0 0 0 0 0 0 258 0 0 0 0 0 0 0 0 0 73 205 0 0 0 0 0 0 0 0 0 0 0 8 0 0 0 0 0 0 0 0 0 0 0 0 0 0 0 0 0 0 0 0 0 0 0 0 0 3 0 182 0 5 0 0 5 0 0 0 13 680 0 0 50 132 6 0 0 0 0 0 0 0 0 391 0 0 0 0 0 0 0 0 0 0 0 0 452 0 0 0 0 0 0 18 0 0 0 0 0 0 0 0 1 0 0 0 2 0 0 0 0 149 0 0 0 0 0 0 236 0 0 0 0 422 0 294 0 0 0 0 0 0 0 0 16 0 0 54 0 0 0 0 0 0 0 0 0 0 0 0 0 0 0 0 0 0 0 0 0 0 0 0 0 0 0 0 0 0 0 0 0 0 0 0 0 0 0 0 0 0 0 0 0 0 0 0 0 0 0 0 0 0 0 0 0 0 0 0 0 0 0 0 0 0 0 0 0 0 0 0 0 0 0 0 0 0 0 0 0 0 0 0 0 0 0 0 0 0 0 0 1 29 13 0 19 0 0 0 0 0 8 0 0 0 4 0 0 25 0 0 0 16 0 0 0 0 0 0 0 10 0 34 0 3 0 0 0 0 0 9 1 4 12 8 36 0 0 0 0 0 0 0 0 0 0 0 0 0 0 0 0 0 0 0 0 1 54 0 0 0 3 5 0 0 0 0 0 0 0 0 0 0 0 0 0 0 0 0 0 0 0 0 0 0 0 0 0 0 0 0 0 0 0 0 0 0 0 0 0 0 0 0 0 0 0 0 2 4 0 0 0 0 2 0 14 0 0 6 0 0 0 0 0 0 0 0 0 0 0 0 0 0 0 0 0 0 0 0 0 0 0 0 0 0 0 109 0 0 0 0 0 0 0 0 0 8 0 32 0 31 52 29 0 0 0 32 0 0 0 0 0 7 0 3 0 0 1 0 0 0 0 0 0 0 0 33 0 0 0 0 0 0 0 0 0 0 0 0 0 0 0 0 0 0 0 0 0 369 0 0 0 0 0 0 0 0 0 0 6 4 0 0 0 0 188 0 0 0 0 0 0 0 0 0 0 0 0 0 0 0 0 0 0 0 0 0 0 0 0 0 0 0 0 0 0 0 0 0 0 0 0 0 0 0 0 0 0 0 0 0 0 0 0 0 0 171 0 0 0 0 0 0 0 0 0 0 0 0 0 0 0 0 0 0 0 0 0 0 0 0 0 0 0 0 0 0 0 0 0 0 0 27 0 0 0 0 2 0 0 0 363 0 9 0 128 0 0 0 0 0 18 0 0 0 0 0 0 0 0 0 1 0 0 0 0 0 0 0 0 343 0 0 0 0 0 0 0 0 0 0 0 0 16 0 0 0 0 0 7 0 20 7 8 40 0 87 3 0 27 14 0 32 12 112 14 0 10 0 0 0 0 0 6 0 0 0 0 0 0 0 0 0 0 0 10 1 0 0 0 0 0 0 0 0 0 0 0 0 0 4 0 0 0 0 8 0 47 0 0 0 0 9 0 0 0 0 8 0 6 1 0 0 0 0 0 0 1 0 0 0 0 0 0 0 0 0 0 0 0 6 0 0 0 0 0 28 0 0 1 0 0 0 0 0 0 0 0 0 0 0 0 0 0 0 0 0 0 40 0 0 0 0 0 0 0 0 0 0 0 0 0 0 379 95 0 20 0 12 11 0 0 0 0 12 0 0 0 0 0 0 0 0 0 12 0 0 0 0 0 0 0 0 0 0 0 16 2 0 0 0 0 0 0 0 0 0 0 0 377 0 0 3 0 0 8 0 0 0 0 0 0 0 0 0 0 0 0 0 42 0 0 0 0 0 0 0 0 0 0 0 0 0 0 0 0 0 0 0 0 0 0 0 0 0 0 0 0 0 0 0 0 25 0 0 0 0 0 0 0 0 0 0 0 0 0 0 0 0 0 0 0 0 0 0 0 0 0 0 0 0 0 0 0 0 0 0 0 0 0 0 0 0 0 0 0 0 0 0 0 0 0 0 0 0 0 0 0 0 0 0 0 0 0 0 0 0 0 0 0 0 0 0 0 0 0 0 5 0 0 0 0 0 0 0 0 0 0 0 0 0 0 0 0 0 0 0 0 0 0 0 0 0 0 0 0 0 0 0 0 0 0 6 0 0 0 0 0 0 0 0 0 0 0 0 0 0 0 0 0 0 0 0 0 9 0 0 68 160 0 0 0 0 0 0 0 200 0 0 0 0 0 0 0 0 0 0 0 0 0 0 60 0 0 0 0 0 0 0 0 0 0 0 0 0 0 0 0 0 0 0 0 0 0 0 0 103 0 2 0 0 0 0 0 0 0 0 0 0 0 0 0 0 0 0 140 0 0 0 0 0 0 0 0 0 0 0 0 0 0 0 0 0 0 0 0 0 0 0 0 0 0 0 0 0 0 0 0 0 0 0 0 0 0 0 0 0 0 0 0 0 0 0 0 0 0 0 0 0 0 0 0 0 0 0 0 0 0 0 0 0 0 0 0 0 0 0 0 0 0 0 0 0 0 0 0 0 0 0 0 0 0 0 0 0 0 0 0 0 0 0 0 0 0 0 3 20 0 0 0 0 0 0 0 0 0 0 0 0 0 0 0 0 0 0 0 0 0 0 0 0 0 0 0 0 0 0 0 0 0 0 0 0 0 0 0 0 0 0 0 0 0 0 0 0 0 0 0 0 0 0 0 0 0 0 0 0 0 0 0 0 0 0 0 0 0 0 0 0 0 0 0 0 0 0 0 0 0 0 0 0 0 0 0 0 0 0 0 0 0 0 0 0 0 0 0 0 0 0 0 0 0 0 0 0 0 0 0 0 0 0 0 0 0 0 0 0 0 0 10 0 0 0 0 0 0 0 0 0 0 0 0 0 0 0 0 0 0 0 0 0 0 0 0 0 0 0 0 0 0 0 0 0 0 0 0 0 0 0 4 25 0 0 0 0 0 0 0 0 0 0 0 0 0 0 0 0 0 0 0 0 0 0 0 0 0 14 0 0 0 1 0 0 0 0 0 0 0 0 0 10 0 1 0 0 0 0 0 0 0 0 0 0 0 0 0 0 0 0 0 0 0 0 5 0 0 0 0 0 0 0 0 0 0 0 165 0 0 0 0 0 0 0 0 0 0 0 0 0 0 0 0 0 0 0 0 0 0 0 0 0 0 0 0 0 0 0 0 0 0 0 0 0 0 0 0 0 0 0 0 0 0 0 14 0 0 0 0 0 0 12 0 0 0 0 0 0 0 0 0 0 0 0 0 0 0 0 0 0 0 5 0 0 2 179 12 0 0 3 0 0 0 0 2 0 0 0 0 0 0 0 0 0 65 132 0 75 48 66 40 54 22 2 0 42 49 30 22 24 15 0 0 0 27 0 6 143 88 239 0 9 84 15 95 36 10 0 30 72 15 0 0 0 0 0 12 0 2 8 40 100 0 8 119 0 0 0 0 0 0 32 75 45 24 0 0 35 40 69 0 0 0 0 0 0 0 0 0 0 0 0 0 0 0 0 0 0 0 0 0 0 0 0 0 0 0 0 0 0 0 0 0 0 0 0 0 0 0 0 0 0 0 0 0 0 0 0 0 0 0 0 187 0 0 0 0 0 0 0 2 0 0 0 0 0 0 0 0 0 0 0 0 0 0 0 0 0 0 0 0 0 15 0 0 0 0 0 0 0 0 0 0 0 0 138 0 4 48 0 72 0 0 0 0 116 2 5 0 96 48 6 0 0 0 36 0 40 38 66 0 0 70 0 0 0 0 0 0 36 25 72 74 0 0 3 5 0 0 0 30 14 0 112 0 0 208 0 0 0 588 15 0 0 0 0 0 210 0 0 0 0 52 0 13 0 24 70 52 0 0 0 39 8 0 0 0 0 0 0 0 0 0 0 0 0 0 0 0 0 0 0 0 0 0 0 0 0 0 0 0 0 0 0 0 2 0 0 0 0 0 0 0 182 0 0 2 0 0 0 0 0 0 0 0 0 0 0 0 0 6 0 0 0 0 0 13 0 0 0 0 0 0 0 0 0 0 2 0 0 6 0 0 5 0 0 0 0 0 1 0 0 0 13 0 3 99 33 9 30 1 0 158 0 0 0 0 0 0 2 0 0 35 15 12 0 12 0 0 1 0 0 0 0 0 0 0 0 0 0 0 0 0 0 0 0 0 0 0 0 0 0 0 0 0 0 0 0 0 0 0 18 0 0 0 0 0 0 0 0 0 0 0 0 0 0 0 0 0 68 0 0 0 
Offset reward size: 2071

Offset count: 1 1 1 1 1 1 1 1 1 1 1 1 1 1 1 1 1 1 1 1 1 1 1 1 1 1 1 1 1 1 1 1 1 1 1 1 1 1 1 1 1 1 1 1 1 1 1 1 1 1 1 1 1 1 1 1 1 1 1 1 1 1 1 1 1 1 1 1 1 1 1 1 1 1 1 1 1 1 1 1 1 1 1 1 1 1 1 1 1 1 1 1 1 1 1 1 1 1 1 1 1 1 1 1 1 1 1 1 1 1 1 1 1 1 1 1 1 1 1 1 1 1 1 1 1 1 1 1 1 1 1 1 1 1 1 1 1 1 1 1 1 1 1 1 1 1 1 1 1 1 1 1 1 1 1 1 1 1 1 1 1 1 1 1 1 1 1 1 1 1 1 1 1 1 1 1 1 1 1 1 1 1 1 1 1 1 1 1 1 1 1 1 1 1 1 1 1 1 1 1 1 1 1 1 1 1 1 1 1 1 1 1 1 1 1 1 1 1 1 1 1 1 1 1 1 1 1 1 1 1 1 1 1 1 1 1 1 1 1 1 1 1 1 1 1 1 1 1 1 1 1 1 1 1 1 1 1 1 1 1 1 1 1 1 1 1 1 1 1 1 1 1 1 1 1 1 1 1 1 1 1 1 1 1 1 1 1 1 1 1 1 1 1 1 1 1 1 1 1 1 1 1 1 1 1 1 1 1 1 1 1 1 1 1 1 1 1 1 1 1 1 1 1 1 1 1 1 1 1 1 1 1 1 1 1 1 1 1 1 1 1 1 1 1 1 1 1 1 1 1 1 1 1 1 1 1 1 1 1 1 1 1 1 1 1 1 1 1 1 1 1 1 1 1 1 1 1 1 1 1 1 1 1 1 1 1 1 1 1 1 1 1 1 1 1 1 1 1 1 1 1 1 1 1 1 1 1 1 1 1 1 1 1 1 1 1 1 1 1 1 1 1 1 1 1 1 1 1 1 1 1 1 1 1 1 1 1 1 1 1 1 1 1 1 1 1 1 1 1 1 1 1 1 1 1 1 1 1 1 1 1 1 1 1 1 1 1 1 1 1 1 1 1 1 1 1 1 1 1 1 1 1 1 1 1 1 1 1 1 1 1 1 1 1 1 1 1 1 1 1 1 1 1 1 1 1 1 1 1 1 1 1 1 1 1 1 1 1 1 1 1 1 1 1 1 1 1 1 1 1 1 1 1 1 1 1 1 1 1 1 1 1 1 1 1 1 1 1 1 1 1 1 1 1 1 1 1 1 1 1 1 1 1 1 1 1 1 1 1 1 1 1 1 1 1 1 1 1 1 1 1 1 1 1 1 1 1 1 1 1 1 1 1 1 1 1 1 1 1 1 1 1 1 1 1 1 1 1 1 1 1 1 1 1 1 1 1 1 1 1 1 1 1 1 1 1 1 1 1 1 1 1 1 1 1 1 1 1 1 1 1 1 1 1 1 1 1 1 1 1 1 1 1 1 1 1 1 1 1 1 1 1 1 1 1 1 1 1 1 1 1 1 1 1 1 1 1 1 1 1 1 1 1 1 1 1 1 1 1 1 1 1 1 1 1 1 1 1 1 1 1 1 1 1 1 1 1 1 1 1 1 1 1 1 1 1 1 1 1 1 1 1 1 1 1 1 1 1 1 1 1 1 1 1 1 1 1 1 1 1 1 1 1 1 1 1 1 1 1 1 1 1 1 1 1 1 1 1 1 1 1 1 1 1 1 1 1 1 1 1 1 1 1 1 1 1 1 1 1 1 1 1 1 1 1 1 1 1 1 1 1 1 1 1 1 1 1 1 1 1 1 1 1 1 1 1 1 1 1 1 1 1 1 1 1 1 1 1 1 1 1 1 1 1 1 1 1 1 1 1 1 1 1 1 1 1 1 1 1 1 1 1 1 1 1 1 1 1 1 1 1 1 1 1 1 1 1 1 1 1 1 1 1 1 1 1 1 1 1 1 1 1 1 1 1 1 1 1 1 1 1 1 1 1 1 1 1 1 1 1 1 1 1 1 1 1 1 1 1 1 1 1 1 1 1 1 1 1 1 1 1 1 1 1 1 1 1 1 1 1 1 1 1 1 1 1 1 1 1 1 1 1 1 1 1 1 1 1 1 1 1 1 1 1 1 1 1 1 1 1 1 1 1 1 1 1 1 1 1 1 1 1 1 1 1 1 1 1 1 1 1 1 1 1 1 1 1 1 1 1 1 1 1 1 1 1 1 1 1 1 1 1 1 1 1 1 1 1 1 1 1 1 1 1 1 1 1 1 1 1 1 1 1 1 1 1 1 1 1 1 1 1 1 1 1 1 1 1 1 1 1 1 1 1 1 1 1 1 1 1 1 1 1 1 1 1 1 1 1 1 1 1 1 1 1 1 1 1 1 1 1 1 1 1 1 1 1 1 1 1 1 1 1 1 1 1 1 1 1 1 1 1 1 1 1 1 1 1 1 1 1 1 1 1 1 1 1 1 1 1 1 1 1 1 1 1 1 1 1 1 1 1 1 1 1 1 1 1 1 1 1 1 1 1 1 1 1 1 1 1 1 1 1 1 1 1 1 1 1 1 1 1 1 1 1 1 1 1 1 1 1 1 1 1 1 1 1 1 1 1 1 1 1 1 1 1 1 1 1 1 1 1 1 1 1 1 1 1 1 1 1 1 1 1 1 1 1 1 1 1 1 1 1 1 1 1 1 1 1 1 1 1 1 1 1 1 1 1 1 1 1 1 1 1 1 1 1 1 1 1 1 1 1 1 1 1 1 1 1 1 1 1 1 1 1 1 1 1 1 1 1 1 1 1 1 1 1 1 1 1 1 1 1 1 1 1 1 1 1 1 1 1 1 1 1 1 1 1 1 1 1 1 1 1 1 1 1 1 1 1 1 1 1 1 1 1 1 1 1 1 1 1 1 1 1 1 1 1 1 1 1 1 1 1 1 1 1 1 1 1 1 1 1 1 1 1 1 1 1 1 1 1 1 1 1 1 1 1 1 1 1 1 1 1 1 1 1 1 1 1 1 1 1 1 1 1 1 1 1 1 1 1 1 1 1 1 1 1 1 1 1 1 1 1 1 1 1 1 1 1 1 1 1 1 1 1 1 1 1 1 1 1 1 1 1 1 1 1 1 1 1 1 1 1 1 1 1 1 1 1 1 1 1 1 1 1 1 1 1 1 1 1 1 1 1 1 1 1 1 1 1 1 1 1 1 1 1 1 1 1 1 1 1 1 1 1 1 1 1 1 1 1 1 1 1 1 1 1 1 1 1 1 1 1 1 1 1 1 1 1 1 1 1 1 1 1 1 1 1 1 1 1 1 1 1 1 1 1 1 1 1 1 1 1 1 1 1 1 1 1 1 1 1 1 1 1 1 1 1 1 1 1 1 1 1 1 1 1 1 1 1 1 1 1 1 1 1 1 1 1 1 1 1 1 1 1 1 1 1 1 1 1 1 1 1 1 1 1 1 1 1 1 1 1 1 1 1 1 1 1 1 1 1 1 1 1 1 1 1 1 1 1 1 1 1 1 1 1 1 1 1 1 1 1 1 1 1 1 1 1 1 1 1 1 1 1 1 1 1 1 1 1 1 1 1 1 1 1 1 1 1 1 1 1 1 1 1 1 1 1 1 1 1 1 1 1 1 1 1 1 1 1 1 1 1 1 1 1 1 1 1 1 1 1 1 1 1 1 1 1 1 1 1 1 1 1 1 1 1 1 1 1 1 1 1 1 1 1 1 1 1 1 1 1 1 1 1 1 1 1 1 1 1 1 1 1 1 1 1 1 1 1 1 1 1 1 1 1 1 1 1 1 1 1 1 1 1 1 1 1 1 1 1 1 1 1 1 1 1 1 1 1 1 1 1 1 1 1 1 1 1 1 1 1 1 1 1 1 1 1 1 1 1 1 1 1 1 1 1 1 1 1 1 1 1 1 1 1 1 1 1 1 1 1 1 1 1 1 1 1 1 1 1 1 1 1 1 1 1 1 1 1 1 1 1 1 1 1 1 1 1 1 1 1 1 1 1 1 1 1 1 1 1 1 1 1 1 1 1 1 1 1 1 1 1 1 1 1 1 1 1 1 1 1 1 1 1 1 1 1 1 1 1 1 1 1 1 1 1 1 1 1 1 1 1 1 1 1 1 1 1 1 1 1 1 1 1 1 1 1 1 1 1 1 1 1 1 1 1 1 1 1 1 1 1 1 1 1 1 1 1 1 1 1 1 1 1 1 1 1 1 1 1 1 1 1 1 1 1 1 1 1 1 1 1 1 1 1 1 1 1 1 1 1 1 1 1 1 1 1 1 1 1 1 1 1 1 1 1 1 1 1 1 1 1 1 1 1 1 1 1 1 1 1 1 1 1 1 1 1 1 1 1 1 1 1 1 1 1 1 1 1 1 1 1 1 1 1 1 1 1 1 1 1 1 1 1 1 1 1 1 1 1 1 1 1 1 1 1 1 1 1 1 1 1 1 1 1 1 1 1 1 1 1 1 1 1 1 1 1 1 1 1 1 1 1 1 1 1 1 1 1 1 1 1 1 1 1 1 1 1 1 1 1 1 1 1 1 1 1 1 1 1 1 1 1 1 1 1 1 1 1 1 1 1 1 1 1 1 1 1 1 1 1 1 1 1 1 1 1 1 1 1 1 1 1 1 1 1 1 1 
Offset count size: 2071

Printing Sanity: 2
n total: 2071
Heartbeat CPU 0 instructions: 10000001 cycles: 2947419 heartbeat IPC: 3.3928 cumulative IPC: 3.3928 (Simulation time: 0 hr 0 min 21 sec) 
Heartbeat CPU 0 instructions: 20000002 cycles: 5924322 heartbeat IPC: 3.3592 cumulative IPC: 3.37591 (Simulation time: 0 hr 0 min 43 sec) 

Warmup complete CPU 0 instructions: 20000002 cycles: 5924322 (Simulation time: 0 hr 0 min 43 sec) 

Heartbeat CPU 0 instructions: 30000002 cycles: 26759376 heartbeat IPC: 0.47996 cumulative IPC: 0.47996 (Simulation time: 0 hr 1 min 23 sec) 
Heartbeat CPU 0 instructions: 40000001 cycles: 47583137 heartbeat IPC: 0.480221 cumulative IPC: 0.48009 (Simulation time: 0 hr 2 min 1 sec) 
Heartbeat CPU 0 instructions: 50000000 cycles: 68339013 heartbeat IPC: 0.481791 cumulative IPC: 0.480656 (Simulation time: 0 hr 2 min 40 sec) 
Heartbeat CPU 0 instructions: 60000000 cycles: 91938168 heartbeat IPC: 0.423744 cumulative IPC: 0.465041 (Simulation time: 0 hr 3 min 25 sec) 
Heartbeat CPU 0 instructions: 70000000 cycles: 114022569 heartbeat IPC: 0.452808 cumulative IPC: 0.462542 (Simulation time: 0 hr 4 min 4 sec) 
Heartbeat CPU 0 instructions: 80000000 cycles: 145554754 heartbeat IPC: 0.317136 cumulative IPC: 0.429706 (Simulation time: 0 hr 4 min 44 sec) 
Heartbeat CPU 0 instructions: 90000000 cycles: 167419348 heartbeat IPC: 0.45736 cumulative IPC: 0.43345 (Simulation time: 0 hr 5 min 23 sec) 
Heartbeat CPU 0 instructions: 100000000 cycles: 189277082 heartbeat IPC: 0.457504 cumulative IPC: 0.436317 (Simulation time: 0 hr 6 min 2 sec) 
*** Reached end of trace for Core: 0 Repeating trace: ../../traces/server_019.champsimtrace.xz
Heartbeat CPU 0 instructions: 110000000 cycles: 210578578 heartbeat IPC: 0.469451 cumulative IPC: 0.439766 (Simulation time: 0 hr 6 min 42 sec) 
Heartbeat CPU 0 instructions: 120000003 cycles: 231432207 heartbeat IPC: 0.479533 cumulative IPC: 0.443443 (Simulation time: 0 hr 7 min 21 sec) 
Heartbeat CPU 0 instructions: 130000000 cycles: 252126729 heartbeat IPC: 0.48322 cumulative IPC: 0.446787 (Simulation time: 0 hr 8 min 6 sec) 
Heartbeat CPU 0 instructions: 140000000 cycles: 272664226 heartbeat IPC: 0.486914 cumulative IPC: 0.449876 (Simulation time: 0 hr 8 min 46 sec) 
Heartbeat CPU 0 instructions: 150000003 cycles: 293348713 heartbeat IPC: 0.483454 cumulative IPC: 0.452293 (Simulation time: 0 hr 9 min 27 sec) 
Heartbeat CPU 0 instructions: 160000000 cycles: 313428253 heartbeat IPC: 0.498019 cumulative IPC: 0.455279 (Simulation time: 0 hr 10 min 6 sec) 
Heartbeat CPU 0 instructions: 170000000 cycles: 336391126 heartbeat IPC: 0.435486 cumulative IPC: 0.453903 (Simulation time: 0 hr 10 min 50 sec) 
Heartbeat CPU 0 instructions: 180000000 cycles: 360116216 heartbeat IPC: 0.421495 cumulative IPC: 0.451733 (Simulation time: 0 hr 11 min 29 sec) 
Heartbeat CPU 0 instructions: 190000001 cycles: 390905129 heartbeat IPC: 0.324792 cumulative IPC: 0.44158 (Simulation time: 0 hr 12 min 9 sec) 
Heartbeat CPU 0 instructions: 200000002 cycles: 412669240 heartbeat IPC: 0.459472 cumulative IPC: 0.442538 (Simulation time: 0 hr 12 min 49 sec) 
Heartbeat CPU 0 instructions: 210000000 cycles: 434316077 heartbeat IPC: 0.461961 cumulative IPC: 0.443519 (Simulation time: 0 hr 13 min 29 sec) 
*** Reached end of trace for Core: 0 Repeating trace: ../../traces/server_019.champsimtrace.xz
Heartbeat CPU 0 instructions: 220000000 cycles: 455315288 heartbeat IPC: 0.476208 cumulative IPC: 0.445047 (Simulation time: 0 hr 14 min 9 sec) 
Finished CPU 0 instructions: 200000000 cycles: 449390975 cumulative IPC: 0.445047 (Simulation time: 0 hr 14 min 9 sec) 

ChampSim completed all CPUs

Region of Interest Statistics

CPU 0 cumulative IPC: 0.445047 instructions: 200000000 cycles: 449390975
ITLB TOTAL     ACCESS:   33599453  HIT:   32168484  MISS:    1430969  HIT %:    95.7411  MISS %:    4.25891   MPKI: 7.15484
ITLB LOAD TRANSLATION ACCESS:   33599453  HIT:   32168484  MISS:    1430969  HIT %:    95.7411  MISS %:    4.25891   MPKI: 7.15484
ITLB PREFETCH  REQUESTED:          0  ISSUED:          0  USEFUL:          0  USELESS:          0
ITLB USEFUL LOAD PREFETCHES:          0 PREFETCH ISSUED TO LOWER LEVEL:          0  ACCURACY: -nan
ITLB TIMELY PREFETCHES:          0 LATE PREFETCHES: 0 DROPPED PREFETCHES: 0
ITLB PREFETCHES SAME FILL-ORIGIN LEVEL: 0 DIFFERENT FILL-ORIGIN LEVEL: 0
ITLB AVERAGE MISS LATENCY: 9.42908 cycles
ITLB RQ	ACCESS:   40232697	FORWARD:          0	MERGED:    6172993	TO_CACHE:   34059704

DTLB TOTAL     ACCESS:   38909293  HIT:   37313217  MISS:    1596076  HIT %:     95.898  MISS %:    4.10204   MPKI: 7.98038
DTLB LOAD TRANSLATION ACCESS:   38909293  HIT:   37313217  MISS:    1596076  HIT %:     95.898  MISS %:    4.10204   MPKI: 7.98038
DTLB PREFETCH  REQUESTED:          0  ISSUED:          0  USEFUL:          0  USELESS:          0
DTLB USEFUL LOAD PREFETCHES:          0 PREFETCH ISSUED TO LOWER LEVEL:          0  ACCURACY: -nan
DTLB TIMELY PREFETCHES:          0 LATE PREFETCHES: 0 DROPPED PREFETCHES: 0
DTLB PREFETCHES SAME FILL-ORIGIN LEVEL: 0 DIFFERENT FILL-ORIGIN LEVEL: 0
DTLB AVERAGE MISS LATENCY: 19.5587 cycles
DTLB RQ	ACCESS:   58861647	FORWARD:          0	MERGED:   19570699	TO_CACHE:   39290948

STLB TOTAL     ACCESS:   22254043  HIT:   22080226  MISS:     173817  HIT %:    99.2189  MISS %:   0.781058   MPKI: 0.869085
STLB LOAD TRANSLATION ACCESS:    3027045  HIT:    2860969  MISS:     166076  HIT %:    94.5136  MISS %:    5.48641   MPKI: 0.83038
STLB TRANSLATION FROM L1D PREFETCHER ACCESS:   19226998  HIT:   19219257  MISS:       7741  HIT %:    99.9597  MISS %:  0.0402611   MPKI: 0.038705
STLB PREFETCH  REQUESTED:          0  ISSUED:          0  USEFUL:       6852  USELESS:        887
STLB USEFUL LOAD PREFETCHES:       6852 PREFETCH ISSUED TO LOWER LEVEL:          0  ACCURACY: inf
STLB TIMELY PREFETCHES:       6852 LATE PREFETCHES: 769 DROPPED PREFETCHES: 488528
STLB PREFETCHES SAME FILL-ORIGIN LEVEL: 0 DIFFERENT FILL-ORIGIN LEVEL: 0
STLB AVERAGE MISS LATENCY: 550717 cycles
STLB RQ	ACCESS:   28212971	FORWARD:          0	MERGED:    5423075	TO_CACHE:   22789896

STLB Hit, L1D data hit: 0
STLB Hit, L2C data hit: 0
STLB Hit, LLC data hit: 0
STLB Hit, LLC data miss: 0
STLB STLB hints to L2: 0
L1D TOTAL     ACCESS:   71037431  HIT:   61362119  MISS:    9675312  HIT %:      86.38  MISS %:      13.62   MPKI: 48.3766
L1D LOAD      ACCESS:   26092423  HIT:   23005985  MISS:    3086438  HIT %:    88.1711  MISS %:    11.8289   MPKI: 15.4322
L1D RFO       ACCESS:   21583294  HIT:   18070082  MISS:    3513212  HIT %:    83.7225  MISS %:    16.2775   MPKI: 17.5661
L1D PREFETCH  ACCESS:   23361714  HIT:   20286052  MISS:    3075662  HIT %:    86.8346  MISS %:    13.1654   MPKI: 15.3783
AGUS PREFETCH L1 MISS: 0
L1D PREFETCH  REQUESTED:   51645460  ISSUED:   51622242  USEFUL:     546020  USELESS:    2529795
L1D USEFUL LOAD PREFETCHES:     546020 PREFETCH ISSUED TO LOWER LEVEL:    3414156  ACCURACY: 15.9928
L1D TIMELY PREFETCHES:     546020 LATE PREFETCHES: 334344 DROPPED PREFETCHES: 611135
L1D PREFETCHES SAME FILL-ORIGIN LEVEL: 3414156 DIFFERENT FILL-ORIGIN LEVEL: 0
L1D AVERAGE MISS LATENCY: 7.99153e+06 cycles
L1D RQ	ACCESS:   44298075	FORWARD:          0	MERGED:   17573586	TO_CACHE:   26459529
L1D WQ	ACCESS:   32626693	FORWARD:     280169	MERGED:     224575	TO_CACHE:   32402118
L1D PQ	ACCESS:   26436316	FORWARD:          0	MERGED:    1235181	TO_CACHE:   25185926

L1D UNIQUE REGIONS ACCESSED: 0
L1D REGIONS CONFLICTS: 0
L1D Cross Page Prefetch Requests: 1504348
L1D Same Page Prefetch Requests: 26374359
L1D ROI Sum of L1D PQ occupancy: 373141124
L1D PREFETCHES PUSHED FROM L2C: 0
L1I TOTAL     ACCESS:   37751858  HIT:   29242830  MISS:    8509028  HIT %:    77.4606  MISS %:    22.5394   MPKI: 42.5451
L1I LOAD      ACCESS:   37751858  HIT:   29242830  MISS:    8509028  HIT %:    77.4606  MISS %:    22.5394   MPKI: 42.5451
L1I PREFETCH  REQUESTED:          0  ISSUED:          0  USEFUL:          0  USELESS:          0
L1I USEFUL LOAD PREFETCHES:          0 PREFETCH ISSUED TO LOWER LEVEL:          0  ACCURACY: -nan
L1I TIMELY PREFETCHES:          0 LATE PREFETCHES: 0 DROPPED PREFETCHES: 0
L1I PREFETCHES SAME FILL-ORIGIN LEVEL: 0 DIFFERENT FILL-ORIGIN LEVEL: 0
L1I AVERAGE MISS LATENCY: 16.9866 cycles
L1I RQ	ACCESS:   58558875	FORWARD:          0	MERGED:   18326178	TO_CACHE:   40232697

BTB TOTAL     ACCESS:   25851616  HIT:   24226573  MISS:    1625043  HIT %:     93.714  MISS %:    6.28604   MPKI: 8.12522
BTB BRANCH_DIRECT_JUMP	ACCESS:    1695116  HIT:    1685049  MISS:      10067
BTB BRANCH_INDIRECT	ACCESS:    9830988  HIT:    9196111  MISS:     634877
BTB BRANCH_CONDITIONAL	ACCESS:    7663432  HIT:    7649346  MISS:      14086
BTB BRANCH_DIRECT_CALL	ACCESS:    2643727  HIT:    2610268  MISS:      33459
BTB BRANCH_INDIRECT_CALL	ACCESS:     687296  HIT:     584016  MISS:     103280
BTB BRANCH_RETURN	ACCESS:    3331057  HIT:    2501783  MISS:     829274
BTB BRANCH_OTHER ACCESS:          0  HIT:          0  MISS:          0

L2C TOTAL     ACCESS:   23559467  HIT:   15778053  MISS:    7781414  HIT %:    66.9712  MISS %:    33.0288   MPKI: 38.9071
L2C LOAD      ACCESS:   11260064  HIT:    8933999  MISS:    2326065  HIT %:    79.3423  MISS %:    20.6577   MPKI: 11.6303
L2C DATA LOAD MPKI: 8.62468
L2C INSTRUCTION LOAD MPKI: 3.00564
L2C RFO       ACCESS:    3509000  HIT:     115942  MISS:    3393058  HIT %:    3.30413  MISS %:    96.6959   MPKI: 16.9653
L2C PREFETCH  ACCESS:    3414128  HIT:    1561732  MISS:    1852396  HIT %:    45.7432  MISS %:    54.2568   MPKI: 9.26198
AGUS PREFETCH L1 MISS: 0
L2C DATA PREFETCH MPKI: 9.26198
L2C INSTRUCTION PREFETCH MPKI: 0
L2C WRITEBACK ACCESS:    4435391  HIT:    4331071  MISS:     104320  HIT %:     97.648  MISS %:    2.35199   MPKI: 0.5216
L2C LOAD TRANSLATION ACCESS:     224093  HIT:     143214  MISS:      80879  HIT %:    63.9083  MISS %:    36.0917   MPKI: 0.404395
L2C TRANSLATION FROM L1D PREFETCHER ACCESS:     716791  HIT:     692095  MISS:      24696  HIT %:    96.5546  MISS %:    3.44536   MPKI: 0.12348
L2C PREFETCH  REQUESTED:          0  ISSUED:          0  USEFUL:     102332  USELESS:    1774612
L2C USEFUL LOAD PREFETCHES:     102332 PREFETCH ISSUED TO LOWER LEVEL:    1852396  ACCURACY: 5.5243
L2C TIMELY PREFETCHES:     102332 LATE PREFETCHES: 0 DROPPED PREFETCHES: 0
L2C PREFETCHES SAME FILL-ORIGIN LEVEL: 0 DIFFERENT FILL-ORIGIN LEVEL: 0
L2C AVERAGE MISS LATENCY: 189.228 cycles
L2C RQ	ACCESS:   15711068	FORWARD:          0	MERGED:          0	TO_CACHE:   15709948
L2C WQ	ACCESS:    4435391	FORWARD:       1148	MERGED:          0	TO_CACHE:    4435391
L2C PQ	ACCESS:    3414156	FORWARD:          0	MERGED:          0	TO_CACHE:    3414128

L2C Instructions Evicting Data 546524
L2C Translations Evicting Data 96946
L2C Data Evicting Data 6337017
L2C Instructions Evicting Instructions 48054
L2C Translations Evicting Instructions 7117
L2C Data Evicting Instructions 537099
L2C Instructions Evicting Translations 6551
L2C Translations Evicting Translations 1512
L2C Data Evicting Translations 96274
L2C Dense regions hint from L2: 0
PSCL5 TOTAL     ACCESS:     662347  HIT:     662347  MISS:          0  HIT %:        100  MISS %:          0   MPKI: 0
PSCL5 LOAD TRANSLATION ACCESS:     165309  HIT:     165309  MISS:          0  HIT %:        100  MISS %:          0   MPKI: 0
PSCL5 TRANSLATION FROM L1D PREFETCHER ACCESS:     497038  HIT:     497038  MISS:          0  HIT %:        100  MISS %:          0   MPKI: 0
PSCL5 PREFETCH  REQUESTED:          0  ISSUED:          0  USEFUL:          0  USELESS:          0
PSCL5 USEFUL LOAD PREFETCHES:          0 PREFETCH ISSUED TO LOWER LEVEL:          0  ACCURACY: -nan
PSCL5 TIMELY PREFETCHES:          0 LATE PREFETCHES: 0 DROPPED PREFETCHES: 0
PSCL5 PREFETCHES SAME FILL-ORIGIN LEVEL: 0 DIFFERENT FILL-ORIGIN LEVEL: 0

PSCL4 TOTAL     ACCESS:     639964  HIT:     639629  MISS:        335  HIT %:    99.9477  MISS %:  0.0523467   MPKI: 0.001675
PSCL4 LOAD TRANSLATION ACCESS:     161860  HIT:     161525  MISS:        335  HIT %:     99.793  MISS %:   0.206969   MPKI: 0.001675
PSCL4 TRANSLATION FROM L1D PREFETCHER ACCESS:     478104  HIT:     478104  MISS:          0  HIT %:        100  MISS %:          0   MPKI: 0
PSCL4 PREFETCH  REQUESTED:          0  ISSUED:          0  USEFUL:          0  USELESS:          0
PSCL4 USEFUL LOAD PREFETCHES:          0 PREFETCH ISSUED TO LOWER LEVEL:          0  ACCURACY: -nan
PSCL4 TIMELY PREFETCHES:          0 LATE PREFETCHES: 0 DROPPED PREFETCHES: 0
PSCL4 PREFETCHES SAME FILL-ORIGIN LEVEL: 0 DIFFERENT FILL-ORIGIN LEVEL: 0

PSCL3 TOTAL     ACCESS:     643840  HIT:     642233  MISS:       1607  HIT %:    99.7504  MISS %:   0.249596   MPKI: 0.008035
PSCL3 LOAD TRANSLATION ACCESS:     161881  HIT:     160274  MISS:       1607  HIT %:    99.0073  MISS %:   0.992705   MPKI: 0.008035
PSCL3 TRANSLATION FROM L1D PREFETCHER ACCESS:     481959  HIT:     481959  MISS:          0  HIT %:        100  MISS %:          0   MPKI: 0
PSCL3 PREFETCH  REQUESTED:          0  ISSUED:          0  USEFUL:          0  USELESS:          0
PSCL3 USEFUL LOAD PREFETCHES:          0 PREFETCH ISSUED TO LOWER LEVEL:          0  ACCURACY: -nan
PSCL3 TIMELY PREFETCHES:          0 LATE PREFETCHES: 0 DROPPED PREFETCHES: 0
PSCL3 PREFETCHES SAME FILL-ORIGIN LEVEL: 0 DIFFERENT FILL-ORIGIN LEVEL: 0

PSCL2 TOTAL     ACCESS:     450974  HIT:     392665  MISS:      58309  HIT %:    87.0704  MISS %:    12.9296   MPKI: 0.291545
PSCL2 LOAD TRANSLATION ACCESS:     166689  HIT:     108380  MISS:      58309  HIT %:    65.0193  MISS %:    34.9807   MPKI: 0.291545
PSCL2 TRANSLATION FROM L1D PREFETCHER ACCESS:     284285  HIT:     284285  MISS:          0  HIT %:        100  MISS %:          0   MPKI: 0
PSCL2 PREFETCH  REQUESTED:          0  ISSUED:          0  USEFUL:          0  USELESS:          0
PSCL2 USEFUL LOAD PREFETCHES:          0 PREFETCH ISSUED TO LOWER LEVEL:          0  ACCURACY: -nan
PSCL2 TIMELY PREFETCHES:          0 LATE PREFETCHES: 0 DROPPED PREFETCHES: 0
PSCL2 PREFETCHES SAME FILL-ORIGIN LEVEL: 0 DIFFERENT FILL-ORIGIN LEVEL: 0

LLC TOTAL     ACCESS:   11773523  HIT:    6371791  MISS:    5401732  HIT %:    54.1197  MISS %:    45.8803   MPKI: 27.0087
LLC LOAD      ACCESS:    2326065  HIT:    1274941  MISS:    1051124  HIT %:    54.8111  MISS %:    45.1889   MPKI: 5.25562
LLC RFO       ACCESS:    3393044  HIT:     583328  MISS:    2809716  HIT %:    17.1919  MISS %:    82.8081   MPKI: 14.0486
LLC PREFETCH  ACCESS:    1852395  HIT:     891043  MISS:     961352  HIT %:    48.1022  MISS %:    51.8978   MPKI: 4.80676
AGUS PREFETCH L1 MISS: 0
LLC WRITEBACK ACCESS:    4096444  HIT:    3563314  MISS:     533130  HIT %:    86.9855  MISS %:    13.0145   MPKI: 2.66565
LLC LOAD TRANSLATION ACCESS:      80879  HIT:      38987  MISS:      41892  HIT %:    48.2041  MISS %:    51.7959   MPKI: 0.20946
LLC TRANSLATION FROM L1D PREFETCHER ACCESS:      24696  HIT:      20178  MISS:       4518  HIT %:    81.7055  MISS %:    18.2945   MPKI: 0.02259
LLC PREFETCH  REQUESTED:          0  ISSUED:          0  USEFUL:      38675  USELESS:     926814
LLC USEFUL LOAD PREFETCHES:      38675 PREFETCH ISSUED TO LOWER LEVEL:     961352  ACCURACY: 4.02298
LLC TIMELY PREFETCHES:      38675 LATE PREFETCHES: 0 DROPPED PREFETCHES: 0
LLC PREFETCHES SAME FILL-ORIGIN LEVEL: 0 DIFFERENT FILL-ORIGIN LEVEL: 0
LLC AVERAGE MISS LATENCY: 229.248 cycles
LLC RQ	ACCESS:    5824698	FORWARD:          0	MERGED:          0	TO_CACHE:    5824684
LLC WQ	ACCESS:    4096444	FORWARD:         15	MERGED:          0	TO_CACHE:    4096444
LLC PQ	ACCESS:    1852396	FORWARD:          0	MERGED:          0	TO_CACHE:    1852395

LLC Dense regions hint to LLC: 0

RAW hits: 2496019
Loads Generated: 46794088
Loads sent to L1D: 44298075
Stores Generated: 32626688
Stores sent to L1D: 32626693
Major fault: 0 Minor fault: 25901
Allocated PAGES: 25901
ucb ended

DRAM Statistics
 CHANNEL 0
 RQ ROW_BUFFER_HIT:    1648526  ROW_BUFFER_MISS:    3219669
 DBUS_CONGESTED:       1215
 WQ ROW_BUFFER_HIT:     730186  ROW_BUFFER_MISS:    2455464  FULL:      10483

 AVG_CONGESTED_CYCLE: 3
 All warmup complete: 2
Channel 0 Bank busy for read cycles: 0
Channel 0 Bank busy for write cycles: 0
Channel 0
Rank 0
0banks busy for read cycles: 161673405
0banks busy for write cycles: 180089
1banks busy for read cycles: 51653284
1banks busy for write cycles: 23875872
2banks busy for read cycles: 37726583
2banks busy for write cycles: 13494061
3banks busy for read cycles: 18491778
3banks busy for write cycles: 9457917
4banks busy for read cycles: 12234182
4banks busy for write cycles: 7139503
5banks busy for read cycles: 6523497
5banks busy for write cycles: 5345821
6banks busy for read cycles: 9926928
6banks busy for write cycles: 4469553
7banks busy for read cycles: 8643104
7banks busy for write cycles: 6847176
8banks busy for read cycles: 24352128
8banks busy for write cycles: 47356095

CPU 0 Branch Prediction Accuracy: 99.9336% MPKI: 0.103395 Average ROB Occupancy at Mispredict: 106.417
Branch types
NOT_BRANCH: 168845541 84.4228%
BRANCH_DIRECT_JUMP: 1695116 0.847558%
BRANCH_INDIRECT: 9830988 4.91549%
BRANCH_CONDITIONAL: 12966148 6.48307%
BRANCH_DIRECT_CALL: 2643727 1.32186%
BRANCH_INDIRECT_CALL: 687296 0.343648%
BRANCH_RETURN: 3331057 1.66553%
BRANCH_OTHER: 0 0%

DRAM PAGES: 1048576
Allocated PAGES: 25901
