
*** ChampSim Multicore Out-of-Order Simulator ***

Warmup Instructions: 50000000
Simulation Instructions: 200000000
Number of CPUs: 1
LLC sets: 2048
LLC ways: 16
Off-chip DRAM Size: 4096 MB Channels: 1 Width: 64-bit Data Rate: 6400 MT/s
CPU 0 runs traces/spec2k17/server_026.champsimtrace.xz
.xz
BTB has LRU replacement policy
ITLB has LRU replacement policy
DTLB has LRU replacement policy
STLB has LRU replacement policy
L1I has LRU replacement policy
CPU 0 l1d next line prefetcher
L1D has LRU replacement policy
Initialize SRRIP state for L2C
Initialize DRRIP state for LLC
Offsets elements: 
Potential of Offsets elements: 
rewards of Offsets elements: 
Printing Sanity1
offset list size1354
Heartbeat CPU 0 instructions: 10000003 cycles: 2836329 heartbeat IPC: 3.52569 cumulative IPC: 3.52569 (Simulation time: 0 hr 0 min 30 sec) 
Heartbeat CPU 0 instructions: 20000001 cycles: 5667838 heartbeat IPC: 3.53169 cumulative IPC: 3.52868 (Simulation time: 0 hr 1 min 5 sec) 
Heartbeat CPU 0 instructions: 30000002 cycles: 8498259 heartbeat IPC: 3.53304 cumulative IPC: 3.53014 (Simulation time: 0 hr 1 min 36 sec) 
Heartbeat CPU 0 instructions: 40000001 cycles: 11328305 heartbeat IPC: 3.53351 cumulative IPC: 3.53098 (Simulation time: 0 hr 2 min 8 sec) 
Offsets elements: 
Potential of Offsets elements: 
rewards of Offsets elements: 0 0 2 9 1 0 0 0 0 0 0 0 0 0 0 30 0 0 0 0 0 0 1 1 0 0 4 0 1 1 0 0 0 0 0 1 2 0 2 1 0 0 0 0 0 4 0 1 0 0 0 74 20 0 0 0 0 2 0 0 0 0 13 0 0 1 4 11 0 6 0 0 0 0 2 0 0 0 0 0 0 3 0 0 0 0 23 0 0 0 0 0 18 0 0 0 35 62 24 85 0 100 1 0 0 0 0 1 0 1 4 0 0 1 0 1 0 3 0 1 0 0 0 0 0 0 2 0 0 72 0 0 0 1 0 0 0 4 0 0 0 0 0 0 0 122 0 0 0 117 0 0 0 1 1 0 0 0 0 0 0 63 0 2 35 0 0 0 0 0 0 1 0 0 1 0 0 2 0 1 0 0 2 8 0 0 0 0 0 4 1 0 20 0 0 0 0 0 0 1 0 0 0 0 0 0 11 0 0 1 0 0 0 0 0 0 0 0 1 3 2 0 0 1 0 0 0 0 0 0 0 5 4 0 0 0 0 0 0 0 0 0 0 0 0 0 0 0 0 0 0 3 0 0 0 0 0 0 0 0 0 0 6 0 0 5 3 32 0 100 0 0 0 0 0 0 3 0 0 0 0 4 3 0 0 3 0 0 0 0 0 0 0 0 0 0 0 0 0 0 1 0 0 0 1 0 0 0 0 0 0 0 0 18 0 0 0 42 0 0 0 0 1 5 2 0 1 0 0 1 0 0 1 0 0 0 0 1 2 0 36 14 0 0 0 0 0 0 0 0 0 0 0 0 0 2 0 0 0 0 137 0 4 0 0 0 0 37 0 3 0 0 1 0 0 0 0 0 0 1 0 0 0 0 0 49 21 0 0 1 111 0 48 0 1 0 17 0 1 0 0 0 0 0 3 0 0 0 1 2 0 0 4 3 0 0 0 1 0 0 0 2 0 0 29 1 0 1 4 0 1 0 3 0 0 0 0 0 0 5 0 0 0 0 0 51 17 0 0 0 0 0 1 0 0 0 1 0 0 0 47 1 7 37 0 0 0 13 0 0 0 0 0 0 1 0 1 0 2 1 1 0 0 0 3 3 0 1 0 0 0 71 0 5 1 0 0 0 4 2 4 3 14 3 0 1 0 0 2 0 0 1 5 4 0 0 0 0 0 46 0 0 2 3 1 2 0 1 0 0 1 0 0 0 0 0 0 1 0 0 0 0 0 0 0 0 0 0 0 0 0 0 0 0 6 2 46 3 24 0 1 0 2 0 0 2 0 1 0 2 2 56 0 0 0 0 0 3 0 0 0 0 0 0 0 0 0 0 0 1 0 0 0 0 0 0 0 0 1 0 0 2 3 6 2 2 0 0 2 3 0 0 0 3 0 0 1 3 0 2 3 2 0 0 0 0 1 0 1 0 0 1 0 0 3 0 0 5 2 0 0 0 2 0 0 0 1 2 0 0 1 0 0 0 0 0 0 1 0 0 0 1 2 1 0 0 1 4 0 0 0 0 0 0 0 0 0 0 0 2 0 0 1 0 0 0 0 0 1 0 0 3 0 0 0 1 1 0 0 0 0 0 0 0 0 0 1 0 0 32 0 0 0 0 0 2 1 2 0 0 5 50 0 0 0 0 0 2 1 2 0 0 0 0 0 0 0 0 0 0 4 0 0 0 0 0 1 0 0 0 57 0 0 0 2 2 40 0 1 0 2 2 0 2 3 3 1 0 0 0 0 0 3 0 2 0 0 0 4 43 2 0 0 0 0 0 0 32 0 0 0 0 0 0 0 0 2 0 0 3 1 1 3 0 0 2 0 0 0 0 0 0 0 1 0 0 0 0 0 0 0 0 0 0 0 2 0 0 1 0 0 0 0 0 0 0 0 0 0 0 23 0 2 3 1 0 1 1 5 1 0 0 0 0 2 0 0 0 1 2 0 0 0 30 0 0 0 0 0 0 1 0 0 0 1 0 0 0 0 0 0 0 0 0 0 0 2 0 0 0 0 0 4 0 3 0 1 0 0 0 1 0 2 0 0 14 55 0 0 0 5 1 0 1 0 0 0 0 2 1 0 0 0 1 2 0 2 2 0 0 0 3 0 1 0 0 0 2 0 0 0 4 0 0 0 0 0 0 8 1 0 0 11 0 0 0 3 0 0 0 22 5 14 2 0 1 0 0 0 0 2 0 0 0 1 0 1 0 0 0 0 0 1 3 0 0 5 2 0 0 0 0 0 0 0 0 0 0 0 0 0 0 0 0 1 0 0 0 0 0 0 0 0 0 0 0 0 1 0 0 0 1 0 0 0 0 0 2 0 0 0 0 2 0 0 0 0 0 0 0 0 35 0 1 0 0 2 0 0 0 58 0 0 0 0 0 0 0 0 0 0 0 0 3 20 67 0 0 0 0 0 3 0 0 0 3 5 1 0 0 0 0 0 0 0 0 0 0 1 0 0 0 0 0 0 1 0 0 0 0 0 0 1 0 0 0 0 0 31 0 4 0 87 0 0 0 0 1 0 0 0 0 0 3 1 3 1 3 0 4 0 0 0 0 1 0 0 0 1 1 5 0 0 0 0 0 0 0 4 0 0 0 1 0 0 0 0 0 0 0 0 0 0 0 0 0 0 0 1 0 3 0 5 1 88 0 0 0 0 0 0 1 3 0 0 0 5 0 0 0 0 1 2 0 1 0 0 0 0 10 0 0 0 0 5 0 0 4 0 0 0 4 1 0 0 0 1 0 2 1 0 0 0 0 1 0 5 0 0 2 0 0 0 0 0 1 2 1 0 3 0 0 0 0 0 79 7 0 0 0 0 0 0 0 0 2 6 0 1 0 0 0 0 0 0 0 0 0 0 0 0 0 0 0 0 0 0 0 0 0 0 3 1 1 0 3 0 0 1 3 0 2 0 0 2 0 4 16 1 5 2 7 2 1 38 0 0 0 3 32 1 0 0 0 0 0 2 2 0 0 3 0 0 0 0 0 0 1 0 1 0 1 0 0 0 0 0 0 0 0 1 0 0 4 0 0 0 3 16 0 0 1 0 1 
Printing Sanity2
Heartbeat CPU 0 instructions: 50000000 cycles: 14158572 heartbeat IPC: 3.53324 cumulative IPC: 3.53143 (Simulation time: 0 hr 2 min 41 sec) 

Warmup complete CPU 0 instructions: 50000004 cycles: 14158573 (Simulation time: 0 hr 2 min 41 sec) 

Heartbeat CPU 0 instructions: 60000001 cycles: 47273967 heartbeat IPC: 0.301974 cumulative IPC: 0.301974 (Simulation time: 0 hr 3 min 38 sec) 
*** Reached end of trace for Core: 0 Repeating trace: traces/spec2k17/server_026.champsimtrace.xz
Heartbeat CPU 0 instructions: 70000000 cycles: 80218512 heartbeat IPC: 0.30354 cumulative IPC: 0.302755 (Simulation time: 0 hr 4 min 33 sec) 
Heartbeat CPU 0 instructions: 80000000 cycles: 113142749 heartbeat IPC: 0.303728 cumulative IPC: 0.303079 (Simulation time: 0 hr 5 min 31 sec) 
Heartbeat CPU 0 instructions: 90000003 cycles: 146028724 heartbeat IPC: 0.304081 cumulative IPC: 0.303329 (Simulation time: 0 hr 6 min 27 sec) 
Heartbeat CPU 0 instructions: 100000000 cycles: 179020408 heartbeat IPC: 0.303107 cumulative IPC: 0.303284 (Simulation time: 0 hr 7 min 19 sec) 
Heartbeat CPU 0 instructions: 110000000 cycles: 211920761 heartbeat IPC: 0.303948 cumulative IPC: 0.303395 (Simulation time: 0 hr 8 min 18 sec) 
Heartbeat CPU 0 instructions: 120000002 cycles: 244970037 heartbeat IPC: 0.302579 cumulative IPC: 0.303278 (Simulation time: 0 hr 9 min 18 sec) 
*** Reached end of trace for Core: 0 Repeating trace: traces/spec2k17/server_026.champsimtrace.xz
Heartbeat CPU 0 instructions: 130000002 cycles: 277784783 heartbeat IPC: 0.304741 cumulative IPC: 0.30346 (Simulation time: 0 hr 10 min 15 sec) 
Heartbeat CPU 0 instructions: 140000002 cycles: 310667824 heartbeat IPC: 0.304108 cumulative IPC: 0.303532 (Simulation time: 0 hr 11 min 12 sec) 
Heartbeat CPU 0 instructions: 150000000 cycles: 343542006 heartbeat IPC: 0.30419 cumulative IPC: 0.303598 (Simulation time: 0 hr 12 min 7 sec) 
Heartbeat CPU 0 instructions: 160000001 cycles: 376487182 heartbeat IPC: 0.303535 cumulative IPC: 0.303592 (Simulation time: 0 hr 12 min 58 sec) 
Heartbeat CPU 0 instructions: 170000000 cycles: 409467357 heartbeat IPC: 0.303212 cumulative IPC: 0.30356 (Simulation time: 0 hr 13 min 49 sec) 
Heartbeat CPU 0 instructions: 180000003 cycles: 442409049 heartbeat IPC: 0.303567 cumulative IPC: 0.303561 (Simulation time: 0 hr 14 min 46 sec) 
*** Reached end of trace for Core: 0 Repeating trace: traces/spec2k17/server_026.champsimtrace.xz
Heartbeat CPU 0 instructions: 190000000 cycles: 475307358 heartbeat IPC: 0.303967 cumulative IPC: 0.30359 (Simulation time: 0 hr 15 min 40 sec) 
Heartbeat CPU 0 instructions: 200000003 cycles: 508149633 heartbeat IPC: 0.304486 cumulative IPC: 0.303649 (Simulation time: 0 hr 16 min 31 sec) 
Heartbeat CPU 0 instructions: 210000000 cycles: 541070439 heartbeat IPC: 0.303759 cumulative IPC: 0.303656 (Simulation time: 0 hr 17 min 23 sec) 
Heartbeat CPU 0 instructions: 220000000 cycles: 573970410 heartbeat IPC: 0.303952 cumulative IPC: 0.303673 (Simulation time: 0 hr 18 min 24 sec) 
Heartbeat CPU 0 instructions: 230000000 cycles: 606922447 heartbeat IPC: 0.303471 cumulative IPC: 0.303662 (Simulation time: 0 hr 19 min 20 sec) 
Heartbeat CPU 0 instructions: 240000000 cycles: 639876195 heartbeat IPC: 0.303456 cumulative IPC: 0.303651 (Simulation time: 0 hr 20 min 11 sec) 
*** Reached end of trace for Core: 0 Repeating trace: traces/spec2k17/server_026.champsimtrace.xz
Heartbeat CPU 0 instructions: 250000000 cycles: 672798235 heartbeat IPC: 0.303748 cumulative IPC: 0.303656 (Simulation time: 0 hr 21 min 8 sec) 
Finished CPU 0 instructions: 200000000 cycles: 658639663 cumulative IPC: 0.303656 (Simulation time: 0 hr 21 min 8 sec) 

ChampSim completed all CPUs

Region of Interest Statistics

CPU 0 cumulative IPC: 0.303656 instructions: 200000000 cycles: 658639663
ITLB TOTAL     ACCESS:   34763226  HIT:   32752014  MISS:    2011212  HIT %:    94.2145  MISS %:    5.78546   MPKI: 10.0561
ITLB LOAD TRANSLATION ACCESS:   34763226  HIT:   32752014  MISS:    2011212  HIT %:    94.2145  MISS %:    5.78546   MPKI: 10.0561
ITLB PREFETCH  REQUESTED:          0  ISSUED:          0  USEFUL:          0  USELESS:          0
ITLB USEFUL LOAD PREFETCHES:          0 PREFETCH ISSUED TO LOWER LEVEL:          0  ACCURACY: -nan
ITLB TIMELY PREFETCHES:          0 LATE PREFETCHES: 0 DROPPED PREFETCHES: 0
ITLB PREFETCHES SAME FILL-ORIGIN LEVEL: 0 DIFFERENT FILL-ORIGIN LEVEL: 0
ITLB AVERAGE MISS LATENCY: 9.04477 cycles
ITLB RQ	ACCESS:   40946583	FORWARD:          0	MERGED:    5702557	TO_CACHE:   35244026

DTLB TOTAL     ACCESS:   46262691  HIT:   44426232  MISS:    1836459  HIT %:    96.0304  MISS %:    3.96963   MPKI: 9.18229
DTLB LOAD TRANSLATION ACCESS:   46262691  HIT:   44426232  MISS:    1836459  HIT %:    96.0304  MISS %:    3.96963   MPKI: 9.18229
DTLB PREFETCH  REQUESTED:          0  ISSUED:          0  USEFUL:          0  USELESS:          0
DTLB USEFUL LOAD PREFETCHES:          0 PREFETCH ISSUED TO LOWER LEVEL:          0  ACCURACY: -nan
DTLB TIMELY PREFETCHES:          0 LATE PREFETCHES: 0 DROPPED PREFETCHES: 0
DTLB PREFETCHES SAME FILL-ORIGIN LEVEL: 0 DIFFERENT FILL-ORIGIN LEVEL: 0
DTLB AVERAGE MISS LATENCY: 9.21015 cycles
DTLB RQ	ACCESS:   60880271	FORWARD:          0	MERGED:   14550251	TO_CACHE:   46330020

STLB TOTAL     ACCESS:    6572573  HIT:    6563747  MISS:       8826  HIT %:    99.8657  MISS %:   0.134285   MPKI: 0.04413
STLB LOAD TRANSLATION ACCESS:    3847671  HIT:    3839560  MISS:       8111  HIT %:    99.7892  MISS %:   0.210803   MPKI: 0.040555
STLB TRANSLATION FROM L1D PREFETCHER ACCESS:    2724902  HIT:    2724187  MISS:        715  HIT %:    99.9738  MISS %:  0.0262395   MPKI: 0.003575
STLB PREFETCH  REQUESTED:          0  ISSUED:          0  USEFUL:        513  USELESS:        197
STLB USEFUL LOAD PREFETCHES:        513 PREFETCH ISSUED TO LOWER LEVEL:          0  ACCURACY: inf
STLB TIMELY PREFETCHES:        513 LATE PREFETCHES: 122 DROPPED PREFETCHES: 66102
STLB PREFETCHES SAME FILL-ORIGIN LEVEL: 0 DIFFERENT FILL-ORIGIN LEVEL: 0
STLB AVERAGE MISS LATENCY: 41021.1 cycles
STLB RQ	ACCESS:    9505323	FORWARD:          0	MERGED:    2865398	TO_CACHE:    6639925

STLB Hit, L1D data hit: 0
STLB Hit, L2C data hit: 0
STLB Hit, LLC data hit: 0
STLB Hit, LLC data miss: 0
STLB STLB hints to L2: 0
L1D TOTAL     ACCESS:   63981140  HIT:   56116828  MISS:    7864312  HIT %:    87.7084  MISS %:    12.2916   MPKI: 39.3216
L1D LOAD      ACCESS:   34169382  HIT:   31374978  MISS:    2794404  HIT %:    91.8219  MISS %:    8.17809   MPKI: 13.972
L1D RFO       ACCESS:   24791258  HIT:   23634968  MISS:    1156290  HIT %:    95.3359  MISS %:     4.6641   MPKI: 5.78145
L1D PREFETCH  ACCESS:    5020500  HIT:    1106882  MISS:    3913618  HIT %:    22.0472  MISS %:    77.9528   MPKI: 19.5681
AGUS PREFETCH L1 MISS: 0
L1D PREFETCH  REQUESTED:   11469618  ISSUED:   11469553  USEFUL:     734230  USELESS:    3179345
L1D USEFUL LOAD PREFETCHES:     734230 PREFETCH ISSUED TO LOWER LEVEL:    4104353  ACCURACY: 17.8891
L1D TIMELY PREFETCHES:     734230 LATE PREFETCHES: 189194 DROPPED PREFETCHES: 67749
L1D PREFETCHES SAME FILL-ORIGIN LEVEL: 4104353 DIFFERENT FILL-ORIGIN LEVEL: 0
L1D AVERAGE MISS LATENCY: 8.30914e+06 cycles
L1D RQ	ACCESS:   47425165	FORWARD:          0	MERGED:   12844059	TO_CACHE:   34285626
L1D WQ	ACCESS:   26764780	FORWARD:     296999	MERGED:     170135	TO_CACHE:   26594645
L1D PQ	ACCESS:    5811901	FORWARD:          0	MERGED:     152730	TO_CACHE:    5657652

L1D UNIQUE REGIONS ACCESSED: 0
L1D REGIONS CONFLICTS: 0
L1D Cross Page Prefetch Requests: 3027859
L1D Same Page Prefetch Requests: 3520641
L1D ROI Sum of L1D PQ occupancy: 76649711
L1D PREFETCHES PUSHED FROM L2C: 0
L1I TOTAL     ACCESS:   39439013  HIT:   28911270  MISS:   10527743  HIT %:    73.3063  MISS %:    26.6937   MPKI: 52.6387
L1I LOAD      ACCESS:   39439013  HIT:   28911270  MISS:   10527743  HIT %:    73.3063  MISS %:    26.6937   MPKI: 52.6387
L1I PREFETCH  REQUESTED:          0  ISSUED:          0  USEFUL:          0  USELESS:          0
L1I USEFUL LOAD PREFETCHES:          0 PREFETCH ISSUED TO LOWER LEVEL:          0  ACCURACY: -nan
L1I TIMELY PREFETCHES:          0 LATE PREFETCHES: 0 DROPPED PREFETCHES: 0
L1I PREFETCHES SAME FILL-ORIGIN LEVEL: 0 DIFFERENT FILL-ORIGIN LEVEL: 0
L1I AVERAGE MISS LATENCY: 18.6603 cycles
L1I RQ	ACCESS:   57898906	FORWARD:          0	MERGED:   16952323	TO_CACHE:   40946583

BTB TOTAL     ACCESS:   29988879  HIT:   17348500  MISS:   12640379  HIT %:    57.8498  MISS %:    42.1502   MPKI: 63.2019
BTB BRANCH_DIRECT_JUMP	ACCESS:    2009046  HIT:    1127352  MISS:     881694
BTB BRANCH_INDIRECT	ACCESS:   11800647  HIT:    6994353  MISS:    4806294
BTB BRANCH_CONDITIONAL	ACCESS:    7683211  HIT:    6358422  MISS:    1324789
BTB BRANCH_DIRECT_CALL	ACCESS:    3580654  HIT:    1498237  MISS:    2082417
BTB BRANCH_INDIRECT_CALL	ACCESS:     667350  HIT:     263513  MISS:     403837
BTB BRANCH_RETURN	ACCESS:    4247971  HIT:    1106623  MISS:    3141348
BTB BRANCH_OTHER ACCESS:          0  HIT:          0  MISS:          0

L2C TOTAL     ACCESS:   20726365  HIT:   17504322  MISS:    3222043  HIT %:    84.4544  MISS %:    15.5456   MPKI: 16.1102
L2C LOAD      ACCESS:   13132832  HIT:   11169458  MISS:    1963374  HIT %:    85.0499  MISS %:    14.9501   MPKI: 9.81687
L2C DATA LOAD MPKI: 1.86952
L2C INSTRUCTION LOAD MPKI: 7.94735
L2C RFO       ACCESS:    1154698  HIT:     860997  MISS:     293701  HIT %:    74.5647  MISS %:    25.4353   MPKI: 1.4685
L2C PREFETCH  ACCESS:    4104246  HIT:    3207924  MISS:     896322  HIT %:    78.1611  MISS %:    21.8389   MPKI: 4.48161
AGUS PREFETCH L1 MISS: 0
L2C DATA PREFETCH MPKI: 4.48161
L2C INSTRUCTION PREFETCH MPKI: 0
L2C WRITEBACK ACCESS:    2225469  HIT:    2173577  MISS:      51892  HIT %:    97.6683  MISS %:    2.33173   MPKI: 0.25946
L2C LOAD TRANSLATION ACCESS:       8433  HIT:       2237  MISS:       6196  HIT %:    26.5267  MISS %:    73.4733   MPKI: 0.03098
L2C TRANSLATION FROM L1D PREFETCHER ACCESS:     100687  HIT:      90129  MISS:      10558  HIT %:     89.514  MISS %:     10.486   MPKI: 0.05279
L2C PREFETCH  REQUESTED:          0  ISSUED:          0  USEFUL:      38040  USELESS:     868755
L2C USEFUL LOAD PREFETCHES:      38040 PREFETCH ISSUED TO LOWER LEVEL:     896322  ACCURACY: 4.24401
L2C TIMELY PREFETCHES:      38040 LATE PREFETCHES: 0 DROPPED PREFETCHES: 0
L2C PREFETCHES SAME FILL-ORIGIN LEVEL: 0 DIFFERENT FILL-ORIGIN LEVEL: 0
L2C AVERAGE MISS LATENCY: 35.0954 cycles
L2C RQ	ACCESS:   14396821	FORWARD:          0	MERGED:          0	TO_CACHE:   14396650
L2C WQ	ACCESS:    2225469	FORWARD:        278	MERGED:          0	TO_CACHE:    2225469
L2C PQ	ACCESS:    4104353	FORWARD:          0	MERGED:          0	TO_CACHE:    4104246

L2C Instructions Evicting Data 731394
L2C Translations Evicting Data 10756
L2C Data Evicting Data 846864
L2C Instructions Evicting Instructions 851958
L2C Translations Evicting Instructions 5842
L2C Data Evicting Instructions 706754
L2C Instructions Evicting Translations 6119
L2C Translations Evicting Translations 156
L2C Data Evicting Translations 10308
L2C Dense regions hint from L2: 0
PSCL5 TOTAL     ACCESS:      74929  HIT:      74929  MISS:          0  HIT %:        100  MISS %:          0   MPKI: 0
PSCL5 LOAD TRANSLATION ACCESS:       7990  HIT:       7990  MISS:          0  HIT %:        100  MISS %:          0   MPKI: 0
PSCL5 TRANSLATION FROM L1D PREFETCHER ACCESS:      66939  HIT:      66939  MISS:          0  HIT %:        100  MISS %:          0   MPKI: 0
PSCL5 PREFETCH  REQUESTED:          0  ISSUED:          0  USEFUL:          0  USELESS:          0
PSCL5 USEFUL LOAD PREFETCHES:          0 PREFETCH ISSUED TO LOWER LEVEL:          0  ACCURACY: -nan
PSCL5 TIMELY PREFETCHES:          0 LATE PREFETCHES: 0 DROPPED PREFETCHES: 0
PSCL5 PREFETCHES SAME FILL-ORIGIN LEVEL: 0 DIFFERENT FILL-ORIGIN LEVEL: 0

PSCL4 TOTAL     ACCESS:      68127  HIT:      68106  MISS:         21  HIT %:    99.9692  MISS %:  0.0308248   MPKI: 0.000105
PSCL4 LOAD TRANSLATION ACCESS:       7706  HIT:       7685  MISS:         21  HIT %:    99.7275  MISS %:   0.272515   MPKI: 0.000105
PSCL4 TRANSLATION FROM L1D PREFETCHER ACCESS:      60421  HIT:      60421  MISS:          0  HIT %:        100  MISS %:          0   MPKI: 0
PSCL4 PREFETCH  REQUESTED:          0  ISSUED:          0  USEFUL:          0  USELESS:          0
PSCL4 USEFUL LOAD PREFETCHES:          0 PREFETCH ISSUED TO LOWER LEVEL:          0  ACCURACY: -nan
PSCL4 TIMELY PREFETCHES:          0 LATE PREFETCHES: 0 DROPPED PREFETCHES: 0
PSCL4 PREFETCHES SAME FILL-ORIGIN LEVEL: 0 DIFFERENT FILL-ORIGIN LEVEL: 0

PSCL3 TOTAL     ACCESS:      74561  HIT:      74540  MISS:         21  HIT %:    99.9718  MISS %:  0.0281649   MPKI: 0.000105
PSCL3 LOAD TRANSLATION ACCESS:       7849  HIT:       7828  MISS:         21  HIT %:    99.7324  MISS %:    0.26755   MPKI: 0.000105
PSCL3 TRANSLATION FROM L1D PREFETCHER ACCESS:      66712  HIT:      66712  MISS:          0  HIT %:        100  MISS %:          0   MPKI: 0
PSCL3 PREFETCH  REQUESTED:          0  ISSUED:          0  USEFUL:          0  USELESS:          0
PSCL3 USEFUL LOAD PREFETCHES:          0 PREFETCH ISSUED TO LOWER LEVEL:          0  ACCURACY: -nan
PSCL3 TIMELY PREFETCHES:          0 LATE PREFETCHES: 0 DROPPED PREFETCHES: 0
PSCL3 PREFETCHES SAME FILL-ORIGIN LEVEL: 0 DIFFERENT FILL-ORIGIN LEVEL: 0

PSCL2 TOTAL     ACCESS:      41617  HIT:      41207  MISS:        410  HIT %:    99.0148  MISS %:   0.985174   MPKI: 0.00205
PSCL2 LOAD TRANSLATION ACCESS:       7998  HIT:       7588  MISS:        410  HIT %:    94.8737  MISS %:    5.12628   MPKI: 0.00205
PSCL2 TRANSLATION FROM L1D PREFETCHER ACCESS:      33619  HIT:      33619  MISS:          0  HIT %:        100  MISS %:          0   MPKI: 0
PSCL2 PREFETCH  REQUESTED:          0  ISSUED:          0  USEFUL:          0  USELESS:          0
PSCL2 USEFUL LOAD PREFETCHES:          0 PREFETCH ISSUED TO LOWER LEVEL:          0  ACCURACY: -nan
PSCL2 TIMELY PREFETCHES:          0 LATE PREFETCHES: 0 DROPPED PREFETCHES: 0
PSCL2 PREFETCHES SAME FILL-ORIGIN LEVEL: 0 DIFFERENT FILL-ORIGIN LEVEL: 0

LLC TOTAL     ACCESS:    3587572  HIT:    3479501  MISS:     108071  HIT %:    96.9876  MISS %:    3.01237   MPKI: 0.540355
LLC LOAD      ACCESS:    1963374  HIT:    1942714  MISS:      20660  HIT %:    98.9477  MISS %:    1.05227   MPKI: 0.1033
LLC RFO       ACCESS:     293649  HIT:     246835  MISS:      46814  HIT %:    84.0578  MISS %:    15.9422   MPKI: 0.23407
LLC PREFETCH  ACCESS:     896322  HIT:     857158  MISS:      39164  HIT %:    95.6306  MISS %:    4.36941   MPKI: 0.19582
AGUS PREFETCH L1 MISS: 0
LLC WRITEBACK ACCESS:     417473  HIT:     416604  MISS:        869  HIT %:    99.7918  MISS %:   0.208157   MPKI: 0.004345
LLC LOAD TRANSLATION ACCESS:       6196  HIT:       5698  MISS:        498  HIT %:    91.9626  MISS %:    8.03744   MPKI: 0.00249
LLC TRANSLATION FROM L1D PREFETCHER ACCESS:      10558  HIT:      10492  MISS:         66  HIT %:    99.3749  MISS %:   0.625118   MPKI: 0.00033
LLC PREFETCH  REQUESTED:          0  ISSUED:          0  USEFUL:       3927  USELESS:      34328
LLC USEFUL LOAD PREFETCHES:       3927 PREFETCH ISSUED TO LOWER LEVEL:      39164  ACCURACY: 10.0271
LLC TIMELY PREFETCHES:       3927 LATE PREFETCHES: 0 DROPPED PREFETCHES: 0
LLC PREFETCHES SAME FILL-ORIGIN LEVEL: 0 DIFFERENT FILL-ORIGIN LEVEL: 0
LLC AVERAGE MISS LATENCY: 166.233 cycles
LLC RQ	ACCESS:    2273829	FORWARD:          0	MERGED:          0	TO_CACHE:    2273777
LLC WQ	ACCESS:     417473	FORWARD:         52	MERGED:          0	TO_CACHE:     417473
LLC PQ	ACCESS:     896322	FORWARD:          0	MERGED:          0	TO_CACHE:     896322

LLC Dense regions hint to LLC: 0

RAW hits: 1405467
Loads Generated: 48830632
Loads sent to L1D: 47425165
Stores Generated: 26764758
Stores sent to L1D: 26764780
Major fault: 0 Minor fault: 2264
Allocated PAGES: 2264
CPU 0 L1D 
Prefetch count 4678417 BOP and RL 

DRAM Statistics
 CHANNEL 0
 RQ ROW_BUFFER_HIT:      35978  ROW_BUFFER_MISS:      71204
 DBUS_CONGESTED:         39
 WQ ROW_BUFFER_HIT:       4562  ROW_BUFFER_MISS:      47365  FULL:          0

 AVG_CONGESTED_CYCLE: 5
 All warmup complete: 2
Channel 0 Bank busy for read cycles: 0
Channel 0 Bank busy for write cycles: 0
Channel 0
Rank 0
0banks busy for read cycles: 650202689
0banks busy for write cycles: 14113
1banks busy for read cycles: 2761541
1banks busy for write cycles: 1569722
2banks busy for read cycles: 818099
2banks busy for write cycles: 510630
3banks busy for read cycles: 621245
3banks busy for write cycles: 264754
4banks busy for read cycles: 248882
4banks busy for write cycles: 158687
5banks busy for read cycles: 200531
5banks busy for write cycles: 128338
6banks busy for read cycles: 173836
6banks busy for write cycles: 109791
7banks busy for read cycles: 159834
7banks busy for write cycles: 102603
8banks busy for read cycles: 265207
8banks busy for write cycles: 329162

CPU 0 Branch Prediction Accuracy: 99.8683% MPKI: 0.231785 Average ROB Occupancy at Mispredict: 31.6092
Branch types
NOT_BRANCH: 164806539 82.4033%
BRANCH_DIRECT_JUMP: 2009046 1.00452%
BRANCH_INDIRECT: 11800647 5.90032%
BRANCH_CONDITIONAL: 12887721 6.44386%
BRANCH_DIRECT_CALL: 3580654 1.79033%
BRANCH_INDIRECT_CALL: 667350 0.333675%
BRANCH_RETURN: 4247971 2.12399%
BRANCH_OTHER: 0 0%

DRAM PAGES: 1048576
Allocated PAGES: 2264
