
*** ChampSim Multicore Out-of-Order Simulator ***

Warmup Instructions: 50000000
Simulation Instructions: 200000000
Number of CPUs: 1
LLC sets: 2048
LLC ways: 16
Off-chip DRAM Size: 4096 MB Channels: 1 Width: 64-bit Data Rate: 6400 MT/s
CPU 0 runs traces/spec2k17/server_027.champsimtrace.xz
.xz
BTB has LRU replacement policy
ITLB has LRU replacement policy
DTLB has LRU replacement policy
STLB has LRU replacement policy
L1I has LRU replacement policy
CPU 0 l1d next line prefetcher
L1D has LRU replacement policy
Initialize SRRIP state for L2C
Initialize DRRIP state for LLC
Offsets elements: 
Potential of Offsets elements: 
rewards of Offsets elements: 
Printing Sanity1
offset list size1597
Heartbeat CPU 0 instructions: 10000000 cycles: 2830064 heartbeat IPC: 3.53349 cumulative IPC: 3.53349 (Simulation time: 0 hr 0 min 34 sec) 
Heartbeat CPU 0 instructions: 20000002 cycles: 5656964 heartbeat IPC: 3.53744 cumulative IPC: 3.53547 (Simulation time: 0 hr 1 min 7 sec) 
Heartbeat CPU 0 instructions: 30000001 cycles: 8482175 heartbeat IPC: 3.53956 cumulative IPC: 3.53683 (Simulation time: 0 hr 1 min 39 sec) 
Heartbeat CPU 0 instructions: 40000002 cycles: 11307105 heartbeat IPC: 3.53991 cumulative IPC: 3.5376 (Simulation time: 0 hr 2 min 12 sec) 
Heartbeat CPU 0 instructions: 50000002 cycles: 14131706 heartbeat IPC: 3.54032 cumulative IPC: 3.53814 (Simulation time: 0 hr 2 min 45 sec) 

Warmup complete CPU 0 instructions: 50000002 cycles: 14131706 (Simulation time: 0 hr 2 min 45 sec) 

Offsets elements: 
Potential of Offsets elements: 
rewards of Offsets elements: 0 3 0 0 155 75 0 0 0 0 0 0 1 0 0 0 0 4 0 3 0 0 0 0 0 2 0 2 1 0 1 0 0 0 0 34 2 116 0 0 29 0 1 1 0 0 1 2 2 3 0 0 0 0 0 0 1 0 0 204 1 11 1 0 4 0 1 0 9 0 6 0 1 0 0 0 0 0 0 1 0 0 1 18 1 3 2 0 1 0 0 0 0 0 0 0 0 1 1 0 0 0 1 0 1 0 0 0 0 1 2 0 1 0 1 0 17 0 1 1 84 0 0 0 0 0 3 2 0 0 0 114 0 0 0 2 0 0 0 7 0 3 2 0 0 0 3 0 0 1 1 0 32 0 0 1 0 0 0 0 0 0 0 32 1 1 0 8 0 0 40 0 0 1 0 2 1 0 1 0 0 0 0 0 0 1 4 0 0 0 0 0 0 0 3 0 0 0 1 0 0 1 0 0 0 0 0 3 75 0 0 0 0 0 0 0 0 10 3 0 33 0 0 0 13 1 0 0 0 3 5 3 6 0 127 0 0 0 0 0 0 3 0 0 0 0 6 2 0 1 0 0 0 0 0 0 0 0 0 0 0 0 0 0 1 0 0 0 2 0 0 0 0 0 0 0 0 13 0 0 0 53 0 0 0 0 0 4 2 0 1 0 0 0 0 1 0 0 0 3 0 4 0 0 0 6 23 0 0 0 0 1 0 1 0 0 0 0 0 0 0 0 0 0 0 0 0 0 0 0 0 0 0 39 18 4 0 0 0 0 3 0 0 1 28 2 0 1 2 1 4 0 29 3 38 0 3 0 0 0 0 0 0 0 0 0 0 1 2 1 37 0 0 3 0 0 0 0 0 50 0 0 65 0 0 3 2 0 0 0 0 0 2 2 0 3 3 0 0 2 0 0 0 0 0 0 0 1 0 0 0 0 0 0 3 0 0 0 0 0 0 0 0 0 0 0 1 0 0 0 0 0 0 0 0 0 0 0 6 0 0 0 0 0 0 0 5 0 0 0 1 0 0 0 0 0 0 0 0 3 0 0 0 11 1 0 0 0 5 0 2 42 1 0 0 0 0 0 0 0 0 0 0 44 2 0 0 0 0 0 0 0 0 0 1 0 0 3 1 2 1 0 0 0 0 1 94 5 2 1 0 0 0 3 1 0 0 0 0 5 0 1 0 1 0 1 5 0 0 0 0 0 0 1 1 0 5 0 1 0 2 1 0 0 1 0 1 0 0 0 1 0 1 1 3 0 0 0 0 0 2 1 0 2 0 11 0 0 0 0 0 0 0 0 0 0 0 5 0 0 0 0 0 74 60 86 0 0 9 0 0 0 0 1 1 1 0 0 0 2 0 0 0 0 2 64 1 1 0 1 17 1 0 0 0 0 1 0 0 0 0 0 10 1 0 0 0 1 0 0 1 0 0 0 0 0 0 0 0 0 0 1 20 11 0 0 9 0 0 0 2 0 4 0 3 5 1 1 0 1 2 0 2 0 0 0 1 0 0 0 0 0 0 0 0 0 0 0 0 0 0 0 0 2 4 8 5 5 0 0 2 0 0 1 0 0 3 0 0 0 0 0 0 0 0 0 0 0 0 0 9 0 0 0 1 0 0 0 0 3 1 0 0 2 0 1 3 1 2 0 7 0 0 0 35 0 0 0 0 0 2 0 0 0 0 0 0 0 0 2 0 0 0 0 2 0 0 0 0 0 0 0 0 2 0 1 0 0 3 0 0 1 0 2 0 0 0 2 0 3 0 4 2 0 1 0 0 2 0 0 0 0 0 2 0 0 1 0 0 0 0 0 0 0 1 0 0 0 56 0 0 0 0 0 0 0 0 0 0 0 0 1 0 2 0 2 1 5 0 0 4 0 0 0 0 0 1 1 7 0 0 0 0 0 0 0 0 0 0 2 0 0 0 0 0 2 0 0 0 0 0 1 0 0 1 0 0 0 0 0 0 0 2 4 1 1 2 0 0 0 0 0 0 0 0 1 0 0 0 0 0 1 0 0 0 0 0 0 0 0 0 0 0 0 1 0 0 0 0 0 0 0 0 0 0 0 0 0 1 0 0 0 0 0 2 0 0 0 0 0 0 4 0 0 0 0 0 4 0 10 0 0 0 0 0 0 0 0 0 0 0 0 0 0 0 0 0 0 0 0 1 0 0 0 0 0 0 0 3 0 0 0 1 0 0 0 0 3 1 2 0 0 0 1 1 0 0 0 0 0 6 7 0 1 1 0 3 6 3 0 0 0 0 1 0 0 0 0 43 1 0 0 11 0 1 3 0 0 0 4 3 5 2 0 1 1 0 0 0 2 0 0 60 2 0 0 0 4 5 5 1 0 3 0 0 7 0 44 0 0 0 3 0 0 0 0 1 0 0 17 0 0 1 0 24 0 1 0 1 7 0 0 0 1 1 2 0 3 1 0 0 2 0 0 0 0 1 0 0 0 0 0 0 0 0 1 2 2 1 0 0 1 2 1 0 0 0 0 0 0 0 0 0 0 2 0 0 2 0 0 0 2 2 1 0 0 0 0 0 0 0 0 0 0 0 0 0 0 3 0 2 1 0 0 0 0 1 0 96 0 0 0 0 0 0 32 0 0 0 0 0 0 0 0 0 0 0 0 1 0 0 0 0 0 3 5 3 0 1 11 1 59 4 0 1 2 0 0 2 0 0 0 0 1 0 3 0 0 0 0 53 0 0 0 0 1 1 0 0 3 2 0 1 0 0 0 1 0 0 0 5 0 0 0 0 0 4 0 0 0 2 0 0 0 0 0 6 1 0 0 0 0 0 0 0 0 0 0 0 0 0 16 1 1 2 1 0 3 0 0 0 0 1 0 0 0 0 0 0 0 1 0 0 0 0 0 0 1 0 2 5 0 0 0 0 1 0 0 0 0 0 0 0 0 0 1 0 0 0 0 0 0 0 0 0 2 3 3 0 2 0 4 0 0 2 0 0 6 3 0 2 0 0 0 2 0 0 0 2 1 0 1 0 0 0 0 0 0 0 0 1 1 0 0 0 0 0 0 0 0 0 0 0 0 0 0 0 0 0 2 2 0 0 1 0 0 0 0 0 0 0 0 0 0 2 1 0 0 1 0 0 108 14 0 0 0 0 12 0 0 1 0 0 0 0 0 0 0 0 0 2 0 0 0 0 0 0 1 0 0 5 1 0 22 1 0 1 0 1 0 0 18 0 2 0 0 0 0 1 0 0 4 0 0 1 0 0 1 0 0 0 0 1 0 0 0 0 3 0 0 0 0 0 10 0 2 0 1 2 0 0 0 1 0 1 0 0 0 1 4 4 6 1 0 0 0 0 0 8 0 0 0 0 0 0 0 1 0 0 1 0 0 7 0 0 0 0 3 0 0 0 3 1 1 0 1 0 0 0 0 0 0 0 41 3 0 0 0 0 0 3 0 0 3 0 1 0 0 0 1 0 0 1 0 2 0 0 1 0 0 1 0 0 0 4 0 0 0 0 0 0 0 0 0 0 0 0 1 0 2 0 0 0 0 0 0 0 0 0 0 0 0 6 0 0 0 0 0 0 0 0 0 0 0 0 0 0 0 2 0 0 0 0 0 0 0 0 
Printing Sanity2
Heartbeat CPU 0 instructions: 60000001 cycles: 46630130 heartbeat IPC: 0.307707 cumulative IPC: 0.307707 (Simulation time: 0 hr 3 min 37 sec) 
Heartbeat CPU 0 instructions: 70000000 cycles: 79476981 heartbeat IPC: 0.304443 cumulative IPC: 0.306066 (Simulation time: 0 hr 4 min 23 sec) 
Heartbeat CPU 0 instructions: 80000001 cycles: 112334458 heartbeat IPC: 0.304345 cumulative IPC: 0.30549 (Simulation time: 0 hr 5 min 18 sec) 
Heartbeat CPU 0 instructions: 90000001 cycles: 145501396 heartbeat IPC: 0.301505 cumulative IPC: 0.304484 (Simulation time: 0 hr 6 min 14 sec) 
Heartbeat CPU 0 instructions: 100000000 cycles: 178335943 heartbeat IPC: 0.304557 cumulative IPC: 0.304499 (Simulation time: 0 hr 7 min 4 sec) 
*** Reached end of trace for Core: 0 Repeating trace: traces/spec2k17/server_027.champsimtrace.xz
Heartbeat CPU 0 instructions: 110000000 cycles: 211181374 heartbeat IPC: 0.304456 cumulative IPC: 0.304492 (Simulation time: 0 hr 8 min 0 sec) 
Heartbeat CPU 0 instructions: 120000001 cycles: 243963953 heartbeat IPC: 0.30504 cumulative IPC: 0.30457 (Simulation time: 0 hr 8 min 51 sec) 
Heartbeat CPU 0 instructions: 130000000 cycles: 277016541 heartbeat IPC: 0.302548 cumulative IPC: 0.304316 (Simulation time: 0 hr 9 min 44 sec) 
Heartbeat CPU 0 instructions: 140000003 cycles: 309928507 heartbeat IPC: 0.303841 cumulative IPC: 0.304263 (Simulation time: 0 hr 10 min 42 sec) 
Heartbeat CPU 0 instructions: 150000001 cycles: 342801509 heartbeat IPC: 0.304201 cumulative IPC: 0.304257 (Simulation time: 0 hr 11 min 36 sec) 
Heartbeat CPU 0 instructions: 160000000 cycles: 375660860 heartbeat IPC: 0.304327 cumulative IPC: 0.304263 (Simulation time: 0 hr 12 min 33 sec) 
Heartbeat CPU 0 instructions: 170000000 cycles: 408768050 heartbeat IPC: 0.302049 cumulative IPC: 0.304077 (Simulation time: 0 hr 13 min 25 sec) 
Heartbeat CPU 0 instructions: 180000000 cycles: 441613681 heartbeat IPC: 0.304455 cumulative IPC: 0.304106 (Simulation time: 0 hr 14 min 15 sec) 
Heartbeat CPU 0 instructions: 190000001 cycles: 474612639 heartbeat IPC: 0.30304 cumulative IPC: 0.30403 (Simulation time: 0 hr 15 min 11 sec) 
Heartbeat CPU 0 instructions: 200000001 cycles: 507734673 heartbeat IPC: 0.301914 cumulative IPC: 0.303888 (Simulation time: 0 hr 16 min 4 sec) 
*** Reached end of trace for Core: 0 Repeating trace: traces/spec2k17/server_027.champsimtrace.xz
Heartbeat CPU 0 instructions: 210000000 cycles: 540489388 heartbeat IPC: 0.3053 cumulative IPC: 0.303976 (Simulation time: 0 hr 16 min 56 sec) 
Heartbeat CPU 0 instructions: 220000000 cycles: 573341979 heartbeat IPC: 0.30439 cumulative IPC: 0.304 (Simulation time: 0 hr 17 min 49 sec) 
Heartbeat CPU 0 instructions: 230000000 cycles: 606434246 heartbeat IPC: 0.302185 cumulative IPC: 0.303899 (Simulation time: 0 hr 18 min 46 sec) 
Heartbeat CPU 0 instructions: 240000001 cycles: 639320238 heartbeat IPC: 0.304081 cumulative IPC: 0.303908 (Simulation time: 0 hr 19 min 39 sec) 
Heartbeat CPU 0 instructions: 250000000 cycles: 672119867 heartbeat IPC: 0.304881 cumulative IPC: 0.303957 (Simulation time: 0 hr 20 min 32 sec) 
Finished CPU 0 instructions: 200000002 cycles: 657988187 cumulative IPC: 0.303957 (Simulation time: 0 hr 20 min 32 sec) 

ChampSim completed all CPUs

Region of Interest Statistics

CPU 0 cumulative IPC: 0.303957 instructions: 200000002 cycles: 657988187
ITLB TOTAL     ACCESS:   34703415  HIT:   32678470  MISS:    2024945  HIT %:     94.165  MISS %:      5.835   MPKI: 10.1247
ITLB LOAD TRANSLATION ACCESS:   34703415  HIT:   32678470  MISS:    2024945  HIT %:     94.165  MISS %:      5.835   MPKI: 10.1247
ITLB PREFETCH  REQUESTED:          0  ISSUED:          0  USEFUL:          0  USELESS:          0
ITLB USEFUL LOAD PREFETCHES:          0 PREFETCH ISSUED TO LOWER LEVEL:          0  ACCURACY: -nan
ITLB TIMELY PREFETCHES:          0 LATE PREFETCHES: 0 DROPPED PREFETCHES: 0
ITLB PREFETCHES SAME FILL-ORIGIN LEVEL: 0 DIFFERENT FILL-ORIGIN LEVEL: 0
ITLB AVERAGE MISS LATENCY: 9.04331 cycles
ITLB RQ	ACCESS:   40927562	FORWARD:          0	MERGED:    5740569	TO_CACHE:   35186993

DTLB TOTAL     ACCESS:   46423662  HIT:   44597689  MISS:    1825973  HIT %:    96.0667  MISS %:    3.93328   MPKI: 9.12986
DTLB LOAD TRANSLATION ACCESS:   46423662  HIT:   44597689  MISS:    1825973  HIT %:    96.0667  MISS %:    3.93328   MPKI: 9.12986
DTLB PREFETCH  REQUESTED:          0  ISSUED:          0  USEFUL:          0  USELESS:          0
DTLB USEFUL LOAD PREFETCHES:          0 PREFETCH ISSUED TO LOWER LEVEL:          0  ACCURACY: -nan
DTLB TIMELY PREFETCHES:          0 LATE PREFETCHES: 0 DROPPED PREFETCHES: 0
DTLB PREFETCHES SAME FILL-ORIGIN LEVEL: 0 DIFFERENT FILL-ORIGIN LEVEL: 0
DTLB AVERAGE MISS LATENCY: 9.23534 cycles
DTLB RQ	ACCESS:   61090430	FORWARD:          0	MERGED:   14599708	TO_CACHE:   46490722

STLB TOTAL     ACCESS:    6502732  HIT:    6494236  MISS:       8496  HIT %:    99.8693  MISS %:   0.130653   MPKI: 0.04248
STLB LOAD TRANSLATION ACCESS:    3850918  HIT:    3842815  MISS:       8103  HIT %:    99.7896  MISS %:   0.210417   MPKI: 0.040515
STLB TRANSLATION FROM L1D PREFETCHER ACCESS:    2651814  HIT:    2651421  MISS:        393  HIT %:    99.9852  MISS %:    0.01482   MPKI: 0.001965
STLB PREFETCH  REQUESTED:          0  ISSUED:          0  USEFUL:        317  USELESS:         76
STLB USEFUL LOAD PREFETCHES:        317 PREFETCH ISSUED TO LOWER LEVEL:          0  ACCURACY: inf
STLB TIMELY PREFETCHES:        317 LATE PREFETCHES: 64 DROPPED PREFETCHES: 26986
STLB PREFETCHES SAME FILL-ORIGIN LEVEL: 0 DIFFERENT FILL-ORIGIN LEVEL: 0
STLB AVERAGE MISS LATENCY: 134720 cycles
STLB RQ	ACCESS:    9141608	FORWARD:          0	MERGED:    2610034	TO_CACHE:    6531574

STLB Hit, L1D data hit: 0
STLB Hit, L2C data hit: 0
STLB Hit, LLC data hit: 0
STLB Hit, LLC data miss: 0
STLB STLB hints to L2: 0
L1D TOTAL     ACCESS:   64207526  HIT:   56439166  MISS:    7768360  HIT %:    87.9012  MISS %:    12.0988   MPKI: 38.8418
L1D LOAD      ACCESS:   34228404  HIT:   31534505  MISS:    2693899  HIT %:    92.1296  MISS %:    7.87036   MPKI: 13.4695
L1D RFO       ACCESS:   25005847  HIT:   23867469  MISS:    1138378  HIT %:    95.4476  MISS %:    4.55245   MPKI: 5.69189
L1D PREFETCH  ACCESS:    4973275  HIT:    1037192  MISS:    3936083  HIT %:    20.8553  MISS %:    79.1447   MPKI: 19.6804
AGUS PREFETCH L1 MISS: 0
L1D PREFETCH  REQUESTED:   10765652  ISSUED:   10765634  USEFUL:     697904  USELESS:    3238029
L1D USEFUL LOAD PREFETCHES:     697904 PREFETCH ISSUED TO LOWER LEVEL:    4042929  ACCURACY: 17.2623
L1D TIMELY PREFETCHES:     697904 LATE PREFETCHES: 105207 DROPPED PREFETCHES: 36715
L1D PREFETCHES SAME FILL-ORIGIN LEVEL: 4042929 DIFFERENT FILL-ORIGIN LEVEL: 0
L1D AVERAGE MISS LATENCY: 4.65308e+06 cycles
L1D RQ	ACCESS:   47485748	FORWARD:          0	MERGED:   12842934	TO_CACHE:   34341989
L1D WQ	ACCESS:   26918036	FORWARD:     301461	MERGED:     169595	TO_CACHE:   26748441
L1D PQ	ACCESS:    5474944	FORWARD:          0	MERGED:     183618	TO_CACHE:    5290690

L1D UNIQUE REGIONS ACCESSED: 0
L1D REGIONS CONFLICTS: 0
L1D Cross Page Prefetch Requests: 2759909
L1D Same Page Prefetch Requests: 3402926
L1D ROI Sum of L1D PQ occupancy: 70837319
L1D PREFETCHES PUSHED FROM L2C: 0
L1I TOTAL     ACCESS:   39396745  HIT:   28820273  MISS:   10576472  HIT %:    73.1539  MISS %:    26.8461   MPKI: 52.8824
L1I LOAD      ACCESS:   39396745  HIT:   28820273  MISS:   10576472  HIT %:    73.1539  MISS %:    26.8461   MPKI: 52.8824
L1I PREFETCH  REQUESTED:          0  ISSUED:          0  USEFUL:          0  USELESS:          0
L1I USEFUL LOAD PREFETCHES:          0 PREFETCH ISSUED TO LOWER LEVEL:          0  ACCURACY: -nan
L1I TIMELY PREFETCHES:          0 LATE PREFETCHES: 0 DROPPED PREFETCHES: 0
L1I PREFETCHES SAME FILL-ORIGIN LEVEL: 0 DIFFERENT FILL-ORIGIN LEVEL: 0
L1I AVERAGE MISS LATENCY: 18.3691 cycles
L1I RQ	ACCESS:   57977329	FORWARD:          0	MERGED:   17049767	TO_CACHE:   40927562

BTB TOTAL     ACCESS:   30075439  HIT:   17377785  MISS:   12697654  HIT %:    57.7807  MISS %:    42.2193   MPKI: 63.4883
BTB BRANCH_DIRECT_JUMP	ACCESS:    2026968  HIT:    1138640  MISS:     888328
BTB BRANCH_INDIRECT	ACCESS:   11863620  HIT:    7044030  MISS:    4819590
BTB BRANCH_CONDITIONAL	ACCESS:    7648132  HIT:    6314457  MISS:    1333675
BTB BRANCH_DIRECT_CALL	ACCESS:    3599197  HIT:    1507522  MISS:    2091675
BTB BRANCH_INDIRECT_CALL	ACCESS:     669164  HIT:     263401  MISS:     405763
BTB BRANCH_RETURN	ACCESS:    4268358  HIT:    1109735  MISS:    3158623
BTB BRANCH_OTHER ACCESS:          0  HIT:          0  MISS:          0

L2C TOTAL     ACCESS:   20615737  HIT:   17649921  MISS:    2965816  HIT %:    85.6138  MISS %:    14.3862   MPKI: 14.8291
L2C LOAD      ACCESS:   13164961  HIT:   11349674  MISS:    1815287  HIT %:    86.2112  MISS %:    13.7888   MPKI: 9.07643
L2C DATA LOAD MPKI: 1.63208
L2C INSTRUCTION LOAD MPKI: 7.44435
L2C RFO       ACCESS:    1136733  HIT:     885680  MISS:     251053  HIT %:    77.9145  MISS %:    22.0855   MPKI: 1.25526
L2C PREFETCH  ACCESS:    4042731  HIT:    3198052  MISS:     844679  HIT %:    79.1062  MISS %:    20.8938   MPKI: 4.22339
AGUS PREFETCH L1 MISS: 0
L2C DATA PREFETCH MPKI: 4.22339
L2C INSTRUCTION PREFETCH MPKI: 0
L2C WRITEBACK ACCESS:    2220539  HIT:    2178157  MISS:      42382  HIT %:    98.0914  MISS %:    1.90864   MPKI: 0.21191
L2C LOAD TRANSLATION ACCESS:       8609  HIT:       1995  MISS:       6614  HIT %:    23.1734  MISS %:    76.8266   MPKI: 0.03307
L2C TRANSLATION FROM L1D PREFETCHER ACCESS:      42164  HIT:      36363  MISS:       5801  HIT %:    86.2418  MISS %:    13.7582   MPKI: 0.029005
L2C PREFETCH  REQUESTED:          0  ISSUED:          0  USEFUL:      35569  USELESS:     814235
L2C USEFUL LOAD PREFETCHES:      35569 PREFETCH ISSUED TO LOWER LEVEL:     844679  ACCURACY: 4.21095
L2C TIMELY PREFETCHES:      35569 LATE PREFETCHES: 0 DROPPED PREFETCHES: 0
L2C PREFETCHES SAME FILL-ORIGIN LEVEL: 0 DIFFERENT FILL-ORIGIN LEVEL: 0
L2C AVERAGE MISS LATENCY: 35.7876 cycles
L2C RQ	ACCESS:   14352676	FORWARD:          0	MERGED:          0	TO_CACHE:   14352467
L2C WQ	ACCESS:    2220539	FORWARD:        407	MERGED:          0	TO_CACHE:    2220539
L2C PQ	ACCESS:    4042929	FORWARD:          0	MERGED:          0	TO_CACHE:    4042731

L2C Instructions Evicting Data 693069
L2C Translations Evicting Data 8099
L2C Data Evicting Data 741388
L2C Instructions Evicting Instructions 791342
L2C Translations Evicting Instructions 4229
L2C Data Evicting Instructions 673016
L2C Instructions Evicting Translations 4459
L2C Translations Evicting Translations 87
L2C Data Evicting Translations 7745
L2C Dense regions hint from L2: 0
PSCL5 TOTAL     ACCESS:      35489  HIT:      35489  MISS:          0  HIT %:        100  MISS %:          0   MPKI: 0
PSCL5 LOAD TRANSLATION ACCESS:       8046  HIT:       8046  MISS:          0  HIT %:        100  MISS %:          0   MPKI: 0
PSCL5 TRANSLATION FROM L1D PREFETCHER ACCESS:      27443  HIT:      27443  MISS:          0  HIT %:        100  MISS %:          0   MPKI: 0
PSCL5 PREFETCH  REQUESTED:          0  ISSUED:          0  USEFUL:          0  USELESS:          0
PSCL5 USEFUL LOAD PREFETCHES:          0 PREFETCH ISSUED TO LOWER LEVEL:          0  ACCURACY: -nan
PSCL5 TIMELY PREFETCHES:          0 LATE PREFETCHES: 0 DROPPED PREFETCHES: 0
PSCL5 PREFETCHES SAME FILL-ORIGIN LEVEL: 0 DIFFERENT FILL-ORIGIN LEVEL: 0

PSCL4 TOTAL     ACCESS:      27765  HIT:      27706  MISS:         59  HIT %:    99.7875  MISS %:   0.212498   MPKI: 0.000295
PSCL4 LOAD TRANSLATION ACCESS:       7130  HIT:       7071  MISS:         59  HIT %:    99.1725  MISS %:   0.827489   MPKI: 0.000295
PSCL4 TRANSLATION FROM L1D PREFETCHER ACCESS:      20635  HIT:      20635  MISS:          0  HIT %:        100  MISS %:          0   MPKI: 0
PSCL4 PREFETCH  REQUESTED:          0  ISSUED:          0  USEFUL:          0  USELESS:          0
PSCL4 USEFUL LOAD PREFETCHES:          0 PREFETCH ISSUED TO LOWER LEVEL:          0  ACCURACY: -nan
PSCL4 TIMELY PREFETCHES:          0 LATE PREFETCHES: 0 DROPPED PREFETCHES: 0
PSCL4 PREFETCHES SAME FILL-ORIGIN LEVEL: 0 DIFFERENT FILL-ORIGIN LEVEL: 0

PSCL3 TOTAL     ACCESS:      32564  HIT:      32505  MISS:         59  HIT %:    99.8188  MISS %:   0.181182   MPKI: 0.000295
PSCL3 LOAD TRANSLATION ACCESS:       7323  HIT:       7264  MISS:         59  HIT %:    99.1943  MISS %:   0.805681   MPKI: 0.000295
PSCL3 TRANSLATION FROM L1D PREFETCHER ACCESS:      25241  HIT:      25241  MISS:          0  HIT %:        100  MISS %:          0   MPKI: 0
PSCL3 PREFETCH  REQUESTED:          0  ISSUED:          0  USEFUL:          0  USELESS:          0
PSCL3 USEFUL LOAD PREFETCHES:          0 PREFETCH ISSUED TO LOWER LEVEL:          0  ACCURACY: -nan
PSCL3 TIMELY PREFETCHES:          0 LATE PREFETCHES: 0 DROPPED PREFETCHES: 0
PSCL3 PREFETCHES SAME FILL-ORIGIN LEVEL: 0 DIFFERENT FILL-ORIGIN LEVEL: 0

PSCL2 TOTAL     ACCESS:      22995  HIT:      22539  MISS:        456  HIT %:     98.017  MISS %:    1.98304   MPKI: 0.00228
PSCL2 LOAD TRANSLATION ACCESS:       8053  HIT:       7597  MISS:        456  HIT %:    94.3375  MISS %:    5.66249   MPKI: 0.00228
PSCL2 TRANSLATION FROM L1D PREFETCHER ACCESS:      14942  HIT:      14942  MISS:          0  HIT %:        100  MISS %:          0   MPKI: 0
PSCL2 PREFETCH  REQUESTED:          0  ISSUED:          0  USEFUL:          0  USELESS:          0
PSCL2 USEFUL LOAD PREFETCHES:          0 PREFETCH ISSUED TO LOWER LEVEL:          0  ACCURACY: -nan
PSCL2 TIMELY PREFETCHES:          0 LATE PREFETCHES: 0 DROPPED PREFETCHES: 0
PSCL2 PREFETCHES SAME FILL-ORIGIN LEVEL: 0 DIFFERENT FILL-ORIGIN LEVEL: 0

LLC TOTAL     ACCESS:    3300736  HIT:    3185917  MISS:     114819  HIT %:    96.5214  MISS %:    3.47859   MPKI: 0.574095
LLC LOAD      ACCESS:    1815287  HIT:    1795516  MISS:      19771  HIT %:    98.9109  MISS %:    1.08914   MPKI: 0.098855
LLC RFO       ACCESS:     251053  HIT:     198480  MISS:      52573  HIT %:     79.059  MISS %:     20.941   MPKI: 0.262865
LLC PREFETCH  ACCESS:     844679  HIT:     803683  MISS:      40996  HIT %:    95.1466  MISS %:    4.85344   MPKI: 0.20498
AGUS PREFETCH L1 MISS: 0
LLC WRITEBACK ACCESS:     377302  HIT:     376379  MISS:        923  HIT %:    99.7554  MISS %:   0.244632   MPKI: 0.004615
LLC LOAD TRANSLATION ACCESS:       6614  HIT:       6106  MISS:        508  HIT %:    92.3193  MISS %:    7.68068   MPKI: 0.00254
LLC TRANSLATION FROM L1D PREFETCHER ACCESS:       5801  HIT:       5753  MISS:         48  HIT %:    99.1726  MISS %:   0.827444   MPKI: 0.00024
LLC PREFETCH  REQUESTED:          0  ISSUED:          0  USEFUL:       3997  USELESS:      34769
LLC USEFUL LOAD PREFETCHES:       3997 PREFETCH ISSUED TO LOWER LEVEL:      40996  ACCURACY: 9.74973
LLC TIMELY PREFETCHES:       3997 LATE PREFETCHES: 0 DROPPED PREFETCHES: 0
LLC PREFETCHES SAME FILL-ORIGIN LEVEL: 0 DIFFERENT FILL-ORIGIN LEVEL: 0
LLC AVERAGE MISS LATENCY: 160.268 cycles
LLC RQ	ACCESS:    2078755	FORWARD:          0	MERGED:          0	TO_CACHE:    2078755
LLC WQ	ACCESS:     377302	FORWARD:          0	MERGED:          0	TO_CACHE:     377302
LLC PQ	ACCESS:     844679	FORWARD:          0	MERGED:          0	TO_CACHE:     844679

LLC Dense regions hint to LLC: 0

RAW hits: 1425058
Loads Generated: 48910806
Loads sent to L1D: 47485748
Stores Generated: 26918028
Stores sent to L1D: 26918036
Major fault: 0 Minor fault: 2582
Allocated PAGES: 2582
CPU 0 L1D 
Prefetch count 4571996 BOP and RL 

DRAM Statistics
 CHANNEL 0
 RQ ROW_BUFFER_HIT:      42575  ROW_BUFFER_MISS:      71297
 DBUS_CONGESTED:         32
 WQ ROW_BUFFER_HIT:       5282  ROW_BUFFER_MISS:      54289  FULL:          0

 AVG_CONGESTED_CYCLE: 5
 All warmup complete: 2
Channel 0 Bank busy for read cycles: 0
Channel 0 Bank busy for write cycles: 0
Channel 0
Rank 0
0banks busy for read cycles: 649428429
0banks busy for write cycles: 14567
1banks busy for read cycles: 2594396
1banks busy for write cycles: 1597196
2banks busy for read cycles: 759939
2banks busy for write cycles: 546821
3banks busy for read cycles: 648755
3banks busy for write cycles: 307826
4banks busy for read cycles: 234275
4banks busy for write cycles: 171679
5banks busy for read cycles: 196495
5banks busy for write cycles: 154256
6banks busy for read cycles: 188241
6banks busy for write cycles: 148527
7banks busy for read cycles: 186227
7banks busy for write cycles: 157827
8banks busy for read cycles: 309490
8banks busy for write cycles: 343242

CPU 0 Branch Prediction Accuracy: 99.8608% MPKI: 0.244675 Average ROB Occupancy at Mispredict: 30.7382
Branch types
NOT_BRANCH: 164851253 82.4256%
BRANCH_DIRECT_JUMP: 2026968 1.01348%
BRANCH_INDIRECT: 11863620 5.93181%
BRANCH_CONDITIONAL: 12721080 6.36054%
BRANCH_DIRECT_CALL: 3599197 1.7996%
BRANCH_INDIRECT_CALL: 669164 0.334582%
BRANCH_RETURN: 4268358 2.13418%
BRANCH_OTHER: 0 0%

DRAM PAGES: 1048576
Allocated PAGES: 2582
