
*** ChampSim Multicore Out-of-Order Simulator ***

Warmup Instructions: 50000000
Simulation Instructions: 200000000
Number of CPUs: 1
LLC sets: 2048
LLC ways: 16
Off-chip DRAM Size: 4096 MB Channels: 1 Width: 64-bit Data Rate: 6400 MT/s
CPU 0 runs traces/spec2k17/server_002.champsimtrace.xz
.xz
BTB has LRU replacement policy
ITLB has LRU replacement policy
DTLB has LRU replacement policy
STLB has LRU replacement policy
L1I has LRU replacement policy
CPU 0 l1d next line prefetcher
L1D has LRU replacement policy
Initialize SRRIP state for L2C
Initialize DRRIP state for LLC
Heartbeat CPU 0 instructions: 10000000 cycles: 2662014 heartbeat IPC: 3.75655 cumulative IPC: 3.75655 (Simulation time: 0 hr 0 min 41 sec) 
Offsets elements: 
Potential of Offsets elements: 
rewards of Offsets elements: 
Printing Sanity1
offset list size941
Heartbeat CPU 0 instructions: 20000002 cycles: 5358140 heartbeat IPC: 3.70903 cumulative IPC: 3.73264 (Simulation time: 0 hr 1 min 21 sec) 
Heartbeat CPU 0 instructions: 30000002 cycles: 8019293 heartbeat IPC: 3.75777 cumulative IPC: 3.74098 (Simulation time: 0 hr 2 min 1 sec) 
Heartbeat CPU 0 instructions: 40000002 cycles: 10681221 heartbeat IPC: 3.75668 cumulative IPC: 3.74489 (Simulation time: 0 hr 2 min 43 sec) 
Heartbeat CPU 0 instructions: 50000002 cycles: 13342686 heartbeat IPC: 3.75733 cumulative IPC: 3.74737 (Simulation time: 0 hr 3 min 22 sec) 

Warmup complete CPU 0 instructions: 50000002 cycles: 13342686 (Simulation time: 0 hr 3 min 22 sec) 

Heartbeat CPU 0 instructions: 60000002 cycles: 28330872 heartbeat IPC: 0.667192 cumulative IPC: 0.667192 (Simulation time: 0 hr 4 min 6 sec) 
Heartbeat CPU 0 instructions: 70000001 cycles: 43234627 heartbeat IPC: 0.670972 cumulative IPC: 0.669077 (Simulation time: 0 hr 4 min 55 sec) 
Heartbeat CPU 0 instructions: 80000002 cycles: 58156054 heartbeat IPC: 0.670177 cumulative IPC: 0.669443 (Simulation time: 0 hr 5 min 42 sec) 
Heartbeat CPU 0 instructions: 90000001 cycles: 73091178 heartbeat IPC: 0.669563 cumulative IPC: 0.669473 (Simulation time: 0 hr 6 min 31 sec) 
Heartbeat CPU 0 instructions: 100000002 cycles: 88036229 heartbeat IPC: 0.669118 cumulative IPC: 0.669402 (Simulation time: 0 hr 7 min 15 sec) 
Heartbeat CPU 0 instructions: 110000000 cycles: 102971060 heartbeat IPC: 0.669576 cumulative IPC: 0.669431 (Simulation time: 0 hr 8 min 4 sec) 
Heartbeat CPU 0 instructions: 120000000 cycles: 117925105 heartbeat IPC: 0.668715 cumulative IPC: 0.669329 (Simulation time: 0 hr 8 min 49 sec) 
*** Reached end of trace for Core: 0 Repeating trace: traces/spec2k17/server_002.champsimtrace.xz
Heartbeat CPU 0 instructions: 130000003 cycles: 132725662 heartbeat IPC: 0.67565 cumulative IPC: 0.670112 (Simulation time: 0 hr 9 min 39 sec) 
Heartbeat CPU 0 instructions: 140000002 cycles: 149170251 heartbeat IPC: 0.608103 cumulative IPC: 0.662605 (Simulation time: 0 hr 10 min 31 sec) 
Heartbeat CPU 0 instructions: 150000000 cycles: 164091877 heartbeat IPC: 0.670168 cumulative IPC: 0.663353 (Simulation time: 0 hr 11 min 19 sec) 
Heartbeat CPU 0 instructions: 160000000 cycles: 179271469 heartbeat IPC: 0.658779 cumulative IPC: 0.662935 (Simulation time: 0 hr 12 min 7 sec) 
Heartbeat CPU 0 instructions: 170000003 cycles: 194227623 heartbeat IPC: 0.668621 cumulative IPC: 0.663405 (Simulation time: 0 hr 12 min 55 sec) 
Heartbeat CPU 0 instructions: 180000001 cycles: 209168330 heartbeat IPC: 0.669312 cumulative IPC: 0.663856 (Simulation time: 0 hr 13 min 45 sec) 
Heartbeat CPU 0 instructions: 190000001 cycles: 224095708 heartbeat IPC: 0.66991 cumulative IPC: 0.664285 (Simulation time: 0 hr 14 min 31 sec) 
Heartbeat CPU 0 instructions: 200000001 cycles: 239010935 heartbeat IPC: 0.670456 cumulative IPC: 0.664693 (Simulation time: 0 hr 15 min 13 sec) 
Heartbeat CPU 0 instructions: 210000003 cycles: 253931022 heartbeat IPC: 0.670238 cumulative IPC: 0.665036 (Simulation time: 0 hr 16 min 4 sec) 
Heartbeat CPU 0 instructions: 220000000 cycles: 268886552 heartbeat IPC: 0.668649 cumulative IPC: 0.665248 (Simulation time: 0 hr 16 min 53 sec) 
Heartbeat CPU 0 instructions: 230000000 cycles: 283830613 heartbeat IPC: 0.669162 cumulative IPC: 0.665464 (Simulation time: 0 hr 17 min 39 sec) 
Heartbeat CPU 0 instructions: 240000002 cycles: 298776337 heartbeat IPC: 0.669088 cumulative IPC: 0.665654 (Simulation time: 0 hr 18 min 27 sec) 
*** Reached end of trace for Core: 0 Repeating trace: traces/spec2k17/server_002.champsimtrace.xz
Heartbeat CPU 0 instructions: 250000000 cycles: 313746254 heartbeat IPC: 0.668006 cumulative IPC: 0.665771 (Simulation time: 0 hr 19 min 10 sec) 
Finished CPU 0 instructions: 200000002 cycles: 300403570 cumulative IPC: 0.665771 (Simulation time: 0 hr 19 min 10 sec) 

ChampSim completed all CPUs

Region of Interest Statistics

CPU 0 cumulative IPC: 0.665771 instructions: 200000002 cycles: 300403570
ITLB TOTAL     ACCESS:   34083300  HIT:   33094501  MISS:     988799  HIT %:    97.0989  MISS %:    2.90112   MPKI: 4.94399
ITLB LOAD TRANSLATION ACCESS:   34083300  HIT:   33094501  MISS:     988799  HIT %:    97.0989  MISS %:    2.90112   MPKI: 4.94399
ITLB PREFETCH  REQUESTED:          0  ISSUED:          0  USEFUL:          0  USELESS:          0
ITLB USEFUL LOAD PREFETCHES:          0 PREFETCH ISSUED TO LOWER LEVEL:          0  ACCURACY: -nan
ITLB TIMELY PREFETCHES:          0 LATE PREFETCHES: 0 DROPPED PREFETCHES: 0
ITLB PREFETCHES SAME FILL-ORIGIN LEVEL: 0 DIFFERENT FILL-ORIGIN LEVEL: 0
ITLB AVERAGE MISS LATENCY: 9.02863 cycles
ITLB RQ	ACCESS:   38890356	FORWARD:          0	MERGED:    4661103	TO_CACHE:   34229253

DTLB TOTAL     ACCESS:   39013653  HIT:   38094761  MISS:     918892  HIT %:    97.6447  MISS %:    2.35531   MPKI: 4.59446
DTLB LOAD TRANSLATION ACCESS:   39013653  HIT:   38094761  MISS:     918892  HIT %:    97.6447  MISS %:    2.35531   MPKI: 4.59446
DTLB PREFETCH  REQUESTED:          0  ISSUED:          0  USEFUL:          0  USELESS:          0
DTLB USEFUL LOAD PREFETCHES:          0 PREFETCH ISSUED TO LOWER LEVEL:          0  ACCURACY: -nan
DTLB TIMELY PREFETCHES:          0 LATE PREFETCHES: 0 DROPPED PREFETCHES: 0
DTLB PREFETCHES SAME FILL-ORIGIN LEVEL: 0 DIFFERENT FILL-ORIGIN LEVEL: 0
DTLB AVERAGE MISS LATENCY: 9.15671 cycles
DTLB RQ	ACCESS:   57613618	FORWARD:          0	MERGED:   18514455	TO_CACHE:   39099163

STLB TOTAL     ACCESS:    1930204  HIT:    1928818  MISS:       1386  HIT %:    99.9282  MISS %:  0.0718059   MPKI: 0.00693
STLB LOAD TRANSLATION ACCESS:    1907691  HIT:    1906386  MISS:       1305  HIT %:    99.9316  MISS %:  0.0684073   MPKI: 0.006525
STLB TRANSLATION FROM L1D PREFETCHER ACCESS:      22513  HIT:      22432  MISS:         81  HIT %:    99.6402  MISS %:   0.359792   MPKI: 0.000405
STLB PREFETCH  REQUESTED:          0  ISSUED:          0  USEFUL:         81  USELESS:          0
STLB USEFUL LOAD PREFETCHES:         81 PREFETCH ISSUED TO LOWER LEVEL:          0  ACCURACY: inf
STLB TIMELY PREFETCHES:         81 LATE PREFETCHES: 14 DROPPED PREFETCHES: 198
STLB PREFETCHES SAME FILL-ORIGIN LEVEL: 0 DIFFERENT FILL-ORIGIN LEVEL: 0
STLB AVERAGE MISS LATENCY: 189281 cycles
STLB RQ	ACCESS:    1940047	FORWARD:          0	MERGED:       9565	TO_CACHE:    1930482

STLB Hit, L1D data hit: 0
STLB Hit, L2C data hit: 0
STLB Hit, LLC data hit: 0
STLB Hit, LLC data miss: 0
STLB STLB hints to L2: 0
L1D TOTAL     ACCESS:   57568367  HIT:   57486639  MISS:      81728  HIT %:     99.858  MISS %:   0.141967   MPKI: 0.40864
L1D LOAD      ACCESS:   25974548  HIT:   25943728  MISS:      30820  HIT %:    99.8813  MISS %:   0.118655   MPKI: 0.1541
L1D RFO       ACCESS:   31575728  HIT:   31540649  MISS:      35079  HIT %:    99.8889  MISS %:   0.111095   MPKI: 0.175395
L1D PREFETCH  ACCESS:      18091  HIT:       2262  MISS:      15829  HIT %:    12.5035  MISS %:    87.4965   MPKI: 0.079145
AGUS PREFETCH L1 MISS: 0
L1D PREFETCH  REQUESTED:      65611  ISSUED:      65562  USEFUL:       4684  USELESS:      11144
L1D USEFUL LOAD PREFETCHES:       4684 PREFETCH ISSUED TO LOWER LEVEL:      19570  ACCURACY: 23.9346
L1D TIMELY PREFETCHES:       4684 LATE PREFETCHES: 3738 DROPPED PREFETCHES: 245
L1D PREFETCHES SAME FILL-ORIGIN LEVEL: 19570 DIFFERENT FILL-ORIGIN LEVEL: 0
L1D AVERAGE MISS LATENCY: 7.04877e+06 cycles
L1D RQ	ACCESS:   44305336	FORWARD:          0	MERGED:   17906804	TO_CACHE:   25976995
L1D WQ	ACCESS:   31931576	FORWARD:     421538	MERGED:     294953	TO_CACHE:   31636623
L1D PQ	ACCESS:      33206	FORWARD:          0	MERGED:        849	TO_CACHE:      32356

L1D UNIQUE REGIONS ACCESSED: 0
L1D REGIONS CONFLICTS: 0
L1D Cross Page Prefetch Requests: 3501
L1D Same Page Prefetch Requests: 53718
L1D ROI Sum of L1D PQ occupancy: 1709509
L1D PREFETCHES PUSHED FROM L2C: 0
L1I TOTAL     ACCESS:   37965568  HIT:   35022354  MISS:    2943214  HIT %:    92.2477  MISS %:    7.75232   MPKI: 14.7161
L1I LOAD      ACCESS:   37965568  HIT:   35022354  MISS:    2943214  HIT %:    92.2477  MISS %:    7.75232   MPKI: 14.7161
L1I PREFETCH  REQUESTED:          0  ISSUED:          0  USEFUL:          0  USELESS:          0
L1I USEFUL LOAD PREFETCHES:          0 PREFETCH ISSUED TO LOWER LEVEL:          0  ACCURACY: -nan
L1I TIMELY PREFETCHES:          0 LATE PREFETCHES: 0 DROPPED PREFETCHES: 0
L1I PREFETCHES SAME FILL-ORIGIN LEVEL: 0 DIFFERENT FILL-ORIGIN LEVEL: 0
L1I AVERAGE MISS LATENCY: 14.4358 cycles
L1I RQ	ACCESS:   58518062	FORWARD:          0	MERGED:   19627706	TO_CACHE:   38890356

BTB TOTAL     ACCESS:   27373725  HIT:   24469526  MISS:    2904199  HIT %:    89.3906  MISS %:    10.6094   MPKI: 14.521
BTB BRANCH_DIRECT_JUMP	ACCESS:    1709698  HIT:    1678160  MISS:      31538
BTB BRANCH_INDIRECT	ACCESS:   11565575  HIT:   10530298  MISS:    1035277
BTB BRANCH_CONDITIONAL	ACCESS:    4591094  HIT:    4588736  MISS:       2358
BTB BRANCH_DIRECT_CALL	ACCESS:    4331725  HIT:    4266076  MISS:      65649
BTB BRANCH_INDIRECT_CALL	ACCESS:     421962  HIT:     358275  MISS:      63687
BTB BRANCH_RETURN	ACCESS:    4753671  HIT:    3047981  MISS:    1705690
BTB BRANCH_OTHER ACCESS:          0  HIT:          0  MISS:          0

L2C TOTAL     ACCESS:    3069412  HIT:    2985999  MISS:      83413  HIT %:    97.2824  MISS %:    2.71756   MPKI: 0.417065
L2C LOAD      ACCESS:    2970296  HIT:    2936814  MISS:      33482  HIT %:    98.8728  MISS %:    1.12723   MPKI: 0.16741
L2C DATA LOAD MPKI: 0.101875
L2C INSTRUCTION LOAD MPKI: 0.065535
L2C RFO       ACCESS:      35076  HIT:       1768  MISS:      33308  HIT %:    5.04048  MISS %:    94.9595   MPKI: 0.16654
L2C PREFETCH  ACCESS:      19570  HIT:       4575  MISS:      14995  HIT %:    23.3776  MISS %:    76.6224   MPKI: 0.074975
AGUS PREFETCH L1 MISS: 0
L2C DATA PREFETCH MPKI: 0.074975
L2C INSTRUCTION PREFETCH MPKI: 0
L2C WRITEBACK ACCESS:      42652  HIT:      41901  MISS:        751  HIT %:    98.2392  MISS %:    1.76076   MPKI: 0.003755
L2C LOAD TRANSLATION ACCESS:       1479  HIT:        702  MISS:        777  HIT %:    47.4645  MISS %:    52.5355   MPKI: 0.003885
L2C TRANSLATION FROM L1D PREFETCHER ACCESS:        339  HIT:        239  MISS:        100  HIT %:    70.5015  MISS %:    29.4985   MPKI: 0.0005
L2C PREFETCH  REQUESTED:          0  ISSUED:          0  USEFUL:        555  USELESS:      14418
L2C USEFUL LOAD PREFETCHES:        555 PREFETCH ISSUED TO LOWER LEVEL:      14995  ACCURACY: 3.70123
L2C TIMELY PREFETCHES:        555 LATE PREFETCHES: 0 DROPPED PREFETCHES: 0
L2C PREFETCHES SAME FILL-ORIGIN LEVEL: 0 DIFFERENT FILL-ORIGIN LEVEL: 0
L2C AVERAGE MISS LATENCY: 214.834 cycles
L2C RQ	ACCESS:    3007190	FORWARD:          0	MERGED:          0	TO_CACHE:    3007190
L2C WQ	ACCESS:      42652	FORWARD:          0	MERGED:          0	TO_CACHE:      42652
L2C PQ	ACCESS:      19570	FORWARD:          0	MERGED:          0	TO_CACHE:      19570

L2C Instructions Evicting Data 11140
L2C Translations Evicting Data 732
L2C Data Evicting Data 56806
L2C Instructions Evicting Instructions 1829
L2C Translations Evicting Instructions 138
L2C Data Evicting Instructions 11050
L2C Instructions Evicting Translations 138
L2C Translations Evicting Translations 7
L2C Data Evicting Translations 822
L2C Dense regions hint from L2: 0
PSCL5 TOTAL     ACCESS:       1574  HIT:       1574  MISS:          0  HIT %:        100  MISS %:          0   MPKI: 0
PSCL5 LOAD TRANSLATION ACCESS:       1291  HIT:       1291  MISS:          0  HIT %:        100  MISS %:          0   MPKI: 0
PSCL5 TRANSLATION FROM L1D PREFETCHER ACCESS:        283  HIT:        283  MISS:          0  HIT %:        100  MISS %:          0   MPKI: 0
PSCL5 PREFETCH  REQUESTED:          0  ISSUED:          0  USEFUL:          0  USELESS:          0
PSCL5 USEFUL LOAD PREFETCHES:          0 PREFETCH ISSUED TO LOWER LEVEL:          0  ACCURACY: -nan
PSCL5 TIMELY PREFETCHES:          0 LATE PREFETCHES: 0 DROPPED PREFETCHES: 0
PSCL5 PREFETCHES SAME FILL-ORIGIN LEVEL: 0 DIFFERENT FILL-ORIGIN LEVEL: 0

PSCL4 TOTAL     ACCESS:        991  HIT:        981  MISS:         10  HIT %:    98.9909  MISS %:    1.00908   MPKI: 5e-05
PSCL4 LOAD TRANSLATION ACCESS:        819  HIT:        809  MISS:         10  HIT %:     98.779  MISS %:      1.221   MPKI: 5e-05
PSCL4 TRANSLATION FROM L1D PREFETCHER ACCESS:        172  HIT:        172  MISS:          0  HIT %:        100  MISS %:          0   MPKI: 0
PSCL4 PREFETCH  REQUESTED:          0  ISSUED:          0  USEFUL:          0  USELESS:          0
PSCL4 USEFUL LOAD PREFETCHES:          0 PREFETCH ISSUED TO LOWER LEVEL:          0  ACCURACY: -nan
PSCL4 TIMELY PREFETCHES:          0 LATE PREFETCHES: 0 DROPPED PREFETCHES: 0
PSCL4 PREFETCHES SAME FILL-ORIGIN LEVEL: 0 DIFFERENT FILL-ORIGIN LEVEL: 0

PSCL3 TOTAL     ACCESS:       1488  HIT:       1478  MISS:         10  HIT %:     99.328  MISS %:   0.672043   MPKI: 5e-05
PSCL3 LOAD TRANSLATION ACCESS:       1240  HIT:       1230  MISS:         10  HIT %:    99.1935  MISS %:   0.806452   MPKI: 5e-05
PSCL3 TRANSLATION FROM L1D PREFETCHER ACCESS:        248  HIT:        248  MISS:          0  HIT %:        100  MISS %:          0   MPKI: 0
PSCL3 PREFETCH  REQUESTED:          0  ISSUED:          0  USEFUL:          0  USELESS:          0
PSCL3 USEFUL LOAD PREFETCHES:          0 PREFETCH ISSUED TO LOWER LEVEL:          0  ACCURACY: -nan
PSCL3 TIMELY PREFETCHES:          0 LATE PREFETCHES: 0 DROPPED PREFETCHES: 0
PSCL3 PREFETCHES SAME FILL-ORIGIN LEVEL: 0 DIFFERENT FILL-ORIGIN LEVEL: 0

PSCL2 TOTAL     ACCESS:       1530  HIT:       1358  MISS:        172  HIT %:    88.7582  MISS %:    11.2418   MPKI: 0.00086
PSCL2 LOAD TRANSLATION ACCESS:       1295  HIT:       1123  MISS:        172  HIT %:    86.7181  MISS %:    13.2819   MPKI: 0.00086
PSCL2 TRANSLATION FROM L1D PREFETCHER ACCESS:        235  HIT:        235  MISS:          0  HIT %:        100  MISS %:          0   MPKI: 0
PSCL2 PREFETCH  REQUESTED:          0  ISSUED:          0  USEFUL:          0  USELESS:          0
PSCL2 USEFUL LOAD PREFETCHES:          0 PREFETCH ISSUED TO LOWER LEVEL:          0  ACCURACY: -nan
PSCL2 TIMELY PREFETCHES:          0 LATE PREFETCHES: 0 DROPPED PREFETCHES: 0
PSCL2 PREFETCHES SAME FILL-ORIGIN LEVEL: 0 DIFFERENT FILL-ORIGIN LEVEL: 0

LLC TOTAL     ACCESS:     120867  HIT:      62361  MISS:      58506  HIT %:    51.5947  MISS %:    48.4053   MPKI: 0.29253
LLC LOAD      ACCESS:      33482  HIT:      12758  MISS:      20724  HIT %:    38.1041  MISS %:    61.8959   MPKI: 0.10362
LLC RFO       ACCESS:      33308  HIT:       8215  MISS:      25093  HIT %:    24.6637  MISS %:    75.3363   MPKI: 0.125465
LLC PREFETCH  ACCESS:      14995  HIT:       3299  MISS:      11696  HIT %:    22.0007  MISS %:    77.9993   MPKI: 0.05848
AGUS PREFETCH L1 MISS: 0
LLC WRITEBACK ACCESS:      38205  HIT:      37753  MISS:        452  HIT %:    98.8169  MISS %:    1.18309   MPKI: 0.00226
LLC LOAD TRANSLATION ACCESS:        777  HIT:        280  MISS:        497  HIT %:     36.036  MISS %:     63.964   MPKI: 0.002485
LLC TRANSLATION FROM L1D PREFETCHER ACCESS:        100  HIT:         56  MISS:         44  HIT %:         56  MISS %:         44   MPKI: 0.00022
LLC PREFETCH  REQUESTED:          0  ISSUED:          0  USEFUL:        525  USELESS:      10378
LLC USEFUL LOAD PREFETCHES:        525 PREFETCH ISSUED TO LOWER LEVEL:      11696  ACCURACY: 4.48871
LLC TIMELY PREFETCHES:        525 LATE PREFETCHES: 0 DROPPED PREFETCHES: 0
LLC PREFETCHES SAME FILL-ORIGIN LEVEL: 0 DIFFERENT FILL-ORIGIN LEVEL: 0
LLC AVERAGE MISS LATENCY: 263.883 cycles
LLC RQ	ACCESS:      67667	FORWARD:          0	MERGED:          0	TO_CACHE:      67667
LLC WQ	ACCESS:      38205	FORWARD:          0	MERGED:          0	TO_CACHE:      38205
LLC PQ	ACCESS:      14995	FORWARD:          0	MERGED:          0	TO_CACHE:      14995

LLC Dense regions hint to LLC: 0

RAW hits: 3793629
Loads Generated: 48098966
Loads sent to L1D: 44305336
Stores Generated: 31931560
Stores sent to L1D: 31931576
Major fault: 0 Minor fault: 2002
Allocated PAGES: 2002
CPU 0 L1D 
Prefetch count 35956 BOP and RL 

DRAM Statistics
 CHANNEL 0
 RQ ROW_BUFFER_HIT:      23977  ROW_BUFFER_MISS:      34076
 DBUS_CONGESTED:         20
 WQ ROW_BUFFER_HIT:       7864  ROW_BUFFER_MISS:      24122  FULL:          0

 AVG_CONGESTED_CYCLE: 4
 All warmup complete: 2
Channel 0 Bank busy for read cycles: 0
Channel 0 Bank busy for write cycles: 0
Channel 0
Rank 0
0banks busy for read cycles: 296448726
0banks busy for write cycles: 3237
1banks busy for read cycles: 1081016
1banks busy for write cycles: 461643
2banks busy for read cycles: 510194
2banks busy for write cycles: 298905
3banks busy for read cycles: 142447
3banks busy for write cycles: 188321
4banks busy for read cycles: 118306
4banks busy for write cycles: 112224
5banks busy for read cycles: 58877
5banks busy for write cycles: 67639
6banks busy for read cycles: 68991
6banks busy for write cycles: 49463
7banks busy for read cycles: 104678
7banks busy for write cycles: 76315
8banks busy for read cycles: 256625
8banks busy for write cycles: 355964

CPU 0 Branch Prediction Accuracy: 99.8625% MPKI: 0.21409 Average ROB Occupancy at Mispredict: 15.0142
Branch types
NOT_BRANCH: 168868799 84.4344%
BRANCH_DIRECT_JUMP: 1709698 0.854849%
BRANCH_INDIRECT: 11565575 5.78279%
BRANCH_CONDITIONAL: 8348252 4.17413%
BRANCH_DIRECT_CALL: 4331725 2.16586%
BRANCH_INDIRECT_CALL: 421962 0.210981%
BRANCH_RETURN: 4753671 2.37684%
BRANCH_OTHER: 0 0%

DRAM PAGES: 1048576
Allocated PAGES: 2002
