
*** ChampSim Multicore Out-of-Order Simulator ***

Warmup Instructions: 50000000
Simulation Instructions: 200000000
Number of CPUs: 1
LLC sets: 2048
LLC ways: 16
Off-chip DRAM Size: 4096 MB Channels: 1 Width: 64-bit Data Rate: 6400 MT/s
CPU 0 runs traces/spec2k17/server_004.champsimtrace.xz
.xz
BTB has LRU replacement policy
ITLB has LRU replacement policy
DTLB has LRU replacement policy
STLB has LRU replacement policy
L1I has LRU replacement policy
CPU 0 l1d next line prefetcher
L1D has LRU replacement policy
Initialize SRRIP state for L2C
Initialize DRRIP state for LLC
Offsets elements: 
Potential of Offsets elements: 
rewards of Offsets elements: 
Printing Sanity1
offset list size2495
Heartbeat CPU 0 instructions: 10000001 cycles: 2802960 heartbeat IPC: 3.56766 cumulative IPC: 3.56766 (Simulation time: 0 hr 0 min 32 sec) 
Heartbeat CPU 0 instructions: 20000001 cycles: 5625290 heartbeat IPC: 3.54317 cumulative IPC: 3.55537 (Simulation time: 0 hr 1 min 5 sec) 
Offsets elements: 
Potential of Offsets elements: 
rewards of Offsets elements: 0 0 5 2 0 0 0 0 0 0 0 0 0 0 0 4 2 1 0 5 0 0 0 3 0 0 0 0 0 25 0 0 0 0 0 0 0 0 0 0 0 0 0 14 2 0 51 0 0 0 0 4 0 0 0 0 0 0 0 0 0 0 8 0 0 0 0 0 0 0 0 0 0 0 0 0 0 0 0 0 0 3 0 0 0 0 0 0 5 13 139 0 0 0 0 42 53 145 0 19 0 0 0 0 0 1 1 0 0 0 0 1 0 0 0 0 0 64 50 0 0 0 101 138 0 0 0 0 0 0 0 0 61 0 0 10 0 0 0 64 49 44 14 0 1 4 0 10 0 0 27 0 0 1 0 0 0 0 0 0 0 0 0 0 1 0 0 0 0 0 0 0 0 0 0 0 0 0 0 0 0 73 1 0 0 1 0 0 0 0 0 2 0 0 0 0 0 0 0 2 0 0 0 2 0 0 1 3 0 0 0 2 0 9 0 0 0 0 0 0 0 0 0 2 0 0 0 0 1 0 0 0 0 0 0 2 0 0 0 0 0 0 0 0 0 0 0 0 0 0 0 0 0 0 0 0 0 0 5 0 0 0 12 0 0 0 0 0 0 0 1 0 0 0 17 13 0 0 0 0 0 0 0 0 0 0 0 2 0 0 0 0 6 34 0 0 0 0 0 0 0 0 0 0 17 0 0 0 0 0 0 0 0 0 0 0 0 0 0 0 0 0 0 0 25 0 2 0 0 0 0 0 0 8 3 11 0 0 0 0 0 0 0 0 0 0 0 0 0 1 0 0 0 0 0 0 0 73 0 0 0 0 0 0 0 0 0 0 0 69 0 0 0 7 0 0 6 0 0 3 5 0 0 0 0 13 0 0 0 0 83 0 0 0 30 27 0 0 0 3 0 0 0 153 0 0 0 0 0 0 0 0 0 72 0 0 0 2 0 0 0 0 0 0 0 0 2 0 0 0 0 0 0 0 3 0 0 0 0 0 0 0 0 0 0 0 0 0 0 0 0 0 0 0 0 0 0 0 0 0 0 0 0 0 0 0 0 0 9 0 0 0 0 0 0 0 0 0 0 0 0 0 0 0 0 0 0 0 0 0 0 0 0 0 0 0 0 0 0 0 0 0 0 0 0 0 0 185 0 0 0 0 0 0 0 0 0 0 0 0 0 0 0 0 0 0 0 0 0 0 0 0 0 0 0 0 0 0 0 0 0 0 0 0 0 0 0 0 0 0 0 0 0 0 0 50 0 0 0 0 0 0 0 0 0 0 0 0 0 0 0 0 0 0 0 0 0 0 443 0 0 0 0 0 16 0 0 0 0 0 0 0 0 0 0 0 0 0 0 0 0 0 0 0 0 0 0 0 0 0 0 0 0 0 0 0 0 0 0 0 0 0 0 0 0 0 0 0 0 0 0 0 0 0 0 173 0 0 0 0 0 0 0 0 0 0 0 0 386 0 0 0 0 0 0 0 0 0 0 0 0 0 0 0 0 188 0 0 0 0 0 0 0 0 0 0 0 0 0 0 0 0 0 0 0 0 0 0 0 0 0 0 0 0 0 0 0 0 0 0 0 0 0 0 0 0 0 0 0 0 0 0 0 0 0 0 0 0 0 0 0 0 0 0 0 0 0 0 0 0 0 0 0 0 0 0 0 0 0 0 0 0 0 0 0 0 0 0 0 0 0 0 0 0 0 0 0 0 0 0 0 0 0 0 0 0 0 0 0 0 0 0 0 0 0 0 0 0 0 0 0 0 0 0 0 0 0 0 0 0 0 0 0 0 0 0 0 0 0 0 0 0 0 0 0 0 0 0 0 0 0 0 0 0 0 0 0 0 0 0 0 0 0 0 0 0 0 0 0 0 0 0 0 0 0 0 0 0 0 0 0 0 0 0 0 0 0 0 12 0 0 0 0 0 0 0 0 0 0 0 0 0 0 0 0 0 0 0 0 0 0 0 0 0 0 0 0 0 154 0 0 0 0 0 0 0 0 0 0 0 0 0 0 0 0 0 0 0 0 0 0 0 158 0 0 0 0 0 0 0 0 0 0 0 0 0 0 202 0 0 0 0 0 0 0 0 0 0 0 0 0 0 0 0 0 0 0 0 0 0 0 0 0 0 0 0 0 0 339 0 0 0 0 0 0 0 0 0 0 0 0 0 0 0 0 0 0 0 0 0 0 0 342 0 0 0 0 0 0 0 0 0 0 0 0 0 0 0 0 0 0 0 0 0 0 0 0 0 0 0 0 0 0 0 0 0 0 0 0 0 0 0 0 0 0 0 0 0 0 0 0 0 18 0 0 0 0 0 0 0 0 0 0 0 0 0 0 0 0 0 0 0 0 0 0 0 0 0 0 0 0 0 0 0 0 0 0 0 0 0 0 0 0 0 0 0 0 0 0 0 0 0 0 0 0 0 0 0 0 0 0 0 0 0 0 0 0 0 0 0 0 0 0 0 0 0 0 0 0 0 0 0 0 0 0 0 0 0 0 9 0 0 0 0 0 0 0 0 0 0 0 0 0 807 0 0 0 0 0 0 0 0 0 326 0 0 0 0 188 0 0 0 0 0 0 0 0 0 0 0 0 0 0 0 0 0 0 0 0 0 0 0 0 0 0 0 0 0 0 0 0 0 0 0 0 0 0 0 0 0 0 0 0 0 0 0 0 0 0 0 0 0 0 0 0 0 0 0 0 0 0 0 0 0 0 0 0 0 0 0 0 0 0 0 0 0 0 0 0 0 0 0 0 0 0 0 0 0 0 0 0 21 0 0 0 0 0 0 0 0 0 0 0 0 0 0 0 0 0 0 0 0 0 0 0 0 0 0 0 0 0 0 0 0 0 0 0 0 0 0 0 0 0 0 0 0 0 0 0 0 0 0 0 0 0 0 0 0 0 0 0 0 0 0 0 0 0 0 0 0 0 0 0 0 0 0 0 0 0 0 0 0 0 0 0 0 0 0 0 0 0 0 0 0 0 0 0 0 0 0 0 0 0 0 0 0 0 0 0 0 0 0 0 0 0 0 0 0 0 0 0 0 0 0 0 0 0 0 0 0 0 0 0 0 0 0 0 0 0 0 0 0 0 0 0 0 0 0 0 0 0 0 0 0 0 0 0 0 0 0 0 0 0 0 0 0 0 0 0 0 0 9 0 0 0 0 0 0 0 0 0 0 0 0 0 0 0 0 0 0 0 0 0 0 0 0 0 0 0 0 0 0 0 0 0 0 0 0 0 0 0 0 0 0 0 0 0 0 0 0 0 0 0 0 0 0 0 0 0 0 0 0 0 0 0 0 0 0 0 0 0 0 0 0 0 0 0 0 0 18 0 0 0 0 0 0 0 0 0 0 0 0 0 0 0 0 0 0 0 0 0 0 0 0 0 0 0 0 0 0 0 0 0 0 0 0 0 0 0 0 0 0 0 0 0 0 0 0 0 0 0 0 0 0 0 0 0 0 0 0 0 0 0 0 0 0 0 0 0 0 0 0 0 0 0 0 0 0 0 0 0 0 0 0 0 0 0 0 0 0 0 0 0 0 0 0 0 0 0 0 0 0 0 0 0 0 0 0 0 0 0 0 0 0 0 0 0 0 0 0 0 0 0 0 0 0 0 0 0 0 0 0 0 0 0 0 0 0 0 0 0 0 0 0 0 0 0 0 0 0 0 0 0 0 0 0 0 0 0 0 0 0 0 0 0 0 0 0 0 0 0 0 0 0 0 0 0 0 0 0 0 0 0 0 0 0 0 0 0 0 0 0 0 0 0 0 0 0 0 0 0 0 0 0 0 0 0 0 0 0 0 0 0 0 0 0 0 0 0 0 0 0 0 0 0 0 0 0 0 0 0 0 0 0 0 0 0 0 0 0 0 0 0 0 75 0 0 0 0 0 0 0 0 0 0 0 0 0 0 0 0 0 0 0 0 0 0 0 0 0 0 0 0 0 0 0 0 0 0 0 0 0 306 0 0 0 0 0 0 0 0 0 0 0 0 0 0 0 0 0 0 0 0 0 0 0 0 0 0 0 0 0 0 0 0 0 0 0 0 0 0 311 0 0 0 0 0 0 0 0 0 0 0 0 0 0 0 0 0 0 0 0 0 0 0 0 0 0 0 0 0 0 0 0 0 0 0 0 0 0 0 0 0 0 0 0 0 0 0 0 0 0 0 0 0 0 0 0 0 0 0 0 0 0 0 0 0 0 0 0 0 0 0 0 0 0 0 0 0 0 0 0 0 0 0 0 0 0 355 0 0 0 0 0 0 0 0 0 0 0 243 0 0 0 0 0 0 0 0 0 0 0 0 0 0 0 0 0 0 0 0 0 0 0 0 0 0 0 0 0 0 0 0 0 0 0 0 0 0 0 0 0 0 0 0 0 0 0 0 0 42 0 0 0 0 0 0 0 0 0 0 0 0 0 0 0 0 24 0 0 0 0 0 0 0 0 0 0 0 0 0 0 0 0 0 0 0 0 0 0 0 0 0 0 0 0 0 0 0 0 0 0 0 0 0 0 0 197 0 0 0 0 0 0 0 0 0 0 0 0 0 0 0 0 0 0 0 0 0 0 0 0 0 0 0 0 0 0 0 0 0 0 0 0 0 0 0 0 0 0 414 79 0 0 0 0 0 0 0 0 0 250 0 0 0 0 0 0 0 0 0 0 0 0 0 0 0 171 0 0 0 0 0 0 0 0 0 0 0 0 0 0 0 0 0 0 0 0 0 0 0 0 0 0 0 0 0 0 0 0 0 0 0 0 0 0 0 0 0 0 0 0 0 0 0 0 0 0 0 0 0 174 0 0 0 0 0 0 0 0 0 0 0 0 0 0 0 0 0 0 0 39 0 0 0 0 0 0 0 0 0 0 0 0 0 0 0 0 0 0 0 0 0 0 0 0 0 0 0 0 0 0 0 0 0 0 0 0 0 0 0 0 0 0 0 0 0 0 0 0 0 0 0 0 0 0 0 0 0 0 0 0 0 0 0 0 0 0 0 0 0 0 0 0 0 0 0 0 0 0 0 0 0 0 0 0 0 0 0 0 0 0 0 0 0 0 0 0 0 0 0 0 0 0 0 0 0 0 0 0 0 0 0 0 0 0 0 0 0 0 0 0 0 0 0 0 0 0 0 0 0 0 0 0 155 0 0 0 0 0 0 0 0 0 0 0 0 0 0 0 0 0 0 0 0 0 0 0 0 0 0 0 0 0 0 0 0 0 0 0 0 0 0 0 0 0 0 0 0 0 0 0 0 0 0 0 0 0 0 0 0 0 0 0 0 0 0 0 0 0 0 0 0 0 0 0 0 0 0 0 0 0 0 0 0 0 0 0 0 0 0 0 0 0 0 0 0 0 0 0 0 0 0 0 0 0 0 0 0 0 0 0 0 0 0 0 0 0 0 0 0 0 0 0 0 0 0 0 0 0 0 0 0 0 0 0 0 0 0 0 0 0 0 0 0 0 0 0 0 0 0 0 0 0 0 0 0 0 0 0 0 0 0 0 0 0 0 0 0 0 0 0 0 0 0 0 0 0 0 0 0 0 0 0 0 0 0 0 0 0 0 0 0 0 0 0 0 0 0 0 0 0 0 0 0 0 0 0 0 0 0 0 0 0 0 
Printing Sanity2
Heartbeat CPU 0 instructions: 30000002 cycles: 9627998 heartbeat IPC: 2.49831 cumulative IPC: 3.11591 (Simulation time: 0 hr 1 min 57 sec) 
Heartbeat CPU 0 instructions: 40000003 cycles: 12928351 heartbeat IPC: 3.02998 cumulative IPC: 3.09398 (Simulation time: 0 hr 2 min 39 sec) 
Heartbeat CPU 0 instructions: 50000000 cycles: 15739818 heartbeat IPC: 3.55686 cumulative IPC: 3.17666 (Simulation time: 0 hr 3 min 12 sec) 

Warmup complete CPU 0 instructions: 50000004 cycles: 15739819 (Simulation time: 0 hr 3 min 12 sec) 

Heartbeat CPU 0 instructions: 60000003 cycles: 42066238 heartbeat IPC: 0.379847 cumulative IPC: 0.379847 (Simulation time: 0 hr 4 min 7 sec) 
Heartbeat CPU 0 instructions: 70000002 cycles: 68319619 heartbeat IPC: 0.380903 cumulative IPC: 0.380374 (Simulation time: 0 hr 4 min 58 sec) 
Heartbeat CPU 0 instructions: 80000002 cycles: 101084294 heartbeat IPC: 0.305207 cumulative IPC: 0.351517 (Simulation time: 0 hr 6 min 8 sec) 
Heartbeat CPU 0 instructions: 90000002 cycles: 134005161 heartbeat IPC: 0.303759 cumulative IPC: 0.338222 (Simulation time: 0 hr 7 min 22 sec) 
Heartbeat CPU 0 instructions: 100000002 cycles: 162247617 heartbeat IPC: 0.354077 cumulative IPC: 0.341279 (Simulation time: 0 hr 8 min 14 sec) 
*** Reached end of trace for Core: 0 Repeating trace: traces/spec2k17/server_004.champsimtrace.xz
Heartbeat CPU 0 instructions: 110000000 cycles: 188254204 heartbeat IPC: 0.384518 cumulative IPC: 0.347797 (Simulation time: 0 hr 9 min 7 sec) 
Heartbeat CPU 0 instructions: 120000000 cycles: 213899213 heartbeat IPC: 0.389939 cumulative IPC: 0.353251 (Simulation time: 0 hr 10 min 1 sec) 
Heartbeat CPU 0 instructions: 130000000 cycles: 247706217 heartbeat IPC: 0.295797 cumulative IPC: 0.344878 (Simulation time: 0 hr 11 min 12 sec) 
Heartbeat CPU 0 instructions: 140000002 cycles: 280187131 heartbeat IPC: 0.307873 cumulative IPC: 0.340332 (Simulation time: 0 hr 12 min 25 sec) 
Heartbeat CPU 0 instructions: 150000003 cycles: 306494486 heartbeat IPC: 0.380122 cumulative IPC: 0.343933 (Simulation time: 0 hr 13 min 17 sec) 
Heartbeat CPU 0 instructions: 160000000 cycles: 332631600 heartbeat IPC: 0.382598 cumulative IPC: 0.347122 (Simulation time: 0 hr 14 min 11 sec) 
Heartbeat CPU 0 instructions: 170000001 cycles: 358607492 heartbeat IPC: 0.384972 cumulative IPC: 0.349989 (Simulation time: 0 hr 15 min 6 sec) 
Heartbeat CPU 0 instructions: 180000000 cycles: 388526117 heartbeat IPC: 0.33424 cumulative IPC: 0.348725 (Simulation time: 0 hr 16 min 4 sec) 
Heartbeat CPU 0 instructions: 190000000 cycles: 424203147 heartbeat IPC: 0.280292 cumulative IPC: 0.342748 (Simulation time: 0 hr 17 min 27 sec) 
Heartbeat CPU 0 instructions: 200000000 cycles: 451304850 heartbeat IPC: 0.36898 cumulative IPC: 0.34438 (Simulation time: 0 hr 18 min 20 sec) 
*** Reached end of trace for Core: 0 Repeating trace: traces/spec2k17/server_004.champsimtrace.xz
Heartbeat CPU 0 instructions: 210000000 cycles: 477563284 heartbeat IPC: 0.38083 cumulative IPC: 0.346453 (Simulation time: 0 hr 19 min 11 sec) 
Heartbeat CPU 0 instructions: 220000000 cycles: 503406229 heartbeat IPC: 0.386953 cumulative IPC: 0.348599 (Simulation time: 0 hr 20 min 7 sec) 
Heartbeat CPU 0 instructions: 230000000 cycles: 533652615 heartbeat IPC: 0.330618 cumulative IPC: 0.347549 (Simulation time: 0 hr 21 min 7 sec) 
Heartbeat CPU 0 instructions: 240000002 cycles: 568553873 heartbeat IPC: 0.286523 cumulative IPC: 0.343696 (Simulation time: 0 hr 22 min 34 sec) 
Heartbeat CPU 0 instructions: 250000001 cycles: 594864873 heartbeat IPC: 0.380069 cumulative IPC: 0.345349 (Simulation time: 0 hr 23 min 31 sec) 
Finished CPU 0 instructions: 200000001 cycles: 579125055 cumulative IPC: 0.345349 (Simulation time: 0 hr 23 min 31 sec) 

ChampSim completed all CPUs

Region of Interest Statistics

CPU 0 cumulative IPC: 0.345349 instructions: 200000001 cycles: 579125055
ITLB TOTAL     ACCESS:   36044658  HIT:   35388283  MISS:     656375  HIT %:     98.179  MISS %:      1.821   MPKI: 3.28187
ITLB LOAD TRANSLATION ACCESS:   36044658  HIT:   35388283  MISS:     656375  HIT %:     98.179  MISS %:      1.821   MPKI: 3.28187
ITLB PREFETCH  REQUESTED:          0  ISSUED:          0  USEFUL:          0  USELESS:          0
ITLB USEFUL LOAD PREFETCHES:          0 PREFETCH ISSUED TO LOWER LEVEL:          0  ACCURACY: -nan
ITLB TIMELY PREFETCHES:          0 LATE PREFETCHES: 0 DROPPED PREFETCHES: 0
ITLB PREFETCHES SAME FILL-ORIGIN LEVEL: 0 DIFFERENT FILL-ORIGIN LEVEL: 0
ITLB AVERAGE MISS LATENCY: 17.9917 cycles
ITLB RQ	ACCESS:   41939891	FORWARD:          0	MERGED:    5742282	TO_CACHE:   36197609

DTLB TOTAL     ACCESS:   42209891  HIT:   36148378  MISS:    6061513  HIT %:    85.6396  MISS %:    14.3604   MPKI: 30.3076
DTLB LOAD TRANSLATION ACCESS:   42209891  HIT:   36148378  MISS:    6061513  HIT %:    85.6396  MISS %:    14.3604   MPKI: 30.3076
DTLB PREFETCH  REQUESTED:          0  ISSUED:          0  USEFUL:          0  USELESS:          0
DTLB USEFUL LOAD PREFETCHES:          0 PREFETCH ISSUED TO LOWER LEVEL:          0  ACCURACY: -nan
DTLB TIMELY PREFETCHES:          0 LATE PREFETCHES: 0 DROPPED PREFETCHES: 0
DTLB PREFETCHES SAME FILL-ORIGIN LEVEL: 0 DIFFERENT FILL-ORIGIN LEVEL: 0
DTLB AVERAGE MISS LATENCY: 11.0832 cycles
DTLB RQ	ACCESS:   55487406	FORWARD:          0	MERGED:   13115639	TO_CACHE:   42371767

STLB TOTAL     ACCESS:   13660724  HIT:   13177297  MISS:     483427  HIT %:    96.4612  MISS %:    3.53881   MPKI: 2.41713
STLB LOAD TRANSLATION ACCESS:    6717888  HIT:    6304165  MISS:     413723  HIT %:    93.8415  MISS %:    6.15853   MPKI: 2.06861
STLB TRANSLATION FROM L1D PREFETCHER ACCESS:    6942836  HIT:    6873132  MISS:      69704  HIT %:     98.996  MISS %:    1.00397   MPKI: 0.34852
STLB PREFETCH  REQUESTED:          0  ISSUED:          0  USEFUL:      51607  USELESS:      18096
STLB USEFUL LOAD PREFETCHES:      51607 PREFETCH ISSUED TO LOWER LEVEL:          0  ACCURACY: inf
STLB TIMELY PREFETCHES:      51607 LATE PREFETCHES: 565 DROPPED PREFETCHES: 2042147
STLB PREFETCHES SAME FILL-ORIGIN LEVEL: 0 DIFFERENT FILL-ORIGIN LEVEL: 0
STLB AVERAGE MISS LATENCY: 24420.8 cycles
STLB RQ	ACCESS:   20911293	FORWARD:          0	MERGED:    5143695	TO_CACHE:   15767598

STLB Hit, L1D data hit: 0
STLB Hit, L2C data hit: 0
STLB Hit, LLC data hit: 0
STLB Hit, LLC data miss: 0
STLB STLB hints to L2: 0
L1D TOTAL     ACCESS:   64046214  HIT:   49315467  MISS:   14730747  HIT %:    76.9998  MISS %:    23.0002   MPKI: 73.6537
L1D LOAD      ACCESS:   36590197  HIT:   29544147  MISS:    7046050  HIT %:    80.7433  MISS %:    19.2567   MPKI: 35.2302
L1D RFO       ACCESS:   18338435  HIT:   17915170  MISS:     423265  HIT %:    97.6919  MISS %:    2.30808   MPKI: 2.11632
L1D PREFETCH  ACCESS:    9117582  HIT:    1856150  MISS:    7261432  HIT %:    20.3579  MISS %:    79.6421   MPKI: 36.3072
AGUS PREFETCH L1 MISS: 0
L1D PREFETCH  REQUESTED:   28468145  ISSUED:   28462857  USEFUL:    1125349  USELESS:    6136037
L1D USEFUL LOAD PREFETCHES:    1125349 PREFETCH ISSUED TO LOWER LEVEL:    7290031  ACCURACY: 15.4368
L1D TIMELY PREFETCHES:    1125349 LATE PREFETCHES: 27249 DROPPED PREFETCHES: 3426420
L1D PREFETCHES SAME FILL-ORIGIN LEVEL: 7290031 DIFFERENT FILL-ORIGIN LEVEL: 0
L1D AVERAGE MISS LATENCY: 601174 cycles
L1D RQ	ACCESS:   50268331	FORWARD:          0	MERGED:   13368944	TO_CACHE:   36692169
L1D WQ	ACCESS:   19208837	FORWARD:     207673	MERGED:     413600	TO_CACHE:   18795237
L1D PQ	ACCESS:   14269452	FORWARD:          0	MERGED:      75592	TO_CACHE:   14193405

L1D UNIQUE REGIONS ACCESSED: 0
L1D REGIONS CONFLICTS: 0
L1D Cross Page Prefetch Requests: 7950164
L1D Same Page Prefetch Requests: 8956322
L1D ROI Sum of L1D PQ occupancy: 315017718
L1D PREFETCHES PUSHED FROM L2C: 0
L1I TOTAL     ACCESS:   40806316  HIT:   36839206  MISS:    3967110  HIT %:    90.2782  MISS %:     9.7218   MPKI: 19.8355
L1I LOAD      ACCESS:   40806316  HIT:   36839206  MISS:    3967110  HIT %:    90.2782  MISS %:     9.7218   MPKI: 19.8355
L1I PREFETCH  REQUESTED:          0  ISSUED:          0  USEFUL:          0  USELESS:          0
L1I USEFUL LOAD PREFETCHES:          0 PREFETCH ISSUED TO LOWER LEVEL:          0  ACCURACY: -nan
L1I TIMELY PREFETCHES:          0 LATE PREFETCHES: 0 DROPPED PREFETCHES: 0
L1I PREFETCHES SAME FILL-ORIGIN LEVEL: 0 DIFFERENT FILL-ORIGIN LEVEL: 0
L1I AVERAGE MISS LATENCY: 33.8996 cycles
L1I RQ	ACCESS:   63248124	FORWARD:          0	MERGED:   21308233	TO_CACHE:   41939891

BTB TOTAL     ACCESS:   31141352  HIT:   26161617  MISS:    4979735  HIT %:    84.0093  MISS %:    15.9907   MPKI: 24.8987
BTB BRANCH_DIRECT_JUMP	ACCESS:    2108913  HIT:    1851367  MISS:     257546
BTB BRANCH_INDIRECT	ACCESS:   15497831  HIT:   13163717  MISS:    2334114
BTB BRANCH_CONDITIONAL	ACCESS:    5913619  HIT:    5539694  MISS:     373925
BTB BRANCH_DIRECT_CALL	ACCESS:    3023382  HIT:    2531697  MISS:     491685
BTB BRANCH_INDIRECT_CALL	ACCESS:     781117  HIT:     658398  MISS:     122719
BTB BRANCH_RETURN	ACCESS:    3816490  HIT:    2416744  MISS:    1399746
BTB BRANCH_OTHER ACCESS:          0  HIT:          0  MISS:          0

L2C TOTAL     ACCESS:   23044392  HIT:   18387848  MISS:    4656544  HIT %:    79.7932  MISS %:    20.2068   MPKI: 23.2827
L2C LOAD      ACCESS:   10985841  HIT:    8132285  MISS:    2853556  HIT %:    74.0251  MISS %:    25.9749   MPKI: 14.2678
L2C DATA LOAD MPKI: 4.29244
L2C INSTRUCTION LOAD MPKI: 9.97534
L2C RFO       ACCESS:     421896  HIT:     240586  MISS:     181310  HIT %:     57.025  MISS %:     42.975   MPKI: 0.90655
L2C PREFETCH  ACCESS:    7289962  HIT:    5947504  MISS:    1342458  HIT %:    81.5848  MISS %:    18.4152   MPKI: 6.71229
AGUS PREFETCH L1 MISS: 0
L2C DATA PREFETCH MPKI: 6.71229
L2C INSTRUCTION PREFETCH MPKI: 0
L2C WRITEBACK ACCESS:     968915  HIT:     931101  MISS:      37814  HIT %:    96.0973  MISS %:    3.90272   MPKI: 0.18907
L2C LOAD TRANSLATION ACCESS:     524811  HIT:     330847  MISS:     193964  HIT %:    63.0412  MISS %:    36.9588   MPKI: 0.96982
L2C TRANSLATION FROM L1D PREFETCHER ACCESS:    2852967  HIT:    2805525  MISS:      47442  HIT %:    98.3371  MISS %:     1.6629   MPKI: 0.23721
L2C PREFETCH  REQUESTED:          0  ISSUED:          0  USEFUL:      75851  USELESS:    1313928
L2C USEFUL LOAD PREFETCHES:      75851 PREFETCH ISSUED TO LOWER LEVEL:    1342461  ACCURACY: 5.65015
L2C TIMELY PREFETCHES:      75851 LATE PREFETCHES: 3 DROPPED PREFETCHES: 0
L2C PREFETCHES SAME FILL-ORIGIN LEVEL: 0 DIFFERENT FILL-ORIGIN LEVEL: 0
L2C AVERAGE MISS LATENCY: 54.3618 cycles
L2C RQ	ACCESS:   14785604	FORWARD:          0	MERGED:          0	TO_CACHE:   14785515
L2C WQ	ACCESS:     968915	FORWARD:        155	MERGED:          0	TO_CACHE:     968915
L2C PQ	ACCESS:    7290031	FORWARD:          0	MERGED:          0	TO_CACHE:    7289965

L2C Instructions Evicting Data 1027101
L2C Translations Evicting Data 125077
L2C Data Evicting Data 1248066
L2C Instructions Evicting Instructions 866020
L2C Translations Evicting Instructions 102525
L2C Data Evicting Instructions 1010753
L2C Instructions Evicting Translations 101947
L2C Translations Evicting Translations 13804
L2C Data Evicting Translations 123437
L2C Dense regions hint from L2: 0
PSCL5 TOTAL     ACCESS:    2525581  HIT:    2525581  MISS:          0  HIT %:        100  MISS %:          0   MPKI: 0
PSCL5 LOAD TRANSLATION ACCESS:     413165  HIT:     413165  MISS:          0  HIT %:        100  MISS %:          0   MPKI: 0
PSCL5 TRANSLATION FROM L1D PREFETCHER ACCESS:    2112416  HIT:    2112416  MISS:          0  HIT %:        100  MISS %:          0   MPKI: 0
PSCL5 PREFETCH  REQUESTED:          0  ISSUED:          0  USEFUL:          0  USELESS:          0
PSCL5 USEFUL LOAD PREFETCHES:          0 PREFETCH ISSUED TO LOWER LEVEL:          0  ACCURACY: -nan
PSCL5 TIMELY PREFETCHES:          0 LATE PREFETCHES: 0 DROPPED PREFETCHES: 0
PSCL5 PREFETCHES SAME FILL-ORIGIN LEVEL: 0 DIFFERENT FILL-ORIGIN LEVEL: 0

PSCL4 TOTAL     ACCESS:    1791811  HIT:    1790821  MISS:        990  HIT %:    99.9447  MISS %:  0.0552514   MPKI: 0.00495
PSCL4 LOAD TRANSLATION ACCESS:     395544  HIT:     394554  MISS:        990  HIT %:    99.7497  MISS %:   0.250288   MPKI: 0.00495
PSCL4 TRANSLATION FROM L1D PREFETCHER ACCESS:    1396267  HIT:    1396267  MISS:          0  HIT %:        100  MISS %:          0   MPKI: 0
PSCL4 PREFETCH  REQUESTED:          0  ISSUED:          0  USEFUL:          0  USELESS:          0
PSCL4 USEFUL LOAD PREFETCHES:          0 PREFETCH ISSUED TO LOWER LEVEL:          0  ACCURACY: -nan
PSCL4 TIMELY PREFETCHES:          0 LATE PREFETCHES: 0 DROPPED PREFETCHES: 0
PSCL4 PREFETCHES SAME FILL-ORIGIN LEVEL: 0 DIFFERENT FILL-ORIGIN LEVEL: 0

PSCL3 TOTAL     ACCESS:    2518260  HIT:    2515705  MISS:       2555  HIT %:    99.8985  MISS %:   0.101459   MPKI: 0.012775
PSCL3 LOAD TRANSLATION ACCESS:     411282  HIT:     408727  MISS:       2555  HIT %:    99.3788  MISS %:   0.621228   MPKI: 0.012775
PSCL3 TRANSLATION FROM L1D PREFETCHER ACCESS:    2106978  HIT:    2106978  MISS:          0  HIT %:        100  MISS %:          0   MPKI: 0
PSCL3 PREFETCH  REQUESTED:          0  ISSUED:          0  USEFUL:          0  USELESS:          0
PSCL3 USEFUL LOAD PREFETCHES:          0 PREFETCH ISSUED TO LOWER LEVEL:          0  ACCURACY: -nan
PSCL3 TIMELY PREFETCHES:          0 LATE PREFETCHES: 0 DROPPED PREFETCHES: 0
PSCL3 PREFETCHES SAME FILL-ORIGIN LEVEL: 0 DIFFERENT FILL-ORIGIN LEVEL: 0

PSCL2 TOTAL     ACCESS:    1789887  HIT:    1675856  MISS:     114031  HIT %:    93.6292  MISS %:    6.37085   MPKI: 0.570155
PSCL2 LOAD TRANSLATION ACCESS:     418883  HIT:     304852  MISS:     114031  HIT %:    72.7774  MISS %:    27.2226   MPKI: 0.570155
PSCL2 TRANSLATION FROM L1D PREFETCHER ACCESS:    1371004  HIT:    1371004  MISS:          0  HIT %:        100  MISS %:          0   MPKI: 0
PSCL2 PREFETCH  REQUESTED:          0  ISSUED:          0  USEFUL:          0  USELESS:          0
PSCL2 USEFUL LOAD PREFETCHES:          0 PREFETCH ISSUED TO LOWER LEVEL:          0  ACCURACY: -nan
PSCL2 TIMELY PREFETCHES:          0 LATE PREFETCHES: 0 DROPPED PREFETCHES: 0
PSCL2 PREFETCHES SAME FILL-ORIGIN LEVEL: 0 DIFFERENT FILL-ORIGIN LEVEL: 0

LLC TOTAL     ACCESS:    5077094  HIT:    4325136  MISS:     751958  HIT %:    85.1892  MISS %:    14.8108   MPKI: 3.75979
LLC LOAD      ACCESS:    2853550  HIT:    2568354  MISS:     285196  HIT %:    90.0056  MISS %:    9.99443   MPKI: 1.42598
LLC RFO       ACCESS:     181310  HIT:     113060  MISS:      68250  HIT %:    62.3573  MISS %:    37.6427   MPKI: 0.34125
LLC PREFETCH  ACCESS:    1342453  HIT:    1014155  MISS:     328298  HIT %:    75.5449  MISS %:    24.4551   MPKI: 1.64149
AGUS PREFETCH L1 MISS: 0
LLC WRITEBACK ACCESS:     458375  HIT:     405678  MISS:      52697  HIT %:    88.5035  MISS %:    11.4965   MPKI: 0.263485
LLC LOAD TRANSLATION ACCESS:     193964  HIT:     179553  MISS:      14411  HIT %:    92.5703  MISS %:    7.42973   MPKI: 0.072055
LLC TRANSLATION FROM L1D PREFETCHER ACCESS:      47442  HIT:      44336  MISS:       3106  HIT %:    93.4531  MISS %:    6.54694   MPKI: 0.01553
LLC PREFETCH  REQUESTED:          0  ISSUED:          0  USEFUL:      13196  USELESS:     321017
LLC USEFUL LOAD PREFETCHES:      13196 PREFETCH ISSUED TO LOWER LEVEL:     328298  ACCURACY: 4.01952
LLC TIMELY PREFETCHES:      13196 LATE PREFETCHES: 0 DROPPED PREFETCHES: 0
LLC PREFETCHES SAME FILL-ORIGIN LEVEL: 0 DIFFERENT FILL-ORIGIN LEVEL: 0
LLC AVERAGE MISS LATENCY: 152.325 cycles
LLC RQ	ACCESS:    3276269	FORWARD:          0	MERGED:          0	TO_CACHE:    3276266
LLC WQ	ACCESS:     458375	FORWARD:         11	MERGED:          0	TO_CACHE:     458375
LLC PQ	ACCESS:    1342461	FORWARD:          0	MERGED:          0	TO_CACHE:    1342453

LLC Dense regions hint to LLC: 0

RAW hits: 2492726
Loads Generated: 52761057
Loads sent to L1D: 50268331
Stores Generated: 19208830
Stores sent to L1D: 19208837
Major fault: 0 Minor fault: 7943
Allocated PAGES: 7943
CPU 0 L1D 
Prefetch count 8778719 BOP and RL 

DRAM Statistics
 CHANNEL 0
 RQ ROW_BUFFER_HIT:     141303  ROW_BUFFER_MISS:     557956
 DBUS_CONGESTED:        267
 WQ ROW_BUFFER_HIT:      29012  ROW_BUFFER_MISS:     170279  FULL:          0

 AVG_CONGESTED_CYCLE: 4
 All warmup complete: 2
Channel 0 Bank busy for read cycles: 0
Channel 0 Bank busy for write cycles: 0
Channel 0
Rank 0
0banks busy for read cycles: 491406212
0banks busy for write cycles: 115191
1banks busy for read cycles: 44084353
1banks busy for write cycles: 16287331
2banks busy for read cycles: 15804988
2banks busy for write cycles: 4407674
3banks busy for read cycles: 2684265
3banks busy for write cycles: 1388858
4banks busy for read cycles: 861224
4banks busy for write cycles: 609305
5banks busy for read cycles: 257375
5banks busy for write cycles: 337057
6banks busy for read cycles: 119141
6banks busy for write cycles: 210557
7banks busy for read cycles: 86839
7banks busy for write cycles: 154706
8banks busy for read cycles: 124540
8banks busy for write cycles: 185440

CPU 0 Branch Prediction Accuracy: 98.8897% MPKI: 2.2922 Average ROB Occupancy at Mispredict: 14.9207
Branch types
NOT_BRANCH: 158710081 79.355%
BRANCH_DIRECT_JUMP: 2108913 1.05446%
BRANCH_INDIRECT: 15497831 7.74892%
BRANCH_CONDITIONAL: 16061872 8.03094%
BRANCH_DIRECT_CALL: 3023382 1.51169%
BRANCH_INDIRECT_CALL: 781117 0.390558%
BRANCH_RETURN: 3816490 1.90824%
BRANCH_OTHER: 0 0%

DRAM PAGES: 1048576
Allocated PAGES: 7943
