
*** ChampSim Multicore Out-of-Order Simulator ***

Warmup Instructions: 50000000
Simulation Instructions: 200000000
Number of CPUs: 1
LLC sets: 2048
LLC ways: 16
Off-chip DRAM Size: 4096 MB Channels: 1 Width: 64-bit Data Rate: 6400 MT/s
CPU 0 runs traces/spec2k17/server_016.champsimtrace.xz
.xz
BTB has LRU replacement policy
ITLB has LRU replacement policy
DTLB has LRU replacement policy
STLB has LRU replacement policy
L1I has LRU replacement policy
CPU 0 l1d next line prefetcher
L1D has LRU replacement policy
Initialize SRRIP state for L2C
Initialize DRRIP state for LLC
Offsets elements: 
Potential of Offsets elements: 
rewards of Offsets elements: 
Printing Sanity1
offset list size1594
Heartbeat CPU 0 instructions: 10000001 cycles: 2821823 heartbeat IPC: 3.54381 cumulative IPC: 3.54381 (Simulation time: 0 hr 0 min 32 sec) 
Heartbeat CPU 0 instructions: 20000001 cycles: 5638931 heartbeat IPC: 3.54974 cumulative IPC: 3.54677 (Simulation time: 0 hr 1 min 7 sec) 
Heartbeat CPU 0 instructions: 30000000 cycles: 8452846 heartbeat IPC: 3.55377 cumulative IPC: 3.5491 (Simulation time: 0 hr 1 min 40 sec) 
Heartbeat CPU 0 instructions: 40000000 cycles: 11560829 heartbeat IPC: 3.21752 cumulative IPC: 3.45996 (Simulation time: 0 hr 2 min 2 sec) 
Heartbeat CPU 0 instructions: 50000001 cycles: 14827303 heartbeat IPC: 3.06141 cumulative IPC: 3.37216 (Simulation time: 0 hr 2 min 15 sec) 

Warmup complete CPU 0 instructions: 50000001 cycles: 14827303 (Simulation time: 0 hr 2 min 15 sec) 

Heartbeat CPU 0 instructions: 60000001 cycles: 29265334 heartbeat IPC: 0.692615 cumulative IPC: 0.692615 (Simulation time: 0 hr 2 min 50 sec) 
Heartbeat CPU 0 instructions: 70000001 cycles: 59349577 heartbeat IPC: 0.3324 cumulative IPC: 0.449213 (Simulation time: 0 hr 3 min 47 sec) 
Heartbeat CPU 0 instructions: 80000000 cycles: 90419411 heartbeat IPC: 0.321856 cumulative IPC: 0.396867 (Simulation time: 0 hr 4 min 35 sec) 
Offsets elements: 
Potential of Offsets elements: 
rewards of Offsets elements: 0 1 0 0 0 2 0 0 1 0 2 327 0 0 1 0 0 0 0 0 1 2 0 0 0 0 0 0 1 0 0 0 4 0 0 0 2 0 1 0 34 13 1 1 1 0 0 0 0 3 4 0 0 0 0 4 7 2 1 81 0 129 0 1 0 0 0 0 0 0 0 0 1 2 40 0 0 0 0 0 0 9 0 0 0 28 15 0 0 0 0 0 0 0 0 12 12 1 1 2 0 3 0 1 0 20 35 1 0 1 0 0 143 0 3 0 0 0 102 0 0 0 0 0 0 0 0 0 0 0 0 0 0 1 2 1 0 0 0 84 0 0 0 1 0 0 0 2 0 0 0 21 1 1 41 0 0 0 0 4 0 0 0 0 0 0 1 0 1 0 0 0 0 0 0 3 0 0 2 19 0 0 0 0 0 0 105 1 38 0 0 0 91 0 0 4 1 1 0 1 0 0 0 0 2 2 0 0 0 0 0 0 0 0 0 0 0 1 1 2 0 0 0 0 0 0 0 0 0 0 0 0 0 0 0 5 64 0 0 3 0 0 0 2 0 0 0 28 0 0 0 0 1 0 93 1 36 0 0 1 1 0 0 3 4 0 2 0 1 2 0 1 2 0 23 2 2 5 0 0 0 0 0 0 0 0 0 2 2 5 1 1 0 1 0 0 0 0 0 1 0 0 0 0 2 3 3 58 0 0 0 0 0 0 0 0 0 4 0 0 0 1 0 83 5 3 0 0 0 1 0 0 74 0 1 1 0 1 0 0 1 0 0 0 0 2 0 0 1 0 2 0 0 0 54 6 0 25 161 2 2 0 1 0 0 1 0 0 0 0 2 2 0 0 0 0 0 0 0 0 0 0 0 0 0 1 5 2 1 0 0 1 0 0 1 12 0 0 0 1 1 0 0 76 0 132 94 88 8 0 0 3 0 0 0 0 0 0 2 5 0 2 0 0 0 1 0 0 0 1 0 0 0 72 5 2 1 2 1 0 5 0 2 0 1 0 0 0 4 0 1 0 0 0 0 125 2 2 0 5 1 0 0 0 0 0 0 0 0 0 0 0 0 0 0 2 0 1 0 0 0 0 0 2 0 0 0 0 1 1 5 2 0 1 0 0 0 0 0 1 7 0 0 1 24 0 0 1 1 1 0 0 0 0 0 0 87 1 0 4 2 99 0 1 2 19 0 3 0 1 1 0 0 0 0 1 1 0 0 1 0 0 0 0 0 0 0 1 0 0 0 1 0 0 0 0 0 2 3 0 0 1 0 5 6 0 0 0 0 0 0 3 0 0 2 0 0 1 0 0 0 0 0 0 34 0 0 0 1 0 0 0 0 0 0 1 0 0 0 0 0 0 1 2 0 0 3 0 0 3 0 0 0 0 6 2 0 0 0 0 1 0 0 0 0 0 0 0 0 0 2 0 0 0 1 0 0 0 0 2 0 1 0 0 0 0 1 0 0 0 3 0 0 0 1 0 0 0 0 0 0 0 22 0 0 0 3 0 0 0 2 0 0 1 1 3 0 1 0 1 0 0 101 0 0 0 0 1 0 0 0 1 4 3 0 134 0 0 4 2 2 0 42 0 0 0 3 1 0 0 0 0 0 0 0 0 0 0 1 0 0 1 0 0 2 1 0 1 2 0 0 0 0 0 1 0 0 0 0 2 1 1 0 3 0 0 0 0 0 1 0 0 0 0 1 0 0 0 0 0 0 0 0 0 0 0 0 0 4 0 7 0 1 2 0 0 1 0 0 1 1 0 0 0 0 0 0 0 1 10 0 0 0 0 1 0 0 0 28 0 0 0 1 0 10 48 0 2 2 2 1 0 2 0 0 0 0 0 0 0 0 8 1 0 0 0 3 4 2 0 0 0 2 0 0 5 6 0 2 3 7 37 4 1 0 0 2 0 0 1 3 0 1 0 4 0 0 3 0 0 0 0 1 0 0 0 0 103 80 41 0 0 0 215 0 0 2 0 0 0 4 0 0 0 2 1 0 0 2 1 0 0 2 0 0 1 0 0 0 2 0 0 0 0 58 1 2 0 0 0 0 8 0 0 1 0 5 0 0 0 0 0 0 2 0 0 0 0 0 0 0 0 1 1 0 0 0 1 0 0 0 1 0 0 0 0 0 0 0 0 0 0 29 0 0 0 0 14 0 0 0 0 0 4 2 1 0 0 0 0 0 0 0 0 0 0 2 0 0 2 0 0 0 0 0 0 0 0 0 0 3 0 0 0 0 0 0 0 0 0 0 0 0 0 0 0 1 0 0 18 0 0 0 53 0 0 0 0 0 0 1 6 0 0 3 0 0 0 0 2 2 0 0 2 0 48 1 0 0 18 11 0 0 0 0 2 1 37 0 0 0 0 0 0 0 0 0 1 1 1 1 0 0 0 0 0 0 0 0 0 0 0 0 0 0 31 1 1 1 1 1 6 0 2 0 0 0 0 0 0 0 0 0 0 0 2 1 0 0 0 0 0 1 0 1 0 1 0 0 0 0 0 0 1 0 1 3 0 0 0 0 2 0 0 0 0 7 10 5 0 0 0 0 0 0 0 0 0 0 0 0 3 1 0 2 1 0 0 0 0 0 0 4 0 0 0 1 0 0 0 1 1 55 0 0 0 0 0 0 0 1 0 1 0 0 0 1 0 0 0 0 166 0 0 0 0 0 1 1 1 0 0 1 0 0 1 0 0 3 0 0 0 1 0 0 0 0 0 0 0 0 0 0 0 0 0 2 0 0 2 1 0 1 0 0 0 0 0 0 0 0 0 0 0 0 0 0 0 2 0 1 1 6 4 0 0 0 0 0 0 0 0 0 1 0 0 0 0 0 0 0 2 0 0 0 0 0 10 3 0 3 0 3 0 0 0 1 1 0 0 1 0 4 5 0 0 5 3 0 0 1 0 2 0 0 0 1 1 0 0 0 2 2 1 0 1 0 7 1 0 0 0 0 1 3 0 0 0 0 14 109 0 0 1 2 0 0 3 7 1 0 0 0 0 0 1 0 1 2 60 0 1 6 1 2 0 1 0 0 1 3 2 0 0 0 115 0 0 0 0 0 0 0 0 0 1 0 0 1 0 0 0 0 0 0 0 1 1 0 2 0 0 0 0 0 84 0 0 0 0 0 4 0 0 0 0 2 1 0 0 0 0 2 0 2 2 0 0 0 0 0 0 0 1 0 4 0 0 1 0 0 0 0 2 1 0 0 0 1 0 0 0 0 0 0 0 0 0 0 0 0 0 0 5 0 0 0 1 0 1 0 0 0 0 0 0 0 0 0 0 0 0 0 0 0 1 0 0 0 0 0 0 0 0 0 0 0 0 0 14 0 1 0 3 1 0 3 1 1 0 1 1 4 0 0 3 0 0 0 0 2 1 0 0 4 2 0 0 0 2 0 0 4 1 0 3 0 2 1 1 6 0 4 1 4 0 0 3 4 1 0 0 0 0 6 0 0 1 0 0 0 0 6 0 0 1 3 0 0 2 0 0 0 0 0 0 0 0 0 2 0 0 0 0 0 56 0 3 2 0 0 2 0 0 0 0 0 0 1 0 1 4 0 0 0 0 0 1 0 1 0 0 0 0 
Printing Sanity2
Heartbeat CPU 0 instructions: 90000000 cycles: 120683520 heartbeat IPC: 0.330424 cumulative IPC: 0.377871 (Simulation time: 0 hr 5 min 25 sec) 
Heartbeat CPU 0 instructions: 100000000 cycles: 151992112 heartbeat IPC: 0.319401 cumulative IPC: 0.364525 (Simulation time: 0 hr 6 min 19 sec) 
*** Reached end of trace for Core: 0 Repeating trace: traces/spec2k17/server_016.champsimtrace.xz
Heartbeat CPU 0 instructions: 110000000 cycles: 182648431 heartbeat IPC: 0.326197 cumulative IPC: 0.357524 (Simulation time: 0 hr 7 min 13 sec) 
Heartbeat CPU 0 instructions: 120000003 cycles: 213968915 heartbeat IPC: 0.31928 cumulative IPC: 0.351509 (Simulation time: 0 hr 8 min 8 sec) 
Heartbeat CPU 0 instructions: 130000000 cycles: 244924169 heartbeat IPC: 0.323047 cumulative IPC: 0.34768 (Simulation time: 0 hr 9 min 0 sec) 
Heartbeat CPU 0 instructions: 140000000 cycles: 270040732 heartbeat IPC: 0.398144 cumulative IPC: 0.352646 (Simulation time: 0 hr 9 min 43 sec) 
Heartbeat CPU 0 instructions: 150000003 cycles: 284477888 heartbeat IPC: 0.692657 cumulative IPC: 0.37085 (Simulation time: 0 hr 10 min 18 sec) 
Heartbeat CPU 0 instructions: 160000001 cycles: 298915134 heartbeat IPC: 0.692653 cumulative IPC: 0.387204 (Simulation time: 0 hr 10 min 55 sec) 
Heartbeat CPU 0 instructions: 170000000 cycles: 324774108 heartbeat IPC: 0.386713 cumulative IPC: 0.387163 (Simulation time: 0 hr 11 min 43 sec) 
Heartbeat CPU 0 instructions: 180000003 cycles: 356425006 heartbeat IPC: 0.315947 cumulative IPC: 0.380565 (Simulation time: 0 hr 12 min 39 sec) 
Heartbeat CPU 0 instructions: 190000000 cycles: 387857500 heartbeat IPC: 0.318142 cumulative IPC: 0.375305 (Simulation time: 0 hr 13 min 40 sec) 
Heartbeat CPU 0 instructions: 200000000 cycles: 418355514 heartbeat IPC: 0.32789 cumulative IPC: 0.371721 (Simulation time: 0 hr 14 min 35 sec) 
*** Reached end of trace for Core: 0 Repeating trace: traces/spec2k17/server_016.champsimtrace.xz
Heartbeat CPU 0 instructions: 210000000 cycles: 449446731 heartbeat IPC: 0.321634 cumulative IPC: 0.368138 (Simulation time: 0 hr 15 min 32 sec) 
Heartbeat CPU 0 instructions: 220000000 cycles: 480542263 heartbeat IPC: 0.32159 cumulative IPC: 0.36503 (Simulation time: 0 hr 16 min 23 sec) 
Heartbeat CPU 0 instructions: 230000000 cycles: 511384184 heartbeat IPC: 0.324234 cumulative IPC: 0.362496 (Simulation time: 0 hr 17 min 18 sec) 
Heartbeat CPU 0 instructions: 240000000 cycles: 541369206 heartbeat IPC: 0.3335 cumulative IPC: 0.360845 (Simulation time: 0 hr 18 min 15 sec) 
Heartbeat CPU 0 instructions: 250000003 cycles: 555846715 heartbeat IPC: 0.690727 cumulative IPC: 0.369673 (Simulation time: 0 hr 18 min 55 sec) 
Finished CPU 0 instructions: 200000002 cycles: 541019412 cumulative IPC: 0.369673 (Simulation time: 0 hr 18 min 55 sec) 

ChampSim completed all CPUs

Region of Interest Statistics

CPU 0 cumulative IPC: 0.369673 instructions: 200000002 cycles: 541019412
ITLB TOTAL     ACCESS:   37687273  HIT:   36277065  MISS:    1410208  HIT %:    96.2581  MISS %:    3.74187   MPKI: 7.05104
ITLB LOAD TRANSLATION ACCESS:   37687273  HIT:   36277065  MISS:    1410208  HIT %:    96.2581  MISS %:    3.74187   MPKI: 7.05104
ITLB PREFETCH  REQUESTED:          0  ISSUED:          0  USEFUL:          0  USELESS:          0
ITLB USEFUL LOAD PREFETCHES:          0 PREFETCH ISSUED TO LOWER LEVEL:          0  ACCURACY: -nan
ITLB TIMELY PREFETCHES:          0 LATE PREFETCHES: 0 DROPPED PREFETCHES: 0
ITLB PREFETCHES SAME FILL-ORIGIN LEVEL: 0 DIFFERENT FILL-ORIGIN LEVEL: 0
ITLB AVERAGE MISS LATENCY: 9.07603 cycles
ITLB RQ	ACCESS:   42328939	FORWARD:          0	MERGED:    4302002	TO_CACHE:   38026937

DTLB TOTAL     ACCESS:   39351618  HIT:   37980794  MISS:    1370824  HIT %:    96.5165  MISS %:    3.48353   MPKI: 6.85412
DTLB LOAD TRANSLATION ACCESS:   39351618  HIT:   37980794  MISS:    1370824  HIT %:    96.5165  MISS %:    3.48353   MPKI: 6.85412
DTLB PREFETCH  REQUESTED:          0  ISSUED:          0  USEFUL:          0  USELESS:          0
DTLB USEFUL LOAD PREFETCHES:          0 PREFETCH ISSUED TO LOWER LEVEL:          0  ACCURACY: -nan
DTLB TIMELY PREFETCHES:          0 LATE PREFETCHES: 0 DROPPED PREFETCHES: 0
DTLB PREFETCHES SAME FILL-ORIGIN LEVEL: 0 DIFFERENT FILL-ORIGIN LEVEL: 0
DTLB AVERAGE MISS LATENCY: 9.31428 cycles
DTLB RQ	ACCESS:   50773325	FORWARD:          0	MERGED:   11369807	TO_CACHE:   39403518

STLB TOTAL     ACCESS:    4976871  HIT:    4968200  MISS:       8671  HIT %:    99.8258  MISS %:   0.174226   MPKI: 0.043355
STLB LOAD TRANSLATION ACCESS:    2781032  HIT:    2773109  MISS:       7923  HIT %:    99.7151  MISS %:   0.284894   MPKI: 0.039615
STLB TRANSLATION FROM L1D PREFETCHER ACCESS:    2195839  HIT:    2195091  MISS:        748  HIT %:    99.9659  MISS %:  0.0340644   MPKI: 0.00374
STLB PREFETCH  REQUESTED:          0  ISSUED:          0  USEFUL:        588  USELESS:        155
STLB USEFUL LOAD PREFETCHES:        588 PREFETCH ISSUED TO LOWER LEVEL:          0  ACCURACY: inf
STLB TIMELY PREFETCHES:        588 LATE PREFETCHES: 104 DROPPED PREFETCHES: 147038
STLB PREFETCHES SAME FILL-ORIGIN LEVEL: 0 DIFFERENT FILL-ORIGIN LEVEL: 0
STLB AVERAGE MISS LATENCY: 72442.2 cycles
STLB RQ	ACCESS:    6786224	FORWARD:          0	MERGED:    1653910	TO_CACHE:    5132314

STLB Hit, L1D data hit: 0
STLB Hit, L2C data hit: 0
STLB Hit, LLC data hit: 0
STLB Hit, LLC data miss: 0
STLB STLB hints to L2: 0
L1D TOTAL     ACCESS:   52863195  HIT:   47075529  MISS:    5787666  HIT %:    89.0516  MISS %:    10.9484   MPKI: 28.9383
L1D LOAD      ACCESS:   29958021  HIT:   27813300  MISS:    2144721  HIT %:    92.8409  MISS %:    7.15909   MPKI: 10.7236
L1D RFO       ACCESS:   19387524  HIT:   18537373  MISS:     850151  HIT %:     95.615  MISS %:    4.38504   MPKI: 4.25075
L1D PREFETCH  ACCESS:    3517650  HIT:     724856  MISS:    2792794  HIT %:    20.6063  MISS %:    79.3937   MPKI: 13.964
AGUS PREFETCH L1 MISS: 0
L1D PREFETCH  REQUESTED:    8090427  ISSUED:    8090145  USEFUL:     386381  USELESS:    2406224
L1D USEFUL LOAD PREFETCHES:     386381 PREFETCH ISSUED TO LOWER LEVEL:    2945443  ACCURACY: 13.1179
L1D TIMELY PREFETCHES:     386381 LATE PREFETCHES: 151737 DROPPED PREFETCHES: 170338
L1D PREFETCHES SAME FILL-ORIGIN LEVEL: 2945443 DIFFERENT FILL-ORIGIN LEVEL: 0
L1D AVERAGE MISS LATENCY: 7.45948e+06 cycles
L1D RQ	ACCESS:   40505459	FORWARD:          0	MERGED:   10212937	TO_CACHE:   30046328
L1D WQ	ACCESS:   20857481	FORWARD:     246549	MERGED:     130484	TO_CACHE:   20726997
L1D PQ	ACCESS:    4084953	FORWARD:          0	MERGED:      79406	TO_CACHE:    4005192

L1D UNIQUE REGIONS ACCESSED: 0
L1D REGIONS CONFLICTS: 0
L1D Cross Page Prefetch Requests: 1921922
L1D Same Page Prefetch Requests: 2607414
L1D ROI Sum of L1D PQ occupancy: 58699921
L1D PREFETCHES PUSHED FROM L2C: 0
L1I TOTAL     ACCESS:   41230230  HIT:   33855018  MISS:    7375212  HIT %:    82.1121  MISS %:    17.8879   MPKI: 36.8761
L1I LOAD      ACCESS:   41230230  HIT:   33855018  MISS:    7375212  HIT %:    82.1121  MISS %:    17.8879   MPKI: 36.8761
L1I PREFETCH  REQUESTED:          0  ISSUED:          0  USEFUL:          0  USELESS:          0
L1I USEFUL LOAD PREFETCHES:          0 PREFETCH ISSUED TO LOWER LEVEL:          0  ACCURACY: -nan
L1I TIMELY PREFETCHES:          0 LATE PREFETCHES: 0 DROPPED PREFETCHES: 0
L1I PREFETCHES SAME FILL-ORIGIN LEVEL: 0 DIFFERENT FILL-ORIGIN LEVEL: 0
L1I AVERAGE MISS LATENCY: 18.9366 cycles
L1I RQ	ACCESS:   60028318	FORWARD:          0	MERGED:   17699379	TO_CACHE:   42328939

BTB TOTAL     ACCESS:   31149502  HIT:   22487623  MISS:    8661879  HIT %:    72.1926  MISS %:    27.8074   MPKI: 43.3094
BTB BRANCH_DIRECT_JUMP	ACCESS:    1790889  HIT:    1185918  MISS:     604971
BTB BRANCH_INDIRECT	ACCESS:    9233189  HIT:    5986023  MISS:    3247166
BTB BRANCH_CONDITIONAL	ACCESS:   13716226  HIT:   12843151  MISS:     873075
BTB BRANCH_DIRECT_CALL	ACCESS:    2729399  HIT:    1310065  MISS:    1419334
BTB BRANCH_INDIRECT_CALL	ACCESS:     475210  HIT:     188709  MISS:     286501
BTB BRANCH_RETURN	ACCESS:    3204589  HIT:     973757  MISS:    2230832
BTB BRANCH_OTHER ACCESS:          0  HIT:          0  MISS:          0

L2C TOTAL     ACCESS:   14989680  HIT:   12427985  MISS:    2561695  HIT %:    82.9103  MISS %:    17.0897   MPKI: 12.8085
L2C LOAD      ACCESS:    9368156  HIT:    7859138  MISS:    1509018  HIT %:     83.892  MISS %:     16.108   MPKI: 7.54509
L2C DATA LOAD MPKI: 1.69284
L2C INSTRUCTION LOAD MPKI: 5.85225
L2C RFO       ACCESS:     849235  HIT:     641503  MISS:     207732  HIT %:    75.5389  MISS %:    24.4611   MPKI: 1.03866
L2C PREFETCH  ACCESS:    2945305  HIT:    2153349  MISS:     791956  HIT %:    73.1112  MISS %:    26.8888   MPKI: 3.95978
AGUS PREFETCH L1 MISS: 0
L2C DATA PREFETCH MPKI: 3.95978
L2C INSTRUCTION PREFETCH MPKI: 0
L2C WRITEBACK ACCESS:    1584974  HIT:    1552057  MISS:      32917  HIT %:    97.9232  MISS %:    2.07682   MPKI: 0.164585
L2C LOAD TRANSLATION ACCESS:       8789  HIT:       2044  MISS:       6745  HIT %:    23.2563  MISS %:    76.7437   MPKI: 0.033725
L2C TRANSLATION FROM L1D PREFETCHER ACCESS:     233221  HIT:     219894  MISS:      13327  HIT %:    94.2857  MISS %:    5.71432   MPKI: 0.066635
L2C PREFETCH  REQUESTED:          0  ISSUED:          0  USEFUL:      37444  USELESS:     767399
L2C USEFUL LOAD PREFETCHES:      37444 PREFETCH ISSUED TO LOWER LEVEL:     791956  ACCURACY: 4.72804
L2C TIMELY PREFETCHES:      37444 LATE PREFETCHES: 0 DROPPED PREFETCHES: 0
L2C PREFETCHES SAME FILL-ORIGIN LEVEL: 0 DIFFERENT FILL-ORIGIN LEVEL: 0
L2C AVERAGE MISS LATENCY: 38.6543 cycles
L2C RQ	ACCESS:   10459445	FORWARD:          0	MERGED:          0	TO_CACHE:   10459401
L2C WQ	ACCESS:    1584974	FORWARD:        182	MERGED:          0	TO_CACHE:    1584974
L2C PQ	ACCESS:    2945443	FORWARD:          0	MERGED:          0	TO_CACHE:    2945305

L2C Instructions Evicting Data 599297
L2C Translations Evicting Data 11488
L2C Data Evicting Data 744071
L2C Instructions Evicting Instructions 563183
L2C Translations Evicting Instructions 8395
L2C Data Evicting Instructions 582559
L2C Instructions Evicting Translations 7970
L2C Translations Evicting Translations 189
L2C Data Evicting Translations 11626
L2C Dense regions hint from L2: 0
PSCL5 TOTAL     ACCESS:     155722  HIT:     155722  MISS:          0  HIT %:        100  MISS %:          0   MPKI: 0
PSCL5 LOAD TRANSLATION ACCESS:       7832  HIT:       7832  MISS:          0  HIT %:        100  MISS %:          0   MPKI: 0
PSCL5 TRANSLATION FROM L1D PREFETCHER ACCESS:     147890  HIT:     147890  MISS:          0  HIT %:        100  MISS %:          0   MPKI: 0
PSCL5 PREFETCH  REQUESTED:          0  ISSUED:          0  USEFUL:          0  USELESS:          0
PSCL5 USEFUL LOAD PREFETCHES:          0 PREFETCH ISSUED TO LOWER LEVEL:          0  ACCURACY: -nan
PSCL5 TIMELY PREFETCHES:          0 LATE PREFETCHES: 0 DROPPED PREFETCHES: 0
PSCL5 PREFETCHES SAME FILL-ORIGIN LEVEL: 0 DIFFERENT FILL-ORIGIN LEVEL: 0

PSCL4 TOTAL     ACCESS:     139627  HIT:     139585  MISS:         42  HIT %:    99.9699  MISS %:  0.0300801   MPKI: 0.00021
PSCL4 LOAD TRANSLATION ACCESS:       7401  HIT:       7359  MISS:         42  HIT %:    99.4325  MISS %:   0.567491   MPKI: 0.00021
PSCL4 TRANSLATION FROM L1D PREFETCHER ACCESS:     132226  HIT:     132226  MISS:          0  HIT %:        100  MISS %:          0   MPKI: 0
PSCL4 PREFETCH  REQUESTED:          0  ISSUED:          0  USEFUL:          0  USELESS:          0
PSCL4 USEFUL LOAD PREFETCHES:          0 PREFETCH ISSUED TO LOWER LEVEL:          0  ACCURACY: -nan
PSCL4 TIMELY PREFETCHES:          0 LATE PREFETCHES: 0 DROPPED PREFETCHES: 0
PSCL4 PREFETCHES SAME FILL-ORIGIN LEVEL: 0 DIFFERENT FILL-ORIGIN LEVEL: 0

PSCL3 TOTAL     ACCESS:     154740  HIT:     154698  MISS:         42  HIT %:    99.9729  MISS %:  0.0271423   MPKI: 0.00021
PSCL3 LOAD TRANSLATION ACCESS:       7752  HIT:       7710  MISS:         42  HIT %:    99.4582  MISS %:   0.541796   MPKI: 0.00021
PSCL3 TRANSLATION FROM L1D PREFETCHER ACCESS:     146988  HIT:     146988  MISS:          0  HIT %:        100  MISS %:          0   MPKI: 0
PSCL3 PREFETCH  REQUESTED:          0  ISSUED:          0  USEFUL:          0  USELESS:          0
PSCL3 USEFUL LOAD PREFETCHES:          0 PREFETCH ISSUED TO LOWER LEVEL:          0  ACCURACY: -nan
PSCL3 TIMELY PREFETCHES:          0 LATE PREFETCHES: 0 DROPPED PREFETCHES: 0
PSCL3 PREFETCHES SAME FILL-ORIGIN LEVEL: 0 DIFFERENT FILL-ORIGIN LEVEL: 0

PSCL2 TOTAL     ACCESS:      71385  HIT:      70468  MISS:        917  HIT %:    98.7154  MISS %:    1.28458   MPKI: 0.004585
PSCL2 LOAD TRANSLATION ACCESS:       7872  HIT:       6955  MISS:        917  HIT %:    88.3511  MISS %:    11.6489   MPKI: 0.004585
PSCL2 TRANSLATION FROM L1D PREFETCHER ACCESS:      63513  HIT:      63513  MISS:          0  HIT %:        100  MISS %:          0   MPKI: 0
PSCL2 PREFETCH  REQUESTED:          0  ISSUED:          0  USEFUL:          0  USELESS:          0
PSCL2 USEFUL LOAD PREFETCHES:          0 PREFETCH ISSUED TO LOWER LEVEL:          0  ACCURACY: -nan
PSCL2 TIMELY PREFETCHES:          0 LATE PREFETCHES: 0 DROPPED PREFETCHES: 0
PSCL2 PREFETCHES SAME FILL-ORIGIN LEVEL: 0 DIFFERENT FILL-ORIGIN LEVEL: 0

LLC TOTAL     ACCESS:    2833846  HIT:    2693714  MISS:     140132  HIT %:    95.0551  MISS %:    4.94494   MPKI: 0.70066
LLC LOAD      ACCESS:    1509016  HIT:    1479847  MISS:      29169  HIT %:     98.067  MISS %:    1.93298   MPKI: 0.145845
LLC RFO       ACCESS:     207723  HIT:     150668  MISS:      57055  HIT %:    72.5331  MISS %:    27.4669   MPKI: 0.285275
LLC PREFETCH  ACCESS:     791954  HIT:     739766  MISS:      52188  HIT %:    93.4102  MISS %:    6.58978   MPKI: 0.26094
AGUS PREFETCH L1 MISS: 0
LLC WRITEBACK ACCESS:     305081  HIT:     304163  MISS:        918  HIT %:    99.6991  MISS %:   0.300904   MPKI: 0.00459
LLC LOAD TRANSLATION ACCESS:       6745  HIT:       6112  MISS:        633  HIT %:    90.6153  MISS %:    9.38473   MPKI: 0.003165
LLC TRANSLATION FROM L1D PREFETCHER ACCESS:      13327  HIT:      13158  MISS:        169  HIT %:    98.7319  MISS %:     1.2681   MPKI: 0.000845
LLC PREFETCH  REQUESTED:          0  ISSUED:          0  USEFUL:       4533  USELESS:      46487
LLC USEFUL LOAD PREFETCHES:       4533 PREFETCH ISSUED TO LOWER LEVEL:      52188  ACCURACY: 8.6859
LLC TIMELY PREFETCHES:       4533 LATE PREFETCHES: 0 DROPPED PREFETCHES: 0
LLC PREFETCHES SAME FILL-ORIGIN LEVEL: 0 DIFFERENT FILL-ORIGIN LEVEL: 0
LLC AVERAGE MISS LATENCY: 165.046 cycles
LLC RQ	ACCESS:    1736822	FORWARD:          0	MERGED:          0	TO_CACHE:    1736811
LLC WQ	ACCESS:     305081	FORWARD:         13	MERGED:          0	TO_CACHE:     305081
LLC PQ	ACCESS:     791956	FORWARD:          0	MERGED:          0	TO_CACHE:     791954

LLC Dense regions hint to LLC: 0

RAW hits: 1227580
Loads Generated: 41733040
Loads sent to L1D: 40505459
Stores Generated: 20857481
Stores sent to L1D: 20857481
Major fault: 0 Minor fault: 2472
Allocated PAGES: 2472
CPU 0 L1D 
Prefetch count 3292865 BOP and RL 

DRAM Statistics
 CHANNEL 0
 RQ ROW_BUFFER_HIT:      50896  ROW_BUFFER_MISS:      88287
 DBUS_CONGESTED:         34
 WQ ROW_BUFFER_HIT:       5789  ROW_BUFFER_MISS:      59696  FULL:          0

 AVG_CONGESTED_CYCLE: 5
 All warmup complete: 2
Channel 0 Bank busy for read cycles: 0
Channel 0 Bank busy for write cycles: 0
Channel 0
Rank 0
0banks busy for read cycles: 530974560
0banks busy for write cycles: 15457
1banks busy for read cycles: 3074143
1banks busy for write cycles: 1773463
2banks busy for read cycles: 1056475
2banks busy for write cycles: 612188
3banks busy for read cycles: 682755
3banks busy for write cycles: 335470
4banks busy for read cycles: 259439
4banks busy for write cycles: 207763
5banks busy for read cycles: 224007
5banks busy for write cycles: 174058
6banks busy for read cycles: 221262
6banks busy for write cycles: 157914
7banks busy for read cycles: 234903
7banks busy for write cycles: 175320
8banks busy for read cycles: 436017
8banks busy for write cycles: 404219

CPU 0 Branch Prediction Accuracy: 99.773% MPKI: 0.39801 Average ROB Occupancy at Mispredict: 36.1871
Branch types
NOT_BRANCH: 164926668 82.4633%
BRANCH_DIRECT_JUMP: 1790889 0.895444%
BRANCH_INDIRECT: 9233189 4.61659%
BRANCH_CONDITIONAL: 17640059 8.82003%
BRANCH_DIRECT_CALL: 2729399 1.3647%
BRANCH_INDIRECT_CALL: 475210 0.237605%
BRANCH_RETURN: 3204589 1.60229%
BRANCH_OTHER: 0 0%

DRAM PAGES: 1048576
Allocated PAGES: 2472
