
*** ChampSim Multicore Out-of-Order Simulator ***

Warmup Instructions: 50000000
Simulation Instructions: 200000000
Number of CPUs: 1
LLC sets: 2048
LLC ways: 16
Off-chip DRAM Size: 4096 MB Channels: 1 Width: 64-bit Data Rate: 6400 MT/s
CPU 0 runs traces/spec2k17/srv_75.champsimtrace.xz
.xz
BTB has LRU replacement policy
ITLB has LRU replacement policy
DTLB has LRU replacement policy
STLB has LRU replacement policy
L1I has LRU replacement policy
CPU 0 l1d next line prefetcher
L1D has LRU replacement policy
Initialize SRRIP state for L2C
Initialize DRRIP state for LLC
Offsets elements: 
Potential of Offsets elements: 
rewards of Offsets elements: 
Printing Sanity1
offset list size895
Heartbeat CPU 0 instructions: 10000003 cycles: 2946669 heartbeat IPC: 3.39366 cumulative IPC: 3.39366 (Simulation time: 0 hr 0 min 41 sec) 
Heartbeat CPU 0 instructions: 20000003 cycles: 5883796 heartbeat IPC: 3.40469 cumulative IPC: 3.39917 (Simulation time: 0 hr 1 min 22 sec) 
Heartbeat CPU 0 instructions: 30000001 cycles: 8827083 heartbeat IPC: 3.39756 cumulative IPC: 3.39863 (Simulation time: 0 hr 2 min 0 sec) 
*** Reached end of trace for Core: 0 Repeating trace: traces/spec2k17/srv_75.champsimtrace.xz
Offsets elements: 
Potential of Offsets elements: 
rewards of Offsets elements: 0 0 0 0 0 1 36 0 0 17 0 0 0 1 0 0 0 0 0 0 0 0 0 0 0 0 0 13 0 0 15 4 318 0 0 0 0 42 0 0 24 0 0 18 0 28 15 0 0 0 0 0 0 0 0 0 0 0 0 0 0 140 0 0 104 77 0 0 0 0 1 0 0 0 0 0 0 0 0 0 0 0 0 0 0 0 0 0 0 270 0 0 0 0 0 0 0 6 0 0 0 0 0 0 0 0 0 0 0 0 80 5 0 0 0 0 0 0 0 0 196 153 0 0 0 0 7 0 0 0 0 0 0 0 0 0 0 0 0 0 0 0 1 0 19 0 0 0 0 33 0 0 0 0 0 0 0 0 0 1 0 0 0 0 2 1 0 0 0 0 0 19 0 0 0 0 2 0 39 1 0 0 72 8 0 0 0 8 0 0 0 0 0 0 0 0 1 1 5 20 0 0 0 0 0 0 0 0 2 0 1 7 0 0 0 0 14 96 0 0 0 0 0 0 0 0 0 0 0 0 0 0 0 0 0 0 2 0 5 0 0 0 0 0 0 0 21 29 0 35 0 0 247 0 0 0 1 0 0 0 0 11 0 0 0 0 7 7 0 0 0 1 0 7 24 0 0 97 0 0 0 19 0 6 9 0 63 2 0 0 0 0 2 0 0 0 54 0 0 0 16 10 0 106 0 0 0 0 2 0 0 32 0 0 3 0 0 35 0 54 0 0 0 0 1 0 14 0 96 11 0 41 0 12 0 0 0 0 92 0 25 0 0 43 0 18 0 1 14 20 35 8 9 0 0 0 0 0 0 0 0 0 0 0 0 0 8 0 0 0 0 0 0 0 0 0 0 0 75 0 0 3 1 1 0 0 0 0 0 0 195 126 0 0 90 0 0 0 100 0 14 0 0 0 36 0 228 0 0 0 0 2 27 0 0 0 0 0 0 0 0 0 5 0 0 0 0 0 0 0 0 0 0 12 0 0 0 0 0 0 0 0 0 0 0 0 0 111 0 3 0 0 0 0 0 98 155 0 0 0 0 0 0 0 0 0 0 0 0 0 0 0 0 0 21 0 0 0 0 0 0 16 22 19 0 0 0 0 0 0 0 0 197 224 0 0 0 0 12 182 0 0 0 0 15 0 0 0 0 0 0 0 4 0 0 4 0 0 0 0 0 0 0 0 0 1 0 145 0 57 2 0 4 0 0 0 0 0 0 143 35 0 0 0 0 0 0 0 0 0 0 0 50 0 1 0 0 0 0 0 9 97 67 11 0 0 0 8 0 0 0 102 0 0 0 0 0 0 0 0 0 0 18 0 0 0 0 0 53 0 0 0 0 0 0 0 51 0 0 0 1 0 22 0 46 0 0 0 0 0 4 208 0 2 2 0 3 0 0 0 0 0 0 0 0 0 22 0 0 3 0 0 0 16 0 6 30 0 0 0 0 0 0 0 0 0 0 0 0 0 0 0 0 0 0 164 0 0 0 0 0 0 4 192 0 0 0 0 0 0 0 0 0 0 0 0 4 0 0 0 0 0 0 18 23 0 0 0 0 0 0 0 0 0 0 0 0 0 0 0 1 0 20 29 0 0 0 0 2 0 0 0 0 0 0 0 0 0 0 0 0 10 0 0 0 0 0 0 0 0 0 1 0 0 0 0 0 0 0 0 0 0 0 0 0 0 194 0 2 5 0 0 42 0 0 0 0 0 0 0 0 0 0 43 0 0 0 0 0 0 0 0 0 0 0 90 118 0 0 0 0 34 0 0 0 0 0 0 0 0 0 0 34 89 0 0 0 1 13 35 0 0 0 0 0 0 0 36 0 55 0 0 0 0 7 0 0 3 0 1 0 0 17 0 0 0 0 0 0 0 0 0 0 0 0 3 0 0 0 0 0 0 0 0 0 0 0 0 0 0 0 0 0 0 3 0 0 0 0 0 0 0 0 0 0 0 0 0 0 0 0 0 3 68 0 0 0 0 13 0 0 0 0 29 0 7 0 0 0 0 0 0 0 0 0 
Printing Sanity2
Heartbeat CPU 0 instructions: 40000000 cycles: 11769839 heartbeat IPC: 3.39817 cumulative IPC: 3.39852 (Simulation time: 0 hr 2 min 37 sec) 
Heartbeat CPU 0 instructions: 50000001 cycles: 14711521 heartbeat IPC: 3.39942 cumulative IPC: 3.3987 (Simulation time: 0 hr 3 min 12 sec) 

Warmup complete CPU 0 instructions: 50000001 cycles: 14711521 (Simulation time: 0 hr 3 min 12 sec) 

Heartbeat CPU 0 instructions: 60000003 cycles: 34988387 heartbeat IPC: 0.493173 cumulative IPC: 0.493173 (Simulation time: 0 hr 4 min 24 sec) 
*** Reached end of trace for Core: 0 Repeating trace: traces/spec2k17/srv_75.champsimtrace.xz
Heartbeat CPU 0 instructions: 70000000 cycles: 54275018 heartbeat IPC: 0.518494 cumulative IPC: 0.505516 (Simulation time: 0 hr 5 min 36 sec) 
Heartbeat CPU 0 instructions: 80000003 cycles: 73445756 heartbeat IPC: 0.521628 cumulative IPC: 0.510775 (Simulation time: 0 hr 6 min 41 sec) 
Heartbeat CPU 0 instructions: 90000000 cycles: 92622804 heartbeat IPC: 0.521457 cumulative IPC: 0.513404 (Simulation time: 0 hr 7 min 45 sec) 
*** Reached end of trace for Core: 0 Repeating trace: traces/spec2k17/srv_75.champsimtrace.xz
Heartbeat CPU 0 instructions: 100000000 cycles: 111826720 heartbeat IPC: 0.520727 cumulative IPC: 0.514852 (Simulation time: 0 hr 8 min 50 sec) 
Heartbeat CPU 0 instructions: 110000000 cycles: 131159370 heartbeat IPC: 0.51726 cumulative IPC: 0.515252 (Simulation time: 0 hr 9 min 55 sec) 
Heartbeat CPU 0 instructions: 120000000 cycles: 150252303 heartbeat IPC: 0.523754 cumulative IPC: 0.51645 (Simulation time: 0 hr 11 min 3 sec) 
*** Reached end of trace for Core: 0 Repeating trace: traces/spec2k17/srv_75.champsimtrace.xz
Heartbeat CPU 0 instructions: 130000002 cycles: 169413868 heartbeat IPC: 0.521878 cumulative IPC: 0.517122 (Simulation time: 0 hr 12 min 15 sec) 
Heartbeat CPU 0 instructions: 140000000 cycles: 188670723 heartbeat IPC: 0.519296 cumulative IPC: 0.517363 (Simulation time: 0 hr 13 min 23 sec) 
Heartbeat CPU 0 instructions: 150000001 cycles: 207797052 heartbeat IPC: 0.52284 cumulative IPC: 0.517905 (Simulation time: 0 hr 14 min 31 sec) 
Heartbeat CPU 0 instructions: 160000000 cycles: 226871944 heartbeat IPC: 0.524249 cumulative IPC: 0.518476 (Simulation time: 0 hr 15 min 39 sec) 
*** Reached end of trace for Core: 0 Repeating trace: traces/spec2k17/srv_75.champsimtrace.xz
Heartbeat CPU 0 instructions: 170000001 cycles: 245901647 heartbeat IPC: 0.525494 cumulative IPC: 0.519053 (Simulation time: 0 hr 16 min 36 sec) 
Heartbeat CPU 0 instructions: 180000000 cycles: 265119419 heartbeat IPC: 0.520352 cumulative IPC: 0.519153 (Simulation time: 0 hr 17 min 25 sec) 
Heartbeat CPU 0 instructions: 190000000 cycles: 284309422 heartbeat IPC: 0.521105 cumulative IPC: 0.519292 (Simulation time: 0 hr 18 min 10 sec) 
*** Reached end of trace for Core: 0 Repeating trace: traces/spec2k17/srv_75.champsimtrace.xz
Heartbeat CPU 0 instructions: 200000002 cycles: 303590677 heartbeat IPC: 0.518639 cumulative IPC: 0.519248 (Simulation time: 0 hr 18 min 55 sec) 
Heartbeat CPU 0 instructions: 210000000 cycles: 322728997 heartbeat IPC: 0.522512 cumulative IPC: 0.519451 (Simulation time: 0 hr 19 min 40 sec) 
Heartbeat CPU 0 instructions: 220000000 cycles: 341881843 heartbeat IPC: 0.522116 cumulative IPC: 0.519607 (Simulation time: 0 hr 20 min 25 sec) 
*** Reached end of trace for Core: 0 Repeating trace: traces/spec2k17/srv_75.champsimtrace.xz
Heartbeat CPU 0 instructions: 230000003 cycles: 361198775 heartbeat IPC: 0.517681 cumulative IPC: 0.5195 (Simulation time: 0 hr 21 min 9 sec) 
Heartbeat CPU 0 instructions: 240000000 cycles: 380447480 heartbeat IPC: 0.519515 cumulative IPC: 0.5195 (Simulation time: 0 hr 21 min 53 sec) 
Heartbeat CPU 0 instructions: 250000002 cycles: 399519844 heartbeat IPC: 0.524319 cumulative IPC: 0.519739 (Simulation time: 0 hr 22 min 37 sec) 
Finished CPU 0 instructions: 200000001 cycles: 384808323 cumulative IPC: 0.519739 (Simulation time: 0 hr 22 min 37 sec) 

ChampSim completed all CPUs

Region of Interest Statistics

CPU 0 cumulative IPC: 0.519739 instructions: 200000001 cycles: 384808323
ITLB TOTAL     ACCESS:   33755773  HIT:   32219030  MISS:    1536743  HIT %:    95.4475  MISS %:    4.55253   MPKI: 7.68371
ITLB LOAD TRANSLATION ACCESS:   33755773  HIT:   32219030  MISS:    1536743  HIT %:    95.4475  MISS %:    4.55253   MPKI: 7.68371
ITLB PREFETCH  REQUESTED:          0  ISSUED:          0  USEFUL:          0  USELESS:          0
ITLB USEFUL LOAD PREFETCHES:          0 PREFETCH ISSUED TO LOWER LEVEL:          0  ACCURACY: -nan
ITLB TIMELY PREFETCHES:          0 LATE PREFETCHES: 0 DROPPED PREFETCHES: 0
ITLB PREFETCHES SAME FILL-ORIGIN LEVEL: 0 DIFFERENT FILL-ORIGIN LEVEL: 0
ITLB AVERAGE MISS LATENCY: 9.18337 cycles
ITLB RQ	ACCESS:   40657952	FORWARD:          0	MERGED:    6406786	TO_CACHE:   34251166

DTLB TOTAL     ACCESS:   40098530  HIT:   38574813  MISS:    1523717  HIT %:    96.2001  MISS %:    3.79993   MPKI: 7.61858
DTLB LOAD TRANSLATION ACCESS:   40098530  HIT:   38574813  MISS:    1523717  HIT %:    96.2001  MISS %:    3.79993   MPKI: 7.61858
DTLB PREFETCH  REQUESTED:          0  ISSUED:          0  USEFUL:          0  USELESS:          0
DTLB USEFUL LOAD PREFETCHES:          0 PREFETCH ISSUED TO LOWER LEVEL:          0  ACCURACY: -nan
DTLB TIMELY PREFETCHES:          0 LATE PREFETCHES: 0 DROPPED PREFETCHES: 0
DTLB PREFETCHES SAME FILL-ORIGIN LEVEL: 0 DIFFERENT FILL-ORIGIN LEVEL: 0
DTLB AVERAGE MISS LATENCY: 13.7721 cycles
DTLB RQ	ACCESS:   61257167	FORWARD:          0	MERGED:   20765302	TO_CACHE:   40491865

STLB TOTAL     ACCESS:    4649149  HIT:    4572855  MISS:      76294  HIT %:     98.359  MISS %:    1.64103   MPKI: 0.38147
STLB LOAD TRANSLATION ACCESS:    3060460  HIT:    2987851  MISS:      72609  HIT %:    97.6275  MISS %:    2.37249   MPKI: 0.363045
STLB TRANSLATION FROM L1D PREFETCHER ACCESS:    1588689  HIT:    1585004  MISS:       3685  HIT %:     99.768  MISS %:   0.231952   MPKI: 0.018425
STLB PREFETCH  REQUESTED:          0  ISSUED:          0  USEFUL:       3170  USELESS:        518
STLB USEFUL LOAD PREFETCHES:       3170 PREFETCH ISSUED TO LOWER LEVEL:          0  ACCURACY: inf
STLB TIMELY PREFETCHES:       3170 LATE PREFETCHES: 831 DROPPED PREFETCHES: 11996
STLB PREFETCHES SAME FILL-ORIGIN LEVEL: 0 DIFFERENT FILL-ORIGIN LEVEL: 0
STLB AVERAGE MISS LATENCY: 1.02609e+06 cycles
STLB RQ	ACCESS:    6714244	FORWARD:          0	MERGED:    2049280	TO_CACHE:    4664964

STLB Hit, L1D data hit: 0
STLB Hit, L2C data hit: 0
STLB Hit, LLC data hit: 0
STLB Hit, LLC data miss: 0
STLB STLB hints to L2: 0
L1D TOTAL     ACCESS:   51770457  HIT:   43447978  MISS:    8322479  HIT %:    83.9243  MISS %:    16.0757   MPKI: 41.6124
L1D LOAD      ACCESS:   26822625  HIT:   24129450  MISS:    2693175  HIT %:    89.9593  MISS %:    10.0407   MPKI: 13.4659
L1D RFO       ACCESS:   22429081  HIT:   18749572  MISS:    3679509  HIT %:    83.5949  MISS %:    16.4051   MPKI: 18.3975
L1D PREFETCH  ACCESS:    2518751  HIT:     568956  MISS:    1949795  HIT %:    22.5888  MISS %:    77.4112   MPKI: 9.74897
AGUS PREFETCH L1 MISS: 0
L1D PREFETCH  REQUESTED:    7859122  ISSUED:    7821338  USEFUL:     577200  USELESS:    1372631
L1D USEFUL LOAD PREFETCHES:     577200 PREFETCH ISSUED TO LOWER LEVEL:    2298971  ACCURACY: 25.1069
L1D TIMELY PREFETCHES:     577200 LATE PREFETCHES: 344711 DROPPED PREFETCHES: 17603
L1D PREFETCHES SAME FILL-ORIGIN LEVEL: 2298971 DIFFERENT FILL-ORIGIN LEVEL: 0
L1D AVERAGE MISS LATENCY: 8.7055e+06 cycles
L1D RQ	ACCESS:   45333402	FORWARD:          0	MERGED:   17880698	TO_CACHE:   27192887
L1D WQ	ACCESS:   34266000	FORWARD:     260063	MERGED:     201720	TO_CACHE:   34064280
L1D PQ	ACCESS:    4167554	FORWARD:          0	MERGED:     513524	TO_CACHE:    3653784

L1D UNIQUE REGIONS ACCESSED: 0
L1D REGIONS CONFLICTS: 0
L1D Cross Page Prefetch Requests: 2368197
L1D Same Page Prefetch Requests: 2578362
L1D ROI Sum of L1D PQ occupancy: 61992321
L1D PREFETCHES PUSHED FROM L2C: 0
L1I TOTAL     ACCESS:   38010497  HIT:   28957072  MISS:    9053425  HIT %:    76.1818  MISS %:    23.8182   MPKI: 45.2671
L1I LOAD      ACCESS:   38010497  HIT:   28957072  MISS:    9053425  HIT %:    76.1818  MISS %:    23.8182   MPKI: 45.2671
L1I PREFETCH  REQUESTED:          0  ISSUED:          0  USEFUL:          0  USELESS:          0
L1I USEFUL LOAD PREFETCHES:          0 PREFETCH ISSUED TO LOWER LEVEL:          0  ACCURACY: -nan
L1I TIMELY PREFETCHES:          0 LATE PREFETCHES: 0 DROPPED PREFETCHES: 0
L1I PREFETCHES SAME FILL-ORIGIN LEVEL: 0 DIFFERENT FILL-ORIGIN LEVEL: 0
L1I AVERAGE MISS LATENCY: 16.5915 cycles
L1I RQ	ACCESS:   58935758	FORWARD:          0	MERGED:   18277806	TO_CACHE:   40657952

BTB TOTAL     ACCESS:   25661075  HIT:   24120507  MISS:    1540568  HIT %:    93.9965  MISS %:    6.00352   MPKI: 7.70284
BTB BRANCH_DIRECT_JUMP	ACCESS:    1658498  HIT:    1648884  MISS:       9614
BTB BRANCH_INDIRECT	ACCESS:    9965680  HIT:    9453518  MISS:     512162
BTB BRANCH_CONDITIONAL	ACCESS:    7213546  HIT:    7200102  MISS:      13444
BTB BRANCH_DIRECT_CALL	ACCESS:    2819430  HIT:    2786168  MISS:      33262
BTB BRANCH_INDIRECT_CALL	ACCESS:     592212  HIT:     481174  MISS:     111038
BTB BRANCH_RETURN	ACCESS:    3411709  HIT:    2550661  MISS:     861048
BTB BRANCH_OTHER ACCESS:          0  HIT:          0  MISS:          0

L2C TOTAL     ACCESS:   21878650  HIT:   14468556  MISS:    7410094  HIT %:    66.1309  MISS %:    33.8691   MPKI: 37.0505
L2C LOAD      ACCESS:   11401459  HIT:    9247235  MISS:    2154224  HIT %:    81.1057  MISS %:    18.8943   MPKI: 10.7711
L2C DATA LOAD MPKI: 7.79426
L2C INSTRUCTION LOAD MPKI: 2.97686
L2C RFO       ACCESS:    3675030  HIT:     130546  MISS:    3544484  HIT %:    3.55224  MISS %:    96.4478   MPKI: 17.7224
L2C PREFETCH  ACCESS:    2298920  HIT:     751902  MISS:    1547018  HIT %:    32.7067  MISS %:    67.2933   MPKI: 7.73509
AGUS PREFETCH L1 MISS: 0
L2C DATA PREFETCH MPKI: 7.73509
L2C INSTRUCTION PREFETCH MPKI: 0
L2C WRITEBACK ACCESS:    4402365  HIT:    4279075  MISS:     123290  HIT %:    97.1995  MISS %:    2.80054   MPKI: 0.61645
L2C LOAD TRANSLATION ACCESS:      78665  HIT:      44385  MISS:      34280  HIT %:    56.4228  MISS %:    43.5772   MPKI: 0.1714
L2C TRANSLATION FROM L1D PREFETCHER ACCESS:      22211  HIT:      15413  MISS:       6798  HIT %:    69.3935  MISS %:    30.6065   MPKI: 0.03399
L2C PREFETCH  REQUESTED:          0  ISSUED:          0  USEFUL:      57911  USELESS:    1496076
L2C USEFUL LOAD PREFETCHES:      57911 PREFETCH ISSUED TO LOWER LEVEL:    1547019  ACCURACY: 3.74339
L2C TIMELY PREFETCHES:      57911 LATE PREFETCHES: 0 DROPPED PREFETCHES: 0
L2C PREFETCHES SAME FILL-ORIGIN LEVEL: 0 DIFFERENT FILL-ORIGIN LEVEL: 0
L2C AVERAGE MISS LATENCY: 154.441 cycles
L2C RQ	ACCESS:   15177815	FORWARD:          0	MERGED:          0	TO_CACHE:   15177371
L2C WQ	ACCESS:    4402365	FORWARD:        494	MERGED:          0	TO_CACHE:    4402365
L2C PQ	ACCESS:    2298971	FORWARD:          0	MERGED:          0	TO_CACHE:    2298921

L2C Instructions Evicting Data 541514
L2C Translations Evicting Data 37158
L2C Data Evicting Data 6081241
L2C Instructions Evicting Instructions 49846
L2C Translations Evicting Instructions 3742
L2C Data Evicting Instructions 532721
L2C Instructions Evicting Translations 4012
L2C Translations Evicting Translations 178
L2C Data Evicting Translations 36392
L2C Dense regions hint from L2: 0
PSCL5 TOTAL     ACCESS:      88290  HIT:      88290  MISS:          0  HIT %:        100  MISS %:          0   MPKI: 0
PSCL5 LOAD TRANSLATION ACCESS:      71778  HIT:      71778  MISS:          0  HIT %:        100  MISS %:          0   MPKI: 0
PSCL5 TRANSLATION FROM L1D PREFETCHER ACCESS:      16512  HIT:      16512  MISS:          0  HIT %:        100  MISS %:          0   MPKI: 0
PSCL5 PREFETCH  REQUESTED:          0  ISSUED:          0  USEFUL:          0  USELESS:          0
PSCL5 USEFUL LOAD PREFETCHES:          0 PREFETCH ISSUED TO LOWER LEVEL:          0  ACCURACY: -nan
PSCL5 TIMELY PREFETCHES:          0 LATE PREFETCHES: 0 DROPPED PREFETCHES: 0
PSCL5 PREFETCHES SAME FILL-ORIGIN LEVEL: 0 DIFFERENT FILL-ORIGIN LEVEL: 0

PSCL4 TOTAL     ACCESS:      81146  HIT:      81057  MISS:         89  HIT %:    99.8903  MISS %:   0.109679   MPKI: 0.000445
PSCL4 LOAD TRANSLATION ACCESS:      65662  HIT:      65573  MISS:         89  HIT %:    99.8645  MISS %:   0.135543   MPKI: 0.000445
PSCL4 TRANSLATION FROM L1D PREFETCHER ACCESS:      15484  HIT:      15484  MISS:          0  HIT %:        100  MISS %:          0   MPKI: 0
PSCL4 PREFETCH  REQUESTED:          0  ISSUED:          0  USEFUL:          0  USELESS:          0
PSCL4 USEFUL LOAD PREFETCHES:          0 PREFETCH ISSUED TO LOWER LEVEL:          0  ACCURACY: -nan
PSCL4 TIMELY PREFETCHES:          0 LATE PREFETCHES: 0 DROPPED PREFETCHES: 0
PSCL4 PREFETCHES SAME FILL-ORIGIN LEVEL: 0 DIFFERENT FILL-ORIGIN LEVEL: 0

PSCL3 TOTAL     ACCESS:      87289  HIT:      87110  MISS:        179  HIT %:    99.7949  MISS %:   0.205066   MPKI: 0.000895
PSCL3 LOAD TRANSLATION ACCESS:      71274  HIT:      71095  MISS:        179  HIT %:    99.7489  MISS %:   0.251143   MPKI: 0.000895
PSCL3 TRANSLATION FROM L1D PREFETCHER ACCESS:      16015  HIT:      16015  MISS:          0  HIT %:        100  MISS %:          0   MPKI: 0
PSCL3 PREFETCH  REQUESTED:          0  ISSUED:          0  USEFUL:          0  USELESS:          0
PSCL3 USEFUL LOAD PREFETCHES:          0 PREFETCH ISSUED TO LOWER LEVEL:          0  ACCURACY: -nan
PSCL3 TIMELY PREFETCHES:          0 LATE PREFETCHES: 0 DROPPED PREFETCHES: 0
PSCL3 PREFETCHES SAME FILL-ORIGIN LEVEL: 0 DIFFERENT FILL-ORIGIN LEVEL: 0

PSCL2 TOTAL     ACCESS:      83036  HIT:      76242  MISS:       6794  HIT %:     91.818  MISS %:    8.18199   MPKI: 0.03397
PSCL2 LOAD TRANSLATION ACCESS:      71947  HIT:      65153  MISS:       6794  HIT %:    90.5569  MISS %:    9.44306   MPKI: 0.03397
PSCL2 TRANSLATION FROM L1D PREFETCHER ACCESS:      11089  HIT:      11089  MISS:          0  HIT %:        100  MISS %:          0   MPKI: 0
PSCL2 PREFETCH  REQUESTED:          0  ISSUED:          0  USEFUL:          0  USELESS:          0
PSCL2 USEFUL LOAD PREFETCHES:          0 PREFETCH ISSUED TO LOWER LEVEL:          0  ACCURACY: -nan
PSCL2 TIMELY PREFETCHES:          0 LATE PREFETCHES: 0 DROPPED PREFETCHES: 0
PSCL2 PREFETCHES SAME FILL-ORIGIN LEVEL: 0 DIFFERENT FILL-ORIGIN LEVEL: 0

LLC TOTAL     ACCESS:   11382551  HIT:    4749734  MISS:    6632817  HIT %:    41.7282  MISS %:    58.2718   MPKI: 33.1641
LLC LOAD      ACCESS:    2154224  HIT:    1428410  MISS:     725814  HIT %:    66.3074  MISS %:    33.6926   MPKI: 3.62907
LLC RFO       ACCESS:    3544476  HIT:     922620  MISS:    2621856  HIT %:    26.0298  MISS %:    73.9702   MPKI: 13.1093
LLC PREFETCH  ACCESS:    1547018  HIT:     707332  MISS:     839686  HIT %:    45.7223  MISS %:    54.2777   MPKI: 4.19843
AGUS PREFETCH L1 MISS: 0
LLC WRITEBACK ACCESS:    4095755  HIT:    1674731  MISS:    2421024  HIT %:    40.8894  MISS %:    59.1106   MPKI: 12.1051
LLC LOAD TRANSLATION ACCESS:      34280  HIT:      13274  MISS:      21006  HIT %:    38.7223  MISS %:    61.2777   MPKI: 0.10503
LLC TRANSLATION FROM L1D PREFETCHER ACCESS:       6798  HIT:       3367  MISS:       3431  HIT %:    49.5293  MISS %:    50.4707   MPKI: 0.017155
LLC PREFETCH  REQUESTED:          0  ISSUED:          0  USEFUL:       4631  USELESS:     843365
LLC USEFUL LOAD PREFETCHES:       4631 PREFETCH ISSUED TO LOWER LEVEL:     839686  ACCURACY: 0.551516
LLC TIMELY PREFETCHES:       4631 LATE PREFETCHES: 0 DROPPED PREFETCHES: 0
LLC PREFETCHES SAME FILL-ORIGIN LEVEL: 0 DIFFERENT FILL-ORIGIN LEVEL: 0
LLC AVERAGE MISS LATENCY: 139.578 cycles
LLC RQ	ACCESS:    5739791	FORWARD:          0	MERGED:          0	TO_CACHE:    5739783
LLC WQ	ACCESS:    4095755	FORWARD:          8	MERGED:          0	TO_CACHE:    4095755
LLC PQ	ACCESS:    1547019	FORWARD:          0	MERGED:          0	TO_CACHE:    1547019

LLC Dense regions hint to LLC: 0

RAW hits: 2396270
Loads Generated: 47729674
Loads sent to L1D: 45333402
Stores Generated: 34266023
Stores sent to L1D: 34266000
Major fault: 0 Minor fault: 8372
Allocated PAGES: 8372
CPU 0 L1D 
Prefetch count 2873746 BOP and RL 

DRAM Statistics
 CHANNEL 0
 RQ ROW_BUFFER_HIT:    1959399  ROW_BUFFER_MISS:    2251932
 DBUS_CONGESTED:       2444
 WQ ROW_BUFFER_HIT:     542402  ROW_BUFFER_MISS:    2172214  FULL:      48012

 AVG_CONGESTED_CYCLE: 3
 All warmup complete: 2
Channel 0 Bank busy for read cycles: 0
Channel 0 Bank busy for write cycles: 0
Channel 0
Rank 0
0banks busy for read cycles: 156834066
0banks busy for write cycles: 230027
1banks busy for read cycles: 35408110
1banks busy for write cycles: 28747799
2banks busy for read cycles: 18842879
2banks busy for write cycles: 13844262
3banks busy for read cycles: 19844440
3banks busy for write cycles: 8304576
4banks busy for read cycles: 7588044
4banks busy for write cycles: 5576898
5banks busy for read cycles: 6010143
5banks busy for write cycles: 4378647
6banks busy for read cycles: 7453702
6banks busy for write cycles: 4056220
7banks busy for read cycles: 7248817
7banks busy for write cycles: 6414725
8banks busy for read cycles: 19338678
8banks busy for write cycles: 34686291

CPU 0 Branch Prediction Accuracy: 99.9491% MPKI: 0.077685 Average ROB Occupancy at Mispredict: 125.055
Branch types
NOT_BRANCH: 169475776 84.7379%
BRANCH_DIRECT_JUMP: 1658498 0.829249%
BRANCH_INDIRECT: 9965680 4.98284%
BRANCH_CONDITIONAL: 12076911 6.03846%
BRANCH_DIRECT_CALL: 2819430 1.40971%
BRANCH_INDIRECT_CALL: 592212 0.296106%
BRANCH_RETURN: 3411709 1.70585%
BRANCH_OTHER: 0 0%

DRAM PAGES: 1048576
Allocated PAGES: 8372
