
*** ChampSim Multicore Out-of-Order Simulator ***

Warmup Instructions: 50000000
Simulation Instructions: 200000000
Number of CPUs: 1
LLC sets: 2048
LLC ways: 16
Off-chip DRAM Size: 4096 MB Channels: 1 Width: 64-bit Data Rate: 6400 MT/s
CPU 0 runs traces/spec2k17/srv_69.champsimtrace.xz
.xz
BTB has LRU replacement policy
ITLB has LRU replacement policy
DTLB has LRU replacement policy
STLB has LRU replacement policy
L1I has LRU replacement policy
CPU 0 l1d next line prefetcher
L1D has LRU replacement policy
Initialize SRRIP state for L2C
Initialize DRRIP state for LLC
Offsets elements: 
Potential of Offsets elements: 
rewards of Offsets elements: 
Printing Sanity1
offset list size2329
Heartbeat CPU 0 instructions: 10000001 cycles: 2789079 heartbeat IPC: 3.58541 cumulative IPC: 3.58541 (Simulation time: 0 hr 0 min 33 sec) 
Heartbeat CPU 0 instructions: 20000000 cycles: 5578792 heartbeat IPC: 3.5846 cumulative IPC: 3.58501 (Simulation time: 0 hr 1 min 6 sec) 
Heartbeat CPU 0 instructions: 30000000 cycles: 8360102 heartbeat IPC: 3.59543 cumulative IPC: 3.58847 (Simulation time: 0 hr 1 min 40 sec) 
*** Reached end of trace for Core: 0 Repeating trace: traces/spec2k17/srv_69.champsimtrace.xz
Heartbeat CPU 0 instructions: 40000003 cycles: 11143186 heartbeat IPC: 3.59314 cumulative IPC: 3.58964 (Simulation time: 0 hr 2 min 15 sec) 
Heartbeat CPU 0 instructions: 50000003 cycles: 13932776 heartbeat IPC: 3.58476 cumulative IPC: 3.58866 (Simulation time: 0 hr 2 min 48 sec) 

Warmup complete CPU 0 instructions: 50000003 cycles: 13932776 (Simulation time: 0 hr 2 min 48 sec) 

Heartbeat CPU 0 instructions: 60000000 cycles: 37715666 heartbeat IPC: 0.42047 cumulative IPC: 0.42047 (Simulation time: 0 hr 3 min 41 sec) 
*** Reached end of trace for Core: 0 Repeating trace: traces/spec2k17/srv_69.champsimtrace.xz
Heartbeat CPU 0 instructions: 70000000 cycles: 61619213 heartbeat IPC: 0.418348 cumulative IPC: 0.419406 (Simulation time: 0 hr 4 min 36 sec) 
Heartbeat CPU 0 instructions: 80000000 cycles: 85810266 heartbeat IPC: 0.413376 cumulative IPC: 0.417377 (Simulation time: 0 hr 5 min 29 sec) 
Heartbeat CPU 0 instructions: 90000001 cycles: 110399738 heartbeat IPC: 0.406678 cumulative IPC: 0.41465 (Simulation time: 0 hr 6 min 23 sec) 
*** Reached end of trace for Core: 0 Repeating trace: traces/spec2k17/srv_69.champsimtrace.xz
Heartbeat CPU 0 instructions: 100000000 cycles: 134472887 heartbeat IPC: 0.415401 cumulative IPC: 0.4148 (Simulation time: 0 hr 7 min 16 sec) 
Heartbeat CPU 0 instructions: 110000000 cycles: 158352953 heartbeat IPC: 0.418759 cumulative IPC: 0.415454 (Simulation time: 0 hr 8 min 11 sec) 
Offsets elements: 
Potential of Offsets elements: 
rewards of Offsets elements: 0 0 0 2 1 0 129 0 133 0 0 0 0 0 0 0 0 0 0 0 0 0 2 0 0 0 0 0 3 0 0 74 0 2 0 0 0 0 0 0 0 0 0 2 0 0 0 0 0 0 0 110 0 0 0 0 0 0 0 0 0 0 0 0 0 0 0 0 0 0 0 0 0 0 0 2 2 2 0 0 0 0 0 0 0 0 0 0 0 0 0 0 0 0 61 64 114 0 31 0 0 1 0 0 0 104 0 0 0 0 0 0 0 0 0 0 0 0 0 3 51 0 0 4 0 20 0 0 0 0 0 0 0 0 0 0 0 0 0 0 8 0 0 1 12 3 0 0 0 0 0 0 4 0 0 0 0 0 0 0 0 0 0 0 0 0 0 1 0 0 0 0 0 0 2 0 0 0 1 0 0 0 0 24 0 0 0 0 0 0 3 0 0 0 0 0 0 0 1 0 0 0 0 5 0 127 42 0 0 0 0 0 0 0 0 0 0 0 0 0 3 0 0 0 0 0 0 0 1 0 0 0 0 0 0 0 0 0 0 0 0 0 0 0 0 0 0 0 0 0 0 0 0 0 0 0 0 0 0 0 0 0 0 0 80 0 0 0 43 2 0 0 0 0 5 0 0 0 1 0 3 0 0 4 0 0 2 0 62 0 0 0 0 0 0 0 0 0 0 0 0 1 0 0 0 0 0 0 0 0 0 0 0 0 0 0 0 1 0 0 0 0 0 0 12 5 0 0 0 0 0 0 132 6 29 60 23 24 0 0 0 0 0 0 0 0 0 0 0 0 0 0 3 0 0 0 0 0 0 0 0 0 0 0 0 0 0 0 0 0 57 0 0 0 0 0 0 0 0 0 0 0 0 0 0 5 0 0 0 1 1 0 0 0 0 0 0 0 0 0 0 0 26 0 0 1 0 0 0 0 0 0 0 0 0 1 0 0 0 0 0 0 0 1 0 0 0 0 0 0 20 2 13 0 2 37 0 27 39 1 0 0 0 0 1 0 0 0 0 0 0 0 0 0 0 29 0 0 0 0 0 0 0 0 0 0 0 0 0 0 0 0 0 0 0 0 0 0 0 0 0 0 0 2 1 2 0 0 0 0 0 0 0 0 0 0 0 0 0 0 0 0 0 23 0 59 0 0 0 4 0 0 0 0 0 0 48 0 0 0 0 0 0 0 0 0 1 0 0 0 0 1 0 0 0 0 0 0 0 0 0 0 8 0 0 0 0 0 0 0 0 0 0 0 0 0 0 2 0 1 0 0 0 0 0 0 0 0 0 0 0 0 0 0 0 0 11 14 0 0 0 0 0 14 0 0 0 0 0 0 0 32 0 0 0 0 6 9 0 0 0 0 1 0 0 0 0 0 0 3 0 0 0 0 0 0 0 0 0 0 0 0 0 0 0 0 0 1 4 0 0 0 0 0 0 8 36 0 0 0 0 0 0 22 3 4 1 37 42 60 37 33 42 0 0 0 0 0 0 3 0 2 0 0 0 0 0 0 0 3 0 0 0 1 1 0 0 0 0 0 7 2 27 39 0 3 2 1 0 0 47 0 0 0 0 9 0 0 0 0 0 0 20 0 0 3 0 0 0 0 0 0 0 4 8 0 0 0 2 1 0 1 4 0 0 0 0 0 40 0 0 0 0 0 0 0 0 0 0 0 0 0 0 0 0 2 0 0 0 0 0 0 0 0 0 0 1 0 0 2 0 0 0 0 0 0 0 0 0 0 0 0 0 0 0 0 0 0 0 0 0 0 0 0 0 0 0 0 0 0 0 0 0 0 0 0 0 0 0 0 0 0 0 0 0 0 0 0 0 0 0 0 0 0 0 7 1 3 0 0 8 0 34 1 1 0 0 0 0 0 0 35 0 0 0 0 0 0 1 0 0 0 0 0 2 0 0 0 0 0 0 0 0 0 0 0 0 0 0 0 0 1 0 0 0 0 0 0 0 0 0 0 0 0 0 0 0 0 2 0 0 1 0 0 0 0 0 0 0 0 0 0 0 3 0 0 0 0 2 0 0 0 0 0 0 0 3 0 0 0 0 0 0 0 0 0 0 0 0 0 0 0 0 0 0 0 0 0 0 0 0 0 0 0 0 0 0 0 0 0 0 0 1 3 0 0 0 0 0 0 1 0 1 7 1 0 0 1 0 0 2 0 0 0 0 0 0 2 0 0 0 0 0 0 0 0 0 0 0 0 0 0 0 0 0 0 0 0 2 0 0 0 0 1 0 0 0 0 0 8 0 0 0 0 0 0 0 0 0 0 0 25 5 99 0 0 0 0 0 3 0 0 0 0 0 0 1 0 0 0 0 0 0 0 0 0 0 6 0 0 0 0 32 0 0 0 1 0 0 0 0 0 0 0 0 0 0 0 0 0 0 0 0 0 0 0 0 0 0 0 0 0 0 0 0 0 0 0 0 0 0 0 0 0 0 0 0 2 0 0 1 0 0 0 0 0 0 0 1 0 0 0 0 0 0 0 0 3 0 0 1 0 0 0 0 0 0 0 0 0 0 0 0 0 0 0 1 0 0 0 0 1 0 0 0 0 0 0 0 0 0 0 0 0 0 0 0 0 0 0 0 0 0 0 0 0 0 0 0 0 0 0 0 0 0 0 0 0 0 0 0 0 0 0 0 0 0 0 0 0 0 0 0 0 0 2 0 0 0 0 2 17 12 8 21 4 0 0 0 0 1 4 0 0 0 0 0 0 0 0 0 0 0 0 0 0 0 0 0 0 0 0 0 0 0 0 0 42 0 0 0 0 0 0 0 0 0 0 0 0 0 0 0 0 0 0 2 0 0 8 10 0 0 0 17 118 0 1 0 0 0 0 0 1 7 0 0 0 0 0 0 2 0 4 0 0 5 95 6 1 0 0 0 29 0 0 0 172 0 0 0 0 0 0 3 1 0 0 0 0 0 0 3 1 0 3 0 16 0 0 1 6 13 0 0 0 0 0 0 4 10 5 0 0 35 0 7 0 0 0 0 0 1 0 0 0 0 0 2 4 0 8 0 0 4 0 0 0 0 0 0 0 0 0 0 2 0 6 1 0 0 0 0 0 0 0 0 0 0 0 0 22 0 0 0 0 0 0 0 0 0 0 4 0 0 0 0 0 0 0 0 0 0 0 0 0 0 0 0 0 0 0 0 0 0 0 0 1 0 0 0 0 0 0 0 0 0 0 0 1 0 0 0 0 0 0 0 0 1 0 0 0 0 0 0 0 0 0 3 0 0 0 0 0 0 0 0 0 0 0 0 0 0 4 0 1 0 0 0 0 0 0 0 0 0 0 0 0 0 0 0 0 0 0 0 0 0 0 0 0 0 0 0 3 0 0 1 0 0 0 0 0 0 0 0 2 1 0 0 0 0 0 0 0 0 0 0 0 0 0 2 0 0 0 0 0 0 0 0 0 0 0 0 0 0 0 0 0 0 0 0 0 0 0 0 0 0 0 0 0 0 0 0 0 0 1 0 1 0 0 0 0 0 0 0 0 0 0 0 0 0 0 0 0 0 0 0 0 0 0 0 0 0 0 0 0 0 1 0 0 0 0 0 2 0 0 0 0 0 0 0 0 0 0 1 0 0 0 0 0 0 36 1 0 0 0 0 0 0 0 0 0 0 0 0 0 0 0 0 0 0 0 0 0 0 0 0 0 0 0 0 0 0 0 0 1 0 0 0 0 0 0 0 0 0 0 0 0 0 0 0 7 0 0 0 0 0 0 0 0 0 0 0 0 0 12 0 0 0 0 0 0 0 0 0 0 0 0 3 0 4 0 0 0 0 0 0 1 0 0 0 0 0 0 1 0 1 1 0 0 0 0 0 2 3 5 0 0 0 0 2 0 0 0 0 0 0 0 0 0 0 0 0 0 0 0 0 0 0 0 0 0 0 0 0 0 0 0 1 0 4 0 0 0 0 1 0 0 1 0 0 0 0 3 0 0 0 0 0 0 0 0 0 0 0 0 0 0 0 0 0 1 0 0 0 0 0 0 0 0 0 0 0 0 0 0 0 0 0 0 0 0 0 0 0 0 0 0 0 0 7 0 1 0 0 0 0 0 0 0 2 0 0 0 0 0 0 0 0 0 0 1 0 0 0 0 0 0 0 0 0 0 0 0 0 0 0 0 0 0 0 0 0 0 0 0 0 0 3 0 0 0 0 0 0 0 0 0 0 0 0 1 11 0 0 0 0 0 0 0 0 0 0 0 0 0 0 0 0 0 0 0 0 0 0 0 1 0 0 0 0 0 0 0 0 0 0 0 0 0 0 1 0 0 0 0 0 22 0 0 0 0 0 0 0 0 0 0 28 0 0 0 0 0 0 0 0 0 0 0 0 0 0 0 0 0 0 0 0 0 0 0 0 0 0 0 0 0 0 1 3 0 0 0 3 0 0 1 0 0 0 0 0 0 0 0 0 0 0 0 0 0 0 0 0 0 1 0 0 0 0 0 0 0 0 0 0 0 0 0 0 0 0 5 5 1 0 0 0 0 1 0 0 0 0 0 0 0 0 0 0 0 0 0 0 0 0 0 0 0 0 0 0 0 0 0 0 0 0 0 0 0 0 0 0 0 0 0 0 0 0 0 0 0 0 0 0 0 0 0 0 0 0 0 0 0 1 0 0 0 0 0 0 0 0 0 0 0 0 0 0 0 0 0 0 0 0 0 0 0 0 0 0 0 1 0 0 0 0 0 0 0 0 0 0 0 0 1 0 0 0 0 0 0 0 0 0 0 0 0 0 0 0 0 0 0 0 0 0 1 2 1 0 0 0 0 0 1 0 0 0 0 0 0 0 0 0 0 2 0 0 0 0 0 0 0 0 0 0 0 0 0 0 0 0 0 0 0 0 0 0 1 0 0 0 0 0 0 0 0 0 0 0 0 0 0 1 0 0 0 0 0 0 0 1 0 0 0 0 0 0 0 0 0 0 0 0 1 0 0 0 0 13 0 0 0 0 0 0 0 0 0 0 0 0 1 0 0 0 0 1 0 0 0 0 0 0 101 0 0 0 0 0 0 0 0 0 1 0 0 0 0 0 0 0 0 0 0 0 4 0 0 0 0 0 0 0 0 0 0 0 0 0 0 0 0 1 0 0 0 0 0 0 0 0 0 0 0 0 0 0 0 0 0 0 0 0 0 0 0 0 1 3 1 0 0 0 0 0 0 1 0 1 0 0 0 0 0 0 0 0 0 0 0 1 0 33 0 0 0 0 0 0 0 0 0 0 0 0 
Printing Sanity2
Heartbeat CPU 0 instructions: 120000002 cycles: 183151500 heartbeat IPC: 0.40325 cumulative IPC: 0.413666 (Simulation time: 0 hr 9 min 3 sec) 
*** Reached end of trace for Core: 0 Repeating trace: traces/spec2k17/srv_69.champsimtrace.xz
Heartbeat CPU 0 instructions: 130000000 cycles: 207469062 heartbeat IPC: 0.411225 cumulative IPC: 0.413359 (Simulation time: 0 hr 9 min 54 sec) 
Heartbeat CPU 0 instructions: 140000003 cycles: 232359170 heartbeat IPC: 0.401766 cumulative IPC: 0.412038 (Simulation time: 0 hr 10 min 42 sec) 
Heartbeat CPU 0 instructions: 150000000 cycles: 257165129 heartbeat IPC: 0.403129 cumulative IPC: 0.41113 (Simulation time: 0 hr 11 min 31 sec) 
*** Reached end of trace for Core: 0 Repeating trace: traces/spec2k17/srv_69.champsimtrace.xz
Heartbeat CPU 0 instructions: 160000001 cycles: 281349028 heartbeat IPC: 0.413498 cumulative IPC: 0.411344 (Simulation time: 0 hr 12 min 25 sec) 
Heartbeat CPU 0 instructions: 170000000 cycles: 305799956 heartbeat IPC: 0.408982 cumulative IPC: 0.411146 (Simulation time: 0 hr 13 min 16 sec) 
Heartbeat CPU 0 instructions: 180000003 cycles: 330923998 heartbeat IPC: 0.398025 cumulative IPC: 0.410106 (Simulation time: 0 hr 14 min 9 sec) 
*** Reached end of trace for Core: 0 Repeating trace: traces/spec2k17/srv_69.champsimtrace.xz
Heartbeat CPU 0 instructions: 190000000 cycles: 354997299 heartbeat IPC: 0.415398 cumulative IPC: 0.41048 (Simulation time: 0 hr 15 min 2 sec) 
Heartbeat CPU 0 instructions: 200000000 cycles: 379744117 heartbeat IPC: 0.404092 cumulative IPC: 0.410047 (Simulation time: 0 hr 15 min 56 sec) 
Heartbeat CPU 0 instructions: 210000002 cycles: 404763540 heartbeat IPC: 0.39969 cumulative IPC: 0.409384 (Simulation time: 0 hr 16 min 47 sec) 
*** Reached end of trace for Core: 0 Repeating trace: traces/spec2k17/srv_69.champsimtrace.xz
Heartbeat CPU 0 instructions: 220000000 cycles: 428879189 heartbeat IPC: 0.414668 cumulative IPC: 0.409691 (Simulation time: 0 hr 17 min 34 sec) 
Heartbeat CPU 0 instructions: 230000003 cycles: 453715158 heartbeat IPC: 0.402642 cumulative IPC: 0.409293 (Simulation time: 0 hr 18 min 26 sec) 
Heartbeat CPU 0 instructions: 240000000 cycles: 478787504 heartbeat IPC: 0.398846 cumulative IPC: 0.40873 (Simulation time: 0 hr 19 min 20 sec) 
*** Reached end of trace for Core: 0 Repeating trace: traces/spec2k17/srv_69.champsimtrace.xz
Heartbeat CPU 0 instructions: 250000003 cycles: 502648835 heartbeat IPC: 0.419088 cumulative IPC: 0.409236 (Simulation time: 0 hr 20 min 13 sec) 
Finished CPU 0 instructions: 200000000 cycles: 488716059 cumulative IPC: 0.409236 (Simulation time: 0 hr 20 min 13 sec) 

ChampSim completed all CPUs

Region of Interest Statistics

CPU 0 cumulative IPC: 0.409236 instructions: 200000000 cycles: 488716059
ITLB TOTAL     ACCESS:   31682909  HIT:   30867445  MISS:     815464  HIT %:    97.4262  MISS %:    2.57383   MPKI: 4.07732
ITLB LOAD TRANSLATION ACCESS:   31682909  HIT:   30867445  MISS:     815464  HIT %:    97.4262  MISS %:    2.57383   MPKI: 4.07732
ITLB PREFETCH  REQUESTED:          0  ISSUED:          0  USEFUL:          0  USELESS:          0
ITLB USEFUL LOAD PREFETCHES:          0 PREFETCH ISSUED TO LOWER LEVEL:          0  ACCURACY: -nan
ITLB TIMELY PREFETCHES:          0 LATE PREFETCHES: 0 DROPPED PREFETCHES: 0
ITLB PREFETCHES SAME FILL-ORIGIN LEVEL: 0 DIFFERENT FILL-ORIGIN LEVEL: 0
ITLB AVERAGE MISS LATENCY: 16.3641 cycles
ITLB RQ	ACCESS:   38414059	FORWARD:          0	MERGED:    6539159	TO_CACHE:   31874900

DTLB TOTAL     ACCESS:   38069420  HIT:   35607521  MISS:    2461899  HIT %:    93.5331  MISS %:    6.46687   MPKI: 12.3095
DTLB LOAD TRANSLATION ACCESS:   38069420  HIT:   35607521  MISS:    2461899  HIT %:    93.5331  MISS %:    6.46687   MPKI: 12.3095
DTLB PREFETCH  REQUESTED:          0  ISSUED:          0  USEFUL:          0  USELESS:          0
DTLB USEFUL LOAD PREFETCHES:          0 PREFETCH ISSUED TO LOWER LEVEL:          0  ACCURACY: -nan
DTLB TIMELY PREFETCHES:          0 LATE PREFETCHES: 0 DROPPED PREFETCHES: 0
DTLB PREFETCHES SAME FILL-ORIGIN LEVEL: 0 DIFFERENT FILL-ORIGIN LEVEL: 0
DTLB AVERAGE MISS LATENCY: 14.933 cycles
DTLB RQ	ACCESS:   48462425	FORWARD:          0	MERGED:   10248262	TO_CACHE:   38214163

STLB TOTAL     ACCESS:    5152623  HIT:    4691923  MISS:     460700  HIT %:    91.0589  MISS %:    8.94108   MPKI: 2.3035
STLB LOAD TRANSLATION ACCESS:    3277363  HIT:    2828053  MISS:     449310  HIT %:    86.2905  MISS %:    13.7095   MPKI: 2.24655
STLB TRANSLATION FROM L1D PREFETCHER ACCESS:    1875260  HIT:    1863870  MISS:      11390  HIT %:    99.3926  MISS %:   0.607382   MPKI: 0.05695
STLB PREFETCH  REQUESTED:          0  ISSUED:          0  USEFUL:       9327  USELESS:       2058
STLB USEFUL LOAD PREFETCHES:       9327 PREFETCH ISSUED TO LOWER LEVEL:          0  ACCURACY: inf
STLB TIMELY PREFETCHES:       9327 LATE PREFETCHES: 395 DROPPED PREFETCHES: 38424
STLB PREFETCHES SAME FILL-ORIGIN LEVEL: 0 DIFFERENT FILL-ORIGIN LEVEL: 0
STLB AVERAGE MISS LATENCY: 2102.73 cycles
STLB RQ	ACCESS:    6602607	FORWARD:          0	MERGED:    1409720	TO_CACHE:    5192887

STLB Hit, L1D data hit: 0
STLB Hit, L2C data hit: 0
STLB Hit, LLC data hit: 0
STLB Hit, LLC data miss: 0
STLB STLB hints to L2: 0
L1D TOTAL     ACCESS:   50945395  HIT:   46133574  MISS:    4811821  HIT %:    90.5549  MISS %:    9.44506   MPKI: 24.0591
L1D LOAD      ACCESS:   28416542  HIT:   26444499  MISS:    1972043  HIT %:    93.0602  MISS %:    6.93977   MPKI: 9.86022
L1D RFO       ACCESS:   19534097  HIT:   19199097  MISS:     335000  HIT %:     98.285  MISS %:    1.71495   MPKI: 1.675
L1D PREFETCH  ACCESS:    2994756  HIT:     489978  MISS:    2504778  HIT %:    16.3612  MISS %:    83.6388   MPKI: 12.5239
AGUS PREFETCH L1 MISS: 0
L1D PREFETCH  REQUESTED:    6728458  ISSUED:    6728227  USEFUL:     446346  USELESS:    2058268
L1D USEFUL LOAD PREFETCHES:     446346 PREFETCH ISSUED TO LOWER LEVEL:    2541410  ACCURACY: 17.5629
L1D TIMELY PREFETCHES:     446346 LATE PREFETCHES: 35374 DROPPED PREFETCHES: 42762
L1D PREFETCHES SAME FILL-ORIGIN LEVEL: 2541410 DIFFERENT FILL-ORIGIN LEVEL: 0
L1D AVERAGE MISS LATENCY: 1.99437e+06 cycles
L1D RQ	ACCESS:   42720865	FORWARD:          0	MERGED:   13973792	TO_CACHE:   28528239
L1D WQ	ACCESS:   20255400	FORWARD:     220342	MERGED:     321214	TO_CACHE:   19934186
L1D PQ	ACCESS:    3402983	FORWARD:          0	MERGED:      76231	TO_CACHE:    3325244

L1D UNIQUE REGIONS ACCESSED: 0
L1D REGIONS CONFLICTS: 0
L1D Cross Page Prefetch Requests: 1462139
L1D Same Page Prefetch Requests: 2447189
L1D ROI Sum of L1D PQ occupancy: 46518736
L1D PREFETCHES PUSHED FROM L2C: 0
L1I TOTAL     ACCESS:   36780127  HIT:   31721364  MISS:    5058763  HIT %:    86.2459  MISS %:    13.7541   MPKI: 25.2938
L1I LOAD      ACCESS:   36780127  HIT:   31721364  MISS:    5058763  HIT %:    86.2459  MISS %:    13.7541   MPKI: 25.2938
L1I PREFETCH  REQUESTED:          0  ISSUED:          0  USEFUL:          0  USELESS:          0
L1I USEFUL LOAD PREFETCHES:          0 PREFETCH ISSUED TO LOWER LEVEL:          0  ACCURACY: -nan
L1I TIMELY PREFETCHES:          0 LATE PREFETCHES: 0 DROPPED PREFETCHES: 0
L1I PREFETCHES SAME FILL-ORIGIN LEVEL: 0 DIFFERENT FILL-ORIGIN LEVEL: 0
L1I AVERAGE MISS LATENCY: 30.7864 cycles
L1I RQ	ACCESS:   57430656	FORWARD:          0	MERGED:   19016597	TO_CACHE:   38414059

BTB TOTAL     ACCESS:   23164672  HIT:   18167926  MISS:    4996746  HIT %:    78.4295  MISS %:    21.5705   MPKI: 24.9837
BTB BRANCH_DIRECT_JUMP	ACCESS:    1914726  HIT:    1629531  MISS:     285195
BTB BRANCH_INDIRECT	ACCESS:    9756590  HIT:    7380331  MISS:    2376259
BTB BRANCH_CONDITIONAL	ACCESS:    4774696  HIT:    4326608  MISS:     448088
BTB BRANCH_DIRECT_CALL	ACCESS:    2648257  HIT:    2097355  MISS:     550902
BTB BRANCH_INDIRECT_CALL	ACCESS:     697289  HIT:     631848  MISS:      65441
BTB BRANCH_RETURN	ACCESS:    3373114  HIT:    2102253  MISS:    1270861
BTB BRANCH_OTHER ACCESS:          0  HIT:          0  MISS:          0

L2C TOTAL     ACCESS:   11564294  HIT:    6214067  MISS:    5350227  HIT %:    53.7349  MISS %:    46.2651   MPKI: 26.7511
L2C LOAD      ACCESS:    6995337  HIT:    3576903  MISS:    3418434  HIT %:    51.1327  MISS %:    48.8673   MPKI: 17.0922
L2C DATA LOAD MPKI: 4.71196
L2C INSTRUCTION LOAD MPKI: 12.3802
L2C RFO       ACCESS:     333731  HIT:     162214  MISS:     171517  HIT %:    48.6062  MISS %:    51.3938   MPKI: 0.857585
L2C PREFETCH  ACCESS:    2541397  HIT:    1070165  MISS:    1471232  HIT %:    42.1093  MISS %:    57.8907   MPKI: 7.35616
AGUS PREFETCH L1 MISS: 0
L2C DATA PREFETCH MPKI: 7.35616
L2C INSTRUCTION PREFETCH MPKI: 0
L2C WRITEBACK ACCESS:    1055388  HIT:    1016069  MISS:      39319  HIT %:    96.2745  MISS %:    3.72555   MPKI: 0.196595
L2C LOAD TRANSLATION ACCESS:     568597  HIT:     328936  MISS:     239661  HIT %:    57.8505  MISS %:    42.1495   MPKI: 1.1983
L2C TRANSLATION FROM L1D PREFETCHER ACCESS:      69844  HIT:      59780  MISS:      10064  HIT %:    85.5907  MISS %:    14.4093   MPKI: 0.05032
L2C PREFETCH  REQUESTED:          0  ISSUED:          0  USEFUL:      68127  USELESS:    1412345
L2C USEFUL LOAD PREFETCHES:      68127 PREFETCH ISSUED TO LOWER LEVEL:    1471232  ACCURACY: 4.63061
L2C TIMELY PREFETCHES:      68127 LATE PREFETCHES: 0 DROPPED PREFETCHES: 0
L2C PREFETCHES SAME FILL-ORIGIN LEVEL: 0 DIFFERENT FILL-ORIGIN LEVEL: 0
L2C AVERAGE MISS LATENCY: 46.9959 cycles
L2C RQ	ACCESS:    7967615	FORWARD:          0	MERGED:          0	TO_CACHE:    7967509
L2C WQ	ACCESS:    1055388	FORWARD:        119	MERGED:          0	TO_CACHE:    1055388
L2C PQ	ACCESS:    2541410	FORWARD:          0	MERGED:          0	TO_CACHE:    2541397

L2C Instructions Evicting Data 1198728
L2C Translations Evicting Data 120125
L2C Data Evicting Data 1286073
L2C Instructions Evicting Instructions 1157575
L2C Translations Evicting Instructions 119838
L2C Data Evicting Instructions 1180675
L2C Instructions Evicting Translations 119739
L2C Translations Evicting Translations 9762
L2C Data Evicting Translations 118393
L2C Dense regions hint from L2: 0
PSCL5 TOTAL     ACCESS:     499124  HIT:     499124  MISS:          0  HIT %:        100  MISS %:          0   MPKI: 0
PSCL5 LOAD TRANSLATION ACCESS:     448915  HIT:     448915  MISS:          0  HIT %:        100  MISS %:          0   MPKI: 0
PSCL5 TRANSLATION FROM L1D PREFETCHER ACCESS:      50209  HIT:      50209  MISS:          0  HIT %:        100  MISS %:          0   MPKI: 0
PSCL5 PREFETCH  REQUESTED:          0  ISSUED:          0  USEFUL:          0  USELESS:          0
PSCL5 USEFUL LOAD PREFETCHES:          0 PREFETCH ISSUED TO LOWER LEVEL:          0  ACCURACY: -nan
PSCL5 TIMELY PREFETCHES:          0 LATE PREFETCHES: 0 DROPPED PREFETCHES: 0
PSCL5 PREFETCHES SAME FILL-ORIGIN LEVEL: 0 DIFFERENT FILL-ORIGIN LEVEL: 0

PSCL4 TOTAL     ACCESS:     462549  HIT:     461282  MISS:       1267  HIT %:    99.7261  MISS %:   0.273917   MPKI: 0.006335
PSCL4 LOAD TRANSLATION ACCESS:     419379  HIT:     418112  MISS:       1267  HIT %:    99.6979  MISS %:   0.302113   MPKI: 0.006335
PSCL4 TRANSLATION FROM L1D PREFETCHER ACCESS:      43170  HIT:      43170  MISS:          0  HIT %:        100  MISS %:          0   MPKI: 0
PSCL4 PREFETCH  REQUESTED:          0  ISSUED:          0  USEFUL:          0  USELESS:          0
PSCL4 USEFUL LOAD PREFETCHES:          0 PREFETCH ISSUED TO LOWER LEVEL:          0  ACCURACY: -nan
PSCL4 TIMELY PREFETCHES:          0 LATE PREFETCHES: 0 DROPPED PREFETCHES: 0
PSCL4 PREFETCHES SAME FILL-ORIGIN LEVEL: 0 DIFFERENT FILL-ORIGIN LEVEL: 0

PSCL3 TOTAL     ACCESS:     494919  HIT:     491206  MISS:       3713  HIT %:    99.2498  MISS %:   0.750224   MPKI: 0.018565
PSCL3 LOAD TRANSLATION ACCESS:     445496  HIT:     441783  MISS:       3713  HIT %:    99.1665  MISS %:   0.833453   MPKI: 0.018565
PSCL3 TRANSLATION FROM L1D PREFETCHER ACCESS:      49423  HIT:      49423  MISS:          0  HIT %:        100  MISS %:          0   MPKI: 0
PSCL3 PREFETCH  REQUESTED:          0  ISSUED:          0  USEFUL:          0  USELESS:          0
PSCL3 USEFUL LOAD PREFETCHES:          0 PREFETCH ISSUED TO LOWER LEVEL:          0  ACCURACY: -nan
PSCL3 TIMELY PREFETCHES:          0 LATE PREFETCHES: 0 DROPPED PREFETCHES: 0
PSCL3 PREFETCHES SAME FILL-ORIGIN LEVEL: 0 DIFFERENT FILL-ORIGIN LEVEL: 0

PSCL2 TOTAL     ACCESS:     482394  HIT:     364862  MISS:     117532  HIT %:    75.6357  MISS %:    24.3643   MPKI: 0.58766
PSCL2 LOAD TRANSLATION ACCESS:     451628  HIT:     334096  MISS:     117532  HIT %:    73.9759  MISS %:    26.0241   MPKI: 0.58766
PSCL2 TRANSLATION FROM L1D PREFETCHER ACCESS:      30766  HIT:      30766  MISS:          0  HIT %:        100  MISS %:          0   MPKI: 0
PSCL2 PREFETCH  REQUESTED:          0  ISSUED:          0  USEFUL:          0  USELESS:          0
PSCL2 USEFUL LOAD PREFETCHES:          0 PREFETCH ISSUED TO LOWER LEVEL:          0  ACCURACY: -nan
PSCL2 TIMELY PREFETCHES:          0 LATE PREFETCHES: 0 DROPPED PREFETCHES: 0
PSCL2 PREFETCHES SAME FILL-ORIGIN LEVEL: 0 DIFFERENT FILL-ORIGIN LEVEL: 0

LLC TOTAL     ACCESS:    5838607  HIT:    5230755  MISS:     607852  HIT %:    89.5891  MISS %:    10.4109   MPKI: 3.03926
LLC LOAD      ACCESS:    3418433  HIT:    3193692  MISS:     224741  HIT %:    93.4256  MISS %:    6.57439   MPKI: 1.1237
LLC RFO       ACCESS:     171516  HIT:     115862  MISS:      55654  HIT %:    67.5517  MISS %:    32.4483   MPKI: 0.27827
LLC PREFETCH  ACCESS:    1471229  HIT:    1170406  MISS:     300823  HIT %:    79.5529  MISS %:    20.4471   MPKI: 1.50412
AGUS PREFETCH L1 MISS: 0
LLC WRITEBACK ACCESS:     527704  HIT:     515410  MISS:      12294  HIT %:    97.6703  MISS %:    2.32972   MPKI: 0.06147
LLC LOAD TRANSLATION ACCESS:     239661  HIT:     226131  MISS:      13530  HIT %:    94.3545  MISS %:    5.64547   MPKI: 0.06765
LLC TRANSLATION FROM L1D PREFETCHER ACCESS:      10064  HIT:       9254  MISS:        810  HIT %:    91.9515  MISS %:    8.04849   MPKI: 0.00405
LLC PREFETCH  REQUESTED:          0  ISSUED:          0  USEFUL:      16429  USELESS:     282504
LLC USEFUL LOAD PREFETCHES:      16429 PREFETCH ISSUED TO LOWER LEVEL:     300823  ACCURACY: 5.46135
LLC TIMELY PREFETCHES:      16429 LATE PREFETCHES: 0 DROPPED PREFETCHES: 0
LLC PREFETCHES SAME FILL-ORIGIN LEVEL: 0 DIFFERENT FILL-ORIGIN LEVEL: 0
LLC AVERAGE MISS LATENCY: 151.528 cycles
LLC RQ	ACCESS:    3839676	FORWARD:          0	MERGED:          0	TO_CACHE:    3839674
LLC WQ	ACCESS:     527704	FORWARD:          5	MERGED:          0	TO_CACHE:     527704
LLC PQ	ACCESS:    1471232	FORWARD:          0	MERGED:          0	TO_CACHE:    1471229

LLC Dense regions hint to LLC: 0

RAW hits: 2657246
Loads Generated: 45378115
Loads sent to L1D: 42720865
Stores Generated: 20255404
Stores sent to L1D: 20255400
Major fault: 0 Minor fault: 5460
Allocated PAGES: 5460
CPU 0 L1D 
Prefetch count 2950006 BOP and RL 

DRAM Statistics
 CHANNEL 0
 RQ ROW_BUFFER_HIT:     116654  ROW_BUFFER_MISS:     478897
 DBUS_CONGESTED:        349
 WQ ROW_BUFFER_HIT:      32845  ROW_BUFFER_MISS:     210266  FULL:          0

 AVG_CONGESTED_CYCLE: 4
 All warmup complete: 2
Channel 0 Bank busy for read cycles: 0
Channel 0 Bank busy for write cycles: 0
Channel 0
Rank 0
0banks busy for read cycles: 413037256
0banks busy for write cycles: 120120
1banks busy for read cycles: 31384514
1banks busy for write cycles: 15014480
2banks busy for read cycles: 13085966
2banks busy for write cycles: 5707914
3banks busy for read cycles: 3981635
3banks busy for write cycles: 2028740
4banks busy for read cycles: 1164465
4banks busy for write cycles: 1027658
5banks busy for read cycles: 422461
5banks busy for write cycles: 614352
6banks busy for read cycles: 146512
6banks busy for write cycles: 389345
7banks busy for read cycles: 47163
7banks busy for write cycles: 297985
8banks busy for read cycles: 23541
8banks busy for write cycles: 221953

CPU 0 Branch Prediction Accuracy: 99.7309% MPKI: 0.485 Average ROB Occupancy at Mispredict: 29.2165
Branch types
NOT_BRANCH: 163956018 81.978%
BRANCH_DIRECT_JUMP: 1914726 0.957363%
BRANCH_INDIRECT: 9756590 4.87829%
BRANCH_CONDITIONAL: 17653766 8.82688%
BRANCH_DIRECT_CALL: 2648257 1.32413%
BRANCH_INDIRECT_CALL: 697289 0.348645%
BRANCH_RETURN: 3373114 1.68656%
BRANCH_OTHER: 0 0%

DRAM PAGES: 1048576
Allocated PAGES: 5460
