
*** ChampSim Multicore Out-of-Order Simulator ***

Warmup Instructions: 50000000
Simulation Instructions: 200000000
Number of CPUs: 1
LLC sets: 2048
LLC ways: 16
Off-chip DRAM Size: 4096 MB Channels: 1 Width: 64-bit Data Rate: 6400 MT/s
CPU 0 runs traces/spec2k17/srv_44.champsimtrace.xz
.xz
BTB has LRU replacement policy
ITLB has LRU replacement policy
DTLB has LRU replacement policy
STLB has LRU replacement policy
L1I has LRU replacement policy
CPU 0 l1d next line prefetcher
L1D has LRU replacement policy
Initialize SRRIP state for L2C
Initialize DRRIP state for LLC
Offsets elements: 
Potential of Offsets elements: 
rewards of Offsets elements: 
Printing Sanity1
offset list size1795
Heartbeat CPU 0 instructions: 10000001 cycles: 2958631 heartbeat IPC: 3.37994 cumulative IPC: 3.37994 (Simulation time: 0 hr 0 min 37 sec) 
Heartbeat CPU 0 instructions: 20000000 cycles: 5912395 heartbeat IPC: 3.38551 cumulative IPC: 3.38272 (Simulation time: 0 hr 1 min 12 sec) 
Heartbeat CPU 0 instructions: 30000001 cycles: 8860982 heartbeat IPC: 3.39146 cumulative IPC: 3.38563 (Simulation time: 0 hr 1 min 46 sec) 
*** Reached end of trace for Core: 0 Repeating trace: traces/spec2k17/srv_44.champsimtrace.xz
Heartbeat CPU 0 instructions: 40000000 cycles: 11817617 heartbeat IPC: 3.38222 cumulative IPC: 3.38478 (Simulation time: 0 hr 2 min 20 sec) 
Offsets elements: 
Potential of Offsets elements: 
rewards of Offsets elements: 0 0 0 0 1 0 0 0 0 1 1 15 2 0 171 0 0 0 53 11 0 0 0 0 115 0 0 75 6 0 0 1 0 0 0 3 18 5 22 12 10 8 0 0 4 0 0 10 0 0 0 0 28 10 17 47 25 33 26 0 0 0 63 0 0 4 24 0 0 0 0 0 0 0 0 0 0 0 0 0 0 14 0 0 1 0 0 23 12 49 0 29 0 0 0 0 1 0 0 0 0 11 0 0 0 0 0 0 0 0 1 0 0 0 3 0 0 0 0 0 0 0 0 0 0 113 0 0 0 0 0 0 85 0 38 0 0 0 136 9 0 0 7 24 20 1 0 0 0 1 0 6 0 3 0 0 0 0 0 0 20 0 47 0 0 0 0 0 0 0 0 0 0 0 2 0 1 0 0 0 19 5 98 8 18 0 8 0 0 0 0 0 17 4 49 0 0 24 4 9 0 0 0 0 45 0 0 32 89 1 0 0 0 0 141 5 0 0 0 0 0 20 165 73 0 0 0 5 0 0 0 0 0 0 18 4 18 0 0 4 0 0 0 0 0 15 15 28 0 0 3 0 0 0 0 0 0 0 0 0 0 0 0 0 0 0 0 0 13 0 0 0 0 0 0 3 0 0 0 0 83 0 0 0 0 0 7 0 1 0 0 1 0 0 17 7 0 2 0 0 45 41 42 39 0 56 3 26 10 39 36 39 21 12 0 0 5 11 6 0 0 48 22 10 0 0 0 0 0 0 13 14 3 0 2 2 0 0 0 0 0 0 0 0 4 0 0 0 0 0 7 40 1 7 72 12 18 0 0 2 11 0 0 0 16 2 0 0 0 0 68 20 6 1 0 0 0 0 44 25 0 0 0 47 0 0 0 0 6 0 0 28 0 0 0 0 0 0 0 12 0 35 0 0 0 0 0 0 0 1 0 0 0 0 0 8 0 0 0 0 0 0 0 0 0 5 2 0 0 0 0 0 0 0 6 0 0 0 0 0 0 0 0 5 19 0 0 0 0 0 0 0 0 0 0 0 0 0 0 0 0 0 0 0 0 3 0 1 0 7 16 0 0 0 5 4 0 0 0 0 0 0 1 39 13 21 14 4 14 0 2 0 1 0 0 0 2 0 31 0 0 0 0 0 0 5 10 0 9 6 0 0 0 56 3 15 0 0 0 40 14 0 0 0 0 0 8 0 1 0 0 0 0 0 0 0 0 0 0 0 0 0 0 0 0 0 0 0 0 0 0 21 14 0 1 0 0 0 0 0 0 0 0 0 0 0 0 0 4 0 0 0 0 0 0 0 0 0 0 1 0 0 0 0 0 40 0 0 0 0 0 0 0 0 0 0 1 0 0 0 0 0 0 0 0 3 0 0 0 0 0 0 0 0 1 16 238 14 0 0 0 0 0 0 0 5 0 0 0 0 39 0 0 0 0 0 25 24 0 1 0 0 0 0 0 0 0 0 0 0 0 0 0 0 0 0 20 0 0 2 1 1 0 0 0 4 1 0 0 0 0 9 0 0 0 6 0 0 0 0 0 0 15 6 0 0 0 0 6 0 0 0 22 0 0 0 0 0 40 0 0 3 0 1 0 0 0 0 0 3 0 0 0 0 0 0 0 13 0 0 0 0 0 0 5 0 0 0 0 9 0 0 0 0 0 7 0 0 6 0 0 0 0 0 0 0 0 0 13 26 0 12 0 0 0 0 1 0 0 0 218 0 0 3 0 0 0 0 0 0 6 0 0 0 0 0 0 0 0 0 0 0 0 0 0 0 14 0 0 3 0 0 0 0 0 0 16 0 0 0 0 15 0 0 0 0 0 0 27 0 0 0 0 0 0 5 0 2 12 11 0 0 0 0 7 0 0 0 0 0 0 0 0 0 0 0 32 33 53 7 12 0 0 3 0 0 0 0 2 24 3 0 0 0 0 0 0 0 0 0 0 1 7 22 0 0 8 0 0 0 0 0 0 23 6 17 0 0 11 5 0 0 1 0 0 0 0 0 0 0 0 0 0 0 0 0 0 0 0 0 0 0 11 0 0 0 2 0 0 0 1 0 0 0 0 0 0 0 13 0 0 0 0 0 0 0 10 0 0 1 0 14 7 1 0 0 0 0 0 14 0 0 0 0 0 0 0 0 0 0 0 18 2 0 0 0 0 0 0 0 0 3 0 0 0 0 0 0 18 7 8 12 0 4 0 4 0 0 0 0 25 0 0 0 0 0 0 11 5 19 0 0 9 0 0 0 0 0 0 0 0 0 0 11 29 26 0 0 2 15 1 0 0 15 0 0 0 0 12 0 0 0 0 0 0 7 0 0 13 0 0 0 0 0 0 45 42 0 0 0 0 0 0 0 0 0 0 0 0 0 0 0 0 0 0 0 0 0 0 0 0 0 0 0 0 0 0 0 1 1 0 0 0 0 0 0 0 0 7 0 13 0 0 0 0 0 0 0 0 0 0 0 0 0 0 0 0 0 10 8 0 0 26 0 0 0 0 1 0 0 0 0 0 0 0 0 0 0 0 0 46 0 0 0 0 0 0 0 0 0 0 0 0 0 0 0 0 0 0 0 0 0 0 0 0 0 0 0 0 0 0 0 0 0 0 0 0 0 0 0 0 0 0 27 0 0 0 0 0 0 0 0 0 0 0 0 0 0 0 0 0 0 0 0 0 0 0 0 0 0 0 0 0 0 0 0 0 0 0 0 0 0 0 0 0 0 0 0 0 0 0 0 0 18 0 1 0 0 28 0 0 0 0 0 0 14 0 0 0 0 0 0 0 0 4 10 0 0 0 0 0 0 0 0 0 26 13 9 0 0 0 0 1 2 0 1 0 0 0 2 0 0 0 0 0 0 0 0 0 0 0 0 0 0 0 0 0 0 1 0 0 2 1 1 1 1 0 0 0 0 0 0 0 0 0 0 2 0 0 0 0 0 0 0 0 0 0 0 0 0 3 0 0 0 0 0 0 0 0 1 1 0 0 0 35 0 0 0 0 0 0 0 0 0 0 0 0 0 0 0 0 0 28 0 0 0 10 0 0 0 0 0 0 1 4 0 0 0 35 0 0 0 0 0 0 3 0 0 0 7 5 0 0 0 0 0 0 0 0 0 0 0 0 0 0 0 0 0 0 0 0 0 0 0 0 0 0 0 0 0 0 0 0 0 0 0 0 0 0 0 0 0 0 28 0 0 0 0 0 0 0 0 0 0 0 0 0 0 0 0 0 0 0 0 43 0 0 10 0 0 0 0 0 0 0 0 0 1 1 0 0 0 0 0 6 0 0 0 0 0 0 0 0 0 0 5 13 33 0 0 28 4 4 1 0 0 0 0 0 0 6 0 0 0 0 0 0 0 0 5 0 0 0 0 0 0 0 2 0 0 1 0 8 0 1 0 0 0 3 0 0 0 0 0 0 0 0 0 0 0 0 0 0 0 0 0 11 0 0 0 0 1 0 0 0 0 0 0 0 0 0 0 3 39 0 0 0 0 2 0 0 1 0 0 0 0 0 0 0 0 0 0 0 0 0 0 0 0 0 0 0 0 0 0 0 2 0 0 0 0 0 0 0 37 0 0 0 0 0 0 0 0 3 0 0 0 0 0 30 22 19 12 0 0 2 0 0 0 0 0 0 0 0 0 0 0 0 0 1 0 0 0 1 0 0 0 0 1 0 0 0 0 0 0 0 0 0 0 0 0 0 0 0 0 0 0 0 0 0 0 0 0 0 0 0 0 0 0 0 0 0 0 0 0 8 0 0 0 4 0 0 0 0 0 4 0 0 0 0 0 0 0 0 0 0 3 1 0 0 0 0 0 0 0 0 0 0 4 0 0 0 3 0 0 0 0 0 0 0 0 0 0 0 0 0 0 0 0 0 0 0 0 0 0 0 1 2 0 0 0 0 0 0 0 0 0 0 0 0 0 0 0 0 0 0 8 0 0 0 0 0 0 0 0 0 0 22 0 7 9 0 0 0 0 0 0 0 6 0 0 0 0 0 0 0 5 0 0 0 3 3 0 0 0 0 0 9 0 0 0 0 14 0 0 0 
Printing Sanity2
Heartbeat CPU 0 instructions: 50000003 cycles: 14772679 heartbeat IPC: 3.38402 cumulative IPC: 3.38463 (Simulation time: 0 hr 2 min 56 sec) 

Warmup complete CPU 0 instructions: 50000003 cycles: 14772679 (Simulation time: 0 hr 2 min 56 sec) 

Heartbeat CPU 0 instructions: 60000000 cycles: 55422568 heartbeat IPC: 0.246003 cumulative IPC: 0.246003 (Simulation time: 0 hr 3 min 59 sec) 
*** Reached end of trace for Core: 0 Repeating trace: traces/spec2k17/srv_44.champsimtrace.xz
Heartbeat CPU 0 instructions: 70000003 cycles: 94567986 heartbeat IPC: 0.255458 cumulative IPC: 0.250641 (Simulation time: 0 hr 5 min 4 sec) 
Heartbeat CPU 0 instructions: 80000000 cycles: 135844616 heartbeat IPC: 0.242268 cumulative IPC: 0.247787 (Simulation time: 0 hr 6 min 9 sec) 
Heartbeat CPU 0 instructions: 90000003 cycles: 176325192 heartbeat IPC: 0.247032 cumulative IPC: 0.247598 (Simulation time: 0 hr 7 min 13 sec) 
*** Reached end of trace for Core: 0 Repeating trace: traces/spec2k17/srv_44.champsimtrace.xz
Heartbeat CPU 0 instructions: 100000002 cycles: 215376404 heartbeat IPC: 0.256074 cumulative IPC: 0.249248 (Simulation time: 0 hr 8 min 13 sec) 
Heartbeat CPU 0 instructions: 110000000 cycles: 256695044 heartbeat IPC: 0.242021 cumulative IPC: 0.248013 (Simulation time: 0 hr 9 min 15 sec) 
Heartbeat CPU 0 instructions: 120000002 cycles: 296947433 heartbeat IPC: 0.248433 cumulative IPC: 0.248073 (Simulation time: 0 hr 10 min 22 sec) 
*** Reached end of trace for Core: 0 Repeating trace: traces/spec2k17/srv_44.champsimtrace.xz
Heartbeat CPU 0 instructions: 130000001 cycles: 336789932 heartbeat IPC: 0.250988 cumulative IPC: 0.248434 (Simulation time: 0 hr 11 min 23 sec) 
Heartbeat CPU 0 instructions: 140000000 cycles: 377397186 heartbeat IPC: 0.246261 cumulative IPC: 0.248191 (Simulation time: 0 hr 12 min 29 sec) 
Heartbeat CPU 0 instructions: 150000000 cycles: 417801482 heartbeat IPC: 0.247498 cumulative IPC: 0.248121 (Simulation time: 0 hr 13 min 33 sec) 
*** Reached end of trace for Core: 0 Repeating trace: traces/spec2k17/srv_44.champsimtrace.xz
Heartbeat CPU 0 instructions: 160000000 cycles: 457652835 heartbeat IPC: 0.250933 cumulative IPC: 0.248374 (Simulation time: 0 hr 14 min 41 sec) 
Heartbeat CPU 0 instructions: 170000000 cycles: 498066143 heartbeat IPC: 0.247443 cumulative IPC: 0.248296 (Simulation time: 0 hr 15 min 42 sec) 
Heartbeat CPU 0 instructions: 180000001 cycles: 538429925 heartbeat IPC: 0.247747 cumulative IPC: 0.248254 (Simulation time: 0 hr 16 min 40 sec) 
*** Reached end of trace for Core: 0 Repeating trace: traces/spec2k17/srv_44.champsimtrace.xz
Heartbeat CPU 0 instructions: 190000000 cycles: 578436386 heartbeat IPC: 0.24996 cumulative IPC: 0.248375 (Simulation time: 0 hr 17 min 36 sec) 
Heartbeat CPU 0 instructions: 200000000 cycles: 618837035 heartbeat IPC: 0.247521 cumulative IPC: 0.248318 (Simulation time: 0 hr 18 min 36 sec) 
Heartbeat CPU 0 instructions: 210000000 cycles: 659253161 heartbeat IPC: 0.247426 cumulative IPC: 0.248262 (Simulation time: 0 hr 19 min 37 sec) 
*** Reached end of trace for Core: 0 Repeating trace: traces/spec2k17/srv_44.champsimtrace.xz
Heartbeat CPU 0 instructions: 220000000 cycles: 699613738 heartbeat IPC: 0.247767 cumulative IPC: 0.248233 (Simulation time: 0 hr 20 min 40 sec) 
Heartbeat CPU 0 instructions: 230000000 cycles: 739466186 heartbeat IPC: 0.250926 cumulative IPC: 0.248381 (Simulation time: 0 hr 21 min 43 sec) 
Heartbeat CPU 0 instructions: 240000003 cycles: 779798694 heartbeat IPC: 0.247939 cumulative IPC: 0.248358 (Simulation time: 0 hr 22 min 45 sec) 
*** Reached end of trace for Core: 0 Repeating trace: traces/spec2k17/srv_44.champsimtrace.xz
Heartbeat CPU 0 instructions: 250000000 cycles: 819888064 heartbeat IPC: 0.249443 cumulative IPC: 0.248412 (Simulation time: 0 hr 23 min 48 sec) 
Finished CPU 0 instructions: 200000000 cycles: 805115401 cumulative IPC: 0.248412 (Simulation time: 0 hr 23 min 48 sec) 

ChampSim completed all CPUs

Region of Interest Statistics

CPU 0 cumulative IPC: 0.248412 instructions: 200000000 cycles: 805115401
ITLB TOTAL     ACCESS:   35710092  HIT:   33139065  MISS:    2571027  HIT %:    92.8003  MISS %:    7.19972   MPKI: 12.8551
ITLB LOAD TRANSLATION ACCESS:   35710092  HIT:   33139065  MISS:    2571027  HIT %:    92.8003  MISS %:    7.19972   MPKI: 12.8551
ITLB PREFETCH  REQUESTED:          0  ISSUED:          0  USEFUL:          0  USELESS:          0
ITLB USEFUL LOAD PREFETCHES:          0 PREFETCH ISSUED TO LOWER LEVEL:          0  ACCURACY: -nan
ITLB TIMELY PREFETCHES:          0 LATE PREFETCHES: 0 DROPPED PREFETCHES: 0
ITLB PREFETCHES SAME FILL-ORIGIN LEVEL: 0 DIFFERENT FILL-ORIGIN LEVEL: 0
ITLB AVERAGE MISS LATENCY: 9.41084 cycles
ITLB RQ	ACCESS:   42690804	FORWARD:          0	MERGED:    6292005	TO_CACHE:   36398799

DTLB TOTAL     ACCESS:   49006739  HIT:   46715852  MISS:    2290887  HIT %:    95.3254  MISS %:    4.67464   MPKI: 11.4544
DTLB LOAD TRANSLATION ACCESS:   49006739  HIT:   46715852  MISS:    2290887  HIT %:    95.3254  MISS %:    4.67464   MPKI: 11.4544
DTLB PREFETCH  REQUESTED:          0  ISSUED:          0  USEFUL:          0  USELESS:          0
DTLB USEFUL LOAD PREFETCHES:          0 PREFETCH ISSUED TO LOWER LEVEL:          0  ACCURACY: -nan
DTLB TIMELY PREFETCHES:          0 LATE PREFETCHES: 0 DROPPED PREFETCHES: 0
DTLB PREFETCHES SAME FILL-ORIGIN LEVEL: 0 DIFFERENT FILL-ORIGIN LEVEL: 0
DTLB AVERAGE MISS LATENCY: 12.4336 cycles
DTLB RQ	ACCESS:   65601563	FORWARD:          0	MERGED:   16461160	TO_CACHE:   49140403

STLB TOTAL     ACCESS:    9601772  HIT:    9491800  MISS:     109972  HIT %:    98.8547  MISS %:    1.14533   MPKI: 0.54986
STLB LOAD TRANSLATION ACCESS:    4861914  HIT:    4765123  MISS:      96791  HIT %:    98.0092  MISS %:     1.9908   MPKI: 0.483955
STLB TRANSLATION FROM L1D PREFETCHER ACCESS:    4739858  HIT:    4726677  MISS:      13181  HIT %:    99.7219  MISS %:   0.278088   MPKI: 0.065905
STLB PREFETCH  REQUESTED:          0  ISSUED:          0  USEFUL:      11714  USELESS:       1475
STLB USEFUL LOAD PREFETCHES:      11714 PREFETCH ISSUED TO LOWER LEVEL:          0  ACCURACY: inf
STLB TIMELY PREFETCHES:      11714 LATE PREFETCHES: 45 DROPPED PREFETCHES: 202231
STLB PREFETCHES SAME FILL-ORIGIN LEVEL: 0 DIFFERENT FILL-ORIGIN LEVEL: 0
STLB AVERAGE MISS LATENCY: 85.5005 cycles
STLB RQ	ACCESS:   13102904	FORWARD:          0	MERGED:    3289661	TO_CACHE:    9813243

STLB Hit, L1D data hit: 0
STLB Hit, L2C data hit: 0
STLB Hit, LLC data hit: 0
STLB Hit, LLC data miss: 0
STLB STLB hints to L2: 0
L1D TOTAL     ACCESS:   70430112  HIT:   58390202  MISS:   12039910  HIT %:    82.9052  MISS %:    17.0948   MPKI: 60.1996
L1D LOAD      ACCESS:   40343380  HIT:   36346273  MISS:    3997107  HIT %:    90.0923  MISS %:    9.90771   MPKI: 19.9855
L1D RFO       ACCESS:   22389841  HIT:   20704863  MISS:    1684978  HIT %:    92.4744  MISS %:    7.52564   MPKI: 8.42489
L1D PREFETCH  ACCESS:    7696891  HIT:    1339066  MISS:    6357825  HIT %:    17.3975  MISS %:    82.6025   MPKI: 31.7891
AGUS PREFETCH L1 MISS: 0
L1D PREFETCH  REQUESTED:   16599527  ISSUED:   16599423  USEFUL:     745506  USELESS:    5612151
L1D USEFUL LOAD PREFETCHES:     745506 PREFETCH ISSUED TO LOWER LEVEL:    6409354  ACCURACY: 11.6315
L1D TIMELY PREFETCHES:     745506 LATE PREFETCHES: 43909 DROPPED PREFETCHES: 243776
L1D PREFETCHES SAME FILL-ORIGIN LEVEL: 6409354 DIFFERENT FILL-ORIGIN LEVEL: 0
L1D AVERAGE MISS LATENCY: 1.78196e+06 cycles
L1D RQ	ACCESS:   50857681	FORWARD:          0	MERGED:   10173690	TO_CACHE:   40528252
L1D WQ	ACCESS:   25234766	FORWARD:     157359	MERGED:     161455	TO_CACHE:   25073311
L1D PQ	ACCESS:    8358433	FORWARD:          0	MERGED:     115823	TO_CACHE:    8240990

L1D UNIQUE REGIONS ACCESSED: 0
L1D REGIONS CONFLICTS: 0
L1D Cross Page Prefetch Requests: 4418345
L1D Same Page Prefetch Requests: 4943872
L1D ROI Sum of L1D PQ occupancy: 123115961
L1D PREFETCHES PUSHED FROM L2C: 0
L1I TOTAL     ACCESS:   41068364  HIT:   28741060  MISS:   12327304  HIT %:    69.9835  MISS %:    30.0165   MPKI: 61.6365
L1I LOAD      ACCESS:   41068364  HIT:   28741060  MISS:   12327304  HIT %:    69.9835  MISS %:    30.0165   MPKI: 61.6365
L1I PREFETCH  REQUESTED:          0  ISSUED:          0  USEFUL:          0  USELESS:          0
L1I USEFUL LOAD PREFETCHES:          0 PREFETCH ISSUED TO LOWER LEVEL:          0  ACCURACY: -nan
L1I TIMELY PREFETCHES:          0 LATE PREFETCHES: 0 DROPPED PREFETCHES: 0
L1I PREFETCHES SAME FILL-ORIGIN LEVEL: 0 DIFFERENT FILL-ORIGIN LEVEL: 0
L1I AVERAGE MISS LATENCY: 19.686 cycles
L1I RQ	ACCESS:   59303726	FORWARD:          0	MERGED:   16612922	TO_CACHE:   42690804

BTB TOTAL     ACCESS:   30054223  HIT:   15654841  MISS:   14399382  HIT %:    52.0887  MISS %:    47.9113   MPKI: 71.9969
BTB BRANCH_DIRECT_JUMP	ACCESS:    2198667  HIT:    1142757  MISS:    1055910
BTB BRANCH_INDIRECT	ACCESS:   13251933  HIT:    7542739  MISS:    5709194
BTB BRANCH_CONDITIONAL	ACCESS:    4200886  HIT:    2961579  MISS:    1239307
BTB BRANCH_DIRECT_CALL	ACCESS:    3885240  HIT:    1990761  MISS:    1894479
BTB BRANCH_INDIRECT_CALL	ACCESS:    1316137  HIT:     536050  MISS:     780087
BTB BRANCH_RETURN	ACCESS:    5201360  HIT:    1480955  MISS:    3720405
BTB BRANCH_OTHER ACCESS:          0  HIT:          0  MISS:          0

L2C TOTAL     ACCESS:   27970089  HIT:   21306930  MISS:    6663159  HIT %:    76.1776  MISS %:    23.8224   MPKI: 33.3158
L2C LOAD      ACCESS:   16280342  HIT:   12999924  MISS:    3280418  HIT %:    79.8504  MISS %:    20.1496   MPKI: 16.4021
L2C DATA LOAD MPKI: 5.36393
L2C INSTRUCTION LOAD MPKI: 11.0382
L2C RFO       ACCESS:    1677169  HIT:     867080  MISS:     810089  HIT %:     51.699  MISS %:     48.301   MPKI: 4.05044
L2C PREFETCH  ACCESS:    6409344  HIT:    4106612  MISS:    2302732  HIT %:    64.0723  MISS %:    35.9277   MPKI: 11.5137
AGUS PREFETCH L1 MISS: 0
L2C DATA PREFETCH MPKI: 11.5137
L2C INSTRUCTION PREFETCH MPKI: 0
L2C WRITEBACK ACCESS:    3049782  HIT:    2906136  MISS:     143646  HIT %:      95.29  MISS %:    4.71004   MPKI: 0.71823
L2C LOAD TRANSLATION ACCESS:     159990  HIT:      75528  MISS:      84462  HIT %:     47.208  MISS %:     52.792   MPKI: 0.42231
L2C TRANSLATION FROM L1D PREFETCHER ACCESS:     393462  HIT:     351650  MISS:      41812  HIT %:    89.3733  MISS %:    10.6267   MPKI: 0.20906
L2C PREFETCH  REQUESTED:          0  ISSUED:          0  USEFUL:     124896  USELESS:    2219447
L2C USEFUL LOAD PREFETCHES:     124896 PREFETCH ISSUED TO LOWER LEVEL:    2302732  ACCURACY: 5.42382
L2C TIMELY PREFETCHES:     124896 LATE PREFETCHES: 0 DROPPED PREFETCHES: 0
L2C PREFETCHES SAME FILL-ORIGIN LEVEL: 0 DIFFERENT FILL-ORIGIN LEVEL: 0
L2C AVERAGE MISS LATENCY: 54.3227 cycles
L2C RQ	ACCESS:   18511312	FORWARD:          0	MERGED:          0	TO_CACHE:   18510963
L2C WQ	ACCESS:    3049782	FORWARD:        359	MERGED:          0	TO_CACHE:    3049782
L2C PQ	ACCESS:    6409354	FORWARD:          0	MERGED:          0	TO_CACHE:    6409344

L2C Instructions Evicting Data 1176952
L2C Translations Evicting Data 94683
L2C Data Evicting Data 2965349
L2C Instructions Evicting Instructions 1001655
L2C Translations Evicting Instructions 28325
L2C Data Evicting Instructions 1128954
L2C Instructions Evicting Translations 29025
L2C Translations Evicting Translations 3266
L2C Data Evicting Translations 91304
L2C Dense regions hint from L2: 0
PSCL5 TOTAL     ACCESS:     312203  HIT:     312203  MISS:          0  HIT %:        100  MISS %:          0   MPKI: 0
PSCL5 LOAD TRANSLATION ACCESS:      96746  HIT:      96746  MISS:          0  HIT %:        100  MISS %:          0   MPKI: 0
PSCL5 TRANSLATION FROM L1D PREFETCHER ACCESS:     215457  HIT:     215457  MISS:          0  HIT %:        100  MISS %:          0   MPKI: 0
PSCL5 PREFETCH  REQUESTED:          0  ISSUED:          0  USEFUL:          0  USELESS:          0
PSCL5 USEFUL LOAD PREFETCHES:          0 PREFETCH ISSUED TO LOWER LEVEL:          0  ACCURACY: -nan
PSCL5 TIMELY PREFETCHES:          0 LATE PREFETCHES: 0 DROPPED PREFETCHES: 0
PSCL5 PREFETCHES SAME FILL-ORIGIN LEVEL: 0 DIFFERENT FILL-ORIGIN LEVEL: 0

PSCL4 TOTAL     ACCESS:     291153  HIT:     289867  MISS:       1286  HIT %:    99.5583  MISS %:   0.441692   MPKI: 0.00643
PSCL4 LOAD TRANSLATION ACCESS:      93863  HIT:      92577  MISS:       1286  HIT %:    98.6299  MISS %:    1.37008   MPKI: 0.00643
PSCL4 TRANSLATION FROM L1D PREFETCHER ACCESS:     197290  HIT:     197290  MISS:          0  HIT %:        100  MISS %:          0   MPKI: 0
PSCL4 PREFETCH  REQUESTED:          0  ISSUED:          0  USEFUL:          0  USELESS:          0
PSCL4 USEFUL LOAD PREFETCHES:          0 PREFETCH ISSUED TO LOWER LEVEL:          0  ACCURACY: -nan
PSCL4 TIMELY PREFETCHES:          0 LATE PREFETCHES: 0 DROPPED PREFETCHES: 0
PSCL4 PREFETCHES SAME FILL-ORIGIN LEVEL: 0 DIFFERENT FILL-ORIGIN LEVEL: 0

PSCL3 TOTAL     ACCESS:     222624  HIT:     202732  MISS:      19892  HIT %:    91.0648  MISS %:    8.93525   MPKI: 0.09946
PSCL3 LOAD TRANSLATION ACCESS:      85003  HIT:      65111  MISS:      19892  HIT %:    76.5985  MISS %:    23.4015   MPKI: 0.09946
PSCL3 TRANSLATION FROM L1D PREFETCHER ACCESS:     137621  HIT:     137621  MISS:          0  HIT %:        100  MISS %:          0   MPKI: 0
PSCL3 PREFETCH  REQUESTED:          0  ISSUED:          0  USEFUL:          0  USELESS:          0
PSCL3 USEFUL LOAD PREFETCHES:          0 PREFETCH ISSUED TO LOWER LEVEL:          0  ACCURACY: -nan
PSCL3 TIMELY PREFETCHES:          0 LATE PREFETCHES: 0 DROPPED PREFETCHES: 0
PSCL3 PREFETCHES SAME FILL-ORIGIN LEVEL: 0 DIFFERENT FILL-ORIGIN LEVEL: 0

PSCL2 TOTAL     ACCESS:     196811  HIT:     151606  MISS:      45205  HIT %:    77.0313  MISS %:    22.9687   MPKI: 0.226025
PSCL2 LOAD TRANSLATION ACCESS:      99025  HIT:      53820  MISS:      45205  HIT %:    54.3499  MISS %:    45.6501   MPKI: 0.226025
PSCL2 TRANSLATION FROM L1D PREFETCHER ACCESS:      97786  HIT:      97786  MISS:          0  HIT %:        100  MISS %:          0   MPKI: 0
PSCL2 PREFETCH  REQUESTED:          0  ISSUED:          0  USEFUL:          0  USELESS:          0
PSCL2 USEFUL LOAD PREFETCHES:          0 PREFETCH ISSUED TO LOWER LEVEL:          0  ACCURACY: -nan
PSCL2 TIMELY PREFETCHES:          0 LATE PREFETCHES: 0 DROPPED PREFETCHES: 0
PSCL2 PREFETCHES SAME FILL-ORIGIN LEVEL: 0 DIFFERENT FILL-ORIGIN LEVEL: 0

LLC TOTAL     ACCESS:    7820425  HIT:    6932532  MISS:     887893  HIT %:    88.6465  MISS %:    11.3535   MPKI: 4.43947
LLC LOAD      ACCESS:    3280417  HIT:    3066037  MISS:     214380  HIT %:    93.4649  MISS %:    6.53514   MPKI: 1.0719
LLC RFO       ACCESS:     810082  HIT:     554168  MISS:     255914  HIT %:    68.4089  MISS %:    31.5911   MPKI: 1.27957
LLC PREFETCH  ACCESS:    2302718  HIT:    1923620  MISS:     379098  HIT %:    83.5369  MISS %:    16.4631   MPKI: 1.89549
AGUS PREFETCH L1 MISS: 0
LLC WRITEBACK ACCESS:    1300934  HIT:    1285087  MISS:      15847  HIT %:    98.7819  MISS %:    1.21812   MPKI: 0.079235
LLC LOAD TRANSLATION ACCESS:      84462  HIT:      64321  MISS:      20141  HIT %:    76.1538  MISS %:    23.8462   MPKI: 0.100705
LLC TRANSLATION FROM L1D PREFETCHER ACCESS:      41812  HIT:      39299  MISS:       2513  HIT %:    93.9898  MISS %:    6.01024   MPKI: 0.012565
LLC PREFETCH  REQUESTED:          0  ISSUED:          0  USEFUL:      25359  USELESS:     358768
LLC USEFUL LOAD PREFETCHES:      25359 PREFETCH ISSUED TO LOWER LEVEL:     379098  ACCURACY: 6.6893
LLC TIMELY PREFETCHES:      25359 LATE PREFETCHES: 0 DROPPED PREFETCHES: 0
LLC PREFETCHES SAME FILL-ORIGIN LEVEL: 0 DIFFERENT FILL-ORIGIN LEVEL: 0
LLC AVERAGE MISS LATENCY: 187.378 cycles
LLC RQ	ACCESS:    4216781	FORWARD:          0	MERGED:          0	TO_CACHE:    4216773
LLC WQ	ACCESS:    1300934	FORWARD:         22	MERGED:          0	TO_CACHE:    1300934
LLC PQ	ACCESS:    2302732	FORWARD:          0	MERGED:          0	TO_CACHE:    2302718

LLC Dense regions hint to LLC: 0

RAW hits: 1473504
Loads Generated: 52331183
Loads sent to L1D: 50857681
Stores Generated: 25234767
Stores sent to L1D: 25234766
Major fault: 0 Minor fault: 5809
Allocated PAGES: 5809
CPU 0 L1D 
Prefetch count 7180935 BOP and RL 

DRAM Statistics
 CHANNEL 0
 RQ ROW_BUFFER_HIT:     278178  ROW_BUFFER_MISS:     593863
 DBUS_CONGESTED:        540
 WQ ROW_BUFFER_HIT:      52822  ROW_BUFFER_MISS:     338451  FULL:          0

 AVG_CONGESTED_CYCLE: 4
 All warmup complete: 2
Channel 0 Bank busy for read cycles: 0
Channel 0 Bank busy for write cycles: 0
Channel 0
Rank 0
0banks busy for read cycles: 718393206
0banks busy for write cycles: 139075
1banks busy for read cycles: 32421391
1banks busy for write cycles: 17610896
2banks busy for read cycles: 11777997
2banks busy for write cycles: 6204650
3banks busy for read cycles: 5594603
3banks busy for write cycles: 2759657
4banks busy for read cycles: 1346392
4banks busy for write cycles: 1260556
5banks busy for read cycles: 635993
5banks busy for write cycles: 652728
6banks busy for read cycles: 517829
6banks busy for write cycles: 390655
7banks busy for read cycles: 591409
7banks busy for write cycles: 351069
8banks busy for read cycles: 1893621
8banks busy for write cycles: 2573675

CPU 0 Branch Prediction Accuracy: 99.9064% MPKI: 0.160865 Average ROB Occupancy at Mispredict: 45.5214
Branch types
NOT_BRANCH: 165643455 82.8217%
BRANCH_DIRECT_JUMP: 2198667 1.09933%
BRANCH_INDIRECT: 13251933 6.62597%
BRANCH_CONDITIONAL: 8502839 4.25142%
BRANCH_DIRECT_CALL: 3885240 1.94262%
BRANCH_INDIRECT_CALL: 1316137 0.658068%
BRANCH_RETURN: 5201360 2.60068%
BRANCH_OTHER: 0 0%

DRAM PAGES: 1048576
Allocated PAGES: 5809
