
*** ChampSim Multicore Out-of-Order Simulator ***

Warmup Instructions: 50000000
Simulation Instructions: 200000000
Number of CPUs: 1
LLC sets: 2048
LLC ways: 16
Off-chip DRAM Size: 4096 MB Channels: 1 Width: 64-bit Data Rate: 6400 MT/s
CPU 0 runs traces/spec2k17/srv_58.champsimtrace.xz
.xz
BTB has LRU replacement policy
ITLB has LRU replacement policy
DTLB has LRU replacement policy
STLB has LRU replacement policy
L1I has LRU replacement policy
CPU 0 l1d next line prefetcher
L1D has LRU replacement policy
Initialize SRRIP state for L2C
Initialize DRRIP state for LLC
Offsets elements: 
Potential of Offsets elements: 
rewards of Offsets elements: 
Printing Sanity1
offset list size1596
Heartbeat CPU 0 instructions: 10000001 cycles: 2797456 heartbeat IPC: 3.57468 cumulative IPC: 3.57468 (Simulation time: 0 hr 0 min 37 sec) 
Heartbeat CPU 0 instructions: 20000002 cycles: 5593200 heartbeat IPC: 3.57687 cumulative IPC: 3.57577 (Simulation time: 0 hr 1 min 16 sec) 
Heartbeat CPU 0 instructions: 30000003 cycles: 8614624 heartbeat IPC: 3.3097 cumulative IPC: 3.48245 (Simulation time: 0 hr 2 min 3 sec) 
*** Reached end of trace for Core: 0 Repeating trace: traces/spec2k17/srv_58.champsimtrace.xz
Heartbeat CPU 0 instructions: 40000003 cycles: 11435328 heartbeat IPC: 3.54521 cumulative IPC: 3.49793 (Simulation time: 0 hr 2 min 42 sec) 
Heartbeat CPU 0 instructions: 50000000 cycles: 14227532 heartbeat IPC: 3.5814 cumulative IPC: 3.51431 (Simulation time: 0 hr 3 min 21 sec) 

Warmup complete CPU 0 instructions: 50000004 cycles: 14227533 (Simulation time: 0 hr 3 min 21 sec) 

Heartbeat CPU 0 instructions: 60000000 cycles: 25419782 heartbeat IPC: 0.893475 cumulative IPC: 0.893475 (Simulation time: 0 hr 4 min 15 sec) 
*** Reached end of trace for Core: 0 Repeating trace: traces/spec2k17/srv_58.champsimtrace.xz
Heartbeat CPU 0 instructions: 70000000 cycles: 42715602 heartbeat IPC: 0.578174 cumulative IPC: 0.702048 (Simulation time: 0 hr 5 min 5 sec) 
Heartbeat CPU 0 instructions: 80000003 cycles: 61440564 heartbeat IPC: 0.534047 cumulative IPC: 0.635418 (Simulation time: 0 hr 5 min 56 sec) 
Heartbeat CPU 0 instructions: 90000001 cycles: 73731982 heartbeat IPC: 0.813576 cumulative IPC: 0.672219 (Simulation time: 0 hr 6 min 50 sec) 
*** Reached end of trace for Core: 0 Repeating trace: traces/spec2k17/srv_58.champsimtrace.xz
Heartbeat CPU 0 instructions: 100000002 cycles: 89858467 heartbeat IPC: 0.620098 cumulative IPC: 0.661105 (Simulation time: 0 hr 7 min 41 sec) 
Heartbeat CPU 0 instructions: 110000000 cycles: 108900558 heartbeat IPC: 0.525152 cumulative IPC: 0.63376 (Simulation time: 0 hr 8 min 28 sec) 
Heartbeat CPU 0 instructions: 120000001 cycles: 121982111 heartbeat IPC: 0.764435 cumulative IPC: 0.649624 (Simulation time: 0 hr 9 min 16 sec) 
*** Reached end of trace for Core: 0 Repeating trace: traces/spec2k17/srv_58.champsimtrace.xz
Heartbeat CPU 0 instructions: 130000000 cycles: 137202529 heartbeat IPC: 0.657012 cumulative IPC: 0.650539 (Simulation time: 0 hr 10 min 8 sec) 
Heartbeat CPU 0 instructions: 140000000 cycles: 156086924 heartbeat IPC: 0.529538 cumulative IPC: 0.634431 (Simulation time: 0 hr 11 min 1 sec) 
Heartbeat CPU 0 instructions: 150000003 cycles: 170147951 heartbeat IPC: 0.711186 cumulative IPC: 0.641353 (Simulation time: 0 hr 11 min 53 sec) 
*** Reached end of trace for Core: 0 Repeating trace: traces/spec2k17/srv_58.champsimtrace.xz
Heartbeat CPU 0 instructions: 160000000 cycles: 184418276 heartbeat IPC: 0.700755 cumulative IPC: 0.646334 (Simulation time: 0 hr 12 min 44 sec) 
Heartbeat CPU 0 instructions: 170000000 cycles: 203335116 heartbeat IPC: 0.52863 cumulative IPC: 0.634559 (Simulation time: 0 hr 13 min 33 sec) 
Heartbeat CPU 0 instructions: 180000000 cycles: 218202687 heartbeat IPC: 0.672605 cumulative IPC: 0.637332 (Simulation time: 0 hr 14 min 26 sec) 
*** Reached end of trace for Core: 0 Repeating trace: traces/spec2k17/srv_58.champsimtrace.xz
Heartbeat CPU 0 instructions: 190000000 cycles: 231514050 heartbeat IPC: 0.751238 cumulative IPC: 0.644311 (Simulation time: 0 hr 15 min 17 sec) 
Heartbeat CPU 0 instructions: 200000000 cycles: 250501721 heartbeat IPC: 0.526658 cumulative IPC: 0.634856 (Simulation time: 0 hr 16 min 3 sec) 
Heartbeat CPU 0 instructions: 210000002 cycles: 266400164 heartbeat IPC: 0.628993 cumulative IPC: 0.634486 (Simulation time: 0 hr 16 min 54 sec) 
*** Reached end of trace for Core: 0 Repeating trace: traces/spec2k17/srv_58.champsimtrace.xz
Heartbeat CPU 0 instructions: 220000000 cycles: 278915420 heartbeat IPC: 0.799025 cumulative IPC: 0.642266 (Simulation time: 0 hr 17 min 46 sec) 
Heartbeat CPU 0 instructions: 230000001 cycles: 297677050 heartbeat IPC: 0.533003 cumulative IPC: 0.635034 (Simulation time: 0 hr 18 min 35 sec) 
Offsets elements: 
Potential of Offsets elements: 
rewards of Offsets elements: 0 0 0 0 132 0 0 0 0 0 0 0 0 0 0 0 0 23 0 0 103 0 0 32 0 0 0 0 190 0 0 116 12 0 0 0 0 0 0 8 16 24 7 111 25 0 0 142 0 0 0 0 0 0 7 38 0 0 2 53 202 48 43 43 0 0 0 53 0 0 6 14 0 0 0 0 0 0 0 0 0 23 1 0 1 0 0 28 69 167 0 41 0 0 6 0 59 127 0 0 0 0 0 0 31 0 0 0 0 0 0 0 0 0 0 0 1 4 0 0 0 0 0 0 0 0 0 0 0 132 0 0 20 0 0 8 0 0 0 19 0 0 0 47 8 0 0 6 44 46 12 12 4 6 0 17 0 143 0 43 0 7 10 75 6 5 2 7 0 0 44 59 0 0 0 0 0 0 167 0 14 0 50 39 73 0 0 8 2 0 119 25 17 192 8 7 32 0 21 0 0 0 0 0 0 0 0 5 57 78 14 4 9 0 0 0 0 107 0 0 22 70 6 0 0 0 0 68 7 0 0 0 0 37 0 67 0 7 9 2 0 0 0 45 0 38 58 2 24 14 0 0 0 0 0 0 0 0 0 0 0 15 15 47 99 11 0 0 16 0 0 0 0 0 0 4 0 0 0 0 0 0 0 0 0 0 0 55 0 6 0 0 76 0 0 0 0 0 3 0 0 0 14 0 26 0 0 0 0 9 31 18 53 57 86 92 0 0 0 6 0 0 0 0 0 0 0 0 37 60 0 0 0 0 0 16 0 0 0 0 0 0 0 0 0 0 0 0 53 24 0 0 0 0 65 0 17 5 17 0 22 56 0 36 0 0 0 0 0 0 0 2 0 0 0 0 0 0 0 0 10 0 0 0 0 0 0 0 23 97 207 0 0 0 0 0 2 0 0 0 0 0 0 0 23 0 0 0 0 0 40 51 80 0 0 0 0 0 0 16 1 0 0 0 0 0 0 0 0 0 0 25 0 12 0 0 0 0 0 8 0 0 13 3 0 0 0 0 0 0 0 0 0 40 106 0 58 0 0 0 0 0 0 81 0 0 0 15 0 32 74 103 0 0 47 0 97 25 0 0 0 49 0 0 0 0 0 0 0 0 0 0 22 4 0 0 0 0 0 0 0 0 0 0 0 0 0 0 0 0 0 9 28 0 27 0 0 0 0 0 0 0 0 5 0 0 0 0 0 0 0 0 0 1 0 0 0 0 43 0 0 15 0 0 0 0 0 0 37 0 63 0 0 35 0 0 0 0 0 24 0 0 35 0 0 3 19 53 36 0 10 17 0 0 4 22 0 0 0 0 3 9 0 0 0 0 0 17 0 19 13 14 0 0 0 0 0 0 0 0 0 0 0 0 0 0 0 0 0 1 0 0 0 8 0 8 12 0 0 18 0 0 13 12 8 0 0 0 0 5 11 0 0 0 0 18 12 0 0 0 22 0 42 0 0 0 0 0 73 11 0 0 0 51 0 0 0 0 0 0 0 0 0 0 32 1 0 0 0 78 0 0 0 0 1 0 0 0 0 0 0 0 5 54 0 0 2 4 41 14 10 0 2 0 23 0 0 0 0 0 50 0 0 17 0 0 17 28 0 0 0 0 0 1 0 0 0 0 0 0 16 0 0 0 0 0 0 0 0 0 0 0 0 0 0 0 0 0 0 0 0 3 0 0 0 0 0 0 0 0 3 0 0 0 0 0 0 0 0 0 0 7 2 0 54 24 25 0 0 0 0 0 0 0 0 0 0 0 0 0 0 0 20 50 17 0 0 32 38 13 0 0 115 0 0 0 0 0 0 0 0 0 0 0 0 0 0 0 0 0 0 47 22 25 5 2 15 14 0 0 0 0 0 3 0 0 0 0 0 0 0 0 0 0 0 0 0 36 0 0 1 10 0 0 0 22 0 0 0 0 26 0 0 0 13 0 69 0 8 0 0 0 18 7 0 0 0 0 0 2 28 0 0 1 0 0 0 0 0 0 7 3 65 14 0 0 0 0 0 0 0 0 2 36 0 0 1 0 0 0 29 0 0 0 0 0 0 4 0 0 0 0 0 0 0 0 0 22 21 74 0 0 0 2 0 0 0 0 0 0 9 0 0 0 0 0 0 0 0 0 0 0 0 0 11 0 0 0 0 0 0 0 0 0 0 0 0 0 0 0 0 0 0 0 0 0 0 0 4 0 0 0 0 0 0 0 0 0 0 0 0 0 0 0 0 0 5 0 0 21 12 0 0 21 0 0 0 0 0 0 0 0 0 2 0 0 0 0 0 0 0 1 1 0 0 0 0 0 0 0 5 0 0 0 0 0 0 0 0 0 0 2 0 0 0 0 0 0 0 0 0 0 0 0 137 52 0 7 0 17 0 0 0 13 9 0 0 0 0 0 3 0 0 2 0 0 0 0 0 0 0 0 0 0 0 0 0 0 0 0 0 0 0 0 0 3 0 0 0 0 0 0 0 0 0 0 10 3 4 13 0 0 0 0 12 0 0 0 0 0 0 0 0 0 9 0 0 0 0 0 0 0 4 0 0 37 7 3 42 0 0 0 0 0 0 0 14 0 0 0 0 0 0 0 7 0 8 0 89 0 8 3 0 0 4 12 0 0 0 0 0 0 0 10 0 5 0 0 0 0 0 0 0 0 5 18 0 0 0 0 0 0 0 0 0 0 0 0 0 0 0 0 0 4 2 5 0 15 0 0 0 0 0 0 0 0 0 2 5 0 0 0 0 0 0 0 0 0 0 0 38 0 0 0 0 0 0 0 0 0 23 0 0 0 0 0 0 3 0 0 0 0 0 0 0 0 0 0 0 0 0 0 0 0 0 0 0 0 13 0 0 5 43 0 0 0 0 0 0 0 0 0 4 0 0 0 5 0 0 0 0 20 0 0 0 0 0 0 0 0 0 0 0 0 8 8 0 0 0 0 0 2 0 0 0 0 0 0 0 0 4 0 0 0 0 0 0 0 0 0 0 0 0 0 0 6 0 0 23 0 0 6 0 0 0 0 0 59 0 0 39 0 0 0 0 0 0 0 2 0 41 39 5 2 293 13 0 0 0 0 0 0 0 32 18 0 0 0 0 0 49 19 0 0 0 0 0 0 0 0 0 0 0 19 62 13 1 0 0 0 0 0 3 0 0 0 5 2 0 0 0 0 0 8 5 0 0 0 12 0 0 0 0 0 0 0 0 0 0 7 0 0 0 0 0 0 0 0 0 0 0 0 0 0 0 0 0 0 0 0 0 9 0 29 3 1 0 0 0 0 0 0 14 0 10 0 0 0 0 0 0 0 0 0 0 0 0 0 0 0 0 0 4 0 0 0 0 0 0 0 0 0 0 0 0 0 0 0 0 0 0 0 0 0 0 0 0 0 36 0 0 0 0 0 0 0 0 0 0 0 0 0 0 0 0 0 0 0 0 0 0 0 0 0 0 0 0 0 0 0 0 0 0 0 0 0 0 0 0 0 8 0 0 0 0 0 0 0 0 0 0 1 0 30 0 0 0 0 0 0 0 0 0 0 0 0 0 0 0 0 0 0 5 0 8 0 0 0 19 0 0 0 0 0 10 0 0 0 0 0 0 0 0 0 0 0 
Printing Sanity2
Heartbeat CPU 0 instructions: 240000003 cycles: 314641026 heartbeat IPC: 0.589485 cumulative IPC: 0.632462 (Simulation time: 0 hr 19 min 24 sec) 
*** Reached end of trace for Core: 0 Repeating trace: traces/spec2k17/srv_58.champsimtrace.xz
Heartbeat CPU 0 instructions: 250000000 cycles: 326080012 heartbeat IPC: 0.874203 cumulative IPC: 0.641329 (Simulation time: 0 hr 20 min 16 sec) 
Finished CPU 0 instructions: 200000000 cycles: 311852480 cumulative IPC: 0.641329 (Simulation time: 0 hr 20 min 16 sec) 

ChampSim completed all CPUs

Region of Interest Statistics

CPU 0 cumulative IPC: 0.641329 instructions: 200000000 cycles: 311852480
ITLB TOTAL     ACCESS:   36475193  HIT:   35955141  MISS:     520052  HIT %:    98.5742  MISS %:    1.42577   MPKI: 2.60026
ITLB LOAD TRANSLATION ACCESS:   36475193  HIT:   35955141  MISS:     520052  HIT %:    98.5742  MISS %:    1.42577   MPKI: 2.60026
ITLB PREFETCH  REQUESTED:          0  ISSUED:          0  USEFUL:          0  USELESS:          0
ITLB USEFUL LOAD PREFETCHES:          0 PREFETCH ISSUED TO LOWER LEVEL:          0  ACCURACY: -nan
ITLB TIMELY PREFETCHES:          0 LATE PREFETCHES: 0 DROPPED PREFETCHES: 0
ITLB PREFETCHES SAME FILL-ORIGIN LEVEL: 0 DIFFERENT FILL-ORIGIN LEVEL: 0
ITLB AVERAGE MISS LATENCY: 9.01588 cycles
ITLB RQ	ACCESS:   40849472	FORWARD:          0	MERGED:    4206101	TO_CACHE:   36643371

DTLB TOTAL     ACCESS:   43238830  HIT:   42587370  MISS:     651460  HIT %:    98.4933  MISS %:    1.50666   MPKI: 3.2573
DTLB LOAD TRANSLATION ACCESS:   43238830  HIT:   42587370  MISS:     651460  HIT %:    98.4933  MISS %:    1.50666   MPKI: 3.2573
DTLB PREFETCH  REQUESTED:          0  ISSUED:          0  USEFUL:          0  USELESS:          0
DTLB USEFUL LOAD PREFETCHES:          0 PREFETCH ISSUED TO LOWER LEVEL:          0  ACCURACY: -nan
DTLB TIMELY PREFETCHES:          0 LATE PREFETCHES: 0 DROPPED PREFETCHES: 0
DTLB PREFETCHES SAME FILL-ORIGIN LEVEL: 0 DIFFERENT FILL-ORIGIN LEVEL: 0
DTLB AVERAGE MISS LATENCY: 9.03705 cycles
DTLB RQ	ACCESS:   59544954	FORWARD:          0	MERGED:   16276915	TO_CACHE:   43268039

STLB TOTAL     ACCESS:    1752863  HIT:    1752331  MISS:        532  HIT %:    99.9696  MISS %:  0.0303503   MPKI: 0.00266
STLB LOAD TRANSLATION ACCESS:    1171512  HIT:    1170998  MISS:        514  HIT %:    99.9561  MISS %:  0.0438749   MPKI: 0.00257
STLB TRANSLATION FROM L1D PREFETCHER ACCESS:     581351  HIT:     581333  MISS:         18  HIT %:    99.9969  MISS %: 0.00309624   MPKI: 9e-05
STLB PREFETCH  REQUESTED:          0  ISSUED:          0  USEFUL:         18  USELESS:          0
STLB USEFUL LOAD PREFETCHES:         18 PREFETCH ISSUED TO LOWER LEVEL:          0  ACCURACY: inf
STLB TIMELY PREFETCHES:         18 LATE PREFETCHES: 0 DROPPED PREFETCHES: 8491
STLB PREFETCHES SAME FILL-ORIGIN LEVEL: 0 DIFFERENT FILL-ORIGIN LEVEL: 0
STLB AVERAGE MISS LATENCY: 55.8647 cycles
STLB RQ	ACCESS:    1829747	FORWARD:          0	MERGED:      67907	TO_CACHE:    1761840

STLB Hit, L1D data hit: 0
STLB Hit, L2C data hit: 0
STLB Hit, LLC data hit: 0
STLB Hit, LLC data miss: 0
STLB STLB hints to L2: 0
L1D TOTAL     ACCESS:   59790398  HIT:   58431790  MISS:    1358608  HIT %:    97.7277  MISS %:    2.27228   MPKI: 6.79304
L1D LOAD      ACCESS:   38534878  HIT:   37912829  MISS:     622049  HIT %:    98.3858  MISS %:    1.61425   MPKI: 3.11024
L1D RFO       ACCESS:   20664271  HIT:   20409280  MISS:     254991  HIT %:     98.766  MISS %:    1.23397   MPKI: 1.27496
L1D PREFETCH  ACCESS:     591249  HIT:     109681  MISS:     481568  HIT %:    18.5507  MISS %:    81.4493   MPKI: 2.40784
AGUS PREFETCH L1 MISS: 0
L1D PREFETCH  REQUESTED:    1326986  ISSUED:    1326912  USEFUL:     101175  USELESS:     380286
L1D USEFUL LOAD PREFETCHES:     101175 PREFETCH ISSUED TO LOWER LEVEL:     505234  ACCURACY: 20.0254
L1D TIMELY PREFETCHES:     101175 LATE PREFETCHES: 21640 DROPPED PREFETCHES: 9646
L1D PREFETCHES SAME FILL-ORIGIN LEVEL: 505234 DIFFERENT FILL-ORIGIN LEVEL: 0
L1D AVERAGE MISS LATENCY: 2.98079e+06 cycles
L1D RQ	ACCESS:   53965480	FORWARD:          0	MERGED:   15196395	TO_CACHE:   38558740
L1D WQ	ACCESS:   21214489	FORWARD:     210521	MERGED:     228275	TO_CACHE:   20986214
L1D PQ	ACCESS:     668677	FORWARD:          0	MERGED:      10266	TO_CACHE:     658235

L1D UNIQUE REGIONS ACCESSED: 0
L1D REGIONS CONFLICTS: 0
L1D Cross Page Prefetch Requests: 73824
L1D Same Page Prefetch Requests: 794998
L1D ROI Sum of L1D PQ occupancy: 8972764
L1D PREFETCHES PUSHED FROM L2C: 0
L1I TOTAL     ACCESS:   40498724  HIT:   38562624  MISS:    1936100  HIT %:    95.2194  MISS %:    4.78064   MPKI: 9.6805
L1I LOAD      ACCESS:   40498724  HIT:   38562624  MISS:    1936100  HIT %:    95.2194  MISS %:    4.78064   MPKI: 9.6805
L1I PREFETCH  REQUESTED:          0  ISSUED:          0  USEFUL:          0  USELESS:          0
L1I USEFUL LOAD PREFETCHES:          0 PREFETCH ISSUED TO LOWER LEVEL:          0  ACCURACY: -nan
L1I TIMELY PREFETCHES:          0 LATE PREFETCHES: 0 DROPPED PREFETCHES: 0
L1I PREFETCHES SAME FILL-ORIGIN LEVEL: 0 DIFFERENT FILL-ORIGIN LEVEL: 0
L1I AVERAGE MISS LATENCY: 19.655 cycles
L1I RQ	ACCESS:   63951366	FORWARD:          0	MERGED:   23101894	TO_CACHE:   40849472

BTB TOTAL     ACCESS:   35033009  HIT:   31765673  MISS:    3267336  HIT %:    90.6736  MISS %:    9.32645   MPKI: 16.3367
BTB BRANCH_DIRECT_JUMP	ACCESS:    3530101  HIT:    3387873  MISS:     142228
BTB BRANCH_INDIRECT	ACCESS:   14433198  HIT:   13493749  MISS:     939449
BTB BRANCH_CONDITIONAL	ACCESS:    7608282  HIT:    7427963  MISS:     180319
BTB BRANCH_DIRECT_CALL	ACCESS:    2343708  HIT:    2092536  MISS:     251172
BTB BRANCH_INDIRECT_CALL	ACCESS:    2387048  HIT:    2184647  MISS:     202401
BTB BRANCH_RETURN	ACCESS:    4730672  HIT:    3178905  MISS:    1551767
BTB BRANCH_OTHER ACCESS:          0  HIT:          0  MISS:          0

L2C TOTAL     ACCESS:    3763651  HIT:    3072766  MISS:     690885  HIT %:    81.6432  MISS %:    18.3568   MPKI: 3.45443
L2C LOAD      ACCESS:    2536471  HIT:    2074578  MISS:     461893  HIT %:    81.7899  MISS %:    18.2101   MPKI: 2.30946
L2C DATA LOAD MPKI: 0.50481
L2C INSTRUCTION LOAD MPKI: 1.80465
L2C RFO       ACCESS:     252931  HIT:     179053  MISS:      73878  HIT %:    70.7912  MISS %:    29.2088   MPKI: 0.36939
L2C PREFETCH  ACCESS:     505234  HIT:     361323  MISS:     143911  HIT %:     71.516  MISS %:     28.484   MPKI: 0.719555
AGUS PREFETCH L1 MISS: 0
L2C DATA PREFETCH MPKI: 0.719555
L2C INSTRUCTION PREFETCH MPKI: 0
L2C WRITEBACK ACCESS:     452253  HIT:     443771  MISS:       8482  HIT %:    98.1245  MISS %:     1.8755   MPKI: 0.04241
L2C LOAD TRANSLATION ACCESS:        654  HIT:        160  MISS:        494  HIT %:    24.4648  MISS %:    75.5352   MPKI: 0.00247
L2C TRANSLATION FROM L1D PREFETCHER ACCESS:      16108  HIT:      13881  MISS:       2227  HIT %:    86.1746  MISS %:    13.8254   MPKI: 0.011135
L2C PREFETCH  REQUESTED:          0  ISSUED:          0  USEFUL:      11604  USELESS:     134098
L2C USEFUL LOAD PREFETCHES:      11604 PREFETCH ISSUED TO LOWER LEVEL:     143911  ACCURACY: 8.06332
L2C TIMELY PREFETCHES:      11604 LATE PREFETCHES: 0 DROPPED PREFETCHES: 0
L2C PREFETCHES SAME FILL-ORIGIN LEVEL: 0 DIFFERENT FILL-ORIGIN LEVEL: 0
L2C AVERAGE MISS LATENCY: 30.6887 cycles
L2C RQ	ACCESS:    2806236	FORWARD:          0	MERGED:          0	TO_CACHE:    2806164
L2C WQ	ACCESS:     452253	FORWARD:         72	MERGED:          0	TO_CACHE:     452253
L2C PQ	ACCESS:     505234	FORWARD:          0	MERGED:          0	TO_CACHE:     505234

L2C Instructions Evicting Data 149980
L2C Translations Evicting Data 1595
L2C Data Evicting Data 170665
L2C Instructions Evicting Instructions 209972
L2C Translations Evicting Instructions 1096
L2C Data Evicting Instructions 146543
L2C Instructions Evicting Translations 979
L2C Translations Evicting Translations 30
L2C Data Evicting Translations 1540
L2C Dense regions hint from L2: 0
PSCL5 TOTAL     ACCESS:       9023  HIT:       9023  MISS:          0  HIT %:        100  MISS %:          0   MPKI: 0
PSCL5 LOAD TRANSLATION ACCESS:        514  HIT:        514  MISS:          0  HIT %:        100  MISS %:          0   MPKI: 0
PSCL5 TRANSLATION FROM L1D PREFETCHER ACCESS:       8509  HIT:       8509  MISS:          0  HIT %:        100  MISS %:          0   MPKI: 0
PSCL5 PREFETCH  REQUESTED:          0  ISSUED:          0  USEFUL:          0  USELESS:          0
PSCL5 USEFUL LOAD PREFETCHES:          0 PREFETCH ISSUED TO LOWER LEVEL:          0  ACCURACY: -nan
PSCL5 TIMELY PREFETCHES:          0 LATE PREFETCHES: 0 DROPPED PREFETCHES: 0
PSCL5 PREFETCHES SAME FILL-ORIGIN LEVEL: 0 DIFFERENT FILL-ORIGIN LEVEL: 0

PSCL4 TOTAL     ACCESS:       9017  HIT:       9017  MISS:          0  HIT %:        100  MISS %:          0   MPKI: 0
PSCL4 LOAD TRANSLATION ACCESS:        514  HIT:        514  MISS:          0  HIT %:        100  MISS %:          0   MPKI: 0
PSCL4 TRANSLATION FROM L1D PREFETCHER ACCESS:       8503  HIT:       8503  MISS:          0  HIT %:        100  MISS %:          0   MPKI: 0
PSCL4 PREFETCH  REQUESTED:          0  ISSUED:          0  USEFUL:          0  USELESS:          0
PSCL4 USEFUL LOAD PREFETCHES:          0 PREFETCH ISSUED TO LOWER LEVEL:          0  ACCURACY: -nan
PSCL4 TIMELY PREFETCHES:          0 LATE PREFETCHES: 0 DROPPED PREFETCHES: 0
PSCL4 PREFETCHES SAME FILL-ORIGIN LEVEL: 0 DIFFERENT FILL-ORIGIN LEVEL: 0

PSCL3 TOTAL     ACCESS:       5097  HIT:       5056  MISS:         41  HIT %:    99.1956  MISS %:   0.804395   MPKI: 0.000205
PSCL3 LOAD TRANSLATION ACCESS:        360  HIT:        319  MISS:         41  HIT %:    88.6111  MISS %:    11.3889   MPKI: 0.000205
PSCL3 TRANSLATION FROM L1D PREFETCHER ACCESS:       4737  HIT:       4737  MISS:          0  HIT %:        100  MISS %:          0   MPKI: 0
PSCL3 PREFETCH  REQUESTED:          0  ISSUED:          0  USEFUL:          0  USELESS:          0
PSCL3 USEFUL LOAD PREFETCHES:          0 PREFETCH ISSUED TO LOWER LEVEL:          0  ACCURACY: -nan
PSCL3 TIMELY PREFETCHES:          0 LATE PREFETCHES: 0 DROPPED PREFETCHES: 0
PSCL3 PREFETCHES SAME FILL-ORIGIN LEVEL: 0 DIFFERENT FILL-ORIGIN LEVEL: 0

PSCL2 TOTAL     ACCESS:       3482  HIT:       3381  MISS:        101  HIT %:    97.0994  MISS %:    2.90063   MPKI: 0.000505
PSCL2 LOAD TRANSLATION ACCESS:        515  HIT:        414  MISS:        101  HIT %:    80.3883  MISS %:    19.6117   MPKI: 0.000505
PSCL2 TRANSLATION FROM L1D PREFETCHER ACCESS:       2967  HIT:       2967  MISS:          0  HIT %:        100  MISS %:          0   MPKI: 0
PSCL2 PREFETCH  REQUESTED:          0  ISSUED:          0  USEFUL:          0  USELESS:          0
PSCL2 USEFUL LOAD PREFETCHES:          0 PREFETCH ISSUED TO LOWER LEVEL:          0  ACCURACY: -nan
PSCL2 TIMELY PREFETCHES:          0 LATE PREFETCHES: 0 DROPPED PREFETCHES: 0
PSCL2 PREFETCHES SAME FILL-ORIGIN LEVEL: 0 DIFFERENT FILL-ORIGIN LEVEL: 0

LLC TOTAL     ACCESS:     787674  HIT:     782938  MISS:       4736  HIT %:    99.3987  MISS %:   0.601264   MPKI: 0.02368
LLC LOAD      ACCESS:     461893  HIT:     461633  MISS:        260  HIT %:    99.9437  MISS %:  0.0562901   MPKI: 0.0013
LLC RFO       ACCESS:      73876  HIT:      73829  MISS:         47  HIT %:    99.9364  MISS %:  0.0636201   MPKI: 0.000235
LLC PREFETCH  ACCESS:     143910  HIT:     139572  MISS:       4338  HIT %:    96.9856  MISS %:    3.01438   MPKI: 0.02169
AGUS PREFETCH L1 MISS: 0
LLC WRITEBACK ACCESS:     105274  HIT:     105268  MISS:          6  HIT %:    99.9943  MISS %: 0.00569941   MPKI: 3e-05
LLC LOAD TRANSLATION ACCESS:        494  HIT:        481  MISS:         13  HIT %:    97.3684  MISS %:    2.63158   MPKI: 6.5e-05
LLC TRANSLATION FROM L1D PREFETCHER ACCESS:       2227  HIT:       2155  MISS:         72  HIT %:     96.767  MISS %:    3.23305   MPKI: 0.00036
LLC PREFETCH  REQUESTED:          0  ISSUED:          0  USEFUL:       1571  USELESS:        293
LLC USEFUL LOAD PREFETCHES:       1571 PREFETCH ISSUED TO LOWER LEVEL:       4338  ACCURACY: 36.2148
LLC TIMELY PREFETCHES:       1571 LATE PREFETCHES: 0 DROPPED PREFETCHES: 0
LLC PREFETCHES SAME FILL-ORIGIN LEVEL: 0 DIFFERENT FILL-ORIGIN LEVEL: 0
LLC AVERAGE MISS LATENCY: 154.193 cycles
LLC RQ	ACCESS:     538492	FORWARD:          0	MERGED:          0	TO_CACHE:     538490
LLC WQ	ACCESS:     105274	FORWARD:          3	MERGED:          0	TO_CACHE:     105274
LLC PQ	ACCESS:     143911	FORWARD:          0	MERGED:          0	TO_CACHE:     143910

LLC Dense regions hint to LLC: 0

RAW hits: 3383117
Loads Generated: 57348600
Loads sent to L1D: 53965480
Stores Generated: 21214489
Stores sent to L1D: 21214489
Major fault: 0 Minor fault: 1185
Allocated PAGES: 1185
CPU 0 L1D 
Prefetch count 659599 BOP and RL 

DRAM Statistics
 CHANNEL 0
 RQ ROW_BUFFER_HIT:        910  ROW_BUFFER_MISS:       3820
 DBUS_CONGESTED:          0
 WQ ROW_BUFFER_HIT:          0  ROW_BUFFER_MISS:         76  FULL:          0

 AVG_CONGESTED_CYCLE: -
 All warmup complete: 2
Channel 0 Bank busy for read cycles: 0
Channel 0 Bank busy for write cycles: 0
Channel 0
Rank 0
0banks busy for read cycles: 311331617
0banks busy for write cycles: 70
1banks busy for read cycles: 427187
1banks busy for write cycles: 11111
2banks busy for read cycles: 63111
2banks busy for write cycles: 561
3banks busy for read cycles: 13382
3banks busy for write cycles: 131
4banks busy for read cycles: 2971
4banks busy for write cycles: 0
5banks busy for read cycles: 1468
5banks busy for write cycles: 0
6banks busy for read cycles: 498
6banks busy for write cycles: 0
7banks busy for read cycles: 255
7banks busy for write cycles: 0
8banks busy for read cycles: 119
8banks busy for write cycles: 0

CPU 0 Branch Prediction Accuracy: 99.8678% MPKI: 0.264215 Average ROB Occupancy at Mispredict: 41.0989
Branch types
NOT_BRANCH: 160022998 80.0115%
BRANCH_DIRECT_JUMP: 3530101 1.76505%
BRANCH_INDIRECT: 14433198 7.2166%
BRANCH_CONDITIONAL: 12551976 6.27599%
BRANCH_DIRECT_CALL: 2343708 1.17185%
BRANCH_INDIRECT_CALL: 2387048 1.19352%
BRANCH_RETURN: 4730672 2.36534%
BRANCH_OTHER: 0 0%

DRAM PAGES: 1048576
Allocated PAGES: 1185
