
*** ChampSim Multicore Out-of-Order Simulator ***

Warmup Instructions: 50000000
Simulation Instructions: 200000000
Number of CPUs: 1
LLC sets: 2048
LLC ways: 16
Off-chip DRAM Size: 4096 MB Channels: 1 Width: 64-bit Data Rate: 6400 MT/s
CPU 0 runs traces/spec2k17/srv_17.champsimtrace.xz
.xz
BTB has LRU replacement policy
ITLB has LRU replacement policy
DTLB has LRU replacement policy
STLB has LRU replacement policy
L1I has LRU replacement policy
CPU 0 l1d next line prefetcher
L1D has LRU replacement policy
Initialize SRRIP state for L2C
Initialize DRRIP state for LLC
Offsets elements: 
Potential of Offsets elements: 
rewards of Offsets elements: 
Printing Sanity1
offset list size1253
Heartbeat CPU 0 instructions: 10000001 cycles: 2851588 heartbeat IPC: 3.50682 cumulative IPC: 3.50682 (Simulation time: 0 hr 0 min 31 sec) 
Heartbeat CPU 0 instructions: 20000001 cycles: 5698118 heartbeat IPC: 3.51305 cumulative IPC: 3.50993 (Simulation time: 0 hr 1 min 1 sec) 
Heartbeat CPU 0 instructions: 30000001 cycles: 8543853 heartbeat IPC: 3.51403 cumulative IPC: 3.5113 (Simulation time: 0 hr 1 min 31 sec) 
*** Reached end of trace for Core: 0 Repeating trace: traces/spec2k17/srv_17.champsimtrace.xz
Heartbeat CPU 0 instructions: 40000000 cycles: 11385810 heartbeat IPC: 3.5187 cumulative IPC: 3.51314 (Simulation time: 0 hr 2 min 1 sec) 
Offsets elements: 
Potential of Offsets elements: 
rewards of Offsets elements: 0 0 0 0 0 0 0 0 1 0 0 0 0 1 0 0 0 0 2 0 1 1 0 0 2 0 0 1 12 3 0 1 0 3 6 0 0 0 8 0 2 0 2 1 0 0 2 3 1 3 0 4 0 1 0 0 0 0 5 0 0 0 0 0 23 2 1 0 0 0 21 0 40 3 0 47 2 0 1 0 0 0 0 0 0 1 0 0 1 0 0 0 154 147 0 1 0 0 5 2 0 2 1 0 0 17 1 0 3 20 29 0 2 0 113 0 1 0 1 2 0 0 0 41 82 1 0 0 0 0 0 0 5 0 0 0 0 0 0 0 1 1 0 0 0 1 2 3 0 0 25 0 0 0 2 0 0 0 0 1 1 2 1 2 2 0 0 23 0 3 1 1 0 2 0 0 0 0 0 0 0 0 0 4 0 0 0 0 0 0 0 0 0 0 0 3 2 0 3 0 0 0 0 0 1 108 0 0 0 0 0 0 0 0 0 0 0 0 0 0 15 1 0 1 0 1 0 0 2 0 0 0 0 0 0 0 3 0 0 0 0 0 1 0 0 0 0 0 0 0 52 0 0 2 1 0 0 0 1 0 0 0 0 0 1 0 0 0 0 0 0 0 33 20 0 0 0 35 0 0 0 0 0 1 1 0 0 1 2 0 0 0 0 0 0 0 0 4 2 0 0 2 18 0 0 0 0 0 0 2 0 0 0 0 0 0 0 0 0 0 0 0 0 0 0 0 2 0 0 15 67 0 0 0 0 0 0 2 1 2 3 1 0 3 3 8 2 0 15 0 0 1 1 0 0 0 0 1 1 0 0 0 0 0 0 0 0 0 0 0 0 0 0 0 0 2 1 0 0 0 0 0 1 0 9 0 0 0 0 0 17 30 9 0 1 0 0 1 0 0 0 25 0 2 0 71 0 0 0 0 1 0 1 0 0 0 1 6 1 0 0 2 0 0 0 0 0 0 2 0 2 0 0 0 0 4 1 0 0 0 0 0 0 0 1 1 0 0 0 0 0 0 0 0 0 0 0 0 0 8 0 0 0 0 1 0 0 0 0 0 0 0 0 0 0 0 0 1 0 2 0 0 0 0 3 0 3 1 10 0 2 0 0 0 2 31 0 0 0 1 0 0 0 0 0 0 2 32 0 0 0 3 0 3 6 0 0 0 0 2 1 0 0 0 0 1 2 1 0 1 4 0 1 0 1 0 0 3 0 0 0 0 0 0 0 0 0 0 1 6 0 0 0 0 1 0 2 0 0 0 4 0 7 0 4 47 2 12 0 1 0 0 0 0 0 0 3 5 1 0 2 2 1 0 0 1 0 1 1 0 0 0 1 5 0 0 43 56 1 0 4 2 0 1 3 7 0 0 1 3 0 1 0 0 0 0 46 0 0 7 2 5 5 1 4 0 1 0 0 0 0 0 0 0 2 6 0 2 0 0 0 1 0 0 0 0 0 0 0 0 0 2 3 0 2 0 1 0 0 0 0 0 0 14 33 11 1 0 0 2 4 46 0 0 1 1 0 0 0 5 0 0 0 1 0 0 0 30 0 0 1 0 6 3 3 6 2 0 0 0 0 3 0 4 0 1 0 0 0 0 7 1 0 0 0 0 0 0 8 0 0 1 1 3 0 0 0 0 0 1 0 0 1 2 2 0 0 0 0 0 3 1 0 0 2 1 0 0 0 0 0 0 0 3 1 0 1 0 0 1 3 0 0 0 0 0 0 0 0 0 4 0 0 0 0 0 2 0 0 0 0 0 0 0 0 0 0 1 0 2 2 0 0 1 0 0 0 0 1 0 1 0 0 59 0 31 17 0 0 0 1 0 2 2 0 0 1 0 2 0 0 0 0 0 0 1 0 0 0 3 3 0 0 0 2 1 4 0 6 0 58 0 1 0 0 0 0 0 0 0 0 0 1 0 0 0 0 0 0 1 0 1 0 0 0 0 0 0 4 2 0 1 0 0 0 0 0 3 0 0 0 0 0 1 0 0 0 0 0 0 3 1 0 0 0 0 0 0 0 0 0 0 0 0 0 0 1 4 0 0 0 0 0 0 0 0 1 0 2 5 34 0 3 0 0 0 0 0 1 1 1 0 1 2 1 0 6 0 1 1 0 0 2 9 0 0 0 1 0 3 0 3 0 0 0 0 0 0 1 2 0 0 0 0 0 3 1 5 0 0 0 2 0 0 3 0 0 5 0 0 0 1 0 0 2 0 7 0 0 0 0 0 3 0 2 1 0 1 2 72 1 2 0 0 3 1 1 0 0 0 0 0 0 0 2 1 6 1 0 4 2 0 0 0 0 0 2 0 0 1 0 0 0 0 0 0 0 1 0 0 2 0 1 5 1 0 0 0 0 0 0 1 0 0 0 0 0 0 0 0 0 0 0 0 0 0 2 0 1 0 10 11 0 2 2 2 1 0 0 0 0 0 1 0 0 0 0 2 0 0 1 1 0 0 0 1 0 0 0 2 1 1 1 0 3 0 8 0 2 4 0 0 0 4 4 2 0 0 3 1 0 0 1 0 1 0 2 0 0 0 1 6 0 0 0 0 4 0 2 1 0 0 0 2 0 0 0 0 0 0 0 0 0 0 0 0 0 0 0 0 0 0 0 1 2 1 0 0 0 0 0 0 0 1 0 0 0 0 1 5 0 0 0 0 0 0 1 0 1 0 0 15 2 0 0 3 0 5 1 0 2 3 2 2 1 0 1 0 2 0 2 0 0 7 7 2 0 0 0 0 0 1 2 0 0 0 0 0 0 5 0 0 0 0 0 2 2 0 0 0 0 0 0 4 0 0 0 4 0 0 0 1 0 
Printing Sanity2
Heartbeat CPU 0 instructions: 50000003 cycles: 14220870 heartbeat IPC: 3.52726 cumulative IPC: 3.51596 (Simulation time: 0 hr 2 min 34 sec) 

Warmup complete CPU 0 instructions: 50000003 cycles: 14220870 (Simulation time: 0 hr 2 min 34 sec) 

Heartbeat CPU 0 instructions: 60000001 cycles: 48174538 heartbeat IPC: 0.294519 cumulative IPC: 0.294519 (Simulation time: 0 hr 3 min 32 sec) 
*** Reached end of trace for Core: 0 Repeating trace: traces/spec2k17/srv_17.champsimtrace.xz
Heartbeat CPU 0 instructions: 70000000 cycles: 82117929 heartbeat IPC: 0.294608 cumulative IPC: 0.294564 (Simulation time: 0 hr 4 min 25 sec) 
Heartbeat CPU 0 instructions: 80000001 cycles: 116063842 heartbeat IPC: 0.294586 cumulative IPC: 0.294571 (Simulation time: 0 hr 5 min 23 sec) 
Heartbeat CPU 0 instructions: 90000000 cycles: 150005975 heartbeat IPC: 0.294619 cumulative IPC: 0.294583 (Simulation time: 0 hr 6 min 19 sec) 
*** Reached end of trace for Core: 0 Repeating trace: traces/spec2k17/srv_17.champsimtrace.xz
Heartbeat CPU 0 instructions: 100000000 cycles: 183984107 heartbeat IPC: 0.294307 cumulative IPC: 0.294528 (Simulation time: 0 hr 7 min 15 sec) 
Heartbeat CPU 0 instructions: 110000000 cycles: 217946759 heartbeat IPC: 0.294441 cumulative IPC: 0.294513 (Simulation time: 0 hr 8 min 11 sec) 
Heartbeat CPU 0 instructions: 120000002 cycles: 251909175 heartbeat IPC: 0.294443 cumulative IPC: 0.294503 (Simulation time: 0 hr 9 min 5 sec) 
*** Reached end of trace for Core: 0 Repeating trace: traces/spec2k17/srv_17.champsimtrace.xz
Heartbeat CPU 0 instructions: 130000003 cycles: 285846368 heartbeat IPC: 0.294662 cumulative IPC: 0.294523 (Simulation time: 0 hr 9 min 58 sec) 
Heartbeat CPU 0 instructions: 140000003 cycles: 319821196 heartbeat IPC: 0.294336 cumulative IPC: 0.294502 (Simulation time: 0 hr 10 min 52 sec) 
Heartbeat CPU 0 instructions: 150000001 cycles: 353736900 heartbeat IPC: 0.294849 cumulative IPC: 0.294537 (Simulation time: 0 hr 11 min 51 sec) 
*** Reached end of trace for Core: 0 Repeating trace: traces/spec2k17/srv_17.champsimtrace.xz
Heartbeat CPU 0 instructions: 160000001 cycles: 387709533 heartbeat IPC: 0.294355 cumulative IPC: 0.29452 (Simulation time: 0 hr 12 min 51 sec) 
Heartbeat CPU 0 instructions: 170000000 cycles: 421639828 heartbeat IPC: 0.294722 cumulative IPC: 0.294537 (Simulation time: 0 hr 13 min 49 sec) 
Heartbeat CPU 0 instructions: 180000002 cycles: 455559514 heartbeat IPC: 0.294814 cumulative IPC: 0.294558 (Simulation time: 0 hr 14 min 49 sec) 
*** Reached end of trace for Core: 0 Repeating trace: traces/spec2k17/srv_17.champsimtrace.xz
Heartbeat CPU 0 instructions: 190000000 cycles: 489457314 heartbeat IPC: 0.295004 cumulative IPC: 0.29459 (Simulation time: 0 hr 15 min 46 sec) 
Heartbeat CPU 0 instructions: 200000002 cycles: 523404747 heartbeat IPC: 0.294573 cumulative IPC: 0.294589 (Simulation time: 0 hr 16 min 44 sec) 
Heartbeat CPU 0 instructions: 210000001 cycles: 557315216 heartbeat IPC: 0.294894 cumulative IPC: 0.294608 (Simulation time: 0 hr 17 min 42 sec) 
*** Reached end of trace for Core: 0 Repeating trace: traces/spec2k17/srv_17.champsimtrace.xz
Heartbeat CPU 0 instructions: 220000000 cycles: 591254990 heartbeat IPC: 0.29464 cumulative IPC: 0.29461 (Simulation time: 0 hr 18 min 37 sec) 
Heartbeat CPU 0 instructions: 230000000 cycles: 625148297 heartbeat IPC: 0.295043 cumulative IPC: 0.294634 (Simulation time: 0 hr 19 min 29 sec) 
Heartbeat CPU 0 instructions: 240000002 cycles: 659061543 heartbeat IPC: 0.29487 cumulative IPC: 0.294646 (Simulation time: 0 hr 20 min 29 sec) 
Heartbeat CPU 0 instructions: 250000002 cycles: 692960788 heartbeat IPC: 0.294992 cumulative IPC: 0.294664 (Simulation time: 0 hr 21 min 31 sec) 
Finished CPU 0 instructions: 200000003 cycles: 678739919 cumulative IPC: 0.294664 (Simulation time: 0 hr 21 min 31 sec) 

ChampSim completed all CPUs

Region of Interest Statistics

CPU 0 cumulative IPC: 0.294664 instructions: 200000003 cycles: 678739919
ITLB TOTAL     ACCESS:   35401229  HIT:   32985075  MISS:    2416154  HIT %:    93.1749  MISS %:    6.82506   MPKI: 12.0808
ITLB LOAD TRANSLATION ACCESS:   35401229  HIT:   32985075  MISS:    2416154  HIT %:    93.1749  MISS %:    6.82506   MPKI: 12.0808
ITLB PREFETCH  REQUESTED:          0  ISSUED:          0  USEFUL:          0  USELESS:          0
ITLB USEFUL LOAD PREFETCHES:          0 PREFETCH ISSUED TO LOWER LEVEL:          0  ACCURACY: -nan
ITLB TIMELY PREFETCHES:          0 LATE PREFETCHES: 0 DROPPED PREFETCHES: 0
ITLB PREFETCHES SAME FILL-ORIGIN LEVEL: 0 DIFFERENT FILL-ORIGIN LEVEL: 0
ITLB AVERAGE MISS LATENCY: 9.0064 cycles
ITLB RQ	ACCESS:   41955390	FORWARD:          0	MERGED:    5998720	TO_CACHE:   35956670

DTLB TOTAL     ACCESS:   47264351  HIT:   45298444  MISS:    1965907  HIT %:    95.8406  MISS %:    4.15939   MPKI: 9.82953
DTLB LOAD TRANSLATION ACCESS:   47264351  HIT:   45298444  MISS:    1965907  HIT %:    95.8406  MISS %:    4.15939   MPKI: 9.82953
DTLB PREFETCH  REQUESTED:          0  ISSUED:          0  USEFUL:          0  USELESS:          0
DTLB USEFUL LOAD PREFETCHES:          0 PREFETCH ISSUED TO LOWER LEVEL:          0  ACCURACY: -nan
DTLB TIMELY PREFETCHES:          0 LATE PREFETCHES: 0 DROPPED PREFETCHES: 0
DTLB PREFETCHES SAME FILL-ORIGIN LEVEL: 0 DIFFERENT FILL-ORIGIN LEVEL: 0
DTLB AVERAGE MISS LATENCY: 9.03719 cycles
DTLB RQ	ACCESS:   62492691	FORWARD:          0	MERGED:   15177312	TO_CACHE:   47315379

STLB TOTAL     ACCESS:    7398436  HIT:    7396838  MISS:       1598  HIT %:    99.9784  MISS %:  0.0215992   MPKI: 0.00799
STLB LOAD TRANSLATION ACCESS:    4382061  HIT:    4380561  MISS:       1500  HIT %:    99.9658  MISS %:  0.0342305   MPKI: 0.0075
STLB TRANSLATION FROM L1D PREFETCHER ACCESS:    3016375  HIT:    3016277  MISS:         98  HIT %:    99.9968  MISS %: 0.00324893   MPKI: 0.00049
STLB PREFETCH  REQUESTED:          0  ISSUED:          0  USEFUL:         40  USELESS:         58
STLB USEFUL LOAD PREFETCHES:         40 PREFETCH ISSUED TO LOWER LEVEL:          0  ACCURACY: inf
STLB TIMELY PREFETCHES:         40 LATE PREFETCHES: 0 DROPPED PREFETCHES: 108998
STLB PREFETCHES SAME FILL-ORIGIN LEVEL: 0 DIFFERENT FILL-ORIGIN LEVEL: 0
STLB AVERAGE MISS LATENCY: 36.0989 cycles
STLB RQ	ACCESS:   10584048	FORWARD:          0	MERGED:    3074433	TO_CACHE:    7509615

STLB Hit, L1D data hit: 0
STLB Hit, L2C data hit: 0
STLB Hit, LLC data hit: 0
STLB Hit, LLC data miss: 0
STLB STLB hints to L2: 0
L1D TOTAL     ACCESS:   66411834  HIT:   57642716  MISS:    8769118  HIT %:    86.7959  MISS %:    13.2041   MPKI: 43.8456
L1D LOAD      ACCESS:   34553798  HIT:   31484716  MISS:    3069082  HIT %:     91.118  MISS %:    8.88204   MPKI: 15.3454
L1D RFO       ACCESS:   26111077  HIT:   24935702  MISS:    1175375  HIT %:    95.4986  MISS %:    4.50144   MPKI: 5.87687
L1D PREFETCH  ACCESS:    5746959  HIT:    1222298  MISS:    4524661  HIT %:    21.2686  MISS %:    78.7314   MPKI: 22.6233
AGUS PREFETCH L1 MISS: 0
L1D PREFETCH  REQUESTED:   12597446  ISSUED:   12597446  USEFUL:     815438  USELESS:    3709233
L1D USEFUL LOAD PREFETCHES:     815438 PREFETCH ISSUED TO LOWER LEVEL:    4600395  ACCURACY: 17.7254
L1D TIMELY PREFETCHES:     815438 LATE PREFETCHES: 73677 DROPPED PREFETCHES: 114144
L1D PREFETCHES SAME FILL-ORIGIN LEVEL: 4600395 DIFFERENT FILL-ORIGIN LEVEL: 0
L1D AVERAGE MISS LATENCY: 3.06851e+06 cycles
L1D RQ	ACCESS:   47138850	FORWARD:          0	MERGED:   12103851	TO_CACHE:   34686741
L1D WQ	ACCESS:   27961654	FORWARD:     349828	MERGED:     155704	TO_CACHE:   27805950
L1D PQ	ACCESS:    6395459	FORWARD:          0	MERGED:     191902	TO_CACHE:    6201987

L1D UNIQUE REGIONS ACCESSED: 0
L1D REGIONS CONFLICTS: 0
L1D Cross Page Prefetch Requests: 3362914
L1D Same Page Prefetch Requests: 3747175
L1D ROI Sum of L1D PQ occupancy: 85235077
L1D PREFETCHES PUSHED FROM L2C: 0
L1I TOTAL     ACCESS:   40179426  HIT:   28048358  MISS:   12131068  HIT %:    69.8078  MISS %:    30.1922   MPKI: 60.6553
L1I LOAD      ACCESS:   40179426  HIT:   28048358  MISS:   12131068  HIT %:    69.8078  MISS %:    30.1922   MPKI: 60.6553
L1I PREFETCH  REQUESTED:          0  ISSUED:          0  USEFUL:          0  USELESS:          0
L1I USEFUL LOAD PREFETCHES:          0 PREFETCH ISSUED TO LOWER LEVEL:          0  ACCURACY: -nan
L1I TIMELY PREFETCHES:          0 LATE PREFETCHES: 0 DROPPED PREFETCHES: 0
L1I PREFETCHES SAME FILL-ORIGIN LEVEL: 0 DIFFERENT FILL-ORIGIN LEVEL: 0
L1I AVERAGE MISS LATENCY: 16.4724 cycles
L1I RQ	ACCESS:   58888097	FORWARD:          0	MERGED:   16932707	TO_CACHE:   41955390

BTB TOTAL     ACCESS:   30221983  HIT:   16757520  MISS:   13464463  HIT %:    55.4481  MISS %:    44.5519   MPKI: 67.3223
BTB BRANCH_DIRECT_JUMP	ACCESS:    1952658  HIT:    1081780  MISS:     870878
BTB BRANCH_INDIRECT	ACCESS:   12737372  HIT:    7604710  MISS:    5132662
BTB BRANCH_CONDITIONAL	ACCESS:    5645921  HIT:    4273177  MISS:    1372744
BTB BRANCH_DIRECT_CALL	ACCESS:    4153386  HIT:    1949552  MISS:    2203834
BTB BRANCH_INDIRECT_CALL	ACCESS:     789643  HIT:     387843  MISS:     401800
BTB BRANCH_RETURN	ACCESS:    4943003  HIT:    1460458  MISS:    3482545
BTB BRANCH_OTHER ACCESS:          0  HIT:          0  MISS:          0

L2C TOTAL     ACCESS:   23553122  HIT:   21739319  MISS:    1813803  HIT %:    92.2991  MISS %:     7.7009   MPKI: 9.06901
L2C LOAD      ACCESS:   15126240  HIT:   13957997  MISS:    1168243  HIT %:    92.2767  MISS %:    7.72329   MPKI: 5.84121
L2C DATA LOAD MPKI: 0.99501
L2C INSTRUCTION LOAD MPKI: 4.8462
L2C RFO       ACCESS:    1173315  HIT:    1130988  MISS:      42327  HIT %:    96.3925  MISS %:    3.60747   MPKI: 0.211635
L2C PREFETCH  ACCESS:    4600148  HIT:    4019936  MISS:     580212  HIT %:    87.3871  MISS %:    12.6129   MPKI: 2.90106
AGUS PREFETCH L1 MISS: 0
L2C DATA PREFETCH MPKI: 2.90106
L2C INSTRUCTION PREFETCH MPKI: 0
L2C WRITEBACK ACCESS:    2521158  HIT:    2505606  MISS:      15552  HIT %:    99.3831  MISS %:   0.616859   MPKI: 0.07776
L2C LOAD TRANSLATION ACCESS:       1501  HIT:        651  MISS:        850  HIT %:    43.3711  MISS %:    56.6289   MPKI: 0.00425
L2C TRANSLATION FROM L1D PREFETCHER ACCESS:     130760  HIT:     124141  MISS:       6619  HIT %:    94.9381  MISS %:    5.06195   MPKI: 0.033095
L2C PREFETCH  REQUESTED:          0  ISSUED:          0  USEFUL:       9111  USELESS:     577209
L2C USEFUL LOAD PREFETCHES:       9111 PREFETCH ISSUED TO LOWER LEVEL:     580212  ACCURACY: 1.57029
L2C TIMELY PREFETCHES:       9111 LATE PREFETCHES: 0 DROPPED PREFETCHES: 0
L2C PREFETCHES SAME FILL-ORIGIN LEVEL: 0 DIFFERENT FILL-ORIGIN LEVEL: 0
L2C AVERAGE MISS LATENCY: 30.1084 cycles
L2C RQ	ACCESS:   16432050	FORWARD:          0	MERGED:          0	TO_CACHE:   16431816
L2C WQ	ACCESS:    2521158	FORWARD:        482	MERGED:          0	TO_CACHE:    2521158
L2C PQ	ACCESS:    4600395	FORWARD:          0	MERGED:          0	TO_CACHE:    4600147

L2C Instructions Evicting Data 329548
L2C Translations Evicting Data 4662
L2C Data Evicting Data 498192
L2C Instructions Evicting Instructions 637486
L2C Translations Evicting Instructions 2800
L2C Data Evicting Instructions 318101
L2C Instructions Evicting Translations 2207
L2C Translations Evicting Translations 7
L2C Data Evicting Translations 5248
L2C Dense regions hint from L2: 0
PSCL5 TOTAL     ACCESS:     110596  HIT:     110596  MISS:          0  HIT %:        100  MISS %:          0   MPKI: 0
PSCL5 LOAD TRANSLATION ACCESS:       1500  HIT:       1500  MISS:          0  HIT %:        100  MISS %:          0   MPKI: 0
PSCL5 TRANSLATION FROM L1D PREFETCHER ACCESS:     109096  HIT:     109096  MISS:          0  HIT %:        100  MISS %:          0   MPKI: 0
PSCL5 PREFETCH  REQUESTED:          0  ISSUED:          0  USEFUL:          0  USELESS:          0
PSCL5 USEFUL LOAD PREFETCHES:          0 PREFETCH ISSUED TO LOWER LEVEL:          0  ACCURACY: -nan
PSCL5 TIMELY PREFETCHES:          0 LATE PREFETCHES: 0 DROPPED PREFETCHES: 0
PSCL5 PREFETCHES SAME FILL-ORIGIN LEVEL: 0 DIFFERENT FILL-ORIGIN LEVEL: 0

PSCL4 TOTAL     ACCESS:     110578  HIT:     110578  MISS:          0  HIT %:        100  MISS %:          0   MPKI: 0
PSCL4 LOAD TRANSLATION ACCESS:       1494  HIT:       1494  MISS:          0  HIT %:        100  MISS %:          0   MPKI: 0
PSCL4 TRANSLATION FROM L1D PREFETCHER ACCESS:     109084  HIT:     109084  MISS:          0  HIT %:        100  MISS %:          0   MPKI: 0
PSCL4 PREFETCH  REQUESTED:          0  ISSUED:          0  USEFUL:          0  USELESS:          0
PSCL4 USEFUL LOAD PREFETCHES:          0 PREFETCH ISSUED TO LOWER LEVEL:          0  ACCURACY: -nan
PSCL4 TIMELY PREFETCHES:          0 LATE PREFETCHES: 0 DROPPED PREFETCHES: 0
PSCL4 PREFETCHES SAME FILL-ORIGIN LEVEL: 0 DIFFERENT FILL-ORIGIN LEVEL: 0

PSCL3 TOTAL     ACCESS:     110590  HIT:     110590  MISS:          0  HIT %:        100  MISS %:          0   MPKI: 0
PSCL3 LOAD TRANSLATION ACCESS:       1494  HIT:       1494  MISS:          0  HIT %:        100  MISS %:          0   MPKI: 0
PSCL3 TRANSLATION FROM L1D PREFETCHER ACCESS:     109096  HIT:     109096  MISS:          0  HIT %:        100  MISS %:          0   MPKI: 0
PSCL3 PREFETCH  REQUESTED:          0  ISSUED:          0  USEFUL:          0  USELESS:          0
PSCL3 USEFUL LOAD PREFETCHES:          0 PREFETCH ISSUED TO LOWER LEVEL:          0  ACCURACY: -nan
PSCL3 TIMELY PREFETCHES:          0 LATE PREFETCHES: 0 DROPPED PREFETCHES: 0
PSCL3 PREFETCHES SAME FILL-ORIGIN LEVEL: 0 DIFFERENT FILL-ORIGIN LEVEL: 0

PSCL2 TOTAL     ACCESS:      88932  HIT:      88931  MISS:          1  HIT %:    99.9989  MISS %: 0.00112445   MPKI: 5e-06
PSCL2 LOAD TRANSLATION ACCESS:       1500  HIT:       1499  MISS:          1  HIT %:    99.9333  MISS %:  0.0666667   MPKI: 5e-06
PSCL2 TRANSLATION FROM L1D PREFETCHER ACCESS:      87432  HIT:      87432  MISS:          0  HIT %:        100  MISS %:          0   MPKI: 0
PSCL2 PREFETCH  REQUESTED:          0  ISSUED:          0  USEFUL:          0  USELESS:          0
PSCL2 USEFUL LOAD PREFETCHES:          0 PREFETCH ISSUED TO LOWER LEVEL:          0  ACCURACY: -nan
PSCL2 TIMELY PREFETCHES:          0 LATE PREFETCHES: 0 DROPPED PREFETCHES: 0
PSCL2 PREFETCHES SAME FILL-ORIGIN LEVEL: 0 DIFFERENT FILL-ORIGIN LEVEL: 0

LLC TOTAL     ACCESS:    1873693  HIT:    1869585  MISS:       4108  HIT %:    99.7808  MISS %:   0.219246   MPKI: 0.02054
LLC LOAD      ACCESS:    1168243  HIT:    1167867  MISS:        376  HIT %:    99.9678  MISS %:  0.0321851   MPKI: 0.00188
LLC RFO       ACCESS:      42325  HIT:      42317  MISS:          8  HIT %:    99.9811  MISS %:  0.0189014   MPKI: 4e-05
LLC PREFETCH  ACCESS:     580212  HIT:     576504  MISS:       3708  HIT %:    99.3609  MISS %:   0.639077   MPKI: 0.01854
AGUS PREFETCH L1 MISS: 0
LLC WRITEBACK ACCESS:      75444  HIT:      75429  MISS:         15  HIT %:    99.9801  MISS %:  0.0198823   MPKI: 7.5e-05
LLC LOAD TRANSLATION ACCESS:        850  HIT:        850  MISS:          0  HIT %:        100  MISS %:          0   MPKI: 0
LLC TRANSLATION FROM L1D PREFETCHER ACCESS:       6619  HIT:       6618  MISS:          1  HIT %:    99.9849  MISS %:   0.015108   MPKI: 5e-06
LLC PREFETCH  REQUESTED:          0  ISSUED:          0  USEFUL:       1163  USELESS:        935
LLC USEFUL LOAD PREFETCHES:       1163 PREFETCH ISSUED TO LOWER LEVEL:       3708  ACCURACY: 31.3646
LLC TIMELY PREFETCHES:       1163 LATE PREFETCHES: 0 DROPPED PREFETCHES: 0
LLC PREFETCHES SAME FILL-ORIGIN LEVEL: 0 DIFFERENT FILL-ORIGIN LEVEL: 0
LLC AVERAGE MISS LATENCY: 161.434 cycles
LLC RQ	ACCESS:    1218039	FORWARD:          0	MERGED:          0	TO_CACHE:    1218037
LLC WQ	ACCESS:      75444	FORWARD:          2	MERGED:          0	TO_CACHE:      75444
LLC PQ	ACCESS:     580212	FORWARD:          0	MERGED:          0	TO_CACHE:     580212

LLC Dense regions hint to LLC: 0

RAW hits: 1524177
Loads Generated: 48663027
Loads sent to L1D: 47138850
Stores Generated: 27961642
Stores sent to L1D: 27961654
Major fault: 0 Minor fault: 1253
Allocated PAGES: 1253
CPU 0 L1D 
Prefetch count 5152655 BOP and RL 

DRAM Statistics
 CHANNEL 0
 RQ ROW_BUFFER_HIT:        375  ROW_BUFFER_MISS:       3718
 DBUS_CONGESTED:          0
 WQ ROW_BUFFER_HIT:          1  ROW_BUFFER_MISS:         20  FULL:          0

 AVG_CONGESTED_CYCLE: -
 All warmup complete: 2
Channel 0 Bank busy for read cycles: 0
Channel 0 Bank busy for write cycles: 0
Channel 0
Rank 0
0banks busy for read cycles: 678226253
0banks busy for write cycles: 21
1banks busy for read cycles: 450788
1banks busy for write cycles: 3269
2banks busy for read cycles: 53909
2banks busy for write cycles: 0
3banks busy for read cycles: 5146
3banks busy for write cycles: 0
4banks busy for read cycles: 313
4banks busy for write cycles: 0
5banks busy for read cycles: 171
5banks busy for write cycles: 0
6banks busy for read cycles: 50
6banks busy for write cycles: 0
7banks busy for read cycles: 0
7banks busy for write cycles: 0
8banks busy for read cycles: 0
8banks busy for write cycles: 0

CPU 0 Branch Prediction Accuracy: 99.9103% MPKI: 0.159245 Average ROB Occupancy at Mispredict: 31.5674
Branch types
NOT_BRANCH: 164491862 82.2459%
BRANCH_DIRECT_JUMP: 1952658 0.976329%
BRANCH_INDIRECT: 12737372 6.36869%
BRANCH_CONDITIONAL: 10931949 5.46597%
BRANCH_DIRECT_CALL: 4153386 2.07669%
BRANCH_INDIRECT_CALL: 789643 0.394821%
BRANCH_RETURN: 4943003 2.4715%
BRANCH_OTHER: 0 0%

DRAM PAGES: 1048576
Allocated PAGES: 1253
