
*** ChampSim Multicore Out-of-Order Simulator ***

Warmup Instructions: 50000000
Simulation Instructions: 200000000
Number of CPUs: 1
LLC sets: 2048
LLC ways: 16
Off-chip DRAM Size: 4096 MB Channels: 1 Width: 64-bit Data Rate: 6400 MT/s
CPU 0 runs traces/spec2k17/srv_54.champsimtrace.xz
.xz
BTB has LRU replacement policy
ITLB has LRU replacement policy
DTLB has LRU replacement policy
STLB has LRU replacement policy
L1I has LRU replacement policy
CPU 0 l1d next line prefetcher
L1D has LRU replacement policy
Initialize SRRIP state for L2C
Initialize DRRIP state for LLC
Offsets elements: 
Potential of Offsets elements: 
rewards of Offsets elements: 
Printing Sanity1
offset list size2068
Heartbeat CPU 0 instructions: 10000000 cycles: 2820716 heartbeat IPC: 3.5452 cumulative IPC: 3.5452 (Simulation time: 0 hr 0 min 35 sec) 
Heartbeat CPU 0 instructions: 20000002 cycles: 5639131 heartbeat IPC: 3.54809 cumulative IPC: 3.54665 (Simulation time: 0 hr 1 min 11 sec) 
Heartbeat CPU 0 instructions: 30000001 cycles: 8464691 heartbeat IPC: 3.53912 cumulative IPC: 3.54413 (Simulation time: 0 hr 1 min 45 sec) 
*** Reached end of trace for Core: 0 Repeating trace: traces/spec2k17/srv_54.champsimtrace.xz
Heartbeat CPU 0 instructions: 40000000 cycles: 11274067 heartbeat IPC: 3.55951 cumulative IPC: 3.54797 (Simulation time: 0 hr 2 min 22 sec) 
Heartbeat CPU 0 instructions: 50000003 cycles: 14100757 heartbeat IPC: 3.53771 cumulative IPC: 3.54591 (Simulation time: 0 hr 2 min 55 sec) 

Warmup complete CPU 0 instructions: 50000003 cycles: 14100757 (Simulation time: 0 hr 2 min 55 sec) 

Heartbeat CPU 0 instructions: 60000003 cycles: 34236273 heartbeat IPC: 0.496635 cumulative IPC: 0.496635 (Simulation time: 0 hr 3 min 42 sec) 
*** Reached end of trace for Core: 0 Repeating trace: traces/spec2k17/srv_54.champsimtrace.xz
Heartbeat CPU 0 instructions: 70000001 cycles: 52190774 heartbeat IPC: 0.556963 cumulative IPC: 0.525072 (Simulation time: 0 hr 4 min 31 sec) 
Heartbeat CPU 0 instructions: 80000002 cycles: 71773360 heartbeat IPC: 0.510658 cumulative IPC: 0.520178 (Simulation time: 0 hr 5 min 21 sec) 
Heartbeat CPU 0 instructions: 90000001 cycles: 92410099 heartbeat IPC: 0.484573 cumulative IPC: 0.510795 (Simulation time: 0 hr 6 min 8 sec) 
*** Reached end of trace for Core: 0 Repeating trace: traces/spec2k17/srv_54.champsimtrace.xz
Heartbeat CPU 0 instructions: 100000002 cycles: 111779149 heartbeat IPC: 0.516288 cumulative IPC: 0.511884 (Simulation time: 0 hr 6 min 58 sec) 
Heartbeat CPU 0 instructions: 110000000 cycles: 129248450 heartbeat IPC: 0.572433 cumulative IPC: 0.52107 (Simulation time: 0 hr 7 min 45 sec) 
Heartbeat CPU 0 instructions: 120000003 cycles: 150803815 heartbeat IPC: 0.463922 cumulative IPC: 0.512059 (Simulation time: 0 hr 8 min 31 sec) 
*** Reached end of trace for Core: 0 Repeating trace: traces/spec2k17/srv_54.champsimtrace.xz
Heartbeat CPU 0 instructions: 130000001 cycles: 169743162 heartbeat IPC: 0.528001 cumulative IPC: 0.513999 (Simulation time: 0 hr 9 min 19 sec) 
Heartbeat CPU 0 instructions: 140000000 cycles: 188565642 heartbeat IPC: 0.53128 cumulative IPC: 0.515863 (Simulation time: 0 hr 10 min 3 sec) 
Heartbeat CPU 0 instructions: 150000000 cycles: 210214552 heartbeat IPC: 0.461917 cumulative IPC: 0.509908 (Simulation time: 0 hr 10 min 50 sec) 
*** Reached end of trace for Core: 0 Repeating trace: traces/spec2k17/srv_54.champsimtrace.xz
Heartbeat CPU 0 instructions: 160000002 cycles: 228047980 heartbeat IPC: 0.560745 cumulative IPC: 0.514145 (Simulation time: 0 hr 11 min 36 sec) 
Heartbeat CPU 0 instructions: 170000001 cycles: 247859065 heartbeat IPC: 0.504768 cumulative IPC: 0.513351 (Simulation time: 0 hr 12 min 27 sec) 
Heartbeat CPU 0 instructions: 180000001 cycles: 269304320 heartbeat IPC: 0.466304 cumulative IPC: 0.509397 (Simulation time: 0 hr 13 min 11 sec) 
*** Reached end of trace for Core: 0 Repeating trace: traces/spec2k17/srv_54.champsimtrace.xz
Offsets elements: 
Potential of Offsets elements: 
rewards of Offsets elements: 0 0 0 49 0 0 0 64 22 17 0 0 0 0 0 37 35 171 205 0 57 15 0 0 0 1 1 105 117 0 2 0 0 0 0 0 0 0 0 0 0 0 0 0 0 0 0 0 0 0 0 3 1 0 1 7 0 0 0 0 0 0 3 4 2 0 3 10 0 0 0 0 0 0 0 0 0 0 0 23 0 0 10 0 0 0 0 61 3 0 0 0 0 0 79 8 0 0 0 55 0 0 0 10 8 3 16 15 6 0 0 0 0 1 0 0 10 0 0 0 0 9 22 25 0 0 0 61 0 0 0 0 0 0 0 0 0 3 1 3 0 0 0 38 0 0 0 0 0 0 0 0 0 0 0 1 0 0 0 0 0 0 0 0 0 0 0 0 0 0 21 0 19 0 11 2 0 0 0 2 0 0 99 4 0 0 12 6 1 8 0 0 0 0 0 0 0 0 0 0 0 0 0 0 68 0 0 0 0 0 0 0 0 0 0 0 0 0 0 1 0 0 20 0 0 13 101 21 8 7 0 0 6 0 0 0 0 0 0 0 0 11 21 0 0 3 2 1 74 0 0 0 3 47 3 32 0 0 0 0 0 46 0 1 0 0 0 0 0 15 40 3 22 6 0 0 0 0 5 0 0 0 0 0 0 0 0 12 6 6 0 0 6 0 0 0 0 0 0 0 0 0 0 0 5 7 0 0 0 0 0 4 0 7 0 0 0 0 10 7 0 0 0 5 31 0 8 0 0 0 0 0 2 5 9 12 0 0 64 51 0 0 46 39 10 36 0 0 0 0 1 0 0 4 80 0 27 0 0 0 2 4 24 71 38 70 0 0 4 13 2 0 0 60 7 13 0 0 0 0 0 1 4 23 0 4 0 0 0 0 0 0 8 0 1 0 0 0 0 0 0 14 82 60 68 0 25 5 0 5 0 0 0 1 15 7 5 0 0 0 0 0 0 6 4 0 0 0 0 0 29 0 0 0 0 0 0 23 5 9 31 40 0 2 0 0 1 8 0 0 0 12 0 0 0 0 0 0 0 0 45 0 2 0 0 0 0 0 0 0 0 0 0 49 0 0 5 11 0 0 0 3 23 0 0 18 0 0 0 0 0 0 0 0 0 0 1 0 3 0 0 7 6 0 0 0 0 2 15 0 0 0 0 0 0 0 0 0 0 0 0 0 0 0 1 3 4 0 0 0 0 24 0 0 0 0 0 0 0 0 0 0 0 0 0 2 0 0 0 0 0 0 0 0 0 0 4 18 0 19 0 3 21 48 0 0 0 0 0 10 0 3 2 0 0 0 101 0 0 63 0 1 0 9 14 0 2 1 0 0 17 2 14 11 0 0 16 1 0 0 10 0 5 0 0 0 0 0 0 0 0 0 0 0 0 0 13 0 3 1 0 0 0 0 1 0 0 0 0 0 0 2 0 0 0 0 6 0 0 0 0 0 0 0 0 0 0 0 0 0 2 0 80 1 5 0 0 0 0 0 0 2 0 0 3 0 0 0 0 0 10 3 0 0 2 0 0 0 0 3 9 1 1 0 0 0 0 0 0 0 0 0 0 0 0 0 0 0 0 0 0 0 0 0 0 3 7 4 0 16 12 0 11 6 0 7 0 41 3 0 13 0 0 0 0 0 0 0 26 0 0 0 26 0 0 7 0 3 0 0 0 0 0 0 0 0 0 0 0 19 0 0 42 0 0 0 0 0 0 0 0 0 0 0 0 0 0 0 0 0 102 296 0 0 0 0 0 0 0 0 0 0 0 0 0 0 0 0 0 0 0 0 10 27 34 0 0 0 0 0 0 0 2 3 0 0 0 0 0 0 0 0 0 0 0 0 0 0 1 1 0 0 0 0 0 0 0 0 0 0 14 10 21 0 0 0 0 0 0 3 0 0 0 0 0 1 0 0 0 0 0 0 0 1 0 0 0 0 0 2 1 1 0 0 0 0 0 1 2 0 0 0 0 0 0 0 0 0 0 41 0 0 0 0 36 0 0 0 0 0 0 0 1 0 0 0 0 0 0 0 0 0 0 0 0 0 0 0 0 0 5 0 0 0 0 0 0 0 0 8 0 0 0 0 2 0 94 0 0 12 0 0 0 25 0 5 0 0 0 0 1 0 0 0 0 0 0 0 0 33 0 0 1 0 0 0 0 0 2 0 0 0 0 0 0 0 0 0 50 1 2 0 0 0 0 0 0 0 0 0 0 0 0 5 0 0 0 12 0 0 0 0 0 4 0 1 0 0 0 0 0 0 0 0 0 0 0 0 0 0 0 3 0 0 0 0 0 0 0 0 0 0 0 0 2 0 0 0 0 0 0 1 7 0 0 0 0 0 1 0 0 26 0 0 0 0 0 0 0 0 0 0 0 0 0 0 0 0 5 0 0 0 0 0 0 0 0 0 0 0 31 0 0 9 4 4 0 0 0 0 0 0 0 0 0 0 0 27 0 0 6 19 0 0 22 22 13 0 0 4 0 0 0 0 0 0 0 0 0 0 0 0 0 0 0 0 0 0 0 0 0 0 0 0 0 0 0 0 0 0 0 0 0 0 2 0 0 0 0 0 0 0 0 0 0 10 0 0 0 0 0 0 0 0 0 0 0 0 0 0 0 0 0 0 55 0 3 0 0 0 0 0 0 0 0 5 0 0 0 0 0 6 0 0 0 4 0 0 12 13 0 0 0 0 0 0 0 0 0 0 0 0 0 17 0 0 0 0 0 0 0 0 1 56 26 0 0 0 0 0 0 0 0 0 0 0 0 0 3 0 0 0 0 0 0 0 0 0 0 0 0 0 0 0 0 0 0 0 0 0 0 0 0 0 30 3 0 0 0 0 0 0 0 0 0 0 0 0 0 0 0 0 0 0 0 0 0 0 0 0 0 0 2 0 0 0 0 0 0 0 0 0 0 0 0 0 0 0 0 0 0 0 0 0 0 0 0 261 0 0 0 0 0 0 0 0 0 0 0 0 0 0 0 0 0 0 0 0 0 0 0 0 0 0 0 0 0 0 0 36 0 4 0 0 0 0 0 0 0 0 0 0 0 0 0 0 0 0 0 0 0 0 0 184 0 0 0 0 0 0 0 0 0 0 0 0 0 0 0 0 0 0 0 0 0 0 0 0 0 26 0 0 0 0 0 0 0 0 0 0 0 0 0 0 0 0 0 0 0 1 0 0 0 0 0 0 0 0 0 0 0 0 0 0 0 0 0 0 0 3 0 0 0 0 0 0 0 0 0 0 0 0 0 0 0 0 0 0 0 0 0 0 0 0 0 0 0 0 0 0 0 143 0 0 0 0 0 0 2 0 0 0 0 0 0 0 0 0 0 0 0 0 0 0 1 0 0 0 0 34 0 0 0 0 0 0 0 0 9 0 0 0 0 0 0 0 0 0 0 0 0 0 0 0 0 68 0 0 28 5 0 0 0 0 0 0 0 6 10 3 0 1 0 0 0 0 0 0 0 3 6 0 0 0 0 0 0 0 0 0 0 0 0 0 0 0 0 0 0 0 0 0 0 0 0 0 0 0 0 0 0 0 0 0 0 3 0 0 0 0 0 0 0 0 0 0 0 0 1 0 0 0 0 16 9 0 0 12 0 0 0 0 0 0 5 0 0 0 0 0 0 3 0 0 0 0 0 0 0 0 0 4 11 0 0 0 1 1 0 0 0 0 0 0 0 1 0 0 0 0 0 0 0 0 0 0 0 0 0 0 0 0 2 0 0 0 0 0 0 0 0 0 0 0 18 0 0 22 0 0 0 0 0 0 0 0 0 0 0 5 0 0 0 0 0 0 0 2 2 11 0 0 0 0 0 14 0 0 0 0 0 0 0 0 0 0 0 0 0 0 0 0 0 0 0 0 26 0 0 0 0 0 0 0 0 0 0 0 0 1 0 1 0 0 0 0 0 14 19 0 0 0 0 0 0 0 0 1 0 0 0 0 0 0 0 0 0 0 0 9 0 0 0 0 0 0 2 0 0 2 0 0 0 0 244 0 0 0 0 0 0 0 16 0 4 0 0 0 0 0 0 0 1 6 0 0 0 0 0 0 0 0 0 0 9 0 0 0 0 0 0 0 0 0 0 4 0 0 0 0 0 0 0 0 0 0 1 0 0 0 0 0 0 0 0 0 0 0 0 0 0 0 0 0 5 0 0 0 0 0 24 0 0 8 0 0 0 0 0 9 0 0 0 0 0 0 0 0 1 3 0 0 0 0 0 6 0 1 0 46 0 0 0 0 7 20 0 0 8 0 0 0 6 31 0 0 0 0 0 0 0 0 0 0 0 0 0 0 0 0 0 0 0 0 0 0 0 0 0 0 0 0 0 0 0 0 0 0 0 0 0 0 7 0 0 0 0 0 0 0 0 0 2 0 0 0 0 0 0 0 0 0 0 0 0 0 0 0 0 0 0 2 0 0 0 0 2 0 0 0 0 0 0 0 0 0 0 0 28 0 0 42 0 0 0 0 0 0 0 0 0 0 0 0 29 0 0 0 0 0 0 0 0 0 0 0 15 0 0 0 0 47 0 0 0 2 0 0 0 0 0 0 0 0 0 14 0 0 0 0 0 0 0 0 0 1 0 0 0 0 4 0 0 0 0 0 0 0 0 0 0 0 0 0 0 0 0 0 0 0 0 0 0 0 0 0 0 0 
Printing Sanity2
Heartbeat CPU 0 instructions: 190000002 cycles: 286736500 heartbeat IPC: 0.573652 cumulative IPC: 0.513506 (Simulation time: 0 hr 13 min 58 sec) 
Heartbeat CPU 0 instructions: 200000000 cycles: 305681741 heartbeat IPC: 0.527837 cumulative IPC: 0.514437 (Simulation time: 0 hr 14 min 47 sec) 
Heartbeat CPU 0 instructions: 210000000 cycles: 329276011 heartbeat IPC: 0.423832 cumulative IPC: 0.507654 (Simulation time: 0 hr 15 min 39 sec) 
*** Reached end of trace for Core: 0 Repeating trace: traces/spec2k17/srv_54.champsimtrace.xz
Heartbeat CPU 0 instructions: 220000000 cycles: 347028484 heartbeat IPC: 0.563302 cumulative IPC: 0.510621 (Simulation time: 0 hr 16 min 30 sec) 
Heartbeat CPU 0 instructions: 230000001 cycles: 363850892 heartbeat IPC: 0.594445 cumulative IPC: 0.514653 (Simulation time: 0 hr 17 min 21 sec) 
Heartbeat CPU 0 instructions: 240000002 cycles: 389445556 heartbeat IPC: 0.390706 cumulative IPC: 0.506201 (Simulation time: 0 hr 18 min 16 sec) 
*** Reached end of trace for Core: 0 Repeating trace: traces/spec2k17/srv_54.champsimtrace.xz
Heartbeat CPU 0 instructions: 250000000 cycles: 406702447 heartbeat IPC: 0.579479 cumulative IPC: 0.509422 (Simulation time: 0 hr 19 min 5 sec) 
Finished CPU 0 instructions: 200000002 cycles: 392601921 cumulative IPC: 0.509422 (Simulation time: 0 hr 19 min 5 sec) 

ChampSim completed all CPUs

Region of Interest Statistics

CPU 0 cumulative IPC: 0.509422 instructions: 200000002 cycles: 392601921
ITLB TOTAL     ACCESS:   33888043  HIT:   33288917  MISS:     599126  HIT %:     98.232  MISS %:    1.76796   MPKI: 2.99563
ITLB LOAD TRANSLATION ACCESS:   33888043  HIT:   33288917  MISS:     599126  HIT %:     98.232  MISS %:    1.76796   MPKI: 2.99563
ITLB PREFETCH  REQUESTED:          0  ISSUED:          0  USEFUL:          0  USELESS:          0
ITLB USEFUL LOAD PREFETCHES:          0 PREFETCH ISSUED TO LOWER LEVEL:          0  ACCURACY: -nan
ITLB TIMELY PREFETCHES:          0 LATE PREFETCHES: 0 DROPPED PREFETCHES: 0
ITLB PREFETCHES SAME FILL-ORIGIN LEVEL: 0 DIFFERENT FILL-ORIGIN LEVEL: 0
ITLB AVERAGE MISS LATENCY: 10.8719 cycles
ITLB RQ	ACCESS:   38519774	FORWARD:          0	MERGED:    4458980	TO_CACHE:   34060794

DTLB TOTAL     ACCESS:   39133446  HIT:   38508431  MISS:     625015  HIT %:    98.4029  MISS %:    1.59714   MPKI: 3.12507
DTLB LOAD TRANSLATION ACCESS:   39133446  HIT:   38508431  MISS:     625015  HIT %:    98.4029  MISS %:    1.59714   MPKI: 3.12507
DTLB PREFETCH  REQUESTED:          0  ISSUED:          0  USEFUL:          0  USELESS:          0
DTLB USEFUL LOAD PREFETCHES:          0 PREFETCH ISSUED TO LOWER LEVEL:          0  ACCURACY: -nan
DTLB TIMELY PREFETCHES:          0 LATE PREFETCHES: 0 DROPPED PREFETCHES: 0
DTLB PREFETCHES SAME FILL-ORIGIN LEVEL: 0 DIFFERENT FILL-ORIGIN LEVEL: 0
DTLB AVERAGE MISS LATENCY: 16.9376 cycles
DTLB RQ	ACCESS:   51360616	FORWARD:          0	MERGED:   12179628	TO_CACHE:   39180988

STLB TOTAL     ACCESS:    2436053  HIT:    2352795  MISS:      83258  HIT %:    96.5823  MISS %:    3.41774   MPKI: 0.41629
STLB LOAD TRANSLATION ACCESS:    1224141  HIT:    1147052  MISS:      77089  HIT %:    93.7026  MISS %:     6.2974   MPKI: 0.385445
STLB TRANSLATION FROM L1D PREFETCHER ACCESS:    1211912  HIT:    1205743  MISS:       6169  HIT %:     99.491  MISS %:    0.50903   MPKI: 0.030845
STLB PREFETCH  REQUESTED:          0  ISSUED:          0  USEFUL:       5442  USELESS:        710
STLB USEFUL LOAD PREFETCHES:       5442 PREFETCH ISSUED TO LOWER LEVEL:          0  ACCURACY: inf
STLB TIMELY PREFETCHES:       5442 LATE PREFETCHES: 60 DROPPED PREFETCHES: 144112
STLB PREFETCHES SAME FILL-ORIGIN LEVEL: 0 DIFFERENT FILL-ORIGIN LEVEL: 0
STLB AVERAGE MISS LATENCY: 75.5553 cycles
STLB RQ	ACCESS:    2707601	FORWARD:          0	MERGED:     121402	TO_CACHE:    2586199

STLB Hit, L1D data hit: 0
STLB Hit, L2C data hit: 0
STLB Hit, LLC data hit: 0
STLB Hit, LLC data miss: 0
STLB STLB hints to L2: 0
L1D TOTAL     ACCESS:   51684695  HIT:   49091553  MISS:    2593142  HIT %:    94.9828  MISS %:    5.01723   MPKI: 12.9657
L1D LOAD      ACCESS:   31275288  HIT:   30206591  MISS:    1068697  HIT %:    96.5829  MISS %:    3.41707   MPKI: 5.34348
L1D RFO       ACCESS:   19191826  HIT:   18664945  MISS:     526881  HIT %:    97.2547  MISS %:    2.74534   MPKI: 2.6344
L1D PREFETCH  ACCESS:    1217581  HIT:     220017  MISS:     997564  HIT %:      18.07  MISS %:      81.93   MPKI: 4.98782
AGUS PREFETCH L1 MISS: 0
L1D PREFETCH  REQUESTED:    3004186  ISSUED:    3003486  USEFUL:     192413  USELESS:     805050
L1D USEFUL LOAD PREFETCHES:     192413 PREFETCH ISSUED TO LOWER LEVEL:    1018685  ACCURACY: 18.8884
L1D TIMELY PREFETCHES:     192413 LATE PREFETCHES: 19017 DROPPED PREFETCHES: 160197
L1D PREFETCHES SAME FILL-ORIGIN LEVEL: 1018685 DIFFERENT FILL-ORIGIN LEVEL: 0
L1D AVERAGE MISS LATENCY: 1.65165e+06 cycles
L1D RQ	ACCESS:   43783168	FORWARD:          0	MERGED:   12105952	TO_CACHE:   31361465
L1D WQ	ACCESS:   20218308	FORWARD:     316152	MERGED:     219157	TO_CACHE:   19999151
L1D PQ	ACCESS:    1520026	FORWARD:          0	MERGED:      36165	TO_CACHE:    1483460

L1D UNIQUE REGIONS ACCESSED: 0
L1D REGIONS CONFLICTS: 0
L1D Cross Page Prefetch Requests: 421572
L1D Same Page Prefetch Requests: 1374776
L1D ROI Sum of L1D PQ occupancy: 27275841
L1D PREFETCHES PUSHED FROM L2C: 0
L1I TOTAL     ACCESS:   37978787  HIT:   34695529  MISS:    3283258  HIT %:     91.355  MISS %:    8.64498   MPKI: 16.4163
L1I LOAD      ACCESS:   37978787  HIT:   34695529  MISS:    3283258  HIT %:     91.355  MISS %:    8.64498   MPKI: 16.4163
L1I PREFETCH  REQUESTED:          0  ISSUED:          0  USEFUL:          0  USELESS:          0
L1I USEFUL LOAD PREFETCHES:          0 PREFETCH ISSUED TO LOWER LEVEL:          0  ACCURACY: -nan
L1I TIMELY PREFETCHES:          0 LATE PREFETCHES: 0 DROPPED PREFETCHES: 0
L1I PREFETCHES SAME FILL-ORIGIN LEVEL: 0 DIFFERENT FILL-ORIGIN LEVEL: 0
L1I AVERAGE MISS LATENCY: 24.2895 cycles
L1I RQ	ACCESS:   60218586	FORWARD:          0	MERGED:   21698812	TO_CACHE:   38519774

BTB TOTAL     ACCESS:   31119944  HIT:   26685030  MISS:    4434914  HIT %:     85.749  MISS %:     14.251   MPKI: 22.1746
BTB BRANCH_DIRECT_JUMP	ACCESS:    3483278  HIT:    3224169  MISS:     259109
BTB BRANCH_INDIRECT	ACCESS:   12132846  HIT:   10375979  MISS:    1756867
BTB BRANCH_CONDITIONAL	ACCESS:    9258792  HIT:    8942003  MISS:     316789
BTB BRANCH_DIRECT_CALL	ACCESS:    2660044  HIT:    2167295  MISS:     492749
BTB BRANCH_INDIRECT_CALL	ACCESS:     462477  HIT:     321593  MISS:     140884
BTB BRANCH_RETURN	ACCESS:    3122507  HIT:    1653991  MISS:    1468516
BTB BRANCH_OTHER ACCESS:          0  HIT:          0  MISS:          0

L2C TOTAL     ACCESS:    7182201  HIT:    4709749  MISS:    2472452  HIT %:    65.5753  MISS %:    34.4247   MPKI: 12.3623
L2C LOAD      ACCESS:    4332890  HIT:    2848385  MISS:    1484505  HIT %:    65.7387  MISS %:    34.2613   MPKI: 7.42252
L2C DATA LOAD MPKI: 2.22841
L2C INSTRUCTION LOAD MPKI: 5.19411
L2C RFO       ACCESS:     524741  HIT:     207166  MISS:     317575  HIT %:    39.4797  MISS %:    60.5203   MPKI: 1.58787
L2C PREFETCH  ACCESS:    1018681  HIT:     473852  MISS:     544829  HIT %:    46.5162  MISS %:    53.4838   MPKI: 2.72414
AGUS PREFETCH L1 MISS: 0
L2C DATA PREFETCH MPKI: 2.72414
L2C INSTRUCTION PREFETCH MPKI: 0
L2C WRITEBACK ACCESS:     955046  HIT:     910029  MISS:      45017  HIT %:    95.2864  MISS %:    4.71359   MPKI: 0.225085
L2C LOAD TRANSLATION ACCESS:     116496  HIT:      50638  MISS:      65858  HIT %:    43.4676  MISS %:    56.5324   MPKI: 0.32929
L2C TRANSLATION FROM L1D PREFETCHER ACCESS:     234347  HIT:     219679  MISS:      14668  HIT %:    93.7409  MISS %:    6.25909   MPKI: 0.07334
L2C PREFETCH  REQUESTED:          0  ISSUED:          0  USEFUL:      42563  USELESS:     516406
L2C USEFUL LOAD PREFETCHES:      42563 PREFETCH ISSUED TO LOWER LEVEL:     544829  ACCURACY: 7.81218
L2C TIMELY PREFETCHES:      42563 LATE PREFETCHES: 0 DROPPED PREFETCHES: 0
L2C PREFETCHES SAME FILL-ORIGIN LEVEL: 0 DIFFERENT FILL-ORIGIN LEVEL: 0
L2C AVERAGE MISS LATENCY: 62.6334 cycles
L2C RQ	ACCESS:    5208559	FORWARD:          0	MERGED:          0	TO_CACHE:    5208475
L2C WQ	ACCESS:     955046	FORWARD:         88	MERGED:          0	TO_CACHE:     955046
L2C PQ	ACCESS:    1018685	FORWARD:          0	MERGED:          0	TO_CACHE:    1018681

L2C Instructions Evicting Data 552667
L2C Translations Evicting Data 43960
L2C Data Evicting Data 730643
L2C Instructions Evicting Instructions 452268
L2C Translations Evicting Instructions 33478
L2C Data Evicting Instructions 535226
L2C Instructions Evicting Translations 33888
L2C Translations Evicting Translations 3088
L2C Data Evicting Translations 42217
L2C Dense regions hint from L2: 0
PSCL5 TOTAL     ACCESS:     227370  HIT:     227370  MISS:          0  HIT %:        100  MISS %:          0   MPKI: 0
PSCL5 LOAD TRANSLATION ACCESS:      77029  HIT:      77029  MISS:          0  HIT %:        100  MISS %:          0   MPKI: 0
PSCL5 TRANSLATION FROM L1D PREFETCHER ACCESS:     150341  HIT:     150341  MISS:          0  HIT %:        100  MISS %:          0   MPKI: 0
PSCL5 PREFETCH  REQUESTED:          0  ISSUED:          0  USEFUL:          0  USELESS:          0
PSCL5 USEFUL LOAD PREFETCHES:          0 PREFETCH ISSUED TO LOWER LEVEL:          0  ACCURACY: -nan
PSCL5 TIMELY PREFETCHES:          0 LATE PREFETCHES: 0 DROPPED PREFETCHES: 0
PSCL5 PREFETCHES SAME FILL-ORIGIN LEVEL: 0 DIFFERENT FILL-ORIGIN LEVEL: 0

PSCL4 TOTAL     ACCESS:     222043  HIT:     221458  MISS:        585  HIT %:    99.7365  MISS %:   0.263462   MPKI: 0.002925
PSCL4 LOAD TRANSLATION ACCESS:      75451  HIT:      74866  MISS:        585  HIT %:    99.2247  MISS %:   0.775338   MPKI: 0.002925
PSCL4 TRANSLATION FROM L1D PREFETCHER ACCESS:     146592  HIT:     146592  MISS:          0  HIT %:        100  MISS %:          0   MPKI: 0
PSCL4 PREFETCH  REQUESTED:          0  ISSUED:          0  USEFUL:          0  USELESS:          0
PSCL4 USEFUL LOAD PREFETCHES:          0 PREFETCH ISSUED TO LOWER LEVEL:          0  ACCURACY: -nan
PSCL4 TIMELY PREFETCHES:          0 LATE PREFETCHES: 0 DROPPED PREFETCHES: 0
PSCL4 PREFETCHES SAME FILL-ORIGIN LEVEL: 0 DIFFERENT FILL-ORIGIN LEVEL: 0

PSCL3 TOTAL     ACCESS:     185041  HIT:     174584  MISS:      10457  HIT %:    94.3488  MISS %:    5.65118   MPKI: 0.052285
PSCL3 LOAD TRANSLATION ACCESS:      71300  HIT:      60843  MISS:      10457  HIT %:    85.3338  MISS %:    14.6662   MPKI: 0.052285
PSCL3 TRANSLATION FROM L1D PREFETCHER ACCESS:     113741  HIT:     113741  MISS:          0  HIT %:        100  MISS %:          0   MPKI: 0
PSCL3 PREFETCH  REQUESTED:          0  ISSUED:          0  USEFUL:          0  USELESS:          0
PSCL3 USEFUL LOAD PREFETCHES:          0 PREFETCH ISSUED TO LOWER LEVEL:          0  ACCURACY: -nan
PSCL3 TIMELY PREFETCHES:          0 LATE PREFETCHES: 0 DROPPED PREFETCHES: 0
PSCL3 PREFETCHES SAME FILL-ORIGIN LEVEL: 0 DIFFERENT FILL-ORIGIN LEVEL: 0

PSCL2 TOTAL     ACCESS:     167285  HIT:     137628  MISS:      29657  HIT %:    82.2716  MISS %:    17.7284   MPKI: 0.148285
PSCL2 LOAD TRANSLATION ACCESS:      77907  HIT:      48250  MISS:      29657  HIT %:    61.9328  MISS %:    38.0672   MPKI: 0.148285
PSCL2 TRANSLATION FROM L1D PREFETCHER ACCESS:      89378  HIT:      89378  MISS:          0  HIT %:        100  MISS %:          0   MPKI: 0
PSCL2 PREFETCH  REQUESTED:          0  ISSUED:          0  USEFUL:          0  USELESS:          0
PSCL2 USEFUL LOAD PREFETCHES:          0 PREFETCH ISSUED TO LOWER LEVEL:          0  ACCURACY: -nan
PSCL2 TIMELY PREFETCHES:          0 LATE PREFETCHES: 0 DROPPED PREFETCHES: 0
PSCL2 PREFETCHES SAME FILL-ORIGIN LEVEL: 0 DIFFERENT FILL-ORIGIN LEVEL: 0

LLC TOTAL     ACCESS:    2951696  HIT:    2485058  MISS:     466638  HIT %:    84.1909  MISS %:    15.8091   MPKI: 2.33319
LLC LOAD      ACCESS:    1484501  HIT:    1344190  MISS:     140311  HIT %:    90.5483  MISS %:    9.45173   MPKI: 0.701555
LLC RFO       ACCESS:     317572  HIT:     176893  MISS:     140679  HIT %:    55.7017  MISS %:    44.2983   MPKI: 0.703395
LLC PREFETCH  ACCESS:     544829  HIT:     376288  MISS:     168541  HIT %:    69.0653  MISS %:    30.9347   MPKI: 0.842705
AGUS PREFETCH L1 MISS: 0
LLC WRITEBACK ACCESS:     524268  HIT:     520491  MISS:       3777  HIT %:    99.2796  MISS %:   0.720433   MPKI: 0.018885
LLC LOAD TRANSLATION ACCESS:      65858  HIT:      54095  MISS:      11763  HIT %:    82.1388  MISS %:    17.8612   MPKI: 0.058815
LLC TRANSLATION FROM L1D PREFETCHER ACCESS:      14668  HIT:      13101  MISS:       1567  HIT %:    89.3169  MISS %:    10.6831   MPKI: 0.007835
LLC PREFETCH  REQUESTED:          0  ISSUED:          0  USEFUL:      11845  USELESS:     155337
LLC USEFUL LOAD PREFETCHES:      11845 PREFETCH ISSUED TO LOWER LEVEL:     168541  ACCURACY: 7.02796
LLC TIMELY PREFETCHES:      11845 LATE PREFETCHES: 0 DROPPED PREFETCHES: 0
LLC PREFETCHES SAME FILL-ORIGIN LEVEL: 0 DIFFERENT FILL-ORIGIN LEVEL: 0
LLC AVERAGE MISS LATENCY: 175.795 cycles
LLC RQ	ACCESS:    1882606	FORWARD:          0	MERGED:          0	TO_CACHE:    1882599
LLC WQ	ACCESS:     524268	FORWARD:          7	MERGED:          0	TO_CACHE:     524268
LLC PQ	ACCESS:     544829	FORWARD:          0	MERGED:          0	TO_CACHE:     544829

LLC Dense regions hint to LLC: 0

RAW hits: 2269923
Loads Generated: 46053091
Loads sent to L1D: 43783168
Stores Generated: 20218328
Stores sent to L1D: 20218308
Major fault: 0 Minor fault: 4930
Allocated PAGES: 4930
CPU 0 L1D 
Prefetch count 1234183 BOP and RL 

DRAM Statistics
 CHANNEL 0
 RQ ROW_BUFFER_HIT:     107935  ROW_BUFFER_MISS:     354916
 DBUS_CONGESTED:        256
 WQ ROW_BUFFER_HIT:      31746  ROW_BUFFER_MISS:     209121  FULL:          0

 AVG_CONGESTED_CYCLE: 4
 All warmup complete: 2
Channel 0 Bank busy for read cycles: 0
Channel 0 Bank busy for write cycles: 0
Channel 0
Rank 0
0banks busy for read cycles: 337454293
0banks busy for write cycles: 93620
1banks busy for read cycles: 19942713
1banks busy for write cycles: 11638386
2banks busy for read cycles: 9262268
2banks busy for write cycles: 4595157
3banks busy for read cycles: 2510345
3banks busy for write cycles: 1926285
4banks busy for read cycles: 833364
4banks busy for write cycles: 940559
5banks busy for read cycles: 300561
5banks busy for write cycles: 511661
6banks busy for read cycles: 201805
6banks busy for write cycles: 293967
7banks busy for read cycles: 214321
7banks busy for write cycles: 254252
8banks busy for read cycles: 672025
8banks busy for write cycles: 956340

CPU 0 Branch Prediction Accuracy: 99.6389% MPKI: 0.649475 Average ROB Occupancy at Mispredict: 28.6518
Branch types
NOT_BRANCH: 164024581 82.0123%
BRANCH_DIRECT_JUMP: 3483278 1.74164%
BRANCH_INDIRECT: 12132846 6.06642%
BRANCH_CONDITIONAL: 14114305 7.05715%
BRANCH_DIRECT_CALL: 2660044 1.33002%
BRANCH_INDIRECT_CALL: 462477 0.231238%
BRANCH_RETURN: 3122507 1.56125%
BRANCH_OTHER: 0 0%

DRAM PAGES: 1048576
Allocated PAGES: 4930
