
*** ChampSim Multicore Out-of-Order Simulator ***

Warmup Instructions: 50000000
Simulation Instructions: 200000000
Number of CPUs: 1
LLC sets: 2048
LLC ways: 16
Off-chip DRAM Size: 4096 MB Channels: 1 Width: 64-bit Data Rate: 6400 MT/s
CPU 0 runs traces/spec2k17/srv_9.champsimtrace.xz
.xz
BTB has LRU replacement policy
ITLB has LRU replacement policy
DTLB has LRU replacement policy
STLB has LRU replacement policy
L1I has LRU replacement policy
CPU 0 l1d next line prefetcher
L1D has LRU replacement policy
Initialize SRRIP state for L2C
Initialize DRRIP state for LLC
Offsets elements: 
Potential of Offsets elements: 
rewards of Offsets elements: 
Printing Sanity1
offset list size1968
Heartbeat CPU 0 instructions: 10000001 cycles: 3611713 heartbeat IPC: 2.76877 cumulative IPC: 2.76877 (Simulation time: 0 hr 0 min 43 sec) 
Offsets elements: 
Potential of Offsets elements: 
rewards of Offsets elements: 0 0 0 0 0 23 24 8 96 0 0 0 0 0 0 0 0 179 0 243 0 0 0 0 0 0 0 0 0 0 0 0 183 0 0 1 0 0 140 228 1 0 249 164 0 17 0 0 0 0 0 0 0 0 0 0 0 0 0 0 0 0 0 0 0 312 0 245 0 0 0 0 0 0 0 0 0 0 0 0 422 0 0 0 0 0 0 0 0 0 0 0 0 0 0 0 0 0 0 0 0 0 0 0 0 0 0 0 0 0 0 0 0 0 0 0 0 0 0 0 0 0 0 0 0 0 0 0 0 0 0 0 0 0 0 0 0 0 0 0 0 0 0 0 0 0 0 0 0 0 0 0 0 0 0 0 0 0 0 0 0 0 0 0 0 0 0 0 0 0 0 0 0 0 0 0 0 0 0 0 0 197 0 0 0 0 0 0 0 0 0 0 0 0 0 834 0 0 0 0 0 0 0 0 0 0 0 0 0 0 0 0 0 0 0 0 0 0 0 0 0 0 0 0 0 0 0 0 0 0 0 0 0 0 0 0 0 445 0 0 0 494 0 0 0 0 0 0 0 0 0 0 0 0 0 0 0 0 0 0 0 0 0 0 0 0 0 0 0 0 0 0 0 0 0 0 0 0 0 0 32 0 0 0 0 0 0 32 0 0 0 0 0 0 0 0 0 0 0 0 0 0 406 0 28 0 0 0 0 0 0 0 0 0 0 0 0 0 0 0 0 0 0 0 0 0 0 0 0 0 0 0 0 0 0 0 0 0 0 0 0 0 0 0 0 0 0 0 0 0 0 0 0 0 0 0 0 0 0 0 0 0 0 0 0 0 0 0 0 0 0 0 0 0 0 0 0 0 0 0 0 0 0 0 0 0 0 0 0 0 0 0 0 0 0 0 0 0 0 0 0 0 0 0 0 0 0 0 0 0 0 0 0 0 0 0 0 0 0 0 0 0 0 0 0 0 0 64 0 0 0 0 0 0 0 0 0 0 0 0 0 0 0 0 0 0 0 0 0 0 0 0 0 0 0 0 0 0 0 0 0 0 0 0 0 0 0 0 0 0 0 0 0 0 0 0 0 0 0 0 0 0 0 0 0 0 0 0 0 0 0 0 0 0 0 0 0 0 0 0 156 0 0 0 0 0 0 0 0 0 0 0 0 0 0 0 0 0 0 0 0 0 0 0 0 0 0 0 0 56 0 0 0 0 0 0 0 0 0 0 0 0 0 0 0 0 0 0 0 0 0 0 0 0 0 0 0 0 0 0 0 0 0 0 0 0 0 0 0 0 0 0 0 0 0 0 0 0 0 0 0 0 0 0 0 0 24 24 0 0 0 0 0 0 833 0 0 0 0 0 0 0 165 0 0 0 0 0 417 0 0 0 0 0 0 0 0 0 0 0 0 0 0 0 0 0 0 0 0 0 0 0 0 0 0 0 0 0 0 0 0 0 214 236 0 0 0 196 0 0 0 0 0 0 0 0 0 0 0 0 0 0 0 0 0 0 0 0 0 0 0 0 0 0 0 0 0 0 0 0 0 0 0 0 0 0 0 0 0 0 0 0 0 0 0 0 0 0 0 0 0 0 0 0 0 0 0 0 0 0 0 0 0 0 0 0 0 0 0 0 0 0 0 0 0 0 0 0 0 0 0 0 0 0 0 0 0 0 0 0 0 0 0 0 0 0 0 0 0 0 0 0 0 0 0 0 0 0 0 0 0 0 36 0 0 0 0 0 0 0 0 0 0 0 0 0 0 0 0 0 0 0 153 0 0 0 0 0 0 0 0 0 0 0 0 0 0 0 0 0 0 0 0 0 0 0 0 0 0 0 0 0 0 0 0 0 0 0 0 0 0 0 0 0 0 0 0 0 0 0 0 0 0 0 0 0 0 0 0 0 0 0 0 0 0 0 0 0 0 0 0 0 0 0 0 0 0 0 0 0 0 0 0 0 0 0 0 0 0 0 0 0 0 0 0 0 0 0 0 0 0 0 0 0 0 0 0 0 0 0 0 0 0 0 0 0 0 0 0 0 0 0 0 0 0 0 0 0 0 0 0 0 0 0 0 0 0 0 0 0 0 0 0 0 0 0 0 0 0 0 0 0 155 0 0 0 0 0 0 0 0 0 0 0 0 0 0 0 0 0 0 0 0 0 0 0 0 0 0 0 0 0 0 0 0 0 0 0 0 0 0 0 0 0 0 0 0 0 0 0 0 0 0 0 0 0 0 0 0 0 0 0 0 0 0 0 0 0 0 0 0 0 0 0 0 0 0 0 0 0 0 0 0 0 0 0 0 0 0 0 0 0 0 0 0 0 0 0 0 0 0 0 0 0 0 0 0 0 0 0 0 0 0 0 0 0 0 0 0 0 0 0 28 0 0 0 0 0 0 0 0 0 157 0 0 0 0 0 0 0 0 0 0 0 0 0 0 0 0 0 0 0 0 0 0 0 0 0 0 0 0 0 0 0 0 0 340 0 0 0 0 0 0 0 0 0 0 0 0 0 0 0 0 0 0 0 0 0 0 0 0 0 0 0 0 0 0 0 0 0 0 0 0 0 0 0 0 0 0 0 0 0 0 0 165 0 0 0 0 0 0 0 0 0 0 0 0 0 0 0 0 0 0 0 0 0 0 0 0 180 0 0 0 0 0 0 0 0 0 0 0 0 0 0 0 0 0 0 0 0 0 0 0 0 0 0 0 0 0 0 0 0 0 0 0 0 0 0 0 0 0 0 0 0 0 0 0 0 0 0 0 0 0 0 0 0 0 0 0 0 0 0 0 0 0 0 0 0 0 16 0 0 0 0 0 0 0 0 0 0 0 0 0 0 0 0 24 0 0 0 0 0 0 0 0 0 0 0 0 0 0 0 0 0 0 0 32 0 0 0 0 0 0 0 0 0 0 0 0 32 0 0 0 0 0 0 12 0 0 12 0 0 0 0 0 0 0 0 0 0 0 0 0 0 0 0 0 0 0 0 0 0 0 0 0 0 0 0 0 0 0 0 0 0 0 0 0 0 0 0 0 0 0 0 0 0 0 0 0 0 0 0 139 0 0 0 0 0 0 0 0 0 0 0 0 0 0 0 0 0 0 0 0 0 0 0 0 0 0 0 0 0 0 0 0 0 0 0 0 0 220 0 0 0 0 0 0 0 0 0 0 0 0 0 0 0 0 0 0 0 0 596 0 0 0 0 0 0 0 0 0 0 0 0 0 0 0 0 0 0 0 0 0 0 0 0 0 0 0 0 0 0 0 0 0 0 0 0 0 0 0 0 0 0 0 0 0 0 0 0 0 0 0 0 0 0 0 0 0 0 0 0 0 0 0 0 0 0 0 0 0 0 0 0 0 171 0 0 0 0 0 0 0 0 0 0 0 0 0 0 117 0 0 0 0 0 0 0 0 0 0 0 0 0 0 0 0 0 0 0 0 0 0 0 0 0 0 16 0 0 0 0 0 0 0 0 191 0 0 0 0 196 0 0 0 0 0 0 180 0 0 0 0 0 0 0 0 0 0 0 0 0 0 0 0 0 0 0 0 0 0 0 0 0 0 0 0 0 0 0 0 0 0 0 0 0 0 0 0 0 0 0 0 0 32 0 0 0 0 0 0 0 0 0 0 0 0 0 0 0 0 0 0 0 0 0 0 0 0 0 0 0 0 0 0 0 0 0 0 0 0 0 0 0 0 0 0 0 0 0 0 0 0 0 0 0 0 0 0 0 0 0 0 0 0 0 0 0 0 0 0 0 0 0 0 0 0 0 0 0 0 0 0 0 0 0 0 0 0 0 0 0 0 0 0 0 0 0 0 0 0 0 0 0 0 0 0 0 0 0 0 0 0 0 0 0 0 0 0 0 0 0 0 0 0 0 0 0 0 0 0 0 0 0 0 0 0 0 0 0 0 0 0 0 0 0 0 0 0 0 0 0 0 0 0 0 0 0 0 0 0 0 0 0 0 0 0 0 0 0 0 0 0 0 0 0 0 0 0 0 0 0 0 0 0 0 0 0 0 0 0 0 0 0 0 0 0 0 0 0 9 0 0 0 0 0 0 0 0 0 0 0 0 0 0 0 0 0 0 0 0 0 0 0 0 0 0 0 0 0 0 0 0 0 0 0 0 0 0 0 0 0 0 0 0 0 0 0 0 0 0 0 0 0 0 0 0 0 0 0 0 0 0 0 0 0 0 0 0 0 0 0 0 0 0 0 0 0 0 0 0 0 0 0 0 0 0 0 0 0 0 0 0 0 0 0 0 0 0 0 0 0 0 0 0 0 0 0 0 0 0 0 0 0 0 0 0 0 0 0 18 0 0 0 0 0 0 0 0 0 0 0 0 0 0 0 0 0 0 0 0 0 0 0 0 0 0 0 0 0 0 0 0 0 0 0 0 0 0 0 143 0 0 0 0 0 0 0 0 0 0 0 0 0 0 0 0 0 
Printing Sanity2
Heartbeat CPU 0 instructions: 20000002 cycles: 7643349 heartbeat IPC: 2.48038 cumulative IPC: 2.61665 (Simulation time: 0 hr 1 min 23 sec) 
Heartbeat CPU 0 instructions: 30000000 cycles: 10604637 heartbeat IPC: 3.37691 cumulative IPC: 2.82895 (Simulation time: 0 hr 1 min 48 sec) 
*** Reached end of trace for Core: 0 Repeating trace: traces/spec2k17/srv_9.champsimtrace.xz
Heartbeat CPU 0 instructions: 40000001 cycles: 14134062 heartbeat IPC: 2.83332 cumulative IPC: 2.83004 (Simulation time: 0 hr 2 min 22 sec) 
Heartbeat CPU 0 instructions: 50000003 cycles: 18064220 heartbeat IPC: 2.54443 cumulative IPC: 2.7679 (Simulation time: 0 hr 2 min 55 sec) 

Warmup complete CPU 0 instructions: 50000003 cycles: 18064220 (Simulation time: 0 hr 2 min 55 sec) 

Heartbeat CPU 0 instructions: 60000001 cycles: 39946016 heartbeat IPC: 0.457001 cumulative IPC: 0.457001 (Simulation time: 0 hr 3 min 37 sec) 
*** Reached end of trace for Core: 0 Repeating trace: traces/spec2k17/srv_9.champsimtrace.xz
Heartbeat CPU 0 instructions: 70000000 cycles: 67085250 heartbeat IPC: 0.36847 cumulative IPC: 0.407988 (Simulation time: 0 hr 4 min 19 sec) 
Heartbeat CPU 0 instructions: 80000001 cycles: 101919386 heartbeat IPC: 0.287075 cumulative IPC: 0.35776 (Simulation time: 0 hr 5 min 5 sec) 
Heartbeat CPU 0 instructions: 90000001 cycles: 124131241 heartbeat IPC: 0.45021 cumulative IPC: 0.37712 (Simulation time: 0 hr 5 min 46 sec) 
*** Reached end of trace for Core: 0 Repeating trace: traces/spec2k17/srv_9.champsimtrace.xz
Heartbeat CPU 0 instructions: 100000003 cycles: 149824613 heartbeat IPC: 0.389206 cumulative IPC: 0.379477 (Simulation time: 0 hr 6 min 26 sec) 
Heartbeat CPU 0 instructions: 110000000 cycles: 185810876 heartbeat IPC: 0.277884 cumulative IPC: 0.357682 (Simulation time: 0 hr 7 min 12 sec) 
Heartbeat CPU 0 instructions: 120000001 cycles: 208055655 heartbeat IPC: 0.449544 cumulative IPC: 0.368438 (Simulation time: 0 hr 7 min 53 sec) 
*** Reached end of trace for Core: 0 Repeating trace: traces/spec2k17/srv_9.champsimtrace.xz
Heartbeat CPU 0 instructions: 130000003 cycles: 232333550 heartbeat IPC: 0.411897 cumulative IPC: 0.373362 (Simulation time: 0 hr 8 min 32 sec) 
Heartbeat CPU 0 instructions: 140000001 cycles: 269168607 heartbeat IPC: 0.27148 cumulative IPC: 0.358417 (Simulation time: 0 hr 9 min 18 sec) 
Heartbeat CPU 0 instructions: 150000002 cycles: 292076478 heartbeat IPC: 0.436531 cumulative IPC: 0.364947 (Simulation time: 0 hr 9 min 58 sec) 
*** Reached end of trace for Core: 0 Repeating trace: traces/spec2k17/srv_9.champsimtrace.xz
Heartbeat CPU 0 instructions: 160000001 cycles: 314995541 heartbeat IPC: 0.436318 cumulative IPC: 0.370456 (Simulation time: 0 hr 10 min 34 sec) 
Heartbeat CPU 0 instructions: 170000000 cycles: 352331143 heartbeat IPC: 0.267841 cumulative IPC: 0.358995 (Simulation time: 0 hr 11 min 21 sec) 
Heartbeat CPU 0 instructions: 180000002 cycles: 375854454 heartbeat IPC: 0.42511 cumulative IPC: 0.363341 (Simulation time: 0 hr 11 min 59 sec) 
*** Reached end of trace for Core: 0 Repeating trace: traces/spec2k17/srv_9.champsimtrace.xz
Heartbeat CPU 0 instructions: 190000000 cycles: 397212205 heartbeat IPC: 0.468214 cumulative IPC: 0.369249 (Simulation time: 0 hr 12 min 35 sec) 
Heartbeat CPU 0 instructions: 200000000 cycles: 434083176 heartbeat IPC: 0.271216 cumulative IPC: 0.36056 (Simulation time: 0 hr 13 min 18 sec) 
Heartbeat CPU 0 instructions: 210000000 cycles: 459163286 heartbeat IPC: 0.398722 cumulative IPC: 0.36273 (Simulation time: 0 hr 13 min 51 sec) 
*** Reached end of trace for Core: 0 Repeating trace: traces/spec2k17/srv_9.champsimtrace.xz
Heartbeat CPU 0 instructions: 220000000 cycles: 477432579 heartbeat IPC: 0.547367 cumulative IPC: 0.370073 (Simulation time: 0 hr 14 min 20 sec) 
Heartbeat CPU 0 instructions: 230000000 cycles: 516693582 heartbeat IPC: 0.254706 cumulative IPC: 0.36099 (Simulation time: 0 hr 14 min 58 sec) 
Heartbeat CPU 0 instructions: 240000000 cycles: 542896195 heartbeat IPC: 0.381641 cumulative IPC: 0.362021 (Simulation time: 0 hr 15 min 30 sec) 
*** Reached end of trace for Core: 0 Repeating trace: traces/spec2k17/srv_9.champsimtrace.xz
Heartbeat CPU 0 instructions: 250000003 cycles: 560205189 heartbeat IPC: 0.577735 cumulative IPC: 0.368908 (Simulation time: 0 hr 15 min 59 sec) 
Finished CPU 0 instructions: 200000000 cycles: 542140969 cumulative IPC: 0.368908 (Simulation time: 0 hr 15 min 59 sec) 

ChampSim completed all CPUs

Region of Interest Statistics

CPU 0 cumulative IPC: 0.368908 instructions: 200000000 cycles: 542140969
ITLB TOTAL     ACCESS:   41235222  HIT:   41095110  MISS:     140112  HIT %:    99.6602  MISS %:   0.339787   MPKI: 0.70056
ITLB LOAD TRANSLATION ACCESS:   41235222  HIT:   41095110  MISS:     140112  HIT %:    99.6602  MISS %:   0.339787   MPKI: 0.70056
ITLB PREFETCH  REQUESTED:          0  ISSUED:          0  USEFUL:          0  USELESS:          0
ITLB USEFUL LOAD PREFETCHES:          0 PREFETCH ISSUED TO LOWER LEVEL:          0  ACCURACY: -nan
ITLB TIMELY PREFETCHES:          0 LATE PREFETCHES: 0 DROPPED PREFETCHES: 0
ITLB PREFETCHES SAME FILL-ORIGIN LEVEL: 0 DIFFERENT FILL-ORIGIN LEVEL: 0
ITLB AVERAGE MISS LATENCY: 20.387 cycles
ITLB RQ	ACCESS:   44807579	FORWARD:          0	MERGED:    3533700	TO_CACHE:   41273879

DTLB TOTAL     ACCESS:   43507683  HIT:   34997828  MISS:    8509855  HIT %:    80.4406  MISS %:    19.5594   MPKI: 42.5493
DTLB LOAD TRANSLATION ACCESS:   43507683  HIT:   34997828  MISS:    8509855  HIT %:    80.4406  MISS %:    19.5594   MPKI: 42.5493
DTLB PREFETCH  REQUESTED:          0  ISSUED:          0  USEFUL:          0  USELESS:          0
DTLB USEFUL LOAD PREFETCHES:          0 PREFETCH ISSUED TO LOWER LEVEL:          0  ACCURACY: -nan
DTLB TIMELY PREFETCHES:          0 LATE PREFETCHES: 0 DROPPED PREFETCHES: 0
DTLB PREFETCHES SAME FILL-ORIGIN LEVEL: 0 DIFFERENT FILL-ORIGIN LEVEL: 0
DTLB AVERAGE MISS LATENCY: 9.85161 cycles
DTLB RQ	ACCESS:   56802813	FORWARD:          0	MERGED:   13180243	TO_CACHE:   43622570

STLB TOTAL     ACCESS:   10812501  HIT:   10712919  MISS:      99582  HIT %:     99.079  MISS %:    0.92099   MPKI: 0.49791
STLB LOAD TRANSLATION ACCESS:    8649967  HIT:    8564779  MISS:      85188  HIT %:    99.0152  MISS %:   0.984836   MPKI: 0.42594
STLB TRANSLATION FROM L1D PREFETCHER ACCESS:    2162534  HIT:    2148140  MISS:      14394  HIT %:    99.3344  MISS %:   0.665608   MPKI: 0.07197
STLB PREFETCH  REQUESTED:          0  ISSUED:          0  USEFUL:      13895  USELESS:        499
STLB USEFUL LOAD PREFETCHES:      13895 PREFETCH ISSUED TO LOWER LEVEL:          0  ACCURACY: inf
STLB TIMELY PREFETCHES:      13895 LATE PREFETCHES: 293 DROPPED PREFETCHES: 84995
STLB PREFETCHES SAME FILL-ORIGIN LEVEL: 0 DIFFERENT FILL-ORIGIN LEVEL: 0
STLB AVERAGE MISS LATENCY: 5257.73 cycles
STLB RQ	ACCESS:   13261762	FORWARD:          0	MERGED:    2361099	TO_CACHE:   10900663

STLB Hit, L1D data hit: 0
STLB Hit, L2C data hit: 0
STLB Hit, LLC data hit: 0
STLB Hit, LLC data miss: 0
STLB STLB hints to L2: 0
L1D TOTAL     ACCESS:   59299125  HIT:   44141386  MISS:   15157739  HIT %:    74.4385  MISS %:    25.5615   MPKI: 75.7887
L1D LOAD      ACCESS:   41323536  HIT:   28510431  MISS:   12813105  HIT %:    68.9932  MISS %:    31.0068   MPKI: 64.0655
L1D RFO       ACCESS:   14573429  HIT:   14353272  MISS:     220157  HIT %:    98.4893  MISS %:    1.51067   MPKI: 1.10078
L1D PREFETCH  ACCESS:    3402160  HIT:    1277683  MISS:    2124477  HIT %:    37.5551  MISS %:    62.4449   MPKI: 10.6224
AGUS PREFETCH L1 MISS: 0
L1D PREFETCH  REQUESTED:    9471514  ISSUED:    9468598  USEFUL:     487745  USELESS:    1636975
L1D USEFUL LOAD PREFETCHES:     487745 PREFETCH ISSUED TO LOWER LEVEL:    2186258  ACCURACY: 22.3096
L1D TIMELY PREFETCHES:     487745 LATE PREFETCHES: 61403 DROPPED PREFETCHES: 142342
L1D PREFETCHES SAME FILL-ORIGIN LEVEL: 2186258 DIFFERENT FILL-ORIGIN LEVEL: 0
L1D AVERAGE MISS LATENCY: 1.15398e+06 cycles
L1D RQ	ACCESS:   59055972	FORWARD:          0	MERGED:   16968810	TO_CACHE:   41979139
L1D WQ	ACCESS:   18280129	FORWARD:     113648	MERGED:    3456455	TO_CACHE:   14823674
L1D PQ	ACCESS:    4856803	FORWARD:          0	MERGED:     239383	TO_CACHE:    4611795

L1D UNIQUE REGIONS ACCESSED: 0
L1D REGIONS CONFLICTS: 0
L1D Cross Page Prefetch Requests: 3276789
L1D Same Page Prefetch Requests: 3020112
L1D ROI Sum of L1D PQ occupancy: 69321257
L1D PREFETCHES PUSHED FROM L2C: 0
L1I TOTAL     ACCESS:   44564478  HIT:   43871969  MISS:     692509  HIT %:    98.4461  MISS %:    1.55395   MPKI: 3.46254
L1I LOAD      ACCESS:   44564478  HIT:   43871969  MISS:     692509  HIT %:    98.4461  MISS %:    1.55395   MPKI: 3.46254
L1I PREFETCH  REQUESTED:          0  ISSUED:          0  USEFUL:          0  USELESS:          0
L1I USEFUL LOAD PREFETCHES:          0 PREFETCH ISSUED TO LOWER LEVEL:          0  ACCURACY: -nan
L1I TIMELY PREFETCHES:          0 LATE PREFETCHES: 0 DROPPED PREFETCHES: 0
L1I PREFETCHES SAME FILL-ORIGIN LEVEL: 0 DIFFERENT FILL-ORIGIN LEVEL: 0
L1I AVERAGE MISS LATENCY: 52.8406 cycles
L1I RQ	ACCESS:   72858763	FORWARD:          0	MERGED:   28051184	TO_CACHE:   44807579

BTB TOTAL     ACCESS:   41124960  HIT:   38918352  MISS:    2206608  HIT %:    94.6344  MISS %:    5.36562   MPKI: 11.033
BTB BRANCH_DIRECT_JUMP	ACCESS:    1846529  HIT:    1816856  MISS:      29673
BTB BRANCH_INDIRECT	ACCESS:   24302767  HIT:   22906219  MISS:    1396548
BTB BRANCH_CONDITIONAL	ACCESS:    9638325  HIT:    9593200  MISS:      45125
BTB BRANCH_DIRECT_CALL	ACCESS:    2098552  HIT:    2045391  MISS:      53161
BTB BRANCH_INDIRECT_CALL	ACCESS:     567787  HIT:     550197  MISS:      17590
BTB BRANCH_RETURN	ACCESS:    2671000  HIT:    2006489  MISS:     664511
BTB BRANCH_OTHER ACCESS:          0  HIT:          0  MISS:          0

L2C TOTAL     ACCESS:   16431557  HIT:   14392069  MISS:    2039488  HIT %:     87.588  MISS %:     12.412   MPKI: 10.1974
L2C LOAD      ACCESS:   13444206  HIT:   12427474  MISS:    1016732  HIT %:    92.4374  MISS %:     7.5626   MPKI: 5.08366
L2C DATA LOAD MPKI: 3.6837
L2C INSTRUCTION LOAD MPKI: 1.39996
L2C RFO       ACCESS:     219776  HIT:     154425  MISS:      65351  HIT %:    70.2647  MISS %:    29.7353   MPKI: 0.326755
L2C PREFETCH  ACCESS:    2186258  HIT:    1287493  MISS:     898765  HIT %:    58.8903  MISS %:    41.1097   MPKI: 4.49383
AGUS PREFETCH L1 MISS: 0
L2C DATA PREFETCH MPKI: 4.49383
L2C INSTRUCTION PREFETCH MPKI: 0
L2C WRITEBACK ACCESS:     366838  HIT:     361407  MISS:       5431  HIT %:    98.5195  MISS %:    1.48049   MPKI: 0.027155
L2C LOAD TRANSLATION ACCESS:     105177  HIT:      56415  MISS:      48762  HIT %:    53.6382  MISS %:    46.3618   MPKI: 0.24381
L2C TRANSLATION FROM L1D PREFETCHER ACCESS:     109302  HIT:     104855  MISS:       4447  HIT %:    95.9315  MISS %:    4.06854   MPKI: 0.022235
L2C PREFETCH  REQUESTED:          0  ISSUED:          0  USEFUL:      35539  USELESS:     866958
L2C USEFUL LOAD PREFETCHES:      35539 PREFETCH ISSUED TO LOWER LEVEL:     898765  ACCURACY: 3.9542
L2C TIMELY PREFETCHES:      35539 LATE PREFETCHES: 0 DROPPED PREFETCHES: 0
L2C PREFETCHES SAME FILL-ORIGIN LEVEL: 0 DIFFERENT FILL-ORIGIN LEVEL: 0
L2C AVERAGE MISS LATENCY: 130.345 cycles
L2C RQ	ACCESS:   13878469	FORWARD:          0	MERGED:          0	TO_CACHE:   13878461
L2C WQ	ACCESS:     366838	FORWARD:          8	MERGED:          0	TO_CACHE:     366838
L2C PQ	ACCESS:    2186258	FORWARD:          0	MERGED:          0	TO_CACHE:    2186258

L2C Instructions Evicting Data 190266
L2C Translations Evicting Data 38472
L2C Data Evicting Data 1472071
L2C Instructions Evicting Instructions 77264
L2C Translations Evicting Instructions 12594
L2C Data Evicting Instructions 190313
L2C Instructions Evicting Translations 12463
L2C Translations Evicting Translations 2143
L2C Data Evicting Translations 38471
L2C Dense regions hint from L2: 0
PSCL5 TOTAL     ACCESS:     184577  HIT:     184577  MISS:          0  HIT %:        100  MISS %:          0   MPKI: 0
PSCL5 LOAD TRANSLATION ACCESS:      84895  HIT:      84895  MISS:          0  HIT %:        100  MISS %:          0   MPKI: 0
PSCL5 TRANSLATION FROM L1D PREFETCHER ACCESS:      99682  HIT:      99682  MISS:          0  HIT %:        100  MISS %:          0   MPKI: 0
PSCL5 PREFETCH  REQUESTED:          0  ISSUED:          0  USEFUL:          0  USELESS:          0
PSCL5 USEFUL LOAD PREFETCHES:          0 PREFETCH ISSUED TO LOWER LEVEL:          0  ACCURACY: -nan
PSCL5 TIMELY PREFETCHES:          0 LATE PREFETCHES: 0 DROPPED PREFETCHES: 0
PSCL5 PREFETCHES SAME FILL-ORIGIN LEVEL: 0 DIFFERENT FILL-ORIGIN LEVEL: 0

PSCL4 TOTAL     ACCESS:     174875  HIT:     174777  MISS:         98  HIT %:     99.944  MISS %:    0.05604   MPKI: 0.00049
PSCL4 LOAD TRANSLATION ACCESS:      75943  HIT:      75845  MISS:         98  HIT %:     99.871  MISS %:   0.129044   MPKI: 0.00049
PSCL4 TRANSLATION FROM L1D PREFETCHER ACCESS:      98932  HIT:      98932  MISS:          0  HIT %:        100  MISS %:          0   MPKI: 0
PSCL4 PREFETCH  REQUESTED:          0  ISSUED:          0  USEFUL:          0  USELESS:          0
PSCL4 USEFUL LOAD PREFETCHES:          0 PREFETCH ISSUED TO LOWER LEVEL:          0  ACCURACY: -nan
PSCL4 TIMELY PREFETCHES:          0 LATE PREFETCHES: 0 DROPPED PREFETCHES: 0
PSCL4 PREFETCHES SAME FILL-ORIGIN LEVEL: 0 DIFFERENT FILL-ORIGIN LEVEL: 0

PSCL3 TOTAL     ACCESS:     184307  HIT:     184077  MISS:        230  HIT %:    99.8752  MISS %:   0.124792   MPKI: 0.00115
PSCL3 LOAD TRANSLATION ACCESS:      84718  HIT:      84488  MISS:        230  HIT %:    99.7285  MISS %:   0.271489   MPKI: 0.00115
PSCL3 TRANSLATION FROM L1D PREFETCHER ACCESS:      99589  HIT:      99589  MISS:          0  HIT %:        100  MISS %:          0   MPKI: 0
PSCL3 PREFETCH  REQUESTED:          0  ISSUED:          0  USEFUL:          0  USELESS:          0
PSCL3 USEFUL LOAD PREFETCHES:          0 PREFETCH ISSUED TO LOWER LEVEL:          0  ACCURACY: -nan
PSCL3 TIMELY PREFETCHES:          0 LATE PREFETCHES: 0 DROPPED PREFETCHES: 0
PSCL3 PREFETCHES SAME FILL-ORIGIN LEVEL: 0 DIFFERENT FILL-ORIGIN LEVEL: 0

PSCL2 TOTAL     ACCESS:     174960  HIT:     154631  MISS:      20329  HIT %:    88.3808  MISS %:    11.6192   MPKI: 0.101645
PSCL2 LOAD TRANSLATION ACCESS:      85267  HIT:      64938  MISS:      20329  HIT %:    76.1584  MISS %:    23.8416   MPKI: 0.101645
PSCL2 TRANSLATION FROM L1D PREFETCHER ACCESS:      89693  HIT:      89693  MISS:          0  HIT %:        100  MISS %:          0   MPKI: 0
PSCL2 PREFETCH  REQUESTED:          0  ISSUED:          0  USEFUL:          0  USELESS:          0
PSCL2 USEFUL LOAD PREFETCHES:          0 PREFETCH ISSUED TO LOWER LEVEL:          0  ACCURACY: -nan
PSCL2 TIMELY PREFETCHES:          0 LATE PREFETCHES: 0 DROPPED PREFETCHES: 0
PSCL2 PREFETCHES SAME FILL-ORIGIN LEVEL: 0 DIFFERENT FILL-ORIGIN LEVEL: 0

LLC TOTAL     ACCESS:    2213906  HIT:     606582  MISS:    1607324  HIT %:    27.3987  MISS %:    72.6013   MPKI: 8.03662
LLC LOAD      ACCESS:    1016732  HIT:     260739  MISS:     755993  HIT %:    25.6448  MISS %:    74.3552   MPKI: 3.77996
LLC RFO       ACCESS:      65351  HIT:       8030  MISS:      57321  HIT %:    12.2875  MISS %:    87.7125   MPKI: 0.286605
LLC PREFETCH  ACCESS:     898765  HIT:     162290  MISS:     736475  HIT %:     18.057  MISS %:     81.943   MPKI: 3.68237
AGUS PREFETCH L1 MISS: 0
LLC WRITEBACK ACCESS:     179849  HIT:     154420  MISS:      25429  HIT %:    85.8609  MISS %:    14.1391   MPKI: 0.127145
LLC LOAD TRANSLATION ACCESS:      48762  HIT:      19400  MISS:      29362  HIT %:    39.7851  MISS %:    60.2149   MPKI: 0.14681
LLC TRANSLATION FROM L1D PREFETCHER ACCESS:       4447  HIT:       1703  MISS:       2744  HIT %:    38.2955  MISS %:    61.7045   MPKI: 0.01372
LLC PREFETCH  REQUESTED:          0  ISSUED:          0  USEFUL:      29489  USELESS:     713680
LLC USEFUL LOAD PREFETCHES:      29489 PREFETCH ISSUED TO LOWER LEVEL:     736475  ACCURACY: 4.00407
LLC TIMELY PREFETCHES:      29489 LATE PREFETCHES: 0 DROPPED PREFETCHES: 0
LLC PREFETCHES SAME FILL-ORIGIN LEVEL: 0 DIFFERENT FILL-ORIGIN LEVEL: 0
LLC AVERAGE MISS LATENCY: 127.426 cycles
LLC RQ	ACCESS:    1135292	FORWARD:          0	MERGED:          0	TO_CACHE:    1135292
LLC WQ	ACCESS:     179849	FORWARD:          0	MERGED:          0	TO_CACHE:     179849
LLC PQ	ACCESS:     898765	FORWARD:          0	MERGED:          0	TO_CACHE:     898765

LLC Dense regions hint to LLC: 0

RAW hits: 7020048
Loads Generated: 66076024
Loads sent to L1D: 59055972
Stores Generated: 18280128
Stores sent to L1D: 18280129
Major fault: 0 Minor fault: 9438
Allocated PAGES: 9438
CPU 0 L1D 
Prefetch count 2960785 BOP and RL 

DRAM Statistics
 CHANNEL 0
 RQ ROW_BUFFER_HIT:     822122  ROW_BUFFER_MISS:     759768
 DBUS_CONGESTED:        787
 WQ ROW_BUFFER_HIT:      63572  ROW_BUFFER_MISS:      91442  FULL:          0

 AVG_CONGESTED_CYCLE: 4
 All warmup complete: 2
Channel 0 Bank busy for read cycles: 0
Channel 0 Bank busy for write cycles: 0
Channel 0
Rank 0
0banks busy for read cycles: 436262881
0banks busy for write cycles: 50530
1banks busy for read cycles: 47117526
1banks busy for write cycles: 9008311
2banks busy for read cycles: 23375658
2banks busy for write cycles: 3075432
3banks busy for read cycles: 7833542
3banks busy for write cycles: 1550775
4banks busy for read cycles: 4999570
4banks busy for write cycles: 996645
5banks busy for read cycles: 1124122
5banks busy for write cycles: 692443
6banks busy for read cycles: 1501080
6banks busy for write cycles: 631484
7banks busy for read cycles: 207120
7banks busy for write cycles: 963120
8banks busy for read cycles: 208667
8banks busy for write cycles: 2542064

CPU 0 Branch Prediction Accuracy: 99.6511% MPKI: 0.819515 Average ROB Occupancy at Mispredict: 28.0795
Branch types
NOT_BRANCH: 153025148 76.5126%
BRANCH_DIRECT_JUMP: 1846529 0.923265%
BRANCH_INDIRECT: 24302767 12.1514%
BRANCH_CONDITIONAL: 15487960 7.74398%
BRANCH_DIRECT_CALL: 2098552 1.04928%
BRANCH_INDIRECT_CALL: 567787 0.283894%
BRANCH_RETURN: 2671000 1.3355%
BRANCH_OTHER: 0 0%

DRAM PAGES: 1048576
Allocated PAGES: 9438
