
*** ChampSim Multicore Out-of-Order Simulator ***

Warmup Instructions: 50000000
Simulation Instructions: 200000000
Number of CPUs: 1
LLC sets: 2048
LLC ways: 16
Off-chip DRAM Size: 4096 MB Channels: 1 Width: 64-bit Data Rate: 6400 MT/s
CPU 0 runs traces/spec2k17/srv_57.champsimtrace.xz
.xz
BTB has LRU replacement policy
ITLB has LRU replacement policy
DTLB has LRU replacement policy
STLB has LRU replacement policy
L1I has LRU replacement policy
CPU 0 l1d next line prefetcher
L1D has LRU replacement policy
Initialize SRRIP state for L2C
Initialize DRRIP state for LLC
Offsets elements: 
Potential of Offsets elements: 
rewards of Offsets elements: 
Printing Sanity1
offset list size1534
Heartbeat CPU 0 instructions: 10000001 cycles: 2835592 heartbeat IPC: 3.5266 cumulative IPC: 3.5266 (Simulation time: 0 hr 0 min 41 sec) 
Heartbeat CPU 0 instructions: 20000001 cycles: 5629262 heartbeat IPC: 3.57952 cumulative IPC: 3.55286 (Simulation time: 0 hr 1 min 18 sec) 
Heartbeat CPU 0 instructions: 30000002 cycles: 8438905 heartbeat IPC: 3.55917 cumulative IPC: 3.55496 (Simulation time: 0 hr 1 min 58 sec) 
*** Reached end of trace for Core: 0 Repeating trace: traces/spec2k17/srv_57.champsimtrace.xz
Heartbeat CPU 0 instructions: 40000002 cycles: 11265131 heartbeat IPC: 3.53829 cumulative IPC: 3.55078 (Simulation time: 0 hr 2 min 38 sec) 
Heartbeat CPU 0 instructions: 50000002 cycles: 14049423 heartbeat IPC: 3.59158 cumulative IPC: 3.55887 (Simulation time: 0 hr 3 min 16 sec) 

Warmup complete CPU 0 instructions: 50000002 cycles: 14049423 (Simulation time: 0 hr 3 min 16 sec) 

Heartbeat CPU 0 instructions: 60000001 cycles: 30683599 heartbeat IPC: 0.601172 cumulative IPC: 0.601172 (Simulation time: 0 hr 4 min 6 sec) 
*** Reached end of trace for Core: 0 Repeating trace: traces/spec2k17/srv_57.champsimtrace.xz
Heartbeat CPU 0 instructions: 70000000 cycles: 47320210 heartbeat IPC: 0.601084 cumulative IPC: 0.601128 (Simulation time: 0 hr 4 min 59 sec) 
Heartbeat CPU 0 instructions: 80000001 cycles: 64580237 heartbeat IPC: 0.579373 cumulative IPC: 0.593697 (Simulation time: 0 hr 5 min 49 sec) 
Heartbeat CPU 0 instructions: 90000000 cycles: 81198052 heartbeat IPC: 0.601764 cumulative IPC: 0.595693 (Simulation time: 0 hr 6 min 45 sec) 
*** Reached end of trace for Core: 0 Repeating trace: traces/spec2k17/srv_57.champsimtrace.xz
Heartbeat CPU 0 instructions: 100000002 cycles: 97578112 heartbeat IPC: 0.610498 cumulative IPC: 0.598597 (Simulation time: 0 hr 7 min 35 sec) 
Heartbeat CPU 0 instructions: 110000000 cycles: 114965677 heartbeat IPC: 0.575124 cumulative IPC: 0.594552 (Simulation time: 0 hr 8 min 23 sec) 
Heartbeat CPU 0 instructions: 120000003 cycles: 131615984 heartbeat IPC: 0.60059 cumulative IPC: 0.595407 (Simulation time: 0 hr 9 min 17 sec) 
*** Reached end of trace for Core: 0 Repeating trace: traces/spec2k17/srv_57.champsimtrace.xz
Heartbeat CPU 0 instructions: 130000003 cycles: 148211597 heartbeat IPC: 0.602569 cumulative IPC: 0.596293 (Simulation time: 0 hr 10 min 6 sec) 
Heartbeat CPU 0 instructions: 140000000 cycles: 165323121 heartbeat IPC: 0.584401 cumulative IPC: 0.594948 (Simulation time: 0 hr 10 min 49 sec) 
Heartbeat CPU 0 instructions: 150000000 cycles: 181901209 heartbeat IPC: 0.603206 cumulative IPC: 0.595764 (Simulation time: 0 hr 11 min 43 sec) 
*** Reached end of trace for Core: 0 Repeating trace: traces/spec2k17/srv_57.champsimtrace.xz
Heartbeat CPU 0 instructions: 160000001 cycles: 198773548 heartbeat IPC: 0.592686 cumulative IPC: 0.595483 (Simulation time: 0 hr 12 min 33 sec) 
Offsets elements: 
Potential of Offsets elements: 
rewards of Offsets elements: 0 0 0 0 0 0 0 0 0 0 0 0 0 448 0 0 31 0 0 1 0 7 0 0 0 0 0 3 2 0 0 0 0 0 0 0 0 0 0 0 3 0 0 161 0 0 0 1 59 0 156 0 0 0 0 0 0 0 0 0 0 0 8 31 13 17 0 0 0 0 68 6 0 0 0 0 17 0 0 0 0 0 0 22 8 7 7 12 0 0 0 0 0 0 46 0 30 30 0 0 0 77 82 47 112 0 0 92 98 0 0 0 0 0 0 18 36 0 0 14 21 0 106 0 0 72 0 23 22 237 95 0 19 11 0 0 0 10 0 33 0 0 0 0 57 0 0 0 0 0 0 4 158 35 4 2 4 0 0 0 0 0 0 0 2 0 6 0 0 0 0 10 0 0 0 0 0 0 11 0 12 0 0 0 0 5 0 0 0 8 150 5 0 1 2 0 0 0 0 0 0 0 0 0 0 0 3 1 0 0 6 0 0 8 0 0 0 0 120 0 68 14 0 0 0 116 38 0 0 0 0 0 0 0 0 0 9 0 0 0 0 18 0 0 0 19 42 0 0 0 0 0 5 7 9 0 0 3 0 0 0 0 0 0 0 59 4 0 0 0 0 0 7 16 13 24 0 0 2 11 2 0 0 13 15 0 0 0 0 57 2 4 21 17 15 0 0 0 2 0 0 8 4 0 0 0 0 0 0 0 1 0 31 0 0 1 0 3 0 0 0 3 18 4 1 1 0 0 0 0 0 0 0 0 0 0 0 0 0 0 0 0 4 0 0 0 7 0 0 0 0 0 0 0 1 0 0 0 0 0 0 0 0 0 0 0 0 0 0 0 0 0 2 6 90 0 4 3 2 19 14 0 0 0 0 0 0 0 0 3 0 2 7 0 0 0 0 1 0 0 0 0 0 0 0 0 0 0 0 0 0 0 0 0 0 0 0 0 0 0 0 0 0 0 0 0 0 0 0 74 0 0 1 2 0 0 0 0 0 0 0 0 0 0 37 0 0 0 8 0 40 33 11 0 98 18 0 0 0 0 0 111 0 0 0 0 0 0 0 1 0 0 0 0 3 0 0 0 0 0 0 0 0 0 2 0 0 0 0 0 0 0 6 0 0 0 0 0 0 10 0 0 3 1 6 1 0 0 0 0 0 0 0 0 0 0 12 0 3 238 1 0 0 36 0 41 0 0 0 0 0 20 0 3 0 0 0 0 0 0 14 0 0 0 4 0 23 0 0 3 0 0 0 0 0 3 0 0 0 0 0 0 0 0 0 5 2 0 0 0 0 0 0 0 0 0 0 0 0 0 0 0 0 0 0 0 0 0 0 0 0 0 38 0 0 0 24 0 18 0 262 0 0 0 0 0 0 3 203 0 0 0 7 5 0 0 2 3 0 0 0 0 0 5 0 0 0 0 0 0 0 0 0 0 0 0 36 41 0 0 0 0 0 0 0 0 0 0 0 0 0 0 0 0 0 9 0 0 0 0 0 0 0 0 0 0 14 0 0 0 0 0 0 0 0 0 0 0 0 0 0 0 0 0 0 6 6 0 0 32 47 0 23 0 0 0 0 41 0 0 0 0 0 0 0 4 0 0 0 6 0 9 2 0 0 0 0 0 0 0 0 0 20 8 3 0 0 0 0 0 8 7 33 23 0 0 0 0 0 0 4 0 93 0 0 0 0 0 37 0 0 0 361 68 0 0 0 2 0 0 0 0 0 0 0 0 0 0 0 0 0 0 0 0 0 0 0 0 0 0 0 0 0 0 0 7 0 0 0 0 0 4 0 0 0 7 0 0 0 0 0 0 0 0 69 7 3 0 0 0 0 0 0 0 26 0 0 0 0 4 0 0 0 20 26 16 64 0 0 0 0 0 26 0 0 0 0 0 0 0 0 2 0 0 0 0 0 0 4 10 0 0 0 0 0 0 0 161 0 0 0 0 4 0 0 11 15 0 0 0 0 0 0 0 0 0 1 0 0 0 11 0 0 0 0 0 0 0 5 0 25 0 2 5 0 0 0 0 0 0 0 0 0 0 97 0 0 0 0 0 0 0 0 0 0 20 0 0 4 0 0 0 0 0 0 0 0 0 0 0 0 0 0 0 0 0 0 0 0 2 0 0 0 0 0 0 0 0 128 0 0 0 0 0 0 0 0 0 0 0 0 0 0 6 0 0 0 0 0 0 0 0 0 0 0 8 0 0 0 0 12 0 0 24 0 0 0 0 0 0 0 4 0 0 0 0 0 0 21 0 0 0 0 0 0 0 0 0 0 49 0 29 0 0 0 0 0 0 0 0 0 0 0 0 1 2 0 0 0 30 19 16 0 0 0 0 0 0 0 0 0 0 52 0 1 0 1 15 10 0 0 0 0 0 0 2 0 0 0 0 0 0 7 0 0 4 0 0 0 0 0 8 1 0 2 0 0 0 0 0 0 0 0 0 0 0 0 0 0 0 91 0 0 1 0 0 0 2 0 0 0 0 0 0 0 0 0 0 0 0 16 3 0 0 0 15 0 0 0 1 7 0 0 0 0 0 0 0 0 0 0 0 0 0 0 0 0 0 0 0 0 0 0 0 0 1 0 0 0 0 0 6 0 0 0 0 0 0 0 0 16 0 0 37 8 0 0 0 0 0 0 0 0 0 0 0 0 0 0 27 46 0 0 0 0 0 0 0 0 0 0 0 0 0 0 0 0 23 0 0 0 5 0 0 0 0 0 0 0 0 0 0 0 0 0 0 0 0 1 0 0 0 0 104 0 1 8 3 0 0 0 0 0 0 0 0 0 0 0 0 2 0 0 0 0 0 3 0 0 0 0 0 0 0 0 0 0 0 0 0 0 0 0 0 0 0 0 11 0 0 0 0 0 0 0 0 0 0 0 0 0 0 0 0 0 19 0 0 0 0 0 0 0 0 1 0 0 0 0 0 0 0 0 0 0 0 0 0 0 0 0 0 0 0 0 0 0 0 0 0 0 0 0 1 0 0 0 0 0 0 0 0 0 0 14 0 0 10 0 0 29 14 0 0 21 39 0 0 0 0 0 0 0 0 0 0 0 0 0 0 0 0 0 0 0 0 0 0 0 0 0 0 0 0 0 0 0 0 0 0 0 0 0 0 0 165 0 0 0 0 0 0 0 0 0 0 0 0 0 0 0 0 0 0 0 0 0 0 0 8 0 0 14 0 0 0 0 0 0 0 0 8 0 91 4 0 0 0 0 0 0 52 0 0 12 0 0 0 0 0 0 0 0 0 0 0 0 0 0 0 0 0 0 73 0 0 0 0 0 0 0 0 0 0 0 0 0 0 0 0 0 0 0 0 0 0 0 0 0 0 0 8 0 0 0 0 0 0 0 0 0 0 0 0 0 0 0 0 0 0 34 0 0 0 0 0 0 0 0 0 0 0 0 1 0 0 2 0 0 0 0 0 0 0 0 0 0 0 0 0 0 0 0 0 
Printing Sanity2
Heartbeat CPU 0 instructions: 170000000 cycles: 215903482 heartbeat IPC: 0.583773 cumulative IPC: 0.594489 (Simulation time: 0 hr 13 min 23 sec) 
Heartbeat CPU 0 instructions: 180000000 cycles: 232790813 heartbeat IPC: 0.59216 cumulative IPC: 0.594309 (Simulation time: 0 hr 14 min 11 sec) 
*** Reached end of trace for Core: 0 Repeating trace: traces/spec2k17/srv_57.champsimtrace.xz
Heartbeat CPU 0 instructions: 190000002 cycles: 250141846 heartbeat IPC: 0.576335 cumulative IPC: 0.592988 (Simulation time: 0 hr 14 min 59 sec) 
Heartbeat CPU 0 instructions: 200000000 cycles: 267256265 heartbeat IPC: 0.584302 cumulative IPC: 0.592401 (Simulation time: 0 hr 15 min 49 sec) 
Heartbeat CPU 0 instructions: 210000001 cycles: 284192686 heartbeat IPC: 0.590444 cumulative IPC: 0.592278 (Simulation time: 0 hr 16 min 40 sec) 
*** Reached end of trace for Core: 0 Repeating trace: traces/spec2k17/srv_57.champsimtrace.xz
Heartbeat CPU 0 instructions: 220000000 cycles: 301698169 heartbeat IPC: 0.57125 cumulative IPC: 0.590999 (Simulation time: 0 hr 17 min 30 sec) 
Heartbeat CPU 0 instructions: 230000000 cycles: 318669801 heartbeat IPC: 0.589218 cumulative IPC: 0.590899 (Simulation time: 0 hr 18 min 20 sec) 
Heartbeat CPU 0 instructions: 240000002 cycles: 335319973 heartbeat IPC: 0.600595 cumulative IPC: 0.591402 (Simulation time: 0 hr 19 min 13 sec) 
*** Reached end of trace for Core: 0 Repeating trace: traces/spec2k17/srv_57.champsimtrace.xz
Heartbeat CPU 0 instructions: 250000000 cycles: 353049563 heartbeat IPC: 0.564029 cumulative IPC: 0.58997 (Simulation time: 0 hr 20 min 5 sec) 
Finished CPU 0 instructions: 200000002 cycles: 339000141 cumulative IPC: 0.58997 (Simulation time: 0 hr 20 min 5 sec) 

ChampSim completed all CPUs

Region of Interest Statistics

CPU 0 cumulative IPC: 0.58997 instructions: 200000002 cycles: 339000141
ITLB TOTAL     ACCESS:   34745943  HIT:   33907770  MISS:     838173  HIT %:    97.5877  MISS %:    2.41229   MPKI: 4.19086
ITLB LOAD TRANSLATION ACCESS:   34745943  HIT:   33907770  MISS:     838173  HIT %:    97.5877  MISS %:    2.41229   MPKI: 4.19086
ITLB PREFETCH  REQUESTED:          0  ISSUED:          0  USEFUL:          0  USELESS:          0
ITLB USEFUL LOAD PREFETCHES:          0 PREFETCH ISSUED TO LOWER LEVEL:          0  ACCURACY: -nan
ITLB TIMELY PREFETCHES:          0 LATE PREFETCHES: 0 DROPPED PREFETCHES: 0
ITLB PREFETCHES SAME FILL-ORIGIN LEVEL: 0 DIFFERENT FILL-ORIGIN LEVEL: 0
ITLB AVERAGE MISS LATENCY: 9.4575 cycles
ITLB RQ	ACCESS:   39595680	FORWARD:          0	MERGED:    4556255	TO_CACHE:   35039425

DTLB TOTAL     ACCESS:   40536383  HIT:   39596493  MISS:     939890  HIT %:    97.6814  MISS %:    2.31863   MPKI: 4.69945
DTLB LOAD TRANSLATION ACCESS:   40536383  HIT:   39596493  MISS:     939890  HIT %:    97.6814  MISS %:    2.31863   MPKI: 4.69945
DTLB PREFETCH  REQUESTED:          0  ISSUED:          0  USEFUL:          0  USELESS:          0
DTLB USEFUL LOAD PREFETCHES:          0 PREFETCH ISSUED TO LOWER LEVEL:          0  ACCURACY: -nan
DTLB TIMELY PREFETCHES:          0 LATE PREFETCHES: 0 DROPPED PREFETCHES: 0
DTLB PREFETCHES SAME FILL-ORIGIN LEVEL: 0 DIFFERENT FILL-ORIGIN LEVEL: 0
DTLB AVERAGE MISS LATENCY: 17.7142 cycles
DTLB RQ	ACCESS:   55793546	FORWARD:          0	MERGED:   15203523	TO_CACHE:   40590023

STLB TOTAL     ACCESS:    2825135  HIT:    2749965  MISS:      75170  HIT %:    97.3392  MISS %:    2.66076   MPKI: 0.37585
STLB LOAD TRANSLATION ACCESS:    1778063  HIT:    1705332  MISS:      72731  HIT %:    95.9095  MISS %:    4.09046   MPKI: 0.363655
STLB TRANSLATION FROM L1D PREFETCHER ACCESS:    1047072  HIT:    1044633  MISS:       2439  HIT %:    99.7671  MISS %:   0.232935   MPKI: 0.012195
STLB PREFETCH  REQUESTED:          0  ISSUED:          0  USEFUL:       1776  USELESS:        654
STLB USEFUL LOAD PREFETCHES:       1776 PREFETCH ISSUED TO LOWER LEVEL:          0  ACCURACY: inf
STLB TIMELY PREFETCHES:       1776 LATE PREFETCHES: 14 DROPPED PREFETCHES: 62226
STLB PREFETCHES SAME FILL-ORIGIN LEVEL: 0 DIFFERENT FILL-ORIGIN LEVEL: 0
STLB AVERAGE MISS LATENCY: 115.279 cycles
STLB RQ	ACCESS:    3298931	FORWARD:          0	MERGED:     409383	TO_CACHE:    2889548

STLB Hit, L1D data hit: 0
STLB Hit, L2C data hit: 0
STLB Hit, LLC data hit: 0
STLB Hit, LLC data miss: 0
STLB STLB hints to L2: 0
L1D TOTAL     ACCESS:   56551935  HIT:   54138839  MISS:    2413096  HIT %:     95.733  MISS %:    4.26704   MPKI: 12.0655
L1D LOAD      ACCESS:   33583590  HIT:   32582060  MISS:    1001530  HIT %:    97.0178  MISS %:     2.9822   MPKI: 5.00765
L1D RFO       ACCESS:   21630636  HIT:   21281657  MISS:     348979  HIT %:    98.3866  MISS %:    1.61336   MPKI: 1.74489
L1D PREFETCH  ACCESS:    1337709  HIT:     275122  MISS:    1062587  HIT %:    20.5667  MISS %:    79.4333   MPKI: 5.31293
AGUS PREFETCH L1 MISS: 0
L1D PREFETCH  REQUESTED:    3066071  ISSUED:    3065150  USEFUL:     149938  USELESS:     912647
L1D USEFUL LOAD PREFETCHES:     149938 PREFETCH ISSUED TO LOWER LEVEL:    1096466  ACCURACY: 13.6747
L1D TIMELY PREFETCHES:     149938 LATE PREFETCHES: 32529 DROPPED PREFETCHES: 71352
L1D PREFETCHES SAME FILL-ORIGIN LEVEL: 1096466 DIFFERENT FILL-ORIGIN LEVEL: 0
L1D AVERAGE MISS LATENCY: 2.44649e+06 cycles
L1D RQ	ACCESS:   48177114	FORWARD:          0	MERGED:   14270819	TO_CACHE:   33629548
L1D WQ	ACCESS:   22465122	FORWARD:     276944	MERGED:     301124	TO_CACHE:   22163998
L1D PQ	ACCESS:    1544282	FORWARD:          0	MERGED:      23217	TO_CACHE:    1520868

L1D UNIQUE REGIONS ACCESSED: 0
L1D REGIONS CONFLICTS: 0
L1D Cross Page Prefetch Requests: 555246
L1D Same Page Prefetch Requests: 1231351
L1D ROI Sum of L1D PQ occupancy: 24488576
L1D PREFETCHES PUSHED FROM L2C: 0
L1I TOTAL     ACCESS:   39122795  HIT:   36597776  MISS:    2525019  HIT %:    93.5459  MISS %:    6.45409   MPKI: 12.6251
L1I LOAD      ACCESS:   39122795  HIT:   36597776  MISS:    2525019  HIT %:    93.5459  MISS %:    6.45409   MPKI: 12.6251
L1I PREFETCH  REQUESTED:          0  ISSUED:          0  USEFUL:          0  USELESS:          0
L1I USEFUL LOAD PREFETCHES:          0 PREFETCH ISSUED TO LOWER LEVEL:          0  ACCURACY: -nan
L1I TIMELY PREFETCHES:          0 LATE PREFETCHES: 0 DROPPED PREFETCHES: 0
L1I PREFETCHES SAME FILL-ORIGIN LEVEL: 0 DIFFERENT FILL-ORIGIN LEVEL: 0
L1I AVERAGE MISS LATENCY: 20.2659 cycles
L1I RQ	ACCESS:   62220337	FORWARD:          0	MERGED:   22624657	TO_CACHE:   39595680

BTB TOTAL     ACCESS:   32784883  HIT:   29386584  MISS:    3398299  HIT %:    89.6346  MISS %:    10.3654   MPKI: 16.9915
BTB BRANCH_DIRECT_JUMP	ACCESS:    3353840  HIT:    3191984  MISS:     161856
BTB BRANCH_INDIRECT	ACCESS:   13231470  HIT:   11990095  MISS:    1241375
BTB BRANCH_CONDITIONAL	ACCESS:    8791342  HIT:    8583888  MISS:     207454
BTB BRANCH_DIRECT_CALL	ACCESS:    2800344  HIT:    2510637  MISS:     289707
BTB BRANCH_INDIRECT_CALL	ACCESS:     903748  HIT:     779612  MISS:     124136
BTB BRANCH_RETURN	ACCESS:    3704139  HIT:    2330368  MISS:    1373771
BTB BRANCH_OTHER ACCESS:          0  HIT:          0  MISS:          0

L2C TOTAL     ACCESS:    5806887  HIT:    4494871  MISS:    1312016  HIT %:    77.4059  MISS %:    22.5941   MPKI: 6.56008
L2C LOAD      ACCESS:    3493902  HIT:    2743106  MISS:     750796  HIT %:    78.5112  MISS %:    21.4888   MPKI: 3.75398
L2C DATA LOAD MPKI: 1.35936
L2C INSTRUCTION LOAD MPKI: 2.39461
L2C RFO       ACCESS:     347602  HIT:     242113  MISS:     105489  HIT %:    69.6524  MISS %:    30.3476   MPKI: 0.527445
L2C PREFETCH  ACCESS:    1096465  HIT:     714865  MISS:     381600  HIT %:    65.1972  MISS %:    34.8028   MPKI: 1.908
AGUS PREFETCH L1 MISS: 0
L2C DATA PREFETCH MPKI: 1.908
L2C INSTRUCTION PREFETCH MPKI: 0
L2C WRITEBACK ACCESS:     625365  HIT:     613373  MISS:      11992  HIT %:    98.0824  MISS %:     1.9176   MPKI: 0.05996
L2C LOAD TRANSLATION ACCESS:     138247  HIT:      84061  MISS:      54186  HIT %:    60.8049  MISS %:    39.1951   MPKI: 0.27093
L2C TRANSLATION FROM L1D PREFETCHER ACCESS:     105306  HIT:      97353  MISS:       7953  HIT %:    92.4477  MISS %:    7.55228   MPKI: 0.039765
L2C PREFETCH  REQUESTED:          0  ISSUED:          0  USEFUL:      19363  USELESS:     369934
L2C USEFUL LOAD PREFETCHES:      19363 PREFETCH ISSUED TO LOWER LEVEL:     381600  ACCURACY: 5.07416
L2C TIMELY PREFETCHES:      19363 LATE PREFETCHES: 0 DROPPED PREFETCHES: 0
L2C PREFETCHES SAME FILL-ORIGIN LEVEL: 0 DIFFERENT FILL-ORIGIN LEVEL: 0
L2C AVERAGE MISS LATENCY: 68.6165 cycles
L2C RQ	ACCESS:    4085203	FORWARD:          0	MERGED:          0	TO_CACHE:    4085058
L2C WQ	ACCESS:     625365	FORWARD:        146	MERGED:          0	TO_CACHE:     625365
L2C PQ	ACCESS:    1096466	FORWARD:          0	MERGED:          0	TO_CACHE:    1096465

L2C Instructions Evicting Data 213527
L2C Translations Evicting Data 46947
L2C Data Evicting Data 503860
L2C Instructions Evicting Instructions 254507
L2C Translations Evicting Instructions 9309
L2C Data Evicting Instructions 209601
L2C Instructions Evicting Translations 10889
L2C Translations Evicting Translations 5883
L2C Data Evicting Translations 45501
L2C Dense regions hint from L2: 0
PSCL5 TOTAL     ACCESS:     137396  HIT:     137396  MISS:          0  HIT %:        100  MISS %:          0   MPKI: 0
PSCL5 LOAD TRANSLATION ACCESS:      72717  HIT:      72717  MISS:          0  HIT %:        100  MISS %:          0   MPKI: 0
PSCL5 TRANSLATION FROM L1D PREFETCHER ACCESS:      64679  HIT:      64679  MISS:          0  HIT %:        100  MISS %:          0   MPKI: 0
PSCL5 PREFETCH  REQUESTED:          0  ISSUED:          0  USEFUL:          0  USELESS:          0
PSCL5 USEFUL LOAD PREFETCHES:          0 PREFETCH ISSUED TO LOWER LEVEL:          0  ACCURACY: -nan
PSCL5 TIMELY PREFETCHES:          0 LATE PREFETCHES: 0 DROPPED PREFETCHES: 0
PSCL5 PREFETCHES SAME FILL-ORIGIN LEVEL: 0 DIFFERENT FILL-ORIGIN LEVEL: 0

PSCL4 TOTAL     ACCESS:     134578  HIT:     134446  MISS:        132  HIT %:    99.9019  MISS %:  0.0980844   MPKI: 0.00066
PSCL4 LOAD TRANSLATION ACCESS:      71655  HIT:      71523  MISS:        132  HIT %:    99.8158  MISS %:   0.184216   MPKI: 0.00066
PSCL4 TRANSLATION FROM L1D PREFETCHER ACCESS:      62923  HIT:      62923  MISS:          0  HIT %:        100  MISS %:          0   MPKI: 0
PSCL4 PREFETCH  REQUESTED:          0  ISSUED:          0  USEFUL:          0  USELESS:          0
PSCL4 USEFUL LOAD PREFETCHES:          0 PREFETCH ISSUED TO LOWER LEVEL:          0  ACCURACY: -nan
PSCL4 TIMELY PREFETCHES:          0 LATE PREFETCHES: 0 DROPPED PREFETCHES: 0
PSCL4 PREFETCHES SAME FILL-ORIGIN LEVEL: 0 DIFFERENT FILL-ORIGIN LEVEL: 0

PSCL3 TOTAL     ACCESS:     115994  HIT:      95438  MISS:      20556  HIT %:    82.2784  MISS %:    17.7216   MPKI: 0.10278
PSCL3 LOAD TRANSLATION ACCESS:      70659  HIT:      50103  MISS:      20556  HIT %:    70.9082  MISS %:    29.0918   MPKI: 0.10278
PSCL3 TRANSLATION FROM L1D PREFETCHER ACCESS:      45335  HIT:      45335  MISS:          0  HIT %:        100  MISS %:          0   MPKI: 0
PSCL3 PREFETCH  REQUESTED:          0  ISSUED:          0  USEFUL:          0  USELESS:          0
PSCL3 USEFUL LOAD PREFETCHES:          0 PREFETCH ISSUED TO LOWER LEVEL:          0  ACCURACY: -nan
PSCL3 TIMELY PREFETCHES:          0 LATE PREFETCHES: 0 DROPPED PREFETCHES: 0
PSCL3 PREFETCHES SAME FILL-ORIGIN LEVEL: 0 DIFFERENT FILL-ORIGIN LEVEL: 0

PSCL2 TOTAL     ACCESS:     111343  HIT:      66191  MISS:      45152  HIT %:    59.4478  MISS %:    40.5522   MPKI: 0.22576
PSCL2 LOAD TRANSLATION ACCESS:      72909  HIT:      27757  MISS:      45152  HIT %:    38.0707  MISS %:    61.9293   MPKI: 0.22576
PSCL2 TRANSLATION FROM L1D PREFETCHER ACCESS:      38434  HIT:      38434  MISS:          0  HIT %:        100  MISS %:          0   MPKI: 0
PSCL2 PREFETCH  REQUESTED:          0  ISSUED:          0  USEFUL:          0  USELESS:          0
PSCL2 USEFUL LOAD PREFETCHES:          0 PREFETCH ISSUED TO LOWER LEVEL:          0  ACCURACY: -nan
PSCL2 TIMELY PREFETCHES:          0 LATE PREFETCHES: 0 DROPPED PREFETCHES: 0
PSCL2 PREFETCHES SAME FILL-ORIGIN LEVEL: 0 DIFFERENT FILL-ORIGIN LEVEL: 0

LLC TOTAL     ACCESS:    1490451  HIT:    1127757  MISS:     362694  HIT %:    75.6655  MISS %:    24.3345   MPKI: 1.81347
LLC LOAD      ACCESS:     750795  HIT:     605293  MISS:     145502  HIT %:    80.6203  MISS %:    19.3797   MPKI: 0.72751
LLC RFO       ACCESS:     105489  HIT:      73999  MISS:      31490  HIT %:    70.1485  MISS %:    29.8515   MPKI: 0.15745
LLC PREFETCH  ACCESS:     381594  HIT:     224320  MISS:     157274  HIT %:     58.785  MISS %:     41.215   MPKI: 0.78637
AGUS PREFETCH L1 MISS: 0
LLC WRITEBACK ACCESS:     190434  HIT:     188326  MISS:       2108  HIT %:    98.8931  MISS %:    1.10695   MPKI: 0.01054
LLC LOAD TRANSLATION ACCESS:      54186  HIT:      30609  MISS:      23577  HIT %:    56.4888  MISS %:    43.5112   MPKI: 0.117885
LLC TRANSLATION FROM L1D PREFETCHER ACCESS:       7953  HIT:       5210  MISS:       2743  HIT %:    65.5099  MISS %:    34.4901   MPKI: 0.013715
LLC PREFETCH  REQUESTED:          0  ISSUED:          0  USEFUL:       3888  USELESS:     153536
LLC USEFUL LOAD PREFETCHES:       3888 PREFETCH ISSUED TO LOWER LEVEL:     157274  ACCURACY: 2.47212
LLC TIMELY PREFETCHES:       3888 LATE PREFETCHES: 0 DROPPED PREFETCHES: 0
LLC PREFETCHES SAME FILL-ORIGIN LEVEL: 0 DIFFERENT FILL-ORIGIN LEVEL: 0
LLC AVERAGE MISS LATENCY: 140.682 cycles
LLC RQ	ACCESS:     918424	FORWARD:          0	MERGED:          0	TO_CACHE:     918423
LLC WQ	ACCESS:     190434	FORWARD:          7	MERGED:          0	TO_CACHE:     190434
LLC PQ	ACCESS:     381600	FORWARD:          0	MERGED:          0	TO_CACHE:     381594

LLC Dense regions hint to LLC: 0

RAW hits: 2606184
Loads Generated: 50783299
Loads sent to L1D: 48177114
Stores Generated: 22465117
Stores sent to L1D: 22465122
Major fault: 0 Minor fault: 8932
Allocated PAGES: 8932
CPU 0 L1D 
Prefetch count 1282051 BOP and RL 

DRAM Statistics
 CHANNEL 0
 RQ ROW_BUFFER_HIT:     137125  ROW_BUFFER_MISS:     223447
 DBUS_CONGESTED:        336
 WQ ROW_BUFFER_HIT:      14312  ROW_BUFFER_MISS:      66678  FULL:          0

 AVG_CONGESTED_CYCLE: 5
 All warmup complete: 2
Channel 0 Bank busy for read cycles: 0
Channel 0 Bank busy for write cycles: 0
Channel 0
Rank 0
0banks busy for read cycles: 307755096
0banks busy for write cycles: 41745
1banks busy for read cycles: 12274668
1banks busy for write cycles: 5704936
2banks busy for read cycles: 5469179
2banks busy for write cycles: 2074515
3banks busy for read cycles: 2121873
3banks busy for write cycles: 776883
4banks busy for read cycles: 1036704
4banks busy for write cycles: 314184
5banks busy for read cycles: 452798
5banks busy for write cycles: 123297
6banks busy for read cycles: 297388
6banks busy for write cycles: 65481
7banks busy for read cycles: 238026
7banks busy for write cycles: 52009
8banks busy for read cycles: 116931
8banks busy for write cycles: 84429

CPU 0 Branch Prediction Accuracy: 99.8045% MPKI: 0.370935 Average ROB Occupancy at Mispredict: 33.7178
Branch types
NOT_BRANCH: 162058969 81.0295%
BRANCH_DIRECT_JUMP: 3353840 1.67692%
BRANCH_INDIRECT: 13231470 6.61573%
BRANCH_CONDITIONAL: 13947212 6.97361%
BRANCH_DIRECT_CALL: 2800344 1.40017%
BRANCH_INDIRECT_CALL: 903748 0.451874%
BRANCH_RETURN: 3704139 1.85207%
BRANCH_OTHER: 0 0%

DRAM PAGES: 1048576
Allocated PAGES: 8932
