
*** ChampSim Multicore Out-of-Order Simulator ***

Warmup Instructions: 50000000
Simulation Instructions: 200000000
Number of CPUs: 1
LLC sets: 2048
LLC ways: 16
Off-chip DRAM Size: 4096 MB Channels: 1 Width: 64-bit Data Rate: 6400 MT/s
CPU 0 runs traces/spec2k17/srv_7.champsimtrace.xz
.xz
BTB has LRU replacement policy
ITLB has LRU replacement policy
DTLB has LRU replacement policy
STLB has LRU replacement policy
L1I has LRU replacement policy
CPU 0 l1d next line prefetcher
L1D has LRU replacement policy
Initialize SRRIP state for L2C
Initialize DRRIP state for LLC
Offsets elements: 
Potential of Offsets elements: 
rewards of Offsets elements: 
Printing Sanity1
offset list size2298
Heartbeat CPU 0 instructions: 10000001 cycles: 2788679 heartbeat IPC: 3.58593 cumulative IPC: 3.58593 (Simulation time: 0 hr 0 min 31 sec) 
Heartbeat CPU 0 instructions: 20000001 cycles: 5573525 heartbeat IPC: 3.59086 cumulative IPC: 3.58839 (Simulation time: 0 hr 1 min 3 sec) 
Heartbeat CPU 0 instructions: 30000001 cycles: 8357336 heartbeat IPC: 3.5922 cumulative IPC: 3.58966 (Simulation time: 0 hr 1 min 33 sec) 
*** Reached end of trace for Core: 0 Repeating trace: traces/spec2k17/srv_7.champsimtrace.xz
Heartbeat CPU 0 instructions: 40000000 cycles: 11143053 heartbeat IPC: 3.58974 cumulative IPC: 3.58968 (Simulation time: 0 hr 2 min 1 sec) 
Heartbeat CPU 0 instructions: 50000000 cycles: 13929197 heartbeat IPC: 3.58919 cumulative IPC: 3.58958 (Simulation time: 0 hr 2 min 31 sec) 

Warmup complete CPU 0 instructions: 50000004 cycles: 13929198 (Simulation time: 0 hr 2 min 31 sec) 

Heartbeat CPU 0 instructions: 60000000 cycles: 37003665 heartbeat IPC: 0.433379 cumulative IPC: 0.433379 (Simulation time: 0 hr 3 min 19 sec) 
*** Reached end of trace for Core: 0 Repeating trace: traces/spec2k17/srv_7.champsimtrace.xz
Heartbeat CPU 0 instructions: 70000000 cycles: 60550789 heartbeat IPC: 0.42468 cumulative IPC: 0.428986 (Simulation time: 0 hr 3 min 56 sec) 
Heartbeat CPU 0 instructions: 80000003 cycles: 83899699 heartbeat IPC: 0.428286 cumulative IPC: 0.428752 (Simulation time: 0 hr 4 min 32 sec) 
Heartbeat CPU 0 instructions: 90000001 cycles: 107051494 heartbeat IPC: 0.431932 cumulative IPC: 0.429543 (Simulation time: 0 hr 5 min 8 sec) 
*** Reached end of trace for Core: 0 Repeating trace: traces/spec2k17/srv_7.champsimtrace.xz
Heartbeat CPU 0 instructions: 100000001 cycles: 130256779 heartbeat IPC: 0.430936 cumulative IPC: 0.429821 (Simulation time: 0 hr 5 min 44 sec) 
Heartbeat CPU 0 instructions: 110000000 cycles: 153640134 heartbeat IPC: 0.427655 cumulative IPC: 0.429458 (Simulation time: 0 hr 6 min 20 sec) 
Offsets elements: 
Potential of Offsets elements: 
rewards of Offsets elements: 0 179 45 0 0 0 0 0 9 0 0 0 0 0 0 52 0 0 0 0 0 0 0 0 0 0 0 0 0 0 0 0 0 0 0 0 0 0 0 0 0 0 0 0 0 0 0 0 0 2 1 3 0 1 0 0 1 0 0 0 0 3 0 0 0 5 0 0 0 0 0 0 0 0 0 0 0 11 0 0 11 0 112 0 0 0 0 0 0 0 0 0 19 0 0 0 0 0 0 5 0 0 63 52 0 25 18 2 0 0 2 0 0 1 0 0 0 0 0 0 0 0 0 0 90 0 0 0 0 0 0 0 1 0 0 3 66 82 76 9 0 0 0 0 0 0 0 0 0 0 0 0 0 0 0 0 0 0 0 0 48 0 1 38 1 0 9 0 0 0 0 0 0 0 0 0 1 0 1 16 0 0 0 0 0 0 0 0 0 0 0 0 0 0 11 3 7 10 0 0 2 0 0 0 0 0 0 0 0 0 0 0 4 1 0 0 0 0 0 0 0 0 0 0 0 0 0 0 0 0 0 0 7 0 1 1 0 0 0 0 0 0 0 0 0 0 0 0 0 0 0 0 0 0 0 0 0 0 0 0 0 0 1 0 0 0 0 0 0 0 0 65 10 0 0 0 0 0 0 1 1 0 0 0 0 0 0 0 0 0 0 0 0 0 1 0 0 1 0 0 0 0 0 0 0 0 0 0 0 0 0 0 0 0 0 0 0 0 0 0 41 0 15 0 0 0 0 0 0 3 0 0 0 15 0 0 0 0 4 0 0 0 0 0 0 0 0 0 0 0 0 41 0 1 0 0 0 0 0 0 0 0 0 0 0 0 0 0 0 0 0 0 0 0 0 0 0 0 1 1 0 0 0 0 0 0 0 0 3 8 1 3 0 0 0 0 0 0 41 7 43 42 6 0 0 0 0 0 0 0 0 0 0 0 0 0 0 0 0 0 0 5 0 0 0 0 0 0 0 0 0 0 0 0 0 0 0 0 0 0 0 0 0 0 0 0 0 0 0 0 0 0 0 0 0 0 4 0 0 0 0 0 0 0 0 0 0 0 0 0 2 5 0 0 0 0 0 0 0 0 0 0 0 0 1 0 0 0 0 0 0 0 0 49 0 0 0 0 0 0 0 0 0 0 0 0 0 0 0 0 2 0 0 0 0 0 5 0 0 0 0 1 0 0 0 0 0 0 0 0 0 1 0 0 0 0 0 0 0 0 0 0 0 0 6 0 0 0 0 0 0 0 0 3 0 1 0 1 0 0 0 0 0 0 0 1 0 1 2 3 1 4 0 0 0 2 0 4 0 0 0 0 2 0 0 0 0 0 0 0 0 0 0 0 0 0 0 0 1 27 0 0 5 0 0 0 0 3 0 2 0 0 0 0 0 0 0 0 3 0 0 0 0 0 0 4 0 0 0 0 35 0 0 0 0 0 0 0 1 0 0 0 0 0 0 0 0 0 0 33 0 15 11 0 0 0 0 0 0 0 0 0 0 0 0 0 0 0 0 0 0 0 0 0 0 0 0 0 0 0 0 0 0 0 0 0 0 0 0 0 0 0 0 0 7 0 84 0 0 0 0 0 0 0 0 3 0 0 0 0 0 0 1 0 0 40 1 1 0 0 0 0 0 0 1 0 0 0 0 1 0 0 0 0 0 0 0 2 1 1 0 0 0 0 0 0 0 0 0 0 0 0 0 0 0 0 0 0 0 0 2 0 0 79 0 0 6 0 0 0 0 0 0 1 0 0 0 0 0 7 0 0 0 0 0 0 0 0 0 1 0 0 1 0 0 0 0 0 0 0 0 0 0 0 0 0 0 0 0 8 4 0 0 0 0 0 2 0 0 0 0 0 0 0 0 0 0 0 0 0 0 0 0 0 0 0 0 0 0 0 4 0 0 0 1 1 43 0 0 0 0 1 0 0 1 4 0 0 0 0 0 0 16 1 0 0 0 0 0 19 0 1 3 51 46 54 42 47 0 0 0 0 0 1 2 0 0 0 0 0 0 0 0 0 0 0 1 0 0 0 0 0 7 13 0 13 16 2 0 0 0 0 0 41 0 0 0 0 0 0 12 0 0 0 0 0 0 0 0 0 0 0 34 0 0 11 0 0 0 0 0 5 0 0 0 0 0 0 0 0 0 0 0 0 0 0 0 0 0 1 5 3 0 0 0 0 1 1 0 0 2 2 0 0 0 0 1 0 0 0 0 0 0 0 0 0 0 0 0 0 0 0 0 0 0 0 0 0 0 0 0 0 0 0 0 2 0 0 0 0 0 0 1 2 1 0 0 0 0 0 0 0 0 0 0 0 0 0 0 3 2 0 0 30 0 17 0 2 0 0 0 0 0 0 0 0 0 0 1 0 0 0 0 0 0 0 5 0 0 0 0 0 0 0 0 0 0 0 0 0 0 0 0 0 0 0 0 0 0 2 0 0 0 3 0 0 0 0 0 0 0 0 0 0 0 0 0 1 0 0 0 0 0 4 0 0 1 0 0 0 0 0 1 1 2 0 0 0 0 0 0 0 0 0 0 4 0 0 0 0 0 0 0 0 2 0 0 0 0 0 0 0 0 0 0 0 0 0 0 0 0 1 0 0 0 0 0 1 1 0 0 2 0 0 0 0 0 0 0 0 0 0 0 0 1 0 0 0 0 0 1 0 0 0 0 0 0 0 0 0 0 0 0 0 2 0 0 0 0 0 0 0 0 0 0 0 0 0 0 0 0 0 0 0 0 55 5 1 24 0 0 0 0 0 0 20 0 0 0 0 0 0 0 0 0 0 0 0 0 0 0 0 0 0 0 0 0 0 0 0 0 0 0 0 0 0 0 0 0 0 0 0 0 0 0 0 1 0 0 0 0 0 0 0 0 0 0 8 0 0 0 0 0 5 0 0 0 0 0 0 0 0 0 0 0 0 0 0 0 0 0 0 0 0 0 0 0 2 0 0 0 0 0 0 0 0 18 0 0 0 0 0 0 0 0 0 0 0 0 0 0 0 0 0 0 0 0 0 0 0 0 0 0 0 0 0 0 0 0 2 3 0 0 0 1 0 0 0 0 0 0 0 0 0 0 0 0 0 0 0 0 0 3 6 0 5 0 2 0 0 0 0 0 0 0 0 0 1 0 0 0 1 0 0 0 0 0 0 0 0 0 0 0 0 0 0 0 0 0 0 0 0 0 0 0 0 0 0 0 0 0 0 1 0 0 0 0 0 0 0 0 0 0 0 0 0 0 0 0 2 40 0 0 0 0 0 0 0 0 2 0 0 0 0 0 0 0 0 0 0 0 2 0 0 0 0 2 0 3 0 1 0 0 0 0 0 0 0 28 1 0 0 0 0 2 0 0 0 3 0 0 0 13 7 1 0 0 0 0 0 0 0 0 0 2 0 0 0 0 1 0 0 0 0 0 0 0 0 0 0 0 0 0 0 0 0 3 0 0 0 26 2 0 0 0 0 0 1 9 0 0 0 6 0 0 0 0 0 0 0 0 0 0 0 0 0 0 0 0 0 0 0 24 1 0 5 1 3 20 22 0 0 0 0 7 0 0 0 0 0 0 0 0 0 0 0 0 0 0 0 0 0 0 0 0 0 0 0 0 0 0 0 0 0 0 0 0 0 0 0 0 0 0 0 0 0 0 0 0 0 3 0 0 0 0 0 0 0 0 0 0 0 0 0 0 0 0 0 0 1 0 1 0 0 0 0 0 0 0 0 0 0 1 0 0 0 1 8 0 0 0 0 0 0 0 0 0 0 0 0 0 0 0 1 0 0 0 0 0 1 1 0 1 0 1 2 1 0 0 0 0 0 0 0 3 0 0 0 1 0 0 0 0 2 0 0 0 0 0 2 0 0 0 0 2 0 0 0 0 0 0 0 0 35 0 0 1 0 0 0 0 0 0 0 0 0 0 0 0 0 0 0 1 0 0 0 0 0 0 0 0 0 0 0 0 0 0 0 0 0 0 0 1 0 0 0 0 1 0 1 0 0 0 0 0 0 0 0 0 0 0 0 0 0 0 0 0 0 0 0 0 0 0 0 0 1 0 0 0 17 0 0 0 0 0 2 0 0 0 0 0 0 0 0 0 0 0 0 0 0 0 0 0 0 2 10 0 0 0 0 0 0 0 0 0 0 0 0 0 2 0 0 5 0 0 0 0 0 0 0 0 0 0 0 0 0 0 0 0 0 0 0 0 0 0 0 0 0 0 0 0 0 0 0 0 0 0 1 0 1 0 1 84 0 0 0 0 0 24 28 0 0 0 0 0 0 0 0 0 0 0 0 0 2 0 0 0 0 0 0 0 0 0 0 0 0 0 1 0 0 0 0 0 0 0 0 0 0 0 0 0 0 0 0 0 0 0 0 1 1 0 0 0 0 0 0 0 0 0 0 0 0 0 0 0 0 0 0 0 0 0 0 0 0 0 0 0 0 0 0 0 0 0 0 4 0 0 0 0 0 0 0 0 1 0 0 0 0 0 0 0 0 0 0 0 0 0 0 0 0 0 0 0 0 0 0 0 0 0 0 0 0 0 0 0 0 2 1 0 0 0 0 0 0 0 0 0 0 0 0 0 0 1 0 0 0 0 0 0 0 0 0 0 0 3 10 0 0 0 1 0 0 0 0 0 0 0 0 0 0 0 0 0 0 0 0 0 0 0 0 0 0 13 0 0 0 0 0 0 0 0 0 0 0 38 0 0 0 0 0 3 0 0 0 0 0 0 0 0 1 2 35 0 0 0 0 0 0 0 0 0 0 0 0 0 0 0 0 0 1 12 0 0 0 0 0 0 0 0 6 0 0 0 0 0 0 0 12 0 0 0 0 0 0 0 0 0 0 0 0 0 0 0 0 0 0 0 0 0 0 0 0 0 0 0 2 0 0 0 1 2 1 1 0 0 0 0 0 0 5 0 2 0 0 1 0 0 2 0 0 1 0 0 7 1 0 0 1 2 0 1 0 0 0 0 0 0 0 0 0 30 0 1 0 0 0 0 0 0 0 0 33 0 1 0 0 1 0 0 0 0 0 0 2 0 0 1 0 0 0 0 0 0 0 0 0 0 1 0 0 10 0 2 0 0 0 0 0 0 0 0 0 0 0 0 0 0 0 0 1 0 0 0 0 0 0 0 0 0 0 0 0 0 0 0 0 0 0 0 1 0 1 0 0 0 0 0 0 
Printing Sanity2
Heartbeat CPU 0 instructions: 120000003 cycles: 176893482 heartbeat IPC: 0.430046 cumulative IPC: 0.429542 (Simulation time: 0 hr 6 min 55 sec) 
*** Reached end of trace for Core: 0 Repeating trace: traces/spec2k17/srv_7.champsimtrace.xz
Heartbeat CPU 0 instructions: 130000002 cycles: 199857050 heartbeat IPC: 0.435472 cumulative IPC: 0.430274 (Simulation time: 0 hr 7 min 30 sec) 
Heartbeat CPU 0 instructions: 140000001 cycles: 223598496 heartbeat IPC: 0.421204 cumulative IPC: 0.429247 (Simulation time: 0 hr 8 min 5 sec) 
Heartbeat CPU 0 instructions: 150000000 cycles: 247099368 heartbeat IPC: 0.425516 cumulative IPC: 0.428871 (Simulation time: 0 hr 8 min 41 sec) 
*** Reached end of trace for Core: 0 Repeating trace: traces/spec2k17/srv_7.champsimtrace.xz
Heartbeat CPU 0 instructions: 160000001 cycles: 270468649 heartbeat IPC: 0.427912 cumulative IPC: 0.428784 (Simulation time: 0 hr 9 min 17 sec) 
Heartbeat CPU 0 instructions: 170000002 cycles: 294022608 heartbeat IPC: 0.424557 cumulative IPC: 0.428429 (Simulation time: 0 hr 9 min 52 sec) 
Heartbeat CPU 0 instructions: 180000002 cycles: 317627246 heartbeat IPC: 0.423646 cumulative IPC: 0.428057 (Simulation time: 0 hr 10 min 27 sec) 
*** Reached end of trace for Core: 0 Repeating trace: traces/spec2k17/srv_7.champsimtrace.xz
Heartbeat CPU 0 instructions: 190000003 cycles: 340943010 heartbeat IPC: 0.428894 cumulative IPC: 0.428116 (Simulation time: 0 hr 11 min 1 sec) 
Heartbeat CPU 0 instructions: 200000001 cycles: 364643989 heartbeat IPC: 0.421923 cumulative IPC: 0.427698 (Simulation time: 0 hr 11 min 36 sec) 
Heartbeat CPU 0 instructions: 210000003 cycles: 388200547 heartbeat IPC: 0.42451 cumulative IPC: 0.427497 (Simulation time: 0 hr 12 min 10 sec) 
*** Reached end of trace for Core: 0 Repeating trace: traces/spec2k17/srv_7.champsimtrace.xz
Heartbeat CPU 0 instructions: 220000000 cycles: 411668055 heartbeat IPC: 0.426121 cumulative IPC: 0.427416 (Simulation time: 0 hr 12 min 45 sec) 
Heartbeat CPU 0 instructions: 230000000 cycles: 435185052 heartbeat IPC: 0.425224 cumulative IPC: 0.427294 (Simulation time: 0 hr 13 min 18 sec) 
Heartbeat CPU 0 instructions: 240000001 cycles: 458508110 heartbeat IPC: 0.42876 cumulative IPC: 0.427371 (Simulation time: 0 hr 13 min 51 sec) 
*** Reached end of trace for Core: 0 Repeating trace: traces/spec2k17/srv_7.champsimtrace.xz
Heartbeat CPU 0 instructions: 250000001 cycles: 482192669 heartbeat IPC: 0.422216 cumulative IPC: 0.42711 (Simulation time: 0 hr 14 min 23 sec) 
Finished CPU 0 instructions: 200000003 cycles: 468263477 cumulative IPC: 0.42711 (Simulation time: 0 hr 14 min 23 sec) 

ChampSim completed all CPUs

Region of Interest Statistics

CPU 0 cumulative IPC: 0.42711 instructions: 200000003 cycles: 468263477
ITLB TOTAL     ACCESS:   31418235  HIT:   30600188  MISS:     818047  HIT %:    97.3963  MISS %:    2.60373   MPKI: 4.09023
ITLB LOAD TRANSLATION ACCESS:   31418235  HIT:   30600188  MISS:     818047  HIT %:    97.3963  MISS %:    2.60373   MPKI: 4.09023
ITLB PREFETCH  REQUESTED:          0  ISSUED:          0  USEFUL:          0  USELESS:          0
ITLB USEFUL LOAD PREFETCHES:          0 PREFETCH ISSUED TO LOWER LEVEL:          0  ACCURACY: -nan
ITLB TIMELY PREFETCHES:          0 LATE PREFETCHES: 0 DROPPED PREFETCHES: 0
ITLB PREFETCHES SAME FILL-ORIGIN LEVEL: 0 DIFFERENT FILL-ORIGIN LEVEL: 0
ITLB AVERAGE MISS LATENCY: 15.8246 cycles
ITLB RQ	ACCESS:   38271712	FORWARD:          0	MERGED:    6658668	TO_CACHE:   31613044

DTLB TOTAL     ACCESS:   37319773  HIT:   34953974  MISS:    2365799  HIT %:    93.6607  MISS %:    6.33926   MPKI: 11.829
DTLB LOAD TRANSLATION ACCESS:   37319773  HIT:   34953974  MISS:    2365799  HIT %:    93.6607  MISS %:    6.33926   MPKI: 11.829
DTLB PREFETCH  REQUESTED:          0  ISSUED:          0  USEFUL:          0  USELESS:          0
DTLB USEFUL LOAD PREFETCHES:          0 PREFETCH ISSUED TO LOWER LEVEL:          0  ACCURACY: -nan
DTLB TIMELY PREFETCHES:          0 LATE PREFETCHES: 0 DROPPED PREFETCHES: 0
DTLB PREFETCHES SAME FILL-ORIGIN LEVEL: 0 DIFFERENT FILL-ORIGIN LEVEL: 0
DTLB AVERAGE MISS LATENCY: 15.6058 cycles
DTLB RQ	ACCESS:   47812633	FORWARD:          0	MERGED:   10347950	TO_CACHE:   37464683

STLB TOTAL     ACCESS:    5023972  HIT:    4594959  MISS:     429013  HIT %:    91.4607  MISS %:    8.53932   MPKI: 2.14506
STLB LOAD TRANSLATION ACCESS:    3183846  HIT:    2762729  MISS:     421117  HIT %:    86.7733  MISS %:    13.2267   MPKI: 2.10558
STLB TRANSLATION FROM L1D PREFETCHER ACCESS:    1840126  HIT:    1832230  MISS:       7896  HIT %:    99.5709  MISS %:   0.429101   MPKI: 0.03948
STLB PREFETCH  REQUESTED:          0  ISSUED:          0  USEFUL:       6687  USELESS:       1212
STLB USEFUL LOAD PREFETCHES:       6687 PREFETCH ISSUED TO LOWER LEVEL:          0  ACCURACY: inf
STLB TIMELY PREFETCHES:       6687 LATE PREFETCHES: 159 DROPPED PREFETCHES: 38857
STLB PREFETCHES SAME FILL-ORIGIN LEVEL: 0 DIFFERENT FILL-ORIGIN LEVEL: 0
STLB AVERAGE MISS LATENCY: 49.9663 cycles
STLB RQ	ACCESS:    6474785	FORWARD:          0	MERGED:    1410581	TO_CACHE:    5064204

STLB Hit, L1D data hit: 0
STLB Hit, L2C data hit: 0
STLB Hit, LLC data hit: 0
STLB Hit, LLC data miss: 0
STLB STLB hints to L2: 0
L1D TOTAL     ACCESS:   50293136  HIT:   45443151  MISS:    4849985  HIT %:    90.3566  MISS %:    9.64343   MPKI: 24.2499
L1D LOAD      ACCESS:   27635144  HIT:   25629147  MISS:    2005997  HIT %:    92.7411  MISS %:    7.25886   MPKI: 10.03
L1D RFO       ACCESS:   19668333  HIT:   19316252  MISS:     352081  HIT %:    98.2099  MISS %:    1.79009   MPKI: 1.7604
L1D PREFETCH  ACCESS:    2989659  HIT:     497752  MISS:    2491907  HIT %:    16.6491  MISS %:    83.3509   MPKI: 12.4595
AGUS PREFETCH L1 MISS: 0
L1D PREFETCH  REQUESTED:    6657865  ISSUED:    6657723  USEFUL:     440445  USELESS:    2051323
L1D USEFUL LOAD PREFETCHES:     440445 PREFETCH ISSUED TO LOWER LEVEL:    2519395  ACCURACY: 17.4822
L1D TIMELY PREFETCHES:     440445 LATE PREFETCHES: 26390 DROPPED PREFETCHES: 41730
L1D PREFETCHES SAME FILL-ORIGIN LEVEL: 2519395 DIFFERENT FILL-ORIGIN LEVEL: 0
L1D AVERAGE MISS LATENCY: 1.51854e+06 cycles
L1D RQ	ACCESS:   42172227	FORWARD:          0	MERGED:   14171167	TO_CACHE:   27748921
L1D WQ	ACCESS:   20434181	FORWARD:     253670	MERGED:     370469	TO_CACHE:   20063712
L1D PQ	ACCESS:    3366784	FORWARD:          0	MERGED:      74314	TO_CACHE:    3290939

L1D UNIQUE REGIONS ACCESSED: 0
L1D REGIONS CONFLICTS: 0
L1D Cross Page Prefetch Requests: 1446901
L1D Same Page Prefetch Requests: 2441784
L1D ROI Sum of L1D PQ occupancy: 45819809
L1D PREFETCHES PUSHED FROM L2C: 0
L1I TOTAL     ACCESS:   36589038  HIT:   31495886  MISS:    5093152  HIT %:    86.0801  MISS %:    13.9199   MPKI: 25.4658
L1I LOAD      ACCESS:   36589038  HIT:   31495886  MISS:    5093152  HIT %:    86.0801  MISS %:    13.9199   MPKI: 25.4658
L1I PREFETCH  REQUESTED:          0  ISSUED:          0  USEFUL:          0  USELESS:          0
L1I USEFUL LOAD PREFETCHES:          0 PREFETCH ISSUED TO LOWER LEVEL:          0  ACCURACY: -nan
L1I TIMELY PREFETCHES:          0 LATE PREFETCHES: 0 DROPPED PREFETCHES: 0
L1I PREFETCHES SAME FILL-ORIGIN LEVEL: 0 DIFFERENT FILL-ORIGIN LEVEL: 0
L1I AVERAGE MISS LATENCY: 29.6781 cycles
L1I RQ	ACCESS:   57196243	FORWARD:          0	MERGED:   18924531	TO_CACHE:   38271712

BTB TOTAL     ACCESS:   22366378  HIT:   17715697  MISS:    4650681  HIT %:    79.2068  MISS %:    20.7932   MPKI: 23.2534
BTB BRANCH_DIRECT_JUMP	ACCESS:    1867626  HIT:    1582862  MISS:     284764
BTB BRANCH_INDIRECT	ACCESS:    9379894  HIT:    7206637  MISS:    2173257
BTB BRANCH_CONDITIONAL	ACCESS:    4614315  HIT:    4180590  MISS:     433725
BTB BRANCH_DIRECT_CALL	ACCESS:    2585717  HIT:    2040743  MISS:     544974
BTB BRANCH_INDIRECT_CALL	ACCESS:     665918  HIT:     607579  MISS:      58339
BTB BRANCH_RETURN	ACCESS:    3252908  HIT:    2097286  MISS:    1155622
BTB BRANCH_OTHER ACCESS:          0  HIT:          0  MISS:          0

L2C TOTAL     ACCESS:   11681370  HIT:    6517475  MISS:    5163895  HIT %:    55.7938  MISS %:    44.2062   MPKI: 25.8195
L2C LOAD      ACCESS:    7072659  HIT:    3730574  MISS:    3342085  HIT %:    52.7464  MISS %:    47.2536   MPKI: 16.7104
L2C DATA LOAD MPKI: 4.55039
L2C INSTRUCTION LOAD MPKI: 12.16
L2C RFO       ACCESS:     350964  HIT:     180073  MISS:     170891  HIT %:    51.3081  MISS %:    48.6919   MPKI: 0.854455
L2C PREFETCH  ACCESS:    2519387  HIT:    1168572  MISS:    1350815  HIT %:    46.3832  MISS %:    53.6168   MPKI: 6.75407
AGUS PREFETCH L1 MISS: 0
L2C DATA PREFETCH MPKI: 6.75407
L2C INSTRUCTION PREFETCH MPKI: 0
L2C WRITEBACK ACCESS:    1116627  HIT:    1073509  MISS:      43118  HIT %:    96.1385  MISS %:    3.86145   MPKI: 0.21559
L2C LOAD TRANSLATION ACCESS:     552658  HIT:     305141  MISS:     247517  HIT %:    55.2134  MISS %:    44.7866   MPKI: 1.23758
L2C TRANSLATION FROM L1D PREFETCHER ACCESS:      69075  HIT:      59606  MISS:       9469  HIT %:    86.2917  MISS %:    13.7083   MPKI: 0.047345
L2C PREFETCH  REQUESTED:          0  ISSUED:          0  USEFUL:      65245  USELESS:    1294393
L2C USEFUL LOAD PREFETCHES:      65245 PREFETCH ISSUED TO LOWER LEVEL:    1350814  ACCURACY: 4.83005
L2C TIMELY PREFETCHES:      65245 LATE PREFETCHES: 0 DROPPED PREFETCHES: 0
L2C PREFETCHES SAME FILL-ORIGIN LEVEL: 0 DIFFERENT FILL-ORIGIN LEVEL: 0
L2C AVERAGE MISS LATENCY: 44.3499 cycles
L2C RQ	ACCESS:    8045473	FORWARD:          0	MERGED:          0	TO_CACHE:    8045355
L2C WQ	ACCESS:    1116627	FORWARD:        127	MERGED:          0	TO_CACHE:    1116627
L2C PQ	ACCESS:    2519395	FORWARD:          0	MERGED:          0	TO_CACHE:    2519386

L2C Instructions Evicting Data 1144990
L2C Translations Evicting Data 122112
L2C Data Evicting Data 1186564
L2C Instructions Evicting Instructions 1164938
L2C Translations Evicting Instructions 120786
L2C Data Evicting Instructions 1126319
L2C Instructions Evicting Translations 122079
L2C Translations Evicting Translations 14088
L2C Data Evicting Translations 118901
L2C Dense regions hint from L2: 0
PSCL5 TOTAL     ACCESS:     467870  HIT:     467870  MISS:          0  HIT %:        100  MISS %:          0   MPKI: 0
PSCL5 LOAD TRANSLATION ACCESS:     420958  HIT:     420958  MISS:          0  HIT %:        100  MISS %:          0   MPKI: 0
PSCL5 TRANSLATION FROM L1D PREFETCHER ACCESS:      46912  HIT:      46912  MISS:          0  HIT %:        100  MISS %:          0   MPKI: 0
PSCL5 PREFETCH  REQUESTED:          0  ISSUED:          0  USEFUL:          0  USELESS:          0
PSCL5 USEFUL LOAD PREFETCHES:          0 PREFETCH ISSUED TO LOWER LEVEL:          0  ACCURACY: -nan
PSCL5 TIMELY PREFETCHES:          0 LATE PREFETCHES: 0 DROPPED PREFETCHES: 0
PSCL5 PREFETCHES SAME FILL-ORIGIN LEVEL: 0 DIFFERENT FILL-ORIGIN LEVEL: 0

PSCL4 TOTAL     ACCESS:     449211  HIT:     447576  MISS:       1635  HIT %:     99.636  MISS %:   0.363971   MPKI: 0.008175
PSCL4 LOAD TRANSLATION ACCESS:     406738  HIT:     405103  MISS:       1635  HIT %:     99.598  MISS %:   0.401979   MPKI: 0.008175
PSCL4 TRANSLATION FROM L1D PREFETCHER ACCESS:      42473  HIT:      42473  MISS:          0  HIT %:        100  MISS %:          0   MPKI: 0
PSCL4 PREFETCH  REQUESTED:          0  ISSUED:          0  USEFUL:          0  USELESS:          0
PSCL4 USEFUL LOAD PREFETCHES:          0 PREFETCH ISSUED TO LOWER LEVEL:          0  ACCURACY: -nan
PSCL4 TIMELY PREFETCHES:          0 LATE PREFETCHES: 0 DROPPED PREFETCHES: 0
PSCL4 PREFETCHES SAME FILL-ORIGIN LEVEL: 0 DIFFERENT FILL-ORIGIN LEVEL: 0

PSCL3 TOTAL     ACCESS:     463392  HIT:     461722  MISS:       1670  HIT %:    99.6396  MISS %:   0.360386   MPKI: 0.00835
PSCL3 LOAD TRANSLATION ACCESS:     417196  HIT:     415526  MISS:       1670  HIT %:    99.5997  MISS %:   0.400291   MPKI: 0.00835
PSCL3 TRANSLATION FROM L1D PREFETCHER ACCESS:      46196  HIT:      46196  MISS:          0  HIT %:        100  MISS %:          0   MPKI: 0
PSCL3 PREFETCH  REQUESTED:          0  ISSUED:          0  USEFUL:          0  USELESS:          0
PSCL3 USEFUL LOAD PREFETCHES:          0 PREFETCH ISSUED TO LOWER LEVEL:          0  ACCURACY: -nan
PSCL3 TIMELY PREFETCHES:          0 LATE PREFETCHES: 0 DROPPED PREFETCHES: 0
PSCL3 PREFETCHES SAME FILL-ORIGIN LEVEL: 0 DIFFERENT FILL-ORIGIN LEVEL: 0

PSCL2 TOTAL     ACCESS:     447621  HIT:     317314  MISS:     130307  HIT %:     70.889  MISS %:     29.111   MPKI: 0.651535
PSCL2 LOAD TRANSLATION ACCESS:     422768  HIT:     292461  MISS:     130307  HIT %:    69.1777  MISS %:    30.8223   MPKI: 0.651535
PSCL2 TRANSLATION FROM L1D PREFETCHER ACCESS:      24853  HIT:      24853  MISS:          0  HIT %:        100  MISS %:          0   MPKI: 0
PSCL2 PREFETCH  REQUESTED:          0  ISSUED:          0  USEFUL:          0  USELESS:          0
PSCL2 USEFUL LOAD PREFETCHES:          0 PREFETCH ISSUED TO LOWER LEVEL:          0  ACCURACY: -nan
PSCL2 TIMELY PREFETCHES:          0 LATE PREFETCHES: 0 DROPPED PREFETCHES: 0
PSCL2 PREFETCHES SAME FILL-ORIGIN LEVEL: 0 DIFFERENT FILL-ORIGIN LEVEL: 0

LLC TOTAL     ACCESS:    5647540  HIT:    5145007  MISS:     502533  HIT %:    91.1017  MISS %:    8.89826   MPKI: 2.51266
LLC LOAD      ACCESS:    3342085  HIT:    3143227  MISS:     198858  HIT %:    94.0499  MISS %:    5.95012   MPKI: 0.99429
LLC RFO       ACCESS:     170889  HIT:     119583  MISS:      51306  HIT %:     69.977  MISS %:     30.023   MPKI: 0.25653
LLC PREFETCH  ACCESS:    1350815  HIT:    1124125  MISS:     226690  HIT %:    83.2183  MISS %:    16.7817   MPKI: 1.13345
AGUS PREFETCH L1 MISS: 0
LLC WRITEBACK ACCESS:     526765  HIT:     521651  MISS:       5114  HIT %:    99.0292  MISS %:   0.970831   MPKI: 0.02557
LLC LOAD TRANSLATION ACCESS:     247517  HIT:     227495  MISS:      20022  HIT %:    91.9109  MISS %:    8.08914   MPKI: 0.10011
LLC TRANSLATION FROM L1D PREFETCHER ACCESS:       9469  HIT:       8926  MISS:        543  HIT %:    94.2655  MISS %:     5.7345   MPKI: 0.002715
LLC PREFETCH  REQUESTED:          0  ISSUED:          0  USEFUL:       9607  USELESS:     216138
LLC USEFUL LOAD PREFETCHES:       9607 PREFETCH ISSUED TO LOWER LEVEL:     226690  ACCURACY: 4.23795
LLC TIMELY PREFETCHES:       9607 LATE PREFETCHES: 0 DROPPED PREFETCHES: 0
LLC PREFETCHES SAME FILL-ORIGIN LEVEL: 0 DIFFERENT FILL-ORIGIN LEVEL: 0
LLC AVERAGE MISS LATENCY: 150.024 cycles
LLC RQ	ACCESS:    3769961	FORWARD:          0	MERGED:          0	TO_CACHE:    3769959
LLC WQ	ACCESS:     526765	FORWARD:          2	MERGED:          0	TO_CACHE:     526765
LLC PQ	ACCESS:    1350814	FORWARD:          0	MERGED:          0	TO_CACHE:    1350814

LLC Dense regions hint to LLC: 0

RAW hits: 2711720
Loads Generated: 44883947
Loads sent to L1D: 42172227
Stores Generated: 20434162
Stores sent to L1D: 20434181
Major fault: 0 Minor fault: 6471
Allocated PAGES: 6471
CPU 0 L1D 
Prefetch count 2938168 BOP and RL 

DRAM Statistics
 CHANNEL 0
 RQ ROW_BUFFER_HIT:     120615  ROW_BUFFER_MISS:     376798
 DBUS_CONGESTED:        230
 WQ ROW_BUFFER_HIT:      38806  ROW_BUFFER_MISS:     197342  FULL:          0

 AVG_CONGESTED_CYCLE: 4
 All warmup complete: 2
Channel 0 Bank busy for read cycles: 0
Channel 0 Bank busy for write cycles: 0
Channel 0
Rank 0
0banks busy for read cycles: 406307856
0banks busy for write cycles: 100790
1banks busy for read cycles: 22579854
1banks busy for write cycles: 12345310
2banks busy for read cycles: 10975448
2banks busy for write cycles: 5111318
3banks busy for read cycles: 3589050
3banks busy for write cycles: 2001241
4banks busy for read cycles: 900478
4banks busy for write cycles: 1200673
5banks busy for read cycles: 360849
5banks busy for write cycles: 859101
6banks busy for read cycles: 112609
6banks busy for write cycles: 652781
7banks busy for read cycles: 59598
7banks busy for write cycles: 523187
8banks busy for read cycles: 96720
8banks busy for write cycles: 486615

CPU 0 Branch Prediction Accuracy: 99.8311% MPKI: 0.303505 Average ROB Occupancy at Mispredict: 46.2411
Branch types
NOT_BRANCH: 164070809 82.0354%
BRANCH_DIRECT_JUMP: 1867626 0.933813%
BRANCH_INDIRECT: 9379894 4.68995%
BRANCH_CONDITIONAL: 18176771 9.08839%
BRANCH_DIRECT_CALL: 2585717 1.29286%
BRANCH_INDIRECT_CALL: 665918 0.332959%
BRANCH_RETURN: 3252908 1.62645%
BRANCH_OTHER: 0 0%

DRAM PAGES: 1048576
Allocated PAGES: 6471
