
*** ChampSim Multicore Out-of-Order Simulator ***

Warmup Instructions: 50000000
Simulation Instructions: 200000000
Number of CPUs: 1
LLC sets: 2048
LLC ways: 16
Off-chip DRAM Size: 4096 MB Channels: 1 Width: 64-bit Data Rate: 6400 MT/s
CPU 0 runs traces/spec2k17/srv_72.champsimtrace.xz
.xz
BTB has LRU replacement policy
ITLB has LRU replacement policy
DTLB has LRU replacement policy
STLB has LRU replacement policy
L1I has LRU replacement policy
CPU 0 l1d next line prefetcher
L1D has LRU replacement policy
Initialize SRRIP state for L2C
Initialize DRRIP state for LLC
Offsets elements: 
Potential of Offsets elements: 
rewards of Offsets elements: 
Printing Sanity1
offset list size1244
Heartbeat CPU 0 instructions: 10000002 cycles: 2843908 heartbeat IPC: 3.51629 cumulative IPC: 3.51629 (Simulation time: 0 hr 0 min 35 sec) 
Heartbeat CPU 0 instructions: 20000002 cycles: 5684343 heartbeat IPC: 3.52059 cumulative IPC: 3.51844 (Simulation time: 0 hr 1 min 9 sec) 
Heartbeat CPU 0 instructions: 30000002 cycles: 8523928 heartbeat IPC: 3.52164 cumulative IPC: 3.5195 (Simulation time: 0 hr 1 min 42 sec) 
*** Reached end of trace for Core: 0 Repeating trace: traces/spec2k17/srv_72.champsimtrace.xz
Heartbeat CPU 0 instructions: 40000002 cycles: 11359171 heartbeat IPC: 3.52703 cumulative IPC: 3.52138 (Simulation time: 0 hr 2 min 15 sec) 
Offsets elements: 
Potential of Offsets elements: 
rewards of Offsets elements: 0 5 1 0 0 0 0 0 0 0 0 1 1 0 0 1 0 0 11 0 1 2 19 1 0 0 27 0 3 0 0 0 0 4 1 2 6 3 0 0 0 11 2 1 3 0 2 2 0 134 6 0 6 1 0 0 0 1 4 0 2 0 7 0 0 0 0 17 0 0 0 0 1 0 8 0 44 2 0 0 0 0 0 0 0 0 0 0 0 1 0 0 0 0 0 0 106 109 0 1 0 1 3 3 0 3 1 2 0 12 2 1 3 28 1 0 0 68 0 4 0 0 1 0 0 0 82 95 0 0 0 0 0 0 0 2 0 0 0 1 1 0 2 0 0 0 1 0 0 0 0 2 0 2 2 13 0 0 1 0 5 0 0 0 1 0 0 0 0 5 0 0 28 0 0 2 3 0 2 0 0 0 0 0 0 0 0 0 6 0 0 0 0 0 0 0 0 0 0 3 0 0 2 0 0 0 0 1 38 0 0 0 0 0 0 0 0 1 0 0 0 0 0 0 12 1 0 0 0 1 0 1 0 0 0 0 0 0 0 0 4 0 0 0 0 0 0 0 0 1 0 0 0 0 0 0 0 0 0 0 0 0 0 2 0 0 0 0 0 0 0 0 0 0 0 0 0 21 0 1 0 42 0 0 0 0 0 1 1 0 1 0 0 0 0 0 0 0 0 0 4 4 1 0 0 4 21 0 0 0 0 0 0 3 0 0 0 0 0 0 0 0 0 0 0 0 0 0 0 0 1 1 0 22 0 0 0 0 3 0 0 1 0 1 5 2 0 1 2 16 68 0 0 0 0 1 0 0 0 0 1 0 0 0 0 0 0 1 1 0 0 0 0 0 0 0 0 0 0 0 1 0 1 0 0 0 0 0 4 0 0 0 0 0 14 19 32 1 0 0 0 1 0 0 0 24 0 2 0 68 0 0 0 0 0 0 1 0 0 0 0 0 1 2 2 0 0 0 0 0 0 0 0 0 0 0 0 1 0 0 0 0 7 0 0 0 0 0 0 0 0 1 0 0 0 0 0 0 0 0 0 0 0 0 0 0 0 1 0 0 1 0 0 0 3 2 2 0 0 1 0 0 0 0 0 2 0 0 0 0 0 0 1 0 0 28 5 1 0 0 0 3 26 1 32 1 0 0 0 0 0 0 0 0 5 24 0 1 0 4 0 4 4 1 2 0 0 2 5 0 0 0 0 0 2 1 0 0 0 5 1 0 1 0 6 0 0 0 0 0 0 1 1 0 0 0 2 0 0 0 1 0 0 3 2 0 0 0 5 0 0 0 42 1 4 4 0 0 0 0 0 0 0 1 0 0 3 1 1 0 0 0 5 0 1 0 0 0 0 1 0 1 0 0 2 35 3 0 1 0 1 0 2 0 4 3 0 0 0 5 0 0 0 0 0 0 0 51 0 1 1 2 0 1 0 1 0 0 0 0 4 1 0 1 0 0 0 0 0 1 0 0 1 0 0 0 0 0 3 3 8 20 4 0 0 0 0 0 0 1 0 0 26 0 0 0 1 1 58 0 0 1 0 0 0 2 1 0 1 0 0 0 0 0 0 0 5 0 2 5 0 0 1 0 0 3 0 2 1 0 0 1 1 1 0 0 6 1 6 0 0 0 0 8 0 8 1 0 0 6 0 0 0 0 0 0 0 1 0 0 0 0 0 0 7 1 0 2 0 3 0 0 2 1 0 0 0 4 0 0 0 3 1 0 0 0 0 0 0 0 0 0 0 0 0 0 0 0 0 0 0 0 0 0 0 1 1 0 0 0 0 1 0 0 0 0 0 0 2 0 0 0 0 27 0 0 0 0 0 0 0 0 0 0 1 2 1 0 20 0 0 0 1 8 1 0 0 0 0 0 2 0 0 0 0 4 1 3 0 2 0 1 0 1 0 0 0 0 1 0 2 0 0 0 3 1 0 0 0 0 0 0 0 0 0 0 0 0 1 0 0 3 0 1 2 0 0 1 1 0 0 7 0 6 1 0 0 0 0 6 2 0 0 2 0 0 0 0 0 0 0 0 0 0 0 65 1 0 0 0 0 0 0 0 0 0 64 1 0 41 1 3 0 0 0 0 0 1 0 1 4 1 1 0 0 4 0 2 0 0 0 0 8 1 0 0 1 0 1 0 0 0 0 0 0 0 0 3 2 1 0 1 0 0 5 1 1 0 3 60 3 0 0 0 5 1 0 0 0 4 5 0 2 2 0 1 0 1 0 0 1 0 0 2 2 2 4 0 2 4 1 0 1 0 0 48 1 4 3 0 0 0 0 1 0 1 0 0 0 8 1 0 1 0 0 1 0 0 0 2 0 0 0 0 0 3 0 0 0 2 0 0 0 1 0 0 0 0 0 0 2 0 1 0 0 0 0 2 0 1 0 0 0 0 0 0 0 0 0 0 0 0 0 0 0 1 0 2 0 3 1 0 0 0 2 1 2 0 0 1 1 0 0 4 4 0 0 2 0 0 15 0 0 0 1 0 0 0 0 0 2 1 0 0 2 0 0 4 1 0 0 0 0 0 0 0 0 0 0 0 0 0 0 1 0 0 1 0 0 28 0 0 1 0 2 1 0 5 0 2 0 0 0 0 0 1 6 9 1 0 1 1 0 0 0 1 0 0 0 1 1 0 0 2 0 2 0 0 0 0 11 0 2 0 0 0 1 1 0 1 0 2 0 2 1 0 0 0 0 2 0 0 0 9 0 1 1 1 2 0 0 1 0 0 0 1 0 1 0 0 1 0 0 0 0 0 0 0 0 0 0 0 1 0 0 0 0 0 2 63 5 1 0 0 
Printing Sanity2
Heartbeat CPU 0 instructions: 50000002 cycles: 14203185 heartbeat IPC: 3.51616 cumulative IPC: 3.52034 (Simulation time: 0 hr 2 min 46 sec) 

Warmup complete CPU 0 instructions: 50000002 cycles: 14203185 (Simulation time: 0 hr 2 min 46 sec) 

Heartbeat CPU 0 instructions: 60000001 cycles: 48186665 heartbeat IPC: 0.294261 cumulative IPC: 0.294261 (Simulation time: 0 hr 3 min 45 sec) 
*** Reached end of trace for Core: 0 Repeating trace: traces/spec2k17/srv_72.champsimtrace.xz
Heartbeat CPU 0 instructions: 70000001 cycles: 82016488 heartbeat IPC: 0.295597 cumulative IPC: 0.294927 (Simulation time: 0 hr 4 min 47 sec) 
Heartbeat CPU 0 instructions: 80000002 cycles: 115892420 heartbeat IPC: 0.295195 cumulative IPC: 0.295016 (Simulation time: 0 hr 5 min 47 sec) 
Heartbeat CPU 0 instructions: 90000002 cycles: 149814879 heartbeat IPC: 0.29479 cumulative IPC: 0.29496 (Simulation time: 0 hr 6 min 48 sec) 
*** Reached end of trace for Core: 0 Repeating trace: traces/spec2k17/srv_72.champsimtrace.xz
Heartbeat CPU 0 instructions: 100000002 cycles: 183682707 heartbeat IPC: 0.295265 cumulative IPC: 0.295021 (Simulation time: 0 hr 7 min 47 sec) 
Heartbeat CPU 0 instructions: 110000000 cycles: 217557069 heartbeat IPC: 0.295208 cumulative IPC: 0.295052 (Simulation time: 0 hr 8 min 50 sec) 
Heartbeat CPU 0 instructions: 120000000 cycles: 251485020 heartbeat IPC: 0.294742 cumulative IPC: 0.295008 (Simulation time: 0 hr 9 min 46 sec) 
*** Reached end of trace for Core: 0 Repeating trace: traces/spec2k17/srv_72.champsimtrace.xz
Heartbeat CPU 0 instructions: 130000000 cycles: 285367790 heartbeat IPC: 0.295135 cumulative IPC: 0.295024 (Simulation time: 0 hr 10 min 47 sec) 
Heartbeat CPU 0 instructions: 140000000 cycles: 319334866 heartbeat IPC: 0.294403 cumulative IPC: 0.294955 (Simulation time: 0 hr 11 min 45 sec) 
Heartbeat CPU 0 instructions: 150000000 cycles: 353297847 heartbeat IPC: 0.294438 cumulative IPC: 0.294903 (Simulation time: 0 hr 12 min 45 sec) 
*** Reached end of trace for Core: 0 Repeating trace: traces/spec2k17/srv_72.champsimtrace.xz
Heartbeat CPU 0 instructions: 160000000 cycles: 387160229 heartbeat IPC: 0.295313 cumulative IPC: 0.29494 (Simulation time: 0 hr 13 min 45 sec) 
Heartbeat CPU 0 instructions: 170000001 cycles: 420992807 heartbeat IPC: 0.295573 cumulative IPC: 0.294993 (Simulation time: 0 hr 14 min 43 sec) 
Heartbeat CPU 0 instructions: 180000000 cycles: 454862565 heartbeat IPC: 0.295249 cumulative IPC: 0.295012 (Simulation time: 0 hr 15 min 43 sec) 
*** Reached end of trace for Core: 0 Repeating trace: traces/spec2k17/srv_72.champsimtrace.xz
Heartbeat CPU 0 instructions: 190000001 cycles: 488706800 heartbeat IPC: 0.295471 cumulative IPC: 0.295045 (Simulation time: 0 hr 16 min 44 sec) 
Heartbeat CPU 0 instructions: 200000001 cycles: 522593645 heartbeat IPC: 0.2951 cumulative IPC: 0.295049 (Simulation time: 0 hr 17 min 46 sec) 
Heartbeat CPU 0 instructions: 210000000 cycles: 556490291 heartbeat IPC: 0.295014 cumulative IPC: 0.295047 (Simulation time: 0 hr 18 min 43 sec) 
*** Reached end of trace for Core: 0 Repeating trace: traces/spec2k17/srv_72.champsimtrace.xz
Heartbeat CPU 0 instructions: 220000000 cycles: 590343100 heartbeat IPC: 0.295396 cumulative IPC: 0.295067 (Simulation time: 0 hr 19 min 40 sec) 
Heartbeat CPU 0 instructions: 230000000 cycles: 624183492 heartbeat IPC: 0.295505 cumulative IPC: 0.295091 (Simulation time: 0 hr 20 min 27 sec) 
Heartbeat CPU 0 instructions: 240000000 cycles: 658024959 heartbeat IPC: 0.295495 cumulative IPC: 0.295113 (Simulation time: 0 hr 21 min 10 sec) 
Heartbeat CPU 0 instructions: 250000002 cycles: 691936905 heartbeat IPC: 0.294881 cumulative IPC: 0.295101 (Simulation time: 0 hr 21 min 50 sec) 
Finished CPU 0 instructions: 200000000 cycles: 677733720 cumulative IPC: 0.295101 (Simulation time: 0 hr 21 min 50 sec) 

ChampSim completed all CPUs

Region of Interest Statistics

CPU 0 cumulative IPC: 0.295101 instructions: 200000000 cycles: 677733720
ITLB TOTAL     ACCESS:   35380363  HIT:   32965629  MISS:    2414734  HIT %:    93.1749  MISS %:    6.82507   MPKI: 12.0737
ITLB LOAD TRANSLATION ACCESS:   35380363  HIT:   32965629  MISS:    2414734  HIT %:    93.1749  MISS %:    6.82507   MPKI: 12.0737
ITLB PREFETCH  REQUESTED:          0  ISSUED:          0  USEFUL:          0  USELESS:          0
ITLB USEFUL LOAD PREFETCHES:          0 PREFETCH ISSUED TO LOWER LEVEL:          0  ACCURACY: -nan
ITLB TIMELY PREFETCHES:          0 LATE PREFETCHES: 0 DROPPED PREFETCHES: 0
ITLB PREFETCHES SAME FILL-ORIGIN LEVEL: 0 DIFFERENT FILL-ORIGIN LEVEL: 0
ITLB AVERAGE MISS LATENCY: 9.00641 cycles
ITLB RQ	ACCESS:   41929641	FORWARD:          0	MERGED:    5994000	TO_CACHE:   35935641

DTLB TOTAL     ACCESS:   47272699  HIT:   45301885  MISS:    1970814  HIT %:     95.831  MISS %:    4.16903   MPKI: 9.85407
DTLB LOAD TRANSLATION ACCESS:   47272699  HIT:   45301885  MISS:    1970814  HIT %:     95.831  MISS %:    4.16903   MPKI: 9.85407
DTLB PREFETCH  REQUESTED:          0  ISSUED:          0  USEFUL:          0  USELESS:          0
DTLB USEFUL LOAD PREFETCHES:          0 PREFETCH ISSUED TO LOWER LEVEL:          0  ACCURACY: -nan
DTLB TIMELY PREFETCHES:          0 LATE PREFETCHES: 0 DROPPED PREFETCHES: 0
DTLB PREFETCHES SAME FILL-ORIGIN LEVEL: 0 DIFFERENT FILL-ORIGIN LEVEL: 0
DTLB AVERAGE MISS LATENCY: 9.03169 cycles
DTLB RQ	ACCESS:   62477317	FORWARD:          0	MERGED:   15154094	TO_CACHE:   47323223

STLB TOTAL     ACCESS:    7394242  HIT:    7392970  MISS:       1272  HIT %:    99.9828  MISS %:  0.0172026   MPKI: 0.00636
STLB LOAD TRANSLATION ACCESS:    4385548  HIT:    4384340  MISS:       1208  HIT %:    99.9725  MISS %:   0.027545   MPKI: 0.00604
STLB TRANSLATION FROM L1D PREFETCHER ACCESS:    3008694  HIT:    3008630  MISS:         64  HIT %:    99.9979  MISS %: 0.00212717   MPKI: 0.00032
STLB PREFETCH  REQUESTED:          0  ISSUED:          0  USEFUL:         44  USELESS:         19
STLB USEFUL LOAD PREFETCHES:         44 PREFETCH ISSUED TO LOWER LEVEL:          0  ACCURACY: inf
STLB TIMELY PREFETCHES:         44 LATE PREFETCHES: 0 DROPPED PREFETCHES: 108236
STLB PREFETCHES SAME FILL-ORIGIN LEVEL: 0 DIFFERENT FILL-ORIGIN LEVEL: 0
STLB AVERAGE MISS LATENCY: 35.4481 cycles
STLB RQ	ACCESS:   10570359	FORWARD:          0	MERGED:    3065719	TO_CACHE:    7504640

STLB Hit, L1D data hit: 0
STLB Hit, L2C data hit: 0
STLB Hit, LLC data hit: 0
STLB Hit, LLC data miss: 0
STLB STLB hints to L2: 0
L1D TOTAL     ACCESS:   66306677  HIT:   57556855  MISS:    8749822  HIT %:     86.804  MISS %:     13.196   MPKI: 43.7491
L1D LOAD      ACCESS:   34543698  HIT:   31470019  MISS:    3073679  HIT %:    91.1021  MISS %:    8.89794   MPKI: 15.3684
L1D RFO       ACCESS:   26042202  HIT:   24868437  MISS:    1173765  HIT %:    95.4928  MISS %:    4.50716   MPKI: 5.86883
L1D PREFETCH  ACCESS:    5720777  HIT:    1218399  MISS:    4502378  HIT %:    21.2978  MISS %:    78.7022   MPKI: 22.5119
AGUS PREFETCH L1 MISS: 0
L1D PREFETCH  REQUESTED:   12548958  ISSUED:   12548958  USEFUL:     805322  USELESS:    3697116
L1D USEFUL LOAD PREFETCHES:     805322 PREFETCH ISSUED TO LOWER LEVEL:    4584593  ACCURACY: 17.5658
L1D TIMELY PREFETCHES:     805322 LATE PREFETCHES: 79755 DROPPED PREFETCHES: 112717
L1D PREFETCHES SAME FILL-ORIGIN LEVEL: 4584593 DIFFERENT FILL-ORIGIN LEVEL: 0
L1D AVERAGE MISS LATENCY: 3.31723e+06 cycles
L1D RQ	ACCESS:   47123245	FORWARD:          0	MERGED:   12094286	TO_CACHE:   34673677
L1D WQ	ACCESS:   27957224	FORWARD:     356803	MERGED:     153584	TO_CACHE:   27803640
L1D PQ	ACCESS:    6364146	FORWARD:          0	MERGED:     177813	TO_CACHE:    6184812

L1D UNIQUE REGIONS ACCESSED: 0
L1D REGIONS CONFLICTS: 0
L1D Cross Page Prefetch Requests: 3462474
L1D Same Page Prefetch Requests: 3843326
L1D ROI Sum of L1D PQ occupancy: 84550925
L1D PREFETCHES PUSHED FROM L2C: 0
L1I TOTAL     ACCESS:   40159880  HIT:   28035170  MISS:   12124710  HIT %:    69.8089  MISS %:    30.1911   MPKI: 60.6236
L1I LOAD      ACCESS:   40159880  HIT:   28035170  MISS:   12124710  HIT %:    69.8089  MISS %:    30.1911   MPKI: 60.6236
L1I PREFETCH  REQUESTED:          0  ISSUED:          0  USEFUL:          0  USELESS:          0
L1I USEFUL LOAD PREFETCHES:          0 PREFETCH ISSUED TO LOWER LEVEL:          0  ACCURACY: -nan
L1I TIMELY PREFETCHES:          0 LATE PREFETCHES: 0 DROPPED PREFETCHES: 0
L1I PREFETCHES SAME FILL-ORIGIN LEVEL: 0 DIFFERENT FILL-ORIGIN LEVEL: 0
L1I AVERAGE MISS LATENCY: 16.3259 cycles
L1I RQ	ACCESS:   58874651	FORWARD:          0	MERGED:   16945010	TO_CACHE:   41929641

BTB TOTAL     ACCESS:   30217396  HIT:   16754579  MISS:   13462817  HIT %:    55.4468  MISS %:    44.5532   MPKI: 67.3141
BTB BRANCH_DIRECT_JUMP	ACCESS:    1948775  HIT:    1081587  MISS:     867188
BTB BRANCH_INDIRECT	ACCESS:   12729317  HIT:    7598469  MISS:    5130848
BTB BRANCH_CONDITIONAL	ACCESS:    5646163  HIT:    4270714  MISS:    1375449
BTB BRANCH_DIRECT_CALL	ACCESS:    4157362  HIT:    1954239  MISS:    2203123
BTB BRANCH_INDIRECT_CALL	ACCESS:     789217  HIT:     387763  MISS:     401454
BTB BRANCH_RETURN	ACCESS:    4946562  HIT:    1461807  MISS:    3484755
BTB BRANCH_OTHER ACCESS:          0  HIT:          0  MISS:          0

L2C TOTAL     ACCESS:   23519507  HIT:   21705257  MISS:    1814250  HIT %:    92.2862  MISS %:    7.71381   MPKI: 9.07125
L2C LOAD      ACCESS:   15118389  HIT:   14002462  MISS:    1115927  HIT %:    92.6187  MISS %:    7.38126   MPKI: 5.57963
L2C DATA LOAD MPKI: 1.03188
L2C INSTRUCTION LOAD MPKI: 4.54776
L2C RFO       ACCESS:    1171303  HIT:    1088833  MISS:      82470  HIT %:    92.9591  MISS %:    7.04088   MPKI: 0.41235
L2C PREFETCH  ACCESS:    4584026  HIT:    3988916  MISS:     595110  HIT %:    87.0177  MISS %:    12.9823   MPKI: 2.97555
AGUS PREFETCH L1 MISS: 0
L2C DATA PREFETCH MPKI: 2.97555
L2C INSTRUCTION PREFETCH MPKI: 0
L2C WRITEBACK ACCESS:    2513671  HIT:    2498166  MISS:      15505  HIT %:    99.3832  MISS %:   0.616827   MPKI: 0.077525
L2C LOAD TRANSLATION ACCESS:       1210  HIT:        538  MISS:        672  HIT %:    44.4628  MISS %:    55.5372   MPKI: 0.00336
L2C TRANSLATION FROM L1D PREFETCHER ACCESS:     130908  HIT:     126342  MISS:       4566  HIT %:    96.5121  MISS %:    3.48795   MPKI: 0.02283
L2C PREFETCH  REQUESTED:          0  ISSUED:          0  USEFUL:       9297  USELESS:     590412
L2C USEFUL LOAD PREFETCHES:       9297 PREFETCH ISSUED TO LOWER LEVEL:     595110  ACCURACY: 1.56223
L2C TIMELY PREFETCHES:       9297 LATE PREFETCHES: 0 DROPPED PREFETCHES: 0
L2C PREFETCHES SAME FILL-ORIGIN LEVEL: 0 DIFFERENT FILL-ORIGIN LEVEL: 0
L2C AVERAGE MISS LATENCY: 30.0751 cycles
L2C RQ	ACCESS:   16422055	FORWARD:          0	MERGED:          0	TO_CACHE:   16421810
L2C WQ	ACCESS:    2513671	FORWARD:        813	MERGED:          0	TO_CACHE:    2513671
L2C PQ	ACCESS:    4584593	FORWARD:          0	MERGED:          0	TO_CACHE:    4584025

L2C Instructions Evicting Data 382886
L2C Translations Evicting Data 3887
L2C Data Evicting Data 504532
L2C Instructions Evicting Instructions 525395
L2C Translations Evicting Instructions 1327
L2C Data Evicting Instructions 375503
L2C Instructions Evicting Translations 1270
L2C Translations Evicting Translations 24
L2C Data Evicting Translations 3921
L2C Dense regions hint from L2: 0
PSCL5 TOTAL     ACCESS:     109508  HIT:     109508  MISS:          0  HIT %:        100  MISS %:          0   MPKI: 0
PSCL5 LOAD TRANSLATION ACCESS:       1208  HIT:       1208  MISS:          0  HIT %:        100  MISS %:          0   MPKI: 0
PSCL5 TRANSLATION FROM L1D PREFETCHER ACCESS:     108300  HIT:     108300  MISS:          0  HIT %:        100  MISS %:          0   MPKI: 0
PSCL5 PREFETCH  REQUESTED:          0  ISSUED:          0  USEFUL:          0  USELESS:          0
PSCL5 USEFUL LOAD PREFETCHES:          0 PREFETCH ISSUED TO LOWER LEVEL:          0  ACCURACY: -nan
PSCL5 TIMELY PREFETCHES:          0 LATE PREFETCHES: 0 DROPPED PREFETCHES: 0
PSCL5 PREFETCHES SAME FILL-ORIGIN LEVEL: 0 DIFFERENT FILL-ORIGIN LEVEL: 0

PSCL4 TOTAL     ACCESS:     109508  HIT:     109508  MISS:          0  HIT %:        100  MISS %:          0   MPKI: 0
PSCL4 LOAD TRANSLATION ACCESS:       1208  HIT:       1208  MISS:          0  HIT %:        100  MISS %:          0   MPKI: 0
PSCL4 TRANSLATION FROM L1D PREFETCHER ACCESS:     108300  HIT:     108300  MISS:          0  HIT %:        100  MISS %:          0   MPKI: 0
PSCL4 PREFETCH  REQUESTED:          0  ISSUED:          0  USEFUL:          0  USELESS:          0
PSCL4 USEFUL LOAD PREFETCHES:          0 PREFETCH ISSUED TO LOWER LEVEL:          0  ACCURACY: -nan
PSCL4 TIMELY PREFETCHES:          0 LATE PREFETCHES: 0 DROPPED PREFETCHES: 0
PSCL4 PREFETCHES SAME FILL-ORIGIN LEVEL: 0 DIFFERENT FILL-ORIGIN LEVEL: 0

PSCL3 TOTAL     ACCESS:     109508  HIT:     109508  MISS:          0  HIT %:        100  MISS %:          0   MPKI: 0
PSCL3 LOAD TRANSLATION ACCESS:       1208  HIT:       1208  MISS:          0  HIT %:        100  MISS %:          0   MPKI: 0
PSCL3 TRANSLATION FROM L1D PREFETCHER ACCESS:     108300  HIT:     108300  MISS:          0  HIT %:        100  MISS %:          0   MPKI: 0
PSCL3 PREFETCH  REQUESTED:          0  ISSUED:          0  USEFUL:          0  USELESS:          0
PSCL3 USEFUL LOAD PREFETCHES:          0 PREFETCH ISSUED TO LOWER LEVEL:          0  ACCURACY: -nan
PSCL3 TIMELY PREFETCHES:          0 LATE PREFETCHES: 0 DROPPED PREFETCHES: 0
PSCL3 PREFETCHES SAME FILL-ORIGIN LEVEL: 0 DIFFERENT FILL-ORIGIN LEVEL: 0

PSCL2 TOTAL     ACCESS:      86900  HIT:      86898  MISS:          2  HIT %:    99.9977  MISS %:  0.0023015   MPKI: 1e-05
PSCL2 LOAD TRANSLATION ACCESS:       1208  HIT:       1206  MISS:          2  HIT %:    99.8344  MISS %:   0.165563   MPKI: 1e-05
PSCL2 TRANSLATION FROM L1D PREFETCHER ACCESS:      85692  HIT:      85692  MISS:          0  HIT %:        100  MISS %:          0   MPKI: 0
PSCL2 PREFETCH  REQUESTED:          0  ISSUED:          0  USEFUL:          0  USELESS:          0
PSCL2 USEFUL LOAD PREFETCHES:          0 PREFETCH ISSUED TO LOWER LEVEL:          0  ACCURACY: -nan
PSCL2 TIMELY PREFETCHES:          0 LATE PREFETCHES: 0 DROPPED PREFETCHES: 0
PSCL2 PREFETCHES SAME FILL-ORIGIN LEVEL: 0 DIFFERENT FILL-ORIGIN LEVEL: 0

LLC TOTAL     ACCESS:    1908448  HIT:    1904755  MISS:       3693  HIT %:    99.8065  MISS %:   0.193508   MPKI: 0.018465
LLC LOAD      ACCESS:    1115927  HIT:    1115472  MISS:        455  HIT %:    99.9592  MISS %:  0.0407733   MPKI: 0.002275
LLC RFO       ACCESS:      82470  HIT:      82466  MISS:          4  HIT %:    99.9951  MISS %: 0.00485025   MPKI: 2e-05
LLC PREFETCH  ACCESS:     595110  HIT:     591889  MISS:       3221  HIT %:    99.4588  MISS %:   0.541244   MPKI: 0.016105
AGUS PREFETCH L1 MISS: 0
LLC WRITEBACK ACCESS:     109703  HIT:     109695  MISS:          8  HIT %:    99.9927  MISS %: 0.00729242   MPKI: 4e-05
LLC LOAD TRANSLATION ACCESS:        672  HIT:        671  MISS:          1  HIT %:    99.8512  MISS %:    0.14881   MPKI: 5e-06
LLC TRANSLATION FROM L1D PREFETCHER ACCESS:       4566  HIT:       4562  MISS:          4  HIT %:    99.9124  MISS %:   0.087604   MPKI: 2e-05
LLC PREFETCH  REQUESTED:          0  ISSUED:          0  USEFUL:       1713  USELESS:        907
LLC USEFUL LOAD PREFETCHES:       1713 PREFETCH ISSUED TO LOWER LEVEL:       3221  ACCURACY: 53.1822
LLC TIMELY PREFETCHES:       1713 LATE PREFETCHES: 0 DROPPED PREFETCHES: 0
LLC PREFETCHES SAME FILL-ORIGIN LEVEL: 0 DIFFERENT FILL-ORIGIN LEVEL: 0
LLC AVERAGE MISS LATENCY: 162.851 cycles
LLC RQ	ACCESS:    1203635	FORWARD:          0	MERGED:          0	TO_CACHE:    1203635
LLC WQ	ACCESS:     109703	FORWARD:          0	MERGED:          0	TO_CACHE:     109703
LLC PQ	ACCESS:     595110	FORWARD:          0	MERGED:          0	TO_CACHE:     595110

LLC Dense regions hint to LLC: 0

RAW hits: 1537066
Loads Generated: 48660311
Loads sent to L1D: 47123245
Stores Generated: 27957206
Stores sent to L1D: 27957224
Major fault: 0 Minor fault: 1236
Allocated PAGES: 1236
CPU 0 L1D 
Prefetch count 5306160 BOP and RL 

DRAM Statistics
 CHANNEL 0
 RQ ROW_BUFFER_HIT:        289  ROW_BUFFER_MISS:       3396
 DBUS_CONGESTED:          0
 WQ ROW_BUFFER_HIT:          0  ROW_BUFFER_MISS:         12  FULL:          0

 AVG_CONGESTED_CYCLE: -
 All warmup complete: 2
Channel 0 Bank busy for read cycles: 0
Channel 0 Bank busy for write cycles: 0
Channel 0
Rank 0
0banks busy for read cycles: 677269871
0banks busy for write cycles: 12
1banks busy for read cycles: 408462
1banks busy for write cycles: 1895
2banks busy for read cycles: 46222
2banks busy for write cycles: 0
3banks busy for read cycles: 6092
3banks busy for write cycles: 0
4banks busy for read cycles: 1167
4banks busy for write cycles: 0
5banks busy for read cycles: 0
5banks busy for write cycles: 0
6banks busy for read cycles: 0
6banks busy for write cycles: 0
7banks busy for read cycles: 0
7banks busy for write cycles: 0
8banks busy for read cycles: 0
8banks busy for write cycles: 0

CPU 0 Branch Prediction Accuracy: 99.9104% MPKI: 0.15902 Average ROB Occupancy at Mispredict: 31.084
Branch types
NOT_BRANCH: 164498184 82.2491%
BRANCH_DIRECT_JUMP: 1948775 0.974387%
BRANCH_INDIRECT: 12729317 6.36466%
BRANCH_CONDITIONAL: 10930530 5.46526%
BRANCH_DIRECT_CALL: 4157362 2.07868%
BRANCH_INDIRECT_CALL: 789217 0.394608%
BRANCH_RETURN: 4946562 2.47328%
BRANCH_OTHER: 0 0%

DRAM PAGES: 1048576
Allocated PAGES: 1236
