
*** ChampSim Multicore Out-of-Order Simulator ***

Warmup Instructions: 50000000
Simulation Instructions: 200000000
Number of CPUs: 1
LLC sets: 2048
LLC ways: 16
Off-chip DRAM Size: 4096 MB Channels: 1 Width: 64-bit Data Rate: 6400 MT/s
CPU 0 runs traces/spec2k17/srv_45.champsimtrace.xz
.xz
BTB has LRU replacement policy
ITLB has LRU replacement policy
DTLB has LRU replacement policy
STLB has LRU replacement policy
L1I has LRU replacement policy
CPU 0 l1d next line prefetcher
L1D has LRU replacement policy
Initialize SRRIP state for L2C
Initialize DRRIP state for LLC
Offsets elements: 
Potential of Offsets elements: 
rewards of Offsets elements: 
Printing Sanity1
offset list size1855
Heartbeat CPU 0 instructions: 10000003 cycles: 2948928 heartbeat IPC: 3.39106 cumulative IPC: 3.39106 (Simulation time: 0 hr 0 min 31 sec) 
Heartbeat CPU 0 instructions: 20000002 cycles: 5897974 heartbeat IPC: 3.39093 cumulative IPC: 3.391 (Simulation time: 0 hr 1 min 6 sec) 
Heartbeat CPU 0 instructions: 30000001 cycles: 8843014 heartbeat IPC: 3.39554 cumulative IPC: 3.39251 (Simulation time: 0 hr 1 min 39 sec) 
*** Reached end of trace for Core: 0 Repeating trace: traces/spec2k17/srv_45.champsimtrace.xz
Heartbeat CPU 0 instructions: 40000000 cycles: 11785285 heartbeat IPC: 3.39873 cumulative IPC: 3.39406 (Simulation time: 0 hr 2 min 15 sec) 
Offsets elements: 
Potential of Offsets elements: 
rewards of Offsets elements: 0 0 0 0 1 0 0 0 0 1 0 24 0 0 95 0 0 0 47 5 0 0 0 0 0 0 49 3 0 0 1 0 0 0 7 15 10 18 127 17 2 9 0 0 9 0 0 1 0 0 0 0 0 10 11 9 47 20 16 36 0 0 0 46 0 0 10 19 0 0 0 12 0 0 0 0 0 12 0 0 0 0 3 0 1 0 0 28 14 42 0 28 0 0 0 0 0 0 1 0 0 21 0 0 1 0 0 0 0 0 0 0 0 0 0 4 0 0 0 0 0 0 0 0 0 0 15 0 0 23 3 0 0 0 5 0 0 0 81 1 0 0 14 16 14 4 5 0 0 0 0 0 0 18 11 0 0 0 0 0 0 0 115 0 0 10 92 0 0 0 0 0 0 0 2 0 0 0 118 0 30 10 9 71 13 22 0 13 0 3 0 0 0 0 11 2 0 0 0 0 12 4 0 0 0 0 0 47 0 29 0 23 12 3 0 0 0 0 0 67 2 0 0 58 20 23 71 0 0 2 2 0 0 0 0 0 0 0 0 16 16 9 0 0 10 0 0 0 17 0 0 11 5 8 0 0 1 0 0 0 0 0 61 0 0 0 0 0 0 3 9 0 0 0 19 0 30 0 0 0 6 4 0 5 0 0 0 65 0 0 0 0 0 14 0 0 0 0 0 0 6 9 1 51 0 0 0 0 0 54 0 42 25 25 16 29 50 37 25 11 0 0 5 16 1 0 0 7 21 0 0 0 0 9 4 9 2 0 0 0 0 2 1 3 4 0 0 1 0 0 0 0 0 5 42 7 2 63 22 0 0 8 4 0 0 8 0 0 2 0 73 18 47 15 0 2 0 0 1 48 0 0 0 0 0 0 7 131 0 0 0 6 0 0 21 0 0 0 1 0 0 0 0 0 30 0 0 0 10 0 0 6 0 0 0 0 0 0 0 0 0 9 1 0 0 0 0 0 0 0 0 0 0 0 5 0 0 0 0 0 0 0 0 1 0 0 0 0 0 0 0 0 0 0 0 0 0 0 22 11 0 0 0 0 0 0 0 0 0 0 0 3 0 0 0 0 0 32 13 4 0 0 0 0 0 7 8 0 0 18 0 5 20 0 0 0 0 0 0 0 0 2 11 0 0 0 122 4 6 0 0 0 0 0 4 4 0 0 0 0 0 3 11 5 29 1 18 0 1 0 2 0 0 0 0 0 1 0 0 0 0 0 0 2 0 5 41 0 18 0 5 22 0 26 0 0 0 0 0 0 2 59 0 4 0 0 0 27 0 0 0 0 0 35 0 10 6 0 0 8 0 0 0 0 0 0 0 0 0 0 0 0 0 0 0 0 15 16 0 1 0 0 0 0 0 0 41 0 0 31 0 0 0 0 0 0 0 0 1 0 0 0 0 0 0 0 0 0 0 0 0 35 24 0 0 0 0 0 0 0 0 3 0 0 4 33 0 0 18 0 0 0 0 0 0 0 0 0 0 8 0 0 0 0 0 0 0 0 0 0 11 7 23 4 0 0 0 0 0 2 9 0 0 0 0 0 0 39 0 0 0 8 0 34 36 0 0 0 7 0 0 0 0 0 0 0 0 0 0 0 0 0 0 0 5 5 34 0 0 1 32 32 4 0 0 0 0 2 0 0 0 0 0 0 0 0 5 0 0 0 0 0 0 0 0 0 0 20 0 0 8 18 0 0 0 0 6 0 0 0 0 2 0 0 0 51 0 0 0 2 0 0 0 0 0 0 0 0 0 0 0 0 0 0 0 0 0 0 0 0 11 0 0 0 0 0 0 0 0 19 0 0 0 0 0 0 0 0 0 1 0 0 0 13 0 0 0 0 0 0 0 0 15 5 0 0 0 0 0 0 0 0 0 0 0 0 0 0 0 0 0 0 0 0 0 0 0 0 10 1 0 5 0 0 0 0 0 0 0 19 0 8 0 0 11 0 0 0 0 0 0 0 0 5 1 0 0 0 0 0 7 0 0 11 0 0 0 0 0 0 0 0 9 23 32 16 0 0 5 0 0 0 0 10 11 0 31 0 0 0 0 2 0 0 0 0 0 4 18 0 0 5 0 0 0 0 0 0 0 0 0 0 0 0 26 8 18 7 0 0 0 25 24 23 18 0 0 0 0 4 0 0 0 0 0 0 0 0 0 0 0 0 0 0 0 2 0 0 1 0 0 0 0 0 0 0 0 0 0 0 0 0 0 0 0 0 0 0 0 0 3 3 0 0 0 0 0 7 0 14 0 0 2 0 0 0 4 0 0 0 0 0 0 3 0 0 0 0 7 17 21 0 0 0 6 2 1 2 0 0 0 0 0 0 0 1 0 0 17 12 3 6 6 2 0 19 0 0 0 0 0 0 0 0 0 0 0 0 0 0 0 0 0 0 0 0 0 0 0 0 3 0 3 46 18 9 0 3 0 0 0 0 0 0 0 6 0 0 0 0 0 0 0 0 0 0 0 0 0 0 0 0 0 0 0 0 0 0 0 0 0 0 0 0 0 0 0 0 0 0 0 0 0 0 0 0 0 0 0 0 0 0 0 0 0 0 0 0 0 0 0 0 0 0 0 0 0 0 0 0 0 0 0 0 9 0 0 0 0 0 18 1 0 0 0 0 0 0 0 0 0 0 0 0 0 0 0 0 0 0 17 1 0 2 51 0 0 0 0 1 0 0 0 0 0 0 6 0 0 0 21 0 0 0 0 0 0 0 0 0 0 1 0 0 0 1 0 0 0 0 0 0 0 0 0 0 0 0 0 13 0 0 0 0 11 0 0 0 0 0 0 0 0 0 0 0 0 0 3 2 0 0 0 0 0 0 0 0 0 3 0 0 0 0 0 0 0 0 0 0 0 0 0 0 0 0 0 0 0 0 0 0 0 6 10 0 0 2 0 0 0 0 8 0 0 0 0 0 0 0 0 0 0 0 0 0 0 0 0 0 0 0 0 0 0 0 0 0 0 0 0 0 0 0 0 0 0 0 0 15 0 0 0 0 0 0 0 0 0 3 0 0 2 0 0 0 0 1 0 0 0 0 17 0 0 0 0 0 0 14 0 0 0 1 1 0 0 0 0 0 1 0 2 1 0 0 0 0 0 0 0 0 0 0 0 0 0 0 0 26 0 0 0 0 0 0 0 0 0 0 8 0 0 4 0 0 0 0 0 0 0 0 0 0 0 0 0 0 0 0 22 14 11 0 0 0 0 0 0 9 0 0 0 0 0 0 0 0 0 0 0 0 18 5 0 0 0 0 0 0 0 0 0 9 0 0 0 0 0 0 0 9 0 0 11 0 0 0 0 23 0 0 0 0 18 3 11 0 0 0 0 4 0 0 0 22 0 0 18 0 0 20 0 0 0 0 0 0 0 0 0 0 0 0 0 0 0 0 0 0 0 0 0 0 0 0 0 0 0 0 0 0 0 0 0 0 0 0 0 0 0 0 0 0 0 0 0 0 0 0 5 0 0 0 0 0 0 0 3 0 0 0 7 0 0 0 0 0 0 0 0 2 0 0 1 2 1 0 0 2 2 0 0 0 0 0 0 39 0 0 0 0 0 0 12 0 0 0 0 0 1 16 3 0 0 0 0 22 0 0 0 0 0 0 0 0 15 0 5 0 0 0 0 5 0 0 0 0 0 0 6 0 0 0 0 1 1 0 0 0 0 4 0 0 0 0 27 36 0 0 0 0 0 0 4 0 0 10 0 0 0 0 0 0 0 0 0 0 0 0 0 0 0 0 0 57 5 0 0 22 0 0 0 0 0 0 0 0 0 1 0 0 0 0 0 0 0 0 0 0 0 2 0 0 0 1 0 0 0 0 0 0 0 0 0 1 0 0 0 0 0 0 0 0 0 0 0 0 1 0 0 0 0 0 0 0 0 0 0 0 0 0 0 188 0 0 0 0 0 0 0 0 0 0 0 0 0 0 7 0 6 12 0 0 0 3 14 0 0 0 0 8 0 0 0 0 0 0 0 0 0 0 0 0 0 0 0 0 0 0 0 0 0 0 0 0 4 11 0 0 0 0 0 0 0 0 0 2 0 0 0 0 0 0 0 0 0 0 1 0 0 0 0 9 1 0 0 0 0 0 0 0 0 0 0 0 0 3 0 0 0 0 0 0 0 19 0 0 2 0 0 0 0 0 0 15 0 4 0 0 0 0 0 0 9 
Printing Sanity2
Heartbeat CPU 0 instructions: 50000001 cycles: 14736445 heartbeat IPC: 3.3885 cumulative IPC: 3.39295 (Simulation time: 0 hr 2 min 53 sec) 

Warmup complete CPU 0 instructions: 50000001 cycles: 14736445 (Simulation time: 0 hr 2 min 53 sec) 

Heartbeat CPU 0 instructions: 60000000 cycles: 56316171 heartbeat IPC: 0.240502 cumulative IPC: 0.240502 (Simulation time: 0 hr 4 min 1 sec) 
*** Reached end of trace for Core: 0 Repeating trace: traces/spec2k17/srv_45.champsimtrace.xz
Heartbeat CPU 0 instructions: 70000000 cycles: 97793980 heartbeat IPC: 0.241093 cumulative IPC: 0.240797 (Simulation time: 0 hr 5 min 4 sec) 
Heartbeat CPU 0 instructions: 80000001 cycles: 139444988 heartbeat IPC: 0.24009 cumulative IPC: 0.240561 (Simulation time: 0 hr 6 min 11 sec) 
Heartbeat CPU 0 instructions: 90000003 cycles: 180946738 heartbeat IPC: 0.240954 cumulative IPC: 0.240659 (Simulation time: 0 hr 7 min 17 sec) 
*** Reached end of trace for Core: 0 Repeating trace: traces/spec2k17/srv_45.champsimtrace.xz
Heartbeat CPU 0 instructions: 100000003 cycles: 222523661 heartbeat IPC: 0.240518 cumulative IPC: 0.240631 (Simulation time: 0 hr 8 min 26 sec) 
Heartbeat CPU 0 instructions: 110000000 cycles: 264208839 heartbeat IPC: 0.239893 cumulative IPC: 0.240508 (Simulation time: 0 hr 9 min 34 sec) 
Heartbeat CPU 0 instructions: 120000000 cycles: 305653055 heartbeat IPC: 0.241288 cumulative IPC: 0.240619 (Simulation time: 0 hr 10 min 34 sec) 
*** Reached end of trace for Core: 0 Repeating trace: traces/spec2k17/srv_45.champsimtrace.xz
Heartbeat CPU 0 instructions: 130000002 cycles: 347119705 heartbeat IPC: 0.241158 cumulative IPC: 0.240686 (Simulation time: 0 hr 11 min 42 sec) 
Heartbeat CPU 0 instructions: 140000003 cycles: 388610728 heartbeat IPC: 0.241016 cumulative IPC: 0.240723 (Simulation time: 0 hr 12 min 49 sec) 
Heartbeat CPU 0 instructions: 150000000 cycles: 430093775 heartbeat IPC: 0.241062 cumulative IPC: 0.240757 (Simulation time: 0 hr 13 min 53 sec) 
*** Reached end of trace for Core: 0 Repeating trace: traces/spec2k17/srv_45.champsimtrace.xz
Heartbeat CPU 0 instructions: 160000001 cycles: 471381626 heartbeat IPC: 0.242202 cumulative IPC: 0.240887 (Simulation time: 0 hr 14 min 58 sec) 
Heartbeat CPU 0 instructions: 170000001 cycles: 512752718 heartbeat IPC: 0.241715 cumulative IPC: 0.240956 (Simulation time: 0 hr 16 min 2 sec) 
Heartbeat CPU 0 instructions: 180000000 cycles: 554412978 heartbeat IPC: 0.240037 cumulative IPC: 0.240885 (Simulation time: 0 hr 17 min 7 sec) 
*** Reached end of trace for Core: 0 Repeating trace: traces/spec2k17/srv_45.champsimtrace.xz
Heartbeat CPU 0 instructions: 190000001 cycles: 595638638 heartbeat IPC: 0.242567 cumulative IPC: 0.241004 (Simulation time: 0 hr 18 min 11 sec) 
Heartbeat CPU 0 instructions: 200000000 cycles: 637366372 heartbeat IPC: 0.239649 cumulative IPC: 0.240914 (Simulation time: 0 hr 19 min 16 sec) 
Heartbeat CPU 0 instructions: 210000003 cycles: 678750424 heartbeat IPC: 0.241639 cumulative IPC: 0.240959 (Simulation time: 0 hr 20 min 17 sec) 
*** Reached end of trace for Core: 0 Repeating trace: traces/spec2k17/srv_45.champsimtrace.xz
Heartbeat CPU 0 instructions: 220000000 cycles: 720083257 heartbeat IPC: 0.241938 cumulative IPC: 0.241016 (Simulation time: 0 hr 21 min 23 sec) 
Heartbeat CPU 0 instructions: 230000000 cycles: 761676663 heartbeat IPC: 0.240423 cumulative IPC: 0.240983 (Simulation time: 0 hr 22 min 23 sec) 
Heartbeat CPU 0 instructions: 240000000 cycles: 803369689 heartbeat IPC: 0.239848 cumulative IPC: 0.240923 (Simulation time: 0 hr 23 min 32 sec) 
*** Reached end of trace for Core: 0 Repeating trace: traces/spec2k17/srv_45.champsimtrace.xz
Heartbeat CPU 0 instructions: 250000003 cycles: 844651721 heartbeat IPC: 0.242236 cumulative IPC: 0.240988 (Simulation time: 0 hr 24 min 40 sec) 
Finished CPU 0 instructions: 200000002 cycles: 829915276 cumulative IPC: 0.240988 (Simulation time: 0 hr 24 min 40 sec) 

ChampSim completed all CPUs

Region of Interest Statistics

CPU 0 cumulative IPC: 0.240988 instructions: 200000002 cycles: 829915276
ITLB TOTAL     ACCESS:   36381589  HIT:   33633763  MISS:    2747826  HIT %:    92.4472  MISS %:    7.55279   MPKI: 13.7391
ITLB LOAD TRANSLATION ACCESS:   36381589  HIT:   33633763  MISS:    2747826  HIT %:    92.4472  MISS %:    7.55279   MPKI: 13.7391
ITLB PREFETCH  REQUESTED:          0  ISSUED:          0  USEFUL:          0  USELESS:          0
ITLB USEFUL LOAD PREFETCHES:          0 PREFETCH ISSUED TO LOWER LEVEL:          0  ACCURACY: -nan
ITLB TIMELY PREFETCHES:          0 LATE PREFETCHES: 0 DROPPED PREFETCHES: 0
ITLB PREFETCHES SAME FILL-ORIGIN LEVEL: 0 DIFFERENT FILL-ORIGIN LEVEL: 0
ITLB AVERAGE MISS LATENCY: 9.35704 cycles
ITLB RQ	ACCESS:   43041889	FORWARD:          0	MERGED:    5922099	TO_CACHE:   37119790

DTLB TOTAL     ACCESS:   49836384  HIT:   47378722  MISS:    2457662  HIT %:    95.0685  MISS %:    4.93146   MPKI: 12.2883
DTLB LOAD TRANSLATION ACCESS:   49836384  HIT:   47378722  MISS:    2457662  HIT %:    95.0685  MISS %:    4.93146   MPKI: 12.2883
DTLB PREFETCH  REQUESTED:          0  ISSUED:          0  USEFUL:          0  USELESS:          0
DTLB USEFUL LOAD PREFETCHES:          0 PREFETCH ISSUED TO LOWER LEVEL:          0  ACCURACY: -nan
DTLB TIMELY PREFETCHES:          0 LATE PREFETCHES: 0 DROPPED PREFETCHES: 0
DTLB PREFETCHES SAME FILL-ORIGIN LEVEL: 0 DIFFERENT FILL-ORIGIN LEVEL: 0
DTLB AVERAGE MISS LATENCY: 12.9555 cycles
DTLB RQ	ACCESS:   66071352	FORWARD:          0	MERGED:   16100809	TO_CACHE:   49970543

STLB TOTAL     ACCESS:    9814379  HIT:    9702640  MISS:     111739  HIT %:    98.8615  MISS %:    1.13852   MPKI: 0.558695
STLB LOAD TRANSLATION ACCESS:    5205488  HIT:    5099346  MISS:     106142  HIT %:     97.961  MISS %:    2.03904   MPKI: 0.53071
STLB TRANSLATION FROM L1D PREFETCHER ACCESS:    4608891  HIT:    4603294  MISS:       5597  HIT %:    99.8786  MISS %:   0.121439   MPKI: 0.027985
STLB PREFETCH  REQUESTED:          0  ISSUED:          0  USEFUL:       4530  USELESS:       1063
STLB USEFUL LOAD PREFETCHES:       4530 PREFETCH ISSUED TO LOWER LEVEL:          0  ACCURACY: inf
STLB TIMELY PREFETCHES:       4530 LATE PREFETCHES: 86 DROPPED PREFETCHES: 170975
STLB PREFETCHES SAME FILL-ORIGIN LEVEL: 0 DIFFERENT FILL-ORIGIN LEVEL: 0
STLB AVERAGE MISS LATENCY: 23153.4 cycles
STLB RQ	ACCESS:   13737770	FORWARD:          0	MERGED:    3750055	TO_CACHE:    9987715

STLB Hit, L1D data hit: 0
STLB Hit, L2C data hit: 0
STLB Hit, LLC data hit: 0
STLB Hit, LLC data miss: 0
STLB STLB hints to L2: 0
L1D TOTAL     ACCESS:   71359344  HIT:   59064569  MISS:   12294775  HIT %:    82.7706  MISS %:    17.2294   MPKI: 61.4739
L1D LOAD      ACCESS:   39565282  HIT:   35412745  MISS:    4152537  HIT %:    89.5046  MISS %:    10.4954   MPKI: 20.7627
L1D RFO       ACCESS:   23766190  HIT:   22092129  MISS:    1674061  HIT %:    92.9561  MISS %:    7.04388   MPKI: 8.3703
L1D PREFETCH  ACCESS:    8027872  HIT:    1559695  MISS:    6468177  HIT %:    19.4285  MISS %:    80.5715   MPKI: 32.3409
AGUS PREFETCH L1 MISS: 0
L1D PREFETCH  REQUESTED:   17196169  ISSUED:   17195882  USEFUL:     793081  USELESS:    5675081
L1D USEFUL LOAD PREFETCHES:     793081 PREFETCH ISSUED TO LOWER LEVEL:    6525579  ACCURACY: 12.1534
L1D TIMELY PREFETCHES:     793081 LATE PREFETCHES: 50487 DROPPED PREFETCHES: 189983
L1D PREFETCHES SAME FILL-ORIGIN LEVEL: 6525579 DIFFERENT FILL-ORIGIN LEVEL: 0
L1D AVERAGE MISS LATENCY: 1.94506e+06 cycles
L1D RQ	ACCESS:   50611825	FORWARD:          0	MERGED:   10689765	TO_CACHE:   39754775
L1D WQ	ACCESS:   26484793	FORWARD:     168519	MERGED:     168216	TO_CACHE:   26316577
L1D PQ	ACCESS:    8663600	FORWARD:          0	MERGED:     130084	TO_CACHE:    8532282

L1D UNIQUE REGIONS ACCESSED: 0
L1D REGIONS CONFLICTS: 0
L1D Cross Page Prefetch Requests: 4580365
L1D Same Page Prefetch Requests: 5136659
L1D ROI Sum of L1D PQ occupancy: 124652098
L1D PREFETCHES PUSHED FROM L2C: 0
L1I TOTAL     ACCESS:   41305278  HIT:   28151550  MISS:   13153728  HIT %:    68.1548  MISS %:    31.8452   MPKI: 65.7686
L1I LOAD      ACCESS:   41305278  HIT:   28151550  MISS:   13153728  HIT %:    68.1548  MISS %:    31.8452   MPKI: 65.7686
L1I PREFETCH  REQUESTED:          0  ISSUED:          0  USEFUL:          0  USELESS:          0
L1I USEFUL LOAD PREFETCHES:          0 PREFETCH ISSUED TO LOWER LEVEL:          0  ACCURACY: -nan
L1I TIMELY PREFETCHES:          0 LATE PREFETCHES: 0 DROPPED PREFETCHES: 0
L1I PREFETCHES SAME FILL-ORIGIN LEVEL: 0 DIFFERENT FILL-ORIGIN LEVEL: 0
L1I AVERAGE MISS LATENCY: 19.1023 cycles
L1I RQ	ACCESS:   60030772	FORWARD:          0	MERGED:   16988883	TO_CACHE:   43041889

BTB TOTAL     ACCESS:   31973435  HIT:   16686948  MISS:   15286487  HIT %:      52.19  MISS %:      47.81   MPKI: 76.4324
BTB BRANCH_DIRECT_JUMP	ACCESS:    2345713  HIT:    1227110  MISS:    1118603
BTB BRANCH_INDIRECT	ACCESS:   14157353  HIT:    8110275  MISS:    6047078
BTB BRANCH_CONDITIONAL	ACCESS:    4344280  HIT:    3034534  MISS:    1309746
BTB BRANCH_DIRECT_CALL	ACCESS:    4151171  HIT:    2145079  MISS:    2006092
BTB BRANCH_INDIRECT_CALL	ACCESS:    1411897  HIT:     576080  MISS:     835817
BTB BRANCH_RETURN	ACCESS:    5563021  HIT:    1593870  MISS:    3969151
BTB BRANCH_OTHER ACCESS:          0  HIT:          0  MISS:          0

L2C TOTAL     ACCESS:   29092427  HIT:   22640449  MISS:    6451978  HIT %:    77.8225  MISS %:    22.1775   MPKI: 32.2599
L2C LOAD      ACCESS:   17255580  HIT:   14073858  MISS:    3181722  HIT %:    81.5612  MISS %:    18.4388   MPKI: 15.9086
L2C DATA LOAD MPKI: 5.32658
L2C INSTRUCTION LOAD MPKI: 10.582
L2C RFO       ACCESS:    1667028  HIT:     947687  MISS:     719341  HIT %:    56.8489  MISS %:    43.1511   MPKI: 3.5967
L2C PREFETCH  ACCESS:    6525520  HIT:    4251813  MISS:    2273707  HIT %:    65.1567  MISS %:    34.8433   MPKI: 11.3685
AGUS PREFETCH L1 MISS: 0
L2C DATA PREFETCH MPKI: 11.3685
L2C INSTRUCTION PREFETCH MPKI: 0
L2C WRITEBACK ACCESS:    3127980  HIT:    2990766  MISS:     137214  HIT %:    95.6133  MISS %:    4.38666   MPKI: 0.68607
L2C LOAD TRANSLATION ACCESS:     172255  HIT:      80073  MISS:      92182  HIT %:    46.4852  MISS %:    53.5148   MPKI: 0.46091
L2C TRANSLATION FROM L1D PREFETCHER ACCESS:     344064  HIT:     296252  MISS:      47812  HIT %:    86.1037  MISS %:    13.8963   MPKI: 0.23906
L2C PREFETCH  REQUESTED:          0  ISSUED:          0  USEFUL:     142095  USELESS:    2179316
L2C USEFUL LOAD PREFETCHES:     142095 PREFETCH ISSUED TO LOWER LEVEL:    2273707  ACCURACY: 6.24949
L2C TIMELY PREFETCHES:     142095 LATE PREFETCHES: 0 DROPPED PREFETCHES: 0
L2C PREFETCHES SAME FILL-ORIGIN LEVEL: 0 DIFFERENT FILL-ORIGIN LEVEL: 0
L2C AVERAGE MISS LATENCY: 49.3205 cycles
L2C RQ	ACCESS:   19439244	FORWARD:          0	MERGED:          0	TO_CACHE:   19438927
L2C WQ	ACCESS:    3127980	FORWARD:        375	MERGED:          0	TO_CACHE:    3127980
L2C PQ	ACCESS:    6525579	FORWARD:          0	MERGED:          0	TO_CACHE:    6525521

L2C Instructions Evicting Data 1135283
L2C Translations Evicting Data 105373
L2C Data Evicting Data 2866655
L2C Instructions Evicting Instructions 949399
L2C Translations Evicting Instructions 31283
L2C Data Evicting Instructions 1089199
L2C Instructions Evicting Translations 31723
L2C Translations Evicting Translations 3338
L2C Data Evicting Translations 102511
L2C Dense regions hint from L2: 0
PSCL5 TOTAL     ACCESS:     282714  HIT:     282714  MISS:          0  HIT %:        100  MISS %:          0   MPKI: 0
PSCL5 LOAD TRANSLATION ACCESS:     106056  HIT:     106056  MISS:          0  HIT %:        100  MISS %:          0   MPKI: 0
PSCL5 TRANSLATION FROM L1D PREFETCHER ACCESS:     176658  HIT:     176658  MISS:          0  HIT %:        100  MISS %:          0   MPKI: 0
PSCL5 PREFETCH  REQUESTED:          0  ISSUED:          0  USEFUL:          0  USELESS:          0
PSCL5 USEFUL LOAD PREFETCHES:          0 PREFETCH ISSUED TO LOWER LEVEL:          0  ACCURACY: -nan
PSCL5 TIMELY PREFETCHES:          0 LATE PREFETCHES: 0 DROPPED PREFETCHES: 0
PSCL5 PREFETCHES SAME FILL-ORIGIN LEVEL: 0 DIFFERENT FILL-ORIGIN LEVEL: 0

PSCL4 TOTAL     ACCESS:     273210  HIT:     272431  MISS:        779  HIT %:    99.7149  MISS %:   0.285129   MPKI: 0.003895
PSCL4 LOAD TRANSLATION ACCESS:     104250  HIT:     103471  MISS:        779  HIT %:    99.2528  MISS %:   0.747242   MPKI: 0.003895
PSCL4 TRANSLATION FROM L1D PREFETCHER ACCESS:     168960  HIT:     168960  MISS:          0  HIT %:        100  MISS %:          0   MPKI: 0
PSCL4 PREFETCH  REQUESTED:          0  ISSUED:          0  USEFUL:          0  USELESS:          0
PSCL4 USEFUL LOAD PREFETCHES:          0 PREFETCH ISSUED TO LOWER LEVEL:          0  ACCURACY: -nan
PSCL4 TIMELY PREFETCHES:          0 LATE PREFETCHES: 0 DROPPED PREFETCHES: 0
PSCL4 PREFETCHES SAME FILL-ORIGIN LEVEL: 0 DIFFERENT FILL-ORIGIN LEVEL: 0

PSCL3 TOTAL     ACCESS:     201813  HIT:     181946  MISS:      19867  HIT %:    90.1557  MISS %:    9.84426   MPKI: 0.099335
PSCL3 LOAD TRANSLATION ACCESS:      93192  HIT:      73325  MISS:      19867  HIT %:    78.6816  MISS %:    21.3184   MPKI: 0.099335
PSCL3 TRANSLATION FROM L1D PREFETCHER ACCESS:     108621  HIT:     108621  MISS:          0  HIT %:        100  MISS %:          0   MPKI: 0
PSCL3 PREFETCH  REQUESTED:          0  ISSUED:          0  USEFUL:          0  USELESS:          0
PSCL3 USEFUL LOAD PREFETCHES:          0 PREFETCH ISSUED TO LOWER LEVEL:          0  ACCURACY: -nan
PSCL3 TIMELY PREFETCHES:          0 LATE PREFETCHES: 0 DROPPED PREFETCHES: 0
PSCL3 PREFETCHES SAME FILL-ORIGIN LEVEL: 0 DIFFERENT FILL-ORIGIN LEVEL: 0

PSCL2 TOTAL     ACCESS:     170904  HIT:     123681  MISS:      47223  HIT %:    72.3687  MISS %:    27.6313   MPKI: 0.236115
PSCL2 LOAD TRANSLATION ACCESS:     107200  HIT:      59977  MISS:      47223  HIT %:    55.9487  MISS %:    44.0513   MPKI: 0.236115
PSCL2 TRANSLATION FROM L1D PREFETCHER ACCESS:      63704  HIT:      63704  MISS:          0  HIT %:        100  MISS %:          0   MPKI: 0
PSCL2 PREFETCH  REQUESTED:          0  ISSUED:          0  USEFUL:          0  USELESS:          0
PSCL2 USEFUL LOAD PREFETCHES:          0 PREFETCH ISSUED TO LOWER LEVEL:          0  ACCURACY: -nan
PSCL2 TIMELY PREFETCHES:          0 LATE PREFETCHES: 0 DROPPED PREFETCHES: 0
PSCL2 PREFETCHES SAME FILL-ORIGIN LEVEL: 0 DIFFERENT FILL-ORIGIN LEVEL: 0

LLC TOTAL     ACCESS:    7592836  HIT:    6884201  MISS:     708635  HIT %:    90.6671  MISS %:    9.33294   MPKI: 3.54317
LLC LOAD      ACCESS:    3181722  HIT:    2989711  MISS:     192011  HIT %:    93.9652  MISS %:    6.03481   MPKI: 0.960055
LLC RFO       ACCESS:     719336  HIT:     557640  MISS:     161696  HIT %:    77.5215  MISS %:    22.4785   MPKI: 0.80848
LLC PREFETCH  ACCESS:    2273699  HIT:    1948916  MISS:     324783  HIT %:    85.7157  MISS %:    14.2843   MPKI: 1.62391
AGUS PREFETCH L1 MISS: 0
LLC WRITEBACK ACCESS:    1278085  HIT:    1274946  MISS:       3139  HIT %:    99.7544  MISS %:   0.245602   MPKI: 0.015695
LLC LOAD TRANSLATION ACCESS:      92182  HIT:      68872  MISS:      23310  HIT %:    74.7131  MISS %:    25.2869   MPKI: 0.11655
LLC TRANSLATION FROM L1D PREFETCHER ACCESS:      47812  HIT:      44116  MISS:       3696  HIT %:    92.2697  MISS %:    7.73028   MPKI: 0.01848
LLC PREFETCH  REQUESTED:          0  ISSUED:          0  USEFUL:      26335  USELESS:     301346
LLC USEFUL LOAD PREFETCHES:      26335 PREFETCH ISSUED TO LOWER LEVEL:     324783  ACCURACY: 8.10849
LLC TIMELY PREFETCHES:      26335 LATE PREFETCHES: 0 DROPPED PREFETCHES: 0
LLC PREFETCHES SAME FILL-ORIGIN LEVEL: 0 DIFFERENT FILL-ORIGIN LEVEL: 0
LLC AVERAGE MISS LATENCY: 181.713 cycles
LLC RQ	ACCESS:    4041057	FORWARD:          0	MERGED:          0	TO_CACHE:    4041052
LLC WQ	ACCESS:    1278085	FORWARD:         13	MERGED:          0	TO_CACHE:    1278085
LLC PQ	ACCESS:    2273707	FORWARD:          0	MERGED:          0	TO_CACHE:    2273699

LLC Dense regions hint to LLC: 0

RAW hits: 1593560
Loads Generated: 52205386
Loads sent to L1D: 50611825
Stores Generated: 26484788
Stores sent to L1D: 26484793
Major fault: 0 Minor fault: 6405
Allocated PAGES: 6405
CPU 0 L1D 
Prefetch count 7327854 BOP and RL 

DRAM Statistics
 CHANNEL 0
 RQ ROW_BUFFER_HIT:     220605  ROW_BUFFER_MISS:     484887
 DBUS_CONGESTED:        363
 WQ ROW_BUFFER_HIT:      41337  ROW_BUFFER_MISS:     254777  FULL:          0

 AVG_CONGESTED_CYCLE: 4
 All warmup complete: 2
Channel 0 Bank busy for read cycles: 0
Channel 0 Bank busy for write cycles: 0
Channel 0
Rank 0
0banks busy for read cycles: 750959280
0banks busy for write cycles: 123070
1banks busy for read cycles: 32997743
1banks busy for write cycles: 16552055
2banks busy for read cycles: 13103309
2banks busy for write cycles: 5242365
3banks busy for read cycles: 2471173
3banks busy for write cycles: 2057701
4banks busy for read cycles: 826840
4banks busy for write cycles: 952983
5banks busy for read cycles: 182781
5banks busy for write cycles: 536989
6banks busy for read cycles: 176679
6banks busy for write cycles: 331942
7banks busy for read cycles: 217316
7banks busy for write cycles: 331276
8banks busy for read cycles: 1315221
8banks busy for write cycles: 1536554

CPU 0 Branch Prediction Accuracy: 99.9107% MPKI: 0.163205 Average ROB Occupancy at Mispredict: 42.7091
Branch types
NOT_BRANCH: 163456052 81.728%
BRANCH_DIRECT_JUMP: 2345713 1.17286%
BRANCH_INDIRECT: 14157353 7.07868%
BRANCH_CONDITIONAL: 8914734 4.45737%
BRANCH_DIRECT_CALL: 4151171 2.07559%
BRANCH_INDIRECT_CALL: 1411897 0.705948%
BRANCH_RETURN: 5563021 2.78151%
BRANCH_OTHER: 0 0%

DRAM PAGES: 1048576
Allocated PAGES: 6405
