
*** ChampSim Multicore Out-of-Order Simulator ***

Warmup Instructions: 50000000
Simulation Instructions: 200000000
Number of CPUs: 1
LLC sets: 2048
LLC ways: 16
Off-chip DRAM Size: 4096 MB Channels: 1 Width: 64-bit Data Rate: 6400 MT/s
CPU 0 runs traces/spec2k17/server_011.champsimtrace.xz
.xz
BTB has LRU replacement policy
ITLB has LRU replacement policy
DTLB has LRU replacement policy
STLB has LRU replacement policy
L1I has LRU replacement policy
L1D has LRU replacement policy
CPU 0 L2C best offset prefetcher
Initialize SRRIP state for L2C
Initialize DRRIP state for LLC
Heartbeat CPU 0 instructions: 10000002 cycles: 2784570 heartbeat IPC: 3.59122 cumulative IPC: 3.59122 (Simulation time: 0 hr 0 min 35 sec) 
Heartbeat CPU 0 instructions: 20000000 cycles: 5564936 heartbeat IPC: 3.59665 cumulative IPC: 3.59393 (Simulation time: 0 hr 1 min 11 sec) 
Heartbeat CPU 0 instructions: 30000000 cycles: 8371325 heartbeat IPC: 3.5633 cumulative IPC: 3.58366 (Simulation time: 0 hr 1 min 48 sec) 
Heartbeat CPU 0 instructions: 40000001 cycles: 11151835 heartbeat IPC: 3.59646 cumulative IPC: 3.58685 (Simulation time: 0 hr 2 min 24 sec) 
Heartbeat CPU 0 instructions: 50000000 cycles: 13934532 heartbeat IPC: 3.59364 cumulative IPC: 3.58821 (Simulation time: 0 hr 2 min 56 sec) 

Warmup complete CPU 0 instructions: 50000004 cycles: 13934533 (Simulation time: 0 hr 2 min 56 sec) 

Heartbeat CPU 0 instructions: 60000001 cycles: 38257774 heartbeat IPC: 0.411129 cumulative IPC: 0.411129 (Simulation time: 0 hr 3 min 48 sec) 
Heartbeat CPU 0 instructions: 70000000 cycles: 62476398 heartbeat IPC: 0.412905 cumulative IPC: 0.412015 (Simulation time: 0 hr 4 min 37 sec) 
Heartbeat CPU 0 instructions: 80000001 cycles: 88171762 heartbeat IPC: 0.389175 cumulative IPC: 0.40411 (Simulation time: 0 hr 5 min 26 sec) 
Heartbeat CPU 0 instructions: 90000003 cycles: 114485032 heartbeat IPC: 0.380036 cumulative IPC: 0.39781 (Simulation time: 0 hr 6 min 15 sec) 
Heartbeat CPU 0 instructions: 100000003 cycles: 137760731 heartbeat IPC: 0.429633 cumulative IPC: 0.403792 (Simulation time: 0 hr 7 min 7 sec) 
*** Reached end of trace for Core: 0 Repeating trace: traces/spec2k17/server_011.champsimtrace.xz
Heartbeat CPU 0 instructions: 110000000 cycles: 161636815 heartbeat IPC: 0.418829 cumulative IPC: 0.406223 (Simulation time: 0 hr 7 min 59 sec) 
Heartbeat CPU 0 instructions: 120000003 cycles: 186099518 heartbeat IPC: 0.408786 cumulative IPC: 0.406587 (Simulation time: 0 hr 8 min 49 sec) 
Heartbeat CPU 0 instructions: 130000000 cycles: 210677420 heartbeat IPC: 0.406869 cumulative IPC: 0.406622 (Simulation time: 0 hr 9 min 41 sec) 
Heartbeat CPU 0 instructions: 140000002 cycles: 237490686 heartbeat IPC: 0.37295 cumulative IPC: 0.402583 (Simulation time: 0 hr 10 min 32 sec) 
Heartbeat CPU 0 instructions: 150000000 cycles: 262000759 heartbeat IPC: 0.407995 cumulative IPC: 0.403118 (Simulation time: 0 hr 11 min 25 sec) 
Heartbeat CPU 0 instructions: 160000002 cycles: 286107385 heartbeat IPC: 0.414824 cumulative IPC: 0.404155 (Simulation time: 0 hr 12 min 13 sec) 
Heartbeat CPU 0 instructions: 170000000 cycles: 310236343 heartbeat IPC: 0.41444 cumulative IPC: 0.404992 (Simulation time: 0 hr 13 min 1 sec) 
Heartbeat CPU 0 instructions: 180000002 cycles: 336999287 heartbeat IPC: 0.373651 cumulative IPC: 0.402396 (Simulation time: 0 hr 13 min 54 sec) 
Heartbeat CPU 0 instructions: 190000001 cycles: 361968815 heartbeat IPC: 0.400488 cumulative IPC: 0.402259 (Simulation time: 0 hr 14 min 44 sec) 
Heartbeat CPU 0 instructions: 200000002 cycles: 385340624 heartbeat IPC: 0.427866 cumulative IPC: 0.403871 (Simulation time: 0 hr 15 min 36 sec) 
*** Reached end of trace for Core: 0 Repeating trace: traces/spec2k17/server_011.champsimtrace.xz
Heartbeat CPU 0 instructions: 210000003 cycles: 409100126 heartbeat IPC: 0.420884 cumulative IPC: 0.404894 (Simulation time: 0 hr 16 min 28 sec) 
Heartbeat CPU 0 instructions: 220000000 cycles: 433685221 heartbeat IPC: 0.40675 cumulative IPC: 0.405002 (Simulation time: 0 hr 17 min 19 sec) 
Heartbeat CPU 0 instructions: 230000002 cycles: 457726804 heartbeat IPC: 0.415946 cumulative IPC: 0.405595 (Simulation time: 0 hr 18 min 9 sec) 
Heartbeat CPU 0 instructions: 240000001 cycles: 484921434 heartbeat IPC: 0.36772 cumulative IPC: 0.403408 (Simulation time: 0 hr 19 min 1 sec) 
Heartbeat CPU 0 instructions: 250000000 cycles: 508944587 heartbeat IPC: 0.416265 cumulative IPC: 0.404032 (Simulation time: 0 hr 19 min 54 sec) 
Finished CPU 0 instructions: 200000000 cycles: 495010057 cumulative IPC: 0.404032 (Simulation time: 0 hr 19 min 54 sec) 

ChampSim completed all CPUs

Region of Interest Statistics

CPU 0 cumulative IPC: 0.404032 instructions: 200000000 cycles: 495010057
ITLB TOTAL     ACCESS:   32107345  HIT:   31346066  MISS:     761279  HIT %:     97.629  MISS %:    2.37104   MPKI: 3.8064
ITLB LOAD TRANSLATION ACCESS:   32107345  HIT:   31346066  MISS:     761279  HIT %:     97.629  MISS %:    2.37104   MPKI: 3.8064
ITLB PREFETCH  REQUESTED:          0  ISSUED:          0  USEFUL:          0  USELESS:          0
ITLB USEFUL LOAD PREFETCHES:          0 PREFETCH ISSUED TO LOWER LEVEL:          0  ACCURACY: -nan
ITLB TIMELY PREFETCHES:          0 LATE PREFETCHES: 0 DROPPED PREFETCHES: 0
ITLB PREFETCHES SAME FILL-ORIGIN LEVEL: 0 DIFFERENT FILL-ORIGIN LEVEL: 0
ITLB AVERAGE MISS LATENCY: 16.0046 cycles
ITLB RQ	ACCESS:   38678999	FORWARD:          0	MERGED:    6386886	TO_CACHE:   32292113

DTLB TOTAL     ACCESS:   38623717  HIT:   36249532  MISS:    2374185  HIT %:     93.853  MISS %:    6.14696   MPKI: 11.8709
DTLB LOAD TRANSLATION ACCESS:   38623717  HIT:   36249532  MISS:    2374185  HIT %:     93.853  MISS %:    6.14696   MPKI: 11.8709
DTLB PREFETCH  REQUESTED:          0  ISSUED:          0  USEFUL:          0  USELESS:          0
DTLB USEFUL LOAD PREFETCHES:          0 PREFETCH ISSUED TO LOWER LEVEL:          0  ACCURACY: -nan
DTLB TIMELY PREFETCHES:          0 LATE PREFETCHES: 0 DROPPED PREFETCHES: 0
DTLB PREFETCHES SAME FILL-ORIGIN LEVEL: 0 DIFFERENT FILL-ORIGIN LEVEL: 0
DTLB AVERAGE MISS LATENCY: 14.6525 cycles
DTLB RQ	ACCESS:   49049808	FORWARD:          0	MERGED:   10286760	TO_CACHE:   38763048

STLB TOTAL     ACCESS:    3135464  HIT:    2709559  MISS:     425905  HIT %:    86.4165  MISS %:    13.5835   MPKI: 2.12953
STLB LOAD TRANSLATION ACCESS:    3135464  HIT:    2709559  MISS:     425905  HIT %:    86.4165  MISS %:    13.5835   MPKI: 2.12953
STLB PREFETCH  REQUESTED:          0  ISSUED:          0  USEFUL:          0  USELESS:          0
STLB USEFUL LOAD PREFETCHES:          0 PREFETCH ISSUED TO LOWER LEVEL:          0  ACCURACY: -nan
STLB TIMELY PREFETCHES:          0 LATE PREFETCHES: 0 DROPPED PREFETCHES: 0
STLB PREFETCHES SAME FILL-ORIGIN LEVEL: 0 DIFFERENT FILL-ORIGIN LEVEL: 0
STLB AVERAGE MISS LATENCY: 43.8475 cycles
STLB RQ	ACCESS:    3135464	FORWARD:          0	MERGED:          0	TO_CACHE:    3135464

STLB Hit, L1D data hit: 0
STLB Hit, L2C data hit: 0
STLB Hit, LLC data hit: 0
STLB Hit, LLC data miss: 0
STLB STLB hints to L2: 0
L1D TOTAL     ACCESS:   48521888  HIT:   46014879  MISS:    2507009  HIT %:    94.8332  MISS %:    5.16676   MPKI: 12.535
L1D LOAD      ACCESS:   29232160  HIT:   27084054  MISS:    2148106  HIT %:    92.6516  MISS %:    7.34843   MPKI: 10.7405
L1D RFO       ACCESS:   19289728  HIT:   18930825  MISS:     358903  HIT %:    98.1394  MISS %:    1.86059   MPKI: 1.79452
L1D PREFETCH  REQUESTED:          0  ISSUED:          0  USEFUL:          0  USELESS:          0
L1D USEFUL LOAD PREFETCHES:          0 PREFETCH ISSUED TO LOWER LEVEL:          0  ACCURACY: -nan
L1D TIMELY PREFETCHES:          0 LATE PREFETCHES: 0 DROPPED PREFETCHES: 0
L1D PREFETCHES SAME FILL-ORIGIN LEVEL: 0 DIFFERENT FILL-ORIGIN LEVEL: 0
L1D AVERAGE MISS LATENCY: 35.5305 cycles
L1D RQ	ACCESS:   43856307	FORWARD:          0	MERGED:   14312899	TO_CACHE:   29330263
L1D WQ	ACCESS:   19987410	FORWARD:     213145	MERGED:     267865	TO_CACHE:   19719545

L1D UNIQUE REGIONS ACCESSED: 0
L1D REGIONS CONFLICTS: 0
L1D Cross Page Prefetch Requests: 0
L1D Same Page Prefetch Requests: 0
L1D ROI Sum of L1D PQ occupancy: 0
L1D PREFETCHES PUSHED FROM L2C: 0
L1I TOTAL     ACCESS:   37140945  HIT:   32272681  MISS:    4868264  HIT %:    86.8925  MISS %:    13.1075   MPKI: 24.3413
L1I LOAD      ACCESS:   37140945  HIT:   32272681  MISS:    4868264  HIT %:    86.8925  MISS %:    13.1075   MPKI: 24.3413
L1I PREFETCH  REQUESTED:          0  ISSUED:          0  USEFUL:          0  USELESS:          0
L1I USEFUL LOAD PREFETCHES:          0 PREFETCH ISSUED TO LOWER LEVEL:          0  ACCURACY: -nan
L1I TIMELY PREFETCHES:          0 LATE PREFETCHES: 0 DROPPED PREFETCHES: 0
L1I PREFETCHES SAME FILL-ORIGIN LEVEL: 0 DIFFERENT FILL-ORIGIN LEVEL: 0
L1I AVERAGE MISS LATENCY: 30.6942 cycles
L1I RQ	ACCESS:   57580910	FORWARD:          0	MERGED:   18901911	TO_CACHE:   38678999

BTB TOTAL     ACCESS:   23884119  HIT:   18824312  MISS:    5059807  HIT %:    78.8152  MISS %:    21.1848   MPKI: 25.299
BTB BRANCH_DIRECT_JUMP	ACCESS:    1754249  HIT:    1463659  MISS:     290590
BTB BRANCH_INDIRECT	ACCESS:    9786566  HIT:    7419553  MISS:    2367013
BTB BRANCH_CONDITIONAL	ACCESS:    5653971  HIT:    5194175  MISS:     459796
BTB BRANCH_DIRECT_CALL	ACCESS:    2532331  HIT:    1980726  MISS:     551605
BTB BRANCH_INDIRECT_CALL	ACCESS:     808488  HIT:     692902  MISS:     115586
BTB BRANCH_RETURN	ACCESS:    3348514  HIT:    2073297  MISS:    1275217
BTB BRANCH_OTHER ACCESS:          0  HIT:          0  MISS:          0

L2C TOTAL     ACCESS:    9923928  HIT:    5461375  MISS:    4462553  HIT %:    55.0324  MISS %:    44.9676   MPKI: 22.3128
L2C LOAD      ACCESS:    7016320  HIT:    3850557  MISS:    3165763  HIT %:      54.88  MISS %:      45.12   MPKI: 15.8288
L2C DATA LOAD MPKI: 4.25085
L2C INSTRUCTION LOAD MPKI: 11.578
L2C RFO       ACCESS:     358903  HIT:     186596  MISS:     172307  HIT %:    51.9906  MISS %:    48.0094   MPKI: 0.861535
L2C PREFETCH  ACCESS:    1016954  HIT:     152068  MISS:     864886  HIT %:    14.9533  MISS %:    85.0467   MPKI: 4.32443
AGUS PREFETCH L1 MISS: 0
L2C DATA PREFETCH MPKI: 4.32443
L2C INSTRUCTION PREFETCH MPKI: 0
L2C WRITEBACK ACCESS:     991594  HIT:     951209  MISS:      40385  HIT %:    95.9273  MISS %:    4.07274   MPKI: 0.201925
L2C LOAD TRANSLATION ACCESS:     540157  HIT:     320945  MISS:     219212  HIT %:     59.417  MISS %:     40.583   MPKI: 1.09606
L2C PREFETCH  REQUESTED:    1093515  ISSUED:    1093513  USEFUL:     260090  USELESS:     604772
L2C USEFUL LOAD PREFETCHES:     260090 PREFETCH ISSUED TO LOWER LEVEL:     897408  ACCURACY: 28.9824
L2C TIMELY PREFETCHES:     260090 LATE PREFETCHES: 32522 DROPPED PREFETCHES: 0
L2C PREFETCHES SAME FILL-ORIGIN LEVEL: 897408 DIFFERENT FILL-ORIGIN LEVEL: 0
L2C AVERAGE MISS LATENCY: 46.933 cycles
L2C RQ	ACCESS:    7915430	FORWARD:          0	MERGED:          0	TO_CACHE:    7915380
L2C WQ	ACCESS:     991594	FORWARD:         50	MERGED:          0	TO_CACHE:     991594
L2C PQ	ACCESS:    1093513	FORWARD:          0	MERGED:          1	TO_CACHE:    1093512

L2C Instructions Evicting Data 991181
L2C Translations Evicting Data 98029
L2C Data Evicting Data 820784
L2C Instructions Evicting Instructions 1212573
L2C Translations Evicting Instructions 111573
L2C Data Evicting Instructions 970872
L2C Instructions Evicting Translations 111838
L2C Translations Evicting Translations 9610
L2C Data Evicting Translations 95708
L2C Dense regions hint from L2: 0
PSCL5 TOTAL     ACCESS:     425905  HIT:     425905  MISS:          0  HIT %:        100  MISS %:          0   MPKI: 0
PSCL5 LOAD TRANSLATION ACCESS:     425905  HIT:     425905  MISS:          0  HIT %:        100  MISS %:          0   MPKI: 0
PSCL5 PREFETCH  REQUESTED:          0  ISSUED:          0  USEFUL:          0  USELESS:          0
PSCL5 USEFUL LOAD PREFETCHES:          0 PREFETCH ISSUED TO LOWER LEVEL:          0  ACCURACY: -nan
PSCL5 TIMELY PREFETCHES:          0 LATE PREFETCHES: 0 DROPPED PREFETCHES: 0
PSCL5 PREFETCHES SAME FILL-ORIGIN LEVEL: 0 DIFFERENT FILL-ORIGIN LEVEL: 0

PSCL4 TOTAL     ACCESS:     408206  HIT:     406879  MISS:       1327  HIT %:    99.6749  MISS %:   0.325081   MPKI: 0.006635
PSCL4 LOAD TRANSLATION ACCESS:     408206  HIT:     406879  MISS:       1327  HIT %:    99.6749  MISS %:   0.325081   MPKI: 0.006635
PSCL4 PREFETCH  REQUESTED:          0  ISSUED:          0  USEFUL:          0  USELESS:          0
PSCL4 USEFUL LOAD PREFETCHES:          0 PREFETCH ISSUED TO LOWER LEVEL:          0  ACCURACY: -nan
PSCL4 TIMELY PREFETCHES:          0 LATE PREFETCHES: 0 DROPPED PREFETCHES: 0
PSCL4 PREFETCHES SAME FILL-ORIGIN LEVEL: 0 DIFFERENT FILL-ORIGIN LEVEL: 0

PSCL3 TOTAL     ACCESS:     422523  HIT:     419046  MISS:       3477  HIT %:    99.1771  MISS %:   0.822914   MPKI: 0.017385
PSCL3 LOAD TRANSLATION ACCESS:     422523  HIT:     419046  MISS:       3477  HIT %:    99.1771  MISS %:   0.822914   MPKI: 0.017385
PSCL3 PREFETCH  REQUESTED:          0  ISSUED:          0  USEFUL:          0  USELESS:          0
PSCL3 USEFUL LOAD PREFETCHES:          0 PREFETCH ISSUED TO LOWER LEVEL:          0  ACCURACY: -nan
PSCL3 TIMELY PREFETCHES:          0 LATE PREFETCHES: 0 DROPPED PREFETCHES: 0
PSCL3 PREFETCHES SAME FILL-ORIGIN LEVEL: 0 DIFFERENT FILL-ORIGIN LEVEL: 0

PSCL2 TOTAL     ACCESS:     425905  HIT:     316423  MISS:     109482  HIT %:    74.2943  MISS %:    25.7057   MPKI: 0.54741
PSCL2 LOAD TRANSLATION ACCESS:     425905  HIT:     316423  MISS:     109482  HIT %:    74.2943  MISS %:    25.7057   MPKI: 0.54741
PSCL2 PREFETCH  REQUESTED:          0  ISSUED:          0  USEFUL:          0  USELESS:          0
PSCL2 USEFUL LOAD PREFETCHES:          0 PREFETCH ISSUED TO LOWER LEVEL:          0  ACCURACY: -nan
PSCL2 TIMELY PREFETCHES:          0 LATE PREFETCHES: 0 DROPPED PREFETCHES: 0
PSCL2 PREFETCHES SAME FILL-ORIGIN LEVEL: 0 DIFFERENT FILL-ORIGIN LEVEL: 0

LLC TOTAL     ACCESS:    4911877  HIT:    4395445  MISS:     516432  HIT %:    89.4861  MISS %:    10.5139   MPKI: 2.58216
LLC LOAD      ACCESS:    3133774  HIT:    2989185  MISS:     144589  HIT %:    95.3861  MISS %:    4.61389   MPKI: 0.722945
LLC RFO       ACCESS:     171772  HIT:     109382  MISS:      62390  HIT %:    63.6786  MISS %:    36.3214   MPKI: 0.31195
LLC PREFETCH  ACCESS:     897408  HIT:     608657  MISS:     288751  HIT %:    67.8239  MISS %:    32.1761   MPKI: 1.44375
AGUS PREFETCH L1 MISS: 0
LLC WRITEBACK ACCESS:     489712  HIT:     479054  MISS:      10658  HIT %:    97.8236  MISS %:    2.17638   MPKI: 0.05329
LLC LOAD TRANSLATION ACCESS:     219211  HIT:     209167  MISS:      10044  HIT %:    95.4181  MISS %:    4.58189   MPKI: 0.05022
LLC PREFETCH  REQUESTED:          0  ISSUED:          0  USEFUL:      13666  USELESS:     274437
LLC USEFUL LOAD PREFETCHES:      13666 PREFETCH ISSUED TO LOWER LEVEL:     288751  ACCURACY: 4.7328
LLC TIMELY PREFETCHES:      13666 LATE PREFETCHES: 0 DROPPED PREFETCHES: 0
LLC PREFETCHES SAME FILL-ORIGIN LEVEL: 0 DIFFERENT FILL-ORIGIN LEVEL: 0
LLC AVERAGE MISS LATENCY: 150.516 cycles
LLC RQ	ACCESS:    3524760	FORWARD:          0	MERGED:          0	TO_CACHE:    3524757
LLC WQ	ACCESS:     489712	FORWARD:          3	MERGED:          0	TO_CACHE:     489712
LLC PQ	ACCESS:     897408	FORWARD:          0	MERGED:          0	TO_CACHE:     897408

LLC Dense regions hint to LLC: 0

RAW hits: 2514856
Loads Generated: 46371163
Loads sent to L1D: 43856307
Stores Generated: 19987388
Stores sent to L1D: 19987410
Major fault: 0 Minor fault: 7361
Allocated PAGES: 7361
CPU 0 L2C best offset prefetcher final stats

DRAM Statistics
 CHANNEL 0
 RQ ROW_BUFFER_HIT:     103577  ROW_BUFFER_MISS:     402194
 DBUS_CONGESTED:        209
 WQ ROW_BUFFER_HIT:      34278  ROW_BUFFER_MISS:     203234  FULL:          0

 AVG_CONGESTED_CYCLE: 5
 All warmup complete: 2
Channel 0 Bank busy for read cycles: 0
Channel 0 Bank busy for write cycles: 0
Channel 0
Rank 0
0banks busy for read cycles: 416550015
0banks busy for write cycles: 137336
1banks busy for read cycles: 39490897
1banks busy for write cycles: 19338742
2banks busy for read cycles: 8741035
2banks busy for write cycles: 4838620
3banks busy for read cycles: 1571022
3banks busy for write cycles: 1737215
4banks busy for read cycles: 509281
4banks busy for write cycles: 798782
5banks busy for read cycles: 139487
5banks busy for write cycles: 432841
6banks busy for read cycles: 60440
6banks busy for write cycles: 258782
7banks busy for read cycles: 39092
7banks busy for write cycles: 164946
8banks busy for read cycles: 57788
8banks busy for write cycles: 143737

CPU 0 Branch Prediction Accuracy: 98.8611% MPKI: 2.07212 Average ROB Occupancy at Mispredict: 12.519
Branch types
NOT_BRANCH: 163610883 81.8054%
BRANCH_DIRECT_JUMP: 1754249 0.877124%
BRANCH_INDIRECT: 9786566 4.89328%
BRANCH_CONDITIONAL: 18158639 9.07932%
BRANCH_DIRECT_CALL: 2532331 1.26617%
BRANCH_INDIRECT_CALL: 808488 0.404244%
BRANCH_RETURN: 3348514 1.67426%
BRANCH_OTHER: 0 0%

DRAM PAGES: 1048576
Allocated PAGES: 7361
