
*** ChampSim Multicore Out-of-Order Simulator ***

Warmup Instructions: 50000000
Simulation Instructions: 200000000
Number of CPUs: 1
LLC sets: 2048
LLC ways: 16
Off-chip DRAM Size: 4096 MB Channels: 1 Width: 64-bit Data Rate: 6400 MT/s
CPU 0 runs traces/spec2k17/server_022.champsimtrace.xz
.xz
BTB has LRU replacement policy
ITLB has LRU replacement policy
DTLB has LRU replacement policy
STLB has LRU replacement policy
L1I has LRU replacement policy
L1D has LRU replacement policy
CPU 0 L2C best offset prefetcher
Initialize SRRIP state for L2C
Initialize DRRIP state for LLC
Heartbeat CPU 0 instructions: 10000001 cycles: 2939507 heartbeat IPC: 3.40193 cumulative IPC: 3.40193 (Simulation time: 0 hr 0 min 40 sec) 
Heartbeat CPU 0 instructions: 20000003 cycles: 5882599 heartbeat IPC: 3.39779 cumulative IPC: 3.39986 (Simulation time: 0 hr 1 min 24 sec) 
Heartbeat CPU 0 instructions: 30000000 cycles: 8819588 heartbeat IPC: 3.40485 cumulative IPC: 3.40152 (Simulation time: 0 hr 2 min 3 sec) 
Heartbeat CPU 0 instructions: 40000002 cycles: 11760556 heartbeat IPC: 3.40024 cumulative IPC: 3.4012 (Simulation time: 0 hr 2 min 41 sec) 
Heartbeat CPU 0 instructions: 50000002 cycles: 14700988 heartbeat IPC: 3.40086 cumulative IPC: 3.40113 (Simulation time: 0 hr 3 min 19 sec) 

Warmup complete CPU 0 instructions: 50000002 cycles: 14700988 (Simulation time: 0 hr 3 min 19 sec) 

Heartbeat CPU 0 instructions: 60000002 cycles: 34660234 heartbeat IPC: 0.501021 cumulative IPC: 0.501021 (Simulation time: 0 hr 4 min 27 sec) 
Heartbeat CPU 0 instructions: 70000000 cycles: 54575743 heartbeat IPC: 0.502121 cumulative IPC: 0.50157 (Simulation time: 0 hr 5 min 33 sec) 
Heartbeat CPU 0 instructions: 80000003 cycles: 74405173 heartbeat IPC: 0.504301 cumulative IPC: 0.502477 (Simulation time: 0 hr 6 min 38 sec) 
Heartbeat CPU 0 instructions: 90000002 cycles: 93364714 heartbeat IPC: 0.527439 cumulative IPC: 0.508494 (Simulation time: 0 hr 7 min 45 sec) 
Heartbeat CPU 0 instructions: 100000000 cycles: 112400760 heartbeat IPC: 0.525319 cumulative IPC: 0.511772 (Simulation time: 0 hr 8 min 51 sec) 
*** Reached end of trace for Core: 0 Repeating trace: traces/spec2k17/server_022.champsimtrace.xz
Heartbeat CPU 0 instructions: 110000000 cycles: 131131177 heartbeat IPC: 0.533891 cumulative IPC: 0.51533 (Simulation time: 0 hr 9 min 55 sec) 
Heartbeat CPU 0 instructions: 120000001 cycles: 149928762 heartbeat IPC: 0.531983 cumulative IPC: 0.517645 (Simulation time: 0 hr 11 min 1 sec) 
Heartbeat CPU 0 instructions: 130000000 cycles: 168644126 heartbeat IPC: 0.53432 cumulative IPC: 0.519672 (Simulation time: 0 hr 12 min 7 sec) 
Heartbeat CPU 0 instructions: 140000000 cycles: 187362764 heartbeat IPC: 0.534227 cumulative IPC: 0.52125 (Simulation time: 0 hr 13 min 13 sec) 
Heartbeat CPU 0 instructions: 150000000 cycles: 206118025 heartbeat IPC: 0.533184 cumulative IPC: 0.52242 (Simulation time: 0 hr 14 min 18 sec) 
Heartbeat CPU 0 instructions: 160000001 cycles: 225043900 heartbeat IPC: 0.528377 cumulative IPC: 0.522956 (Simulation time: 0 hr 15 min 22 sec) 
Heartbeat CPU 0 instructions: 170000001 cycles: 243743224 heartbeat IPC: 0.534779 cumulative IPC: 0.523921 (Simulation time: 0 hr 16 min 28 sec) 
Heartbeat CPU 0 instructions: 180000003 cycles: 262478795 heartbeat IPC: 0.533744 cumulative IPC: 0.524664 (Simulation time: 0 hr 17 min 35 sec) 
Heartbeat CPU 0 instructions: 190000003 cycles: 281098957 heartbeat IPC: 0.537052 cumulative IPC: 0.52553 (Simulation time: 0 hr 18 min 37 sec) 
Heartbeat CPU 0 instructions: 200000002 cycles: 299765913 heartbeat IPC: 0.535706 cumulative IPC: 0.526196 (Simulation time: 0 hr 19 min 40 sec) 
Heartbeat CPU 0 instructions: 210000002 cycles: 318553674 heartbeat IPC: 0.532261 cumulative IPC: 0.526571 (Simulation time: 0 hr 20 min 43 sec) 
*** Reached end of trace for Core: 0 Repeating trace: traces/spec2k17/server_022.champsimtrace.xz
Heartbeat CPU 0 instructions: 220000000 cycles: 337281666 heartbeat IPC: 0.53396 cumulative IPC: 0.527 (Simulation time: 0 hr 21 min 49 sec) 
Heartbeat CPU 0 instructions: 230000003 cycles: 356074668 heartbeat IPC: 0.532113 cumulative IPC: 0.527281 (Simulation time: 0 hr 22 min 54 sec) 
Heartbeat CPU 0 instructions: 240000000 cycles: 374764319 heartbeat IPC: 0.535055 cumulative IPC: 0.527685 (Simulation time: 0 hr 23 min 59 sec) 
Heartbeat CPU 0 instructions: 250000002 cycles: 393474894 heartbeat IPC: 0.534457 cumulative IPC: 0.528019 (Simulation time: 0 hr 25 min 6 sec) 
Finished CPU 0 instructions: 200000000 cycles: 378773906 cumulative IPC: 0.528019 (Simulation time: 0 hr 25 min 6 sec) 

ChampSim completed all CPUs

Region of Interest Statistics

CPU 0 cumulative IPC: 0.528019 instructions: 200000000 cycles: 378773906
ITLB TOTAL     ACCESS:   33737830  HIT:   32195111  MISS:    1542719  HIT %:    95.4273  MISS %:    4.57267   MPKI: 7.71359
ITLB LOAD TRANSLATION ACCESS:   33737830  HIT:   32195111  MISS:    1542719  HIT %:    95.4273  MISS %:    4.57267   MPKI: 7.71359
ITLB PREFETCH  REQUESTED:          0  ISSUED:          0  USEFUL:          0  USELESS:          0
ITLB USEFUL LOAD PREFETCHES:          0 PREFETCH ISSUED TO LOWER LEVEL:          0  ACCURACY: -nan
ITLB TIMELY PREFETCHES:          0 LATE PREFETCHES: 0 DROPPED PREFETCHES: 0
ITLB PREFETCHES SAME FILL-ORIGIN LEVEL: 0 DIFFERENT FILL-ORIGIN LEVEL: 0
ITLB AVERAGE MISS LATENCY: 9.20987 cycles
ITLB RQ	ACCESS:   40664769	FORWARD:          0	MERGED:    6430836	TO_CACHE:   34233933

DTLB TOTAL     ACCESS:   40089370  HIT:   38565386  MISS:    1523984  HIT %:    96.1985  MISS %:    3.80147   MPKI: 7.61992
DTLB LOAD TRANSLATION ACCESS:   40089370  HIT:   38565386  MISS:    1523984  HIT %:    96.1985  MISS %:    3.80147   MPKI: 7.61992
DTLB PREFETCH  REQUESTED:          0  ISSUED:          0  USEFUL:          0  USELESS:          0
DTLB USEFUL LOAD PREFETCHES:          0 PREFETCH ISSUED TO LOWER LEVEL:          0  ACCURACY: -nan
DTLB TIMELY PREFETCHES:          0 LATE PREFETCHES: 0 DROPPED PREFETCHES: 0
DTLB PREFETCHES SAME FILL-ORIGIN LEVEL: 0 DIFFERENT FILL-ORIGIN LEVEL: 0
DTLB AVERAGE MISS LATENCY: 15.4653 cycles
DTLB RQ	ACCESS:   61272901	FORWARD:          0	MERGED:   20780122	TO_CACHE:   40492779

STLB TOTAL     ACCESS:    3066703  HIT:    2993683  MISS:      73020  HIT %:    97.6189  MISS %:    2.38106   MPKI: 0.3651
STLB LOAD TRANSLATION ACCESS:    3066703  HIT:    2993683  MISS:      73020  HIT %:    97.6189  MISS %:    2.38106   MPKI: 0.3651
STLB PREFETCH  REQUESTED:          0  ISSUED:          0  USEFUL:          0  USELESS:          0
STLB USEFUL LOAD PREFETCHES:          0 PREFETCH ISSUED TO LOWER LEVEL:          0  ACCURACY: -nan
STLB TIMELY PREFETCHES:          0 LATE PREFETCHES: 0 DROPPED PREFETCHES: 0
STLB PREFETCHES SAME FILL-ORIGIN LEVEL: 0 DIFFERENT FILL-ORIGIN LEVEL: 0
STLB AVERAGE MISS LATENCY: 138.973 cycles
STLB RQ	ACCESS:    3066703	FORWARD:          0	MERGED:          0	TO_CACHE:    3066703

STLB Hit, L1D data hit: 0
STLB Hit, L2C data hit: 0
STLB Hit, LLC data hit: 0
STLB Hit, LLC data miss: 0
STLB STLB hints to L2: 0
L1D TOTAL     ACCESS:   48739985  HIT:   41977744  MISS:    6762241  HIT %:    86.1259  MISS %:    13.8741   MPKI: 33.8112
L1D LOAD      ACCESS:   26752480  HIT:   23697375  MISS:    3055105  HIT %:    88.5801  MISS %:    11.4199   MPKI: 15.2755
L1D RFO       ACCESS:   21987505  HIT:   18280369  MISS:    3707136  HIT %:    83.1398  MISS %:    16.8602   MPKI: 18.5357
L1D PREFETCH  REQUESTED:          0  ISSUED:          0  USEFUL:          0  USELESS:          0
L1D USEFUL LOAD PREFETCHES:          0 PREFETCH ISSUED TO LOWER LEVEL:          0  ACCURACY: -nan
L1D TIMELY PREFETCHES:          0 LATE PREFETCHES: 0 DROPPED PREFETCHES: 0
L1D PREFETCHES SAME FILL-ORIGIN LEVEL: 0 DIFFERENT FILL-ORIGIN LEVEL: 0
L1D AVERAGE MISS LATENCY: 149.702 cycles
L1D RQ	ACCESS:   45335177	FORWARD:          0	MERGED:   17832272	TO_CACHE:   27239431
L1D WQ	ACCESS:   34236669	FORWARD:     263474	MERGED:     203199	TO_CACHE:   34033470

L1D UNIQUE REGIONS ACCESSED: 0
L1D REGIONS CONFLICTS: 0
L1D Cross Page Prefetch Requests: 0
L1D Same Page Prefetch Requests: 0
L1D ROI Sum of L1D PQ occupancy: 0
L1D PREFETCHES PUSHED FROM L2C: 0
L1I TOTAL     ACCESS:   37995774  HIT:   28866570  MISS:    9129204  HIT %:    75.9731  MISS %:    24.0269   MPKI: 45.646
L1I LOAD      ACCESS:   37995774  HIT:   28866570  MISS:    9129204  HIT %:    75.9731  MISS %:    24.0269   MPKI: 45.646
L1I PREFETCH  REQUESTED:          0  ISSUED:          0  USEFUL:          0  USELESS:          0
L1I USEFUL LOAD PREFETCHES:          0 PREFETCH ISSUED TO LOWER LEVEL:          0  ACCURACY: -nan
L1I TIMELY PREFETCHES:          0 LATE PREFETCHES: 0 DROPPED PREFETCHES: 0
L1I PREFETCHES SAME FILL-ORIGIN LEVEL: 0 DIFFERENT FILL-ORIGIN LEVEL: 0
L1I AVERAGE MISS LATENCY: 16.8822 cycles
L1I RQ	ACCESS:   58844775	FORWARD:          0	MERGED:   18180006	TO_CACHE:   40664769

BTB TOTAL     ACCESS:   25686189  HIT:   24135279  MISS:    1550910  HIT %:    93.9621  MISS %:    6.03791   MPKI: 7.75455
BTB BRANCH_DIRECT_JUMP	ACCESS:    1661001  HIT:    1650247  MISS:      10754
BTB BRANCH_INDIRECT	ACCESS:    9967569  HIT:    9455075  MISS:     512494
BTB BRANCH_CONDITIONAL	ACCESS:    7219465  HIT:    7204509  MISS:      14956
BTB BRANCH_DIRECT_CALL	ACCESS:    2825890  HIT:    2790312  MISS:      35578
BTB BRANCH_INDIRECT_CALL	ACCESS:     593170  HIT:     481443  MISS:     111727
BTB BRANCH_RETURN	ACCESS:    3419094  HIT:    2553693  MISS:     865401
BTB BRANCH_OTHER ACCESS:          0  HIT:          0  MISS:          0

L2C TOTAL     ACCESS:   22304254  HIT:   14630236  MISS:    7674018  HIT %:    65.5939  MISS %:    34.4061   MPKI: 38.3701
L2C LOAD      ACCESS:   12184167  HIT:    9979232  MISS:    2204935  HIT %:    81.9033  MISS %:    18.0967   MPKI: 11.0247
L2C DATA LOAD MPKI: 7.79974
L2C INSTRUCTION LOAD MPKI: 3.22494
L2C RFO       ACCESS:    3707127  HIT:     145050  MISS:    3562077  HIT %:    3.91273  MISS %:    96.0873   MPKI: 17.8104
L2C PREFETCH  ACCESS:    1976725  HIT:     305436  MISS:    1671289  HIT %:    15.4516  MISS %:    84.5484   MPKI: 8.35645
AGUS PREFETCH L1 MISS: 0
L2C DATA PREFETCH MPKI: 8.35645
L2C INSTRUCTION PREFETCH MPKI: 0
L2C WRITEBACK ACCESS:    4355255  HIT:    4155972  MISS:     199283  HIT %:    95.4243  MISS %:    4.57569   MPKI: 0.996415
L2C LOAD TRANSLATION ACCESS:      80980  HIT:      44546  MISS:      36434  HIT %:    55.0086  MISS %:    44.9914   MPKI: 0.18217
L2C PREFETCH  REQUESTED:    2334545  ISSUED:    2334545  USEFUL:     810441  USELESS:     860646
L2C USEFUL LOAD PREFETCHES:     810441 PREFETCH ISSUED TO LOWER LEVEL:    2008879  ACCURACY: 40.3429
L2C TIMELY PREFETCHES:     810441 LATE PREFETCHES: 337590 DROPPED PREFETCHES: 0
L2C PREFETCHES SAME FILL-ORIGIN LEVEL: 2008879 DIFFERENT FILL-ORIGIN LEVEL: 0
L2C AVERAGE MISS LATENCY: 155.898 cycles
L2C RQ	ACCESS:   15972427	FORWARD:          0	MERGED:          0	TO_CACHE:   15972276
L2C WQ	ACCESS:    4355255	FORWARD:        151	MERGED:          0	TO_CACHE:    4355255
L2C PQ	ACCESS:    2334545	FORWARD:          0	MERGED:         59	TO_CACHE:    2334486

L2C Instructions Evicting Data 593113
L2C Translations Evicting Data 33457
L2C Data Evicting Data 6184812
L2C Instructions Evicting Instructions 49030
L2C Translations Evicting Instructions 2852
L2C Data Evicting Instructions 575743
L2C Instructions Evicting Translations 2845
L2C Translations Evicting Translations 125
L2C Data Evicting Translations 32758
L2C Dense regions hint from L2: 0
PSCL5 TOTAL     ACCESS:      73020  HIT:      73020  MISS:          0  HIT %:        100  MISS %:          0   MPKI: 0
PSCL5 LOAD TRANSLATION ACCESS:      73020  HIT:      73020  MISS:          0  HIT %:        100  MISS %:          0   MPKI: 0
PSCL5 PREFETCH  REQUESTED:          0  ISSUED:          0  USEFUL:          0  USELESS:          0
PSCL5 USEFUL LOAD PREFETCHES:          0 PREFETCH ISSUED TO LOWER LEVEL:          0  ACCURACY: -nan
PSCL5 TIMELY PREFETCHES:          0 LATE PREFETCHES: 0 DROPPED PREFETCHES: 0
PSCL5 PREFETCHES SAME FILL-ORIGIN LEVEL: 0 DIFFERENT FILL-ORIGIN LEVEL: 0

PSCL4 TOTAL     ACCESS:      64812  HIT:      64731  MISS:         81  HIT %:     99.875  MISS %:   0.124977   MPKI: 0.000405
PSCL4 LOAD TRANSLATION ACCESS:      64812  HIT:      64731  MISS:         81  HIT %:     99.875  MISS %:   0.124977   MPKI: 0.000405
PSCL4 PREFETCH  REQUESTED:          0  ISSUED:          0  USEFUL:          0  USELESS:          0
PSCL4 USEFUL LOAD PREFETCHES:          0 PREFETCH ISSUED TO LOWER LEVEL:          0  ACCURACY: -nan
PSCL4 TIMELY PREFETCHES:          0 LATE PREFETCHES: 0 DROPPED PREFETCHES: 0
PSCL4 PREFETCHES SAME FILL-ORIGIN LEVEL: 0 DIFFERENT FILL-ORIGIN LEVEL: 0

PSCL3 TOTAL     ACCESS:      72996  HIT:      72831  MISS:        165  HIT %:     99.774  MISS %:    0.22604   MPKI: 0.000825
PSCL3 LOAD TRANSLATION ACCESS:      72996  HIT:      72831  MISS:        165  HIT %:     99.774  MISS %:    0.22604   MPKI: 0.000825
PSCL3 PREFETCH  REQUESTED:          0  ISSUED:          0  USEFUL:          0  USELESS:          0
PSCL3 USEFUL LOAD PREFETCHES:          0 PREFETCH ISSUED TO LOWER LEVEL:          0  ACCURACY: -nan
PSCL3 TIMELY PREFETCHES:          0 LATE PREFETCHES: 0 DROPPED PREFETCHES: 0
PSCL3 PREFETCHES SAME FILL-ORIGIN LEVEL: 0 DIFFERENT FILL-ORIGIN LEVEL: 0

PSCL2 TOTAL     ACCESS:      73020  HIT:      65276  MISS:       7744  HIT %:    89.3947  MISS %:    10.6053   MPKI: 0.03872
PSCL2 LOAD TRANSLATION ACCESS:      73020  HIT:      65276  MISS:       7744  HIT %:    89.3947  MISS %:    10.6053   MPKI: 0.03872
PSCL2 PREFETCH  REQUESTED:          0  ISSUED:          0  USEFUL:          0  USELESS:          0
PSCL2 USEFUL LOAD PREFETCHES:          0 PREFETCH ISSUED TO LOWER LEVEL:          0  ACCURACY: -nan
PSCL2 TIMELY PREFETCHES:          0 LATE PREFETCHES: 0 DROPPED PREFETCHES: 0
PSCL2 PREFETCHES SAME FILL-ORIGIN LEVEL: 0 DIFFERENT FILL-ORIGIN LEVEL: 0

LLC TOTAL     ACCESS:   11579916  HIT:    5192577  MISS:    6387339  HIT %:    44.8412  MISS %:    55.1588   MPKI: 31.9367
LLC LOAD      ACCESS:    1867391  HIT:    1546024  MISS:     321367  HIT %:    82.7906  MISS %:    17.2094   MPKI: 1.60684
LLC RFO       ACCESS:    3562003  HIT:     936020  MISS:    2625983  HIT %:    26.2779  MISS %:    73.7221   MPKI: 13.1299
LLC PREFETCH  ACCESS:    2008877  HIT:     718034  MISS:    1290843  HIT %:    35.7431  MISS %:    64.2569   MPKI: 6.45421
AGUS PREFETCH L1 MISS: 0
LLC WRITEBACK ACCESS:    4105211  HIT:    1984201  MISS:    2121010  HIT %:    48.3337  MISS %:    51.6663   MPKI: 10.6051
LLC LOAD TRANSLATION ACCESS:      36434  HIT:       8298  MISS:      28136  HIT %:    22.7754  MISS %:    77.2246   MPKI: 0.14068
LLC PREFETCH  REQUESTED:          0  ISSUED:          0  USEFUL:      10040  USELESS:    1285905
LLC USEFUL LOAD PREFETCHES:      10040 PREFETCH ISSUED TO LOWER LEVEL:    1290843  ACCURACY: 0.777786
LLC TIMELY PREFETCHES:      10040 LATE PREFETCHES: 0 DROPPED PREFETCHES: 0
LLC PREFETCHES SAME FILL-ORIGIN LEVEL: 0 DIFFERENT FILL-ORIGIN LEVEL: 0
LLC AVERAGE MISS LATENCY: 156.79 cycles
LLC RQ	ACCESS:    5465856	FORWARD:          0	MERGED:          0	TO_CACHE:    5465828
LLC WQ	ACCESS:    4105211	FORWARD:         30	MERGED:          0	TO_CACHE:    4105211
LLC PQ	ACCESS:    2008879	FORWARD:          0	MERGED:          0	TO_CACHE:    2008877

LLC Dense regions hint to LLC: 0

RAW hits: 2391909
Loads Generated: 47727087
Loads sent to L1D: 45335177
Stores Generated: 34236662
Stores sent to L1D: 34236669
Major fault: 0 Minor fault: 23678
Allocated PAGES: 23678
CPU 0 L2C best offset prefetcher final stats

DRAM Statistics
 CHANNEL 0
 RQ ROW_BUFFER_HIT:    2291219  ROW_BUFFER_MISS:    1974552
 DBUS_CONGESTED:       2346
 WQ ROW_BUFFER_HIT:     566328  ROW_BUFFER_MISS:    2145901  FULL:      43810

 AVG_CONGESTED_CYCLE: 3
 All warmup complete: 2
Channel 0 Bank busy for read cycles: 0
Channel 0 Bank busy for write cycles: 0
Channel 0
Rank 0
0banks busy for read cycles: 160037096
0banks busy for write cycles: 238933
1banks busy for read cycles: 40142827
1banks busy for write cycles: 32070311
2banks busy for read cycles: 15244636
2banks busy for write cycles: 13770121
3banks busy for read cycles: 14825831
3banks busy for write cycles: 6992790
4banks busy for read cycles: 5319576
4banks busy for write cycles: 4402147
5banks busy for read cycles: 4619082
5banks busy for write cycles: 3410239
6banks busy for read cycles: 6144552
6banks busy for write cycles: 3226163
7banks busy for read cycles: 7661192
7banks busy for write cycles: 5538160
8banks busy for read cycles: 21320503
8banks busy for write cycles: 33809748

CPU 0 Branch Prediction Accuracy: 99.9426% MPKI: 0.08767 Average ROB Occupancy at Mispredict: 109.327
Branch types
NOT_BRANCH: 169469640 84.7348%
BRANCH_DIRECT_JUMP: 1661001 0.8305%
BRANCH_INDIRECT: 9967569 4.98378%
BRANCH_CONDITIONAL: 12063601 6.0318%
BRANCH_DIRECT_CALL: 2825890 1.41294%
BRANCH_INDIRECT_CALL: 593170 0.296585%
BRANCH_RETURN: 3419094 1.70955%
BRANCH_OTHER: 0 0%

DRAM PAGES: 1048576
Allocated PAGES: 23678
