
*** ChampSim Multicore Out-of-Order Simulator ***

Warmup Instructions: 50000000
Simulation Instructions: 200000000
Number of CPUs: 1
LLC sets: 2048
LLC ways: 16
Off-chip DRAM Size: 4096 MB Channels: 1 Width: 64-bit Data Rate: 6400 MT/s
CPU 0 runs traces/spec2k17/server_025.champsimtrace.xz
.xz
BTB has LRU replacement policy
ITLB has LRU replacement policy
DTLB has LRU replacement policy
STLB has LRU replacement policy
L1I has LRU replacement policy
L1D has LRU replacement policy
CPU 0 L2C best offset prefetcher
Initialize SRRIP state for L2C
Initialize DRRIP state for LLC
Heartbeat CPU 0 instructions: 10000003 cycles: 2821672 heartbeat IPC: 3.544 cumulative IPC: 3.544 (Simulation time: 0 hr 0 min 36 sec) 
Heartbeat CPU 0 instructions: 20000000 cycles: 5640319 heartbeat IPC: 3.5478 cumulative IPC: 3.5459 (Simulation time: 0 hr 1 min 11 sec) 
Heartbeat CPU 0 instructions: 30000002 cycles: 8456894 heartbeat IPC: 3.55041 cumulative IPC: 3.5474 (Simulation time: 0 hr 1 min 47 sec) 
Heartbeat CPU 0 instructions: 40000001 cycles: 11273518 heartbeat IPC: 3.55035 cumulative IPC: 3.54814 (Simulation time: 0 hr 2 min 23 sec) 
Heartbeat CPU 0 instructions: 50000001 cycles: 14093729 heartbeat IPC: 3.54583 cumulative IPC: 3.54768 (Simulation time: 0 hr 2 min 57 sec) 

Warmup complete CPU 0 instructions: 50000001 cycles: 14093729 (Simulation time: 0 hr 2 min 57 sec) 

Heartbeat CPU 0 instructions: 60000000 cycles: 46298929 heartbeat IPC: 0.310509 cumulative IPC: 0.310509 (Simulation time: 0 hr 3 min 53 sec) 
Heartbeat CPU 0 instructions: 70000003 cycles: 78603705 heartbeat IPC: 0.309552 cumulative IPC: 0.31003 (Simulation time: 0 hr 4 min 46 sec) 
Heartbeat CPU 0 instructions: 80000000 cycles: 111013761 heartbeat IPC: 0.308546 cumulative IPC: 0.309534 (Simulation time: 0 hr 5 min 42 sec) 
Heartbeat CPU 0 instructions: 90000000 cycles: 143416533 heartbeat IPC: 0.308616 cumulative IPC: 0.309304 (Simulation time: 0 hr 6 min 38 sec) 
Heartbeat CPU 0 instructions: 100000000 cycles: 163333646 heartbeat IPC: 0.502081 cumulative IPC: 0.335031 (Simulation time: 0 hr 7 min 29 sec) 
*** Reached end of trace for Core: 0 Repeating trace: traces/spec2k17/server_025.champsimtrace.xz
Heartbeat CPU 0 instructions: 110000000 cycles: 195505087 heartbeat IPC: 0.310835 cumulative IPC: 0.33074 (Simulation time: 0 hr 8 min 23 sec) 
Heartbeat CPU 0 instructions: 120000000 cycles: 227523009 heartbeat IPC: 0.312325 cumulative IPC: 0.327977 (Simulation time: 0 hr 9 min 18 sec) 
Heartbeat CPU 0 instructions: 130000001 cycles: 259857155 heartbeat IPC: 0.309271 cumulative IPC: 0.325516 (Simulation time: 0 hr 10 min 14 sec) 
Heartbeat CPU 0 instructions: 140000002 cycles: 291967145 heartbeat IPC: 0.31143 cumulative IPC: 0.323888 (Simulation time: 0 hr 11 min 7 sec) 
Heartbeat CPU 0 instructions: 150000000 cycles: 324143143 heartbeat IPC: 0.310791 cumulative IPC: 0.322529 (Simulation time: 0 hr 12 min 1 sec) 
Heartbeat CPU 0 instructions: 160000000 cycles: 356460985 heartbeat IPC: 0.309427 cumulative IPC: 0.321292 (Simulation time: 0 hr 12 min 53 sec) 
Heartbeat CPU 0 instructions: 170000000 cycles: 388470313 heartbeat IPC: 0.312409 cumulative IPC: 0.320533 (Simulation time: 0 hr 13 min 46 sec) 
Heartbeat CPU 0 instructions: 180000001 cycles: 420995187 heartbeat IPC: 0.307457 cumulative IPC: 0.319488 (Simulation time: 0 hr 14 min 37 sec) 
Heartbeat CPU 0 instructions: 190000001 cycles: 453326271 heartbeat IPC: 0.3093 cumulative IPC: 0.318738 (Simulation time: 0 hr 15 min 31 sec) 
Heartbeat CPU 0 instructions: 200000003 cycles: 477507621 heartbeat IPC: 0.413542 cumulative IPC: 0.323685 (Simulation time: 0 hr 16 min 23 sec) 
*** Reached end of trace for Core: 0 Repeating trace: traces/spec2k17/server_025.champsimtrace.xz
Heartbeat CPU 0 instructions: 210000000 cycles: 505443873 heartbeat IPC: 0.357958 cumulative IPC: 0.325633 (Simulation time: 0 hr 17 min 16 sec) 
Heartbeat CPU 0 instructions: 220000000 cycles: 537544132 heartbeat IPC: 0.311524 cumulative IPC: 0.324768 (Simulation time: 0 hr 18 min 10 sec) 
Heartbeat CPU 0 instructions: 230000000 cycles: 569840955 heartbeat IPC: 0.309628 cumulative IPC: 0.323888 (Simulation time: 0 hr 19 min 8 sec) 
Heartbeat CPU 0 instructions: 240000002 cycles: 601801585 heartbeat IPC: 0.312885 cumulative IPC: 0.32329 (Simulation time: 0 hr 20 min 7 sec) 
Heartbeat CPU 0 instructions: 250000003 cycles: 634083278 heartbeat IPC: 0.309773 cumulative IPC: 0.322586 (Simulation time: 0 hr 21 min 6 sec) 
Finished CPU 0 instructions: 200000002 cycles: 619989549 cumulative IPC: 0.322586 (Simulation time: 0 hr 21 min 6 sec) 

ChampSim completed all CPUs

Region of Interest Statistics

CPU 0 cumulative IPC: 0.322586 instructions: 200000002 cycles: 619989549
ITLB TOTAL     ACCESS:   34735394  HIT:   32825064  MISS:    1910330  HIT %:    94.5003  MISS %:    5.49966   MPKI: 9.55165
ITLB LOAD TRANSLATION ACCESS:   34735394  HIT:   32825064  MISS:    1910330  HIT %:    94.5003  MISS %:    5.49966   MPKI: 9.55165
ITLB PREFETCH  REQUESTED:          0  ISSUED:          0  USEFUL:          0  USELESS:          0
ITLB USEFUL LOAD PREFETCHES:          0 PREFETCH ISSUED TO LOWER LEVEL:          0  ACCURACY: -nan
ITLB TIMELY PREFETCHES:          0 LATE PREFETCHES: 0 DROPPED PREFETCHES: 0
ITLB PREFETCHES SAME FILL-ORIGIN LEVEL: 0 DIFFERENT FILL-ORIGIN LEVEL: 0
ITLB AVERAGE MISS LATENCY: 9.05883 cycles
ITLB RQ	ACCESS:   40853739	FORWARD:          0	MERGED:    5662696	TO_CACHE:   35191043

DTLB TOTAL     ACCESS:   46003363  HIT:   44234865  MISS:    1768498  HIT %:    96.1557  MISS %:    3.84428   MPKI: 8.84249
DTLB LOAD TRANSLATION ACCESS:   46003363  HIT:   44234865  MISS:    1768498  HIT %:    96.1557  MISS %:    3.84428   MPKI: 8.84249
DTLB PREFETCH  REQUESTED:          0  ISSUED:          0  USEFUL:          0  USELESS:          0
DTLB USEFUL LOAD PREFETCHES:          0 PREFETCH ISSUED TO LOWER LEVEL:          0  ACCURACY: -nan
DTLB TIMELY PREFETCHES:          0 LATE PREFETCHES: 0 DROPPED PREFETCHES: 0
DTLB PREFETCHES SAME FILL-ORIGIN LEVEL: 0 DIFFERENT FILL-ORIGIN LEVEL: 0
DTLB AVERAGE MISS LATENCY: 9.23297 cycles
DTLB RQ	ACCESS:   60855289	FORWARD:          0	MERGED:   14789800	TO_CACHE:   46065489

STLB TOTAL     ACCESS:    3678827  HIT:    3669972  MISS:       8855  HIT %:    99.7593  MISS %:   0.240702   MPKI: 0.044275
STLB LOAD TRANSLATION ACCESS:    3678827  HIT:    3669972  MISS:       8855  HIT %:    99.7593  MISS %:   0.240702   MPKI: 0.044275
STLB PREFETCH  REQUESTED:          0  ISSUED:          0  USEFUL:          0  USELESS:          0
STLB USEFUL LOAD PREFETCHES:          0 PREFETCH ISSUED TO LOWER LEVEL:          0  ACCURACY: -nan
STLB TIMELY PREFETCHES:          0 LATE PREFETCHES: 0 DROPPED PREFETCHES: 0
STLB PREFETCHES SAME FILL-ORIGIN LEVEL: 0 DIFFERENT FILL-ORIGIN LEVEL: 0
STLB AVERAGE MISS LATENCY: 56.5088 cycles
STLB RQ	ACCESS:    3678827	FORWARD:          0	MERGED:          0	TO_CACHE:    3678827

STLB Hit, L1D data hit: 0
STLB Hit, L2C data hit: 0
STLB Hit, LLC data hit: 0
STLB Hit, LLC data miss: 0
STLB STLB hints to L2: 0
L1D TOTAL     ACCESS:   59105634  HIT:   55406258  MISS:    3699376  HIT %:    93.7411  MISS %:    6.25892   MPKI: 18.4969
L1D LOAD      ACCESS:   33965369  HIT:   31311546  MISS:    2653823  HIT %:    92.1867  MISS %:    7.81332   MPKI: 13.2691
L1D RFO       ACCESS:   25140265  HIT:   24094712  MISS:    1045553  HIT %:    95.8411  MISS %:    4.15888   MPKI: 5.22776
L1D PREFETCH  REQUESTED:          0  ISSUED:          0  USEFUL:          0  USELESS:          0
L1D USEFUL LOAD PREFETCHES:          0 PREFETCH ISSUED TO LOWER LEVEL:          0  ACCURACY: -nan
L1D TIMELY PREFETCHES:          0 LATE PREFETCHES: 0 DROPPED PREFETCHES: 0
L1D PREFETCHES SAME FILL-ORIGIN LEVEL: 0 DIFFERENT FILL-ORIGIN LEVEL: 0
L1D AVERAGE MISS LATENCY: 21.998 cycles
L1D RQ	ACCESS:   47227152	FORWARD:          0	MERGED:   12838276	TO_CACHE:   34074996
L1D WQ	ACCESS:   26938645	FORWARD:     313880	MERGED:     158352	TO_CACHE:   26780293

L1D UNIQUE REGIONS ACCESSED: 0
L1D REGIONS CONFLICTS: 0
L1D Cross Page Prefetch Requests: 0
L1D Same Page Prefetch Requests: 0
L1D ROI Sum of L1D PQ occupancy: 0
L1D PREFETCHES PUSHED FROM L2C: 0
L1I TOTAL     ACCESS:   39431994  HIT:   29479740  MISS:    9952254  HIT %:     74.761  MISS %:     25.239   MPKI: 49.7613
L1I LOAD      ACCESS:   39431994  HIT:   29479740  MISS:    9952254  HIT %:     74.761  MISS %:     25.239   MPKI: 49.7613
L1I PREFETCH  REQUESTED:          0  ISSUED:          0  USEFUL:          0  USELESS:          0
L1I USEFUL LOAD PREFETCHES:          0 PREFETCH ISSUED TO LOWER LEVEL:          0  ACCURACY: -nan
L1I TIMELY PREFETCHES:          0 LATE PREFETCHES: 0 DROPPED PREFETCHES: 0
L1I PREFETCHES SAME FILL-ORIGIN LEVEL: 0 DIFFERENT FILL-ORIGIN LEVEL: 0
L1I AVERAGE MISS LATENCY: 16.6382 cycles
L1I RQ	ACCESS:   58629493	FORWARD:          0	MERGED:   17775754	TO_CACHE:   40853739

BTB TOTAL     ACCESS:   30413089  HIT:   18271054  MISS:   12142035  HIT %:    60.0763  MISS %:    39.9237   MPKI: 60.7102
BTB BRANCH_DIRECT_JUMP	ACCESS:    2033451  HIT:    1204611  MISS:     828840
BTB BRANCH_INDIRECT	ACCESS:   12129859  HIT:    7449972  MISS:    4679887
BTB BRANCH_CONDITIONAL	ACCESS:    7365128  HIT:    6117133  MISS:    1247995
BTB BRANCH_DIRECT_CALL	ACCESS:    3753650  HIT:    1796881  MISS:    1956769
BTB BRANCH_INDIRECT_CALL	ACCESS:     688651  HIT:     311222  MISS:     377429
BTB BRANCH_RETURN	ACCESS:    4442350  HIT:    1391235  MISS:    3051115
BTB BRANCH_OTHER ACCESS:          0  HIT:          0  MISS:          0

L2C TOTAL     ACCESS:   15775323  HIT:   14234400  MISS:    1540923  HIT %:    90.2321  MISS %:    9.76793   MPKI: 7.70461
L2C LOAD      ACCESS:   12606075  HIT:   11495803  MISS:    1110272  HIT %:    91.1926  MISS %:    8.80744   MPKI: 5.55136
L2C DATA LOAD MPKI: 1.40788
L2C INSTRUCTION LOAD MPKI: 4.14348
L2C RFO       ACCESS:    1045553  HIT:     852040  MISS:     193513  HIT %:    81.4918  MISS %:    18.5082   MPKI: 0.967565
L2C PREFETCH  ACCESS:     263445  HIT:      97018  MISS:     166427  HIT %:    36.8267  MISS %:    63.1733   MPKI: 0.832135
AGUS PREFETCH L1 MISS: 0
L2C DATA PREFETCH MPKI: 0.832135
L2C INSTRUCTION PREFETCH MPKI: 0
L2C WRITEBACK ACCESS:    1850763  HIT:    1786876  MISS:      63887  HIT %:    96.5481  MISS %:    3.45193   MPKI: 0.319435
L2C LOAD TRANSLATION ACCESS:       9487  HIT:       2663  MISS:       6824  HIT %:      28.07  MISS %:      71.93   MPKI: 0.03412
L2C PREFETCH  REQUESTED:     286334  ISSUED:     286334  USEFUL:      33065  USELESS:     133202
L2C USEFUL LOAD PREFETCHES:      33065 PREFETCH ISSUED TO LOWER LEVEL:     183538  ACCURACY: 18.0153
L2C TIMELY PREFETCHES:      33065 LATE PREFETCHES: 17111 DROPPED PREFETCHES: 0
L2C PREFETCHES SAME FILL-ORIGIN LEVEL: 183538 DIFFERENT FILL-ORIGIN LEVEL: 0
L2C AVERAGE MISS LATENCY: 39.578 cycles
L2C RQ	ACCESS:   13661117	FORWARD:          0	MERGED:          0	TO_CACHE:   13661115
L2C WQ	ACCESS:    1850763	FORWARD:          2	MERGED:          0	TO_CACHE:    1850763
L2C PQ	ACCESS:     286334	FORWARD:          0	MERGED:          0	TO_CACHE:     286334

L2C Instructions Evicting Data 340513
L2C Translations Evicting Data 3952
L2C Data Evicting Data 333944
L2C Instructions Evicting Instructions 485374
L2C Translations Evicting Instructions 2805
L2C Data Evicting Instructions 303721
L2C Instructions Evicting Translations 2809
L2C Translations Evicting Translations 67
L2C Data Evicting Translations 3851
L2C Dense regions hint from L2: 0
PSCL5 TOTAL     ACCESS:       8855  HIT:       8855  MISS:          0  HIT %:        100  MISS %:          0   MPKI: 0
PSCL5 LOAD TRANSLATION ACCESS:       8855  HIT:       8855  MISS:          0  HIT %:        100  MISS %:          0   MPKI: 0
PSCL5 PREFETCH  REQUESTED:          0  ISSUED:          0  USEFUL:          0  USELESS:          0
PSCL5 USEFUL LOAD PREFETCHES:          0 PREFETCH ISSUED TO LOWER LEVEL:          0  ACCURACY: -nan
PSCL5 TIMELY PREFETCHES:          0 LATE PREFETCHES: 0 DROPPED PREFETCHES: 0
PSCL5 PREFETCHES SAME FILL-ORIGIN LEVEL: 0 DIFFERENT FILL-ORIGIN LEVEL: 0

PSCL4 TOTAL     ACCESS:       6841  HIT:       6790  MISS:         51  HIT %:    99.2545  MISS %:   0.745505   MPKI: 0.000255
PSCL4 LOAD TRANSLATION ACCESS:       6841  HIT:       6790  MISS:         51  HIT %:    99.2545  MISS %:   0.745505   MPKI: 0.000255
PSCL4 PREFETCH  REQUESTED:          0  ISSUED:          0  USEFUL:          0  USELESS:          0
PSCL4 USEFUL LOAD PREFETCHES:          0 PREFETCH ISSUED TO LOWER LEVEL:          0  ACCURACY: -nan
PSCL4 TIMELY PREFETCHES:          0 LATE PREFETCHES: 0 DROPPED PREFETCHES: 0
PSCL4 PREFETCHES SAME FILL-ORIGIN LEVEL: 0 DIFFERENT FILL-ORIGIN LEVEL: 0

PSCL3 TOTAL     ACCESS:       8118  HIT:       8035  MISS:         83  HIT %:    98.9776  MISS %:    1.02242   MPKI: 0.000415
PSCL3 LOAD TRANSLATION ACCESS:       8118  HIT:       8035  MISS:         83  HIT %:    98.9776  MISS %:    1.02242   MPKI: 0.000415
PSCL3 PREFETCH  REQUESTED:          0  ISSUED:          0  USEFUL:          0  USELESS:          0
PSCL3 USEFUL LOAD PREFETCHES:          0 PREFETCH ISSUED TO LOWER LEVEL:          0  ACCURACY: -nan
PSCL3 TIMELY PREFETCHES:          0 LATE PREFETCHES: 0 DROPPED PREFETCHES: 0
PSCL3 PREFETCHES SAME FILL-ORIGIN LEVEL: 0 DIFFERENT FILL-ORIGIN LEVEL: 0

PSCL2 TOTAL     ACCESS:       8855  HIT:       8353  MISS:        502  HIT %:    94.3309  MISS %:    5.66911   MPKI: 0.00251
PSCL2 LOAD TRANSLATION ACCESS:       8855  HIT:       8353  MISS:        502  HIT %:    94.3309  MISS %:    5.66911   MPKI: 0.00251
PSCL2 PREFETCH  REQUESTED:          0  ISSUED:          0  USEFUL:          0  USELESS:          0
PSCL2 USEFUL LOAD PREFETCHES:          0 PREFETCH ISSUED TO LOWER LEVEL:          0  ACCURACY: -nan
PSCL2 TIMELY PREFETCHES:          0 LATE PREFETCHES: 0 DROPPED PREFETCHES: 0
PSCL2 PREFETCHES SAME FILL-ORIGIN LEVEL: 0 DIFFERENT FILL-ORIGIN LEVEL: 0

LLC TOTAL     ACCESS:    1743948  HIT:    1641107  MISS:     102841  HIT %:     94.103  MISS %:    5.89702   MPKI: 0.514205
LLC LOAD      ACCESS:    1093168  HIT:    1072804  MISS:      20364  HIT %:    98.1372  MISS %:    1.86284   MPKI: 0.10182
LLC RFO       ACCESS:     193500  HIT:     148910  MISS:      44590  HIT %:    76.9561  MISS %:    23.0439   MPKI: 0.22295
LLC PREFETCH  ACCESS:     183538  HIT:     147214  MISS:      36324  HIT %:     80.209  MISS %:     19.791   MPKI: 0.18162
AGUS PREFETCH L1 MISS: 0
LLC WRITEBACK ACCESS:     266918  HIT:     265795  MISS:       1123  HIT %:    99.5793  MISS %:   0.420728   MPKI: 0.005615
LLC LOAD TRANSLATION ACCESS:       6824  HIT:       6384  MISS:        440  HIT %:    93.5522  MISS %:    6.44783   MPKI: 0.0022
LLC PREFETCH  REQUESTED:          0  ISSUED:          0  USEFUL:       3585  USELESS:      29475
LLC USEFUL LOAD PREFETCHES:       3585 PREFETCH ISSUED TO LOWER LEVEL:      36324  ACCURACY: 9.86951
LLC TIMELY PREFETCHES:       3585 LATE PREFETCHES: 0 DROPPED PREFETCHES: 0
LLC PREFETCHES SAME FILL-ORIGIN LEVEL: 0 DIFFERENT FILL-ORIGIN LEVEL: 0
LLC AVERAGE MISS LATENCY: 167.436 cycles
LLC RQ	ACCESS:    1293498	FORWARD:          0	MERGED:          0	TO_CACHE:    1293492
LLC WQ	ACCESS:     266918	FORWARD:          6	MERGED:          0	TO_CACHE:     266918
LLC PQ	ACCESS:     183538	FORWARD:          0	MERGED:          0	TO_CACHE:     183538

LLC Dense regions hint to LLC: 0

RAW hits: 1815832
Loads Generated: 49042986
Loads sent to L1D: 47227152
Stores Generated: 26938641
Stores sent to L1D: 26938645
Major fault: 0 Minor fault: 2563
Allocated PAGES: 2563
CPU 0 L2C best offset prefetcher final stats

DRAM Statistics
 CHANNEL 0
 RQ ROW_BUFFER_HIT:      38252  ROW_BUFFER_MISS:      63425
 DBUS_CONGESTED:         71
 WQ ROW_BUFFER_HIT:       4535  ROW_BUFFER_MISS:      45235  FULL:          0

 AVG_CONGESTED_CYCLE: 5
 All warmup complete: 2
Channel 0 Bank busy for read cycles: 0
Channel 0 Bank busy for write cycles: 0
Channel 0
Rank 0
0banks busy for read cycles: 611856500
0banks busy for write cycles: 13447
1banks busy for read cycles: 2850743
1banks busy for write cycles: 1592256
2banks busy for read cycles: 895491
2banks busy for write cycles: 481610
3banks busy for read cycles: 297228
3banks busy for write cycles: 219792
4banks busy for read cycles: 221809
4banks busy for write cycles: 148741
5banks busy for read cycles: 167617
5banks busy for write cycles: 124803
6banks busy for read cycles: 156143
6banks busy for write cycles: 118867
7banks busy for read cycles: 167595
7banks busy for write cycles: 130371
8banks busy for read cycles: 268660
8banks busy for write cycles: 277877

CPU 0 Branch Prediction Accuracy: 99.8625% MPKI: 0.24407 Average ROB Occupancy at Mispredict: 29.7107
Branch types
NOT_BRANCH: 164508657 82.2543%
BRANCH_DIRECT_JUMP: 2033451 1.01673%
BRANCH_INDIRECT: 12129859 6.06493%
BRANCH_CONDITIONAL: 12443472 6.22174%
BRANCH_DIRECT_CALL: 3753650 1.87682%
BRANCH_INDIRECT_CALL: 688651 0.344325%
BRANCH_RETURN: 4442350 2.22117%
BRANCH_OTHER: 0 0%

DRAM PAGES: 1048576
Allocated PAGES: 2563
