
*** ChampSim Multicore Out-of-Order Simulator ***

Warmup Instructions: 50000000
Simulation Instructions: 200000000
Number of CPUs: 1
LLC sets: 2048
LLC ways: 16
Off-chip DRAM Size: 4096 MB Channels: 1 Width: 64-bit Data Rate: 6400 MT/s
CPU 0 runs traces/spec2k17/server_037.champsimtrace.xz
.xz
BTB has LRU replacement policy
ITLB has LRU replacement policy
DTLB has LRU replacement policy
STLB has LRU replacement policy
L1I has LRU replacement policy
L1D has LRU replacement policy
CPU 0 L2C best offset prefetcher
Initialize SRRIP state for L2C
Initialize DRRIP state for LLC
Heartbeat CPU 0 instructions: 10000002 cycles: 2785506 heartbeat IPC: 3.59001 cumulative IPC: 3.59001 (Simulation time: 0 hr 0 min 32 sec) 
Heartbeat CPU 0 instructions: 20000001 cycles: 5568546 heartbeat IPC: 3.59319 cumulative IPC: 3.5916 (Simulation time: 0 hr 1 min 3 sec) 
Heartbeat CPU 0 instructions: 30000002 cycles: 8355541 heartbeat IPC: 3.58809 cumulative IPC: 3.59043 (Simulation time: 0 hr 1 min 35 sec) 
Heartbeat CPU 0 instructions: 40000001 cycles: 11138794 heartbeat IPC: 3.59292 cumulative IPC: 3.59105 (Simulation time: 0 hr 2 min 6 sec) 
Heartbeat CPU 0 instructions: 50000001 cycles: 13921768 heartbeat IPC: 3.59328 cumulative IPC: 3.5915 (Simulation time: 0 hr 2 min 36 sec) 

Warmup complete CPU 0 instructions: 50000001 cycles: 13921768 (Simulation time: 0 hr 2 min 36 sec) 

Heartbeat CPU 0 instructions: 60000000 cycles: 33988648 heartbeat IPC: 0.498334 cumulative IPC: 0.498334 (Simulation time: 0 hr 3 min 29 sec) 
Heartbeat CPU 0 instructions: 70000001 cycles: 54206944 heartbeat IPC: 0.494602 cumulative IPC: 0.496461 (Simulation time: 0 hr 4 min 20 sec) 
Heartbeat CPU 0 instructions: 80000003 cycles: 74187188 heartbeat IPC: 0.500494 cumulative IPC: 0.497798 (Simulation time: 0 hr 5 min 11 sec) 
Heartbeat CPU 0 instructions: 90000001 cycles: 94186695 heartbeat IPC: 0.500012 cumulative IPC: 0.49835 (Simulation time: 0 hr 6 min 1 sec) 
*** Reached end of trace for Core: 0 Repeating trace: traces/spec2k17/server_037.champsimtrace.xz
Heartbeat CPU 0 instructions: 100000000 cycles: 114266026 heartbeat IPC: 0.498025 cumulative IPC: 0.498285 (Simulation time: 0 hr 6 min 50 sec) 
Heartbeat CPU 0 instructions: 110000000 cycles: 134215937 heartbeat IPC: 0.501255 cumulative IPC: 0.498777 (Simulation time: 0 hr 7 min 42 sec) 
Heartbeat CPU 0 instructions: 120000002 cycles: 154184351 heartbeat IPC: 0.500791 cumulative IPC: 0.499064 (Simulation time: 0 hr 8 min 35 sec) 
Heartbeat CPU 0 instructions: 130000003 cycles: 173692445 heartbeat IPC: 0.512608 cumulative IPC: 0.500718 (Simulation time: 0 hr 9 min 26 sec) 
Heartbeat CPU 0 instructions: 140000000 cycles: 193705414 heartbeat IPC: 0.499676 cumulative IPC: 0.500602 (Simulation time: 0 hr 10 min 17 sec) 
Heartbeat CPU 0 instructions: 150000000 cycles: 213719227 heartbeat IPC: 0.499655 cumulative IPC: 0.500507 (Simulation time: 0 hr 11 min 7 sec) 
Heartbeat CPU 0 instructions: 160000001 cycles: 233693577 heartbeat IPC: 0.500642 cumulative IPC: 0.500519 (Simulation time: 0 hr 11 min 59 sec) 
Heartbeat CPU 0 instructions: 170000000 cycles: 253833422 heartbeat IPC: 0.496528 cumulative IPC: 0.500184 (Simulation time: 0 hr 12 min 50 sec) 
Heartbeat CPU 0 instructions: 180000001 cycles: 273818674 heartbeat IPC: 0.500369 cumulative IPC: 0.500198 (Simulation time: 0 hr 13 min 37 sec) 
Heartbeat CPU 0 instructions: 190000002 cycles: 293824943 heartbeat IPC: 0.499843 cumulative IPC: 0.500173 (Simulation time: 0 hr 14 min 29 sec) 
*** Reached end of trace for Core: 0 Repeating trace: traces/spec2k17/server_037.champsimtrace.xz
Heartbeat CPU 0 instructions: 200000000 cycles: 313859637 heartbeat IPC: 0.499134 cumulative IPC: 0.500104 (Simulation time: 0 hr 15 min 21 sec) 
Heartbeat CPU 0 instructions: 210000000 cycles: 333790245 heartbeat IPC: 0.501741 cumulative IPC: 0.500206 (Simulation time: 0 hr 16 min 12 sec) 
Heartbeat CPU 0 instructions: 220000000 cycles: 353777209 heartbeat IPC: 0.500326 cumulative IPC: 0.500213 (Simulation time: 0 hr 17 min 4 sec) 
Heartbeat CPU 0 instructions: 230000001 cycles: 373319462 heartbeat IPC: 0.511712 cumulative IPC: 0.500838 (Simulation time: 0 hr 17 min 56 sec) 
Heartbeat CPU 0 instructions: 240000000 cycles: 393322522 heartbeat IPC: 0.499923 cumulative IPC: 0.50079 (Simulation time: 0 hr 18 min 48 sec) 
Heartbeat CPU 0 instructions: 250000001 cycles: 413373628 heartbeat IPC: 0.498726 cumulative IPC: 0.500686 (Simulation time: 0 hr 19 min 42 sec) 
Finished CPU 0 instructions: 200000000 cycles: 399451860 cumulative IPC: 0.500686 (Simulation time: 0 hr 19 min 42 sec) 

ChampSim completed all CPUs

Region of Interest Statistics

CPU 0 cumulative IPC: 0.500686 instructions: 200000000 cycles: 399451860
ITLB TOTAL     ACCESS:   35155033  HIT:   32678773  MISS:    2476260  HIT %:    92.9562  MISS %:    7.04383   MPKI: 12.3813
ITLB LOAD TRANSLATION ACCESS:   35155033  HIT:   32678773  MISS:    2476260  HIT %:    92.9562  MISS %:    7.04383   MPKI: 12.3813
ITLB PREFETCH  REQUESTED:          0  ISSUED:          0  USEFUL:          0  USELESS:          0
ITLB USEFUL LOAD PREFETCHES:          0 PREFETCH ISSUED TO LOWER LEVEL:          0  ACCURACY: -nan
ITLB TIMELY PREFETCHES:          0 LATE PREFETCHES: 0 DROPPED PREFETCHES: 0
ITLB PREFETCHES SAME FILL-ORIGIN LEVEL: 0 DIFFERENT FILL-ORIGIN LEVEL: 0
ITLB AVERAGE MISS LATENCY: 9.02571 cycles
ITLB RQ	ACCESS:   41397649	FORWARD:          0	MERGED:    5433841	TO_CACHE:   35963808

DTLB TOTAL     ACCESS:   40004835  HIT:   37999389  MISS:    2005446  HIT %:     94.987  MISS %:    5.01301   MPKI: 10.0272
DTLB LOAD TRANSLATION ACCESS:   40004835  HIT:   37999389  MISS:    2005446  HIT %:     94.987  MISS %:    5.01301   MPKI: 10.0272
DTLB PREFETCH  REQUESTED:          0  ISSUED:          0  USEFUL:          0  USELESS:          0
DTLB USEFUL LOAD PREFETCHES:          0 PREFETCH ISSUED TO LOWER LEVEL:          0  ACCURACY: -nan
DTLB TIMELY PREFETCHES:          0 LATE PREFETCHES: 0 DROPPED PREFETCHES: 0
DTLB PREFETCHES SAME FILL-ORIGIN LEVEL: 0 DIFFERENT FILL-ORIGIN LEVEL: 0
DTLB AVERAGE MISS LATENCY: 9.72098 cycles
DTLB RQ	ACCESS:   55782501	FORWARD:          0	MERGED:   15622896	TO_CACHE:   40159605

STLB TOTAL     ACCESS:    4481705  HIT:    4458909  MISS:      22796  HIT %:    99.4914  MISS %:   0.508646   MPKI: 0.11398
STLB LOAD TRANSLATION ACCESS:    4481705  HIT:    4458909  MISS:      22796  HIT %:    99.4914  MISS %:   0.508646   MPKI: 0.11398
STLB PREFETCH  REQUESTED:          0  ISSUED:          0  USEFUL:          0  USELESS:          0
STLB USEFUL LOAD PREFETCHES:          0 PREFETCH ISSUED TO LOWER LEVEL:          0  ACCURACY: -nan
STLB TIMELY PREFETCHES:          0 LATE PREFETCHES: 0 DROPPED PREFETCHES: 0
STLB PREFETCHES SAME FILL-ORIGIN LEVEL: 0 DIFFERENT FILL-ORIGIN LEVEL: 0
STLB AVERAGE MISS LATENCY: 65.2665 cycles
STLB RQ	ACCESS:    4481705	FORWARD:          0	MERGED:          0	TO_CACHE:    4481705

STLB Hit, L1D data hit: 0
STLB Hit, L2C data hit: 0
STLB Hit, LLC data hit: 0
STLB Hit, LLC data miss: 0
STLB STLB hints to L2: 0
L1D TOTAL     ACCESS:   55377746  HIT:   53700606  MISS:    1677140  HIT %:    96.9715  MISS %:    3.02855   MPKI: 8.3857
L1D LOAD      ACCESS:   31250473  HIT:   29822742  MISS:    1427731  HIT %:    95.4313  MISS %:    4.56867   MPKI: 7.13865
L1D RFO       ACCESS:   24127273  HIT:   23877864  MISS:     249409  HIT %:    98.9663  MISS %:    1.03372   MPKI: 1.24704
L1D PREFETCH  REQUESTED:          0  ISSUED:          0  USEFUL:          0  USELESS:          0
L1D USEFUL LOAD PREFETCHES:          0 PREFETCH ISSUED TO LOWER LEVEL:          0  ACCURACY: -nan
L1D TIMELY PREFETCHES:          0 LATE PREFETCHES: 0 DROPPED PREFETCHES: 0
L1D PREFETCHES SAME FILL-ORIGIN LEVEL: 0 DIFFERENT FILL-ORIGIN LEVEL: 0
L1D AVERAGE MISS LATENCY: 32.1093 cycles
L1D RQ	ACCESS:   45848055	FORWARD:          0	MERGED:   14236165	TO_CACHE:   31357294
L1D WQ	ACCESS:   24616487	FORWARD:     254596	MERGED:     191280	TO_CACHE:   24425207

L1D UNIQUE REGIONS ACCESSED: 0
L1D REGIONS CONFLICTS: 0
L1D Cross Page Prefetch Requests: 0
L1D Same Page Prefetch Requests: 0
L1D ROI Sum of L1D PQ occupancy: 0
L1D PREFETCHES PUSHED FROM L2C: 0
L1I TOTAL     ACCESS:   37478118  HIT:   22150616  MISS:   15327502  HIT %:    59.1028  MISS %:    40.8972   MPKI: 76.6375
L1I LOAD      ACCESS:   37478118  HIT:   22150616  MISS:   15327502  HIT %:    59.1028  MISS %:    40.8972   MPKI: 76.6375
L1I PREFETCH  REQUESTED:          0  ISSUED:          0  USEFUL:          0  USELESS:          0
L1I USEFUL LOAD PREFETCHES:          0 PREFETCH ISSUED TO LOWER LEVEL:          0  ACCURACY: -nan
L1I TIMELY PREFETCHES:          0 LATE PREFETCHES: 0 DROPPED PREFETCHES: 0
L1I PREFETCHES SAME FILL-ORIGIN LEVEL: 0 DIFFERENT FILL-ORIGIN LEVEL: 0
L1I AVERAGE MISS LATENCY: 14.1677 cycles
L1I RQ	ACCESS:   62434942	FORWARD:          0	MERGED:   21037293	TO_CACHE:   41397649

BTB TOTAL     ACCESS:   28200156  HIT:   24637368  MISS:    3562788  HIT %:    87.3661  MISS %:    12.6339   MPKI: 17.8139
BTB BRANCH_DIRECT_JUMP	ACCESS:    2065529  HIT:    1955055  MISS:     110474
BTB BRANCH_INDIRECT	ACCESS:   12547706  HIT:   11310984  MISS:    1236722
BTB BRANCH_CONDITIONAL	ACCESS:    4129025  HIT:    4013332  MISS:     115693
BTB BRANCH_DIRECT_CALL	ACCESS:    3836283  HIT:    3585253  MISS:     251030
BTB BRANCH_INDIRECT_CALL	ACCESS:     892681  HIT:     717749  MISS:     174932
BTB BRANCH_RETURN	ACCESS:    4728932  HIT:    3054995  MISS:    1673937
BTB BRANCH_OTHER ACCESS:          0  HIT:          0  MISS:          0

L2C TOTAL     ACCESS:   18381844  HIT:   17490081  MISS:     891763  HIT %:    95.1487  MISS %:    4.85133   MPKI: 4.45882
L2C LOAD      ACCESS:   16755193  HIT:   16304213  MISS:     450980  HIT %:    97.3084  MISS %:    2.69158   MPKI: 2.2549
L2C DATA LOAD MPKI: 2.09623
L2C INSTRUCTION LOAD MPKI: 0.158675
L2C RFO       ACCESS:     249409  HIT:     150294  MISS:      99115  HIT %:    60.2601  MISS %:    39.7399   MPKI: 0.495575
L2C PREFETCH  ACCESS:     458137  HIT:     152319  MISS:     305818  HIT %:    33.2475  MISS %:    66.7525   MPKI: 1.52909
AGUS PREFETCH L1 MISS: 0
L2C DATA PREFETCH MPKI: 1.52909
L2C INSTRUCTION PREFETCH MPKI: 0
L2C WRITEBACK ACCESS:     887529  HIT:     872250  MISS:      15279  HIT %:    98.2785  MISS %:    1.72152   MPKI: 0.076395
L2C LOAD TRANSLATION ACCESS:      31576  HIT:      11005  MISS:      20571  HIT %:    34.8524  MISS %:    65.1476   MPKI: 0.102855
L2C PREFETCH  REQUESTED:     477341  ISSUED:     477341  USEFUL:      79985  USELESS:     225861
L2C USEFUL LOAD PREFETCHES:      79985 PREFETCH ISSUED TO LOWER LEVEL:     309043  ACCURACY: 25.8815
L2C TIMELY PREFETCHES:      79985 LATE PREFETCHES: 3225 DROPPED PREFETCHES: 0
L2C PREFETCHES SAME FILL-ORIGIN LEVEL: 309043 DIFFERENT FILL-ORIGIN LEVEL: 0
L2C AVERAGE MISS LATENCY: 55.0944 cycles
L2C RQ	ACCESS:   17036219	FORWARD:          0	MERGED:          0	TO_CACHE:   17036179
L2C WQ	ACCESS:     887529	FORWARD:         40	MERGED:          0	TO_CACHE:     887529
L2C PQ	ACCESS:     477341	FORWARD:          0	MERGED:          2	TO_CACHE:     477339

L2C Instructions Evicting Data 29410
L2C Translations Evicting Data 19061
L2C Data Evicting Data 776619
L2C Instructions Evicting Instructions 1606
L2C Translations Evicting Instructions 755
L2C Data Evicting Instructions 28648
L2C Instructions Evicting Translations 719
L2C Translations Evicting Translations 755
L2C Data Evicting Translations 18911
L2C Dense regions hint from L2: 0
PSCL5 TOTAL     ACCESS:      22796  HIT:      22796  MISS:          0  HIT %:        100  MISS %:          0   MPKI: 0
PSCL5 LOAD TRANSLATION ACCESS:      22796  HIT:      22796  MISS:          0  HIT %:        100  MISS %:          0   MPKI: 0
PSCL5 PREFETCH  REQUESTED:          0  ISSUED:          0  USEFUL:          0  USELESS:          0
PSCL5 USEFUL LOAD PREFETCHES:          0 PREFETCH ISSUED TO LOWER LEVEL:          0  ACCURACY: -nan
PSCL5 TIMELY PREFETCHES:          0 LATE PREFETCHES: 0 DROPPED PREFETCHES: 0
PSCL5 PREFETCHES SAME FILL-ORIGIN LEVEL: 0 DIFFERENT FILL-ORIGIN LEVEL: 0

PSCL4 TOTAL     ACCESS:      22679  HIT:      22659  MISS:         20  HIT %:    99.9118  MISS %:  0.0881873   MPKI: 0.0001
PSCL4 LOAD TRANSLATION ACCESS:      22679  HIT:      22659  MISS:         20  HIT %:    99.9118  MISS %:  0.0881873   MPKI: 0.0001
PSCL4 PREFETCH  REQUESTED:          0  ISSUED:          0  USEFUL:          0  USELESS:          0
PSCL4 USEFUL LOAD PREFETCHES:          0 PREFETCH ISSUED TO LOWER LEVEL:          0  ACCURACY: -nan
PSCL4 TIMELY PREFETCHES:          0 LATE PREFETCHES: 0 DROPPED PREFETCHES: 0
PSCL4 PREFETCHES SAME FILL-ORIGIN LEVEL: 0 DIFFERENT FILL-ORIGIN LEVEL: 0

PSCL3 TOTAL     ACCESS:      22700  HIT:      22575  MISS:        125  HIT %:    99.4493  MISS %:   0.550661   MPKI: 0.000625
PSCL3 LOAD TRANSLATION ACCESS:      22700  HIT:      22575  MISS:        125  HIT %:    99.4493  MISS %:   0.550661   MPKI: 0.000625
PSCL3 PREFETCH  REQUESTED:          0  ISSUED:          0  USEFUL:          0  USELESS:          0
PSCL3 USEFUL LOAD PREFETCHES:          0 PREFETCH ISSUED TO LOWER LEVEL:          0  ACCURACY: -nan
PSCL3 TIMELY PREFETCHES:          0 LATE PREFETCHES: 0 DROPPED PREFETCHES: 0
PSCL3 PREFETCHES SAME FILL-ORIGIN LEVEL: 0 DIFFERENT FILL-ORIGIN LEVEL: 0

PSCL2 TOTAL     ACCESS:      22796  HIT:      14134  MISS:       8662  HIT %:    62.0021  MISS %:    37.9979   MPKI: 0.04331
PSCL2 LOAD TRANSLATION ACCESS:      22796  HIT:      14134  MISS:       8662  HIT %:    62.0021  MISS %:    37.9979   MPKI: 0.04331
PSCL2 PREFETCH  REQUESTED:          0  ISSUED:          0  USEFUL:          0  USELESS:          0
PSCL2 USEFUL LOAD PREFETCHES:          0 PREFETCH ISSUED TO LOWER LEVEL:          0  ACCURACY: -nan
PSCL2 TIMELY PREFETCHES:          0 LATE PREFETCHES: 0 DROPPED PREFETCHES: 0
PSCL2 PREFETCHES SAME FILL-ORIGIN LEVEL: 0 DIFFERENT FILL-ORIGIN LEVEL: 0

LLC TOTAL     ACCESS:    1213965  HIT:    1073458  MISS:     140507  HIT %:    88.4258  MISS %:    11.5742   MPKI: 0.702535
LLC LOAD      ACCESS:     448144  HIT:     392097  MISS:      56047  HIT %:    87.4935  MISS %:    12.5065   MPKI: 0.280235
LLC RFO       ACCESS:      98718  HIT:      77853  MISS:      20865  HIT %:     78.864  MISS %:     21.136   MPKI: 0.104325
LLC PREFETCH  ACCESS:     309043  HIT:     247565  MISS:      61478  HIT %:     80.107  MISS %:     19.893   MPKI: 0.30739
AGUS PREFETCH L1 MISS: 0
LLC WRITEBACK ACCESS:     337489  HIT:     336372  MISS:       1117  HIT %:     99.669  MISS %:   0.330974   MPKI: 0.005585
LLC LOAD TRANSLATION ACCESS:      20571  HIT:      19571  MISS:       1000  HIT %:    95.1388  MISS %:    4.86121   MPKI: 0.005
LLC PREFETCH  REQUESTED:          0  ISSUED:          0  USEFUL:       2230  USELESS:      58451
LLC USEFUL LOAD PREFETCHES:       2230 PREFETCH ISSUED TO LOWER LEVEL:      61478  ACCURACY: 3.62731
LLC TIMELY PREFETCHES:       2230 LATE PREFETCHES: 0 DROPPED PREFETCHES: 0
LLC PREFETCHES SAME FILL-ORIGIN LEVEL: 0 DIFFERENT FILL-ORIGIN LEVEL: 0
LLC AVERAGE MISS LATENCY: 163.326 cycles
LLC RQ	ACCESS:     567441	FORWARD:          0	MERGED:          0	TO_CACHE:     567433
LLC WQ	ACCESS:     337489	FORWARD:          8	MERGED:          0	TO_CACHE:     337489
LLC PQ	ACCESS:     309043	FORWARD:          0	MERGED:          0	TO_CACHE:     309043

LLC Dense regions hint to LLC: 0

RAW hits: 2114262
Loads Generated: 47962317
Loads sent to L1D: 45848055
Stores Generated: 24616492
Stores sent to L1D: 24616487
Major fault: 0 Minor fault: 5878
Allocated PAGES: 5878
CPU 0 L2C best offset prefetcher final stats

DRAM Statistics
 CHANNEL 0
 RQ ROW_BUFFER_HIT:      30625  ROW_BUFFER_MISS:     108765
 DBUS_CONGESTED:         32
 WQ ROW_BUFFER_HIT:       4559  ROW_BUFFER_MISS:      35677  FULL:          0

 AVG_CONGESTED_CYCLE: 5
 All warmup complete: 2
Channel 0 Bank busy for read cycles: 0
Channel 0 Bank busy for write cycles: 0
Channel 0
Rank 0
0banks busy for read cycles: 382974286
0banks busy for write cycles: 28386
1banks busy for read cycles: 6158501
1banks busy for write cycles: 4140125
2banks busy for read cycles: 4150984
2banks busy for write cycles: 877013
3banks busy for read cycles: 534139
3banks busy for write cycles: 140219
4banks busy for read cycles: 207349
4banks busy for write cycles: 48803
5banks busy for read cycles: 23646
5banks busy for write cycles: 20642
6banks busy for read cycles: 23988
6banks busy for write cycles: 11738
7banks busy for read cycles: 29529
7banks busy for write cycles: 11670
8banks busy for read cycles: 62183
8banks busy for write cycles: 8660

CPU 0 Branch Prediction Accuracy: 99.974% MPKI: 0.044765 Average ROB Occupancy at Mispredict: 23.5083
Branch types
NOT_BRANCH: 165600942 82.8005%
BRANCH_DIRECT_JUMP: 2065529 1.03276%
BRANCH_INDIRECT: 12547706 6.27385%
BRANCH_CONDITIONAL: 10327907 5.16395%
BRANCH_DIRECT_CALL: 3836283 1.91814%
BRANCH_INDIRECT_CALL: 892681 0.44634%
BRANCH_RETURN: 4728932 2.36447%
BRANCH_OTHER: 0 0%

DRAM PAGES: 1048576
Allocated PAGES: 5878
