
*** ChampSim Multicore Out-of-Order Simulator ***

Warmup Instructions: 50000000
Simulation Instructions: 200000000
Number of CPUs: 1
LLC sets: 2048
LLC ways: 16
Off-chip DRAM Size: 4096 MB Channels: 1 Width: 64-bit Data Rate: 6400 MT/s
CPU 0 runs traces/spec2k17/server_024.champsimtrace.xz
.xz
BTB has LRU replacement policy
ITLB has LRU replacement policy
DTLB has LRU replacement policy
STLB has LRU replacement policy
L1I has LRU replacement policy
L1D has LRU replacement policy
CPU 0 L2C best offset prefetcher
Initialize SRRIP state for L2C
Initialize DRRIP state for LLC
Heartbeat CPU 0 instructions: 10000001 cycles: 2813320 heartbeat IPC: 3.55452 cumulative IPC: 3.55452 (Simulation time: 0 hr 0 min 37 sec) 
Heartbeat CPU 0 instructions: 20000002 cycles: 5619580 heartbeat IPC: 3.56346 cumulative IPC: 3.55899 (Simulation time: 0 hr 1 min 16 sec) 
Heartbeat CPU 0 instructions: 30000002 cycles: 8436480 heartbeat IPC: 3.55 cumulative IPC: 3.55599 (Simulation time: 0 hr 1 min 53 sec) 
Heartbeat CPU 0 instructions: 40000001 cycles: 11246029 heartbeat IPC: 3.55929 cumulative IPC: 3.55681 (Simulation time: 0 hr 2 min 29 sec) 
Heartbeat CPU 0 instructions: 50000003 cycles: 14050794 heartbeat IPC: 3.56536 cumulative IPC: 3.55852 (Simulation time: 0 hr 3 min 2 sec) 

Warmup complete CPU 0 instructions: 50000003 cycles: 14050794 (Simulation time: 0 hr 3 min 2 sec) 

Heartbeat CPU 0 instructions: 60000000 cycles: 43709159 heartbeat IPC: 0.337173 cumulative IPC: 0.337173 (Simulation time: 0 hr 3 min 59 sec) 
Heartbeat CPU 0 instructions: 70000000 cycles: 73992888 heartbeat IPC: 0.33021 cumulative IPC: 0.333655 (Simulation time: 0 hr 4 min 55 sec) 
*** Reached end of trace for Core: 0 Repeating trace: traces/spec2k17/server_024.champsimtrace.xz
Heartbeat CPU 0 instructions: 80000001 cycles: 103959794 heartbeat IPC: 0.333701 cumulative IPC: 0.333671 (Simulation time: 0 hr 5 min 52 sec) 
Heartbeat CPU 0 instructions: 90000003 cycles: 133956061 heartbeat IPC: 0.333375 cumulative IPC: 0.333597 (Simulation time: 0 hr 6 min 47 sec) 
Heartbeat CPU 0 instructions: 100000000 cycles: 163809512 heartbeat IPC: 0.33497 cumulative IPC: 0.33387 (Simulation time: 0 hr 7 min 41 sec) 
Heartbeat CPU 0 instructions: 110000000 cycles: 194497471 heartbeat IPC: 0.325861 cumulative IPC: 0.332508 (Simulation time: 0 hr 8 min 34 sec) 
Heartbeat CPU 0 instructions: 120000000 cycles: 224792655 heartbeat IPC: 0.330085 cumulative IPC: 0.33216 (Simulation time: 0 hr 9 min 31 sec) 
Heartbeat CPU 0 instructions: 130000000 cycles: 254025216 heartbeat IPC: 0.342084 cumulative IPC: 0.333369 (Simulation time: 0 hr 10 min 25 sec) 
Heartbeat CPU 0 instructions: 140000002 cycles: 283929484 heartbeat IPC: 0.334401 cumulative IPC: 0.333483 (Simulation time: 0 hr 11 min 19 sec) 
Heartbeat CPU 0 instructions: 150000001 cycles: 313989381 heartbeat IPC: 0.332669 cumulative IPC: 0.333402 (Simulation time: 0 hr 12 min 13 sec) 
*** Reached end of trace for Core: 0 Repeating trace: traces/spec2k17/server_024.champsimtrace.xz
Heartbeat CPU 0 instructions: 160000000 cycles: 343787362 heartbeat IPC: 0.335593 cumulative IPC: 0.3336 (Simulation time: 0 hr 13 min 6 sec) 
Heartbeat CPU 0 instructions: 170000000 cycles: 373803608 heartbeat IPC: 0.333153 cumulative IPC: 0.333562 (Simulation time: 0 hr 14 min 0 sec) 
Heartbeat CPU 0 instructions: 180000000 cycles: 404015296 heartbeat IPC: 0.330998 cumulative IPC: 0.333364 (Simulation time: 0 hr 14 min 57 sec) 
Heartbeat CPU 0 instructions: 190000001 cycles: 434558618 heartbeat IPC: 0.327404 cumulative IPC: 0.332931 (Simulation time: 0 hr 15 min 53 sec) 
Heartbeat CPU 0 instructions: 200000000 cycles: 464571942 heartbeat IPC: 0.333185 cumulative IPC: 0.332948 (Simulation time: 0 hr 16 min 45 sec) 
Heartbeat CPU 0 instructions: 210000000 cycles: 493922418 heartbeat IPC: 0.34071 cumulative IPC: 0.333423 (Simulation time: 0 hr 17 min 39 sec) 
Heartbeat CPU 0 instructions: 220000000 cycles: 524040627 heartbeat IPC: 0.332025 cumulative IPC: 0.33334 (Simulation time: 0 hr 18 min 36 sec) 
Heartbeat CPU 0 instructions: 230000000 cycles: 553730624 heartbeat IPC: 0.336814 cumulative IPC: 0.333531 (Simulation time: 0 hr 19 min 30 sec) 
*** Reached end of trace for Core: 0 Repeating trace: traces/spec2k17/server_024.champsimtrace.xz
Heartbeat CPU 0 instructions: 240000002 cycles: 583589338 heartbeat IPC: 0.334911 cumulative IPC: 0.333603 (Simulation time: 0 hr 20 min 28 sec) 
Heartbeat CPU 0 instructions: 250000003 cycles: 613782931 heartbeat IPC: 0.331196 cumulative IPC: 0.333482 (Simulation time: 0 hr 21 min 23 sec) 
Finished CPU 0 instructions: 200000000 cycles: 599732137 cumulative IPC: 0.333482 (Simulation time: 0 hr 21 min 23 sec) 

ChampSim completed all CPUs

Region of Interest Statistics

CPU 0 cumulative IPC: 0.333482 instructions: 200000000 cycles: 599732137
ITLB TOTAL     ACCESS:   34436604  HIT:   32608652  MISS:    1827952  HIT %:    94.6918  MISS %:    5.30817   MPKI: 9.13976
ITLB LOAD TRANSLATION ACCESS:   34436604  HIT:   32608652  MISS:    1827952  HIT %:    94.6918  MISS %:    5.30817   MPKI: 9.13976
ITLB PREFETCH  REQUESTED:          0  ISSUED:          0  USEFUL:          0  USELESS:          0
ITLB USEFUL LOAD PREFETCHES:          0 PREFETCH ISSUED TO LOWER LEVEL:          0  ACCURACY: -nan
ITLB TIMELY PREFETCHES:          0 LATE PREFETCHES: 0 DROPPED PREFETCHES: 0
ITLB PREFETCHES SAME FILL-ORIGIN LEVEL: 0 DIFFERENT FILL-ORIGIN LEVEL: 0
ITLB AVERAGE MISS LATENCY: 9.07714 cycles
ITLB RQ	ACCESS:   40226380	FORWARD:          0	MERGED:    5351563	TO_CACHE:   34874817

DTLB TOTAL     ACCESS:   45271119  HIT:   43481321  MISS:    1789798  HIT %:    96.0465  MISS %:    3.95351   MPKI: 8.94899
DTLB LOAD TRANSLATION ACCESS:   45271119  HIT:   43481321  MISS:    1789798  HIT %:    96.0465  MISS %:    3.95351   MPKI: 8.94899
DTLB PREFETCH  REQUESTED:          0  ISSUED:          0  USEFUL:          0  USELESS:          0
DTLB USEFUL LOAD PREFETCHES:          0 PREFETCH ISSUED TO LOWER LEVEL:          0  ACCURACY: -nan
DTLB TIMELY PREFETCHES:          0 LATE PREFETCHES: 0 DROPPED PREFETCHES: 0
DTLB PREFETCHES SAME FILL-ORIGIN LEVEL: 0 DIFFERENT FILL-ORIGIN LEVEL: 0
DTLB AVERAGE MISS LATENCY: 9.31088 cycles
DTLB RQ	ACCESS:   59802919	FORWARD:          0	MERGED:   14461766	TO_CACHE:   45341153

STLB TOTAL     ACCESS:    3617749  HIT:    3606356  MISS:      11393  HIT %:    99.6851  MISS %:    0.31492   MPKI: 0.056965
STLB LOAD TRANSLATION ACCESS:    3617749  HIT:    3606356  MISS:      11393  HIT %:    99.6851  MISS %:    0.31492   MPKI: 0.056965
STLB PREFETCH  REQUESTED:          0  ISSUED:          0  USEFUL:          0  USELESS:          0
STLB USEFUL LOAD PREFETCHES:          0 PREFETCH ISSUED TO LOWER LEVEL:          0  ACCURACY: -nan
STLB TIMELY PREFETCHES:          0 LATE PREFETCHES: 0 DROPPED PREFETCHES: 0
STLB PREFETCHES SAME FILL-ORIGIN LEVEL: 0 DIFFERENT FILL-ORIGIN LEVEL: 0
STLB AVERAGE MISS LATENCY: 59.1618 cycles
STLB RQ	ACCESS:    3617749	FORWARD:          0	MERGED:          0	TO_CACHE:    3617749

STLB Hit, L1D data hit: 0
STLB Hit, L2C data hit: 0
STLB Hit, LLC data hit: 0
STLB Hit, LLC data miss: 0
STLB STLB hints to L2: 0
L1D TOTAL     ACCESS:   57997589  HIT:   54188821  MISS:    3808768  HIT %:    93.4329  MISS %:    6.56711   MPKI: 19.0438
L1D LOAD      ACCESS:   33550581  HIT:   30823839  MISS:    2726742  HIT %:    91.8727  MISS %:    8.12726   MPKI: 13.6337
L1D RFO       ACCESS:   24447008  HIT:   23364982  MISS:    1082026  HIT %:     95.574  MISS %:    4.42601   MPKI: 5.41013
L1D PREFETCH  REQUESTED:          0  ISSUED:          0  USEFUL:          0  USELESS:          0
L1D USEFUL LOAD PREFETCHES:          0 PREFETCH ISSUED TO LOWER LEVEL:          0  ACCURACY: -nan
L1D TIMELY PREFETCHES:          0 LATE PREFETCHES: 0 DROPPED PREFETCHES: 0
L1D PREFETCHES SAME FILL-ORIGIN LEVEL: 0 DIFFERENT FILL-ORIGIN LEVEL: 0
L1D AVERAGE MISS LATENCY: 25.7684 cycles
L1D RQ	ACCESS:   46974134	FORWARD:          0	MERGED:   13021391	TO_CACHE:   33659291
L1D WQ	ACCESS:   26317198	FORWARD:     293452	MERGED:     173570	TO_CACHE:   26143628

L1D UNIQUE REGIONS ACCESSED: 0
L1D REGIONS CONFLICTS: 0
L1D Cross Page Prefetch Requests: 0
L1D Same Page Prefetch Requests: 0
L1D ROI Sum of L1D PQ occupancy: 0
L1D PREFETCHES PUSHED FROM L2C: 0
L1I TOTAL     ACCESS:   38819794  HIT:   29204126  MISS:    9615668  HIT %:      75.23  MISS %:      24.77   MPKI: 48.0783
L1I LOAD      ACCESS:   38819794  HIT:   29204126  MISS:    9615668  HIT %:      75.23  MISS %:      24.77   MPKI: 48.0783
L1I PREFETCH  REQUESTED:          0  ISSUED:          0  USEFUL:          0  USELESS:          0
L1I USEFUL LOAD PREFETCHES:          0 PREFETCH ISSUED TO LOWER LEVEL:          0  ACCURACY: -nan
L1I TIMELY PREFETCHES:          0 LATE PREFETCHES: 0 DROPPED PREFETCHES: 0
L1I PREFETCHES SAME FILL-ORIGIN LEVEL: 0 DIFFERENT FILL-ORIGIN LEVEL: 0
L1I AVERAGE MISS LATENCY: 16.9922 cycles
L1I RQ	ACCESS:   57801433	FORWARD:          0	MERGED:   17575053	TO_CACHE:   40226380

BTB TOTAL     ACCESS:   30276049  HIT:   18932725  MISS:   11343324  HIT %:    62.5337  MISS %:    37.4663   MPKI: 56.7166
BTB BRANCH_DIRECT_JUMP	ACCESS:    2183763  HIT:    1387870  MISS:     795893
BTB BRANCH_INDIRECT	ACCESS:   11358219  HIT:    7100300  MISS:    4257919
BTB BRANCH_CONDITIONAL	ACCESS:    8733205  HIT:    7588000  MISS:    1145205
BTB BRANCH_DIRECT_CALL	ACCESS:    3381427  HIT:    1525545  MISS:    1855882
BTB BRANCH_INDIRECT_CALL	ACCESS:     619012  HIT:     244340  MISS:     374672
BTB BRANCH_RETURN	ACCESS:    4000423  HIT:    1086670  MISS:    2913753
BTB BRANCH_OTHER ACCESS:          0  HIT:          0  MISS:          0

L2C TOTAL     ACCESS:   15643442  HIT:   13734521  MISS:    1908921  HIT %:    87.7973  MISS %:    12.2027   MPKI: 9.54461
L2C LOAD      ACCESS:   12342401  HIT:   11039304  MISS:    1303097  HIT %:    89.4421  MISS %:    10.5579   MPKI: 6.51548
L2C DATA LOAD MPKI: 1.99155
L2C INSTRUCTION LOAD MPKI: 4.52393
L2C RFO       ACCESS:    1082023  HIT:     820626  MISS:     261397  HIT %:    75.8418  MISS %:    24.1582   MPKI: 1.30699
L2C PREFETCH  ACCESS:     408695  HIT:     147653  MISS:     261042  HIT %:    36.1279  MISS %:    63.8721   MPKI: 1.30521
AGUS PREFETCH L1 MISS: 0
L2C DATA PREFETCH MPKI: 1.30521
L2C INSTRUCTION PREFETCH MPKI: 0
L2C WRITEBACK ACCESS:    1797792  HIT:    1722678  MISS:      75114  HIT %:    95.8219  MISS %:    4.17813   MPKI: 0.37557
L2C LOAD TRANSLATION ACCESS:      12531  HIT:       4260  MISS:       8271  HIT %:    33.9957  MISS %:    66.0043   MPKI: 0.041355
L2C PREFETCH  REQUESTED:     440043  ISSUED:     440043  USEFUL:      60736  USELESS:     200070
L2C USEFUL LOAD PREFETCHES:      60736 PREFETCH ISSUED TO LOWER LEVEL:     284732  ACCURACY: 21.3309
L2C TIMELY PREFETCHES:      60736 LATE PREFETCHES: 23690 DROPPED PREFETCHES: 0
L2C PREFETCHES SAME FILL-ORIGIN LEVEL: 284732 DIFFERENT FILL-ORIGIN LEVEL: 0
L2C AVERAGE MISS LATENCY: 44.8813 cycles
L2C RQ	ACCESS:   13436967	FORWARD:          0	MERGED:          0	TO_CACHE:   13436955
L2C WQ	ACCESS:    1797792	FORWARD:         12	MERGED:          0	TO_CACHE:    1797792
L2C PQ	ACCESS:     440043	FORWARD:          0	MERGED:          1	TO_CACHE:     440042

L2C Instructions Evicting Data 423768
L2C Translations Evicting Data 5899
L2C Data Evicting Data 530779
L2C Instructions Evicting Instructions 478714
L2C Translations Evicting Instructions 2302
L2C Data Evicting Instructions 384291
L2C Instructions Evicting Translations 2305
L2C Translations Evicting Translations 70
L2C Data Evicting Translations 5679
L2C Dense regions hint from L2: 0
PSCL5 TOTAL     ACCESS:      11393  HIT:      11393  MISS:          0  HIT %:        100  MISS %:          0   MPKI: 0
PSCL5 LOAD TRANSLATION ACCESS:      11393  HIT:      11393  MISS:          0  HIT %:        100  MISS %:          0   MPKI: 0
PSCL5 PREFETCH  REQUESTED:          0  ISSUED:          0  USEFUL:          0  USELESS:          0
PSCL5 USEFUL LOAD PREFETCHES:          0 PREFETCH ISSUED TO LOWER LEVEL:          0  ACCURACY: -nan
PSCL5 TIMELY PREFETCHES:          0 LATE PREFETCHES: 0 DROPPED PREFETCHES: 0
PSCL5 PREFETCHES SAME FILL-ORIGIN LEVEL: 0 DIFFERENT FILL-ORIGIN LEVEL: 0

PSCL4 TOTAL     ACCESS:      10814  HIT:      10779  MISS:         35  HIT %:    99.6763  MISS %:   0.323655   MPKI: 0.000175
PSCL4 LOAD TRANSLATION ACCESS:      10814  HIT:      10779  MISS:         35  HIT %:    99.6763  MISS %:   0.323655   MPKI: 0.000175
PSCL4 PREFETCH  REQUESTED:          0  ISSUED:          0  USEFUL:          0  USELESS:          0
PSCL4 USEFUL LOAD PREFETCHES:          0 PREFETCH ISSUED TO LOWER LEVEL:          0  ACCURACY: -nan
PSCL4 TIMELY PREFETCHES:          0 LATE PREFETCHES: 0 DROPPED PREFETCHES: 0
PSCL4 PREFETCHES SAME FILL-ORIGIN LEVEL: 0 DIFFERENT FILL-ORIGIN LEVEL: 0

PSCL3 TOTAL     ACCESS:      11333  HIT:      11298  MISS:         35  HIT %:    99.6912  MISS %:   0.308833   MPKI: 0.000175
PSCL3 LOAD TRANSLATION ACCESS:      11333  HIT:      11298  MISS:         35  HIT %:    99.6912  MISS %:   0.308833   MPKI: 0.000175
PSCL3 PREFETCH  REQUESTED:          0  ISSUED:          0  USEFUL:          0  USELESS:          0
PSCL3 USEFUL LOAD PREFETCHES:          0 PREFETCH ISSUED TO LOWER LEVEL:          0  ACCURACY: -nan
PSCL3 TIMELY PREFETCHES:          0 LATE PREFETCHES: 0 DROPPED PREFETCHES: 0
PSCL3 PREFETCHES SAME FILL-ORIGIN LEVEL: 0 DIFFERENT FILL-ORIGIN LEVEL: 0

PSCL2 TOTAL     ACCESS:      11393  HIT:      10324  MISS:       1069  HIT %:     90.617  MISS %:    9.38295   MPKI: 0.005345
PSCL2 LOAD TRANSLATION ACCESS:      11393  HIT:      10324  MISS:       1069  HIT %:     90.617  MISS %:    9.38295   MPKI: 0.005345
PSCL2 PREFETCH  REQUESTED:          0  ISSUED:          0  USEFUL:          0  USELESS:          0
PSCL2 USEFUL LOAD PREFETCHES:          0 PREFETCH ISSUED TO LOWER LEVEL:          0  ACCURACY: -nan
PSCL2 TIMELY PREFETCHES:          0 LATE PREFETCHES: 0 DROPPED PREFETCHES: 0
PSCL2 PREFETCHES SAME FILL-ORIGIN LEVEL: 0 DIFFERENT FILL-ORIGIN LEVEL: 0

LLC TOTAL     ACCESS:    2192735  HIT:    2016634  MISS:     176101  HIT %:    91.9689  MISS %:    8.03111   MPKI: 0.880505
LLC LOAD      ACCESS:    1279432  HIT:    1247885  MISS:      31547  HIT %:    97.5343  MISS %:     2.4657   MPKI: 0.157735
LLC RFO       ACCESS:     261364  HIT:     181845  MISS:      79519  HIT %:    69.5754  MISS %:    30.4246   MPKI: 0.397595
LLC PREFETCH  ACCESS:     284731  HIT:     222082  MISS:      62649  HIT %:    77.9971  MISS %:    22.0029   MPKI: 0.313245
AGUS PREFETCH L1 MISS: 0
LLC WRITEBACK ACCESS:     358937  HIT:     357440  MISS:       1497  HIT %:    99.5829  MISS %:   0.417065   MPKI: 0.007485
LLC LOAD TRANSLATION ACCESS:       8271  HIT:       7382  MISS:        889  HIT %:    89.2516  MISS %:    10.7484   MPKI: 0.004445
LLC PREFETCH  REQUESTED:          0  ISSUED:          0  USEFUL:       4421  USELESS:      54125
LLC USEFUL LOAD PREFETCHES:       4421 PREFETCH ISSUED TO LOWER LEVEL:      62649  ACCURACY: 7.05678
LLC TIMELY PREFETCHES:       4421 LATE PREFETCHES: 0 DROPPED PREFETCHES: 0
LLC PREFETCHES SAME FILL-ORIGIN LEVEL: 0 DIFFERENT FILL-ORIGIN LEVEL: 0
LLC AVERAGE MISS LATENCY: 180.805 cycles
LLC RQ	ACCESS:    1549075	FORWARD:          0	MERGED:          0	TO_CACHE:    1549067
LLC WQ	ACCESS:     358937	FORWARD:          9	MERGED:          0	TO_CACHE:     358937
LLC PQ	ACCESS:     284732	FORWARD:          0	MERGED:          0	TO_CACHE:     284731

LLC Dense regions hint to LLC: 0

RAW hits: 1389838
Loads Generated: 48363973
Loads sent to L1D: 46974134
Stores Generated: 26317189
Stores sent to L1D: 26317198
Major fault: 0 Minor fault: 2466
Allocated PAGES: 2466
CPU 0 L2C best offset prefetcher final stats

DRAM Statistics
 CHANNEL 0
 RQ ROW_BUFFER_HIT:      67866  ROW_BUFFER_MISS:     106721
 DBUS_CONGESTED:         81
 WQ ROW_BUFFER_HIT:       8524  ROW_BUFFER_MISS:      82377  FULL:          0

 AVG_CONGESTED_CYCLE: 5
 All warmup complete: 2
Channel 0 Bank busy for read cycles: 0
Channel 0 Bank busy for write cycles: 0
Channel 0
Rank 0
0banks busy for read cycles: 586166992
0banks busy for write cycles: 21714
1banks busy for read cycles: 4575203
1banks busy for write cycles: 2623003
2banks busy for read cycles: 1529697
2banks busy for write cycles: 787392
3banks busy for read cycles: 422891
3banks busy for write cycles: 377784
4banks busy for read cycles: 326654
4banks busy for write cycles: 263487
5banks busy for read cycles: 252155
5banks busy for write cycles: 221516
6banks busy for read cycles: 264971
6banks busy for write cycles: 213675
7banks busy for read cycles: 314010
7banks busy for write cycles: 246805
8banks busy for read cycles: 542491
8banks busy for write cycles: 581698

CPU 0 Branch Prediction Accuracy: 99.8129% MPKI: 0.329815 Average ROB Occupancy at Mispredict: 48.8381
Branch types
NOT_BRANCH: 164744967 82.3725%
BRANCH_DIRECT_JUMP: 2183763 1.09188%
BRANCH_INDIRECT: 11358219 5.67911%
BRANCH_CONDITIONAL: 13711964 6.85598%
BRANCH_DIRECT_CALL: 3381427 1.69071%
BRANCH_INDIRECT_CALL: 619012 0.309506%
BRANCH_RETURN: 4000423 2.00021%
BRANCH_OTHER: 0 0%

DRAM PAGES: 1048576
Allocated PAGES: 2466
