
*** ChampSim Multicore Out-of-Order Simulator ***

Warmup Instructions: 50000000
Simulation Instructions: 200000000
Number of CPUs: 1
LLC sets: 2048
LLC ways: 16
Off-chip DRAM Size: 4096 MB Channels: 1 Width: 64-bit Data Rate: 6400 MT/s
CPU 0 runs traces/spec2k17/server_019.champsimtrace.xz
.xz
BTB has LRU replacement policy
ITLB has LRU replacement policy
DTLB has LRU replacement policy
STLB has LRU replacement policy
L1I has LRU replacement policy
L1D has LRU replacement policy
CPU 0 L2C best offset prefetcher
Initialize SRRIP state for L2C
Initialize DRRIP state for LLC
Heartbeat CPU 0 instructions: 10000001 cycles: 2943463 heartbeat IPC: 3.39736 cumulative IPC: 3.39736 (Simulation time: 0 hr 0 min 39 sec) 
Heartbeat CPU 0 instructions: 20000002 cycles: 5885092 heartbeat IPC: 3.39948 cumulative IPC: 3.39842 (Simulation time: 0 hr 1 min 23 sec) 
Heartbeat CPU 0 instructions: 30000000 cycles: 8823201 heartbeat IPC: 3.40355 cumulative IPC: 3.40013 (Simulation time: 0 hr 2 min 4 sec) 
Heartbeat CPU 0 instructions: 40000003 cycles: 11767301 heartbeat IPC: 3.39662 cumulative IPC: 3.39925 (Simulation time: 0 hr 2 min 47 sec) 
Heartbeat CPU 0 instructions: 50000000 cycles: 14702585 heartbeat IPC: 3.40682 cumulative IPC: 3.40076 (Simulation time: 0 hr 3 min 26 sec) 

Warmup complete CPU 0 instructions: 50000004 cycles: 14702586 (Simulation time: 0 hr 3 min 26 sec) 

Heartbeat CPU 0 instructions: 60000000 cycles: 37766718 heartbeat IPC: 0.433574 cumulative IPC: 0.433573 (Simulation time: 0 hr 4 min 42 sec) 
Heartbeat CPU 0 instructions: 70000000 cycles: 59256666 heartbeat IPC: 0.465334 cumulative IPC: 0.448893 (Simulation time: 0 hr 5 min 53 sec) 
Heartbeat CPU 0 instructions: 80000000 cycles: 91127854 heartbeat IPC: 0.313763 cumulative IPC: 0.39254 (Simulation time: 0 hr 7 min 8 sec) 
Heartbeat CPU 0 instructions: 90000000 cycles: 112357535 heartbeat IPC: 0.471039 cumulative IPC: 0.409605 (Simulation time: 0 hr 8 min 19 sec) 
Heartbeat CPU 0 instructions: 100000000 cycles: 133575247 heartbeat IPC: 0.471304 cumulative IPC: 0.420618 (Simulation time: 0 hr 9 min 25 sec) 
*** Reached end of trace for Core: 0 Repeating trace: traces/spec2k17/server_019.champsimtrace.xz
Heartbeat CPU 0 instructions: 110000000 cycles: 154195964 heartbeat IPC: 0.484949 cumulative IPC: 0.430128 (Simulation time: 0 hr 10 min 36 sec) 
Heartbeat CPU 0 instructions: 120000003 cycles: 174292194 heartbeat IPC: 0.497606 cumulative IPC: 0.438625 (Simulation time: 0 hr 11 min 45 sec) 
Heartbeat CPU 0 instructions: 130000000 cycles: 194254598 heartbeat IPC: 0.500942 cumulative IPC: 0.445553 (Simulation time: 0 hr 12 min 56 sec) 
Heartbeat CPU 0 instructions: 140000000 cycles: 214023376 heartbeat IPC: 0.505848 cumulative IPC: 0.451533 (Simulation time: 0 hr 14 min 6 sec) 
Heartbeat CPU 0 instructions: 150000003 cycles: 233976937 heartbeat IPC: 0.501164 cumulative IPC: 0.45605 (Simulation time: 0 hr 15 min 15 sec) 
Heartbeat CPU 0 instructions: 160000000 cycles: 253346492 heartbeat IPC: 0.516274 cumulative IPC: 0.460938 (Simulation time: 0 hr 16 min 22 sec) 
Heartbeat CPU 0 instructions: 170000000 cycles: 275734781 heartbeat IPC: 0.446662 cumulative IPC: 0.459713 (Simulation time: 0 hr 17 min 41 sec) 
Heartbeat CPU 0 instructions: 180000000 cycles: 298999487 heartbeat IPC: 0.429836 cumulative IPC: 0.457268 (Simulation time: 0 hr 18 min 52 sec) 
Heartbeat CPU 0 instructions: 190000001 cycles: 329873177 heartbeat IPC: 0.3239 cumulative IPC: 0.444204 (Simulation time: 0 hr 20 min 5 sec) 
Heartbeat CPU 0 instructions: 200000002 cycles: 351007014 heartbeat IPC: 0.473175 cumulative IPC: 0.446024 (Simulation time: 0 hr 21 min 18 sec) 
Heartbeat CPU 0 instructions: 210000000 cycles: 371948400 heartbeat IPC: 0.477523 cumulative IPC: 0.447871 (Simulation time: 0 hr 22 min 29 sec) 
*** Reached end of trace for Core: 0 Repeating trace: traces/spec2k17/server_019.champsimtrace.xz
Heartbeat CPU 0 instructions: 220000000 cycles: 392201605 heartbeat IPC: 0.493749 cumulative IPC: 0.450332 (Simulation time: 0 hr 23 min 36 sec) 
Heartbeat CPU 0 instructions: 230000000 cycles: 412332942 heartbeat IPC: 0.496738 cumulative IPC: 0.452682 (Simulation time: 0 hr 24 min 47 sec) 
Heartbeat CPU 0 instructions: 240000003 cycles: 432159575 heartbeat IPC: 0.504372 cumulative IPC: 0.455137 (Simulation time: 0 hr 25 min 56 sec) 
Heartbeat CPU 0 instructions: 250000000 cycles: 452048125 heartbeat IPC: 0.502802 cumulative IPC: 0.457304 (Simulation time: 0 hr 27 min 4 sec) 
Finished CPU 0 instructions: 200000000 cycles: 437345541 cumulative IPC: 0.457304 (Simulation time: 0 hr 27 min 4 sec) 

ChampSim completed all CPUs

Region of Interest Statistics

CPU 0 cumulative IPC: 0.457304 instructions: 200000000 cycles: 437345541
ITLB TOTAL     ACCESS:   33565919  HIT:   32136355  MISS:    1429564  HIT %:     95.741  MISS %:    4.25897   MPKI: 7.14782
ITLB LOAD TRANSLATION ACCESS:   33565919  HIT:   32136355  MISS:    1429564  HIT %:     95.741  MISS %:    4.25897   MPKI: 7.14782
ITLB PREFETCH  REQUESTED:          0  ISSUED:          0  USEFUL:          0  USELESS:          0
ITLB USEFUL LOAD PREFETCHES:          0 PREFETCH ISSUED TO LOWER LEVEL:          0  ACCURACY: -nan
ITLB TIMELY PREFETCHES:          0 LATE PREFETCHES: 0 DROPPED PREFETCHES: 0
ITLB PREFETCHES SAME FILL-ORIGIN LEVEL: 0 DIFFERENT FILL-ORIGIN LEVEL: 0
ITLB AVERAGE MISS LATENCY: 9.40282 cycles
ITLB RQ	ACCESS:   40222953	FORWARD:          0	MERGED:    6197102	TO_CACHE:   34025851

DTLB TOTAL     ACCESS:   38825442  HIT:   37228124  MISS:    1597318  HIT %:    95.8859  MISS %:     4.1141   MPKI: 7.98659
DTLB LOAD TRANSLATION ACCESS:   38825442  HIT:   37228124  MISS:    1597318  HIT %:    95.8859  MISS %:     4.1141   MPKI: 7.98659
DTLB PREFETCH  REQUESTED:          0  ISSUED:          0  USEFUL:          0  USELESS:          0
DTLB USEFUL LOAD PREFETCHES:          0 PREFETCH ISSUED TO LOWER LEVEL:          0  ACCURACY: -nan
DTLB TIMELY PREFETCHES:          0 LATE PREFETCHES: 0 DROPPED PREFETCHES: 0
DTLB PREFETCHES SAME FILL-ORIGIN LEVEL: 0 DIFFERENT FILL-ORIGIN LEVEL: 0
DTLB AVERAGE MISS LATENCY: 19.8815 cycles
DTLB RQ	ACCESS:   58850472	FORWARD:          0	MERGED:   19629080	TO_CACHE:   39221392

STLB TOTAL     ACCESS:    3026882  HIT:    2857758  MISS:     169124  HIT %:    94.4126  MISS %:     5.5874   MPKI: 0.84562
STLB LOAD TRANSLATION ACCESS:    3026882  HIT:    2857758  MISS:     169124  HIT %:    94.4126  MISS %:     5.5874   MPKI: 0.84562
STLB PREFETCH  REQUESTED:          0  ISSUED:          0  USEFUL:          0  USELESS:          0
STLB USEFUL LOAD PREFETCHES:          0 PREFETCH ISSUED TO LOWER LEVEL:          0  ACCURACY: -nan
STLB TIMELY PREFETCHES:          0 LATE PREFETCHES: 0 DROPPED PREFETCHES: 0
STLB PREFETCHES SAME FILL-ORIGIN LEVEL: 0 DIFFERENT FILL-ORIGIN LEVEL: 0
STLB AVERAGE MISS LATENCY: 105.994 cycles
STLB RQ	ACCESS:    3026883	FORWARD:          0	MERGED:          0	TO_CACHE:    3026883

STLB Hit, L1D data hit: 0
STLB Hit, L2C data hit: 0
STLB Hit, LLC data hit: 0
STLB Hit, LLC data miss: 0
STLB STLB hints to L2: 0
L1D TOTAL     ACCESS:   47140812  HIT:   40401620  MISS:    6739192  HIT %:    85.7041  MISS %:    14.2959   MPKI: 33.696
L1D LOAD      ACCESS:   25976137  HIT:   22796303  MISS:    3179834  HIT %:    87.7586  MISS %:    12.2414   MPKI: 15.8992
L1D RFO       ACCESS:   21164675  HIT:   17605317  MISS:    3559358  HIT %:    83.1826  MISS %:    16.8174   MPKI: 17.7968
L1D PREFETCH  REQUESTED:          0  ISSUED:          0  USEFUL:          0  USELESS:          0
L1D USEFUL LOAD PREFETCHES:          0 PREFETCH ISSUED TO LOWER LEVEL:          0  ACCURACY: -nan
L1D TIMELY PREFETCHES:          0 LATE PREFETCHES: 0 DROPPED PREFETCHES: 0
L1D PREFETCHES SAME FILL-ORIGIN LEVEL: 0 DIFFERENT FILL-ORIGIN LEVEL: 0
L1D AVERAGE MISS LATENCY: 191.241 cycles
L1D RQ	ACCESS:   44271902	FORWARD:          0	MERGED:   17569745	TO_CACHE:   26438464
L1D WQ	ACCESS:   32636784	FORWARD:     263693	MERGED:     224776	TO_CACHE:   32412008

L1D UNIQUE REGIONS ACCESSED: 0
L1D REGIONS CONFLICTS: 0
L1D Cross Page Prefetch Requests: 0
L1D Same Page Prefetch Requests: 0
L1D ROI Sum of L1D PQ occupancy: 0
L1D PREFETCHES PUSHED FROM L2C: 0
L1I TOTAL     ACCESS:   37734868  HIT:   29233441  MISS:    8501427  HIT %:    77.4706  MISS %:    22.5294   MPKI: 42.5071
L1I LOAD      ACCESS:   37734868  HIT:   29233441  MISS:    8501427  HIT %:    77.4706  MISS %:    22.5294   MPKI: 42.5071
L1I PREFETCH  REQUESTED:          0  ISSUED:          0  USEFUL:          0  USELESS:          0
L1I USEFUL LOAD PREFETCHES:          0 PREFETCH ISSUED TO LOWER LEVEL:          0  ACCURACY: -nan
L1I TIMELY PREFETCHES:          0 LATE PREFETCHES: 0 DROPPED PREFETCHES: 0
L1I PREFETCHES SAME FILL-ORIGIN LEVEL: 0 DIFFERENT FILL-ORIGIN LEVEL: 0
L1I AVERAGE MISS LATENCY: 17.0503 cycles
L1I RQ	ACCESS:   58443222	FORWARD:          0	MERGED:   18220269	TO_CACHE:   40222953

BTB TOTAL     ACCESS:   25868833  HIT:   24240387  MISS:    1628446  HIT %:     93.705  MISS %:    6.29501   MPKI: 8.14223
BTB BRANCH_DIRECT_JUMP	ACCESS:    1694760  HIT:    1684405  MISS:      10355
BTB BRANCH_INDIRECT	ACCESS:    9830410  HIT:    9194063  MISS:     636347
BTB BRANCH_CONDITIONAL	ACCESS:    7683208  HIT:    7668728  MISS:      14480
BTB BRANCH_DIRECT_CALL	ACCESS:    2643025  HIT:    2609037  MISS:      33988
BTB BRANCH_INDIRECT_CALL	ACCESS:     687193  HIT:     583910  MISS:     103283
BTB BRANCH_RETURN	ACCESS:    3330237  HIT:    2500244  MISS:     829993
BTB BRANCH_OTHER ACCESS:          0  HIT:          0  MISS:          0

L2C TOTAL     ACCESS:   21915759  HIT:   14072441  MISS:    7843318  HIT %:    64.2115  MISS %:    35.7885   MPKI: 39.2166
L2C LOAD      ACCESS:   11681096  HIT:    9339584  MISS:    2341512  HIT %:    79.9547  MISS %:    20.0453   MPKI: 11.7076
L2C DATA LOAD MPKI: 8.67976
L2C INSTRUCTION LOAD MPKI: 3.0278
L2C RFO       ACCESS:    3559350  HIT:     137597  MISS:    3421753  HIT %:    3.86579  MISS %:    96.1342   MPKI: 17.1088
L2C PREFETCH  ACCESS:    2096268  HIT:     294326  MISS:    1801942  HIT %:    14.0405  MISS %:    85.9595   MPKI: 9.00971
AGUS PREFETCH L1 MISS: 0
L2C DATA PREFETCH MPKI: 9.00971
L2C INSTRUCTION PREFETCH MPKI: 0
L2C WRITEBACK ACCESS:    4350419  HIT:    4157813  MISS:     192606  HIT %:    95.5727  MISS %:     4.4273   MPKI: 0.96303
L2C LOAD TRANSLATION ACCESS:     228626  HIT:     143121  MISS:      85505  HIT %:    62.6005  MISS %:    37.3995   MPKI: 0.427525
L2C PREFETCH  REQUESTED:    2459192  ISSUED:    2459192  USEFUL:     757180  USELESS:    1045127
L2C USEFUL LOAD PREFETCHES:     757180 PREFETCH ISSUED TO LOWER LEVEL:    2139014  ACCURACY: 35.3986
L2C TIMELY PREFETCHES:     757180 LATE PREFETCHES: 337072 DROPPED PREFETCHES: 0
L2C PREFETCHES SAME FILL-ORIGIN LEVEL: 2139014 DIFFERENT FILL-ORIGIN LEVEL: 0
L2C AVERAGE MISS LATENCY: 199.689 cycles
L2C RQ	ACCESS:   15469245	FORWARD:          0	MERGED:          0	TO_CACHE:   15469072
L2C WQ	ACCESS:    4350419	FORWARD:        173	MERGED:          0	TO_CACHE:    4350419
L2C PQ	ACCESS:    2459192	FORWARD:          0	MERGED:         62	TO_CACHE:    2459130

L2C Instructions Evicting Data 550201
L2C Translations Evicting Data 78328
L2C Data Evicting Data 6346956
L2C Instructions Evicting Instructions 49605
L2C Translations Evicting Instructions 6100
L2C Data Evicting Instructions 535728
L2C Instructions Evicting Translations 5755
L2C Translations Evicting Translations 1077
L2C Data Evicting Translations 76962
L2C Dense regions hint from L2: 0
PSCL5 TOTAL     ACCESS:     169124  HIT:     169124  MISS:          0  HIT %:        100  MISS %:          0   MPKI: 0
PSCL5 LOAD TRANSLATION ACCESS:     169124  HIT:     169124  MISS:          0  HIT %:        100  MISS %:          0   MPKI: 0
PSCL5 PREFETCH  REQUESTED:          0  ISSUED:          0  USEFUL:          0  USELESS:          0
PSCL5 USEFUL LOAD PREFETCHES:          0 PREFETCH ISSUED TO LOWER LEVEL:          0  ACCURACY: -nan
PSCL5 TIMELY PREFETCHES:          0 LATE PREFETCHES: 0 DROPPED PREFETCHES: 0
PSCL5 PREFETCHES SAME FILL-ORIGIN LEVEL: 0 DIFFERENT FILL-ORIGIN LEVEL: 0

PSCL4 TOTAL     ACCESS:     166003  HIT:     165695  MISS:        308  HIT %:    99.8145  MISS %:   0.185539   MPKI: 0.00154
PSCL4 LOAD TRANSLATION ACCESS:     166003  HIT:     165695  MISS:        308  HIT %:    99.8145  MISS %:   0.185539   MPKI: 0.00154
PSCL4 PREFETCH  REQUESTED:          0  ISSUED:          0  USEFUL:          0  USELESS:          0
PSCL4 USEFUL LOAD PREFETCHES:          0 PREFETCH ISSUED TO LOWER LEVEL:          0  ACCURACY: -nan
PSCL4 TIMELY PREFETCHES:          0 LATE PREFETCHES: 0 DROPPED PREFETCHES: 0
PSCL4 PREFETCHES SAME FILL-ORIGIN LEVEL: 0 DIFFERENT FILL-ORIGIN LEVEL: 0

PSCL3 TOTAL     ACCESS:     165814  HIT:     164261  MISS:       1553  HIT %:    99.0634  MISS %:   0.936592   MPKI: 0.007765
PSCL3 LOAD TRANSLATION ACCESS:     165814  HIT:     164261  MISS:       1553  HIT %:    99.0634  MISS %:   0.936592   MPKI: 0.007765
PSCL3 PREFETCH  REQUESTED:          0  ISSUED:          0  USEFUL:          0  USELESS:          0
PSCL3 USEFUL LOAD PREFETCHES:          0 PREFETCH ISSUED TO LOWER LEVEL:          0  ACCURACY: -nan
PSCL3 TIMELY PREFETCHES:          0 LATE PREFETCHES: 0 DROPPED PREFETCHES: 0
PSCL3 PREFETCHES SAME FILL-ORIGIN LEVEL: 0 DIFFERENT FILL-ORIGIN LEVEL: 0

PSCL2 TOTAL     ACCESS:     169124  HIT:     111446  MISS:      57678  HIT %:     65.896  MISS %:     34.104   MPKI: 0.28839
PSCL2 LOAD TRANSLATION ACCESS:     169124  HIT:     111446  MISS:      57678  HIT %:     65.896  MISS %:     34.104   MPKI: 0.28839
PSCL2 PREFETCH  REQUESTED:          0  ISSUED:          0  USEFUL:          0  USELESS:          0
PSCL2 USEFUL LOAD PREFETCHES:          0 PREFETCH ISSUED TO LOWER LEVEL:          0  ACCURACY: -nan
PSCL2 TIMELY PREFETCHES:          0 LATE PREFETCHES: 0 DROPPED PREFETCHES: 0
PSCL2 PREFETCHES SAME FILL-ORIGIN LEVEL: 0 DIFFERENT FILL-ORIGIN LEVEL: 0

LLC TOTAL     ACCESS:   11750797  HIT:    6219149  MISS:    5531648  HIT %:    52.9253  MISS %:    47.0747   MPKI: 27.6582
LLC LOAD      ACCESS:    2004601  HIT:    1362732  MISS:     641869  HIT %:    67.9802  MISS %:    32.0198   MPKI: 3.20934
LLC RFO       ACCESS:    3421576  HIT:     595718  MISS:    2825858  HIT %:    17.4106  MISS %:    82.5894   MPKI: 14.1293
LLC PREFETCH  ACCESS:    2139014  HIT:     647551  MISS:    1491463  HIT %:    30.2733  MISS %:    69.7267   MPKI: 7.45732
AGUS PREFETCH L1 MISS: 0
LLC WRITEBACK ACCESS:    4100101  HIT:    3572853  MISS:     527248  HIT %:    87.1406  MISS %:    12.8594   MPKI: 2.63624
LLC LOAD TRANSLATION ACCESS:      85505  HIT:      40295  MISS:      45210  HIT %:    47.1259  MISS %:    52.8741   MPKI: 0.22605
LLC PREFETCH  REQUESTED:          0  ISSUED:          0  USEFUL:      46492  USELESS:    1445111
LLC USEFUL LOAD PREFETCHES:      46492 PREFETCH ISSUED TO LOWER LEVEL:    1491463  ACCURACY: 3.11721
LLC TIMELY PREFETCHES:      46492 LATE PREFETCHES: 0 DROPPED PREFETCHES: 0
LLC PREFETCHES SAME FILL-ORIGIN LEVEL: 0 DIFFERENT FILL-ORIGIN LEVEL: 0
LLC AVERAGE MISS LATENCY: 249.108 cycles
LLC RQ	ACCESS:    5511698	FORWARD:          0	MERGED:          0	TO_CACHE:    5511682
LLC WQ	ACCESS:    4100101	FORWARD:         16	MERGED:          0	TO_CACHE:    4100101
LLC PQ	ACCESS:    2139014	FORWARD:          0	MERGED:          0	TO_CACHE:    2139014

LLC Dense regions hint to LLC: 0

RAW hits: 2526529
Loads Generated: 46798431
Loads sent to L1D: 44271902
Stores Generated: 32636771
Stores sent to L1D: 32636784
Major fault: 0 Minor fault: 25901
Allocated PAGES: 25901
CPU 0 L2C best offset prefetcher final stats

DRAM Statistics
 CHANNEL 0
 RQ ROW_BUFFER_HIT:    2155170  ROW_BUFFER_MISS:    2848669
 DBUS_CONGESTED:       1404
 WQ ROW_BUFFER_HIT:     696443  ROW_BUFFER_MISS:    2484117  FULL:      12487

 AVG_CONGESTED_CYCLE: 3
 All warmup complete: 2
Channel 0 Bank busy for read cycles: 0
Channel 0 Bank busy for write cycles: 0
Channel 0
Rank 0
0banks busy for read cycles: 156784490
0banks busy for write cycles: 186599
1banks busy for read cycles: 57536131
1banks busy for write cycles: 25421654
2banks busy for read cycles: 34089407
2banks busy for write cycles: 14150361
3banks busy for read cycles: 18087753
3banks busy for write cycles: 9146699
4banks busy for read cycles: 7206007
4banks busy for write cycles: 6733010
5banks busy for read cycles: 4782319
5banks busy for write cycles: 5151077
6banks busy for read cycles: 5976238
6banks busy for write cycles: 4333605
7banks busy for read cycles: 8300290
7banks busy for write cycles: 6535285
8banks busy for read cycles: 28201803
8banks busy for write cycles: 44722814

CPU 0 Branch Prediction Accuracy: 99.9365% MPKI: 0.098915 Average ROB Occupancy at Mispredict: 102.266
Branch types
NOT_BRANCH: 168850935 84.4255%
BRANCH_DIRECT_JUMP: 1694760 0.84738%
BRANCH_INDIRECT: 9830410 4.91521%
BRANCH_CONDITIONAL: 12963086 6.48154%
BRANCH_DIRECT_CALL: 2643025 1.32151%
BRANCH_INDIRECT_CALL: 687193 0.343597%
BRANCH_RETURN: 3330237 1.66512%
BRANCH_OTHER: 0 0%

DRAM PAGES: 1048576
Allocated PAGES: 25901
