
*** ChampSim Multicore Out-of-Order Simulator ***

Warmup Instructions: 50000000
Simulation Instructions: 200000000
Number of CPUs: 1
LLC sets: 2048
LLC ways: 16
Off-chip DRAM Size: 4096 MB Channels: 1 Width: 64-bit Data Rate: 6400 MT/s
CPU 0 runs traces/spec2k17/server_038.champsimtrace.xz
.xz
BTB has LRU replacement policy
ITLB has LRU replacement policy
DTLB has LRU replacement policy
STLB has LRU replacement policy
L1I has LRU replacement policy
L1D has LRU replacement policy
CPU 0 L2C best offset prefetcher
Initialize SRRIP state for L2C
Initialize DRRIP state for LLC
Heartbeat CPU 0 instructions: 10000000 cycles: 2787264 heartbeat IPC: 3.58775 cumulative IPC: 3.58775 (Simulation time: 0 hr 0 min 31 sec) 
Heartbeat CPU 0 instructions: 20000002 cycles: 5572461 heartbeat IPC: 3.59041 cumulative IPC: 3.58908 (Simulation time: 0 hr 1 min 3 sec) 
Heartbeat CPU 0 instructions: 30000003 cycles: 8356552 heartbeat IPC: 3.59184 cumulative IPC: 3.59 (Simulation time: 0 hr 1 min 34 sec) 
Heartbeat CPU 0 instructions: 40000001 cycles: 11141001 heartbeat IPC: 3.59137 cumulative IPC: 3.59034 (Simulation time: 0 hr 2 min 4 sec) 
Heartbeat CPU 0 instructions: 50000001 cycles: 13925721 heartbeat IPC: 3.59103 cumulative IPC: 3.59048 (Simulation time: 0 hr 2 min 31 sec) 

Warmup complete CPU 0 instructions: 50000001 cycles: 13925721 (Simulation time: 0 hr 2 min 31 sec) 

Heartbeat CPU 0 instructions: 60000000 cycles: 34093935 heartbeat IPC: 0.49583 cumulative IPC: 0.49583 (Simulation time: 0 hr 3 min 23 sec) 
Heartbeat CPU 0 instructions: 70000000 cycles: 54106832 heartbeat IPC: 0.499678 cumulative IPC: 0.497746 (Simulation time: 0 hr 4 min 14 sec) 
Heartbeat CPU 0 instructions: 80000000 cycles: 74111897 heartbeat IPC: 0.499873 cumulative IPC: 0.498453 (Simulation time: 0 hr 5 min 3 sec) 
Heartbeat CPU 0 instructions: 90000001 cycles: 94129584 heartbeat IPC: 0.499558 cumulative IPC: 0.498729 (Simulation time: 0 hr 5 min 55 sec) 
Heartbeat CPU 0 instructions: 100000002 cycles: 114115059 heartbeat IPC: 0.500363 cumulative IPC: 0.499055 (Simulation time: 0 hr 6 min 44 sec) 
*** Reached end of trace for Core: 0 Repeating trace: traces/spec2k17/server_038.champsimtrace.xz
Heartbeat CPU 0 instructions: 110000000 cycles: 134277329 heartbeat IPC: 0.495976 cumulative IPC: 0.498539 (Simulation time: 0 hr 7 min 35 sec) 
Heartbeat CPU 0 instructions: 120000003 cycles: 154350310 heartbeat IPC: 0.498182 cumulative IPC: 0.498488 (Simulation time: 0 hr 8 min 26 sec) 
Heartbeat CPU 0 instructions: 130000001 cycles: 174370191 heartbeat IPC: 0.499503 cumulative IPC: 0.498615 (Simulation time: 0 hr 9 min 17 sec) 
Heartbeat CPU 0 instructions: 140000001 cycles: 194403727 heartbeat IPC: 0.499163 cumulative IPC: 0.498676 (Simulation time: 0 hr 10 min 9 sec) 
Heartbeat CPU 0 instructions: 150000002 cycles: 214402368 heartbeat IPC: 0.500034 cumulative IPC: 0.498811 (Simulation time: 0 hr 11 min 0 sec) 
Heartbeat CPU 0 instructions: 160000000 cycles: 234475822 heartbeat IPC: 0.49817 cumulative IPC: 0.498753 (Simulation time: 0 hr 11 min 52 sec) 
Heartbeat CPU 0 instructions: 170000002 cycles: 254440752 heartbeat IPC: 0.500878 cumulative IPC: 0.498929 (Simulation time: 0 hr 12 min 42 sec) 
Heartbeat CPU 0 instructions: 180000000 cycles: 274402271 heartbeat IPC: 0.500964 cumulative IPC: 0.499085 (Simulation time: 0 hr 13 min 33 sec) 
Heartbeat CPU 0 instructions: 190000002 cycles: 294361303 heartbeat IPC: 0.501026 cumulative IPC: 0.499223 (Simulation time: 0 hr 14 min 22 sec) 
Heartbeat CPU 0 instructions: 200000001 cycles: 314313838 heartbeat IPC: 0.501189 cumulative IPC: 0.499354 (Simulation time: 0 hr 15 min 14 sec) 
*** Reached end of trace for Core: 0 Repeating trace: traces/spec2k17/server_038.champsimtrace.xz
Heartbeat CPU 0 instructions: 210000003 cycles: 334439647 heartbeat IPC: 0.496875 cumulative IPC: 0.499198 (Simulation time: 0 hr 16 min 6 sec) 
Heartbeat CPU 0 instructions: 220000000 cycles: 354535903 heartbeat IPC: 0.497605 cumulative IPC: 0.499104 (Simulation time: 0 hr 16 min 57 sec) 
Heartbeat CPU 0 instructions: 230000003 cycles: 374498648 heartbeat IPC: 0.500933 cumulative IPC: 0.499206 (Simulation time: 0 hr 17 min 51 sec) 
Heartbeat CPU 0 instructions: 240000001 cycles: 394579740 heartbeat IPC: 0.497981 cumulative IPC: 0.499141 (Simulation time: 0 hr 18 min 45 sec) 
Heartbeat CPU 0 instructions: 250000001 cycles: 414592392 heartbeat IPC: 0.499684 cumulative IPC: 0.499168 (Simulation time: 0 hr 19 min 37 sec) 
Finished CPU 0 instructions: 200000000 cycles: 400666671 cumulative IPC: 0.499168 (Simulation time: 0 hr 19 min 37 sec) 

ChampSim completed all CPUs

Region of Interest Statistics

CPU 0 cumulative IPC: 0.499168 instructions: 200000000 cycles: 400666671
ITLB TOTAL     ACCESS:   35175484  HIT:   32682773  MISS:    2492711  HIT %:    92.9135  MISS %:     7.0865   MPKI: 12.4636
ITLB LOAD TRANSLATION ACCESS:   35175484  HIT:   32682773  MISS:    2492711  HIT %:    92.9135  MISS %:     7.0865   MPKI: 12.4636
ITLB PREFETCH  REQUESTED:          0  ISSUED:          0  USEFUL:          0  USELESS:          0
ITLB USEFUL LOAD PREFETCHES:          0 PREFETCH ISSUED TO LOWER LEVEL:          0  ACCURACY: -nan
ITLB TIMELY PREFETCHES:          0 LATE PREFETCHES: 0 DROPPED PREFETCHES: 0
ITLB PREFETCHES SAME FILL-ORIGIN LEVEL: 0 DIFFERENT FILL-ORIGIN LEVEL: 0
ITLB AVERAGE MISS LATENCY: 9.01741 cycles
ITLB RQ	ACCESS:   41438661	FORWARD:          0	MERGED:    5452140	TO_CACHE:   35986521

DTLB TOTAL     ACCESS:   40136380  HIT:   38140135  MISS:    1996245  HIT %:    95.0263  MISS %:    4.97365   MPKI: 9.98123
DTLB LOAD TRANSLATION ACCESS:   40136380  HIT:   38140135  MISS:    1996245  HIT %:    95.0263  MISS %:    4.97365   MPKI: 9.98123
DTLB PREFETCH  REQUESTED:          0  ISSUED:          0  USEFUL:          0  USELESS:          0
DTLB USEFUL LOAD PREFETCHES:          0 PREFETCH ISSUED TO LOWER LEVEL:          0  ACCURACY: -nan
DTLB TIMELY PREFETCHES:          0 LATE PREFETCHES: 0 DROPPED PREFETCHES: 0
DTLB PREFETCHES SAME FILL-ORIGIN LEVEL: 0 DIFFERENT FILL-ORIGIN LEVEL: 0
DTLB AVERAGE MISS LATENCY: 9.7161 cycles
DTLB RQ	ACCESS:   55965639	FORWARD:          0	MERGED:   15675523	TO_CACHE:   40290116

STLB TOTAL     ACCESS:    4488956  HIT:    4466149  MISS:      22807  HIT %:    99.4919  MISS %:   0.508069   MPKI: 0.114035
STLB LOAD TRANSLATION ACCESS:    4488956  HIT:    4466149  MISS:      22807  HIT %:    99.4919  MISS %:   0.508069   MPKI: 0.114035
STLB PREFETCH  REQUESTED:          0  ISSUED:          0  USEFUL:          0  USELESS:          0
STLB USEFUL LOAD PREFETCHES:          0 PREFETCH ISSUED TO LOWER LEVEL:          0  ACCURACY: -nan
STLB TIMELY PREFETCHES:          0 LATE PREFETCHES: 0 DROPPED PREFETCHES: 0
STLB PREFETCHES SAME FILL-ORIGIN LEVEL: 0 DIFFERENT FILL-ORIGIN LEVEL: 0
STLB AVERAGE MISS LATENCY: 63.6415 cycles
STLB RQ	ACCESS:    4488956	FORWARD:          0	MERGED:          0	TO_CACHE:    4488956

STLB Hit, L1D data hit: 0
STLB Hit, L2C data hit: 0
STLB Hit, LLC data hit: 0
STLB Hit, LLC data miss: 0
STLB STLB hints to L2: 0
L1D TOTAL     ACCESS:   55558509  HIT:   53867775  MISS:    1690734  HIT %:    96.9568  MISS %:    3.04316   MPKI: 8.45367
L1D LOAD      ACCESS:   31350912  HIT:   29914269  MISS:    1436643  HIT %:    95.4175  MISS %:    4.58246   MPKI: 7.18321
L1D RFO       ACCESS:   24207597  HIT:   23953506  MISS:     254091  HIT %:    98.9504  MISS %:    1.04963   MPKI: 1.27045
L1D PREFETCH  REQUESTED:          0  ISSUED:          0  USEFUL:          0  USELESS:          0
L1D USEFUL LOAD PREFETCHES:          0 PREFETCH ISSUED TO LOWER LEVEL:          0  ACCURACY: -nan
L1D TIMELY PREFETCHES:          0 LATE PREFETCHES: 0 DROPPED PREFETCHES: 0
L1D PREFETCHES SAME FILL-ORIGIN LEVEL: 0 DIFFERENT FILL-ORIGIN LEVEL: 0
L1D AVERAGE MISS LATENCY: 32.0336 cycles
L1D RQ	ACCESS:   45992447	FORWARD:          0	MERGED:   14284243	TO_CACHE:   31457324
L1D WQ	ACCESS:   24697059	FORWARD:     250880	MERGED:     188744	TO_CACHE:   24508315

L1D UNIQUE REGIONS ACCESSED: 0
L1D REGIONS CONFLICTS: 0
L1D Cross Page Prefetch Requests: 0
L1D Same Page Prefetch Requests: 0
L1D ROI Sum of L1D PQ occupancy: 0
L1D PREFETCHES PUSHED FROM L2C: 0
L1I TOTAL     ACCESS:   37494897  HIT:   22056405  MISS:   15438492  HIT %:    58.8251  MISS %:    41.1749   MPKI: 77.1925
L1I LOAD      ACCESS:   37494897  HIT:   22056405  MISS:   15438492  HIT %:    58.8251  MISS %:    41.1749   MPKI: 77.1925
L1I PREFETCH  REQUESTED:          0  ISSUED:          0  USEFUL:          0  USELESS:          0
L1I USEFUL LOAD PREFETCHES:          0 PREFETCH ISSUED TO LOWER LEVEL:          0  ACCURACY: -nan
L1I TIMELY PREFETCHES:          0 LATE PREFETCHES: 0 DROPPED PREFETCHES: 0
L1I PREFETCHES SAME FILL-ORIGIN LEVEL: 0 DIFFERENT FILL-ORIGIN LEVEL: 0
L1I AVERAGE MISS LATENCY: 14.1505 cycles
L1I RQ	ACCESS:   62468319	FORWARD:          0	MERGED:   21029658	TO_CACHE:   41438661

BTB TOTAL     ACCESS:   28064303  HIT:   24482602  MISS:    3581701  HIT %:    87.2375  MISS %:    12.7625   MPKI: 17.9085
BTB BRANCH_DIRECT_JUMP	ACCESS:    2068715  HIT:    1958904  MISS:     109811
BTB BRANCH_INDIRECT	ACCESS:   12589489  HIT:   11340070  MISS:    1249419
BTB BRANCH_CONDITIONAL	ACCESS:    3946651  HIT:    3830860  MISS:     115791
BTB BRANCH_DIRECT_CALL	ACCESS:    3834255  HIT:    3580644  MISS:     253611
BTB BRANCH_INDIRECT_CALL	ACCESS:     895479  HIT:     719752  MISS:     175727
BTB BRANCH_RETURN	ACCESS:    4729714  HIT:    3052372  MISS:    1677342
BTB BRANCH_OTHER ACCESS:          0  HIT:          0  MISS:          0

L2C TOTAL     ACCESS:   18504677  HIT:   17643281  MISS:     861396  HIT %:     95.345  MISS %:    4.65502   MPKI: 4.30698
L2C LOAD      ACCESS:   16875078  HIT:   16434428  MISS:     440650  HIT %:    97.3888  MISS %:    2.61125   MPKI: 2.20325
L2C DATA LOAD MPKI: 2.0563
L2C INSTRUCTION LOAD MPKI: 0.14695
L2C RFO       ACCESS:     254091  HIT:     162234  MISS:      91857  HIT %:    63.8488  MISS %:    36.1512   MPKI: 0.459285
L2C PREFETCH  ACCESS:     448693  HIT:     156221  MISS:     292472  HIT %:    34.8169  MISS %:    65.1831   MPKI: 1.46236
AGUS PREFETCH L1 MISS: 0
L2C DATA PREFETCH MPKI: 1.46236
L2C INSTRUCTION PREFETCH MPKI: 0
L2C WRITEBACK ACCESS:     895343  HIT:     879943  MISS:      15400  HIT %:      98.28  MISS %:    1.72001   MPKI: 0.077
L2C LOAD TRANSLATION ACCESS:      31472  HIT:      10455  MISS:      21017  HIT %:      33.22  MISS %:      66.78   MPKI: 0.105085
L2C PREFETCH  REQUESTED:     468300  ISSUED:     468300  USEFUL:      75323  USELESS:     217109
L2C USEFUL LOAD PREFETCHES:      75323 PREFETCH ISSUED TO LOWER LEVEL:     296250  ACCURACY: 25.4255
L2C TIMELY PREFETCHES:      75323 LATE PREFETCHES: 3778 DROPPED PREFETCHES: 0
L2C PREFETCHES SAME FILL-ORIGIN LEVEL: 296250 DIFFERENT FILL-ORIGIN LEVEL: 0
L2C AVERAGE MISS LATENCY: 56.7934 cycles
L2C RQ	ACCESS:   17160698	FORWARD:          0	MERGED:          0	TO_CACHE:   17160641
L2C WQ	ACCESS:     895343	FORWARD:         58	MERGED:          0	TO_CACHE:     895343
L2C PQ	ACCESS:     468300	FORWARD:          0	MERGED:          2	TO_CACHE:     468297

L2C Instructions Evicting Data 26944
L2C Translations Evicting Data 19821
L2C Data Evicting Data 749753
L2C Instructions Evicting Instructions 1816
L2C Translations Evicting Instructions 686
L2C Data Evicting Instructions 26177
L2C Instructions Evicting Translations 630
L2C Translations Evicting Translations 510
L2C Data Evicting Translations 19659
L2C Dense regions hint from L2: 0
PSCL5 TOTAL     ACCESS:      22807  HIT:      22807  MISS:          0  HIT %:        100  MISS %:          0   MPKI: 0
PSCL5 LOAD TRANSLATION ACCESS:      22807  HIT:      22807  MISS:          0  HIT %:        100  MISS %:          0   MPKI: 0
PSCL5 PREFETCH  REQUESTED:          0  ISSUED:          0  USEFUL:          0  USELESS:          0
PSCL5 USEFUL LOAD PREFETCHES:          0 PREFETCH ISSUED TO LOWER LEVEL:          0  ACCURACY: -nan
PSCL5 TIMELY PREFETCHES:          0 LATE PREFETCHES: 0 DROPPED PREFETCHES: 0
PSCL5 PREFETCHES SAME FILL-ORIGIN LEVEL: 0 DIFFERENT FILL-ORIGIN LEVEL: 0

PSCL4 TOTAL     ACCESS:      22205  HIT:      22195  MISS:         10  HIT %:     99.955  MISS %:  0.0450349   MPKI: 5e-05
PSCL4 LOAD TRANSLATION ACCESS:      22205  HIT:      22195  MISS:         10  HIT %:     99.955  MISS %:  0.0450349   MPKI: 5e-05
PSCL4 PREFETCH  REQUESTED:          0  ISSUED:          0  USEFUL:          0  USELESS:          0
PSCL4 USEFUL LOAD PREFETCHES:          0 PREFETCH ISSUED TO LOWER LEVEL:          0  ACCURACY: -nan
PSCL4 TIMELY PREFETCHES:          0 LATE PREFETCHES: 0 DROPPED PREFETCHES: 0
PSCL4 PREFETCHES SAME FILL-ORIGIN LEVEL: 0 DIFFERENT FILL-ORIGIN LEVEL: 0

PSCL3 TOTAL     ACCESS:      22742  HIT:      22673  MISS:         69  HIT %:    99.6966  MISS %:   0.303403   MPKI: 0.000345
PSCL3 LOAD TRANSLATION ACCESS:      22742  HIT:      22673  MISS:         69  HIT %:    99.6966  MISS %:   0.303403   MPKI: 0.000345
PSCL3 PREFETCH  REQUESTED:          0  ISSUED:          0  USEFUL:          0  USELESS:          0
PSCL3 USEFUL LOAD PREFETCHES:          0 PREFETCH ISSUED TO LOWER LEVEL:          0  ACCURACY: -nan
PSCL3 TIMELY PREFETCHES:          0 LATE PREFETCHES: 0 DROPPED PREFETCHES: 0
PSCL3 PREFETCHES SAME FILL-ORIGIN LEVEL: 0 DIFFERENT FILL-ORIGIN LEVEL: 0

PSCL2 TOTAL     ACCESS:      22807  HIT:      14198  MISS:       8609  HIT %:    62.2528  MISS %:    37.7472   MPKI: 0.043045
PSCL2 LOAD TRANSLATION ACCESS:      22807  HIT:      14198  MISS:       8609  HIT %:    62.2528  MISS %:    37.7472   MPKI: 0.043045
PSCL2 PREFETCH  REQUESTED:          0  ISSUED:          0  USEFUL:          0  USELESS:          0
PSCL2 USEFUL LOAD PREFETCHES:          0 PREFETCH ISSUED TO LOWER LEVEL:          0  ACCURACY: -nan
PSCL2 TIMELY PREFETCHES:          0 LATE PREFETCHES: 0 DROPPED PREFETCHES: 0
PSCL2 PREFETCHES SAME FILL-ORIGIN LEVEL: 0 DIFFERENT FILL-ORIGIN LEVEL: 0

LLC TOTAL     ACCESS:    1162907  HIT:    1018054  MISS:     144853  HIT %:    87.5439  MISS %:    12.4561   MPKI: 0.724265
LLC LOAD      ACCESS:     437278  HIT:     381581  MISS:      55697  HIT %:    87.2628  MISS %:    12.7372   MPKI: 0.278485
LLC RFO       ACCESS:      91443  HIT:      68818  MISS:      22625  HIT %:    75.2578  MISS %:    24.7422   MPKI: 0.113125
LLC PREFETCH  ACCESS:     296250  HIT:     231717  MISS:      64533  HIT %:    78.2167  MISS %:    21.7833   MPKI: 0.322665
AGUS PREFETCH L1 MISS: 0
LLC WRITEBACK ACCESS:     316919  HIT:     315785  MISS:       1134  HIT %:    99.6422  MISS %:    0.35782   MPKI: 0.00567
LLC LOAD TRANSLATION ACCESS:      21017  HIT:      20153  MISS:        864  HIT %:     95.889  MISS %:    4.11096   MPKI: 0.00432
LLC PREFETCH  REQUESTED:          0  ISSUED:          0  USEFUL:       1734  USELESS:      62508
LLC USEFUL LOAD PREFETCHES:       1734 PREFETCH ISSUED TO LOWER LEVEL:      64533  ACCURACY: 2.687
LLC TIMELY PREFETCHES:       1734 LATE PREFETCHES: 0 DROPPED PREFETCHES: 0
LLC PREFETCHES SAME FILL-ORIGIN LEVEL: 0 DIFFERENT FILL-ORIGIN LEVEL: 0
LLC AVERAGE MISS LATENCY: 163.629 cycles
LLC RQ	ACCESS:     549746	FORWARD:          0	MERGED:          0	TO_CACHE:     549738
LLC WQ	ACCESS:     316919	FORWARD:          8	MERGED:          0	TO_CACHE:     316919
LLC PQ	ACCESS:     296250	FORWARD:          0	MERGED:          0	TO_CACHE:     296250

LLC Dense regions hint to LLC: 0

RAW hits: 2107303
Loads Generated: 48099750
Loads sent to L1D: 45992447
Stores Generated: 24697058
Stores sent to L1D: 24697059
Major fault: 0 Minor fault: 5748
Allocated PAGES: 5748
CPU 0 L2C best offset prefetcher final stats

DRAM Statistics
 CHANNEL 0
 RQ ROW_BUFFER_HIT:      30223  ROW_BUFFER_MISS:     113490
 DBUS_CONGESTED:         49
 WQ ROW_BUFFER_HIT:       4751  ROW_BUFFER_MISS:      38233  FULL:          0

 AVG_CONGESTED_CYCLE: 4
 All warmup complete: 2
Channel 0 Bank busy for read cycles: 0
Channel 0 Bank busy for write cycles: 0
Channel 0
Rank 0
0banks busy for read cycles: 383607408
0banks busy for write cycles: 29811
1banks busy for read cycles: 6344783
1banks busy for write cycles: 4286751
2banks busy for read cycles: 4214203
2banks busy for write cycles: 953819
3banks busy for read cycles: 566400
3banks busy for write cycles: 149609
4banks busy for read cycles: 237775
4banks busy for write cycles: 58028
5banks busy for read cycles: 26675
5banks busy for write cycles: 24234
6banks busy for read cycles: 26343
6banks busy for write cycles: 12573
7banks busy for read cycles: 35323
7banks busy for write cycles: 10494
8banks busy for read cycles: 73200
8banks busy for write cycles: 9243

CPU 0 Branch Prediction Accuracy: 99.9778% MPKI: 0.038155 Average ROB Occupancy at Mispredict: 24.347
Branch types
NOT_BRANCH: 165656544 82.8283%
BRANCH_DIRECT_JUMP: 2068715 1.03436%
BRANCH_INDIRECT: 12589489 6.29474%
BRANCH_CONDITIONAL: 10225815 5.11291%
BRANCH_DIRECT_CALL: 3834255 1.91713%
BRANCH_INDIRECT_CALL: 895479 0.44774%
BRANCH_RETURN: 4729714 2.36486%
BRANCH_OTHER: 0 0%

DRAM PAGES: 1048576
Allocated PAGES: 5748
