
*** ChampSim Multicore Out-of-Order Simulator ***

Warmup Instructions: 50000000
Simulation Instructions: 200000000
Number of CPUs: 1
LLC sets: 2048
LLC ways: 16
Off-chip DRAM Size: 4096 MB Channels: 1 Width: 64-bit Data Rate: 6400 MT/s
CPU 0 runs traces/spec2k17/srv_69.champsimtrace.xz
.xz
BTB has LRU replacement policy
ITLB has LRU replacement policy
DTLB has LRU replacement policy
STLB has LRU replacement policy
L1I has LRU replacement policy
L1D has LRU replacement policy
CPU 0 L2C best offset prefetcher
Initialize SRRIP state for L2C
Initialize DRRIP state for LLC
Heartbeat CPU 0 instructions: 10000001 cycles: 2784482 heartbeat IPC: 3.59133 cumulative IPC: 3.59133 (Simulation time: 0 hr 0 min 34 sec) 
Heartbeat CPU 0 instructions: 20000003 cycles: 5571598 heartbeat IPC: 3.58794 cumulative IPC: 3.58963 (Simulation time: 0 hr 1 min 6 sec) 
Heartbeat CPU 0 instructions: 30000000 cycles: 8348447 heartbeat IPC: 3.6012 cumulative IPC: 3.59348 (Simulation time: 0 hr 1 min 37 sec) 
*** Reached end of trace for Core: 0 Repeating trace: traces/spec2k17/srv_69.champsimtrace.xz
Heartbeat CPU 0 instructions: 40000003 cycles: 11127129 heartbeat IPC: 3.59883 cumulative IPC: 3.59482 (Simulation time: 0 hr 2 min 8 sec) 
Heartbeat CPU 0 instructions: 50000003 cycles: 13911843 heartbeat IPC: 3.59103 cumulative IPC: 3.59406 (Simulation time: 0 hr 2 min 39 sec) 

Warmup complete CPU 0 instructions: 50000003 cycles: 13911843 (Simulation time: 0 hr 2 min 39 sec) 

Heartbeat CPU 0 instructions: 60000000 cycles: 37407225 heartbeat IPC: 0.425615 cumulative IPC: 0.425615 (Simulation time: 0 hr 3 min 31 sec) 
*** Reached end of trace for Core: 0 Repeating trace: traces/spec2k17/srv_69.champsimtrace.xz
Heartbeat CPU 0 instructions: 70000001 cycles: 61124830 heartbeat IPC: 0.421628 cumulative IPC: 0.423612 (Simulation time: 0 hr 4 min 23 sec) 
Heartbeat CPU 0 instructions: 80000000 cycles: 85164791 heartbeat IPC: 0.415974 cumulative IPC: 0.421035 (Simulation time: 0 hr 5 min 18 sec) 
Heartbeat CPU 0 instructions: 90000001 cycles: 109588224 heartbeat IPC: 0.409443 cumulative IPC: 0.418076 (Simulation time: 0 hr 6 min 11 sec) 
*** Reached end of trace for Core: 0 Repeating trace: traces/spec2k17/srv_69.champsimtrace.xz
Heartbeat CPU 0 instructions: 100000000 cycles: 133481462 heartbeat IPC: 0.418528 cumulative IPC: 0.418166 (Simulation time: 0 hr 7 min 2 sec) 
Heartbeat CPU 0 instructions: 110000000 cycles: 157149032 heartbeat IPC: 0.422519 cumulative IPC: 0.418886 (Simulation time: 0 hr 7 min 56 sec) 
Heartbeat CPU 0 instructions: 120000002 cycles: 181857137 heartbeat IPC: 0.404726 cumulative IPC: 0.416802 (Simulation time: 0 hr 8 min 50 sec) 
*** Reached end of trace for Core: 0 Repeating trace: traces/spec2k17/srv_69.champsimtrace.xz
Heartbeat CPU 0 instructions: 130000000 cycles: 205622152 heartbeat IPC: 0.420787 cumulative IPC: 0.417296 (Simulation time: 0 hr 9 min 39 sec) 
Heartbeat CPU 0 instructions: 140000003 cycles: 229953084 heartbeat IPC: 0.411 cumulative IPC: 0.416587 (Simulation time: 0 hr 10 min 28 sec) 
Heartbeat CPU 0 instructions: 150000000 cycles: 253984222 heartbeat IPC: 0.416127 cumulative IPC: 0.416541 (Simulation time: 0 hr 11 min 22 sec) 
*** Reached end of trace for Core: 0 Repeating trace: traces/spec2k17/srv_69.champsimtrace.xz
Heartbeat CPU 0 instructions: 160000001 cycles: 277594797 heartbeat IPC: 0.423539 cumulative IPC: 0.417168 (Simulation time: 0 hr 12 min 6 sec) 
Heartbeat CPU 0 instructions: 170000000 cycles: 301462321 heartbeat IPC: 0.418979 cumulative IPC: 0.417318 (Simulation time: 0 hr 12 min 58 sec) 
Heartbeat CPU 0 instructions: 180000003 cycles: 326006055 heartbeat IPC: 0.407436 cumulative IPC: 0.416541 (Simulation time: 0 hr 13 min 51 sec) 
*** Reached end of trace for Core: 0 Repeating trace: traces/spec2k17/srv_69.champsimtrace.xz
Heartbeat CPU 0 instructions: 190000000 cycles: 349544412 heartbeat IPC: 0.424838 cumulative IPC: 0.417123 (Simulation time: 0 hr 14 min 45 sec) 
Heartbeat CPU 0 instructions: 200000000 cycles: 373607241 heartbeat IPC: 0.415579 cumulative IPC: 0.41702 (Simulation time: 0 hr 15 min 27 sec) 
Heartbeat CPU 0 instructions: 210000002 cycles: 398277097 heartbeat IPC: 0.405353 cumulative IPC: 0.416271 (Simulation time: 0 hr 16 min 11 sec) 
*** Reached end of trace for Core: 0 Repeating trace: traces/spec2k17/srv_69.champsimtrace.xz
Heartbeat CPU 0 instructions: 220000000 cycles: 421802951 heartbeat IPC: 0.425064 cumulative IPC: 0.416778 (Simulation time: 0 hr 16 min 50 sec) 
Heartbeat CPU 0 instructions: 230000003 cycles: 446089193 heartbeat IPC: 0.411756 cumulative IPC: 0.416496 (Simulation time: 0 hr 17 min 24 sec) 
Heartbeat CPU 0 instructions: 240000000 cycles: 470521999 heartbeat IPC: 0.409286 cumulative IPC: 0.41611 (Simulation time: 0 hr 17 min 57 sec) 
*** Reached end of trace for Core: 0 Repeating trace: traces/spec2k17/srv_69.champsimtrace.xz
Heartbeat CPU 0 instructions: 250000003 cycles: 493872614 heartbeat IPC: 0.428254 cumulative IPC: 0.416701 (Simulation time: 0 hr 18 min 28 sec) 
Finished CPU 0 instructions: 200000000 cycles: 479960771 cumulative IPC: 0.416701 (Simulation time: 0 hr 18 min 28 sec) 

ChampSim completed all CPUs

Region of Interest Statistics

CPU 0 cumulative IPC: 0.416701 instructions: 200000000 cycles: 479960771
ITLB TOTAL     ACCESS:   31681411  HIT:   30865947  MISS:     815464  HIT %:     97.426  MISS %:    2.57395   MPKI: 4.07732
ITLB LOAD TRANSLATION ACCESS:   31681411  HIT:   30865947  MISS:     815464  HIT %:     97.426  MISS %:    2.57395   MPKI: 4.07732
ITLB PREFETCH  REQUESTED:          0  ISSUED:          0  USEFUL:          0  USELESS:          0
ITLB USEFUL LOAD PREFETCHES:          0 PREFETCH ISSUED TO LOWER LEVEL:          0  ACCURACY: -nan
ITLB TIMELY PREFETCHES:          0 LATE PREFETCHES: 0 DROPPED PREFETCHES: 0
ITLB PREFETCHES SAME FILL-ORIGIN LEVEL: 0 DIFFERENT FILL-ORIGIN LEVEL: 0
ITLB AVERAGE MISS LATENCY: 15.8264 cycles
ITLB RQ	ACCESS:   38412307	FORWARD:          0	MERGED:    6538713	TO_CACHE:   31873594

DTLB TOTAL     ACCESS:   38148829  HIT:   35686982  MISS:    2461847  HIT %:    93.5467  MISS %:    6.45327   MPKI: 12.3092
DTLB LOAD TRANSLATION ACCESS:   38148829  HIT:   35686982  MISS:    2461847  HIT %:    93.5467  MISS %:    6.45327   MPKI: 12.3092
DTLB PREFETCH  REQUESTED:          0  ISSUED:          0  USEFUL:          0  USELESS:          0
DTLB USEFUL LOAD PREFETCHES:          0 PREFETCH ISSUED TO LOWER LEVEL:          0  ACCURACY: -nan
DTLB TIMELY PREFETCHES:          0 LATE PREFETCHES: 0 DROPPED PREFETCHES: 0
DTLB PREFETCHES SAME FILL-ORIGIN LEVEL: 0 DIFFERENT FILL-ORIGIN LEVEL: 0
DTLB AVERAGE MISS LATENCY: 14.7199 cycles
DTLB RQ	ACCESS:   48520634	FORWARD:          0	MERGED:   10226830	TO_CACHE:   38293804

STLB TOTAL     ACCESS:    3277311  HIT:    2824182  MISS:     453129  HIT %:    86.1738  MISS %:    13.8262   MPKI: 2.26565
STLB LOAD TRANSLATION ACCESS:    3277311  HIT:    2824182  MISS:     453129  HIT %:    86.1738  MISS %:    13.8262   MPKI: 2.26565
STLB PREFETCH  REQUESTED:          0  ISSUED:          0  USEFUL:          0  USELESS:          0
STLB USEFUL LOAD PREFETCHES:          0 PREFETCH ISSUED TO LOWER LEVEL:          0  ACCURACY: -nan
STLB TIMELY PREFETCHES:          0 LATE PREFETCHES: 0 DROPPED PREFETCHES: 0
STLB PREFETCHES SAME FILL-ORIGIN LEVEL: 0 DIFFERENT FILL-ORIGIN LEVEL: 0
STLB AVERAGE MISS LATENCY: 43.1943 cycles
STLB RQ	ACCESS:    3277311	FORWARD:          0	MERGED:          0	TO_CACHE:    3277311

STLB Hit, L1D data hit: 0
STLB Hit, L2C data hit: 0
STLB Hit, LLC data hit: 0
STLB Hit, LLC data miss: 0
STLB STLB hints to L2: 0
L1D TOTAL     ACCESS:   48016406  HIT:   45569679  MISS:    2446727  HIT %:    94.9044  MISS %:    5.09561   MPKI: 12.2336
L1D LOAD      ACCESS:   28478561  HIT:   26375188  MISS:    2103373  HIT %:    92.6142  MISS %:    7.38581   MPKI: 10.5169
L1D RFO       ACCESS:   19537845  HIT:   19194491  MISS:     343354  HIT %:    98.2426  MISS %:    1.75738   MPKI: 1.71677
L1D PREFETCH  REQUESTED:          0  ISSUED:          0  USEFUL:          0  USELESS:          0
L1D USEFUL LOAD PREFETCHES:          0 PREFETCH ISSUED TO LOWER LEVEL:          0  ACCURACY: -nan
L1D TIMELY PREFETCHES:          0 LATE PREFETCHES: 0 DROPPED PREFETCHES: 0
L1D PREFETCHES SAME FILL-ORIGIN LEVEL: 0 DIFFERENT FILL-ORIGIN LEVEL: 0
L1D AVERAGE MISS LATENCY: 37.2025 cycles
L1D RQ	ACCESS:   42774375	FORWARD:          0	MERGED:   13980400	TO_CACHE:   28574361
L1D WQ	ACCESS:   20255400	FORWARD:     219614	MERGED:     309127	TO_CACHE:   19946273

L1D UNIQUE REGIONS ACCESSED: 0
L1D REGIONS CONFLICTS: 0
L1D Cross Page Prefetch Requests: 0
L1D Same Page Prefetch Requests: 0
L1D ROI Sum of L1D PQ occupancy: 0
L1D PREFETCHES PUSHED FROM L2C: 0
L1I TOTAL     ACCESS:   36780849  HIT:   31722086  MISS:    5058763  HIT %:    86.2462  MISS %:    13.7538   MPKI: 25.2938
L1I LOAD      ACCESS:   36780849  HIT:   31722086  MISS:    5058763  HIT %:    86.2462  MISS %:    13.7538   MPKI: 25.2938
L1I PREFETCH  REQUESTED:          0  ISSUED:          0  USEFUL:          0  USELESS:          0
L1I USEFUL LOAD PREFETCHES:          0 PREFETCH ISSUED TO LOWER LEVEL:          0  ACCURACY: -nan
L1I TIMELY PREFETCHES:          0 LATE PREFETCHES: 0 DROPPED PREFETCHES: 0
L1I PREFETCHES SAME FILL-ORIGIN LEVEL: 0 DIFFERENT FILL-ORIGIN LEVEL: 0
L1I AVERAGE MISS LATENCY: 29.1547 cycles
L1I RQ	ACCESS:   57429699	FORWARD:          0	MERGED:   19017392	TO_CACHE:   38412307

BTB TOTAL     ACCESS:   23164670  HIT:   18167924  MISS:    4996746  HIT %:    78.4295  MISS %:    21.5705   MPKI: 24.9837
BTB BRANCH_DIRECT_JUMP	ACCESS:    1914726  HIT:    1629531  MISS:     285195
BTB BRANCH_INDIRECT	ACCESS:    9756590  HIT:    7380331  MISS:    2376259
BTB BRANCH_CONDITIONAL	ACCESS:    4774695  HIT:    4326607  MISS:     448088
BTB BRANCH_DIRECT_CALL	ACCESS:    2648257  HIT:    2097355  MISS:     550902
BTB BRANCH_INDIRECT_CALL	ACCESS:     697289  HIT:     631848  MISS:      65441
BTB BRANCH_RETURN	ACCESS:    3373113  HIT:    2102252  MISS:    1270861
BTB BRANCH_OTHER ACCESS:          0  HIT:          0  MISS:          0

L2C TOTAL     ACCESS:   10094066  HIT:    5569264  MISS:    4524802  HIT %:    55.1736  MISS %:    44.8264   MPKI: 22.624
L2C LOAD      ACCESS:    7162043  HIT:    3970308  MISS:    3191735  HIT %:    55.4354  MISS %:    44.5646   MPKI: 15.9587
L2C DATA LOAD MPKI: 4.43787
L2C INSTRUCTION LOAD MPKI: 11.5208
L2C RFO       ACCESS:     343354  HIT:     176400  MISS:     166954  HIT %:    51.3755  MISS %:    48.6245   MPKI: 0.83477
L2C PREFETCH  ACCESS:    1052658  HIT:     157022  MISS:     895636  HIT %:    14.9167  MISS %:    85.0833   MPKI: 4.47818
AGUS PREFETCH L1 MISS: 0
L2C DATA PREFETCH MPKI: 4.47818
L2C INSTRUCTION PREFETCH MPKI: 0
L2C WRITEBACK ACCESS:     962381  HIT:     917318  MISS:      45063  HIT %:    95.3176  MISS %:    4.68245   MPKI: 0.225315
L2C LOAD TRANSLATION ACCESS:     573630  HIT:     348216  MISS:     225414  HIT %:    60.7039  MISS %:    39.2961   MPKI: 1.12707
L2C PREFETCH  REQUESTED:    1133310  ISSUED:    1133308  USEFUL:     263294  USELESS:     632272
L2C USEFUL LOAD PREFETCHES:     263294 PREFETCH ISSUED TO LOWER LEVEL:     928538  ACCURACY: 28.3558
L2C TIMELY PREFETCHES:     263294 LATE PREFETCHES: 32902 DROPPED PREFETCHES: 0
L2C PREFETCHES SAME FILL-ORIGIN LEVEL: 928538 DIFFERENT FILL-ORIGIN LEVEL: 0
L2C AVERAGE MISS LATENCY: 46.2195 cycles
L2C RQ	ACCESS:    8079120	FORWARD:          0	MERGED:          0	TO_CACHE:    8079027
L2C WQ	ACCESS:     962381	FORWARD:         93	MERGED:          0	TO_CACHE:     962381
L2C PQ	ACCESS:    1133308	FORWARD:          0	MERGED:          4	TO_CACHE:    1133304

L2C Instructions Evicting Data 1000313
L2C Translations Evicting Data 97467
L2C Data Evicting Data 876626
L2C Instructions Evicting Instructions 1186454
L2C Translations Evicting Instructions 118022
L2C Data Evicting Instructions 977771
L2C Instructions Evicting Translations 117394
L2C Translations Evicting Translations 9925
L2C Data Evicting Translations 95767
L2C Dense regions hint from L2: 0
PSCL5 TOTAL     ACCESS:     453129  HIT:     453129  MISS:          0  HIT %:        100  MISS %:          0   MPKI: 0
PSCL5 LOAD TRANSLATION ACCESS:     453129  HIT:     453129  MISS:          0  HIT %:        100  MISS %:          0   MPKI: 0
PSCL5 PREFETCH  REQUESTED:          0  ISSUED:          0  USEFUL:          0  USELESS:          0
PSCL5 USEFUL LOAD PREFETCHES:          0 PREFETCH ISSUED TO LOWER LEVEL:          0  ACCURACY: -nan
PSCL5 TIMELY PREFETCHES:          0 LATE PREFETCHES: 0 DROPPED PREFETCHES: 0
PSCL5 PREFETCHES SAME FILL-ORIGIN LEVEL: 0 DIFFERENT FILL-ORIGIN LEVEL: 0

PSCL4 TOTAL     ACCESS:     423133  HIT:     421890  MISS:       1243  HIT %:    99.7062  MISS %:   0.293761   MPKI: 0.006215
PSCL4 LOAD TRANSLATION ACCESS:     423133  HIT:     421890  MISS:       1243  HIT %:    99.7062  MISS %:   0.293761   MPKI: 0.006215
PSCL4 PREFETCH  REQUESTED:          0  ISSUED:          0  USEFUL:          0  USELESS:          0
PSCL4 USEFUL LOAD PREFETCHES:          0 PREFETCH ISSUED TO LOWER LEVEL:          0  ACCURACY: -nan
PSCL4 TIMELY PREFETCHES:          0 LATE PREFETCHES: 0 DROPPED PREFETCHES: 0
PSCL4 PREFETCHES SAME FILL-ORIGIN LEVEL: 0 DIFFERENT FILL-ORIGIN LEVEL: 0

PSCL3 TOTAL     ACCESS:     449627  HIT:     445813  MISS:       3814  HIT %:    99.1517  MISS %:   0.848259   MPKI: 0.01907
PSCL3 LOAD TRANSLATION ACCESS:     449627  HIT:     445813  MISS:       3814  HIT %:    99.1517  MISS %:   0.848259   MPKI: 0.01907
PSCL3 PREFETCH  REQUESTED:          0  ISSUED:          0  USEFUL:          0  USELESS:          0
PSCL3 USEFUL LOAD PREFETCHES:          0 PREFETCH ISSUED TO LOWER LEVEL:          0  ACCURACY: -nan
PSCL3 TIMELY PREFETCHES:          0 LATE PREFETCHES: 0 DROPPED PREFETCHES: 0
PSCL3 PREFETCHES SAME FILL-ORIGIN LEVEL: 0 DIFFERENT FILL-ORIGIN LEVEL: 0

PSCL2 TOTAL     ACCESS:     453129  HIT:     337685  MISS:     115444  HIT %:    74.5229  MISS %:    25.4771   MPKI: 0.57722
PSCL2 LOAD TRANSLATION ACCESS:     453129  HIT:     337685  MISS:     115444  HIT %:    74.5229  MISS %:    25.4771   MPKI: 0.57722
PSCL2 PREFETCH  REQUESTED:          0  ISSUED:          0  USEFUL:          0  USELESS:          0
PSCL2 USEFUL LOAD PREFETCHES:          0 PREFETCH ISSUED TO LOWER LEVEL:          0  ACCURACY: -nan
PSCL2 TIMELY PREFETCHES:          0 LATE PREFETCHES: 0 DROPPED PREFETCHES: 0
PSCL2 PREFETCHES SAME FILL-ORIGIN LEVEL: 0 DIFFERENT FILL-ORIGIN LEVEL: 0

LLC TOTAL     ACCESS:    4977599  HIT:    4474055  MISS:     503544  HIT %:    89.8838  MISS %:    10.1162   MPKI: 2.51772
LLC LOAD      ACCESS:    3159404  HIT:    3018685  MISS:     140719  HIT %:     95.546  MISS %:    4.45397   MPKI: 0.703595
LLC RFO       ACCESS:     166384  HIT:     115874  MISS:      50510  HIT %:    69.6425  MISS %:    30.3575   MPKI: 0.25255
LLC PREFETCH  ACCESS:     928538  HIT:     636299  MISS:     292239  HIT %:     68.527  MISS %:     31.473   MPKI: 1.4612
AGUS PREFETCH L1 MISS: 0
LLC WRITEBACK ACCESS:     497860  HIT:     488560  MISS:       9300  HIT %:     98.132  MISS %:      1.868   MPKI: 0.0465
LLC LOAD TRANSLATION ACCESS:     225413  HIT:     214637  MISS:      10776  HIT %:    95.2194  MISS %:    4.78056   MPKI: 0.05388
LLC PREFETCH  REQUESTED:          0  ISSUED:          0  USEFUL:      14125  USELESS:     274691
LLC USEFUL LOAD PREFETCHES:      14125 PREFETCH ISSUED TO LOWER LEVEL:     292239  ACCURACY: 4.83337
LLC TIMELY PREFETCHES:      14125 LATE PREFETCHES: 0 DROPPED PREFETCHES: 0
LLC PREFETCHES SAME FILL-ORIGIN LEVEL: 0 DIFFERENT FILL-ORIGIN LEVEL: 0
LLC AVERAGE MISS LATENCY: 150.552 cycles
LLC RQ	ACCESS:    3551201	FORWARD:          0	MERGED:          0	TO_CACHE:    3551201
LLC WQ	ACCESS:     497860	FORWARD:          0	MERGED:          0	TO_CACHE:     497860
LLC PQ	ACCESS:     928538	FORWARD:          0	MERGED:          0	TO_CACHE:     928538

LLC Dense regions hint to LLC: 0

RAW hits: 2603736
Loads Generated: 45378115
Loads sent to L1D: 42774375
Stores Generated: 20255404
Stores sent to L1D: 20255400
Major fault: 0 Minor fault: 5460
Allocated PAGES: 5460
CPU 0 L2C best offset prefetcher final stats

DRAM Statistics
 CHANNEL 0
 RQ ROW_BUFFER_HIT:      98009  ROW_BUFFER_MISS:     396234
 DBUS_CONGESTED:        217
 WQ ROW_BUFFER_HIT:      33720  ROW_BUFFER_MISS:     196837  FULL:          0

 AVG_CONGESTED_CYCLE: 4
 All warmup complete: 2
Channel 0 Bank busy for read cycles: 0
Channel 0 Bank busy for write cycles: 0
Channel 0
Rank 0
0banks busy for read cycles: 406566799
0banks busy for write cycles: 124204
1banks busy for read cycles: 35335639
1banks busy for write cycles: 17212567
2banks busy for read cycles: 9048497
2banks busy for write cycles: 4362709
3banks busy for read cycles: 1996975
3banks busy for write cycles: 1740507
4banks busy for read cycles: 761448
4banks busy for write cycles: 938857
5banks busy for read cycles: 207618
5banks busy for write cycles: 586176
6banks busy for read cycles: 72886
6banks busy for write cycles: 406696
7banks busy for read cycles: 27970
7banks busy for write cycles: 297888
8banks busy for read cycles: 24520
8banks busy for write cycles: 248816

CPU 0 Branch Prediction Accuracy: 99.7309% MPKI: 0.485 Average ROB Occupancy at Mispredict: 28.2267
Branch types
NOT_BRANCH: 163956007 81.978%
BRANCH_DIRECT_JUMP: 1914726 0.957363%
BRANCH_INDIRECT: 9756590 4.87829%
BRANCH_CONDITIONAL: 17653765 8.82688%
BRANCH_DIRECT_CALL: 2648257 1.32413%
BRANCH_INDIRECT_CALL: 697289 0.348645%
BRANCH_RETURN: 3373113 1.68656%
BRANCH_OTHER: 0 0%

DRAM PAGES: 1048576
Allocated PAGES: 5460
