
*** ChampSim Multicore Out-of-Order Simulator ***

Warmup Instructions: 50000000
Simulation Instructions: 200000000
Number of CPUs: 1
LLC sets: 2048
LLC ways: 16
Off-chip DRAM Size: 4096 MB Channels: 1 Width: 64-bit Data Rate: 6400 MT/s
CPU 0 runs traces/spec2k17/srv_66.champsimtrace.xz
.xz
BTB has LRU replacement policy
ITLB has LRU replacement policy
DTLB has LRU replacement policy
STLB has LRU replacement policy
L1I has LRU replacement policy
L1D has LRU replacement policy
CPU 0 L2C best offset prefetcher
Initialize SRRIP state for L2C
Initialize DRRIP state for LLC
Heartbeat CPU 0 instructions: 10000000 cycles: 2774779 heartbeat IPC: 3.60389 cumulative IPC: 3.60389 (Simulation time: 0 hr 0 min 34 sec) 
Heartbeat CPU 0 instructions: 20000000 cycles: 5539521 heartbeat IPC: 3.61697 cumulative IPC: 3.61042 (Simulation time: 0 hr 1 min 5 sec) 
Heartbeat CPU 0 instructions: 30000002 cycles: 8306138 heartbeat IPC: 3.61452 cumulative IPC: 3.61179 (Simulation time: 0 hr 1 min 39 sec) 
*** Reached end of trace for Core: 0 Repeating trace: traces/spec2k17/srv_66.champsimtrace.xz
Heartbeat CPU 0 instructions: 40000003 cycles: 11075130 heartbeat IPC: 3.61142 cumulative IPC: 3.6117 (Simulation time: 0 hr 2 min 10 sec) 
Heartbeat CPU 0 instructions: 50000001 cycles: 13840623 heartbeat IPC: 3.61599 cumulative IPC: 3.61255 (Simulation time: 0 hr 2 min 43 sec) 

Warmup complete CPU 0 instructions: 50000001 cycles: 13840623 (Simulation time: 0 hr 2 min 43 sec) 

Heartbeat CPU 0 instructions: 60000000 cycles: 35333061 heartbeat IPC: 0.46528 cumulative IPC: 0.46528 (Simulation time: 0 hr 3 min 33 sec) 
*** Reached end of trace for Core: 0 Repeating trace: traces/spec2k17/srv_66.champsimtrace.xz
Heartbeat CPU 0 instructions: 70000001 cycles: 57818690 heartbeat IPC: 0.444729 cumulative IPC: 0.454772 (Simulation time: 0 hr 4 min 27 sec) 
Heartbeat CPU 0 instructions: 80000002 cycles: 79344459 heartbeat IPC: 0.46456 cumulative IPC: 0.457988 (Simulation time: 0 hr 5 min 20 sec) 
Heartbeat CPU 0 instructions: 90000000 cycles: 100784577 heartbeat IPC: 0.466415 cumulative IPC: 0.460066 (Simulation time: 0 hr 6 min 13 sec) 
*** Reached end of trace for Core: 0 Repeating trace: traces/spec2k17/srv_66.champsimtrace.xz
Heartbeat CPU 0 instructions: 100000001 cycles: 123243658 heartbeat IPC: 0.445254 cumulative IPC: 0.457026 (Simulation time: 0 hr 7 min 2 sec) 
Heartbeat CPU 0 instructions: 110000000 cycles: 144547215 heartbeat IPC: 0.469405 cumulative IPC: 0.459043 (Simulation time: 0 hr 7 min 57 sec) 
Heartbeat CPU 0 instructions: 120000002 cycles: 166189051 heartbeat IPC: 0.462068 cumulative IPC: 0.459473 (Simulation time: 0 hr 8 min 47 sec) 
*** Reached end of trace for Core: 0 Repeating trace: traces/spec2k17/srv_66.champsimtrace.xz
Heartbeat CPU 0 instructions: 130000003 cycles: 188496851 heartbeat IPC: 0.448274 cumulative IPC: 0.458043 (Simulation time: 0 hr 9 min 40 sec) 
Heartbeat CPU 0 instructions: 140000002 cycles: 209904969 heartbeat IPC: 0.467112 cumulative IPC: 0.459033 (Simulation time: 0 hr 10 min 33 sec) 
Heartbeat CPU 0 instructions: 150000003 cycles: 231634902 heartbeat IPC: 0.460195 cumulative IPC: 0.459149 (Simulation time: 0 hr 11 min 26 sec) 
*** Reached end of trace for Core: 0 Repeating trace: traces/spec2k17/srv_66.champsimtrace.xz
Heartbeat CPU 0 instructions: 160000002 cycles: 253585391 heartbeat IPC: 0.455571 cumulative IPC: 0.458821 (Simulation time: 0 hr 12 min 17 sec) 
Heartbeat CPU 0 instructions: 170000000 cycles: 275193069 heartbeat IPC: 0.462798 cumulative IPC: 0.45915 (Simulation time: 0 hr 13 min 10 sec) 
Heartbeat CPU 0 instructions: 180000002 cycles: 296905511 heartbeat IPC: 0.460566 cumulative IPC: 0.459259 (Simulation time: 0 hr 14 min 3 sec) 
*** Reached end of trace for Core: 0 Repeating trace: traces/spec2k17/srv_66.champsimtrace.xz
Heartbeat CPU 0 instructions: 190000003 cycles: 318821934 heartbeat IPC: 0.456279 cumulative IPC: 0.459045 (Simulation time: 0 hr 14 min 56 sec) 
Heartbeat CPU 0 instructions: 200000002 cycles: 340359063 heartbeat IPC: 0.464314 cumulative IPC: 0.459392 (Simulation time: 0 hr 15 min 40 sec) 
Heartbeat CPU 0 instructions: 210000003 cycles: 362180579 heartbeat IPC: 0.458263 cumulative IPC: 0.459321 (Simulation time: 0 hr 16 min 30 sec) 
*** Reached end of trace for Core: 0 Repeating trace: traces/spec2k17/srv_66.champsimtrace.xz
Heartbeat CPU 0 instructions: 220000000 cycles: 383930872 heartbeat IPC: 0.459764 cumulative IPC: 0.459347 (Simulation time: 0 hr 17 min 9 sec) 
Heartbeat CPU 0 instructions: 230000002 cycles: 405593113 heartbeat IPC: 0.461633 cumulative IPC: 0.459474 (Simulation time: 0 hr 17 min 44 sec) 
Heartbeat CPU 0 instructions: 240000002 cycles: 427382064 heartbeat IPC: 0.458948 cumulative IPC: 0.459446 (Simulation time: 0 hr 18 min 18 sec) 
*** Reached end of trace for Core: 0 Repeating trace: traces/spec2k17/srv_66.champsimtrace.xz
Heartbeat CPU 0 instructions: 250000003 cycles: 448956896 heartbeat IPC: 0.463503 cumulative IPC: 0.459647 (Simulation time: 0 hr 18 min 50 sec) 
Finished CPU 0 instructions: 200000002 cycles: 435116273 cumulative IPC: 0.459647 (Simulation time: 0 hr 18 min 50 sec) 

ChampSim completed all CPUs

Region of Interest Statistics

CPU 0 cumulative IPC: 0.459647 instructions: 200000002 cycles: 435116273
ITLB TOTAL     ACCESS:   31541105  HIT:   30747343  MISS:     793762  HIT %:    97.4834  MISS %:     2.5166   MPKI: 3.96881
ITLB LOAD TRANSLATION ACCESS:   31541105  HIT:   30747343  MISS:     793762  HIT %:    97.4834  MISS %:     2.5166   MPKI: 3.96881
ITLB PREFETCH  REQUESTED:          0  ISSUED:          0  USEFUL:          0  USELESS:          0
ITLB USEFUL LOAD PREFETCHES:          0 PREFETCH ISSUED TO LOWER LEVEL:          0  ACCURACY: -nan
ITLB TIMELY PREFETCHES:          0 LATE PREFETCHES: 0 DROPPED PREFETCHES: 0
ITLB PREFETCHES SAME FILL-ORIGIN LEVEL: 0 DIFFERENT FILL-ORIGIN LEVEL: 0
ITLB AVERAGE MISS LATENCY: 14.131 cycles
ITLB RQ	ACCESS:   38317967	FORWARD:          0	MERGED:    6582805	TO_CACHE:   31735162

DTLB TOTAL     ACCESS:   37269000  HIT:   34699918  MISS:    2569082  HIT %:    93.1067  MISS %:    6.89335   MPKI: 12.8454
DTLB LOAD TRANSLATION ACCESS:   37269000  HIT:   34699918  MISS:    2569082  HIT %:    93.1067  MISS %:    6.89335   MPKI: 12.8454
DTLB PREFETCH  REQUESTED:          0  ISSUED:          0  USEFUL:          0  USELESS:          0
DTLB USEFUL LOAD PREFETCHES:          0 PREFETCH ISSUED TO LOWER LEVEL:          0  ACCURACY: -nan
DTLB TIMELY PREFETCHES:          0 LATE PREFETCHES: 0 DROPPED PREFETCHES: 0
DTLB PREFETCHES SAME FILL-ORIGIN LEVEL: 0 DIFFERENT FILL-ORIGIN LEVEL: 0
DTLB AVERAGE MISS LATENCY: 14.0659 cycles
DTLB RQ	ACCESS:   47721006	FORWARD:          0	MERGED:   10303698	TO_CACHE:   37417308

STLB TOTAL     ACCESS:    3362844  HIT:    3020104  MISS:     342740  HIT %:     89.808  MISS %:     10.192   MPKI: 1.7137
STLB LOAD TRANSLATION ACCESS:    3362844  HIT:    3020104  MISS:     342740  HIT %:     89.808  MISS %:     10.192   MPKI: 1.7137
STLB PREFETCH  REQUESTED:          0  ISSUED:          0  USEFUL:          0  USELESS:          0
STLB USEFUL LOAD PREFETCHES:          0 PREFETCH ISSUED TO LOWER LEVEL:          0  ACCURACY: -nan
STLB TIMELY PREFETCHES:          0 LATE PREFETCHES: 0 DROPPED PREFETCHES: 0
STLB PREFETCHES SAME FILL-ORIGIN LEVEL: 0 DIFFERENT FILL-ORIGIN LEVEL: 0
STLB AVERAGE MISS LATENCY: 49.5994 cycles
STLB RQ	ACCESS:    3362844	FORWARD:          0	MERGED:          0	TO_CACHE:    3362844

STLB Hit, L1D data hit: 0
STLB Hit, L2C data hit: 0
STLB Hit, LLC data hit: 0
STLB Hit, LLC data miss: 0
STLB STLB hints to L2: 0
L1D TOTAL     ACCESS:   47247865  HIT:   44816078  MISS:    2431787  HIT %:    94.8531  MISS %:    5.14687   MPKI: 12.1589
L1D LOAD      ACCESS:   27623606  HIT:   25523817  MISS:    2099789  HIT %:    92.3986  MISS %:    7.60143   MPKI: 10.4989
L1D RFO       ACCESS:   19624259  HIT:   19292261  MISS:     331998  HIT %:    98.3082  MISS %:    1.69177   MPKI: 1.65999
L1D PREFETCH  REQUESTED:          0  ISSUED:          0  USEFUL:          0  USELESS:          0
L1D USEFUL LOAD PREFETCHES:          0 PREFETCH ISSUED TO LOWER LEVEL:          0  ACCURACY: -nan
L1D TIMELY PREFETCHES:          0 LATE PREFETCHES: 0 DROPPED PREFETCHES: 0
L1D PREFETCHES SAME FILL-ORIGIN LEVEL: 0 DIFFERENT FILL-ORIGIN LEVEL: 0
L1D AVERAGE MISS LATENCY: 32.9252 cycles
L1D RQ	ACCESS:   42281277	FORWARD:          0	MERGED:   14321263	TO_CACHE:   27712965
L1D WQ	ACCESS:   20281804	FORWARD:     247049	MERGED:     273763	TO_CACHE:   20008041

L1D UNIQUE REGIONS ACCESSED: 0
L1D REGIONS CONFLICTS: 0
L1D Cross Page Prefetch Requests: 0
L1D Same Page Prefetch Requests: 0
L1D ROI Sum of L1D PQ occupancy: 0
L1D PREFETCHES PUSHED FROM L2C: 0
L1I TOTAL     ACCESS:   36538038  HIT:   31499573  MISS:    5038465  HIT %:    86.2104  MISS %:    13.7896   MPKI: 25.1923
L1I LOAD      ACCESS:   36538038  HIT:   31499573  MISS:    5038465  HIT %:    86.2104  MISS %:    13.7896   MPKI: 25.1923
L1I PREFETCH  REQUESTED:          0  ISSUED:          0  USEFUL:          0  USELESS:          0
L1I USEFUL LOAD PREFETCHES:          0 PREFETCH ISSUED TO LOWER LEVEL:          0  ACCURACY: -nan
L1I TIMELY PREFETCHES:          0 LATE PREFETCHES: 0 DROPPED PREFETCHES: 0
L1I PREFETCHES SAME FILL-ORIGIN LEVEL: 0 DIFFERENT FILL-ORIGIN LEVEL: 0
L1I AVERAGE MISS LATENCY: 26.5521 cycles
L1I RQ	ACCESS:   57199734	FORWARD:          0	MERGED:   18881767	TO_CACHE:   38317967

BTB TOTAL     ACCESS:   22223395  HIT:   18065540  MISS:    4157855  HIT %:    81.2906  MISS %:    18.7094   MPKI: 20.7893
BTB BRANCH_DIRECT_JUMP	ACCESS:    1718257  HIT:    1473997  MISS:     244260
BTB BRANCH_INDIRECT	ACCESS:    9436324  HIT:    7433911  MISS:    2002413
BTB BRANCH_CONDITIONAL	ACCESS:    4754690  HIT:    4374903  MISS:     379787
BTB BRANCH_DIRECT_CALL	ACCESS:    2480174  HIT:    2032253  MISS:     447921
BTB BRANCH_INDIRECT_CALL	ACCESS:     676469  HIT:     636836  MISS:      39633
BTB BRANCH_RETURN	ACCESS:    3157481  HIT:    2113640  MISS:    1043841
BTB BRANCH_OTHER ACCESS:          0  HIT:          0  MISS:          0

L2C TOTAL     ACCESS:    9816610  HIT:    6049539  MISS:    3767071  HIT %:    61.6255  MISS %:    38.3745   MPKI: 18.8354
L2C LOAD      ACCESS:    7138214  HIT:    4477616  MISS:    2660598  HIT %:    62.7274  MISS %:    37.2726   MPKI: 13.303
L2C DATA LOAD MPKI: 3.60993
L2C INSTRUCTION LOAD MPKI: 9.69305
L2C RFO       ACCESS:     331998  HIT:     194517  MISS:     137481  HIT %:    58.5898  MISS %:    41.4102   MPKI: 0.687405
L2C PREFETCH  ACCESS:     886635  HIT:     149755  MISS:     736880  HIT %:    16.8903  MISS %:    83.1097   MPKI: 3.6844
AGUS PREFETCH L1 MISS: 0
L2C DATA PREFETCH MPKI: 3.6844
L2C INSTRUCTION PREFETCH MPKI: 0
L2C WRITEBACK ACCESS:    1004937  HIT:     962864  MISS:      42073  HIT %:    95.8134  MISS %:    4.18663   MPKI: 0.210365
L2C LOAD TRANSLATION ACCESS:     454826  HIT:     264787  MISS:     190039  HIT %:    58.2172  MISS %:    41.7828   MPKI: 0.950195
L2C PREFETCH  REQUESTED:     937757  ISSUED:     937757  USEFUL:     234979  USELESS:     501983
L2C USEFUL LOAD PREFETCHES:     234979 PREFETCH ISSUED TO LOWER LEVEL:     757007  ACCURACY: 31.0405
L2C TIMELY PREFETCHES:     234979 LATE PREFETCHES: 20127 DROPPED PREFETCHES: 0
L2C PREFETCHES SAME FILL-ORIGIN LEVEL: 757007 DIFFERENT FILL-ORIGIN LEVEL: 0
L2C AVERAGE MISS LATENCY: 45.7098 cycles
L2C RQ	ACCESS:    7925078	FORWARD:          0	MERGED:          0	TO_CACHE:    7925038
L2C WQ	ACCESS:    1004937	FORWARD:         40	MERGED:          0	TO_CACHE:    1004937
L2C PQ	ACCESS:     937757	FORWARD:          0	MERGED:          4	TO_CACHE:     937753

L2C Instructions Evicting Data 818515
L2C Translations Evicting Data 83994
L2C Data Evicting Data 716845
L2C Instructions Evicting Instructions 1025714
L2C Translations Evicting Instructions 94479
L2C Data Evicting Instructions 797294
L2C Instructions Evicting Translations 94382
L2C Translations Evicting Translations 11566
L2C Data Evicting Translations 82209
L2C Dense regions hint from L2: 0
PSCL5 TOTAL     ACCESS:     342740  HIT:     342740  MISS:          0  HIT %:        100  MISS %:          0   MPKI: 0
PSCL5 LOAD TRANSLATION ACCESS:     342740  HIT:     342740  MISS:          0  HIT %:        100  MISS %:          0   MPKI: 0
PSCL5 PREFETCH  REQUESTED:          0  ISSUED:          0  USEFUL:          0  USELESS:          0
PSCL5 USEFUL LOAD PREFETCHES:          0 PREFETCH ISSUED TO LOWER LEVEL:          0  ACCURACY: -nan
PSCL5 TIMELY PREFETCHES:          0 LATE PREFETCHES: 0 DROPPED PREFETCHES: 0
PSCL5 PREFETCHES SAME FILL-ORIGIN LEVEL: 0 DIFFERENT FILL-ORIGIN LEVEL: 0

PSCL4 TOTAL     ACCESS:     333529  HIT:     332269  MISS:       1260  HIT %:    99.6222  MISS %:   0.377778   MPKI: 0.0063
PSCL4 LOAD TRANSLATION ACCESS:     333529  HIT:     332269  MISS:       1260  HIT %:    99.6222  MISS %:   0.377778   MPKI: 0.0063
PSCL4 PREFETCH  REQUESTED:          0  ISSUED:          0  USEFUL:          0  USELESS:          0
PSCL4 USEFUL LOAD PREFETCHES:          0 PREFETCH ISSUED TO LOWER LEVEL:          0  ACCURACY: -nan
PSCL4 TIMELY PREFETCHES:          0 LATE PREFETCHES: 0 DROPPED PREFETCHES: 0
PSCL4 PREFETCHES SAME FILL-ORIGIN LEVEL: 0 DIFFERENT FILL-ORIGIN LEVEL: 0

PSCL3 TOTAL     ACCESS:     340153  HIT:     338893  MISS:       1260  HIT %:    99.6296  MISS %:   0.370422   MPKI: 0.0063
PSCL3 LOAD TRANSLATION ACCESS:     340153  HIT:     338893  MISS:       1260  HIT %:    99.6296  MISS %:   0.370422   MPKI: 0.0063
PSCL3 PREFETCH  REQUESTED:          0  ISSUED:          0  USEFUL:          0  USELESS:          0
PSCL3 USEFUL LOAD PREFETCHES:          0 PREFETCH ISSUED TO LOWER LEVEL:          0  ACCURACY: -nan
PSCL3 TIMELY PREFETCHES:          0 LATE PREFETCHES: 0 DROPPED PREFETCHES: 0
PSCL3 PREFETCHES SAME FILL-ORIGIN LEVEL: 0 DIFFERENT FILL-ORIGIN LEVEL: 0

PSCL2 TOTAL     ACCESS:     342740  HIT:     233174  MISS:     109566  HIT %:    68.0323  MISS %:    31.9677   MPKI: 0.54783
PSCL2 LOAD TRANSLATION ACCESS:     342740  HIT:     233174  MISS:     109566  HIT %:    68.0323  MISS %:    31.9677   MPKI: 0.54783
PSCL2 PREFETCH  REQUESTED:          0  ISSUED:          0  USEFUL:          0  USELESS:          0
PSCL2 USEFUL LOAD PREFETCHES:          0 PREFETCH ISSUED TO LOWER LEVEL:          0  ACCURACY: -nan
PSCL2 TIMELY PREFETCHES:          0 LATE PREFETCHES: 0 DROPPED PREFETCHES: 0
PSCL2 PREFETCHES SAME FILL-ORIGIN LEVEL: 0 DIFFERENT FILL-ORIGIN LEVEL: 0

LLC TOTAL     ACCESS:    4180208  HIT:    3761127  MISS:     419081  HIT %:    89.9746  MISS %:    10.0254   MPKI: 2.0954
LLC LOAD      ACCESS:    2640839  HIT:    2534722  MISS:     106117  HIT %:    95.9817  MISS %:    4.01831   MPKI: 0.530585
LLC RFO       ACCESS:     137113  HIT:      98221  MISS:      38892  HIT %:    71.6351  MISS %:    28.3649   MPKI: 0.19446
LLC PREFETCH  ACCESS:     757007  HIT:     502824  MISS:     254183  HIT %:    66.4226  MISS %:    33.5774   MPKI: 1.27091
AGUS PREFETCH L1 MISS: 0
LLC WRITEBACK ACCESS:     455211  HIT:     452206  MISS:       3005  HIT %:    99.3399  MISS %:   0.660133   MPKI: 0.015025
LLC LOAD TRANSLATION ACCESS:     190038  HIT:     173154  MISS:      16884  HIT %:    91.1155  MISS %:    8.88454   MPKI: 0.08442
LLC PREFETCH  REQUESTED:          0  ISSUED:          0  USEFUL:       9131  USELESS:     245272
LLC USEFUL LOAD PREFETCHES:       9131 PREFETCH ISSUED TO LOWER LEVEL:     254183  ACCURACY: 3.59229
LLC TIMELY PREFETCHES:       9131 LATE PREFETCHES: 0 DROPPED PREFETCHES: 0
LLC PREFETCHES SAME FILL-ORIGIN LEVEL: 0 DIFFERENT FILL-ORIGIN LEVEL: 0
LLC AVERAGE MISS LATENCY: 147.423 cycles
LLC RQ	ACCESS:    2967991	FORWARD:          0	MERGED:          0	TO_CACHE:    2967990
LLC WQ	ACCESS:     455211	FORWARD:          1	MERGED:          0	TO_CACHE:     455211
LLC PQ	ACCESS:     757007	FORWARD:          0	MERGED:          0	TO_CACHE:     757007

LLC Dense regions hint to LLC: 0

RAW hits: 2686963
Loads Generated: 44968240
Loads sent to L1D: 42281277
Stores Generated: 20281799
Stores sent to L1D: 20281804
Major fault: 0 Minor fault: 6269
Allocated PAGES: 6269
CPU 0 L2C best offset prefetcher final stats

DRAM Statistics
 CHANNEL 0
 RQ ROW_BUFFER_HIT:     100653  ROW_BUFFER_MISS:     315419
 DBUS_CONGESTED:        283
 WQ ROW_BUFFER_HIT:      41321  ROW_BUFFER_MISS:     185839  FULL:          0

 AVG_CONGESTED_CYCLE: 4
 All warmup complete: 2
Channel 0 Bank busy for read cycles: 0
Channel 0 Bank busy for write cycles: 0
Channel 0
Rank 0
0banks busy for read cycles: 372460585
0banks busy for write cycles: 109170
1banks busy for read cycles: 28273184
1banks busy for write cycles: 15059833
2banks busy for read cycles: 7599811
2banks busy for write cycles: 3937412
3banks busy for read cycles: 1618591
3banks busy for write cycles: 1705786
4banks busy for read cycles: 543247
4banks busy for write cycles: 1098564
5banks busy for read cycles: 163700
5banks busy for write cycles: 802653
6banks busy for read cycles: 68073
6banks busy for write cycles: 637999
7banks busy for read cycles: 38602
7banks busy for write cycles: 514523
8banks busy for read cycles: 43542
8banks busy for write cycles: 440999

CPU 0 Branch Prediction Accuracy: 99.8407% MPKI: 0.28518 Average ROB Occupancy at Mispredict: 43.781
Branch types
NOT_BRANCH: 164201242 82.1006%
BRANCH_DIRECT_JUMP: 1718257 0.859128%
BRANCH_INDIRECT: 9436324 4.71816%
BRANCH_CONDITIONAL: 18329755 9.16488%
BRANCH_DIRECT_CALL: 2480174 1.24009%
BRANCH_INDIRECT_CALL: 676469 0.338234%
BRANCH_RETURN: 3157481 1.57874%
BRANCH_OTHER: 0 0%

DRAM PAGES: 1048576
Allocated PAGES: 6269
