
*** ChampSim Multicore Out-of-Order Simulator ***

Warmup Instructions: 50000000
Simulation Instructions: 200000000
Number of CPUs: 1
LLC sets: 2048
LLC ways: 16
Off-chip DRAM Size: 4096 MB Channels: 1 Width: 64-bit Data Rate: 6400 MT/s
CPU 0 runs traces/spec2k17/srv_13.champsimtrace.xz
.xz
BTB has LRU replacement policy
ITLB has LRU replacement policy
DTLB has LRU replacement policy
STLB has LRU replacement policy
L1I has LRU replacement policy
L1D has LRU replacement policy
CPU 0 L2C best offset prefetcher
Initialize SRRIP state for L2C
Initialize DRRIP state for LLC
Heartbeat CPU 0 instructions: 10000002 cycles: 2809528 heartbeat IPC: 3.55932 cumulative IPC: 3.55932 (Simulation time: 0 hr 0 min 34 sec) 
Heartbeat CPU 0 instructions: 20000000 cycles: 5615151 heartbeat IPC: 3.56427 cumulative IPC: 3.56179 (Simulation time: 0 hr 1 min 7 sec) 
Heartbeat CPU 0 instructions: 30000003 cycles: 8424100 heartbeat IPC: 3.56005 cumulative IPC: 3.56121 (Simulation time: 0 hr 1 min 40 sec) 
*** Reached end of trace for Core: 0 Repeating trace: traces/spec2k17/srv_13.champsimtrace.xz
Heartbeat CPU 0 instructions: 40000001 cycles: 11224660 heartbeat IPC: 3.57071 cumulative IPC: 3.56358 (Simulation time: 0 hr 2 min 14 sec) 
Heartbeat CPU 0 instructions: 50000003 cycles: 14031526 heartbeat IPC: 3.56269 cumulative IPC: 3.5634 (Simulation time: 0 hr 2 min 48 sec) 

Warmup complete CPU 0 instructions: 50000003 cycles: 14031526 (Simulation time: 0 hr 2 min 48 sec) 

Heartbeat CPU 0 instructions: 60000000 cycles: 44392894 heartbeat IPC: 0.329366 cumulative IPC: 0.329366 (Simulation time: 0 hr 3 min 47 sec) 
*** Reached end of trace for Core: 0 Repeating trace: traces/spec2k17/srv_13.champsimtrace.xz
Heartbeat CPU 0 instructions: 70000001 cycles: 73497047 heartbeat IPC: 0.343594 cumulative IPC: 0.336329 (Simulation time: 0 hr 4 min 43 sec) 
Heartbeat CPU 0 instructions: 80000003 cycles: 103489826 heartbeat IPC: 0.333414 cumulative IPC: 0.335352 (Simulation time: 0 hr 5 min 40 sec) 
Heartbeat CPU 0 instructions: 90000001 cycles: 133942119 heartbeat IPC: 0.328382 cumulative IPC: 0.333582 (Simulation time: 0 hr 6 min 35 sec) 
*** Reached end of trace for Core: 0 Repeating trace: traces/spec2k17/srv_13.champsimtrace.xz
Heartbeat CPU 0 instructions: 100000000 cycles: 163303036 heartbeat IPC: 0.340589 cumulative IPC: 0.33496 (Simulation time: 0 hr 7 min 32 sec) 
Heartbeat CPU 0 instructions: 110000000 cycles: 192998901 heartbeat IPC: 0.336747 cumulative IPC: 0.335257 (Simulation time: 0 hr 8 min 27 sec) 
Heartbeat CPU 0 instructions: 120000002 cycles: 223495765 heartbeat IPC: 0.327903 cumulative IPC: 0.334186 (Simulation time: 0 hr 9 min 26 sec) 
*** Reached end of trace for Core: 0 Repeating trace: traces/spec2k17/srv_13.champsimtrace.xz
Heartbeat CPU 0 instructions: 130000001 cycles: 252730286 heartbeat IPC: 0.342061 cumulative IPC: 0.33515 (Simulation time: 0 hr 10 min 21 sec) 
Heartbeat CPU 0 instructions: 140000002 cycles: 282602378 heartbeat IPC: 0.334761 cumulative IPC: 0.335107 (Simulation time: 0 hr 11 min 13 sec) 
Heartbeat CPU 0 instructions: 150000002 cycles: 312890691 heartbeat IPC: 0.33016 cumulative IPC: 0.334606 (Simulation time: 0 hr 12 min 9 sec) 
*** Reached end of trace for Core: 0 Repeating trace: traces/spec2k17/srv_13.champsimtrace.xz
Heartbeat CPU 0 instructions: 160000002 cycles: 342119147 heartbeat IPC: 0.342132 cumulative IPC: 0.335276 (Simulation time: 0 hr 13 min 2 sec) 
Heartbeat CPU 0 instructions: 170000000 cycles: 372083834 heartbeat IPC: 0.333726 cumulative IPC: 0.335147 (Simulation time: 0 hr 13 min 56 sec) 
Heartbeat CPU 0 instructions: 180000003 cycles: 402276386 heartbeat IPC: 0.331208 cumulative IPC: 0.33484 (Simulation time: 0 hr 14 min 51 sec) 
*** Reached end of trace for Core: 0 Repeating trace: traces/spec2k17/srv_13.champsimtrace.xz
Heartbeat CPU 0 instructions: 190000000 cycles: 431690042 heartbeat IPC: 0.339978 cumulative IPC: 0.335202 (Simulation time: 0 hr 15 min 46 sec) 
Heartbeat CPU 0 instructions: 200000001 cycles: 461572238 heartbeat IPC: 0.334647 cumulative IPC: 0.335165 (Simulation time: 0 hr 16 min 42 sec) 
Heartbeat CPU 0 instructions: 210000001 cycles: 491503552 heartbeat IPC: 0.334098 cumulative IPC: 0.335098 (Simulation time: 0 hr 17 min 39 sec) 
*** Reached end of trace for Core: 0 Repeating trace: traces/spec2k17/srv_13.champsimtrace.xz
Heartbeat CPU 0 instructions: 220000000 cycles: 521164337 heartbeat IPC: 0.337145 cumulative IPC: 0.335218 (Simulation time: 0 hr 18 min 35 sec) 
Heartbeat CPU 0 instructions: 230000001 cycles: 550892505 heartbeat IPC: 0.336381 cumulative IPC: 0.335282 (Simulation time: 0 hr 19 min 31 sec) 
Heartbeat CPU 0 instructions: 240000000 cycles: 580864261 heartbeat IPC: 0.333647 cumulative IPC: 0.335196 (Simulation time: 0 hr 20 min 26 sec) 
*** Reached end of trace for Core: 0 Repeating trace: traces/spec2k17/srv_13.champsimtrace.xz
Heartbeat CPU 0 instructions: 250000000 cycles: 610891892 heartbeat IPC: 0.333027 cumulative IPC: 0.335087 (Simulation time: 0 hr 21 min 23 sec) 
Finished CPU 0 instructions: 200000003 cycles: 596860369 cumulative IPC: 0.335087 (Simulation time: 0 hr 21 min 23 sec) 

ChampSim completed all CPUs

Region of Interest Statistics

CPU 0 cumulative IPC: 0.335087 instructions: 200000003 cycles: 596860369
ITLB TOTAL     ACCESS:   34418659  HIT:   32580534  MISS:    1838125  HIT %:    94.6595  MISS %:    5.34049   MPKI: 9.19062
ITLB LOAD TRANSLATION ACCESS:   34418659  HIT:   32580534  MISS:    1838125  HIT %:    94.6595  MISS %:    5.34049   MPKI: 9.19062
ITLB PREFETCH  REQUESTED:          0  ISSUED:          0  USEFUL:          0  USELESS:          0
ITLB USEFUL LOAD PREFETCHES:          0 PREFETCH ISSUED TO LOWER LEVEL:          0  ACCURACY: -nan
ITLB TIMELY PREFETCHES:          0 LATE PREFETCHES: 0 DROPPED PREFETCHES: 0
ITLB PREFETCHES SAME FILL-ORIGIN LEVEL: 0 DIFFERENT FILL-ORIGIN LEVEL: 0
ITLB AVERAGE MISS LATENCY: 9.04339 cycles
ITLB RQ	ACCESS:   40220139	FORWARD:          0	MERGED:    5358457	TO_CACHE:   34861682

DTLB TOTAL     ACCESS:   45319938  HIT:   43526323  MISS:    1793615  HIT %:    96.0423  MISS %:    3.95767   MPKI: 8.96807
DTLB LOAD TRANSLATION ACCESS:   45319938  HIT:   43526323  MISS:    1793615  HIT %:    96.0423  MISS %:    3.95767   MPKI: 8.96807
DTLB PREFETCH  REQUESTED:          0  ISSUED:          0  USEFUL:          0  USELESS:          0
DTLB USEFUL LOAD PREFETCHES:          0 PREFETCH ISSUED TO LOWER LEVEL:          0  ACCURACY: -nan
DTLB TIMELY PREFETCHES:          0 LATE PREFETCHES: 0 DROPPED PREFETCHES: 0
DTLB PREFETCHES SAME FILL-ORIGIN LEVEL: 0 DIFFERENT FILL-ORIGIN LEVEL: 0
DTLB AVERAGE MISS LATENCY: 9.22347 cycles
DTLB RQ	ACCESS:   59711273	FORWARD:          0	MERGED:   14325144	TO_CACHE:   45386129

STLB TOTAL     ACCESS:    3631740  HIT:    3622389  MISS:       9351  HIT %:    99.7425  MISS %:    0.25748   MPKI: 0.046755
STLB LOAD TRANSLATION ACCESS:    3631740  HIT:    3622389  MISS:       9351  HIT %:    99.7425  MISS %:    0.25748   MPKI: 0.046755
STLB PREFETCH  REQUESTED:          0  ISSUED:          0  USEFUL:          0  USELESS:          0
STLB USEFUL LOAD PREFETCHES:          0 PREFETCH ISSUED TO LOWER LEVEL:          0  ACCURACY: -nan
STLB TIMELY PREFETCHES:          0 LATE PREFETCHES: 0 DROPPED PREFETCHES: 0
STLB PREFETCHES SAME FILL-ORIGIN LEVEL: 0 DIFFERENT FILL-ORIGIN LEVEL: 0
STLB AVERAGE MISS LATENCY: 48.8163 cycles
STLB RQ	ACCESS:    3631740	FORWARD:          0	MERGED:          0	TO_CACHE:    3631740

STLB Hit, L1D data hit: 0
STLB Hit, L2C data hit: 0
STLB Hit, LLC data hit: 0
STLB Hit, LLC data miss: 0
STLB STLB hints to L2: 0
L1D TOTAL     ACCESS:   57927753  HIT:   54113843  MISS:    3813910  HIT %:    93.4161  MISS %:    6.58391   MPKI: 19.0695
L1D LOAD      ACCESS:   33458421  HIT:   30712844  MISS:    2745577  HIT %:    91.7941  MISS %:    8.20594   MPKI: 13.7279
L1D RFO       ACCESS:   24469332  HIT:   23400999  MISS:    1068333  HIT %:     95.634  MISS %:    4.36601   MPKI: 5.34166
L1D PREFETCH  REQUESTED:          0  ISSUED:          0  USEFUL:          0  USELESS:          0
L1D USEFUL LOAD PREFETCHES:          0 PREFETCH ISSUED TO LOWER LEVEL:          0  ACCURACY: -nan
L1D TIMELY PREFETCHES:          0 LATE PREFETCHES: 0 DROPPED PREFETCHES: 0
L1D PREFETCHES SAME FILL-ORIGIN LEVEL: 0 DIFFERENT FILL-ORIGIN LEVEL: 0
L1D AVERAGE MISS LATENCY: 22.1269 cycles
L1D RQ	ACCESS:   46953072	FORWARD:          0	MERGED:   13082689	TO_CACHE:   33573671
L1D WQ	ACCESS:   26311887	FORWARD:     296712	MERGED:     174285	TO_CACHE:   26137602

L1D UNIQUE REGIONS ACCESSED: 0
L1D REGIONS CONFLICTS: 0
L1D Cross Page Prefetch Requests: 0
L1D Same Page Prefetch Requests: 0
L1D ROI Sum of L1D PQ occupancy: 0
L1D PREFETCHES PUSHED FROM L2C: 0
L1I TOTAL     ACCESS:   38815341  HIT:   29174502  MISS:    9640839  HIT %:    75.1623  MISS %:    24.8377   MPKI: 48.2042
L1I LOAD      ACCESS:   38815341  HIT:   29174502  MISS:    9640839  HIT %:    75.1623  MISS %:    24.8377   MPKI: 48.2042
L1I PREFETCH  REQUESTED:          0  ISSUED:          0  USEFUL:          0  USELESS:          0
L1I USEFUL LOAD PREFETCHES:          0 PREFETCH ISSUED TO LOWER LEVEL:          0  ACCURACY: -nan
L1I TIMELY PREFETCHES:          0 LATE PREFETCHES: 0 DROPPED PREFETCHES: 0
L1I PREFETCHES SAME FILL-ORIGIN LEVEL: 0 DIFFERENT FILL-ORIGIN LEVEL: 0
L1I AVERAGE MISS LATENCY: 16.7633 cycles
L1I RQ	ACCESS:   57781988	FORWARD:          0	MERGED:   17561849	TO_CACHE:   40220139

BTB TOTAL     ACCESS:   30281760  HIT:   18910009  MISS:   11371751  HIT %:    62.4469  MISS %:    37.5531   MPKI: 56.8588
BTB BRANCH_DIRECT_JUMP	ACCESS:    2184471  HIT:    1385849  MISS:     798622
BTB BRANCH_INDIRECT	ACCESS:   11367631  HIT:    7108083  MISS:    4259548
BTB BRANCH_CONDITIONAL	ACCESS:    8713184  HIT:    7563917  MISS:    1149267
BTB BRANCH_DIRECT_CALL	ACCESS:    3386061  HIT:    1522950  MISS:    1863111
BTB BRANCH_INDIRECT_CALL	ACCESS:     622186  HIT:     244573  MISS:     377613
BTB BRANCH_RETURN	ACCESS:    4008227  HIT:    1084637  MISS:    2923590
BTB BRANCH_OTHER ACCESS:          0  HIT:          0  MISS:          0

L2C TOTAL     ACCESS:   15636644  HIT:   13905971  MISS:    1730673  HIT %:    88.9319  MISS %:    11.0681   MPKI: 8.65336
L2C LOAD      ACCESS:   12386381  HIT:   11172756  MISS:    1213625  HIT %:    90.2019  MISS %:    9.79806   MPKI: 6.06812
L2C DATA LOAD MPKI: 1.80928
L2C INSTRUCTION LOAD MPKI: 4.25884
L2C RFO       ACCESS:    1068327  HIT:     853764  MISS:     214563  HIT %:     79.916  MISS %:     20.084   MPKI: 1.07281
L2C PREFETCH  ACCESS:     385578  HIT:     143852  MISS:     241726  HIT %:    37.3081  MISS %:    62.6919   MPKI: 1.20863
AGUS PREFETCH L1 MISS: 0
L2C DATA PREFETCH MPKI: 1.20863
L2C INSTRUCTION PREFETCH MPKI: 0
L2C WRITEBACK ACCESS:    1786047  HIT:    1732680  MISS:      53367  HIT %:     97.012  MISS %:      2.988   MPKI: 0.266835
L2C LOAD TRANSLATION ACCESS:      10311  HIT:       2919  MISS:       7392  HIT %:    28.3096  MISS %:    71.6904   MPKI: 0.03696
L2C PREFETCH  REQUESTED:     421683  ISSUED:     421683  USEFUL:      65032  USELESS:     176551
L2C USEFUL LOAD PREFETCHES:      65032 PREFETCH ISSUED TO LOWER LEVEL:     268405  ACCURACY: 24.2291
L2C TIMELY PREFETCHES:      65032 LATE PREFETCHES: 26679 DROPPED PREFETCHES: 0
L2C PREFETCHES SAME FILL-ORIGIN LEVEL: 268405 DIFFERENT FILL-ORIGIN LEVEL: 0
L2C AVERAGE MISS LATENCY: 38.0102 cycles
L2C RQ	ACCESS:   13465062	FORWARD:          0	MERGED:          0	TO_CACHE:   13465021
L2C WQ	ACCESS:    1786047	FORWARD:         41	MERGED:          0	TO_CACHE:    1786047
L2C PQ	ACCESS:     421683	FORWARD:          0	MERGED:          1	TO_CACHE:     421682

L2C Instructions Evicting Data 372993
L2C Translations Evicting Data 5356
L2C Data Evicting Data 469580
L2C Instructions Evicting Instructions 476914
L2C Translations Evicting Instructions 1940
L2C Data Evicting Instructions 343258
L2C Instructions Evicting Translations 1861
L2C Translations Evicting Translations 96
L2C Data Evicting Translations 5308
L2C Dense regions hint from L2: 0
PSCL5 TOTAL     ACCESS:       9351  HIT:       9351  MISS:          0  HIT %:        100  MISS %:          0   MPKI: 0
PSCL5 LOAD TRANSLATION ACCESS:       9351  HIT:       9351  MISS:          0  HIT %:        100  MISS %:          0   MPKI: 0
PSCL5 PREFETCH  REQUESTED:          0  ISSUED:          0  USEFUL:          0  USELESS:          0
PSCL5 USEFUL LOAD PREFETCHES:          0 PREFETCH ISSUED TO LOWER LEVEL:          0  ACCURACY: -nan
PSCL5 TIMELY PREFETCHES:          0 LATE PREFETCHES: 0 DROPPED PREFETCHES: 0
PSCL5 PREFETCHES SAME FILL-ORIGIN LEVEL: 0 DIFFERENT FILL-ORIGIN LEVEL: 0

PSCL4 TOTAL     ACCESS:       8729  HIT:       8698  MISS:         31  HIT %:    99.6449  MISS %:   0.355138   MPKI: 0.000155
PSCL4 LOAD TRANSLATION ACCESS:       8729  HIT:       8698  MISS:         31  HIT %:    99.6449  MISS %:   0.355138   MPKI: 0.000155
PSCL4 PREFETCH  REQUESTED:          0  ISSUED:          0  USEFUL:          0  USELESS:          0
PSCL4 USEFUL LOAD PREFETCHES:          0 PREFETCH ISSUED TO LOWER LEVEL:          0  ACCURACY: -nan
PSCL4 TIMELY PREFETCHES:          0 LATE PREFETCHES: 0 DROPPED PREFETCHES: 0
PSCL4 PREFETCHES SAME FILL-ORIGIN LEVEL: 0 DIFFERENT FILL-ORIGIN LEVEL: 0

PSCL3 TOTAL     ACCESS:       9255  HIT:       9224  MISS:         31  HIT %:     99.665  MISS %:   0.334954   MPKI: 0.000155
PSCL3 LOAD TRANSLATION ACCESS:       9255  HIT:       9224  MISS:         31  HIT %:     99.665  MISS %:   0.334954   MPKI: 0.000155
PSCL3 PREFETCH  REQUESTED:          0  ISSUED:          0  USEFUL:          0  USELESS:          0
PSCL3 USEFUL LOAD PREFETCHES:          0 PREFETCH ISSUED TO LOWER LEVEL:          0  ACCURACY: -nan
PSCL3 TIMELY PREFETCHES:          0 LATE PREFETCHES: 0 DROPPED PREFETCHES: 0
PSCL3 PREFETCHES SAME FILL-ORIGIN LEVEL: 0 DIFFERENT FILL-ORIGIN LEVEL: 0

PSCL2 TOTAL     ACCESS:       9351  HIT:       8453  MISS:        898  HIT %:    90.3967  MISS %:    9.60325   MPKI: 0.00449
PSCL2 LOAD TRANSLATION ACCESS:       9351  HIT:       8453  MISS:        898  HIT %:    90.3967  MISS %:    9.60325   MPKI: 0.00449
PSCL2 PREFETCH  REQUESTED:          0  ISSUED:          0  USEFUL:          0  USELESS:          0
PSCL2 USEFUL LOAD PREFETCHES:          0 PREFETCH ISSUED TO LOWER LEVEL:          0  ACCURACY: -nan
PSCL2 TIMELY PREFETCHES:          0 LATE PREFETCHES: 0 DROPPED PREFETCHES: 0
PSCL2 PREFETCHES SAME FILL-ORIGIN LEVEL: 0 DIFFERENT FILL-ORIGIN LEVEL: 0

LLC TOTAL     ACCESS:    1981470  HIT:    1883778  MISS:      97692  HIT %:    95.0697  MISS %:    4.93028   MPKI: 0.48846
LLC LOAD      ACCESS:    1186959  HIT:    1170697  MISS:      16262  HIT %:    98.6299  MISS %:    1.37006   MPKI: 0.08131
LLC RFO       ACCESS:     214550  HIT:     177204  MISS:      37346  HIT %:    82.5933  MISS %:    17.4067   MPKI: 0.18673
LLC PREFETCH  ACCESS:     268404  HIT:     225129  MISS:      43275  HIT %:    83.8769  MISS %:    16.1231   MPKI: 0.216375
AGUS PREFETCH L1 MISS: 0
LLC WRITEBACK ACCESS:     304165  HIT:     303605  MISS:        560  HIT %:    99.8159  MISS %:   0.184111   MPKI: 0.0028
LLC LOAD TRANSLATION ACCESS:       7392  HIT:       7143  MISS:        249  HIT %:    96.6315  MISS %:    3.36851   MPKI: 0.001245
LLC PREFETCH  REQUESTED:          0  ISSUED:          0  USEFUL:       3435  USELESS:      36690
LLC USEFUL LOAD PREFETCHES:       3435 PREFETCH ISSUED TO LOWER LEVEL:      43275  ACCURACY: 7.93761
LLC TIMELY PREFETCHES:       3435 LATE PREFETCHES: 0 DROPPED PREFETCHES: 0
LLC PREFETCHES SAME FILL-ORIGIN LEVEL: 0 DIFFERENT FILL-ORIGIN LEVEL: 0
LLC AVERAGE MISS LATENCY: 165.542 cycles
LLC RQ	ACCESS:    1408901	FORWARD:          0	MERGED:          0	TO_CACHE:    1408901
LLC WQ	ACCESS:     304165	FORWARD:          1	MERGED:          0	TO_CACHE:     304165
LLC PQ	ACCESS:     268405	FORWARD:          0	MERGED:          0	TO_CACHE:     268404

LLC Dense regions hint to LLC: 0

RAW hits: 1389294
Loads Generated: 48342366
Loads sent to L1D: 46953072
Stores Generated: 26311868
Stores sent to L1D: 26311887
Major fault: 0 Minor fault: 1910
Allocated PAGES: 1910
CPU 0 L2C best offset prefetcher final stats

DRAM Statistics
 CHANNEL 0
 RQ ROW_BUFFER_HIT:      31805  ROW_BUFFER_MISS:      65273
 DBUS_CONGESTED:        101
 WQ ROW_BUFFER_HIT:       4362  ROW_BUFFER_MISS:      40517  FULL:          0

 AVG_CONGESTED_CYCLE: 5
 All warmup complete: 2
Channel 0 Bank busy for read cycles: 0
Channel 0 Bank busy for write cycles: 0
Channel 0
Rank 0
0banks busy for read cycles: 588162900
0banks busy for write cycles: 14378
1banks busy for read cycles: 3353982
1banks busy for write cycles: 1737223
2banks busy for read cycles: 1018851
2banks busy for write cycles: 468049
3banks busy for read cycles: 355276
3banks busy for write cycles: 200941
4banks busy for read cycles: 247318
4banks busy for write cycles: 140621
5banks busy for read cycles: 188481
5banks busy for write cycles: 107733
6banks busy for read cycles: 158872
6banks busy for write cycles: 90978
7banks busy for read cycles: 139700
7banks busy for write cycles: 85172
8banks busy for read cycles: 142128
8banks busy for write cycles: 247767

CPU 0 Branch Prediction Accuracy: 99.8429% MPKI: 0.27698 Average ROB Occupancy at Mispredict: 52.9261
Branch types
NOT_BRANCH: 164736757 82.3684%
BRANCH_DIRECT_JUMP: 2184471 1.09224%
BRANCH_INDIRECT: 11367631 5.68382%
BRANCH_CONDITIONAL: 13694607 6.8473%
BRANCH_DIRECT_CALL: 3386061 1.69303%
BRANCH_INDIRECT_CALL: 622186 0.311093%
BRANCH_RETURN: 4008227 2.00411%
BRANCH_OTHER: 0 0%

DRAM PAGES: 1048576
Allocated PAGES: 1910
