
*** ChampSim Multicore Out-of-Order Simulator ***

Warmup Instructions: 50000000
Simulation Instructions: 200000000
Number of CPUs: 1
LLC sets: 2048
LLC ways: 16
Off-chip DRAM Size: 4096 MB Channels: 1 Width: 64-bit Data Rate: 6400 MT/s
CPU 0 runs traces/spec2k17/srv_34.champsimtrace.xz
.xz
BTB has LRU replacement policy
ITLB has LRU replacement policy
DTLB has LRU replacement policy
STLB has LRU replacement policy
L1I has LRU replacement policy
L1D has LRU replacement policy
CPU 0 L2C best offset prefetcher
Initialize SRRIP state for L2C
Initialize DRRIP state for LLC
Heartbeat CPU 0 instructions: 10000001 cycles: 2937267 heartbeat IPC: 3.40453 cumulative IPC: 3.40453 (Simulation time: 0 hr 0 min 40 sec) 
Heartbeat CPU 0 instructions: 20000002 cycles: 5880246 heartbeat IPC: 3.39792 cumulative IPC: 3.40122 (Simulation time: 0 hr 1 min 18 sec) 
Heartbeat CPU 0 instructions: 30000001 cycles: 8814628 heartbeat IPC: 3.40787 cumulative IPC: 3.40343 (Simulation time: 0 hr 1 min 57 sec) 
*** Reached end of trace for Core: 0 Repeating trace: traces/spec2k17/srv_34.champsimtrace.xz
Heartbeat CPU 0 instructions: 40000001 cycles: 11752559 heartbeat IPC: 3.40376 cumulative IPC: 3.40351 (Simulation time: 0 hr 2 min 35 sec) 
Heartbeat CPU 0 instructions: 50000003 cycles: 14694102 heartbeat IPC: 3.39958 cumulative IPC: 3.40273 (Simulation time: 0 hr 3 min 15 sec) 

Warmup complete CPU 0 instructions: 50000003 cycles: 14694102 (Simulation time: 0 hr 3 min 15 sec) 

Heartbeat CPU 0 instructions: 60000001 cycles: 33458273 heartbeat IPC: 0.53293 cumulative IPC: 0.53293 (Simulation time: 0 hr 4 min 20 sec) 
*** Reached end of trace for Core: 0 Repeating trace: traces/spec2k17/srv_34.champsimtrace.xz
Heartbeat CPU 0 instructions: 70000003 cycles: 52039592 heartbeat IPC: 0.538175 cumulative IPC: 0.53554 (Simulation time: 0 hr 5 min 27 sec) 
Heartbeat CPU 0 instructions: 80000003 cycles: 70809657 heartbeat IPC: 0.532763 cumulative IPC: 0.534611 (Simulation time: 0 hr 6 min 31 sec) 
Heartbeat CPU 0 instructions: 90000001 cycles: 89562740 heartbeat IPC: 0.533246 cumulative IPC: 0.534269 (Simulation time: 0 hr 7 min 37 sec) 
*** Reached end of trace for Core: 0 Repeating trace: traces/spec2k17/srv_34.champsimtrace.xz
Heartbeat CPU 0 instructions: 100000000 cycles: 108165023 heartbeat IPC: 0.537568 cumulative IPC: 0.534926 (Simulation time: 0 hr 8 min 42 sec) 
Heartbeat CPU 0 instructions: 110000000 cycles: 126977121 heartbeat IPC: 0.531573 cumulative IPC: 0.534364 (Simulation time: 0 hr 9 min 45 sec) 
Heartbeat CPU 0 instructions: 120000000 cycles: 145652943 heartbeat IPC: 0.535452 cumulative IPC: 0.534519 (Simulation time: 0 hr 10 min 48 sec) 
*** Reached end of trace for Core: 0 Repeating trace: traces/spec2k17/srv_34.champsimtrace.xz
Heartbeat CPU 0 instructions: 130000002 cycles: 164251691 heartbeat IPC: 0.537671 cumulative IPC: 0.534911 (Simulation time: 0 hr 11 min 49 sec) 
Heartbeat CPU 0 instructions: 140000001 cycles: 182930865 heartbeat IPC: 0.535356 cumulative IPC: 0.53496 (Simulation time: 0 hr 12 min 54 sec) 
Heartbeat CPU 0 instructions: 150000001 cycles: 201599414 heartbeat IPC: 0.53566 cumulative IPC: 0.53503 (Simulation time: 0 hr 13 min 59 sec) 
Heartbeat CPU 0 instructions: 160000000 cycles: 220274011 heartbeat IPC: 0.535487 cumulative IPC: 0.535072 (Simulation time: 0 hr 15 min 5 sec) 
*** Reached end of trace for Core: 0 Repeating trace: traces/spec2k17/srv_34.champsimtrace.xz
Heartbeat CPU 0 instructions: 170000000 cycles: 238964879 heartbeat IPC: 0.535021 cumulative IPC: 0.535067 (Simulation time: 0 hr 16 min 8 sec) 
Heartbeat CPU 0 instructions: 180000000 cycles: 257734625 heartbeat IPC: 0.532772 cumulative IPC: 0.53489 (Simulation time: 0 hr 17 min 14 sec) 
Heartbeat CPU 0 instructions: 190000003 cycles: 276368874 heartbeat IPC: 0.536646 cumulative IPC: 0.535015 (Simulation time: 0 hr 18 min 20 sec) 
*** Reached end of trace for Core: 0 Repeating trace: traces/spec2k17/srv_34.champsimtrace.xz
Heartbeat CPU 0 instructions: 200000000 cycles: 294952665 heartbeat IPC: 0.538103 cumulative IPC: 0.53522 (Simulation time: 0 hr 19 min 24 sec) 
Heartbeat CPU 0 instructions: 210000000 cycles: 313731489 heartbeat IPC: 0.532515 cumulative IPC: 0.53505 (Simulation time: 0 hr 20 min 31 sec) 
Heartbeat CPU 0 instructions: 220000000 cycles: 332333244 heartbeat IPC: 0.537584 cumulative IPC: 0.535199 (Simulation time: 0 hr 21 min 35 sec) 
*** Reached end of trace for Core: 0 Repeating trace: traces/spec2k17/srv_34.champsimtrace.xz
Heartbeat CPU 0 instructions: 230000003 cycles: 350969131 heartbeat IPC: 0.536599 cumulative IPC: 0.535276 (Simulation time: 0 hr 22 min 39 sec) 
Heartbeat CPU 0 instructions: 240000000 cycles: 369756824 heartbeat IPC: 0.532263 cumulative IPC: 0.535117 (Simulation time: 0 hr 23 min 48 sec) 
Heartbeat CPU 0 instructions: 250000001 cycles: 388404584 heartbeat IPC: 0.536258 cumulative IPC: 0.535174 (Simulation time: 0 hr 24 min 52 sec) 
Finished CPU 0 instructions: 200000000 cycles: 373710483 cumulative IPC: 0.535174 (Simulation time: 0 hr 24 min 52 sec) 

ChampSim completed all CPUs

Region of Interest Statistics

CPU 0 cumulative IPC: 0.535174 instructions: 200000000 cycles: 373710483
ITLB TOTAL     ACCESS:   33737221  HIT:   32195066  MISS:    1542155  HIT %:    95.4289  MISS %:    4.57108   MPKI: 7.71077
ITLB LOAD TRANSLATION ACCESS:   33737221  HIT:   32195066  MISS:    1542155  HIT %:    95.4289  MISS %:    4.57108   MPKI: 7.71077
ITLB PREFETCH  REQUESTED:          0  ISSUED:          0  USEFUL:          0  USELESS:          0
ITLB USEFUL LOAD PREFETCHES:          0 PREFETCH ISSUED TO LOWER LEVEL:          0  ACCURACY: -nan
ITLB TIMELY PREFETCHES:          0 LATE PREFETCHES: 0 DROPPED PREFETCHES: 0
ITLB PREFETCHES SAME FILL-ORIGIN LEVEL: 0 DIFFERENT FILL-ORIGIN LEVEL: 0
ITLB AVERAGE MISS LATENCY: 9.20755 cycles
ITLB RQ	ACCESS:   40653148	FORWARD:          0	MERGED:    6421234	TO_CACHE:   34231914

DTLB TOTAL     ACCESS:   40117179  HIT:   38607416  MISS:    1509763  HIT %:    96.2366  MISS %:    3.76338   MPKI: 7.54882
DTLB LOAD TRANSLATION ACCESS:   40117179  HIT:   38607416  MISS:    1509763  HIT %:    96.2366  MISS %:    3.76338   MPKI: 7.54882
DTLB PREFETCH  REQUESTED:          0  ISSUED:          0  USEFUL:          0  USELESS:          0
DTLB USEFUL LOAD PREFETCHES:          0 PREFETCH ISSUED TO LOWER LEVEL:          0  ACCURACY: -nan
DTLB TIMELY PREFETCHES:          0 LATE PREFETCHES: 0 DROPPED PREFETCHES: 0
DTLB PREFETCHES SAME FILL-ORIGIN LEVEL: 0 DIFFERENT FILL-ORIGIN LEVEL: 0
DTLB AVERAGE MISS LATENCY: 15.0993 cycles
DTLB RQ	ACCESS:   61246486	FORWARD:          0	MERGED:   20725189	TO_CACHE:   40521297

STLB TOTAL     ACCESS:    3051918  HIT:    2975671  MISS:      76247  HIT %:    97.5017  MISS %:    2.49833   MPKI: 0.381235
STLB LOAD TRANSLATION ACCESS:    3051918  HIT:    2975671  MISS:      76247  HIT %:    97.5017  MISS %:    2.49833   MPKI: 0.381235
STLB PREFETCH  REQUESTED:          0  ISSUED:          0  USEFUL:          0  USELESS:          0
STLB USEFUL LOAD PREFETCHES:          0 PREFETCH ISSUED TO LOWER LEVEL:          0  ACCURACY: -nan
STLB TIMELY PREFETCHES:          0 LATE PREFETCHES: 0 DROPPED PREFETCHES: 0
STLB PREFETCHES SAME FILL-ORIGIN LEVEL: 0 DIFFERENT FILL-ORIGIN LEVEL: 0
STLB AVERAGE MISS LATENCY: 124.647 cycles
STLB RQ	ACCESS:    3051918	FORWARD:          0	MERGED:          0	TO_CACHE:    3051918

STLB Hit, L1D data hit: 0
STLB Hit, L2C data hit: 0
STLB Hit, LLC data hit: 0
STLB Hit, LLC data miss: 0
STLB STLB hints to L2: 0
L1D TOTAL     ACCESS:   48764506  HIT:   42016238  MISS:    6748268  HIT %:    86.1615  MISS %:    13.8385   MPKI: 33.7413
L1D LOAD      ACCESS:   26783400  HIT:   23723451  MISS:    3059949  HIT %:    88.5752  MISS %:    11.4248   MPKI: 15.2997
L1D RFO       ACCESS:   21981106  HIT:   18292787  MISS:    3688319  HIT %:    83.2205  MISS %:    16.7795   MPKI: 18.4416
L1D PREFETCH  REQUESTED:          0  ISSUED:          0  USEFUL:          0  USELESS:          0
L1D USEFUL LOAD PREFETCHES:          0 PREFETCH ISSUED TO LOWER LEVEL:          0  ACCURACY: -nan
L1D TIMELY PREFETCHES:          0 LATE PREFETCHES: 0 DROPPED PREFETCHES: 0
L1D PREFETCHES SAME FILL-ORIGIN LEVEL: 0 DIFFERENT FILL-ORIGIN LEVEL: 0
L1D AVERAGE MISS LATENCY: 143.278 cycles
L1D RQ	ACCESS:   45368295	FORWARD:          0	MERGED:   17835289	TO_CACHE:   27273323
L1D WQ	ACCESS:   34174261	FORWARD:     259683	MERGED:     201098	TO_CACHE:   33973163

L1D UNIQUE REGIONS ACCESSED: 0
L1D REGIONS CONFLICTS: 0
L1D Cross Page Prefetch Requests: 0
L1D Same Page Prefetch Requests: 0
L1D ROI Sum of L1D PQ occupancy: 0
L1D PREFETCHES PUSHED FROM L2C: 0
L1I TOTAL     ACCESS:   37983730  HIT:   28854039  MISS:    9129691  HIT %:    75.9642  MISS %:    24.0358   MPKI: 45.6485
L1I LOAD      ACCESS:   37983730  HIT:   28854039  MISS:    9129691  HIT %:    75.9642  MISS %:    24.0358   MPKI: 45.6485
L1I PREFETCH  REQUESTED:          0  ISSUED:          0  USEFUL:          0  USELESS:          0
L1I USEFUL LOAD PREFETCHES:          0 PREFETCH ISSUED TO LOWER LEVEL:          0  ACCURACY: -nan
L1I TIMELY PREFETCHES:          0 LATE PREFETCHES: 0 DROPPED PREFETCHES: 0
L1I PREFETCHES SAME FILL-ORIGIN LEVEL: 0 DIFFERENT FILL-ORIGIN LEVEL: 0
L1I AVERAGE MISS LATENCY: 16.6368 cycles
L1I RQ	ACCESS:   58861021	FORWARD:          0	MERGED:   18207873	TO_CACHE:   40653148

BTB TOTAL     ACCESS:   25683983  HIT:   24137267  MISS:    1546716  HIT %:    93.9779  MISS %:     6.0221   MPKI: 7.73358
BTB BRANCH_DIRECT_JUMP	ACCESS:    1661224  HIT:    1651564  MISS:       9660
BTB BRANCH_INDIRECT	ACCESS:    9989440  HIT:    9473851  MISS:     515589
BTB BRANCH_CONDITIONAL	ACCESS:    7185443  HIT:    7172058  MISS:      13385
BTB BRANCH_DIRECT_CALL	ACCESS:    2827619  HIT:    2794301  MISS:      33318
BTB BRANCH_INDIRECT_CALL	ACCESS:     596257  HIT:     484762  MISS:     111495
BTB BRANCH_RETURN	ACCESS:    3424000  HIT:    2560731  MISS:     863269
BTB BRANCH_OTHER ACCESS:          0  HIT:          0  MISS:          0

L2C TOTAL     ACCESS:   22272589  HIT:   14677953  MISS:    7594636  HIT %:    65.9014  MISS %:    34.0986   MPKI: 37.9732
L2C LOAD      ACCESS:   12189472  HIT:   10018948  MISS:    2170524  HIT %:    82.1935  MISS %:    17.8065   MPKI: 10.8526
L2C DATA LOAD MPKI: 7.77945
L2C INSTRUCTION LOAD MPKI: 3.07316
L2C RFO       ACCESS:    3688318  HIT:     149059  MISS:    3539259  HIT %:    4.04138  MISS %:    95.9586   MPKI: 17.6963
L2C PREFETCH  ACCESS:    1969055  HIT:     310617  MISS:    1658438  HIT %:    15.7749  MISS %:    84.2251   MPKI: 8.29219
AGUS PREFETCH L1 MISS: 0
L2C DATA PREFETCH MPKI: 8.29219
L2C INSTRUCTION PREFETCH MPKI: 0
L2C WRITEBACK ACCESS:    4339395  HIT:    4153769  MISS:     185626  HIT %:    95.7223  MISS %:    4.27769   MPKI: 0.92813
L2C LOAD TRANSLATION ACCESS:      86349  HIT:      45560  MISS:      40789  HIT %:    52.7626  MISS %:    47.2374   MPKI: 0.203945
L2C PREFETCH  REQUESTED:    2335439  ISSUED:    2335439  USEFUL:     818260  USELESS:     839988
L2C USEFUL LOAD PREFETCHES:     818260 PREFETCH ISSUED TO LOWER LEVEL:    2004241  ACCURACY: 40.8264
L2C TIMELY PREFETCHES:     818260 LATE PREFETCHES: 345803 DROPPED PREFETCHES: 0
L2C PREFETCHES SAME FILL-ORIGIN LEVEL: 2004241 DIFFERENT FILL-ORIGIN LEVEL: 0
L2C AVERAGE MISS LATENCY: 150.476 cycles
L2C RQ	ACCESS:   15964316	FORWARD:          0	MERGED:          0	TO_CACHE:   15964147
L2C WQ	ACCESS:    4339395	FORWARD:        175	MERGED:          0	TO_CACHE:    4339395
L2C PQ	ACCESS:    2335439	FORWARD:          0	MERGED:         69	TO_CACHE:    2335364

L2C Instructions Evicting Data 568870
L2C Translations Evicting Data 37312
L2C Data Evicting Data 6163619
L2C Instructions Evicting Instructions 42173
L2C Translations Evicting Instructions 3360
L2C Data Evicting Instructions 553635
L2C Instructions Evicting Translations 3590
L2C Translations Evicting Translations 117
L2C Data Evicting Translations 36334
L2C Dense regions hint from L2: 0
PSCL5 TOTAL     ACCESS:      76247  HIT:      76247  MISS:          0  HIT %:        100  MISS %:          0   MPKI: 0
PSCL5 LOAD TRANSLATION ACCESS:      76247  HIT:      76247  MISS:          0  HIT %:        100  MISS %:          0   MPKI: 0
PSCL5 PREFETCH  REQUESTED:          0  ISSUED:          0  USEFUL:          0  USELESS:          0
PSCL5 USEFUL LOAD PREFETCHES:          0 PREFETCH ISSUED TO LOWER LEVEL:          0  ACCURACY: -nan
PSCL5 TIMELY PREFETCHES:          0 LATE PREFETCHES: 0 DROPPED PREFETCHES: 0
PSCL5 PREFETCHES SAME FILL-ORIGIN LEVEL: 0 DIFFERENT FILL-ORIGIN LEVEL: 0

PSCL4 TOTAL     ACCESS:      65597  HIT:      65490  MISS:        107  HIT %:    99.8369  MISS %:   0.163117   MPKI: 0.000535
PSCL4 LOAD TRANSLATION ACCESS:      65597  HIT:      65490  MISS:        107  HIT %:    99.8369  MISS %:   0.163117   MPKI: 0.000535
PSCL4 PREFETCH  REQUESTED:          0  ISSUED:          0  USEFUL:          0  USELESS:          0
PSCL4 USEFUL LOAD PREFETCHES:          0 PREFETCH ISSUED TO LOWER LEVEL:          0  ACCURACY: -nan
PSCL4 TIMELY PREFETCHES:          0 LATE PREFETCHES: 0 DROPPED PREFETCHES: 0
PSCL4 PREFETCHES SAME FILL-ORIGIN LEVEL: 0 DIFFERENT FILL-ORIGIN LEVEL: 0

PSCL3 TOTAL     ACCESS:      76174  HIT:      75958  MISS:        216  HIT %:    99.7164  MISS %:   0.283561   MPKI: 0.00108
PSCL3 LOAD TRANSLATION ACCESS:      76174  HIT:      75958  MISS:        216  HIT %:    99.7164  MISS %:   0.283561   MPKI: 0.00108
PSCL3 PREFETCH  REQUESTED:          0  ISSUED:          0  USEFUL:          0  USELESS:          0
PSCL3 USEFUL LOAD PREFETCHES:          0 PREFETCH ISSUED TO LOWER LEVEL:          0  ACCURACY: -nan
PSCL3 TIMELY PREFETCHES:          0 LATE PREFETCHES: 0 DROPPED PREFETCHES: 0
PSCL3 PREFETCHES SAME FILL-ORIGIN LEVEL: 0 DIFFERENT FILL-ORIGIN LEVEL: 0

PSCL2 TOTAL     ACCESS:      76247  HIT:      66468  MISS:       9779  HIT %:    87.1746  MISS %:    12.8254   MPKI: 0.048895
PSCL2 LOAD TRANSLATION ACCESS:      76247  HIT:      66468  MISS:       9779  HIT %:    87.1746  MISS %:    12.8254   MPKI: 0.048895
PSCL2 PREFETCH  REQUESTED:          0  ISSUED:          0  USEFUL:          0  USELESS:          0
PSCL2 USEFUL LOAD PREFETCHES:          0 PREFETCH ISSUED TO LOWER LEVEL:          0  ACCURACY: -nan
PSCL2 TIMELY PREFETCHES:          0 LATE PREFETCHES: 0 DROPPED PREFETCHES: 0
PSCL2 PREFETCHES SAME FILL-ORIGIN LEVEL: 0 DIFFERENT FILL-ORIGIN LEVEL: 0

LLC TOTAL     ACCESS:   11497977  HIT:    4750835  MISS:    6747142  HIT %:    41.3189  MISS %:    58.6811   MPKI: 33.7357
LLC LOAD      ACCESS:    1824826  HIT:    1526890  MISS:     297936  HIT %:    83.6732  MISS %:    16.3268   MPKI: 1.48968
LLC RFO       ACCESS:    3539128  HIT:     948774  MISS:    2590354  HIT %:    26.8081  MISS %:    73.1919   MPKI: 12.9518
LLC PREFETCH  ACCESS:    2004241  HIT:     698967  MISS:    1305274  HIT %:    34.8744  MISS %:    65.1256   MPKI: 6.52637
AGUS PREFETCH L1 MISS: 0
LLC WRITEBACK ACCESS:    4088993  HIT:    1565638  MISS:    2523355  HIT %:    38.2891  MISS %:    61.7109   MPKI: 12.6168
LLC LOAD TRANSLATION ACCESS:      40789  HIT:      10566  MISS:      30223  HIT %:     25.904  MISS %:     74.096   MPKI: 0.151115
LLC PREFETCH  REQUESTED:          0  ISSUED:          0  USEFUL:       2991  USELESS:    1302193
LLC USEFUL LOAD PREFETCHES:       2991 PREFETCH ISSUED TO LOWER LEVEL:    1305274  ACCURACY: 0.229147
LLC TIMELY PREFETCHES:       2991 LATE PREFETCHES: 0 DROPPED PREFETCHES: 0
LLC PREFETCHES SAME FILL-ORIGIN LEVEL: 0 DIFFERENT FILL-ORIGIN LEVEL: 0
LLC AVERAGE MISS LATENCY: 141.002 cycles
LLC RQ	ACCESS:    5404776	FORWARD:          0	MERGED:          0	TO_CACHE:    5404750
LLC WQ	ACCESS:    4088993	FORWARD:         26	MERGED:          0	TO_CACHE:    4088993
LLC PQ	ACCESS:    2004241	FORWARD:          0	MERGED:          0	TO_CACHE:    2004241

LLC Dense regions hint to LLC: 0

RAW hits: 2376746
Loads Generated: 47745046
Loads sent to L1D: 45368295
Stores Generated: 34174248
Stores sent to L1D: 34174261
Major fault: 0 Minor fault: 8817
Allocated PAGES: 8817
CPU 0 L2C best offset prefetcher final stats

DRAM Statistics
 CHANNEL 0
 RQ ROW_BUFFER_HIT:    2335004  ROW_BUFFER_MISS:    1887998
 DBUS_CONGESTED:       2892
 WQ ROW_BUFFER_HIT:     521418  ROW_BUFFER_MISS:    2150782  FULL:      59461

 AVG_CONGESTED_CYCLE: 3
 All warmup complete: 2
Channel 0 Bank busy for read cycles: 0
Channel 0 Bank busy for write cycles: 0
Channel 0
Rank 0
0banks busy for read cycles: 151804406
0banks busy for write cycles: 254392
1banks busy for read cycles: 41079864
1banks busy for write cycles: 34254461
2banks busy for read cycles: 15395129
2banks busy for write cycles: 15504863
3banks busy for read cycles: 15278616
3banks busy for write cycles: 7999346
4banks busy for read cycles: 5310780
4banks busy for write cycles: 4980714
5banks busy for read cycles: 4527972
5banks busy for write cycles: 3674299
6banks busy for read cycles: 5988852
6banks busy for write cycles: 3365320
7banks busy for read cycles: 7434464
7banks busy for write cycles: 5431193
8banks busy for read cycles: 19892635
8banks busy for write cycles: 31533178

CPU 0 Branch Prediction Accuracy: 99.9482% MPKI: 0.079205 Average ROB Occupancy at Mispredict: 112.981
Branch types
NOT_BRANCH: 169447800 84.7239%
BRANCH_DIRECT_JUMP: 1661224 0.830612%
BRANCH_INDIRECT: 9989440 4.99472%
BRANCH_CONDITIONAL: 12053307 6.02665%
BRANCH_DIRECT_CALL: 2827619 1.41381%
BRANCH_INDIRECT_CALL: 596257 0.298129%
BRANCH_RETURN: 3424000 1.712%
BRANCH_OTHER: 0 0%

DRAM PAGES: 1048576
Allocated PAGES: 8817
