
*** ChampSim Multicore Out-of-Order Simulator ***

Warmup Instructions: 50000000
Simulation Instructions: 200000000
Number of CPUs: 1
LLC sets: 2048
LLC ways: 16
Off-chip DRAM Size: 4096 MB Channels: 1 Width: 64-bit Data Rate: 6400 MT/s
CPU 0 runs traces/spec2k17/srv_39.champsimtrace.xz
.xz
BTB has LRU replacement policy
ITLB has LRU replacement policy
DTLB has LRU replacement policy
STLB has LRU replacement policy
L1I has LRU replacement policy
L1D has LRU replacement policy
CPU 0 L2C best offset prefetcher
Initialize SRRIP state for L2C
Initialize DRRIP state for LLC
Heartbeat CPU 0 instructions: 10000001 cycles: 2943839 heartbeat IPC: 3.39693 cumulative IPC: 3.39693 (Simulation time: 0 hr 0 min 40 sec) 
Heartbeat CPU 0 instructions: 20000002 cycles: 5878919 heartbeat IPC: 3.40706 cumulative IPC: 3.40199 (Simulation time: 0 hr 1 min 20 sec) 
Heartbeat CPU 0 instructions: 30000003 cycles: 8820903 heartbeat IPC: 3.39907 cumulative IPC: 3.40101 (Simulation time: 0 hr 1 min 58 sec) 
*** Reached end of trace for Core: 0 Repeating trace: traces/spec2k17/srv_39.champsimtrace.xz
Heartbeat CPU 0 instructions: 40000000 cycles: 11761272 heartbeat IPC: 3.40093 cumulative IPC: 3.40099 (Simulation time: 0 hr 2 min 38 sec) 
Heartbeat CPU 0 instructions: 50000000 cycles: 14695905 heartbeat IPC: 3.40758 cumulative IPC: 3.40231 (Simulation time: 0 hr 3 min 14 sec) 

Warmup complete CPU 0 instructions: 50000004 cycles: 14695906 (Simulation time: 0 hr 3 min 14 sec) 

Heartbeat CPU 0 instructions: 60000003 cycles: 33390150 heartbeat IPC: 0.534924 cumulative IPC: 0.534924 (Simulation time: 0 hr 4 min 20 sec) 
*** Reached end of trace for Core: 0 Repeating trace: traces/spec2k17/srv_39.champsimtrace.xz
Heartbeat CPU 0 instructions: 70000000 cycles: 52019495 heartbeat IPC: 0.536787 cumulative IPC: 0.535854 (Simulation time: 0 hr 5 min 25 sec) 
Heartbeat CPU 0 instructions: 80000001 cycles: 70759990 heartbeat IPC: 0.533604 cumulative IPC: 0.535102 (Simulation time: 0 hr 6 min 30 sec) 
Heartbeat CPU 0 instructions: 90000000 cycles: 89289462 heartbeat IPC: 0.539681 cumulative IPC: 0.536239 (Simulation time: 0 hr 7 min 36 sec) 
*** Reached end of trace for Core: 0 Repeating trace: traces/spec2k17/srv_39.champsimtrace.xz
Heartbeat CPU 0 instructions: 100000000 cycles: 107871614 heartbeat IPC: 0.538151 cumulative IPC: 0.53662 (Simulation time: 0 hr 8 min 42 sec) 
Heartbeat CPU 0 instructions: 110000000 cycles: 126529849 heartbeat IPC: 0.535956 cumulative IPC: 0.53651 (Simulation time: 0 hr 9 min 48 sec) 
Heartbeat CPU 0 instructions: 120000001 cycles: 145191715 heartbeat IPC: 0.535852 cumulative IPC: 0.536416 (Simulation time: 0 hr 10 min 53 sec) 
*** Reached end of trace for Core: 0 Repeating trace: traces/spec2k17/srv_39.champsimtrace.xz
Heartbeat CPU 0 instructions: 130000000 cycles: 163757856 heartbeat IPC: 0.538615 cumulative IPC: 0.53669 (Simulation time: 0 hr 11 min 57 sec) 
Heartbeat CPU 0 instructions: 140000000 cycles: 182499105 heartbeat IPC: 0.533582 cumulative IPC: 0.536343 (Simulation time: 0 hr 12 min 59 sec) 
Heartbeat CPU 0 instructions: 150000003 cycles: 201124653 heartbeat IPC: 0.536897 cumulative IPC: 0.536398 (Simulation time: 0 hr 14 min 2 sec) 
Heartbeat CPU 0 instructions: 160000000 cycles: 219667545 heartbeat IPC: 0.53929 cumulative IPC: 0.53666 (Simulation time: 0 hr 15 min 9 sec) 
*** Reached end of trace for Core: 0 Repeating trace: traces/spec2k17/srv_39.champsimtrace.xz
Heartbeat CPU 0 instructions: 170000001 cycles: 238387247 heartbeat IPC: 0.534197 cumulative IPC: 0.536453 (Simulation time: 0 hr 16 min 18 sec) 
Heartbeat CPU 0 instructions: 180000000 cycles: 256976432 heartbeat IPC: 0.537947 cumulative IPC: 0.536568 (Simulation time: 0 hr 17 min 24 sec) 
Heartbeat CPU 0 instructions: 190000000 cycles: 275637426 heartbeat IPC: 0.535877 cumulative IPC: 0.536519 (Simulation time: 0 hr 18 min 33 sec) 
*** Reached end of trace for Core: 0 Repeating trace: traces/spec2k17/srv_39.champsimtrace.xz
Heartbeat CPU 0 instructions: 200000001 cycles: 294195483 heartbeat IPC: 0.53885 cumulative IPC: 0.536673 (Simulation time: 0 hr 19 min 40 sec) 
Heartbeat CPU 0 instructions: 210000000 cycles: 312879320 heartbeat IPC: 0.535222 cumulative IPC: 0.536582 (Simulation time: 0 hr 20 min 45 sec) 
Heartbeat CPU 0 instructions: 220000000 cycles: 331500212 heartbeat IPC: 0.537031 cumulative IPC: 0.536609 (Simulation time: 0 hr 21 min 52 sec) 
*** Reached end of trace for Core: 0 Repeating trace: traces/spec2k17/srv_39.champsimtrace.xz
Heartbeat CPU 0 instructions: 230000000 cycles: 350088231 heartbeat IPC: 0.537981 cumulative IPC: 0.536685 (Simulation time: 0 hr 22 min 57 sec) 
Heartbeat CPU 0 instructions: 240000001 cycles: 368713226 heartbeat IPC: 0.536913 cumulative IPC: 0.536697 (Simulation time: 0 hr 24 min 2 sec) 
Heartbeat CPU 0 instructions: 250000000 cycles: 387314554 heartbeat IPC: 0.537596 cumulative IPC: 0.536742 (Simulation time: 0 hr 25 min 7 sec) 
Finished CPU 0 instructions: 200000000 cycles: 372618657 cumulative IPC: 0.536742 (Simulation time: 0 hr 25 min 7 sec) 

ChampSim completed all CPUs

Region of Interest Statistics

CPU 0 cumulative IPC: 0.536742 instructions: 200000000 cycles: 372618657
ITLB TOTAL     ACCESS:   33730272  HIT:   32189966  MISS:    1540306  HIT %:    95.4335  MISS %:    4.56654   MPKI: 7.70153
ITLB LOAD TRANSLATION ACCESS:   33730272  HIT:   32189966  MISS:    1540306  HIT %:    95.4335  MISS %:    4.56654   MPKI: 7.70153
ITLB PREFETCH  REQUESTED:          0  ISSUED:          0  USEFUL:          0  USELESS:          0
ITLB USEFUL LOAD PREFETCHES:          0 PREFETCH ISSUED TO LOWER LEVEL:          0  ACCURACY: -nan
ITLB TIMELY PREFETCHES:          0 LATE PREFETCHES: 0 DROPPED PREFETCHES: 0
ITLB PREFETCHES SAME FILL-ORIGIN LEVEL: 0 DIFFERENT FILL-ORIGIN LEVEL: 0
ITLB AVERAGE MISS LATENCY: 9.22079 cycles
ITLB RQ	ACCESS:   40649521	FORWARD:          0	MERGED:    6424331	TO_CACHE:   34225190

DTLB TOTAL     ACCESS:   40175678  HIT:   38658632  MISS:    1517046  HIT %:     96.224  MISS %:    3.77603   MPKI: 7.58523
DTLB LOAD TRANSLATION ACCESS:   40175678  HIT:   38658632  MISS:    1517046  HIT %:     96.224  MISS %:    3.77603   MPKI: 7.58523
DTLB PREFETCH  REQUESTED:          0  ISSUED:          0  USEFUL:          0  USELESS:          0
DTLB USEFUL LOAD PREFETCHES:          0 PREFETCH ISSUED TO LOWER LEVEL:          0  ACCURACY: -nan
DTLB TIMELY PREFETCHES:          0 LATE PREFETCHES: 0 DROPPED PREFETCHES: 0
DTLB PREFETCHES SAME FILL-ORIGIN LEVEL: 0 DIFFERENT FILL-ORIGIN LEVEL: 0
DTLB AVERAGE MISS LATENCY: 14.4357 cycles
DTLB RQ	ACCESS:   61297609	FORWARD:          0	MERGED:   20719299	TO_CACHE:   40578310

STLB TOTAL     ACCESS:    3057352  HIT:    2979277  MISS:      78075  HIT %:    97.4463  MISS %:    2.55368   MPKI: 0.390375
STLB LOAD TRANSLATION ACCESS:    3057352  HIT:    2979277  MISS:      78075  HIT %:    97.4463  MISS %:    2.55368   MPKI: 0.390375
STLB PREFETCH  REQUESTED:          0  ISSUED:          0  USEFUL:          0  USELESS:          0
STLB USEFUL LOAD PREFETCHES:          0 PREFETCH ISSUED TO LOWER LEVEL:          0  ACCURACY: -nan
STLB TIMELY PREFETCHES:          0 LATE PREFETCHES: 0 DROPPED PREFETCHES: 0
STLB PREFETCHES SAME FILL-ORIGIN LEVEL: 0 DIFFERENT FILL-ORIGIN LEVEL: 0
STLB AVERAGE MISS LATENCY: 109.667 cycles
STLB RQ	ACCESS:    3057352	FORWARD:          0	MERGED:          0	TO_CACHE:    3057352

STLB Hit, L1D data hit: 0
STLB Hit, L2C data hit: 0
STLB Hit, LLC data hit: 0
STLB Hit, LLC data miss: 0
STLB STLB hints to L2: 0
L1D TOTAL     ACCESS:   48806361  HIT:   42055523  MISS:    6750838  HIT %:    86.1681  MISS %:    13.8319   MPKI: 33.7542
L1D LOAD      ACCESS:   26830319  HIT:   23779702  MISS:    3050617  HIT %:      88.63  MISS %:      11.37   MPKI: 15.2531
L1D RFO       ACCESS:   21976042  HIT:   18275821  MISS:    3700221  HIT %:    83.1625  MISS %:    16.8375   MPKI: 18.5011
L1D PREFETCH  REQUESTED:          0  ISSUED:          0  USEFUL:          0  USELESS:          0
L1D USEFUL LOAD PREFETCHES:          0 PREFETCH ISSUED TO LOWER LEVEL:          0  ACCURACY: -nan
L1D TIMELY PREFETCHES:          0 LATE PREFETCHES: 0 DROPPED PREFETCHES: 0
L1D PREFETCHES SAME FILL-ORIGIN LEVEL: 0 DIFFERENT FILL-ORIGIN LEVEL: 0
L1D AVERAGE MISS LATENCY: 140.795 cycles
L1D RQ	ACCESS:   45439330	FORWARD:          0	MERGED:   17863912	TO_CACHE:   27316832
L1D WQ	ACCESS:   34178909	FORWARD:     258586	MERGED:     198132	TO_CACHE:   33980777

L1D UNIQUE REGIONS ACCESSED: 0
L1D REGIONS CONFLICTS: 0
L1D Cross Page Prefetch Requests: 0
L1D Same Page Prefetch Requests: 0
L1D ROI Sum of L1D PQ occupancy: 0
L1D PREFETCHES PUSHED FROM L2C: 0
L1I TOTAL     ACCESS:   37986058  HIT:   28881049  MISS:    9105009  HIT %:    76.0307  MISS %:    23.9693   MPKI: 45.525
L1I LOAD      ACCESS:   37986058  HIT:   28881049  MISS:    9105009  HIT %:    76.0307  MISS %:    23.9693   MPKI: 45.525
L1I PREFETCH  REQUESTED:          0  ISSUED:          0  USEFUL:          0  USELESS:          0
L1I USEFUL LOAD PREFETCHES:          0 PREFETCH ISSUED TO LOWER LEVEL:          0  ACCURACY: -nan
L1I TIMELY PREFETCHES:          0 LATE PREFETCHES: 0 DROPPED PREFETCHES: 0
L1I PREFETCHES SAME FILL-ORIGIN LEVEL: 0 DIFFERENT FILL-ORIGIN LEVEL: 0
L1I AVERAGE MISS LATENCY: 16.7703 cycles
L1I RQ	ACCESS:   58852748	FORWARD:          0	MERGED:   18203227	TO_CACHE:   40649521

BTB TOTAL     ACCESS:   25656442  HIT:   24104580  MISS:    1551862  HIT %:    93.9514  MISS %:    6.04863   MPKI: 7.75931
BTB BRANCH_DIRECT_JUMP	ACCESS:    1660636  HIT:    1651091  MISS:       9545
BTB BRANCH_INDIRECT	ACCESS:   10006677  HIT:    9485915  MISS:     520762
BTB BRANCH_CONDITIONAL	ACCESS:    7142248  HIT:    7128880  MISS:      13368
BTB BRANCH_DIRECT_CALL	ACCESS:    2826795  HIT:    2793470  MISS:      33325
BTB BRANCH_INDIRECT_CALL	ACCESS:     596648  HIT:     485314  MISS:     111334
BTB BRANCH_RETURN	ACCESS:    3423438  HIT:    2559910  MISS:     863528
BTB BRANCH_OTHER ACCESS:          0  HIT:          0  MISS:          0

L2C TOTAL     ACCESS:   22252354  HIT:   14622444  MISS:    7629910  HIT %:    65.7119  MISS %:    34.2881   MPKI: 38.1495
L2C LOAD      ACCESS:   12155436  HIT:    9960372  MISS:    2195064  HIT %:    81.9417  MISS %:    18.0583   MPKI: 10.9753
L2C DATA LOAD MPKI: 7.78073
L2C INSTRUCTION LOAD MPKI: 3.19459
L2C RFO       ACCESS:    3700217  HIT:     153122  MISS:    3547095  HIT %:    4.13819  MISS %:    95.8618   MPKI: 17.7355
L2C PREFETCH  ACCESS:    1963026  HIT:     302934  MISS:    1660092  HIT %:     15.432  MISS %:     84.568   MPKI: 8.30046
AGUS PREFETCH L1 MISS: 0
L2C DATA PREFETCH MPKI: 8.30046
L2C INSTRUCTION PREFETCH MPKI: 0
L2C WRITEBACK ACCESS:    4346661  HIT:    4158906  MISS:     187755  HIT %:    95.6805  MISS %:    4.31952   MPKI: 0.938775
L2C LOAD TRANSLATION ACCESS:      87014  HIT:      47110  MISS:      39904  HIT %:    54.1407  MISS %:    45.8593   MPKI: 0.19952
L2C PREFETCH  REQUESTED:    2329855  ISSUED:    2329855  USEFUL:     812572  USELESS:     847534
L2C USEFUL LOAD PREFETCHES:     812572 PREFETCH ISSUED TO LOWER LEVEL:    2006568  ACCURACY: 40.4956
L2C TIMELY PREFETCHES:     812572 LATE PREFETCHES: 346476 DROPPED PREFETCHES: 0
L2C PREFETCHES SAME FILL-ORIGIN LEVEL: 2006568 DIFFERENT FILL-ORIGIN LEVEL: 0
L2C AVERAGE MISS LATENCY: 147.163 cycles
L2C RQ	ACCESS:   15942860	FORWARD:          0	MERGED:          0	TO_CACHE:   15942667
L2C WQ	ACCESS:    4346661	FORWARD:        197	MERGED:          0	TO_CACHE:    4346661
L2C PQ	ACCESS:    2329855	FORWARD:          0	MERGED:         86	TO_CACHE:    2329765

L2C Instructions Evicting Data 581087
L2C Translations Evicting Data 36898
L2C Data Evicting Data 6162772
L2C Instructions Evicting Instructions 55060
L2C Translations Evicting Instructions 2862
L2C Data Evicting Instructions 564366
L2C Instructions Evicting Translations 2771
L2C Translations Evicting Translations 144
L2C Data Evicting Translations 36195
L2C Dense regions hint from L2: 0
PSCL5 TOTAL     ACCESS:      78075  HIT:      78075  MISS:          0  HIT %:        100  MISS %:          0   MPKI: 0
PSCL5 LOAD TRANSLATION ACCESS:      78075  HIT:      78075  MISS:          0  HIT %:        100  MISS %:          0   MPKI: 0
PSCL5 PREFETCH  REQUESTED:          0  ISSUED:          0  USEFUL:          0  USELESS:          0
PSCL5 USEFUL LOAD PREFETCHES:          0 PREFETCH ISSUED TO LOWER LEVEL:          0  ACCURACY: -nan
PSCL5 TIMELY PREFETCHES:          0 LATE PREFETCHES: 0 DROPPED PREFETCHES: 0
PSCL5 PREFETCHES SAME FILL-ORIGIN LEVEL: 0 DIFFERENT FILL-ORIGIN LEVEL: 0

PSCL4 TOTAL     ACCESS:      74021  HIT:      73837  MISS:        184  HIT %:    99.7514  MISS %:   0.248578   MPKI: 0.00092
PSCL4 LOAD TRANSLATION ACCESS:      74021  HIT:      73837  MISS:        184  HIT %:    99.7514  MISS %:   0.248578   MPKI: 0.00092
PSCL4 PREFETCH  REQUESTED:          0  ISSUED:          0  USEFUL:          0  USELESS:          0
PSCL4 USEFUL LOAD PREFETCHES:          0 PREFETCH ISSUED TO LOWER LEVEL:          0  ACCURACY: -nan
PSCL4 TIMELY PREFETCHES:          0 LATE PREFETCHES: 0 DROPPED PREFETCHES: 0
PSCL4 PREFETCHES SAME FILL-ORIGIN LEVEL: 0 DIFFERENT FILL-ORIGIN LEVEL: 0

PSCL3 TOTAL     ACCESS:      78045  HIT:      77861  MISS:        184  HIT %:    99.7642  MISS %:   0.235761   MPKI: 0.00092
PSCL3 LOAD TRANSLATION ACCESS:      78045  HIT:      77861  MISS:        184  HIT %:    99.7642  MISS %:   0.235761   MPKI: 0.00092
PSCL3 PREFETCH  REQUESTED:          0  ISSUED:          0  USEFUL:          0  USELESS:          0
PSCL3 USEFUL LOAD PREFETCHES:          0 PREFETCH ISSUED TO LOWER LEVEL:          0  ACCURACY: -nan
PSCL3 TIMELY PREFETCHES:          0 LATE PREFETCHES: 0 DROPPED PREFETCHES: 0
PSCL3 PREFETCHES SAME FILL-ORIGIN LEVEL: 0 DIFFERENT FILL-ORIGIN LEVEL: 0

PSCL2 TOTAL     ACCESS:      78075  HIT:      69504  MISS:       8571  HIT %:    89.0221  MISS %:    10.9779   MPKI: 0.042855
PSCL2 LOAD TRANSLATION ACCESS:      78075  HIT:      69504  MISS:       8571  HIT %:    89.0221  MISS %:    10.9779   MPKI: 0.042855
PSCL2 PREFETCH  REQUESTED:          0  ISSUED:          0  USEFUL:          0  USELESS:          0
PSCL2 USEFUL LOAD PREFETCHES:          0 PREFETCH ISSUED TO LOWER LEVEL:          0  ACCURACY: -nan
PSCL2 TIMELY PREFETCHES:          0 LATE PREFETCHES: 0 DROPPED PREFETCHES: 0
PSCL2 PREFETCHES SAME FILL-ORIGIN LEVEL: 0 DIFFERENT FILL-ORIGIN LEVEL: 0

LLC TOTAL     ACCESS:   11533545  HIT:    4840289  MISS:    6693256  HIT %:    41.9671  MISS %:    58.0329   MPKI: 33.4663
LLC LOAD      ACCESS:    1848746  HIT:    1551989  MISS:     296757  HIT %:    83.9482  MISS %:    16.0518   MPKI: 1.48378
LLC RFO       ACCESS:    3546919  HIT:     981518  MISS:    2565401  HIT %:    27.6724  MISS %:    72.3276   MPKI: 12.827
LLC PREFETCH  ACCESS:    2006568  HIT:     695274  MISS:    1311294  HIT %:    34.6499  MISS %:    65.3501   MPKI: 6.55647
AGUS PREFETCH L1 MISS: 0
LLC WRITEBACK ACCESS:    4091408  HIT:    1596466  MISS:    2494942  HIT %:      39.02  MISS %:      60.98   MPKI: 12.4747
LLC LOAD TRANSLATION ACCESS:      39904  HIT:      15042  MISS:      24862  HIT %:    37.6955  MISS %:    62.3045   MPKI: 0.12431
LLC PREFETCH  REQUESTED:          0  ISSUED:          0  USEFUL:       2893  USELESS:    1308689
LLC USEFUL LOAD PREFETCHES:       2893 PREFETCH ISSUED TO LOWER LEVEL:    1311294  ACCURACY: 0.220622
LLC TIMELY PREFETCHES:       2893 LATE PREFETCHES: 0 DROPPED PREFETCHES: 0
LLC PREFETCHES SAME FILL-ORIGIN LEVEL: 0 DIFFERENT FILL-ORIGIN LEVEL: 0
LLC AVERAGE MISS LATENCY: 138.777 cycles
LLC RQ	ACCESS:    5435587	FORWARD:          0	MERGED:          0	TO_CACHE:    5435569
LLC WQ	ACCESS:    4091408	FORWARD:         18	MERGED:          0	TO_CACHE:    4091408
LLC PQ	ACCESS:    2006568	FORWARD:          0	MERGED:          0	TO_CACHE:    2006568

LLC Dense regions hint to LLC: 0

RAW hits: 2343891
Loads Generated: 47783216
Loads sent to L1D: 45439330
Stores Generated: 34178908
Stores sent to L1D: 34178909
Major fault: 0 Minor fault: 8494
Allocated PAGES: 8494
CPU 0 L2C best offset prefetcher final stats

DRAM Statistics
 CHANNEL 0
 RQ ROW_BUFFER_HIT:    2334411  ROW_BUFFER_MISS:    1863393
 DBUS_CONGESTED:       2839
 WQ ROW_BUFFER_HIT:     535030  ROW_BUFFER_MISS:    2105040  FULL:      49009

 AVG_CONGESTED_CYCLE: 3
 All warmup complete: 2
Channel 0 Bank busy for read cycles: 0
Channel 0 Bank busy for write cycles: 0
Channel 0
Rank 0
0banks busy for read cycles: 152987852
0banks busy for write cycles: 254154
1banks busy for read cycles: 40549050
1banks busy for write cycles: 34010299
2banks busy for read cycles: 15754089
2banks busy for write cycles: 15374675
3banks busy for read cycles: 15448629
3banks busy for write cycles: 7819395
4banks busy for read cycles: 5453846
4banks busy for write cycles: 4799759
5banks busy for read cycles: 4612733
5banks busy for write cycles: 3547565
6banks busy for read cycles: 5980231
6banks busy for write cycles: 3227146
7banks busy for read cycles: 7214989
7banks busy for write cycles: 5378523
8banks busy for read cycles: 19329177
8banks busy for write cycles: 30876546

CPU 0 Branch Prediction Accuracy: 99.9484% MPKI: 0.078705 Average ROB Occupancy at Mispredict: 114.464
Branch types
NOT_BRANCH: 169466867 84.7334%
BRANCH_DIRECT_JUMP: 1660636 0.830318%
BRANCH_INDIRECT: 10006677 5.00334%
BRANCH_CONDITIONAL: 12018715 6.00936%
BRANCH_DIRECT_CALL: 2826795 1.4134%
BRANCH_INDIRECT_CALL: 596648 0.298324%
BRANCH_RETURN: 3423438 1.71172%
BRANCH_OTHER: 0 0%

DRAM PAGES: 1048576
Allocated PAGES: 8494
