
*** ChampSim Multicore Out-of-Order Simulator ***

Warmup Instructions: 50000000
Simulation Instructions: 200000000
Number of CPUs: 1
LLC sets: 2048
LLC ways: 16
Off-chip DRAM Size: 4096 MB Channels: 1 Width: 64-bit Data Rate: 6400 MT/s
CPU 0 runs traces/spec2k17/srv_40.champsimtrace.xz
.xz
BTB has LRU replacement policy
ITLB has LRU replacement policy
DTLB has LRU replacement policy
STLB has LRU replacement policy
L1I has LRU replacement policy
L1D has LRU replacement policy
CPU 0 L2C best offset prefetcher
Initialize SRRIP state for L2C
Initialize DRRIP state for LLC
Heartbeat CPU 0 instructions: 10000001 cycles: 2803133 heartbeat IPC: 3.56744 cumulative IPC: 3.56744 (Simulation time: 0 hr 0 min 32 sec) 
Heartbeat CPU 0 instructions: 20000003 cycles: 5825379 heartbeat IPC: 3.3088 cumulative IPC: 3.43325 (Simulation time: 0 hr 1 min 9 sec) 
Heartbeat CPU 0 instructions: 30000002 cycles: 8857070 heartbeat IPC: 3.29849 cumulative IPC: 3.38712 (Simulation time: 0 hr 1 min 46 sec) 
*** Reached end of trace for Core: 0 Repeating trace: traces/spec2k17/srv_40.champsimtrace.xz
Heartbeat CPU 0 instructions: 40000000 cycles: 11668970 heartbeat IPC: 3.55631 cumulative IPC: 3.42789 (Simulation time: 0 hr 2 min 20 sec) 
Heartbeat CPU 0 instructions: 50000003 cycles: 14684600 heartbeat IPC: 3.31606 cumulative IPC: 3.40493 (Simulation time: 0 hr 2 min 57 sec) 

Warmup complete CPU 0 instructions: 50000003 cycles: 14684600 (Simulation time: 0 hr 2 min 57 sec) 

Heartbeat CPU 0 instructions: 60000000 cycles: 28133058 heartbeat IPC: 0.743579 cumulative IPC: 0.743579 (Simulation time: 0 hr 3 min 40 sec) 
*** Reached end of trace for Core: 0 Repeating trace: traces/spec2k17/srv_40.champsimtrace.xz
Heartbeat CPU 0 instructions: 70000003 cycles: 44108751 heartbeat IPC: 0.625951 cumulative IPC: 0.679714 (Simulation time: 0 hr 4 min 26 sec) 
Heartbeat CPU 0 instructions: 80000001 cycles: 59049534 heartbeat IPC: 0.669309 cumulative IPC: 0.67621 (Simulation time: 0 hr 5 min 9 sec) 
Heartbeat CPU 0 instructions: 90000001 cycles: 72479204 heartbeat IPC: 0.74462 cumulative IPC: 0.692106 (Simulation time: 0 hr 5 min 49 sec) 
*** Reached end of trace for Core: 0 Repeating trace: traces/spec2k17/srv_40.champsimtrace.xz
Heartbeat CPU 0 instructions: 100000002 cycles: 88543783 heartbeat IPC: 0.622488 cumulative IPC: 0.676964 (Simulation time: 0 hr 6 min 38 sec) 
Heartbeat CPU 0 instructions: 110000000 cycles: 103271642 heartbeat IPC: 0.678985 cumulative IPC: 0.6773 (Simulation time: 0 hr 7 min 19 sec) 
Heartbeat CPU 0 instructions: 120000001 cycles: 116709184 heartbeat IPC: 0.744184 cumulative IPC: 0.686109 (Simulation time: 0 hr 8 min 1 sec) 
*** Reached end of trace for Core: 0 Repeating trace: traces/spec2k17/srv_40.champsimtrace.xz
Heartbeat CPU 0 instructions: 130000003 cycles: 132917740 heartbeat IPC: 0.616958 cumulative IPC: 0.676629 (Simulation time: 0 hr 8 min 47 sec) 
Heartbeat CPU 0 instructions: 140000003 cycles: 147570832 heartbeat IPC: 0.68245 cumulative IPC: 0.677271 (Simulation time: 0 hr 9 min 31 sec) 
Heartbeat CPU 0 instructions: 150000000 cycles: 160972966 heartbeat IPC: 0.74615 cumulative IPC: 0.683581 (Simulation time: 0 hr 10 min 14 sec) 
*** Reached end of trace for Core: 0 Repeating trace: traces/spec2k17/srv_40.champsimtrace.xz
Heartbeat CPU 0 instructions: 160000001 cycles: 177269494 heartbeat IPC: 0.613628 cumulative IPC: 0.67657 (Simulation time: 0 hr 11 min 0 sec) 
Heartbeat CPU 0 instructions: 170000000 cycles: 191791072 heartbeat IPC: 0.68863 cumulative IPC: 0.677558 (Simulation time: 0 hr 11 min 42 sec) 
Heartbeat CPU 0 instructions: 180000003 cycles: 205180718 heartbeat IPC: 0.746846 cumulative IPC: 0.682429 (Simulation time: 0 hr 12 min 22 sec) 
*** Reached end of trace for Core: 0 Repeating trace: traces/spec2k17/srv_40.champsimtrace.xz
Heartbeat CPU 0 instructions: 190000001 cycles: 221607449 heartbeat IPC: 0.608764 cumulative IPC: 0.676581 (Simulation time: 0 hr 13 min 8 sec) 
Heartbeat CPU 0 instructions: 200000002 cycles: 236007522 heartbeat IPC: 0.694441 cumulative IPC: 0.677743 (Simulation time: 0 hr 13 min 51 sec) 
Heartbeat CPU 0 instructions: 210000000 cycles: 249420586 heartbeat IPC: 0.745542 cumulative IPC: 0.681617 (Simulation time: 0 hr 14 min 32 sec) 
*** Reached end of trace for Core: 0 Repeating trace: traces/spec2k17/srv_40.champsimtrace.xz
Heartbeat CPU 0 instructions: 220000000 cycles: 266022691 heartbeat IPC: 0.602333 cumulative IPC: 0.67638 (Simulation time: 0 hr 15 min 19 sec) 
Heartbeat CPU 0 instructions: 230000000 cycles: 280230567 heartbeat IPC: 0.703835 cumulative IPC: 0.677849 (Simulation time: 0 hr 16 min 4 sec) 
Heartbeat CPU 0 instructions: 240000000 cycles: 293634382 heartbeat IPC: 0.746056 cumulative IPC: 0.681126 (Simulation time: 0 hr 16 min 49 sec) 
*** Reached end of trace for Core: 0 Repeating trace: traces/spec2k17/srv_40.champsimtrace.xz
Heartbeat CPU 0 instructions: 250000002 cycles: 309978738 heartbeat IPC: 0.611832 cumulative IPC: 0.677291 (Simulation time: 0 hr 17 min 33 sec) 
Finished CPU 0 instructions: 200000003 cycles: 295294139 cumulative IPC: 0.677291 (Simulation time: 0 hr 17 min 33 sec) 

ChampSim completed all CPUs

Region of Interest Statistics

CPU 0 cumulative IPC: 0.677291 instructions: 200000003 cycles: 295294139
ITLB TOTAL     ACCESS:   29006227  HIT:   28740736  MISS:     265491  HIT %:    99.0847  MISS %:    0.91529   MPKI: 1.32745
ITLB LOAD TRANSLATION ACCESS:   29006227  HIT:   28740736  MISS:     265491  HIT %:    99.0847  MISS %:    0.91529   MPKI: 1.32745
ITLB PREFETCH  REQUESTED:          0  ISSUED:          0  USEFUL:          0  USELESS:          0
ITLB USEFUL LOAD PREFETCHES:          0 PREFETCH ISSUED TO LOWER LEVEL:          0  ACCURACY: -nan
ITLB TIMELY PREFETCHES:          0 LATE PREFETCHES: 0 DROPPED PREFETCHES: 0
ITLB PREFETCHES SAME FILL-ORIGIN LEVEL: 0 DIFFERENT FILL-ORIGIN LEVEL: 0
ITLB AVERAGE MISS LATENCY: 11.4546 cycles
ITLB RQ	ACCESS:   37736373	FORWARD:          0	MERGED:    8636348	TO_CACHE:   29100025

DTLB TOTAL     ACCESS:   36787101  HIT:   36472593  MISS:     314508  HIT %:    99.1451  MISS %:   0.854941   MPKI: 1.57254
DTLB LOAD TRANSLATION ACCESS:   36787101  HIT:   36472593  MISS:     314508  HIT %:    99.1451  MISS %:   0.854941   MPKI: 1.57254
DTLB PREFETCH  REQUESTED:          0  ISSUED:          0  USEFUL:          0  USELESS:          0
DTLB USEFUL LOAD PREFETCHES:          0 PREFETCH ISSUED TO LOWER LEVEL:          0  ACCURACY: -nan
DTLB TIMELY PREFETCHES:          0 LATE PREFETCHES: 0 DROPPED PREFETCHES: 0
DTLB PREFETCHES SAME FILL-ORIGIN LEVEL: 0 DIFFERENT FILL-ORIGIN LEVEL: 0
DTLB AVERAGE MISS LATENCY: 22.6378 cycles
DTLB RQ	ACCESS:   54994771	FORWARD:          0	MERGED:   18088419	TO_CACHE:   36906352

STLB TOTAL     ACCESS:     579999  HIT:     532236  MISS:      47763  HIT %:     91.765  MISS %:    8.23501   MPKI: 0.238815
STLB LOAD TRANSLATION ACCESS:     579999  HIT:     532236  MISS:      47763  HIT %:     91.765  MISS %:    8.23501   MPKI: 0.238815
STLB PREFETCH  REQUESTED:          0  ISSUED:          0  USEFUL:          0  USELESS:          0
STLB USEFUL LOAD PREFETCHES:          0 PREFETCH ISSUED TO LOWER LEVEL:          0  ACCURACY: -nan
STLB TIMELY PREFETCHES:          0 LATE PREFETCHES: 0 DROPPED PREFETCHES: 0
STLB PREFETCHES SAME FILL-ORIGIN LEVEL: 0 DIFFERENT FILL-ORIGIN LEVEL: 0
STLB AVERAGE MISS LATENCY: 103.278 cycles
STLB RQ	ACCESS:     579999	FORWARD:          0	MERGED:          0	TO_CACHE:     579999

STLB Hit, L1D data hit: 0
STLB Hit, L2C data hit: 0
STLB Hit, LLC data hit: 0
STLB Hit, LLC data miss: 0
STLB STLB hints to L2: 0
L1D TOTAL     ACCESS:   51557073  HIT:   49183990  MISS:    2373083  HIT %:    95.3972  MISS %:    4.60283   MPKI: 11.8654
L1D LOAD      ACCESS:   43018992  HIT:   41751020  MISS:    1267972  HIT %:    97.0525  MISS %:    2.94747   MPKI: 6.33986
L1D RFO       ACCESS:    8538081  HIT:    7432970  MISS:    1105111  HIT %:    87.0567  MISS %:    12.9433   MPKI: 5.52555
L1D PREFETCH  REQUESTED:          0  ISSUED:          0  USEFUL:          0  USELESS:          0
L1D USEFUL LOAD PREFETCHES:          0 PREFETCH ISSUED TO LOWER LEVEL:          0  ACCURACY: -nan
L1D TIMELY PREFETCHES:          0 LATE PREFETCHES: 0 DROPPED PREFETCHES: 0
L1D PREFETCHES SAME FILL-ORIGIN LEVEL: 0 DIFFERENT FILL-ORIGIN LEVEL: 0
L1D AVERAGE MISS LATENCY: 210.98 cycles
L1D RQ	ACCESS:   49918635	FORWARD:          0	MERGED:    6728185	TO_CACHE:   43071623
L1D WQ	ACCESS:   12021205	FORWARD:     118827	MERGED:      98057	TO_CACHE:   11923148

L1D UNIQUE REGIONS ACCESSED: 0
L1D REGIONS CONFLICTS: 0
L1D Cross Page Prefetch Requests: 0
L1D Same Page Prefetch Requests: 0
L1D ROI Sum of L1D PQ occupancy: 0
L1D PREFETCHES PUSHED FROM L2C: 0
L1I TOTAL     ACCESS:   37394901  HIT:   36126479  MISS:    1268422  HIT %:     96.608  MISS %:    3.39197   MPKI: 6.34211
L1I LOAD      ACCESS:   37394901  HIT:   36126479  MISS:    1268422  HIT %:     96.608  MISS %:    3.39197   MPKI: 6.34211
L1I PREFETCH  REQUESTED:          0  ISSUED:          0  USEFUL:          0  USELESS:          0
L1I USEFUL LOAD PREFETCHES:          0 PREFETCH ISSUED TO LOWER LEVEL:          0  ACCURACY: -nan
L1I TIMELY PREFETCHES:          0 LATE PREFETCHES: 0 DROPPED PREFETCHES: 0
L1I PREFETCHES SAME FILL-ORIGIN LEVEL: 0 DIFFERENT FILL-ORIGIN LEVEL: 0
L1I AVERAGE MISS LATENCY: 27.6094 cycles
L1I RQ	ACCESS:   53139198	FORWARD:          0	MERGED:   15402825	TO_CACHE:   37736373

BTB TOTAL     ACCESS:   13141774  HIT:   12087725  MISS:    1054049  HIT %:    91.9794  MISS %:     8.0206   MPKI: 5.27024
BTB BRANCH_DIRECT_JUMP	ACCESS:    1417007  HIT:    1361695  MISS:      55312
BTB BRANCH_INDIRECT	ACCESS:    4725365  HIT:    4385102  MISS:     340263
BTB BRANCH_CONDITIONAL	ACCESS:    4838896  HIT:    4776121  MISS:      62775
BTB BRANCH_DIRECT_CALL	ACCESS:     958452  HIT:     856613  MISS:     101839
BTB BRANCH_INDIRECT_CALL	ACCESS:     121813  HIT:      97196  MISS:      24617
BTB BRANCH_RETURN	ACCESS:    1080241  HIT:     610998  MISS:     469243
BTB BRANCH_OTHER ACCESS:          0  HIT:          0  MISS:          0

L2C TOTAL     ACCESS:    5361940  HIT:    3387907  MISS:    1974033  HIT %:    63.1844  MISS %:    36.8156   MPKI: 9.87016
L2C LOAD      ACCESS:    2536394  HIT:    1864813  MISS:     671581  HIT %:    73.5222  MISS %:    26.4778   MPKI: 3.3579
L2C DATA LOAD MPKI: 2.08564
L2C INSTRUCTION LOAD MPKI: 1.27226
L2C RFO       ACCESS:    1105080  HIT:     133682  MISS:     971398  HIT %:     12.097  MISS %:     87.903   MPKI: 4.85699
L2C PREFETCH  ACCESS:     371286  HIT:      83853  MISS:     287433  HIT %:    22.5845  MISS %:    77.4155   MPKI: 1.43716
AGUS PREFETCH L1 MISS: 0
L2C DATA PREFETCH MPKI: 1.43716
L2C INSTRUCTION PREFETCH MPKI: 0
L2C WRITEBACK ACCESS:    1288844  HIT:    1268513  MISS:      20331  HIT %:    98.4225  MISS %:    1.57746   MPKI: 0.101655
L2C LOAD TRANSLATION ACCESS:      60336  HIT:      37046  MISS:      23290  HIT %:    61.3995  MISS %:    38.6005   MPKI: 0.11645
L2C PREFETCH  REQUESTED:     610669  ISSUED:     610669  USEFUL:     199422  USELESS:      87382
L2C USEFUL LOAD PREFETCHES:     199422 PREFETCH ISSUED TO LOWER LEVEL:     517043  ACCURACY: 38.5697
L2C TIMELY PREFETCHES:     199422 LATE PREFETCHES: 229609 DROPPED PREFETCHES: 0
L2C PREFETCHES SAME FILL-ORIGIN LEVEL: 517043 DIFFERENT FILL-ORIGIN LEVEL: 0
L2C AVERAGE MISS LATENCY: 290.557 cycles
L2C RQ	ACCESS:    3701841	FORWARD:          0	MERGED:          0	TO_CACHE:    3701810
L2C WQ	ACCESS:    1288844	FORWARD:         31	MERGED:          0	TO_CACHE:    1288844
L2C PQ	ACCESS:     610669	FORWARD:          0	MERGED:         33	TO_CACHE:     610636

L2C Instructions Evicting Data 146815
L2C Translations Evicting Data 16140
L2C Data Evicting Data 1520788
L2C Instructions Evicting Instructions 100512
L2C Translations Evicting Instructions 6534
L2C Data Evicting Instructions 140223
L2C Instructions Evicting Translations 7126
L2C Translations Evicting Translations 616
L2C Data Evicting Translations 14948
L2C Dense regions hint from L2: 0
PSCL5 TOTAL     ACCESS:      47763  HIT:      47763  MISS:          0  HIT %:        100  MISS %:          0   MPKI: 0
PSCL5 LOAD TRANSLATION ACCESS:      47763  HIT:      47763  MISS:          0  HIT %:        100  MISS %:          0   MPKI: 0
PSCL5 PREFETCH  REQUESTED:          0  ISSUED:          0  USEFUL:          0  USELESS:          0
PSCL5 USEFUL LOAD PREFETCHES:          0 PREFETCH ISSUED TO LOWER LEVEL:          0  ACCURACY: -nan
PSCL5 TIMELY PREFETCHES:          0 LATE PREFETCHES: 0 DROPPED PREFETCHES: 0
PSCL5 PREFETCHES SAME FILL-ORIGIN LEVEL: 0 DIFFERENT FILL-ORIGIN LEVEL: 0

PSCL4 TOTAL     ACCESS:      47508  HIT:      47383  MISS:        125  HIT %:    99.7369  MISS %:   0.263114   MPKI: 0.000625
PSCL4 LOAD TRANSLATION ACCESS:      47508  HIT:      47383  MISS:        125  HIT %:    99.7369  MISS %:   0.263114   MPKI: 0.000625
PSCL4 PREFETCH  REQUESTED:          0  ISSUED:          0  USEFUL:          0  USELESS:          0
PSCL4 USEFUL LOAD PREFETCHES:          0 PREFETCH ISSUED TO LOWER LEVEL:          0  ACCURACY: -nan
PSCL4 TIMELY PREFETCHES:          0 LATE PREFETCHES: 0 DROPPED PREFETCHES: 0
PSCL4 PREFETCHES SAME FILL-ORIGIN LEVEL: 0 DIFFERENT FILL-ORIGIN LEVEL: 0

PSCL3 TOTAL     ACCESS:      39915  HIT:      36555  MISS:       3360  HIT %:    91.5821  MISS %:    8.41789   MPKI: 0.0168
PSCL3 LOAD TRANSLATION ACCESS:      39915  HIT:      36555  MISS:       3360  HIT %:    91.5821  MISS %:    8.41789   MPKI: 0.0168
PSCL3 PREFETCH  REQUESTED:          0  ISSUED:          0  USEFUL:          0  USELESS:          0
PSCL3 USEFUL LOAD PREFETCHES:          0 PREFETCH ISSUED TO LOWER LEVEL:          0  ACCURACY: -nan
PSCL3 TIMELY PREFETCHES:          0 LATE PREFETCHES: 0 DROPPED PREFETCHES: 0
PSCL3 PREFETCHES SAME FILL-ORIGIN LEVEL: 0 DIFFERENT FILL-ORIGIN LEVEL: 0

PSCL2 TOTAL     ACCESS:      47763  HIT:      38675  MISS:       9088  HIT %:    80.9727  MISS %:    19.0273   MPKI: 0.04544
PSCL2 LOAD TRANSLATION ACCESS:      47763  HIT:      38675  MISS:       9088  HIT %:    80.9727  MISS %:    19.0273   MPKI: 0.04544
PSCL2 PREFETCH  REQUESTED:          0  ISSUED:          0  USEFUL:          0  USELESS:          0
PSCL2 USEFUL LOAD PREFETCHES:          0 PREFETCH ISSUED TO LOWER LEVEL:          0  ACCURACY: -nan
PSCL2 TIMELY PREFETCHES:          0 LATE PREFETCHES: 0 DROPPED PREFETCHES: 0
PSCL2 PREFETCHES SAME FILL-ORIGIN LEVEL: 0 DIFFERENT FILL-ORIGIN LEVEL: 0

LLC TOTAL     ACCESS:    2993156  HIT:    1345089  MISS:    1648067  HIT %:    44.9388  MISS %:    55.0612   MPKI: 8.24033
LLC LOAD      ACCESS:     442189  HIT:     259086  MISS:     183103  HIT %:    58.5917  MISS %:    41.4083   MPKI: 0.915515
LLC RFO       ACCESS:     971182  HIT:      20003  MISS:     951179  HIT %:    2.05966  MISS %:    97.9403   MPKI: 4.75589
LLC PREFETCH  ACCESS:     517042  HIT:      37407  MISS:     479635  HIT %:    7.23481  MISS %:    92.7652   MPKI: 2.39817
AGUS PREFETCH L1 MISS: 0
LLC WRITEBACK ACCESS:    1039456  HIT:    1019574  MISS:      19882  HIT %:    98.0873  MISS %:    1.91273   MPKI: 0.09941
LLC LOAD TRANSLATION ACCESS:      23287  HIT:       9019  MISS:      14268  HIT %:    38.7298  MISS %:    61.2702   MPKI: 0.07134
LLC PREFETCH  REQUESTED:          0  ISSUED:          0  USEFUL:       5874  USELESS:     474256
LLC USEFUL LOAD PREFETCHES:       5874 PREFETCH ISSUED TO LOWER LEVEL:     479636  ACCURACY: 1.22468
LLC TIMELY PREFETCHES:       5874 LATE PREFETCHES: 0 DROPPED PREFETCHES: 0
LLC PREFETCHES SAME FILL-ORIGIN LEVEL: 0 DIFFERENT FILL-ORIGIN LEVEL: 0
LLC AVERAGE MISS LATENCY: 349.553 cycles
LLC RQ	ACCESS:    1436660	FORWARD:          0	MERGED:          0	TO_CACHE:    1436658
LLC WQ	ACCESS:    1039456	FORWARD:          2	MERGED:          0	TO_CACHE:    1039456
LLC PQ	ACCESS:     517043	FORWARD:          0	MERGED:          0	TO_CACHE:     517043

LLC Dense regions hint to LLC: 0

RAW hits: 879822
Loads Generated: 50798458
Loads sent to L1D: 49918635
Stores Generated: 12021210
Stores sent to L1D: 12021205
Major fault: 0 Minor fault: 6461
Allocated PAGES: 6461
CPU 0 L2C best offset prefetcher final stats

DRAM Statistics
 CHANNEL 0
 RQ ROW_BUFFER_HIT:     812122  ROW_BUFFER_MISS:     816059
 DBUS_CONGESTED:        476
 WQ ROW_BUFFER_HIT:     259868  ROW_BUFFER_MISS:     749762  FULL:          0

 AVG_CONGESTED_CYCLE: 3
 All warmup complete: 2
Channel 0 Bank busy for read cycles: 0
Channel 0 Bank busy for write cycles: 0
Channel 0
Rank 0
0banks busy for read cycles: 220231735
0banks busy for write cycles: 49107
1banks busy for read cycles: 16221025
1banks busy for write cycles: 6796766
2banks busy for read cycles: 6175592
2banks busy for write cycles: 3365056
3banks busy for read cycles: 1674634
3banks busy for write cycles: 1936254
4banks busy for read cycles: 1044881
4banks busy for write cycles: 1314444
5banks busy for read cycles: 759130
5banks busy for write cycles: 1007636
6banks busy for read cycles: 1054054
6banks busy for write cycles: 864117
7banks busy for read cycles: 2160934
7banks busy for write cycles: 1720848
8banks busy for read cycles: 13261666
8banks busy for write cycles: 15656261

CPU 0 Branch Prediction Accuracy: 99.6381% MPKI: 0.27243 Average ROB Occupancy at Mispredict: 45.1946
Branch types
NOT_BRANCH: 184943571 92.4718%
BRANCH_DIRECT_JUMP: 1417007 0.708503%
BRANCH_INDIRECT: 4725365 2.36268%
BRANCH_CONDITIONAL: 6753203 3.3766%
BRANCH_DIRECT_CALL: 958452 0.479226%
BRANCH_INDIRECT_CALL: 121813 0.0609065%
BRANCH_RETURN: 1080241 0.54012%
BRANCH_OTHER: 0 0%

DRAM PAGES: 1048576
Allocated PAGES: 6461
