
*** ChampSim Multicore Out-of-Order Simulator ***

Warmup Instructions: 50000000
Simulation Instructions: 200000000
Number of CPUs: 1
LLC sets: 2048
LLC ways: 16
Off-chip DRAM Size: 4096 MB Channels: 1 Width: 64-bit Data Rate: 6400 MT/s
CPU 0 runs traces/spec2k17/srv_56.champsimtrace.xz
.xz
BTB has LRU replacement policy
ITLB has LRU replacement policy
DTLB has LRU replacement policy
STLB has LRU replacement policy
L1I has LRU replacement policy
L1D has LRU replacement policy
CPU 0 L2C best offset prefetcher
Initialize SRRIP state for L2C
Initialize DRRIP state for LLC
Heartbeat CPU 0 instructions: 10000002 cycles: 2774576 heartbeat IPC: 3.60416 cumulative IPC: 3.60416 (Simulation time: 0 hr 0 min 37 sec) 
Heartbeat CPU 0 instructions: 20000003 cycles: 5604549 heartbeat IPC: 3.5336 cumulative IPC: 3.56853 (Simulation time: 0 hr 1 min 16 sec) 
Heartbeat CPU 0 instructions: 30000000 cycles: 8382756 heartbeat IPC: 3.59944 cumulative IPC: 3.57878 (Simulation time: 0 hr 1 min 54 sec) 
*** Reached end of trace for Core: 0 Repeating trace: traces/spec2k17/srv_56.champsimtrace.xz
Heartbeat CPU 0 instructions: 40000001 cycles: 11168560 heartbeat IPC: 3.58963 cumulative IPC: 3.58148 (Simulation time: 0 hr 2 min 33 sec) 
Heartbeat CPU 0 instructions: 50000002 cycles: 13998320 heartbeat IPC: 3.53387 cumulative IPC: 3.57186 (Simulation time: 0 hr 3 min 12 sec) 

Warmup complete CPU 0 instructions: 50000002 cycles: 13998320 (Simulation time: 0 hr 3 min 12 sec) 

Heartbeat CPU 0 instructions: 60000000 cycles: 30817582 heartbeat IPC: 0.594556 cumulative IPC: 0.594556 (Simulation time: 0 hr 4 min 1 sec) 
*** Reached end of trace for Core: 0 Repeating trace: traces/spec2k17/srv_56.champsimtrace.xz
Heartbeat CPU 0 instructions: 70000003 cycles: 48045193 heartbeat IPC: 0.580464 cumulative IPC: 0.587425 (Simulation time: 0 hr 4 min 52 sec) 
Heartbeat CPU 0 instructions: 80000002 cycles: 64337725 heartbeat IPC: 0.613778 cumulative IPC: 0.595955 (Simulation time: 0 hr 5 min 45 sec) 
Heartbeat CPU 0 instructions: 90000000 cycles: 81241492 heartbeat IPC: 0.591584 cumulative IPC: 0.594856 (Simulation time: 0 hr 6 min 31 sec) 
*** Reached end of trace for Core: 0 Repeating trace: traces/spec2k17/srv_56.champsimtrace.xz
Heartbeat CPU 0 instructions: 100000000 cycles: 98348611 heartbeat IPC: 0.584552 cumulative IPC: 0.592766 (Simulation time: 0 hr 7 min 20 sec) 
Heartbeat CPU 0 instructions: 110000000 cycles: 114359566 heartbeat IPC: 0.624572 cumulative IPC: 0.59784 (Simulation time: 0 hr 8 min 9 sec) 
Heartbeat CPU 0 instructions: 120000003 cycles: 131659842 heartbeat IPC: 0.578026 cumulative IPC: 0.594927 (Simulation time: 0 hr 8 min 57 sec) 
*** Reached end of trace for Core: 0 Repeating trace: traces/spec2k17/srv_56.champsimtrace.xz
Heartbeat CPU 0 instructions: 130000002 cycles: 148692253 heartbeat IPC: 0.587116 cumulative IPC: 0.593939 (Simulation time: 0 hr 9 min 41 sec) 
Heartbeat CPU 0 instructions: 140000002 cycles: 164878858 heartbeat IPC: 0.617795 cumulative IPC: 0.596498 (Simulation time: 0 hr 10 min 24 sec) 
Heartbeat CPU 0 instructions: 150000002 cycles: 181959467 heartbeat IPC: 0.585459 cumulative IPC: 0.595376 (Simulation time: 0 hr 11 min 11 sec) 
*** Reached end of trace for Core: 0 Repeating trace: traces/spec2k17/srv_56.champsimtrace.xz
Heartbeat CPU 0 instructions: 160000002 cycles: 198926254 heartbeat IPC: 0.589387 cumulative IPC: 0.594826 (Simulation time: 0 hr 11 min 59 sec) 
Heartbeat CPU 0 instructions: 170000000 cycles: 215337630 heartbeat IPC: 0.609333 cumulative IPC: 0.596009 (Simulation time: 0 hr 12 min 45 sec) 
Heartbeat CPU 0 instructions: 180000001 cycles: 232126839 heartbeat IPC: 0.595621 cumulative IPC: 0.595979 (Simulation time: 0 hr 13 min 35 sec) 
*** Reached end of trace for Core: 0 Repeating trace: traces/spec2k17/srv_56.champsimtrace.xz
Heartbeat CPU 0 instructions: 190000002 cycles: 249142185 heartbeat IPC: 0.587705 cumulative IPC: 0.59538 (Simulation time: 0 hr 14 min 27 sec) 
Heartbeat CPU 0 instructions: 200000001 cycles: 265753797 heartbeat IPC: 0.601988 cumulative IPC: 0.595816 (Simulation time: 0 hr 15 min 16 sec) 
Heartbeat CPU 0 instructions: 210000000 cycles: 282287949 heartbeat IPC: 0.604809 cumulative IPC: 0.59637 (Simulation time: 0 hr 16 min 7 sec) 
*** Reached end of trace for Core: 0 Repeating trace: traces/spec2k17/srv_56.champsimtrace.xz
Heartbeat CPU 0 instructions: 220000000 cycles: 299204925 heartbeat IPC: 0.591122 cumulative IPC: 0.596059 (Simulation time: 0 hr 16 min 58 sec) 
Heartbeat CPU 0 instructions: 230000000 cycles: 316137972 heartbeat IPC: 0.590561 cumulative IPC: 0.595751 (Simulation time: 0 hr 17 min 46 sec) 
Heartbeat CPU 0 instructions: 240000001 cycles: 332422445 heartbeat IPC: 0.614082 cumulative IPC: 0.596688 (Simulation time: 0 hr 18 min 24 sec) 
*** Reached end of trace for Core: 0 Repeating trace: traces/spec2k17/srv_56.champsimtrace.xz
Heartbeat CPU 0 instructions: 250000002 cycles: 349275624 heartbeat IPC: 0.59336 cumulative IPC: 0.596521 (Simulation time: 0 hr 19 min 13 sec) 
Finished CPU 0 instructions: 200000000 cycles: 335277304 cumulative IPC: 0.596521 (Simulation time: 0 hr 19 min 13 sec) 

ChampSim completed all CPUs

Region of Interest Statistics

CPU 0 cumulative IPC: 0.596521 instructions: 200000000 cycles: 335277304
ITLB TOTAL     ACCESS:   34933252  HIT:   34115710  MISS:     817542  HIT %:    97.6597  MISS %:     2.3403   MPKI: 4.08771
ITLB LOAD TRANSLATION ACCESS:   34933252  HIT:   34115710  MISS:     817542  HIT %:    97.6597  MISS %:     2.3403   MPKI: 4.08771
ITLB PREFETCH  REQUESTED:          0  ISSUED:          0  USEFUL:          0  USELESS:          0
ITLB USEFUL LOAD PREFETCHES:          0 PREFETCH ISSUED TO LOWER LEVEL:          0  ACCURACY: -nan
ITLB TIMELY PREFETCHES:          0 LATE PREFETCHES: 0 DROPPED PREFETCHES: 0
ITLB PREFETCHES SAME FILL-ORIGIN LEVEL: 0 DIFFERENT FILL-ORIGIN LEVEL: 0
ITLB AVERAGE MISS LATENCY: 9.3338 cycles
ITLB RQ	ACCESS:   39788013	FORWARD:          0	MERGED:    4573550	TO_CACHE:   35214463

DTLB TOTAL     ACCESS:   40084599  HIT:   39184755  MISS:     899844  HIT %:    97.7551  MISS %:    2.24486   MPKI: 4.49922
DTLB LOAD TRANSLATION ACCESS:   40084599  HIT:   39184755  MISS:     899844  HIT %:    97.7551  MISS %:    2.24486   MPKI: 4.49922
DTLB PREFETCH  REQUESTED:          0  ISSUED:          0  USEFUL:          0  USELESS:          0
DTLB USEFUL LOAD PREFETCHES:          0 PREFETCH ISSUED TO LOWER LEVEL:          0  ACCURACY: -nan
DTLB TIMELY PREFETCHES:          0 LATE PREFETCHES: 0 DROPPED PREFETCHES: 0
DTLB PREFETCHES SAME FILL-ORIGIN LEVEL: 0 DIFFERENT FILL-ORIGIN LEVEL: 0
DTLB AVERAGE MISS LATENCY: 15.0557 cycles
DTLB RQ	ACCESS:   54921728	FORWARD:          0	MERGED:   14787121	TO_CACHE:   40134607

STLB TOTAL     ACCESS:    1717386  HIT:    1664290  MISS:      53096  HIT %:    96.9083  MISS %:    3.09168   MPKI: 0.26548
STLB LOAD TRANSLATION ACCESS:    1717386  HIT:    1664290  MISS:      53096  HIT %:    96.9083  MISS %:    3.09168   MPKI: 0.26548
STLB PREFETCH  REQUESTED:          0  ISSUED:          0  USEFUL:          0  USELESS:          0
STLB USEFUL LOAD PREFETCHES:          0 PREFETCH ISSUED TO LOWER LEVEL:          0  ACCURACY: -nan
STLB TIMELY PREFETCHES:          0 LATE PREFETCHES: 0 DROPPED PREFETCHES: 0
STLB PREFETCHES SAME FILL-ORIGIN LEVEL: 0 DIFFERENT FILL-ORIGIN LEVEL: 0
STLB AVERAGE MISS LATENCY: 107.658 cycles
STLB RQ	ACCESS:    1717386	FORWARD:          0	MERGED:          0	TO_CACHE:    1717386

STLB Hit, L1D data hit: 0
STLB Hit, L2C data hit: 0
STLB Hit, LLC data hit: 0
STLB Hit, LLC data miss: 0
STLB STLB hints to L2: 0
L1D TOTAL     ACCESS:   54391044  HIT:   53095898  MISS:    1295146  HIT %:    97.6188  MISS %:    2.38118   MPKI: 6.47573
L1D LOAD      ACCESS:   33233731  HIT:   32287735  MISS:     945996  HIT %:    97.1535  MISS %:    2.84649   MPKI: 4.72998
L1D RFO       ACCESS:   21157313  HIT:   20808163  MISS:     349150  HIT %:    98.3497  MISS %:    1.65026   MPKI: 1.74575
L1D PREFETCH  REQUESTED:          0  ISSUED:          0  USEFUL:          0  USELESS:          0
L1D USEFUL LOAD PREFETCHES:          0 PREFETCH ISSUED TO LOWER LEVEL:          0  ACCURACY: -nan
L1D TIMELY PREFETCHES:          0 LATE PREFETCHES: 0 DROPPED PREFETCHES: 0
L1D PREFETCHES SAME FILL-ORIGIN LEVEL: 0 DIFFERENT FILL-ORIGIN LEVEL: 0
L1D AVERAGE MISS LATENCY: 34.8723 cycles
L1D RQ	ACCESS:   47512812	FORWARD:          0	MERGED:   13958013	TO_CACHE:   33280971
L1D WQ	ACCESS:   21914197	FORWARD:     273828	MERGED:     273440	TO_CACHE:   21640757

L1D UNIQUE REGIONS ACCESSED: 0
L1D REGIONS CONFLICTS: 0
L1D Cross Page Prefetch Requests: 0
L1D Same Page Prefetch Requests: 0
L1D ROI Sum of L1D PQ occupancy: 0
L1D PREFETCHES PUSHED FROM L2C: 0
L1I TOTAL     ACCESS:   39319507  HIT:   36679746  MISS:    2639761  HIT %:    93.2864  MISS %:    6.71362   MPKI: 13.1988
L1I LOAD      ACCESS:   39319507  HIT:   36679746  MISS:    2639761  HIT %:    93.2864  MISS %:    6.71362   MPKI: 13.1988
L1I PREFETCH  REQUESTED:          0  ISSUED:          0  USEFUL:          0  USELESS:          0
L1I USEFUL LOAD PREFETCHES:          0 PREFETCH ISSUED TO LOWER LEVEL:          0  ACCURACY: -nan
L1I TIMELY PREFETCHES:          0 LATE PREFETCHES: 0 DROPPED PREFETCHES: 0
L1I PREFETCHES SAME FILL-ORIGIN LEVEL: 0 DIFFERENT FILL-ORIGIN LEVEL: 0
L1I AVERAGE MISS LATENCY: 17.8549 cycles
L1I RQ	ACCESS:   62196900	FORWARD:          0	MERGED:   22408887	TO_CACHE:   39788013

BTB TOTAL     ACCESS:   32613613  HIT:   28976968  MISS:    3636645  HIT %:    88.8493  MISS %:    11.1507   MPKI: 18.1832
BTB BRANCH_DIRECT_JUMP	ACCESS:    3424496  HIT:    3239376  MISS:     185120
BTB BRANCH_INDIRECT	ACCESS:   12879305  HIT:   11560314  MISS:    1318991
BTB BRANCH_CONDITIONAL	ACCESS:    8936157  HIT:    8698809  MISS:     237348
BTB BRANCH_DIRECT_CALL	ACCESS:    2777775  HIT:    2446309  MISS:     331466
BTB BRANCH_INDIRECT_CALL	ACCESS:     909063  HIT:     766967  MISS:     142096
BTB BRANCH_RETURN	ACCESS:    3686817  HIT:    2265193  MISS:    1421624
BTB BRANCH_OTHER ACCESS:          0  HIT:          0  MISS:          0

L2C TOTAL     ACCESS:    4815518  HIT:    3968117  MISS:     847401  HIT %:    82.4027  MISS %:    17.5973   MPKI: 4.237
L2C LOAD      ACCESS:    3585749  HIT:    3038113  MISS:     547636  HIT %:    84.7274  MISS %:    15.2726   MPKI: 2.73818
L2C DATA LOAD MPKI: 1.18795
L2C INSTRUCTION LOAD MPKI: 1.55024
L2C RFO       ACCESS:     349150  HIT:     265697  MISS:      83453  HIT %:    76.0982  MISS %:    23.9018   MPKI: 0.417265
L2C PREFETCH  ACCESS:     212474  HIT:      49794  MISS:     162680  HIT %:    23.4353  MISS %:    76.5647   MPKI: 0.8134
AGUS PREFETCH L1 MISS: 0
L2C DATA PREFETCH MPKI: 0.8134
L2C INSTRUCTION PREFETCH MPKI: 0
L2C WRITEBACK ACCESS:     570005  HIT:     555417  MISS:      14588  HIT %:    97.4407  MISS %:    2.55928   MPKI: 0.07294
L2C LOAD TRANSLATION ACCESS:      98140  HIT:      59096  MISS:      39044  HIT %:     60.216  MISS %:     39.784   MPKI: 0.19522
L2C PREFETCH  REQUESTED:     223382  ISSUED:     223382  USEFUL:      16591  USELESS:     146006
L2C USEFUL LOAD PREFETCHES:      16591 PREFETCH ISSUED TO LOWER LEVEL:     166673  ACCURACY: 9.95422
L2C TIMELY PREFETCHES:      16591 LATE PREFETCHES: 3993 DROPPED PREFETCHES: 0
L2C PREFETCHES SAME FILL-ORIGIN LEVEL: 166673 DIFFERENT FILL-ORIGIN LEVEL: 0
L2C AVERAGE MISS LATENCY: 71.0096 cycles
L2C RQ	ACCESS:    4033047	FORWARD:          0	MERGED:          0	TO_CACHE:    4033039
L2C WQ	ACCESS:     570005	FORWARD:          8	MERGED:          0	TO_CACHE:     570005
L2C PQ	ACCESS:     223382	FORWARD:          0	MERGED:          1	TO_CACHE:     223381

L2C Instructions Evicting Data 140937
L2C Translations Evicting Data 28993
L2C Data Evicting Data 321172
L2C Instructions Evicting Instructions 161746
L2C Translations Evicting Instructions 6562
L2C Data Evicting Instructions 134914
L2C Instructions Evicting Translations 7364
L2C Translations Evicting Translations 3489
L2C Data Evicting Translations 27636
L2C Dense regions hint from L2: 0
PSCL5 TOTAL     ACCESS:      53096  HIT:      53096  MISS:          0  HIT %:        100  MISS %:          0   MPKI: 0
PSCL5 LOAD TRANSLATION ACCESS:      53096  HIT:      53096  MISS:          0  HIT %:        100  MISS %:          0   MPKI: 0
PSCL5 PREFETCH  REQUESTED:          0  ISSUED:          0  USEFUL:          0  USELESS:          0
PSCL5 USEFUL LOAD PREFETCHES:          0 PREFETCH ISSUED TO LOWER LEVEL:          0  ACCURACY: -nan
PSCL5 TIMELY PREFETCHES:          0 LATE PREFETCHES: 0 DROPPED PREFETCHES: 0
PSCL5 PREFETCHES SAME FILL-ORIGIN LEVEL: 0 DIFFERENT FILL-ORIGIN LEVEL: 0

PSCL4 TOTAL     ACCESS:      52675  HIT:      52544  MISS:        131  HIT %:    99.7513  MISS %:   0.248695   MPKI: 0.000655
PSCL4 LOAD TRANSLATION ACCESS:      52675  HIT:      52544  MISS:        131  HIT %:    99.7513  MISS %:   0.248695   MPKI: 0.000655
PSCL4 PREFETCH  REQUESTED:          0  ISSUED:          0  USEFUL:          0  USELESS:          0
PSCL4 USEFUL LOAD PREFETCHES:          0 PREFETCH ISSUED TO LOWER LEVEL:          0  ACCURACY: -nan
PSCL4 TIMELY PREFETCHES:          0 LATE PREFETCHES: 0 DROPPED PREFETCHES: 0
PSCL4 PREFETCHES SAME FILL-ORIGIN LEVEL: 0 DIFFERENT FILL-ORIGIN LEVEL: 0

PSCL3 TOTAL     ACCESS:      51280  HIT:      37086  MISS:      14194  HIT %:    72.3206  MISS %:    27.6794   MPKI: 0.07097
PSCL3 LOAD TRANSLATION ACCESS:      51280  HIT:      37086  MISS:      14194  HIT %:    72.3206  MISS %:    27.6794   MPKI: 0.07097
PSCL3 PREFETCH  REQUESTED:          0  ISSUED:          0  USEFUL:          0  USELESS:          0
PSCL3 USEFUL LOAD PREFETCHES:          0 PREFETCH ISSUED TO LOWER LEVEL:          0  ACCURACY: -nan
PSCL3 TIMELY PREFETCHES:          0 LATE PREFETCHES: 0 DROPPED PREFETCHES: 0
PSCL3 PREFETCHES SAME FILL-ORIGIN LEVEL: 0 DIFFERENT FILL-ORIGIN LEVEL: 0

PSCL2 TOTAL     ACCESS:      53096  HIT:      22377  MISS:      30719  HIT %:    42.1444  MISS %:    57.8556   MPKI: 0.153595
PSCL2 LOAD TRANSLATION ACCESS:      53096  HIT:      22377  MISS:      30719  HIT %:    42.1444  MISS %:    57.8556   MPKI: 0.153595
PSCL2 PREFETCH  REQUESTED:          0  ISSUED:          0  USEFUL:          0  USELESS:          0
PSCL2 USEFUL LOAD PREFETCHES:          0 PREFETCH ISSUED TO LOWER LEVEL:          0  ACCURACY: -nan
PSCL2 TIMELY PREFETCHES:          0 LATE PREFETCHES: 0 DROPPED PREFETCHES: 0
PSCL2 PREFETCHES SAME FILL-ORIGIN LEVEL: 0 DIFFERENT FILL-ORIGIN LEVEL: 0

LLC TOTAL     ACCESS:     972320  HIT:     714329  MISS:     257991  HIT %:    73.4665  MISS %:    26.5335   MPKI: 1.28995
LLC LOAD      ACCESS:     543678  HIT:     437530  MISS:     106148  HIT %:    80.4759  MISS %:    19.5241   MPKI: 0.53074
LLC RFO       ACCESS:      83419  HIT:      62950  MISS:      20469  HIT %:    75.4624  MISS %:    24.5376   MPKI: 0.102345
LLC PREFETCH  ACCESS:     166673  HIT:      52408  MISS:     114265  HIT %:    31.4436  MISS %:    68.5564   MPKI: 0.571325
AGUS PREFETCH L1 MISS: 0
LLC WRITEBACK ACCESS:     139507  HIT:     137905  MISS:       1602  HIT %:    98.8517  MISS %:    1.14833   MPKI: 0.00801
LLC LOAD TRANSLATION ACCESS:      39043  HIT:      23536  MISS:      15507  HIT %:    60.2823  MISS %:    39.7177   MPKI: 0.077535
LLC PREFETCH  REQUESTED:          0  ISSUED:          0  USEFUL:       1510  USELESS:     114115
LLC USEFUL LOAD PREFETCHES:       1510 PREFETCH ISSUED TO LOWER LEVEL:     114265  ACCURACY: 1.32149
LLC TIMELY PREFETCHES:       1510 LATE PREFETCHES: 0 DROPPED PREFETCHES: 0
LLC PREFETCHES SAME FILL-ORIGIN LEVEL: 0 DIFFERENT FILL-ORIGIN LEVEL: 0
LLC AVERAGE MISS LATENCY: 136.808 cycles
LLC RQ	ACCESS:     666140	FORWARD:          0	MERGED:          0	TO_CACHE:     666140
LLC WQ	ACCESS:     139507	FORWARD:          0	MERGED:          0	TO_CACHE:     139507
LLC PQ	ACCESS:     166673	FORWARD:          0	MERGED:          0	TO_CACHE:     166673

LLC Dense regions hint to LLC: 0

RAW hits: 2475574
Loads Generated: 49988386
Loads sent to L1D: 47512812
Stores Generated: 21914186
Stores sent to L1D: 21914197
Major fault: 0 Minor fault: 6990
Allocated PAGES: 6990
CPU 0 L2C best offset prefetcher final stats

DRAM Statistics
 CHANNEL 0
 RQ ROW_BUFFER_HIT:     111754  ROW_BUFFER_MISS:     144628
 DBUS_CONGESTED:        316
 WQ ROW_BUFFER_HIT:       8650  ROW_BUFFER_MISS:      41079  FULL:          0

 AVG_CONGESTED_CYCLE: 5
 All warmup complete: 2
Channel 0 Bank busy for read cycles: 0
Channel 0 Bank busy for write cycles: 0
Channel 0
Rank 0
0banks busy for read cycles: 313749030
0banks busy for write cycles: 27767
1banks busy for read cycles: 8818858
1banks busy for write cycles: 4018261
2banks busy for read cycles: 3905135
2banks busy for write cycles: 1318204
3banks busy for read cycles: 1270722
3banks busy for write cycles: 418384
4banks busy for read cycles: 825057
4banks busy for write cycles: 137463
5banks busy for read cycles: 247258
5banks busy for write cycles: 57226
6banks busy for read cycles: 189716
6banks busy for write cycles: 37659
7banks busy for read cycles: 92985
7banks busy for write cycles: 37183
8banks busy for read cycles: 64887
8banks busy for write cycles: 61510

CPU 0 Branch Prediction Accuracy: 99.8177% MPKI: 0.34573 Average ROB Occupancy at Mispredict: 34.7971
Branch types
NOT_BRANCH: 162062285 81.0311%
BRANCH_DIRECT_JUMP: 3424496 1.71225%
BRANCH_INDIRECT: 12879305 6.43965%
BRANCH_CONDITIONAL: 14259908 7.12995%
BRANCH_DIRECT_CALL: 2777775 1.38889%
BRANCH_INDIRECT_CALL: 909063 0.454531%
BRANCH_RETURN: 3686817 1.84341%
BRANCH_OTHER: 0 0%

DRAM PAGES: 1048576
Allocated PAGES: 6990
