
*** ChampSim Multicore Out-of-Order Simulator ***

Warmup Instructions: 50000000
Simulation Instructions: 200000000
Number of CPUs: 1
LLC sets: 2048
LLC ways: 16
Off-chip DRAM Size: 4096 MB Channels: 1 Width: 64-bit Data Rate: 6400 MT/s
CPU 0 runs traces/spec2k17/server_031.champsimtrace.xz
.xz
BTB has LRU replacement policy
ITLB has LRU replacement policy
DTLB has LRU replacement policy
STLB has LRU replacement policy
L1I has LRU replacement policy
L1D has LRU replacement policy
Initialize SRRIP state for L2C
Initialize DRRIP state for LLC
Heartbeat CPU 0 instructions: 10000000 cycles: 2838333 heartbeat IPC: 3.52319 cumulative IPC: 3.52319 (Simulation time: 0 hr 0 min 38 sec) 
Heartbeat CPU 0 instructions: 20000000 cycles: 5672531 heartbeat IPC: 3.52834 cumulative IPC: 3.52576 (Simulation time: 0 hr 1 min 16 sec) 
Heartbeat CPU 0 instructions: 30000002 cycles: 8511029 heartbeat IPC: 3.52299 cumulative IPC: 3.52484 (Simulation time: 0 hr 1 min 56 sec) 
Heartbeat CPU 0 instructions: 40000003 cycles: 11355500 heartbeat IPC: 3.51559 cumulative IPC: 3.52252 (Simulation time: 0 hr 2 min 27 sec) 
Heartbeat CPU 0 instructions: 50000002 cycles: 14206447 heartbeat IPC: 3.50761 cumulative IPC: 3.51953 (Simulation time: 0 hr 2 min 58 sec) 

Warmup complete CPU 0 instructions: 50000002 cycles: 14206447 (Simulation time: 0 hr 2 min 58 sec) 

Heartbeat CPU 0 instructions: 60000003 cycles: 47355298 heartbeat IPC: 0.30167 cumulative IPC: 0.30167 (Simulation time: 0 hr 4 min 5 sec) 
Heartbeat CPU 0 instructions: 70000001 cycles: 80738894 heartbeat IPC: 0.299548 cumulative IPC: 0.300605 (Simulation time: 0 hr 5 min 7 sec) 
Heartbeat CPU 0 instructions: 80000001 cycles: 112935365 heartbeat IPC: 0.310593 cumulative IPC: 0.303862 (Simulation time: 0 hr 5 min 56 sec) 
*** Reached end of trace for Core: 0 Repeating trace: traces/spec2k17/server_031.champsimtrace.xz
Heartbeat CPU 0 instructions: 90000003 cycles: 145785526 heartbeat IPC: 0.304413 cumulative IPC: 0.304 (Simulation time: 0 hr 6 min 52 sec) 
Heartbeat CPU 0 instructions: 100000000 cycles: 178493010 heartbeat IPC: 0.30574 cumulative IPC: 0.304346 (Simulation time: 0 hr 7 min 56 sec) 
Heartbeat CPU 0 instructions: 110000000 cycles: 211381812 heartbeat IPC: 0.304055 cumulative IPC: 0.304298 (Simulation time: 0 hr 9 min 4 sec) 
Heartbeat CPU 0 instructions: 120000002 cycles: 243909336 heartbeat IPC: 0.307432 cumulative IPC: 0.304742 (Simulation time: 0 hr 10 min 10 sec) 
Heartbeat CPU 0 instructions: 130000000 cycles: 276597725 heartbeat IPC: 0.305919 cumulative IPC: 0.304888 (Simulation time: 0 hr 11 min 22 sec) 
Heartbeat CPU 0 instructions: 140000003 cycles: 309052614 heartbeat IPC: 0.30812 cumulative IPC: 0.305244 (Simulation time: 0 hr 12 min 29 sec) 
Heartbeat CPU 0 instructions: 150000001 cycles: 342035123 heartbeat IPC: 0.303191 cumulative IPC: 0.305037 (Simulation time: 0 hr 13 min 35 sec) 
Heartbeat CPU 0 instructions: 160000000 cycles: 374202693 heartbeat IPC: 0.310872 cumulative IPC: 0.305559 (Simulation time: 0 hr 14 min 43 sec) 
*** Reached end of trace for Core: 0 Repeating trace: traces/spec2k17/server_031.champsimtrace.xz
Heartbeat CPU 0 instructions: 170000000 cycles: 406733266 heartbeat IPC: 0.307403 cumulative IPC: 0.305712 (Simulation time: 0 hr 15 min 50 sec) 
Heartbeat CPU 0 instructions: 180000000 cycles: 439379021 heartbeat IPC: 0.306319 cumulative IPC: 0.305758 (Simulation time: 0 hr 16 min 49 sec) 
Heartbeat CPU 0 instructions: 190000000 cycles: 472133649 heartbeat IPC: 0.3053 cumulative IPC: 0.305725 (Simulation time: 0 hr 17 min 45 sec) 
Heartbeat CPU 0 instructions: 200000001 cycles: 504742052 heartbeat IPC: 0.306669 cumulative IPC: 0.305788 (Simulation time: 0 hr 18 min 45 sec) 
Heartbeat CPU 0 instructions: 210000001 cycles: 537197436 heartbeat IPC: 0.308115 cumulative IPC: 0.305933 (Simulation time: 0 hr 19 min 41 sec) 
Heartbeat CPU 0 instructions: 220000000 cycles: 569743401 heartbeat IPC: 0.307258 cumulative IPC: 0.30601 (Simulation time: 0 hr 20 min 40 sec) 
Heartbeat CPU 0 instructions: 230000000 cycles: 602499023 heartbeat IPC: 0.305291 cumulative IPC: 0.30597 (Simulation time: 0 hr 21 min 41 sec) 
Heartbeat CPU 0 instructions: 240000000 cycles: 634934488 heartbeat IPC: 0.308305 cumulative IPC: 0.306092 (Simulation time: 0 hr 22 min 45 sec) 
*** Reached end of trace for Core: 0 Repeating trace: traces/spec2k17/server_031.champsimtrace.xz
Heartbeat CPU 0 instructions: 250000000 cycles: 667266992 heartbeat IPC: 0.309286 cumulative IPC: 0.30625 (Simulation time: 0 hr 23 min 54 sec) 
Finished CPU 0 instructions: 200000003 cycles: 653060578 cumulative IPC: 0.30625 (Simulation time: 0 hr 23 min 54 sec) 

ChampSim completed all CPUs

Region of Interest Statistics

CPU 0 cumulative IPC: 0.30625 instructions: 200000003 cycles: 653060578
ITLB TOTAL     ACCESS:   35265386  HIT:   33001255  MISS:    2264131  HIT %:    93.5797  MISS %:    6.42026   MPKI: 11.3207
ITLB LOAD TRANSLATION ACCESS:   35265386  HIT:   33001255  MISS:    2264131  HIT %:    93.5797  MISS %:    6.42026   MPKI: 11.3207
ITLB PREFETCH  REQUESTED:          0  ISSUED:          0  USEFUL:          0  USELESS:          0
ITLB USEFUL LOAD PREFETCHES:          0 PREFETCH ISSUED TO LOWER LEVEL:          0  ACCURACY: -nan
ITLB TIMELY PREFETCHES:          0 LATE PREFETCHES: 0 DROPPED PREFETCHES: 0
ITLB PREFETCHES SAME FILL-ORIGIN LEVEL: 0 DIFFERENT FILL-ORIGIN LEVEL: 0
ITLB AVERAGE MISS LATENCY: 9.17207 cycles
ITLB RQ	ACCESS:   41639219	FORWARD:          0	MERGED:    5830588	TO_CACHE:   35808631

DTLB TOTAL     ACCESS:   46168097  HIT:   44023576  MISS:    2144521  HIT %:     95.355  MISS %:    4.64503   MPKI: 10.7226
DTLB LOAD TRANSLATION ACCESS:   46168097  HIT:   44023576  MISS:    2144521  HIT %:     95.355  MISS %:    4.64503   MPKI: 10.7226
DTLB PREFETCH  REQUESTED:          0  ISSUED:          0  USEFUL:          0  USELESS:          0
DTLB USEFUL LOAD PREFETCHES:          0 PREFETCH ISSUED TO LOWER LEVEL:          0  ACCURACY: -nan
DTLB TIMELY PREFETCHES:          0 LATE PREFETCHES: 0 DROPPED PREFETCHES: 0
DTLB PREFETCHES SAME FILL-ORIGIN LEVEL: 0 DIFFERENT FILL-ORIGIN LEVEL: 0
DTLB AVERAGE MISS LATENCY: 9.50262 cycles
DTLB RQ	ACCESS:   60980744	FORWARD:          0	MERGED:   14751250	TO_CACHE:   46229494

STLB TOTAL     ACCESS:   23598713  HIT:   23541244  MISS:      57469  HIT %:    99.7565  MISS %:   0.243526   MPKI: 0.287345
STLB LOAD TRANSLATION ACCESS:    4408652  HIT:    4353279  MISS:      55373  HIT %:     98.744  MISS %:    1.25601   MPKI: 0.276865
STLB TRANSLATION FROM L1D PREFETCHER ACCESS:   19190061  HIT:   19187965  MISS:       2096  HIT %:    99.9891  MISS %:  0.0109223   MPKI: 0.01048
STLB PREFETCH  REQUESTED:          0  ISSUED:          0  USEFUL:       1858  USELESS:        237
STLB USEFUL LOAD PREFETCHES:       1858 PREFETCH ISSUED TO LOWER LEVEL:          0  ACCURACY: inf
STLB TIMELY PREFETCHES:       1858 LATE PREFETCHES: 721 DROPPED PREFETCHES: 311720
STLB PREFETCHES SAME FILL-ORIGIN LEVEL: 0 DIFFERENT FILL-ORIGIN LEVEL: 0
STLB AVERAGE MISS LATENCY: 57.7334 cycles
STLB RQ	ACCESS:   27976911	FORWARD:          0	MERGED:    4064944	TO_CACHE:   23911967

STLB Hit, L1D data hit: 0
STLB Hit, L2C data hit: 0
STLB Hit, LLC data hit: 0
STLB Hit, LLC data miss: 0
STLB STLB hints to L2: 0
L1D TOTAL     ACCESS:   81234729  HIT:   75850678  MISS:    5384051  HIT %:    93.3722  MISS %:    6.62777   MPKI: 26.9203
L1D LOAD      ACCESS:   33979777  HIT:   31384933  MISS:    2594844  HIT %:    92.3636  MISS %:    7.63644   MPKI: 12.9742
L1D RFO       ACCESS:   25305960  HIT:   24227111  MISS:    1078849  HIT %:    95.7368  MISS %:    4.26322   MPKI: 5.39424
L1D PREFETCH  ACCESS:   21948992  HIT:   20238634  MISS:    1710358  HIT %:    92.2076  MISS %:    7.79242   MPKI: 8.55179
AGUS PREFETCH L1 MISS: 0
L1D PREFETCH  REQUESTED:   49011304  ISSUED:   49011157  USEFUL:    1202998  USELESS:     507325
L1D USEFUL LOAD PREFETCHES:    1202998 PREFETCH ISSUED TO LOWER LEVEL:    2343088  ACCURACY: 51.3424
L1D TIMELY PREFETCHES:    1202998 LATE PREFETCHES: 624951 DROPPED PREFETCHES: 347534
L1D PREFETCHES SAME FILL-ORIGIN LEVEL: 2343088 DIFFERENT FILL-ORIGIN LEVEL: 0
L1D AVERAGE MISS LATENCY: 4.33366e+07 cycles
L1D RQ	ACCESS:   46643223	FORWARD:          0	MERGED:   12245109	TO_CACHE:   34076357
L1D WQ	ACCESS:   27052930	FORWARD:     357797	MERGED:     148543	TO_CACHE:   26904387
L1D PQ	ACCESS:   25442899	FORWARD:          0	MERGED:    1838601	TO_CACHE:   23568258

L1D UNIQUE REGIONS ACCESSED: 0
L1D REGIONS CONFLICTS: 0
L1D Cross Page Prefetch Requests: 17408160
L1D Same Page Prefetch Requests: 9613384
L1D ROI Sum of L1D PQ occupancy: 331949056
L1D PREFETCHES PUSHED FROM L2C: 0
L1I TOTAL     ACCESS:   39957860  HIT:   28456413  MISS:   11501447  HIT %:    71.2161  MISS %:    28.7839   MPKI: 57.5072
L1I LOAD      ACCESS:   39957860  HIT:   28456413  MISS:   11501447  HIT %:    71.2161  MISS %:    28.7839   MPKI: 57.5072
L1I PREFETCH  REQUESTED:          0  ISSUED:          0  USEFUL:          0  USELESS:          0
L1I USEFUL LOAD PREFETCHES:          0 PREFETCH ISSUED TO LOWER LEVEL:          0  ACCURACY: -nan
L1I TIMELY PREFETCHES:          0 LATE PREFETCHES: 0 DROPPED PREFETCHES: 0
L1I PREFETCHES SAME FILL-ORIGIN LEVEL: 0 DIFFERENT FILL-ORIGIN LEVEL: 0
L1I AVERAGE MISS LATENCY: 15.7544 cycles
L1I RQ	ACCESS:   58736772	FORWARD:          0	MERGED:   17097553	TO_CACHE:   41639219

BTB TOTAL     ACCESS:   30618909  HIT:   17904735  MISS:   12714174  HIT %:    58.4761  MISS %:    41.5239   MPKI: 63.5709
BTB BRANCH_DIRECT_JUMP	ACCESS:    2097826  HIT:    1276069  MISS:     821757
BTB BRANCH_INDIRECT	ACCESS:   12319460  HIT:    7406288  MISS:    4913172
BTB BRANCH_CONDITIONAL	ACCESS:    6937859  HIT:    5651432  MISS:    1286427
BTB BRANCH_DIRECT_CALL	ACCESS:    3904059  HIT:    1837298  MISS:    2066761
BTB BRANCH_INDIRECT_CALL	ACCESS:     727840  HIT:     354479  MISS:     373361
BTB BRANCH_RETURN	ACCESS:    4631865  HIT:    1379169  MISS:    3252696
BTB BRANCH_OTHER ACCESS:          0  HIT:          0  MISS:          0

L2C TOTAL     ACCESS:   19745563  HIT:   18530590  MISS:    1214973  HIT %:    93.8469  MISS %:    6.15314   MPKI: 6.07486
L2C LOAD      ACCESS:   13471307  HIT:   12576264  MISS:     895043  HIT %:    93.3559  MISS %:    6.64407   MPKI: 4.47521
L2C DATA LOAD MPKI: 1.37427
L2C INSTRUCTION LOAD MPKI: 3.10094
L2C RFO       ACCESS:    1071067  HIT:     992554  MISS:      78513  HIT %:    92.6696  MISS %:    7.33035   MPKI: 0.392565
L2C PREFETCH  ACCESS:    2343055  HIT:    2191128  MISS:     151927  HIT %:    93.5159  MISS %:    6.48414   MPKI: 0.759635
AGUS PREFETCH L1 MISS: 0
L2C DATA PREFETCH MPKI: 0.759635
L2C INSTRUCTION PREFETCH MPKI: 0
L2C WRITEBACK ACCESS:    2264622  HIT:    2238625  MISS:      25997  HIT %:     98.852  MISS %:    1.14796   MPKI: 0.129985
L2C LOAD TRANSLATION ACCESS:      82232  HIT:      44834  MISS:      37398  HIT %:    54.5214  MISS %:    45.4786   MPKI: 0.18699
L2C TRANSLATION FROM L1D PREFETCHER ACCESS:     513280  HIT:     487185  MISS:      26095  HIT %:     94.916  MISS %:    5.08397   MPKI: 0.130475
L2C PREFETCH  REQUESTED:          0  ISSUED:          0  USEFUL:      20173  USELESS:     157829
L2C USEFUL LOAD PREFETCHES:      20173 PREFETCH ISSUED TO LOWER LEVEL:     151927  ACCURACY: 13.2781
L2C TIMELY PREFETCHES:      20173 LATE PREFETCHES: 0 DROPPED PREFETCHES: 0
L2C PREFETCHES SAME FILL-ORIGIN LEVEL: 0 DIFFERENT FILL-ORIGIN LEVEL: 0
L2C AVERAGE MISS LATENCY: 45.0583 cycles
L2C RQ	ACCESS:   15137923	FORWARD:          0	MERGED:          0	TO_CACHE:   15137887
L2C WQ	ACCESS:    2264622	FORWARD:         69	MERGED:          0	TO_CACHE:    2264622
L2C PQ	ACCESS:    2343088	FORWARD:          0	MERGED:          0	TO_CACHE:    2343055

L2C Instructions Evicting Data 199567
L2C Translations Evicting Data 40901
L2C Data Evicting Data 279322
L2C Instructions Evicting Instructions 404087
L2C Translations Evicting Instructions 16525
L2C Data Evicting Instructions 186082
L2C Instructions Evicting Translations 16534
L2C Translations Evicting Translations 6067
L2C Data Evicting Translations 39891
L2C Dense regions hint from L2: 0
PSCL5 TOTAL     ACCESS:     367294  HIT:     367294  MISS:          0  HIT %:        100  MISS %:          0   MPKI: 0
PSCL5 LOAD TRANSLATION ACCESS:      54670  HIT:      54670  MISS:          0  HIT %:        100  MISS %:          0   MPKI: 0
PSCL5 TRANSLATION FROM L1D PREFETCHER ACCESS:     312624  HIT:     312624  MISS:          0  HIT %:        100  MISS %:          0   MPKI: 0
PSCL5 PREFETCH  REQUESTED:          0  ISSUED:          0  USEFUL:          0  USELESS:          0
PSCL5 USEFUL LOAD PREFETCHES:          0 PREFETCH ISSUED TO LOWER LEVEL:          0  ACCURACY: -nan
PSCL5 TIMELY PREFETCHES:          0 LATE PREFETCHES: 0 DROPPED PREFETCHES: 0
PSCL5 PREFETCHES SAME FILL-ORIGIN LEVEL: 0 DIFFERENT FILL-ORIGIN LEVEL: 0

PSCL4 TOTAL     ACCESS:     254944  HIT:     254286  MISS:        658  HIT %:    99.7419  MISS %:   0.258096   MPKI: 0.00329
PSCL4 LOAD TRANSLATION ACCESS:      51549  HIT:      50891  MISS:        658  HIT %:    98.7235  MISS %:    1.27646   MPKI: 0.00329
PSCL4 TRANSLATION FROM L1D PREFETCHER ACCESS:     203395  HIT:     203395  MISS:          0  HIT %:        100  MISS %:          0   MPKI: 0
PSCL4 PREFETCH  REQUESTED:          0  ISSUED:          0  USEFUL:          0  USELESS:          0
PSCL4 USEFUL LOAD PREFETCHES:          0 PREFETCH ISSUED TO LOWER LEVEL:          0  ACCURACY: -nan
PSCL4 TIMELY PREFETCHES:          0 LATE PREFETCHES: 0 DROPPED PREFETCHES: 0
PSCL4 PREFETCHES SAME FILL-ORIGIN LEVEL: 0 DIFFERENT FILL-ORIGIN LEVEL: 0

PSCL3 TOTAL     ACCESS:     309601  HIT:     308934  MISS:        667  HIT %:    99.7846  MISS %:   0.215439   MPKI: 0.003335
PSCL3 LOAD TRANSLATION ACCESS:      54601  HIT:      53934  MISS:        667  HIT %:    98.7784  MISS %:    1.22159   MPKI: 0.003335
PSCL3 TRANSLATION FROM L1D PREFETCHER ACCESS:     255000  HIT:     255000  MISS:          0  HIT %:        100  MISS %:          0   MPKI: 0
PSCL3 PREFETCH  REQUESTED:          0  ISSUED:          0  USEFUL:          0  USELESS:          0
PSCL3 USEFUL LOAD PREFETCHES:          0 PREFETCH ISSUED TO LOWER LEVEL:          0  ACCURACY: -nan
PSCL3 TIMELY PREFETCHES:          0 LATE PREFETCHES: 0 DROPPED PREFETCHES: 0
PSCL3 PREFETCHES SAME FILL-ORIGIN LEVEL: 0 DIFFERENT FILL-ORIGIN LEVEL: 0

PSCL2 TOTAL     ACCESS:      84688  HIT:      56373  MISS:      28315  HIT %:    66.5655  MISS %:    33.4345   MPKI: 0.141575
PSCL2 LOAD TRANSLATION ACCESS:      56505  HIT:      28190  MISS:      28315  HIT %:    49.8894  MISS %:    50.1106   MPKI: 0.141575
PSCL2 TRANSLATION FROM L1D PREFETCHER ACCESS:      28183  HIT:      28183  MISS:          0  HIT %:        100  MISS %:          0   MPKI: 0
PSCL2 PREFETCH  REQUESTED:          0  ISSUED:          0  USEFUL:          0  USELESS:          0
PSCL2 USEFUL LOAD PREFETCHES:          0 PREFETCH ISSUED TO LOWER LEVEL:          0  ACCURACY: -nan
PSCL2 TIMELY PREFETCHES:          0 LATE PREFETCHES: 0 DROPPED PREFETCHES: 0
PSCL2 PREFETCHES SAME FILL-ORIGIN LEVEL: 0 DIFFERENT FILL-ORIGIN LEVEL: 0

LLC TOTAL     ACCESS:    1302033  HIT:    1165374  MISS:     136659  HIT %:    89.5042  MISS %:    10.4958   MPKI: 0.683295
LLC LOAD      ACCESS:     895043  HIT:     799524  MISS:      95519  HIT %:     89.328  MISS %:     10.672   MPKI: 0.477595
LLC RFO       ACCESS:      78513  HIT:      65229  MISS:      13284  HIT %:    83.0805  MISS %:    16.9195   MPKI: 0.06642
LLC PREFETCH  ACCESS:     151927  HIT:     129456  MISS:      22471  HIT %:    85.2093  MISS %:    14.7907   MPKI: 0.112355
AGUS PREFETCH L1 MISS: 0
LLC WRITEBACK ACCESS:     113057  HIT:     112214  MISS:        843  HIT %:    99.2544  MISS %:   0.745642   MPKI: 0.004215
LLC LOAD TRANSLATION ACCESS:      37398  HIT:      33887  MISS:       3511  HIT %:    90.6118  MISS %:     9.3882   MPKI: 0.017555
LLC TRANSLATION FROM L1D PREFETCHER ACCESS:      26095  HIT:      25064  MISS:       1031  HIT %:    96.0491  MISS %:    3.95095   MPKI: 0.005155
LLC PREFETCH  REQUESTED:          0  ISSUED:          0  USEFUL:        922  USELESS:      24246
LLC USEFUL LOAD PREFETCHES:        922 PREFETCH ISSUED TO LOWER LEVEL:      22471  ACCURACY: 4.10307
LLC TIMELY PREFETCHES:        922 LATE PREFETCHES: 0 DROPPED PREFETCHES: 0
LLC PREFETCHES SAME FILL-ORIGIN LEVEL: 0 DIFFERENT FILL-ORIGIN LEVEL: 0
LLC AVERAGE MISS LATENCY: 139.444 cycles
LLC RQ	ACCESS:    1037049	FORWARD:          0	MERGED:          0	TO_CACHE:    1037049
LLC WQ	ACCESS:     113057	FORWARD:          0	MERGED:          0	TO_CACHE:     113057
LLC PQ	ACCESS:     151927	FORWARD:          0	MERGED:          0	TO_CACHE:     151927

LLC Dense regions hint to LLC: 0

RAW hits: 1432132
Loads Generated: 48075355
Loads sent to L1D: 46643223
Stores Generated: 27052894
Stores sent to L1D: 27052930
Major fault: 0 Minor fault: 6261
Allocated PAGES: 6261
Completed 

DRAM Statistics
 CHANNEL 0
 RQ ROW_BUFFER_HIT:      48234  ROW_BUFFER_MISS:      87560
 DBUS_CONGESTED:         65
 WQ ROW_BUFFER_HIT:       2195  ROW_BUFFER_MISS:      11392  FULL:          0

 AVG_CONGESTED_CYCLE: 5
 All warmup complete: 2
Channel 0 Bank busy for read cycles: 0
Channel 0 Bank busy for write cycles: 0
Channel 0
Rank 0
0banks busy for read cycles: 641086935
0banks busy for write cycles: 8442
1banks busy for read cycles: 8026936
1banks busy for write cycles: 1347131
2banks busy for read cycles: 1105894
2banks busy for write cycles: 237589
3banks busy for read cycles: 299105
3banks busy for write cycles: 96946
4banks busy for read cycles: 192010
4banks busy for write cycles: 45683
5banks busy for read cycles: 143775
5banks busy for write cycles: 22354
6banks busy for read cycles: 141965
6banks busy for write cycles: 8400
7banks busy for read cycles: 138834
7banks busy for write cycles: 4949
8banks busy for read cycles: 138268
8banks busy for write cycles: 15363

CPU 0 Branch Prediction Accuracy: 99.767% MPKI: 0.417705 Average ROB Occupancy at Mispredict: 43.535
Branch types
NOT_BRANCH: 164151442 82.0757%
BRANCH_DIRECT_JUMP: 2097826 1.04891%
BRANCH_INDIRECT: 12319460 6.15973%
BRANCH_CONDITIONAL: 12167282 6.08364%
BRANCH_DIRECT_CALL: 3904059 1.95203%
BRANCH_INDIRECT_CALL: 727840 0.36392%
BRANCH_RETURN: 4631865 2.31593%
BRANCH_OTHER: 0 0%

DRAM PAGES: 1048576
Allocated PAGES: 6261
