
*** ChampSim Multicore Out-of-Order Simulator ***

Warmup Instructions: 50000000
Simulation Instructions: 200000000
Number of CPUs: 1
LLC sets: 2048
LLC ways: 16
Off-chip DRAM Size: 4096 MB Channels: 1 Width: 64-bit Data Rate: 6400 MT/s
CPU 0 runs traces/spec2k17/server_028.champsimtrace.xz
.xz
BTB has LRU replacement policy
ITLB has LRU replacement policy
DTLB has LRU replacement policy
STLB has LRU replacement policy
L1I has LRU replacement policy
L1D has LRU replacement policy
Initialize SRRIP state for L2C
Initialize DRRIP state for LLC
Heartbeat CPU 0 instructions: 10000001 cycles: 2847066 heartbeat IPC: 3.51239 cumulative IPC: 3.51239 (Simulation time: 0 hr 0 min 30 sec) 
Heartbeat CPU 0 instructions: 20000002 cycles: 5685855 heartbeat IPC: 3.52263 cumulative IPC: 3.5175 (Simulation time: 0 hr 1 min 2 sec) 
Heartbeat CPU 0 instructions: 30000002 cycles: 8527323 heartbeat IPC: 3.51931 cumulative IPC: 3.5181 (Simulation time: 0 hr 1 min 37 sec) 
Heartbeat CPU 0 instructions: 40000001 cycles: 11374850 heartbeat IPC: 3.51182 cumulative IPC: 3.51653 (Simulation time: 0 hr 2 min 15 sec) 
Heartbeat CPU 0 instructions: 50000003 cycles: 14230560 heartbeat IPC: 3.50176 cumulative IPC: 3.51357 (Simulation time: 0 hr 2 min 51 sec) 

Warmup complete CPU 0 instructions: 50000003 cycles: 14230560 (Simulation time: 0 hr 2 min 51 sec) 

Heartbeat CPU 0 instructions: 60000000 cycles: 46543852 heartbeat IPC: 0.30947 cumulative IPC: 0.30947 (Simulation time: 0 hr 3 min 55 sec) 
Heartbeat CPU 0 instructions: 70000000 cycles: 78883502 heartbeat IPC: 0.309218 cumulative IPC: 0.309344 (Simulation time: 0 hr 4 min 57 sec) 
Heartbeat CPU 0 instructions: 80000000 cycles: 111163320 heartbeat IPC: 0.309791 cumulative IPC: 0.309493 (Simulation time: 0 hr 6 min 3 sec) 
*** Reached end of trace for Core: 0 Repeating trace: traces/spec2k17/server_028.champsimtrace.xz
Heartbeat CPU 0 instructions: 90000001 cycles: 143020743 heartbeat IPC: 0.313899 cumulative IPC: 0.310583 (Simulation time: 0 hr 6 min 59 sec) 
Heartbeat CPU 0 instructions: 100000001 cycles: 174767209 heartbeat IPC: 0.314996 cumulative IPC: 0.311455 (Simulation time: 0 hr 8 min 4 sec) 
Heartbeat CPU 0 instructions: 110000000 cycles: 206825850 heartbeat IPC: 0.311928 cumulative IPC: 0.311534 (Simulation time: 0 hr 9 min 7 sec) 
Heartbeat CPU 0 instructions: 120000003 cycles: 238619853 heartbeat IPC: 0.314525 cumulative IPC: 0.311958 (Simulation time: 0 hr 10 min 10 sec) 
Heartbeat CPU 0 instructions: 130000002 cycles: 270654362 heartbeat IPC: 0.312163 cumulative IPC: 0.311984 (Simulation time: 0 hr 11 min 16 sec) 
Heartbeat CPU 0 instructions: 140000001 cycles: 302615911 heartbeat IPC: 0.312876 cumulative IPC: 0.312082 (Simulation time: 0 hr 12 min 23 sec) 
Heartbeat CPU 0 instructions: 150000002 cycles: 334441014 heartbeat IPC: 0.314217 cumulative IPC: 0.312295 (Simulation time: 0 hr 13 min 31 sec) 
Heartbeat CPU 0 instructions: 160000000 cycles: 366373366 heartbeat IPC: 0.313162 cumulative IPC: 0.312373 (Simulation time: 0 hr 14 min 38 sec) 
Heartbeat CPU 0 instructions: 170000001 cycles: 397995172 heartbeat IPC: 0.316238 cumulative IPC: 0.312692 (Simulation time: 0 hr 15 min 39 sec) 
*** Reached end of trace for Core: 0 Repeating trace: traces/spec2k17/server_028.champsimtrace.xz
Heartbeat CPU 0 instructions: 180000002 cycles: 429869685 heartbeat IPC: 0.31373 cumulative IPC: 0.312771 (Simulation time: 0 hr 16 min 43 sec) 
Heartbeat CPU 0 instructions: 190000000 cycles: 461658748 heartbeat IPC: 0.314574 cumulative IPC: 0.312899 (Simulation time: 0 hr 17 min 42 sec) 
Heartbeat CPU 0 instructions: 200000001 cycles: 493446141 heartbeat IPC: 0.31459 cumulative IPC: 0.313012 (Simulation time: 0 hr 18 min 38 sec) 
Heartbeat CPU 0 instructions: 210000002 cycles: 525361170 heartbeat IPC: 0.313332 cumulative IPC: 0.313032 (Simulation time: 0 hr 19 min 36 sec) 
Heartbeat CPU 0 instructions: 220000000 cycles: 557367352 heartbeat IPC: 0.31244 cumulative IPC: 0.312997 (Simulation time: 0 hr 20 min 40 sec) 
Heartbeat CPU 0 instructions: 230000000 cycles: 589149767 heartbeat IPC: 0.314639 cumulative IPC: 0.313087 (Simulation time: 0 hr 21 min 44 sec) 
Heartbeat CPU 0 instructions: 240000000 cycles: 620987601 heartbeat IPC: 0.314092 cumulative IPC: 0.31314 (Simulation time: 0 hr 22 min 45 sec) 
Heartbeat CPU 0 instructions: 250000000 cycles: 652913647 heartbeat IPC: 0.313224 cumulative IPC: 0.313144 (Simulation time: 0 hr 23 min 42 sec) 
Finished CPU 0 instructions: 200000003 cycles: 638683098 cumulative IPC: 0.313144 (Simulation time: 0 hr 23 min 42 sec) 

ChampSim completed all CPUs

Region of Interest Statistics

CPU 0 cumulative IPC: 0.313144 instructions: 200000003 cycles: 638683098
ITLB TOTAL     ACCESS:   35605753  HIT:   33416546  MISS:    2189207  HIT %:    93.8515  MISS %:    6.14846   MPKI: 10.946
ITLB LOAD TRANSLATION ACCESS:   35605753  HIT:   33416546  MISS:    2189207  HIT %:    93.8515  MISS %:    6.14846   MPKI: 10.946
ITLB PREFETCH  REQUESTED:          0  ISSUED:          0  USEFUL:          0  USELESS:          0
ITLB USEFUL LOAD PREFETCHES:          0 PREFETCH ISSUED TO LOWER LEVEL:          0  ACCURACY: -nan
ITLB TIMELY PREFETCHES:          0 LATE PREFETCHES: 0 DROPPED PREFETCHES: 0
ITLB PREFETCHES SAME FILL-ORIGIN LEVEL: 0 DIFFERENT FILL-ORIGIN LEVEL: 0
ITLB AVERAGE MISS LATENCY: 9.33516 cycles
ITLB RQ	ACCESS:   41782730	FORWARD:          0	MERGED:    5650101	TO_CACHE:   36132629

DTLB TOTAL     ACCESS:   45130574  HIT:   43048398  MISS:    2082176  HIT %:    95.3863  MISS %:    4.61367   MPKI: 10.4109
DTLB LOAD TRANSLATION ACCESS:   45130574  HIT:   43048398  MISS:    2082176  HIT %:    95.3863  MISS %:    4.61367   MPKI: 10.4109
DTLB PREFETCH  REQUESTED:          0  ISSUED:          0  USEFUL:          0  USELESS:          0
DTLB USEFUL LOAD PREFETCHES:          0 PREFETCH ISSUED TO LOWER LEVEL:          0  ACCURACY: -nan
DTLB TIMELY PREFETCHES:          0 LATE PREFETCHES: 0 DROPPED PREFETCHES: 0
DTLB PREFETCHES SAME FILL-ORIGIN LEVEL: 0 DIFFERENT FILL-ORIGIN LEVEL: 0
DTLB AVERAGE MISS LATENCY: 9.53986 cycles
DTLB RQ	ACCESS:   59731631	FORWARD:          0	MERGED:   14549105	TO_CACHE:   45182526

STLB TOTAL     ACCESS:   23148372  HIT:   23066829  MISS:      81543  HIT %:    99.6477  MISS %:   0.352262   MPKI: 0.407715
STLB LOAD TRANSLATION ACCESS:    4271383  HIT:    4194090  MISS:      77293  HIT %:    98.1904  MISS %:    1.80955   MPKI: 0.386465
STLB TRANSLATION FROM L1D PREFETCHER ACCESS:   18876989  HIT:   18872739  MISS:       4250  HIT %:    99.9775  MISS %:  0.0225142   MPKI: 0.02125
STLB PREFETCH  REQUESTED:          0  ISSUED:          0  USEFUL:       4044  USELESS:        206
STLB USEFUL LOAD PREFETCHES:       4044 PREFETCH ISSUED TO LOWER LEVEL:          0  ACCURACY: inf
STLB TIMELY PREFETCHES:       4044 LATE PREFETCHES: 2298 DROPPED PREFETCHES: 265567
STLB PREFETCHES SAME FILL-ORIGIN LEVEL: 0 DIFFERENT FILL-ORIGIN LEVEL: 0
STLB AVERAGE MISS LATENCY: 45.9788 cycles
STLB RQ	ACCESS:   27483162	FORWARD:          0	MERGED:    4062508	TO_CACHE:   23420654

STLB Hit, L1D data hit: 0
STLB Hit, L2C data hit: 0
STLB Hit, LLC data hit: 0
STLB Hit, LLC data miss: 0
STLB STLB hints to L2: 0
L1D TOTAL     ACCESS:   79217524  HIT:   73100583  MISS:    6116941  HIT %:    92.2783  MISS %:     7.7217   MPKI: 30.5847
L1D LOAD      ACCESS:   33558909  HIT:   30208787  MISS:    3350122  HIT %:    90.0172  MISS %:    9.98281   MPKI: 16.7506
L1D RFO       ACCESS:   24495591  HIT:   23414454  MISS:    1081137  HIT %:    95.5864  MISS %:     4.4136   MPKI: 5.40568
L1D PREFETCH  ACCESS:   21163024  HIT:   19477342  MISS:    1685682  HIT %:    92.0348  MISS %:    7.96522   MPKI: 8.42841
AGUS PREFETCH L1 MISS: 0
L1D PREFETCH  REQUESTED:   48496923  ISSUED:   48496793  USEFUL:    1189706  USELESS:     495959
L1D USEFUL LOAD PREFETCHES:    1189706 PREFETCH ISSUED TO LOWER LEVEL:    2620737  ACCURACY: 45.3959
L1D TIMELY PREFETCHES:    1189706 LATE PREFETCHES: 928590 DROPPED PREFETCHES: 303851
L1D PREFETCHES SAME FILL-ORIGIN LEVEL: 2620737 DIFFERENT FILL-ORIGIN LEVEL: 0
L1D AVERAGE MISS LATENCY: 5.4264e+07 cycles
L1D RQ	ACCESS:   46071217	FORWARD:          0	MERGED:   12101679	TO_CACHE:   33655024
L1D WQ	ACCESS:   26217180	FORWARD:     352072	MERGED:     140573	TO_CACHE:   26076607
L1D PQ	ACCESS:   25285014	FORWARD:          0	MERGED:    2035677	TO_CACHE:   23211779

L1D UNIQUE REGIONS ACCESSED: 0
L1D REGIONS CONFLICTS: 0
L1D Cross Page Prefetch Requests: 16794065
L1D Same Page Prefetch Requests: 10194845
L1D ROI Sum of L1D PQ occupancy: 324324075
L1D PREFETCHES PUSHED FROM L2C: 0
L1I TOTAL     ACCESS:   40147192  HIT:   29063492  MISS:   11083700  HIT %:    72.3923  MISS %:    27.6077   MPKI: 55.4185
L1I LOAD      ACCESS:   40147192  HIT:   29063492  MISS:   11083700  HIT %:    72.3923  MISS %:    27.6077   MPKI: 55.4185
L1I PREFETCH  REQUESTED:          0  ISSUED:          0  USEFUL:          0  USELESS:          0
L1I USEFUL LOAD PREFETCHES:          0 PREFETCH ISSUED TO LOWER LEVEL:          0  ACCURACY: -nan
L1I TIMELY PREFETCHES:          0 LATE PREFETCHES: 0 DROPPED PREFETCHES: 0
L1I PREFETCHES SAME FILL-ORIGIN LEVEL: 0 DIFFERENT FILL-ORIGIN LEVEL: 0
L1I AVERAGE MISS LATENCY: 15.7872 cycles
L1I RQ	ACCESS:   58378572	FORWARD:          0	MERGED:   16595842	TO_CACHE:   41782730

BTB TOTAL     ACCESS:   30542458  HIT:   18336623  MISS:   12205835  HIT %:    60.0365  MISS %:    39.9635   MPKI: 61.0292
BTB BRANCH_DIRECT_JUMP	ACCESS:    2010403  HIT:    1225655  MISS:     784748
BTB BRANCH_INDIRECT	ACCESS:   11931802  HIT:    7220486  MISS:    4711316
BTB BRANCH_CONDITIONAL	ACCESS:    7548039  HIT:    6326083  MISS:    1221956
BTB BRANCH_DIRECT_CALL	ACCESS:    3806012  HIT:    1828717  MISS:    1977295
BTB BRANCH_INDIRECT_CALL	ACCESS:     720088  HIT:     358904  MISS:     361184
BTB BRANCH_RETURN	ACCESS:    4526114  HIT:    1376778  MISS:    3149336
BTB BRANCH_OTHER ACCESS:          0  HIT:          0  MISS:          0

L2C TOTAL     ACCESS:   19994030  HIT:   18770748  MISS:    1223282  HIT %:    93.8818  MISS %:    6.11824   MPKI: 6.11641
L2C LOAD      ACCESS:   13505217  HIT:   12609489  MISS:     895728  HIT %:    93.3675  MISS %:    6.63246   MPKI: 4.47864
L2C DATA LOAD MPKI: 1.3692
L2C INSTRUCTION LOAD MPKI: 3.10943
L2C RFO       ACCESS:    1074671  HIT:    1012060  MISS:      62611  HIT %:    94.1739  MISS %:    5.82606   MPKI: 0.313055
L2C PREFETCH  ACCESS:    2619317  HIT:    2446795  MISS:     172522  HIT %:    93.4135  MISS %:    6.58653   MPKI: 0.86261
AGUS PREFETCH L1 MISS: 0
L2C DATA PREFETCH MPKI: 0.86261
L2C INSTRUCTION PREFETCH MPKI: 0
L2C WRITEBACK ACCESS:    2279866  HIT:    2259591  MISS:      20275  HIT %:    99.1107  MISS %:   0.889307   MPKI: 0.101375
L2C LOAD TRANSLATION ACCESS:     108049  HIT:      70234  MISS:      37815  HIT %:     65.002  MISS %:     34.998   MPKI: 0.189075
L2C TRANSLATION FROM L1D PREFETCHER ACCESS:     406910  HIT:     372579  MISS:      34331  HIT %:     91.563  MISS %:      8.437   MPKI: 0.171655
L2C PREFETCH  REQUESTED:          0  ISSUED:          0  USEFUL:      27166  USELESS:     179783
L2C USEFUL LOAD PREFETCHES:      27166 PREFETCH ISSUED TO LOWER LEVEL:     172522  ACCURACY: 15.7464
L2C TIMELY PREFETCHES:      27166 LATE PREFETCHES: 0 DROPPED PREFETCHES: 0
L2C PREFETCHES SAME FILL-ORIGIN LEVEL: 0 DIFFERENT FILL-ORIGIN LEVEL: 0
L2C AVERAGE MISS LATENCY: 42.3736 cycles
L2C RQ	ACCESS:   15094862	FORWARD:          0	MERGED:          0	TO_CACHE:   15094847
L2C WQ	ACCESS:    2279866	FORWARD:       1435	MERGED:          0	TO_CACHE:    2279866
L2C PQ	ACCESS:    2620737	FORWARD:          0	MERGED:          0	TO_CACHE:    2619317

L2C Instructions Evicting Data 208859
L2C Translations Evicting Data 41356
L2C Data Evicting Data 272853
L2C Instructions Evicting Instructions 390197
L2C Translations Evicting Instructions 23621
L2C Data Evicting Instructions 194425
L2C Instructions Evicting Translations 22831
L2C Translations Evicting Translations 7169
L2C Data Evicting Translations 41696
L2C Dense regions hint from L2: 0
PSCL5 TOTAL     ACCESS:     344515  HIT:     344515  MISS:          0  HIT %:        100  MISS %:          0   MPKI: 0
PSCL5 LOAD TRANSLATION ACCESS:      75024  HIT:      75024  MISS:          0  HIT %:        100  MISS %:          0   MPKI: 0
PSCL5 TRANSLATION FROM L1D PREFETCHER ACCESS:     269491  HIT:     269491  MISS:          0  HIT %:        100  MISS %:          0   MPKI: 0
PSCL5 PREFETCH  REQUESTED:          0  ISSUED:          0  USEFUL:          0  USELESS:          0
PSCL5 USEFUL LOAD PREFETCHES:          0 PREFETCH ISSUED TO LOWER LEVEL:          0  ACCURACY: -nan
PSCL5 TIMELY PREFETCHES:          0 LATE PREFETCHES: 0 DROPPED PREFETCHES: 0
PSCL5 PREFETCHES SAME FILL-ORIGIN LEVEL: 0 DIFFERENT FILL-ORIGIN LEVEL: 0

PSCL4 TOTAL     ACCESS:     256027  HIT:     255308  MISS:        719  HIT %:    99.7192  MISS %:    0.28083   MPKI: 0.003595
PSCL4 LOAD TRANSLATION ACCESS:      73655  HIT:      72936  MISS:        719  HIT %:    99.0238  MISS %:   0.976173   MPKI: 0.003595
PSCL4 TRANSLATION FROM L1D PREFETCHER ACCESS:     182372  HIT:     182372  MISS:          0  HIT %:        100  MISS %:          0   MPKI: 0
PSCL4 PREFETCH  REQUESTED:          0  ISSUED:          0  USEFUL:          0  USELESS:          0
PSCL4 USEFUL LOAD PREFETCHES:          0 PREFETCH ISSUED TO LOWER LEVEL:          0  ACCURACY: -nan
PSCL4 TIMELY PREFETCHES:          0 LATE PREFETCHES: 0 DROPPED PREFETCHES: 0
PSCL4 PREFETCHES SAME FILL-ORIGIN LEVEL: 0 DIFFERENT FILL-ORIGIN LEVEL: 0

PSCL3 TOTAL     ACCESS:     301153  HIT:     300434  MISS:        719  HIT %:    99.7613  MISS %:   0.238749   MPKI: 0.003595
PSCL3 LOAD TRANSLATION ACCESS:      74846  HIT:      74127  MISS:        719  HIT %:    99.0394  MISS %:   0.960639   MPKI: 0.003595
PSCL3 TRANSLATION FROM L1D PREFETCHER ACCESS:     226307  HIT:     226307  MISS:          0  HIT %:        100  MISS %:          0   MPKI: 0
PSCL3 PREFETCH  REQUESTED:          0  ISSUED:          0  USEFUL:          0  USELESS:          0
PSCL3 USEFUL LOAD PREFETCHES:          0 PREFETCH ISSUED TO LOWER LEVEL:          0  ACCURACY: -nan
PSCL3 TIMELY PREFETCHES:          0 LATE PREFETCHES: 0 DROPPED PREFETCHES: 0
PSCL3 PREFETCHES SAME FILL-ORIGIN LEVEL: 0 DIFFERENT FILL-ORIGIN LEVEL: 0

PSCL2 TOTAL     ACCESS:     120582  HIT:      86023  MISS:      34559  HIT %:    71.3398  MISS %:    28.6602   MPKI: 0.172795
PSCL2 LOAD TRANSLATION ACCESS:      77760  HIT:      43201  MISS:      34559  HIT %:    55.5568  MISS %:    44.4432   MPKI: 0.172795
PSCL2 TRANSLATION FROM L1D PREFETCHER ACCESS:      42822  HIT:      42822  MISS:          0  HIT %:        100  MISS %:          0   MPKI: 0
PSCL2 PREFETCH  REQUESTED:          0  ISSUED:          0  USEFUL:          0  USELESS:          0
PSCL2 USEFUL LOAD PREFETCHES:          0 PREFETCH ISSUED TO LOWER LEVEL:          0  ACCURACY: -nan
PSCL2 TIMELY PREFETCHES:          0 LATE PREFETCHES: 0 DROPPED PREFETCHES: 0
PSCL2 PREFETCHES SAME FILL-ORIGIN LEVEL: 0 DIFFERENT FILL-ORIGIN LEVEL: 0

LLC TOTAL     ACCESS:    1294024  HIT:    1177908  MISS:     116116  HIT %:    91.0268  MISS %:    8.97325   MPKI: 0.58058
LLC LOAD      ACCESS:     895728  HIT:     814737  MISS:      80991  HIT %:    90.9581  MISS %:    9.04192   MPKI: 0.404955
LLC RFO       ACCESS:      62609  HIT:      54348  MISS:       8261  HIT %:    86.8054  MISS %:    13.1946   MPKI: 0.041305
LLC PREFETCH  ACCESS:     172522  HIT:     149838  MISS:      22684  HIT %:    86.8515  MISS %:    13.1485   MPKI: 0.11342
AGUS PREFETCH L1 MISS: 0
LLC WRITEBACK ACCESS:      91019  HIT:      90510  MISS:        509  HIT %:    99.4408  MISS %:   0.559224   MPKI: 0.002545
LLC LOAD TRANSLATION ACCESS:      37815  HIT:      34856  MISS:       2959  HIT %:    92.1751  MISS %:    7.82494   MPKI: 0.014795
LLC TRANSLATION FROM L1D PREFETCHER ACCESS:      34331  HIT:      33619  MISS:        712  HIT %:    97.9261  MISS %:    2.07393   MPKI: 0.00356
LLC PREFETCH  REQUESTED:          0  ISSUED:          0  USEFUL:        998  USELESS:      23454
LLC USEFUL LOAD PREFETCHES:        998 PREFETCH ISSUED TO LOWER LEVEL:      22684  ACCURACY: 4.39958
LLC TIMELY PREFETCHES:        998 LATE PREFETCHES: 0 DROPPED PREFETCHES: 0
LLC PREFETCHES SAME FILL-ORIGIN LEVEL: 0 DIFFERENT FILL-ORIGIN LEVEL: 0
LLC AVERAGE MISS LATENCY: 135.543 cycles
LLC RQ	ACCESS:    1030485	FORWARD:          0	MERGED:          0	TO_CACHE:    1030483
LLC WQ	ACCESS:      91019	FORWARD:          2	MERGED:          0	TO_CACHE:      91019
LLC PQ	ACCESS:     172522	FORWARD:          0	MERGED:          0	TO_CACHE:     172522

LLC Dense regions hint to LLC: 0

RAW hits: 1413047
Loads Generated: 47484266
Loads sent to L1D: 46071217
Stores Generated: 26217178
Stores sent to L1D: 26217180
Major fault: 0 Minor fault: 6256
Allocated PAGES: 6256
Completed 

DRAM Statistics
 CHANNEL 0
 RQ ROW_BUFFER_HIT:      43380  ROW_BUFFER_MISS:      72227
 DBUS_CONGESTED:         67
 WQ ROW_BUFFER_HIT:       1487  ROW_BUFFER_MISS:       8523  FULL:          0

 AVG_CONGESTED_CYCLE: 4
 All warmup complete: 2
Channel 0 Bank busy for read cycles: 0
Channel 0 Bank busy for write cycles: 0
Channel 0
Rank 0
0banks busy for read cycles: 628535308
0banks busy for write cycles: 6833
1banks busy for read cycles: 6935978
1banks busy for write cycles: 1085301
2banks busy for read cycles: 972968
2banks busy for write cycles: 189410
3banks busy for read cycles: 273838
3banks busy for write cycles: 66882
4banks busy for read cycles: 156748
4banks busy for write cycles: 29271
5banks busy for read cycles: 102420
5banks busy for write cycles: 12901
6banks busy for read cycles: 101176
6banks busy for write cycles: 4268
7banks busy for read cycles: 103122
7banks busy for write cycles: 1337
8banks busy for read cycles: 104078
8banks busy for write cycles: 1260

CPU 0 Branch Prediction Accuracy: 99.7758% MPKI: 0.40526 Average ROB Occupancy at Mispredict: 44.4173
Branch types
NOT_BRANCH: 163841120 81.9206%
BRANCH_DIRECT_JUMP: 2010403 1.0052%
BRANCH_INDIRECT: 11931802 5.9659%
BRANCH_CONDITIONAL: 13164452 6.58223%
BRANCH_DIRECT_CALL: 3806012 1.90301%
BRANCH_INDIRECT_CALL: 720088 0.360044%
BRANCH_RETURN: 4526114 2.26306%
BRANCH_OTHER: 0 0%

DRAM PAGES: 1048576
Allocated PAGES: 6256
