
*** ChampSim Multicore Out-of-Order Simulator ***

Warmup Instructions: 50000000
Simulation Instructions: 200000000
Number of CPUs: 1
LLC sets: 2048
LLC ways: 16
Off-chip DRAM Size: 4096 MB Channels: 1 Width: 64-bit Data Rate: 6400 MT/s
CPU 0 runs traces/spec2k17/server_033.champsimtrace.xz
.xz
BTB has LRU replacement policy
ITLB has LRU replacement policy
DTLB has LRU replacement policy
STLB has LRU replacement policy
L1I has LRU replacement policy
L1D has LRU replacement policy
Initialize SRRIP state for L2C
Initialize DRRIP state for LLC
Heartbeat CPU 0 instructions: 10000003 cycles: 2820297 heartbeat IPC: 3.54573 cumulative IPC: 3.54573 (Simulation time: 0 hr 0 min 29 sec) 
Heartbeat CPU 0 instructions: 20000002 cycles: 5647034 heartbeat IPC: 3.53765 cumulative IPC: 3.54168 (Simulation time: 0 hr 0 min 59 sec) 
Heartbeat CPU 0 instructions: 30000003 cycles: 8469307 heartbeat IPC: 3.54324 cumulative IPC: 3.5422 (Simulation time: 0 hr 1 min 34 sec) 
Heartbeat CPU 0 instructions: 40000002 cycles: 11298230 heartbeat IPC: 3.53491 cumulative IPC: 3.54038 (Simulation time: 0 hr 2 min 10 sec) 
Heartbeat CPU 0 instructions: 50000002 cycles: 14130516 heartbeat IPC: 3.53072 cumulative IPC: 3.53844 (Simulation time: 0 hr 2 min 45 sec) 

Warmup complete CPU 0 instructions: 50000002 cycles: 14130516 (Simulation time: 0 hr 2 min 45 sec) 

Heartbeat CPU 0 instructions: 60000000 cycles: 40701888 heartbeat IPC: 0.376345 cumulative IPC: 0.376345 (Simulation time: 0 hr 3 min 42 sec) 
Heartbeat CPU 0 instructions: 70000000 cycles: 66979676 heartbeat IPC: 0.38055 cumulative IPC: 0.378435 (Simulation time: 0 hr 4 min 42 sec) 
Heartbeat CPU 0 instructions: 80000003 cycles: 93274851 heartbeat IPC: 0.380298 cumulative IPC: 0.379054 (Simulation time: 0 hr 5 min 48 sec) 
Heartbeat CPU 0 instructions: 90000001 cycles: 120163463 heartbeat IPC: 0.371905 cumulative IPC: 0.377241 (Simulation time: 0 hr 6 min 50 sec) 
Heartbeat CPU 0 instructions: 100000000 cycles: 146362508 heartbeat IPC: 0.381693 cumulative IPC: 0.378123 (Simulation time: 0 hr 7 min 49 sec) 
*** Reached end of trace for Core: 0 Repeating trace: traces/spec2k17/server_033.champsimtrace.xz
Heartbeat CPU 0 instructions: 110000000 cycles: 172696853 heartbeat IPC: 0.379732 cumulative IPC: 0.378391 (Simulation time: 0 hr 8 min 48 sec) 
Heartbeat CPU 0 instructions: 120000000 cycles: 198923423 heartbeat IPC: 0.381293 cumulative IPC: 0.378802 (Simulation time: 0 hr 9 min 48 sec) 
Heartbeat CPU 0 instructions: 130000000 cycles: 225153892 heartbeat IPC: 0.381236 cumulative IPC: 0.379105 (Simulation time: 0 hr 10 min 53 sec) 
Heartbeat CPU 0 instructions: 140000003 cycles: 251925733 heartbeat IPC: 0.373527 cumulative IPC: 0.378477 (Simulation time: 0 hr 11 min 54 sec) 
Heartbeat CPU 0 instructions: 150000000 cycles: 278175348 heartbeat IPC: 0.380958 cumulative IPC: 0.378724 (Simulation time: 0 hr 12 min 57 sec) 
Heartbeat CPU 0 instructions: 160000000 cycles: 304562107 heartbeat IPC: 0.378978 cumulative IPC: 0.378747 (Simulation time: 0 hr 13 min 55 sec) 
Heartbeat CPU 0 instructions: 170000001 cycles: 330827731 heartbeat IPC: 0.380726 cumulative IPC: 0.378911 (Simulation time: 0 hr 14 min 52 sec) 
Heartbeat CPU 0 instructions: 180000001 cycles: 357105348 heartbeat IPC: 0.380552 cumulative IPC: 0.379037 (Simulation time: 0 hr 15 min 53 sec) 
Heartbeat CPU 0 instructions: 190000002 cycles: 383781046 heartbeat IPC: 0.374873 cumulative IPC: 0.378736 (Simulation time: 0 hr 16 min 58 sec) 
Heartbeat CPU 0 instructions: 200000003 cycles: 410050324 heartbeat IPC: 0.380673 cumulative IPC: 0.378865 (Simulation time: 0 hr 17 min 49 sec) 
*** Reached end of trace for Core: 0 Repeating trace: traces/spec2k17/server_033.champsimtrace.xz
Heartbeat CPU 0 instructions: 210000000 cycles: 436233916 heartbeat IPC: 0.381918 cumulative IPC: 0.379054 (Simulation time: 0 hr 18 min 44 sec) 
Heartbeat CPU 0 instructions: 220000000 cycles: 462522645 heartbeat IPC: 0.380391 cumulative IPC: 0.379132 (Simulation time: 0 hr 19 min 45 sec) 
Heartbeat CPU 0 instructions: 230000001 cycles: 488710422 heartbeat IPC: 0.381858 cumulative IPC: 0.379283 (Simulation time: 0 hr 20 min 43 sec) 
Heartbeat CPU 0 instructions: 240000001 cycles: 515343928 heartbeat IPC: 0.375467 cumulative IPC: 0.37908 (Simulation time: 0 hr 21 min 45 sec) 
Heartbeat CPU 0 instructions: 250000002 cycles: 541645489 heartbeat IPC: 0.380206 cumulative IPC: 0.379136 (Simulation time: 0 hr 22 min 43 sec) 
Finished CPU 0 instructions: 200000000 cycles: 527514973 cumulative IPC: 0.379136 (Simulation time: 0 hr 22 min 43 sec) 

ChampSim completed all CPUs

Region of Interest Statistics

CPU 0 cumulative IPC: 0.379136 instructions: 200000000 cycles: 527514973
ITLB TOTAL     ACCESS:   35643716  HIT:   33617582  MISS:    2026134  HIT %:    94.3156  MISS %:    5.68441   MPKI: 10.1307
ITLB LOAD TRANSLATION ACCESS:   35643716  HIT:   33617582  MISS:    2026134  HIT %:    94.3156  MISS %:    5.68441   MPKI: 10.1307
ITLB PREFETCH  REQUESTED:          0  ISSUED:          0  USEFUL:          0  USELESS:          0
ITLB USEFUL LOAD PREFETCHES:          0 PREFETCH ISSUED TO LOWER LEVEL:          0  ACCURACY: -nan
ITLB TIMELY PREFETCHES:          0 LATE PREFETCHES: 0 DROPPED PREFETCHES: 0
ITLB PREFETCHES SAME FILL-ORIGIN LEVEL: 0 DIFFERENT FILL-ORIGIN LEVEL: 0
ITLB AVERAGE MISS LATENCY: 9.03915 cycles
ITLB RQ	ACCESS:   41307458	FORWARD:          0	MERGED:    5212572	TO_CACHE:   36094886

DTLB TOTAL     ACCESS:   39422669  HIT:   37721524  MISS:    1701145  HIT %:    95.6849  MISS %:    4.31514   MPKI: 8.50572
DTLB LOAD TRANSLATION ACCESS:   39422669  HIT:   37721524  MISS:    1701145  HIT %:    95.6849  MISS %:    4.31514   MPKI: 8.50572
DTLB PREFETCH  REQUESTED:          0  ISSUED:          0  USEFUL:          0  USELESS:          0
DTLB USEFUL LOAD PREFETCHES:          0 PREFETCH ISSUED TO LOWER LEVEL:          0  ACCURACY: -nan
DTLB TIMELY PREFETCHES:          0 LATE PREFETCHES: 0 DROPPED PREFETCHES: 0
DTLB PREFETCHES SAME FILL-ORIGIN LEVEL: 0 DIFFERENT FILL-ORIGIN LEVEL: 0
DTLB AVERAGE MISS LATENCY: 8.79835 cycles
DTLB RQ	ACCESS:   55045079	FORWARD:          0	MERGED:   15532668	TO_CACHE:   39512411

STLB TOTAL     ACCESS:   15167440  HIT:   15149845  MISS:      17595  HIT %:     99.884  MISS %:   0.116005   MPKI: 0.087975
STLB LOAD TRANSLATION ACCESS:    3727279  HIT:    3710720  MISS:      16559  HIT %:    99.5557  MISS %:   0.444265   MPKI: 0.082795
STLB TRANSLATION FROM L1D PREFETCHER ACCESS:   11440161  HIT:   11439125  MISS:       1036  HIT %:    99.9909  MISS %: 0.00905582   MPKI: 0.00518
STLB PREFETCH  REQUESTED:          0  ISSUED:          0  USEFUL:        689  USELESS:        334
STLB USEFUL LOAD PREFETCHES:        689 PREFETCH ISSUED TO LOWER LEVEL:          0  ACCURACY: inf
STLB TIMELY PREFETCHES:        689 LATE PREFETCHES: 29 DROPPED PREFETCHES: 122086
STLB PREFETCHES SAME FILL-ORIGIN LEVEL: 0 DIFFERENT FILL-ORIGIN LEVEL: 0
STLB AVERAGE MISS LATENCY: 42.6425 cycles
STLB RQ	ACCESS:   18013157	FORWARD:          0	MERGED:    2723492	TO_CACHE:   15289665

STLB Hit, L1D data hit: 0
STLB Hit, L2C data hit: 0
STLB Hit, LLC data hit: 0
STLB Hit, LLC data miss: 0
STLB STLB hints to L2: 0
L1D TOTAL     ACCESS:   68241616  HIT:   65421988  MISS:    2819628  HIT %:    95.8682  MISS %:    4.13183   MPKI: 14.0981
L1D LOAD      ACCESS:   30281929  HIT:   28439629  MISS:    1842300  HIT %:    93.9162  MISS %:    6.08383   MPKI: 9.2115
L1D RFO       ACCESS:   24317099  HIT:   23915993  MISS:     401106  HIT %:    98.3505  MISS %:    1.64948   MPKI: 2.00553
L1D PREFETCH  ACCESS:   13642588  HIT:   13066366  MISS:     576222  HIT %:    95.7763  MISS %:     4.2237   MPKI: 2.88111
AGUS PREFETCH L1 MISS: 0
L1D PREFETCH  REQUESTED:   30772958  ISSUED:   30772957  USEFUL:     392611  USELESS:     183612
L1D USEFUL LOAD PREFETCHES:     392611 PREFETCH ISSUED TO LOWER LEVEL:     819664  ACCURACY: 47.899
L1D TIMELY PREFETCHES:     392611 LATE PREFETCHES: 243381 DROPPED PREFETCHES: 129026
L1D PREFETCHES SAME FILL-ORIGIN LEVEL: 819664 DIFFERENT FILL-ORIGIN LEVEL: 0
L1D AVERAGE MISS LATENCY: 2.56461e+07 cycles
L1D RQ	ACCESS:   43383970	FORWARD:          0	MERGED:   12695997	TO_CACHE:   30340838
L1D WQ	ACCESS:   24964815	FORWARD:     402836	MERGED:     260574	TO_CACHE:   24704241
L1D PQ	ACCESS:   16487079	FORWARD:          0	MERGED:    2145500	TO_CACHE:   14285878

L1D UNIQUE REGIONS ACCESSED: 0
L1D REGIONS CONFLICTS: 0
L1D Cross Page Prefetch Requests: 10045887
L1D Same Page Prefetch Requests: 8942202
L1D ROI Sum of L1D PQ occupancy: 193816715
L1D PREFETCHES PUSHED FROM L2C: 0
L1I TOTAL     ACCESS:   38698348  HIT:   26117094  MISS:   12581254  HIT %:    67.4889  MISS %:    32.5111   MPKI: 62.9063
L1I LOAD      ACCESS:   38698348  HIT:   26117094  MISS:   12581254  HIT %:    67.4889  MISS %:    32.5111   MPKI: 62.9063
L1I PREFETCH  REQUESTED:          0  ISSUED:          0  USEFUL:          0  USELESS:          0
L1I USEFUL LOAD PREFETCHES:          0 PREFETCH ISSUED TO LOWER LEVEL:          0  ACCURACY: -nan
L1I TIMELY PREFETCHES:          0 LATE PREFETCHES: 0 DROPPED PREFETCHES: 0
L1I PREFETCHES SAME FILL-ORIGIN LEVEL: 0 DIFFERENT FILL-ORIGIN LEVEL: 0
L1I AVERAGE MISS LATENCY: 14.5438 cycles
L1I RQ	ACCESS:   61075075	FORWARD:          0	MERGED:   19767617	TO_CACHE:   41307458

BTB TOTAL     ACCESS:   31223673  HIT:   22864778  MISS:    8358895  HIT %:     73.229  MISS %:     26.771   MPKI: 41.7945
BTB BRANCH_DIRECT_JUMP	ACCESS:    2956567  HIT:    2328967  MISS:     627600
BTB BRANCH_INDIRECT	ACCESS:   13061005  HIT:    9489306  MISS:    3571699
BTB BRANCH_CONDITIONAL	ACCESS:    5589874  HIT:    4924920  MISS:     664954
BTB BRANCH_DIRECT_CALL	ACCESS:    4001540  HIT:    3045075  MISS:     956465
BTB BRANCH_INDIRECT_CALL	ACCESS:     806569  HIT:     470352  MISS:     336217
BTB BRANCH_RETURN	ACCESS:    4808118  HIT:    2606158  MISS:    2201960
BTB BRANCH_OTHER ACCESS:          0  HIT:          0  MISS:          0

L2C TOTAL     ACCESS:   16560041  HIT:   15634084  MISS:     925957  HIT %:    94.4085  MISS %:    5.59151   MPKI: 4.62979
L2C LOAD      ACCESS:   14180168  HIT:   13480654  MISS:     699514  HIT %:     95.067  MISS %:    4.93304   MPKI: 3.49757
L2C DATA LOAD MPKI: 2.56908
L2C INSTRUCTION LOAD MPKI: 0.928495
L2C RFO       ACCESS:     401030  HIT:     310246  MISS:      90784  HIT %:    77.3623  MISS %:    22.6377   MPKI: 0.45392
L2C PREFETCH  ACCESS:     819664  HIT:     720302  MISS:      99362  HIT %:    87.8777  MISS %:    12.1223   MPKI: 0.49681
AGUS PREFETCH L1 MISS: 0
L2C DATA PREFETCH MPKI: 0.49681
L2C INSTRUCTION PREFETCH MPKI: 0
L2C WRITEBACK ACCESS:     986228  HIT:     966877  MISS:      19351  HIT %:    98.0379  MISS %:    1.96212   MPKI: 0.096755
L2C LOAD TRANSLATION ACCESS:      18417  HIT:       9258  MISS:       9159  HIT %:    50.2688  MISS %:    49.7312   MPKI: 0.045795
L2C TRANSLATION FROM L1D PREFETCHER ACCESS:     154534  HIT:     146747  MISS:       7787  HIT %:     94.961  MISS %:    5.03902   MPKI: 0.038935
L2C PREFETCH  REQUESTED:          0  ISSUED:          0  USEFUL:      12558  USELESS:      94522
L2C USEFUL LOAD PREFETCHES:      12558 PREFETCH ISSUED TO LOWER LEVEL:      99362  ACCURACY: 12.6386
L2C TIMELY PREFETCHES:      12558 LATE PREFETCHES: 0 DROPPED PREFETCHES: 0
L2C PREFETCHES SAME FILL-ORIGIN LEVEL: 0 DIFFERENT FILL-ORIGIN LEVEL: 0
L2C AVERAGE MISS LATENCY: 43.7768 cycles
L2C RQ	ACCESS:   14754169	FORWARD:          0	MERGED:          0	TO_CACHE:   14754149
L2C WQ	ACCESS:     986229	FORWARD:         20	MERGED:          0	TO_CACHE:     986229
L2C PQ	ACCESS:     819664	FORWARD:          0	MERGED:          0	TO_CACHE:     819664

L2C Instructions Evicting Data 60766
L2C Translations Evicting Data 14909
L2C Data Evicting Data 633981
L2C Instructions Evicting Instructions 123206
L2C Translations Evicting Instructions 1751
L2C Data Evicting Instructions 55452
L2C Instructions Evicting Translations 1727
L2C Translations Evicting Translations 286
L2C Data Evicting Translations 14528
L2C Dense regions hint from L2: 0
PSCL5 TOTAL     ACCESS:     137305  HIT:     137305  MISS:          0  HIT %:        100  MISS %:          0   MPKI: 0
PSCL5 LOAD TRANSLATION ACCESS:      16530  HIT:      16530  MISS:          0  HIT %:        100  MISS %:          0   MPKI: 0
PSCL5 TRANSLATION FROM L1D PREFETCHER ACCESS:     120775  HIT:     120775  MISS:          0  HIT %:        100  MISS %:          0   MPKI: 0
PSCL5 PREFETCH  REQUESTED:          0  ISSUED:          0  USEFUL:          0  USELESS:          0
PSCL5 USEFUL LOAD PREFETCHES:          0 PREFETCH ISSUED TO LOWER LEVEL:          0  ACCURACY: -nan
PSCL5 TIMELY PREFETCHES:          0 LATE PREFETCHES: 0 DROPPED PREFETCHES: 0
PSCL5 PREFETCHES SAME FILL-ORIGIN LEVEL: 0 DIFFERENT FILL-ORIGIN LEVEL: 0

PSCL4 TOTAL     ACCESS:      92044  HIT:      92014  MISS:         30  HIT %:    99.9674  MISS %:  0.0325931   MPKI: 0.00015
PSCL4 LOAD TRANSLATION ACCESS:      16307  HIT:      16277  MISS:         30  HIT %:     99.816  MISS %:    0.18397   MPKI: 0.00015
PSCL4 TRANSLATION FROM L1D PREFETCHER ACCESS:      75737  HIT:      75737  MISS:          0  HIT %:        100  MISS %:          0   MPKI: 0
PSCL4 PREFETCH  REQUESTED:          0  ISSUED:          0  USEFUL:          0  USELESS:          0
PSCL4 USEFUL LOAD PREFETCHES:          0 PREFETCH ISSUED TO LOWER LEVEL:          0  ACCURACY: -nan
PSCL4 TIMELY PREFETCHES:          0 LATE PREFETCHES: 0 DROPPED PREFETCHES: 0
PSCL4 PREFETCHES SAME FILL-ORIGIN LEVEL: 0 DIFFERENT FILL-ORIGIN LEVEL: 0

PSCL3 TOTAL     ACCESS:      87886  HIT:      87856  MISS:         30  HIT %:    99.9659  MISS %:  0.0341351   MPKI: 0.00015
PSCL3 LOAD TRANSLATION ACCESS:      16451  HIT:      16421  MISS:         30  HIT %:    99.8176  MISS %:    0.18236   MPKI: 0.00015
PSCL3 TRANSLATION FROM L1D PREFETCHER ACCESS:      71435  HIT:      71435  MISS:          0  HIT %:        100  MISS %:          0   MPKI: 0
PSCL3 PREFETCH  REQUESTED:          0  ISSUED:          0  USEFUL:          0  USELESS:          0
PSCL3 USEFUL LOAD PREFETCHES:          0 PREFETCH ISSUED TO LOWER LEVEL:          0  ACCURACY: -nan
PSCL3 TIMELY PREFETCHES:          0 LATE PREFETCHES: 0 DROPPED PREFETCHES: 0
PSCL3 PREFETCHES SAME FILL-ORIGIN LEVEL: 0 DIFFERENT FILL-ORIGIN LEVEL: 0

PSCL2 TOTAL     ACCESS:      29248  HIT:      27322  MISS:       1926  HIT %:    93.4149  MISS %:    6.58507   MPKI: 0.00963
PSCL2 LOAD TRANSLATION ACCESS:      16627  HIT:      14701  MISS:       1926  HIT %:    88.4164  MISS %:    11.5836   MPKI: 0.00963
PSCL2 TRANSLATION FROM L1D PREFETCHER ACCESS:      12621  HIT:      12621  MISS:          0  HIT %:        100  MISS %:          0   MPKI: 0
PSCL2 PREFETCH  REQUESTED:          0  ISSUED:          0  USEFUL:          0  USELESS:          0
PSCL2 USEFUL LOAD PREFETCHES:          0 PREFETCH ISSUED TO LOWER LEVEL:          0  ACCURACY: -nan
PSCL2 TIMELY PREFETCHES:          0 LATE PREFETCHES: 0 DROPPED PREFETCHES: 0
PSCL2 PREFETCHES SAME FILL-ORIGIN LEVEL: 0 DIFFERENT FILL-ORIGIN LEVEL: 0

LLC TOTAL     ACCESS:    1260563  HIT:    1177316  MISS:      83247  HIT %:     93.396  MISS %:    6.60395   MPKI: 0.416235
LLC LOAD      ACCESS:     699514  HIT:     646164  MISS:      53350  HIT %:    92.3733  MISS %:    7.62672   MPKI: 0.26675
LLC RFO       ACCESS:      90784  HIT:      71561  MISS:      19223  HIT %:    78.8256  MISS %:    21.1744   MPKI: 0.096115
LLC PREFETCH  ACCESS:      99362  HIT:      90910  MISS:       8452  HIT %:    91.4937  MISS %:    8.50627   MPKI: 0.04226
AGUS PREFETCH L1 MISS: 0
LLC WRITEBACK ACCESS:     353957  HIT:     352699  MISS:       1258  HIT %:    99.6446  MISS %:    0.35541   MPKI: 0.00629
LLC LOAD TRANSLATION ACCESS:       9159  HIT:       8742  MISS:        417  HIT %:    95.4471  MISS %:     4.5529   MPKI: 0.002085
LLC TRANSLATION FROM L1D PREFETCHER ACCESS:       7787  HIT:       7240  MISS:        547  HIT %:    92.9755  MISS %:    7.02453   MPKI: 0.002735
LLC PREFETCH  REQUESTED:          0  ISSUED:          0  USEFUL:       3459  USELESS:       4878
LLC USEFUL LOAD PREFETCHES:       3459 PREFETCH ISSUED TO LOWER LEVEL:       8452  ACCURACY: 40.9252
LLC TIMELY PREFETCHES:       3459 LATE PREFETCHES: 0 DROPPED PREFETCHES: 0
LLC PREFETCHES SAME FILL-ORIGIN LEVEL: 0 DIFFERENT FILL-ORIGIN LEVEL: 0
LLC AVERAGE MISS LATENCY: 160.193 cycles
LLC RQ	ACCESS:     807244	FORWARD:          0	MERGED:          0	TO_CACHE:     807244
LLC WQ	ACCESS:     353957	FORWARD:          0	MERGED:          0	TO_CACHE:     353957
LLC PQ	ACCESS:      99362	FORWARD:          0	MERGED:          0	TO_CACHE:      99362

LLC Dense regions hint to LLC: 0

RAW hits: 2706968
Loads Generated: 46090938
Loads sent to L1D: 43383970
Stores Generated: 24964796
Stores sent to L1D: 24964815
Major fault: 0 Minor fault: 2572
Allocated PAGES: 2572
Completed 

DRAM Statistics
 CHANNEL 0
 RQ ROW_BUFFER_HIT:       7182  ROW_BUFFER_MISS:      74806
 DBUS_CONGESTED:          8
 WQ ROW_BUFFER_HIT:       7004  ROW_BUFFER_MISS:      47309  FULL:          0

 AVG_CONGESTED_CYCLE: 3
 All warmup complete: 2
Channel 0 Bank busy for read cycles: 0
Channel 0 Bank busy for write cycles: 0
Channel 0
Rank 0
0banks busy for read cycles: 511126460
0banks busy for write cycles: 35571
1banks busy for read cycles: 7990594
1banks busy for write cycles: 5106871
2banks busy for read cycles: 1198760
2banks busy for write cycles: 1112000
3banks busy for read cycles: 309280
3banks busy for write cycles: 368190
4banks busy for read cycles: 30151
4banks busy for write cycles: 125585
5banks busy for read cycles: 10014
5banks busy for write cycles: 38798
6banks busy for read cycles: 7317
6banks busy for write cycles: 25301
7banks busy for read cycles: 6742
7banks busy for write cycles: 15282
8banks busy for read cycles: 307
8banks busy for write cycles: 7751

CPU 0 Branch Prediction Accuracy: 99.9377% MPKI: 0.11637 Average ROB Occupancy at Mispredict: 19.6458
Branch types
NOT_BRANCH: 162664071 81.332%
BRANCH_DIRECT_JUMP: 2956567 1.47828%
BRANCH_INDIRECT: 13061005 6.5305%
BRANCH_CONDITIONAL: 11702075 5.85104%
BRANCH_DIRECT_CALL: 4001540 2.00077%
BRANCH_INDIRECT_CALL: 806569 0.403284%
BRANCH_RETURN: 4808118 2.40406%
BRANCH_OTHER: 0 0%

DRAM PAGES: 1048576
Allocated PAGES: 2572
