
*** ChampSim Multicore Out-of-Order Simulator ***

Warmup Instructions: 50000000
Simulation Instructions: 200000000
Number of CPUs: 1
LLC sets: 2048
LLC ways: 16
Off-chip DRAM Size: 4096 MB Channels: 1 Width: 64-bit Data Rate: 6400 MT/s
CPU 0 runs traces/spec2k17/server_023.champsimtrace.xz
.xz
BTB has LRU replacement policy
ITLB has LRU replacement policy
DTLB has LRU replacement policy
STLB has LRU replacement policy
L1I has LRU replacement policy
L1D has LRU replacement policy
Initialize SRRIP state for L2C
Initialize DRRIP state for LLC
Heartbeat CPU 0 instructions: 10000001 cycles: 2813653 heartbeat IPC: 3.5541 cumulative IPC: 3.5541 (Simulation time: 0 hr 0 min 37 sec) 
Heartbeat CPU 0 instructions: 20000003 cycles: 5620103 heartbeat IPC: 3.56322 cumulative IPC: 3.55865 (Simulation time: 0 hr 1 min 14 sec) 
Heartbeat CPU 0 instructions: 30000002 cycles: 8427854 heartbeat IPC: 3.56157 cumulative IPC: 3.55963 (Simulation time: 0 hr 1 min 48 sec) 
Heartbeat CPU 0 instructions: 40000003 cycles: 11238691 heartbeat IPC: 3.55766 cumulative IPC: 3.55913 (Simulation time: 0 hr 2 min 20 sec) 
Heartbeat CPU 0 instructions: 50000003 cycles: 14049537 heartbeat IPC: 3.55765 cumulative IPC: 3.55884 (Simulation time: 0 hr 2 min 47 sec) 

Warmup complete CPU 0 instructions: 50000003 cycles: 14049537 (Simulation time: 0 hr 2 min 47 sec) 

Heartbeat CPU 0 instructions: 60000002 cycles: 44334039 heartbeat IPC: 0.330202 cumulative IPC: 0.330202 (Simulation time: 0 hr 3 min 41 sec) 
Heartbeat CPU 0 instructions: 70000002 cycles: 74313597 heartbeat IPC: 0.333561 cumulative IPC: 0.331873 (Simulation time: 0 hr 4 min 22 sec) 
Heartbeat CPU 0 instructions: 80000000 cycles: 104231061 heartbeat IPC: 0.334253 cumulative IPC: 0.332662 (Simulation time: 0 hr 5 min 3 sec) 
Heartbeat CPU 0 instructions: 90000000 cycles: 130535816 heartbeat IPC: 0.380159 cumulative IPC: 0.343388 (Simulation time: 0 hr 5 min 41 sec) 
Heartbeat CPU 0 instructions: 100000001 cycles: 160218220 heartbeat IPC: 0.3369 cumulative IPC: 0.342071 (Simulation time: 0 hr 6 min 21 sec) 
*** Reached end of trace for Core: 0 Repeating trace: traces/spec2k17/server_023.champsimtrace.xz
Heartbeat CPU 0 instructions: 110000000 cycles: 190738890 heartbeat IPC: 0.327647 cumulative IPC: 0.339579 (Simulation time: 0 hr 7 min 2 sec) 
Heartbeat CPU 0 instructions: 120000001 cycles: 220090487 heartbeat IPC: 0.340697 cumulative IPC: 0.339738 (Simulation time: 0 hr 7 min 47 sec) 
Heartbeat CPU 0 instructions: 130000000 cycles: 250298030 heartbeat IPC: 0.331043 cumulative IPC: 0.338626 (Simulation time: 0 hr 8 min 50 sec) 
Heartbeat CPU 0 instructions: 140000001 cycles: 279697102 heartbeat IPC: 0.340147 cumulative IPC: 0.338795 (Simulation time: 0 hr 10 min 2 sec) 
Heartbeat CPU 0 instructions: 150000001 cycles: 309522451 heartbeat IPC: 0.335285 cumulative IPC: 0.33844 (Simulation time: 0 hr 11 min 12 sec) 
Heartbeat CPU 0 instructions: 160000001 cycles: 339678908 heartbeat IPC: 0.331604 cumulative IPC: 0.337807 (Simulation time: 0 hr 12 min 19 sec) 
Heartbeat CPU 0 instructions: 170000000 cycles: 368949776 heartbeat IPC: 0.341637 cumulative IPC: 0.338123 (Simulation time: 0 hr 13 min 24 sec) 
Heartbeat CPU 0 instructions: 180000001 cycles: 399250187 heartbeat IPC: 0.330029 cumulative IPC: 0.337486 (Simulation time: 0 hr 14 min 31 sec) 
Heartbeat CPU 0 instructions: 190000003 cycles: 425204507 heartbeat IPC: 0.385292 cumulative IPC: 0.340504 (Simulation time: 0 hr 15 min 27 sec) 
Heartbeat CPU 0 instructions: 200000003 cycles: 454863602 heartbeat IPC: 0.337165 cumulative IPC: 0.34028 (Simulation time: 0 hr 16 min 25 sec) 
*** Reached end of trace for Core: 0 Repeating trace: traces/spec2k17/server_023.champsimtrace.xz
Heartbeat CPU 0 instructions: 210000000 cycles: 484767662 heartbeat IPC: 0.334403 cumulative IPC: 0.339906 (Simulation time: 0 hr 17 min 25 sec) 
Heartbeat CPU 0 instructions: 220000000 cycles: 514381429 heartbeat IPC: 0.337681 cumulative IPC: 0.339774 (Simulation time: 0 hr 18 min 24 sec) 
Heartbeat CPU 0 instructions: 230000001 cycles: 544188460 heartbeat IPC: 0.335491 cumulative IPC: 0.339534 (Simulation time: 0 hr 19 min 24 sec) 
Heartbeat CPU 0 instructions: 240000001 cycles: 573453801 heartbeat IPC: 0.341701 cumulative IPC: 0.339647 (Simulation time: 0 hr 20 min 20 sec) 
Heartbeat CPU 0 instructions: 250000001 cycles: 603307260 heartbeat IPC: 0.33497 cumulative IPC: 0.33941 (Simulation time: 0 hr 21 min 15 sec) 
Finished CPU 0 instructions: 200000002 cycles: 589257724 cumulative IPC: 0.33941 (Simulation time: 0 hr 21 min 15 sec) 

ChampSim completed all CPUs

Region of Interest Statistics

CPU 0 cumulative IPC: 0.33941 instructions: 200000002 cycles: 589257724
ITLB TOTAL     ACCESS:   34717526  HIT:   32909128  MISS:    1808398  HIT %:    94.7911  MISS %:    5.20889   MPKI: 9.04199
ITLB LOAD TRANSLATION ACCESS:   34717526  HIT:   32909128  MISS:    1808398  HIT %:    94.7911  MISS %:    5.20889   MPKI: 9.04199
ITLB PREFETCH  REQUESTED:          0  ISSUED:          0  USEFUL:          0  USELESS:          0
ITLB USEFUL LOAD PREFETCHES:          0 PREFETCH ISSUED TO LOWER LEVEL:          0  ACCURACY: -nan
ITLB TIMELY PREFETCHES:          0 LATE PREFETCHES: 0 DROPPED PREFETCHES: 0
ITLB PREFETCHES SAME FILL-ORIGIN LEVEL: 0 DIFFERENT FILL-ORIGIN LEVEL: 0
ITLB AVERAGE MISS LATENCY: 9.10306 cycles
ITLB RQ	ACCESS:   40431125	FORWARD:          0	MERGED:    5279064	TO_CACHE:   35152061

DTLB TOTAL     ACCESS:   44843960  HIT:   43067380  MISS:    1776580  HIT %:    96.0383  MISS %:    3.96169   MPKI: 8.8829
DTLB LOAD TRANSLATION ACCESS:   44843960  HIT:   43067380  MISS:    1776580  HIT %:    96.0383  MISS %:    3.96169   MPKI: 8.8829
DTLB PREFETCH  REQUESTED:          0  ISSUED:          0  USEFUL:          0  USELESS:          0
DTLB USEFUL LOAD PREFETCHES:          0 PREFETCH ISSUED TO LOWER LEVEL:          0  ACCURACY: -nan
DTLB TIMELY PREFETCHES:          0 LATE PREFETCHES: 0 DROPPED PREFETCHES: 0
DTLB PREFETCHES SAME FILL-ORIGIN LEVEL: 0 DIFFERENT FILL-ORIGIN LEVEL: 0
DTLB AVERAGE MISS LATENCY: 8.70383 cycles
DTLB RQ	ACCESS:   59165490	FORWARD:          0	MERGED:   14255888	TO_CACHE:   44909602

STLB TOTAL     ACCESS:   17707586  HIT:   17692249  MISS:      15337  HIT %:    99.9134  MISS %:  0.0866126   MPKI: 0.076685
STLB LOAD TRANSLATION ACCESS:    3584978  HIT:    3572531  MISS:      12447  HIT %:    99.6528  MISS %:   0.347199   MPKI: 0.062235
STLB TRANSLATION FROM L1D PREFETCHER ACCESS:   14122608  HIT:   14119718  MISS:       2890  HIT %:    99.9795  MISS %:  0.0204636   MPKI: 0.01445
STLB PREFETCH  REQUESTED:          0  ISSUED:          0  USEFUL:       1794  USELESS:       1056
STLB USEFUL LOAD PREFETCHES:       1794 PREFETCH ISSUED TO LOWER LEVEL:          0  ACCURACY: inf
STLB TIMELY PREFETCHES:       1794 LATE PREFETCHES: 393 DROPPED PREFETCHES: 217869
STLB PREFETCHES SAME FILL-ORIGIN LEVEL: 0 DIFFERENT FILL-ORIGIN LEVEL: 0
STLB AVERAGE MISS LATENCY: 59.6278 cycles
STLB RQ	ACCESS:   20756530	FORWARD:          0	MERGED:    2830347	TO_CACHE:   17926183

STLB Hit, L1D data hit: 0
STLB Hit, L2C data hit: 0
STLB Hit, LLC data hit: 0
STLB Hit, LLC data miss: 0
STLB STLB hints to L2: 0
L1D TOTAL     ACCESS:   73673472  HIT:   69413975  MISS:    4259497  HIT %:    94.2184  MISS %:    5.78159   MPKI: 21.2975
L1D LOAD      ACCESS:   33284239  HIT:   31107328  MISS:    2176911  HIT %:    93.4596  MISS %:    6.54037   MPKI: 10.8846
L1D RFO       ACCESS:   24185312  HIT:   23171063  MISS:    1014249  HIT %:    95.8063  MISS %:    4.19366   MPKI: 5.07124
L1D PREFETCH  ACCESS:   16203921  HIT:   15135584  MISS:    1068337  HIT %:    93.4069  MISS %:    6.59308   MPKI: 5.34168
AGUS PREFETCH L1 MISS: 0
L1D PREFETCH  REQUESTED:   36021502  ISSUED:   36021354  USEFUL:     698306  USELESS:     369992
L1D USEFUL LOAD PREFETCHES:     698306 PREFETCH ISSUED TO LOWER LEVEL:    1435632  ACCURACY: 48.641
L1D TIMELY PREFETCHES:     698306 LATE PREFETCHES: 364900 DROPPED PREFETCHES: 238854
L1D PREFETCHES SAME FILL-ORIGIN LEVEL: 1435632 DIFFERENT FILL-ORIGIN LEVEL: 0
L1D AVERAGE MISS LATENCY: 3.07115e+07 cycles
L1D RQ	ACCESS:   46505152	FORWARD:          0	MERGED:   12835363	TO_CACHE:   33377106
L1D WQ	ACCESS:   25954686	FORWARD:     326795	MERGED:     166302	TO_CACHE:   25788384
L1D PQ	ACCESS:   18849802	FORWARD:          0	MERGED:    1644138	TO_CACHE:   17171552

L1D UNIQUE REGIONS ACCESSED: 0
L1D REGIONS CONFLICTS: 0
L1D Cross Page Prefetch Requests: 12295360
L1D Same Page Prefetch Requests: 7546936
L1D ROI Sum of L1D PQ occupancy: 242266995
L1D PREFETCHES PUSHED FROM L2C: 0
L1I TOTAL     ACCESS:   39035727  HIT:   29567375  MISS:    9468352  HIT %:    75.7444  MISS %:    24.2556   MPKI: 47.3418
L1I LOAD      ACCESS:   39035727  HIT:   29567375  MISS:    9468352  HIT %:    75.7444  MISS %:    24.2556   MPKI: 47.3418
L1I PREFETCH  REQUESTED:          0  ISSUED:          0  USEFUL:          0  USELESS:          0
L1I USEFUL LOAD PREFETCHES:          0 PREFETCH ISSUED TO LOWER LEVEL:          0  ACCURACY: -nan
L1I TIMELY PREFETCHES:          0 LATE PREFETCHES: 0 DROPPED PREFETCHES: 0
L1I PREFETCHES SAME FILL-ORIGIN LEVEL: 0 DIFFERENT FILL-ORIGIN LEVEL: 0
L1I AVERAGE MISS LATENCY: 16.9453 cycles
L1I RQ	ACCESS:   58064684	FORWARD:          0	MERGED:   17633559	TO_CACHE:   40431125

BTB TOTAL     ACCESS:   30427151  HIT:   19331296  MISS:   11095855  HIT %:     63.533  MISS %:     36.467   MPKI: 55.4793
BTB BRANCH_DIRECT_JUMP	ACCESS:    2146752  HIT:    1371370  MISS:     775382
BTB BRANCH_INDIRECT	ACCESS:   11246235  HIT:    7076259  MISS:    4169976
BTB BRANCH_CONDITIONAL	ACCESS:    9077309  HIT:    7961256  MISS:    1116053
BTB BRANCH_DIRECT_CALL	ACCESS:    3361644  HIT:    1552306  MISS:    1809338
BTB BRANCH_INDIRECT_CALL	ACCESS:     616815  HIT:     250442  MISS:     366373
BTB BRANCH_RETURN	ACCESS:    3978396  HIT:    1119663  MISS:    2858733
BTB BRANCH_OTHER ACCESS:          0  HIT:          0  MISS:          0

L2C TOTAL     ACCESS:   15877438  HIT:   14191778  MISS:    1685660  HIT %:    89.3833  MISS %:    10.6167   MPKI: 8.4283
L2C LOAD      ACCESS:   11280333  HIT:   10113161  MISS:    1167172  HIT %:     89.653  MISS %:     10.347   MPKI: 5.83586
L2C DATA LOAD MPKI: 1.49487
L2C INSTRUCTION LOAD MPKI: 4.34098
L2C RFO       ACCESS:    1011810  HIT:     803612  MISS:     208198  HIT %:    79.4232  MISS %:    20.5768   MPKI: 1.04099
L2C PREFETCH  ACCESS:    1435464  HIT:    1221945  MISS:     213519  HIT %:    85.1254  MISS %:    14.8746   MPKI: 1.06759
AGUS PREFETCH L1 MISS: 0
L2C DATA PREFETCH MPKI: 1.06759
L2C INSTRUCTION PREFETCH MPKI: 0
L2C WRITEBACK ACCESS:    1832331  HIT:    1786673  MISS:      45658  HIT %:    97.5082  MISS %:     2.4918   MPKI: 0.22829
L2C LOAD TRANSLATION ACCESS:      13311  HIT:       4816  MISS:       8495  HIT %:    36.1806  MISS %:    63.8194   MPKI: 0.042475
L2C TRANSLATION FROM L1D PREFETCHER ACCESS:     304189  HIT:     261571  MISS:      42618  HIT %:    85.9896  MISS %:    14.0104   MPKI: 0.21309
L2C PREFETCH  REQUESTED:          0  ISSUED:          0  USEFUL:      47641  USELESS:     208354
L2C USEFUL LOAD PREFETCHES:      47641 PREFETCH ISSUED TO LOWER LEVEL:     213519  ACCURACY: 22.3123
L2C TIMELY PREFETCHES:      47641 LATE PREFETCHES: 0 DROPPED PREFETCHES: 0
L2C PREFETCHES SAME FILL-ORIGIN LEVEL: 0 DIFFERENT FILL-ORIGIN LEVEL: 0
L2C AVERAGE MISS LATENCY: 44.2079 cycles
L2C RQ	ACCESS:   12609717	FORWARD:          0	MERGED:          0	TO_CACHE:   12609643
L2C WQ	ACCESS:    1832331	FORWARD:        242	MERGED:          0	TO_CACHE:    1832331
L2C PQ	ACCESS:    1435632	FORWARD:          0	MERGED:          0	TO_CACHE:    1435464

L2C Instructions Evicting Data 356873
L2C Translations Evicting Data 28147
L2C Data Evicting Data 361932
L2C Instructions Evicting Instructions 489162
L2C Translations Evicting Instructions 21441
L2C Data Evicting Instructions 332771
L2C Instructions Evicting Translations 22162
L2C Translations Evicting Translations 1525
L2C Data Evicting Translations 25989
L2C Dense regions hint from L2: 0
PSCL5 TOTAL     ACCESS:     230156  HIT:     230156  MISS:          0  HIT %:        100  MISS %:          0   MPKI: 0
PSCL5 LOAD TRANSLATION ACCESS:      12062  HIT:      12062  MISS:          0  HIT %:        100  MISS %:          0   MPKI: 0
PSCL5 TRANSLATION FROM L1D PREFETCHER ACCESS:     218094  HIT:     218094  MISS:          0  HIT %:        100  MISS %:          0   MPKI: 0
PSCL5 PREFETCH  REQUESTED:          0  ISSUED:          0  USEFUL:          0  USELESS:          0
PSCL5 USEFUL LOAD PREFETCHES:          0 PREFETCH ISSUED TO LOWER LEVEL:          0  ACCURACY: -nan
PSCL5 TIMELY PREFETCHES:          0 LATE PREFETCHES: 0 DROPPED PREFETCHES: 0
PSCL5 PREFETCHES SAME FILL-ORIGIN LEVEL: 0 DIFFERENT FILL-ORIGIN LEVEL: 0

PSCL4 TOTAL     ACCESS:     179321  HIT:     179254  MISS:         67  HIT %:    99.9626  MISS %:  0.0373632   MPKI: 0.000335
PSCL4 LOAD TRANSLATION ACCESS:      10986  HIT:      10919  MISS:         67  HIT %:    99.3901  MISS %:   0.609867   MPKI: 0.000335
PSCL4 TRANSLATION FROM L1D PREFETCHER ACCESS:     168335  HIT:     168335  MISS:          0  HIT %:        100  MISS %:          0   MPKI: 0
PSCL4 PREFETCH  REQUESTED:          0  ISSUED:          0  USEFUL:          0  USELESS:          0
PSCL4 USEFUL LOAD PREFETCHES:          0 PREFETCH ISSUED TO LOWER LEVEL:          0  ACCURACY: -nan
PSCL4 TIMELY PREFETCHES:          0 LATE PREFETCHES: 0 DROPPED PREFETCHES: 0
PSCL4 PREFETCHES SAME FILL-ORIGIN LEVEL: 0 DIFFERENT FILL-ORIGIN LEVEL: 0

PSCL3 TOTAL     ACCESS:     192629  HIT:     192562  MISS:         67  HIT %:    99.9652  MISS %:  0.0347819   MPKI: 0.000335
PSCL3 LOAD TRANSLATION ACCESS:      11910  HIT:      11843  MISS:         67  HIT %:    99.4374  MISS %:   0.562552   MPKI: 0.000335
PSCL3 TRANSLATION FROM L1D PREFETCHER ACCESS:     180719  HIT:     180719  MISS:          0  HIT %:        100  MISS %:          0   MPKI: 0
PSCL3 PREFETCH  REQUESTED:          0  ISSUED:          0  USEFUL:          0  USELESS:          0
PSCL3 USEFUL LOAD PREFETCHES:          0 PREFETCH ISSUED TO LOWER LEVEL:          0  ACCURACY: -nan
PSCL3 TIMELY PREFETCHES:          0 LATE PREFETCHES: 0 DROPPED PREFETCHES: 0
PSCL3 PREFETCHES SAME FILL-ORIGIN LEVEL: 0 DIFFERENT FILL-ORIGIN LEVEL: 0

PSCL2 TOTAL     ACCESS:      61098  HIT:      59838  MISS:       1260  HIT %:    97.9377  MISS %:    2.06226   MPKI: 0.0063
PSCL2 LOAD TRANSLATION ACCESS:      12164  HIT:      10904  MISS:       1260  HIT %:    89.6416  MISS %:    10.3584   MPKI: 0.0063
PSCL2 TRANSLATION FROM L1D PREFETCHER ACCESS:      48934  HIT:      48934  MISS:          0  HIT %:        100  MISS %:          0   MPKI: 0
PSCL2 PREFETCH  REQUESTED:          0  ISSUED:          0  USEFUL:          0  USELESS:          0
PSCL2 USEFUL LOAD PREFETCHES:          0 PREFETCH ISSUED TO LOWER LEVEL:          0  ACCURACY: -nan
PSCL2 TIMELY PREFETCHES:          0 LATE PREFETCHES: 0 DROPPED PREFETCHES: 0
PSCL2 PREFETCHES SAME FILL-ORIGIN LEVEL: 0 DIFFERENT FILL-ORIGIN LEVEL: 0

LLC TOTAL     ACCESS:    1934136  HIT:    1781312  MISS:     152824  HIT %:    92.0986  MISS %:    7.90141   MPKI: 0.76412
LLC LOAD      ACCESS:    1167172  HIT:    1121322  MISS:      45850  HIT %:    96.0717  MISS %:     3.9283   MPKI: 0.22925
LLC RFO       ACCESS:     208197  HIT:     131634  MISS:      76563  HIT %:    63.2257  MISS %:    36.7743   MPKI: 0.382815
LLC PREFETCH  ACCESS:     213518  HIT:     187430  MISS:      26088  HIT %:    87.7818  MISS %:    12.2182   MPKI: 0.13044
AGUS PREFETCH L1 MISS: 0
LLC WRITEBACK ACCESS:     294136  HIT:     292678  MISS:       1458  HIT %:    99.5043  MISS %:   0.495689   MPKI: 0.00729
LLC LOAD TRANSLATION ACCESS:       8495  HIT:       7601  MISS:        894  HIT %:    89.4762  MISS %:    10.5238   MPKI: 0.00447
LLC TRANSLATION FROM L1D PREFETCHER ACCESS:      42618  HIT:      40647  MISS:       1971  HIT %:    95.3752  MISS %:    4.62481   MPKI: 0.009855
LLC PREFETCH  REQUESTED:          0  ISSUED:          0  USEFUL:       2995  USELESS:      24344
LLC USEFUL LOAD PREFETCHES:       2995 PREFETCH ISSUED TO LOWER LEVEL:      26088  ACCURACY: 11.4804
LLC TIMELY PREFETCHES:       2995 LATE PREFETCHES: 0 DROPPED PREFETCHES: 0
LLC PREFETCHES SAME FILL-ORIGIN LEVEL: 0 DIFFERENT FILL-ORIGIN LEVEL: 0
LLC AVERAGE MISS LATENCY: 165.362 cycles
LLC RQ	ACCESS:    1426483	FORWARD:          0	MERGED:          0	TO_CACHE:    1426482
LLC WQ	ACCESS:     294136	FORWARD:          2	MERGED:          0	TO_CACHE:     294136
LLC PQ	ACCESS:     213519	FORWARD:          0	MERGED:          0	TO_CACHE:     213518

LLC Dense regions hint to LLC: 0

RAW hits: 1398329
Loads Generated: 47903481
Loads sent to L1D: 46505152
Stores Generated: 25954684
Stores sent to L1D: 25954686
Major fault: 0 Minor fault: 2897
Allocated PAGES: 2897
Completed 

DRAM Statistics
 CHANNEL 0
 RQ ROW_BUFFER_HIT:      55110  ROW_BUFFER_MISS:      96232
 DBUS_CONGESTED:         69
 WQ ROW_BUFFER_HIT:       7883  ROW_BUFFER_MISS:      77253  FULL:          0

 AVG_CONGESTED_CYCLE: 5
 All warmup complete: 2
Channel 0 Bank busy for read cycles: 0
Channel 0 Bank busy for write cycles: 0
Channel 0
Rank 0
0banks busy for read cycles: 576291603
0banks busy for write cycles: 21810
1banks busy for read cycles: 5116521
1banks busy for write cycles: 2893251
2banks busy for read cycles: 773931
2banks busy for write cycles: 627296
3banks busy for read cycles: 347766
3banks busy for write cycles: 285616
4banks busy for read cycles: 270667
4banks busy for write cycles: 206423
5banks busy for read cycles: 206521
5banks busy for write cycles: 177316
6banks busy for read cycles: 217914
6banks busy for write cycles: 189975
7banks busy for read cycles: 230024
7banks busy for write cycles: 235687
8banks busy for read cycles: 565803
8banks busy for write cycles: 599601

CPU 0 Branch Prediction Accuracy: 99.7935% MPKI: 0.36428 Average ROB Occupancy at Mispredict: 45.9173
Branch types
NOT_BRANCH: 164718816 82.3594%
BRANCH_DIRECT_JUMP: 2146752 1.07338%
BRANCH_INDIRECT: 11246235 5.62312%
BRANCH_CONDITIONAL: 13931173 6.96559%
BRANCH_DIRECT_CALL: 3361644 1.68082%
BRANCH_INDIRECT_CALL: 616815 0.308407%
BRANCH_RETURN: 3978396 1.9892%
BRANCH_OTHER: 0 0%

DRAM PAGES: 1048576
Allocated PAGES: 2897
