
*** ChampSim Multicore Out-of-Order Simulator ***

Warmup Instructions: 50000000
Simulation Instructions: 200000000
Number of CPUs: 1
LLC sets: 2048
LLC ways: 16
Off-chip DRAM Size: 4096 MB Channels: 1 Width: 64-bit Data Rate: 6400 MT/s
CPU 0 runs traces/spec2k17/server_038.champsimtrace.xz
.xz
BTB has LRU replacement policy
ITLB has LRU replacement policy
DTLB has LRU replacement policy
STLB has LRU replacement policy
L1I has LRU replacement policy
L1D has LRU replacement policy
Initialize SRRIP state for L2C
Initialize DRRIP state for LLC
Heartbeat CPU 0 instructions: 10000000 cycles: 2795776 heartbeat IPC: 3.57682 cumulative IPC: 3.57682 (Simulation time: 0 hr 0 min 35 sec) 
Heartbeat CPU 0 instructions: 20000002 cycles: 5599201 heartbeat IPC: 3.56707 cumulative IPC: 3.57194 (Simulation time: 0 hr 1 min 7 sec) 
Heartbeat CPU 0 instructions: 30000003 cycles: 8404733 heartbeat IPC: 3.56439 cumulative IPC: 3.56942 (Simulation time: 0 hr 1 min 42 sec) 
Heartbeat CPU 0 instructions: 40000001 cycles: 11212023 heartbeat IPC: 3.56215 cumulative IPC: 3.5676 (Simulation time: 0 hr 2 min 17 sec) 
Heartbeat CPU 0 instructions: 50000001 cycles: 14019990 heartbeat IPC: 3.5613 cumulative IPC: 3.56634 (Simulation time: 0 hr 2 min 52 sec) 

Warmup complete CPU 0 instructions: 50000001 cycles: 14019990 (Simulation time: 0 hr 2 min 52 sec) 

Heartbeat CPU 0 instructions: 60000000 cycles: 34173653 heartbeat IPC: 0.496188 cumulative IPC: 0.496188 (Simulation time: 0 hr 3 min 40 sec) 
Heartbeat CPU 0 instructions: 70000000 cycles: 54136926 heartbeat IPC: 0.50092 cumulative IPC: 0.498543 (Simulation time: 0 hr 4 min 24 sec) 
Heartbeat CPU 0 instructions: 80000000 cycles: 74093799 heartbeat IPC: 0.501081 cumulative IPC: 0.499386 (Simulation time: 0 hr 5 min 5 sec) 
Heartbeat CPU 0 instructions: 90000001 cycles: 94075016 heartbeat IPC: 0.50047 cumulative IPC: 0.499656 (Simulation time: 0 hr 5 min 49 sec) 
Heartbeat CPU 0 instructions: 100000002 cycles: 114045392 heartbeat IPC: 0.500742 cumulative IPC: 0.499873 (Simulation time: 0 hr 6 min 40 sec) 
*** Reached end of trace for Core: 0 Repeating trace: traces/spec2k17/server_038.champsimtrace.xz
Heartbeat CPU 0 instructions: 110000000 cycles: 134139924 heartbeat IPC: 0.497648 cumulative IPC: 0.499501 (Simulation time: 0 hr 7 min 34 sec) 
Heartbeat CPU 0 instructions: 120000003 cycles: 154167286 heartbeat IPC: 0.499317 cumulative IPC: 0.499474 (Simulation time: 0 hr 8 min 31 sec) 
Heartbeat CPU 0 instructions: 130000001 cycles: 174130996 heartbeat IPC: 0.500909 cumulative IPC: 0.499653 (Simulation time: 0 hr 9 min 31 sec) 
Heartbeat CPU 0 instructions: 140000001 cycles: 194098928 heartbeat IPC: 0.500803 cumulative IPC: 0.499781 (Simulation time: 0 hr 10 min 29 sec) 
Heartbeat CPU 0 instructions: 150000002 cycles: 214069843 heartbeat IPC: 0.500728 cumulative IPC: 0.499875 (Simulation time: 0 hr 11 min 28 sec) 
Heartbeat CPU 0 instructions: 160000000 cycles: 234091879 heartbeat IPC: 0.49945 cumulative IPC: 0.499837 (Simulation time: 0 hr 12 min 28 sec) 
Heartbeat CPU 0 instructions: 170000002 cycles: 254007507 heartbeat IPC: 0.502118 cumulative IPC: 0.500026 (Simulation time: 0 hr 13 min 27 sec) 
Heartbeat CPU 0 instructions: 180000000 cycles: 273914918 heartbeat IPC: 0.502325 cumulative IPC: 0.500202 (Simulation time: 0 hr 14 min 28 sec) 
Heartbeat CPU 0 instructions: 190000002 cycles: 293838787 heartbeat IPC: 0.501911 cumulative IPC: 0.500324 (Simulation time: 0 hr 15 min 26 sec) 
Heartbeat CPU 0 instructions: 200000001 cycles: 313763484 heartbeat IPC: 0.50189 cumulative IPC: 0.500428 (Simulation time: 0 hr 16 min 26 sec) 
*** Reached end of trace for Core: 0 Repeating trace: traces/spec2k17/server_038.champsimtrace.xz
Heartbeat CPU 0 instructions: 210000003 cycles: 333823314 heartbeat IPC: 0.498509 cumulative IPC: 0.500308 (Simulation time: 0 hr 17 min 26 sec) 
Heartbeat CPU 0 instructions: 220000000 cycles: 353865116 heartbeat IPC: 0.498957 cumulative IPC: 0.500228 (Simulation time: 0 hr 18 min 26 sec) 
Heartbeat CPU 0 instructions: 230000003 cycles: 373798332 heartbeat IPC: 0.501675 cumulative IPC: 0.500308 (Simulation time: 0 hr 19 min 25 sec) 
Heartbeat CPU 0 instructions: 240000001 cycles: 393811465 heartbeat IPC: 0.499672 cumulative IPC: 0.500275 (Simulation time: 0 hr 20 min 25 sec) 
Heartbeat CPU 0 instructions: 250000001 cycles: 413796532 heartbeat IPC: 0.500374 cumulative IPC: 0.500279 (Simulation time: 0 hr 21 min 24 sec) 
Finished CPU 0 instructions: 200000000 cycles: 399776542 cumulative IPC: 0.500279 (Simulation time: 0 hr 21 min 24 sec) 

ChampSim completed all CPUs

Region of Interest Statistics

CPU 0 cumulative IPC: 0.500279 instructions: 200000000 cycles: 399776542
ITLB TOTAL     ACCESS:   35175698  HIT:   32682987  MISS:    2492711  HIT %:    92.9135  MISS %:    7.08646   MPKI: 12.4636
ITLB LOAD TRANSLATION ACCESS:   35175698  HIT:   32682987  MISS:    2492711  HIT %:    92.9135  MISS %:    7.08646   MPKI: 12.4636
ITLB PREFETCH  REQUESTED:          0  ISSUED:          0  USEFUL:          0  USELESS:          0
ITLB USEFUL LOAD PREFETCHES:          0 PREFETCH ISSUED TO LOWER LEVEL:          0  ACCURACY: -nan
ITLB TIMELY PREFETCHES:          0 LATE PREFETCHES: 0 DROPPED PREFETCHES: 0
ITLB PREFETCHES SAME FILL-ORIGIN LEVEL: 0 DIFFERENT FILL-ORIGIN LEVEL: 0
ITLB AVERAGE MISS LATENCY: 9.01669 cycles
ITLB RQ	ACCESS:   41440591	FORWARD:          0	MERGED:    5454235	TO_CACHE:   35986356

DTLB TOTAL     ACCESS:   40167599  HIT:   38171015  MISS:    1996584  HIT %:    95.0294  MISS %:    4.97063   MPKI: 9.98292
DTLB LOAD TRANSLATION ACCESS:   40167599  HIT:   38171015  MISS:    1996584  HIT %:    95.0294  MISS %:    4.97063   MPKI: 9.98292
DTLB PREFETCH  REQUESTED:          0  ISSUED:          0  USEFUL:          0  USELESS:          0
DTLB USEFUL LOAD PREFETCHES:          0 PREFETCH ISSUED TO LOWER LEVEL:          0  ACCURACY: -nan
DTLB TIMELY PREFETCHES:          0 LATE PREFETCHES: 0 DROPPED PREFETCHES: 0
DTLB PREFETCHES SAME FILL-ORIGIN LEVEL: 0 DIFFERENT FILL-ORIGIN LEVEL: 0
DTLB AVERAGE MISS LATENCY: 8.97579 cycles
DTLB RQ	ACCESS:   55970971	FORWARD:          0	MERGED:   15669943	TO_CACHE:   40301028

STLB TOTAL     ACCESS:   13296786  HIT:   13273584  MISS:      23202  HIT %:    99.8255  MISS %:   0.174493   MPKI: 0.11601
STLB LOAD TRANSLATION ACCESS:    4489295  HIT:    4466458  MISS:      22837  HIT %:    99.4913  MISS %:   0.508699   MPKI: 0.114185
STLB TRANSLATION FROM L1D PREFETCHER ACCESS:    8807491  HIT:    8807126  MISS:        365  HIT %:    99.9959  MISS %:  0.0041442   MPKI: 0.001825
STLB PREFETCH  REQUESTED:          0  ISSUED:          0  USEFUL:        264  USELESS:         96
STLB USEFUL LOAD PREFETCHES:        264 PREFETCH ISSUED TO LOWER LEVEL:          0  ACCURACY: inf
STLB TIMELY PREFETCHES:        264 LATE PREFETCHES: 7 DROPPED PREFETCHES: 276129
STLB PREFETCHES SAME FILL-ORIGIN LEVEL: 0 DIFFERENT FILL-ORIGIN LEVEL: 0
STLB AVERAGE MISS LATENCY: 57.1668 cycles
STLB RQ	ACCESS:   16289556	FORWARD:          0	MERGED:    2716290	TO_CACHE:   13573266

STLB Hit, L1D data hit: 0
STLB Hit, L2C data hit: 0
STLB Hit, LLC data hit: 0
STLB Hit, LLC data miss: 0
STLB STLB hints to L2: 0
L1D TOTAL     ACCESS:   66815652  HIT:   64840065  MISS:    1975587  HIT %:    97.0432  MISS %:    2.95677   MPKI: 9.87794
L1D LOAD      ACCESS:   31359974  HIT:   29980754  MISS:    1379220  HIT %:     95.602  MISS %:    4.39803   MPKI: 6.8961
L1D RFO       ACCESS:   24234085  HIT:   23982653  MISS:     251432  HIT %:    98.9625  MISS %:    1.03751   MPKI: 1.25716
L1D PREFETCH  ACCESS:   11221593  HIT:   10876658  MISS:     344935  HIT %:    96.9261  MISS %:    3.07385   MPKI: 1.72467
AGUS PREFETCH L1 MISS: 0
L1D PREFETCH  REQUESTED:   25267205  ISSUED:   25266369  USEFUL:     138253  USELESS:     206622
L1D USEFUL LOAD PREFETCHES:     138253 PREFETCH ISSUED TO LOWER LEVEL:     438825  ACCURACY: 31.5053
L1D TIMELY PREFETCHES:     138253 LATE PREFETCHES: 87852 DROPPED PREFETCHES: 301237
L1D PREFETCHES SAME FILL-ORIGIN LEVEL: 438825 DIFFERENT FILL-ORIGIN LEVEL: 0
L1D AVERAGE MISS LATENCY: 1.20696e+07 cycles
L1D RQ	ACCESS:   45989050	FORWARD:          0	MERGED:   14270821	TO_CACHE:   31461603
L1D WQ	ACCESS:   24697059	FORWARD:     321052	MERGED:     187691	TO_CACHE:   24509368
L1D PQ	ACCESS:   13466108	FORWARD:          0	MERGED:    1601421	TO_CACHE:   11800261

L1D UNIQUE REGIONS ACCESSED: 0
L1D REGIONS CONFLICTS: 0
L1D Cross Page Prefetch Requests: 8468167
L1D Same Page Prefetch Requests: 7306521
L1D ROI Sum of L1D PQ occupancy: 170231975
L1D PREFETCHES PUSHED FROM L2C: 0
L1I TOTAL     ACCESS:   37495041  HIT:   22056549  MISS:   15438492  HIT %:    58.8252  MISS %:    41.1748   MPKI: 77.1925
L1I LOAD      ACCESS:   37495041  HIT:   22056549  MISS:   15438492  HIT %:    58.8252  MISS %:    41.1748   MPKI: 77.1925
L1I PREFETCH  REQUESTED:          0  ISSUED:          0  USEFUL:          0  USELESS:          0
L1I USEFUL LOAD PREFETCHES:          0 PREFETCH ISSUED TO LOWER LEVEL:          0  ACCURACY: -nan
L1I TIMELY PREFETCHES:          0 LATE PREFETCHES: 0 DROPPED PREFETCHES: 0
L1I PREFETCHES SAME FILL-ORIGIN LEVEL: 0 DIFFERENT FILL-ORIGIN LEVEL: 0
L1I AVERAGE MISS LATENCY: 14.1342 cycles
L1I RQ	ACCESS:   62468126	FORWARD:          0	MERGED:   21027535	TO_CACHE:   41440591

BTB TOTAL     ACCESS:   28064304  HIT:   24482603  MISS:    3581701  HIT %:    87.2375  MISS %:    12.7625   MPKI: 17.9085
BTB BRANCH_DIRECT_JUMP	ACCESS:    2068715  HIT:    1958904  MISS:     109811
BTB BRANCH_INDIRECT	ACCESS:   12589489  HIT:   11340070  MISS:    1249419
BTB BRANCH_CONDITIONAL	ACCESS:    3946651  HIT:    3830860  MISS:     115791
BTB BRANCH_DIRECT_CALL	ACCESS:    3834256  HIT:    3580645  MISS:     253611
BTB BRANCH_INDIRECT_CALL	ACCESS:     895479  HIT:     719752  MISS:     175727
BTB BRANCH_RETURN	ACCESS:    4729714  HIT:    3052372  MISS:    1677342
BTB BRANCH_OTHER ACCESS:          0  HIT:          0  MISS:          0

L2C TOTAL     ACCESS:   18816603  HIT:   18147915  MISS:     668688  HIT %:    96.4463  MISS %:    3.55371   MPKI: 3.34344
L2C LOAD      ACCESS:   16729816  HIT:   16298716  MISS:     431100  HIT %:    97.4232  MISS %:    2.57684   MPKI: 2.1555
L2C DATA LOAD MPKI: 2.03071
L2C INSTRUCTION LOAD MPKI: 0.12479
L2C RFO       ACCESS:     245394  HIT:     146868  MISS:      98526  HIT %:    59.8499  MISS %:    40.1501   MPKI: 0.49263
L2C PREFETCH  ACCESS:     438820  HIT:     346894  MISS:      91926  HIT %:    79.0515  MISS %:    20.9485   MPKI: 0.45963
AGUS PREFETCH L1 MISS: 0
L2C DATA PREFETCH MPKI: 0.45963
L2C INSTRUCTION PREFETCH MPKI: 0
L2C WRITEBACK ACCESS:     908977  HIT:     894069  MISS:      14908  HIT %:    98.3599  MISS %:    1.64009   MPKI: 0.07454
L2C LOAD TRANSLATION ACCESS:      31523  HIT:      12270  MISS:      19253  HIT %:     38.924  MISS %:     61.076   MPKI: 0.096265
L2C TRANSLATION FROM L1D PREFETCHER ACCESS:     462073  HIT:     449098  MISS:      12975  HIT %:     97.192  MISS %:      2.808   MPKI: 0.064875
L2C PREFETCH  REQUESTED:          0  ISSUED:          0  USEFUL:      13490  USELESS:      90993
L2C USEFUL LOAD PREFETCHES:      13490 PREFETCH ISSUED TO LOWER LEVEL:      91926  ACCURACY: 14.6748
L2C TIMELY PREFETCHES:      13490 LATE PREFETCHES: 0 DROPPED PREFETCHES: 0
L2C PREFETCHES SAME FILL-ORIGIN LEVEL: 0 DIFFERENT FILL-ORIGIN LEVEL: 0
L2C AVERAGE MISS LATENCY: 48.9171 cycles
L2C RQ	ACCESS:   17468850	FORWARD:          0	MERGED:          0	TO_CACHE:   17468806
L2C WQ	ACCESS:     908977	FORWARD:         49	MERGED:          0	TO_CACHE:     908977
L2C PQ	ACCESS:     438825	FORWARD:          0	MERGED:          0	TO_CACHE:     438820

L2C Instructions Evicting Data 22265
L2C Translations Evicting Data 29248
L2C Data Evicting Data 546395
L2C Instructions Evicting Instructions 1458
L2C Translations Evicting Instructions 1222
L2C Data Evicting Instructions 21586
L2C Instructions Evicting Translations 1235
L2C Translations Evicting Translations 1758
L2C Data Evicting Translations 28613
L2C Dense regions hint from L2: 0
PSCL5 TOTAL     ACCESS:     292355  HIT:     292355  MISS:          0  HIT %:        100  MISS %:          0   MPKI: 0
PSCL5 LOAD TRANSLATION ACCESS:      22833  HIT:      22833  MISS:          0  HIT %:        100  MISS %:          0   MPKI: 0
PSCL5 TRANSLATION FROM L1D PREFETCHER ACCESS:     269522  HIT:     269522  MISS:          0  HIT %:        100  MISS %:          0   MPKI: 0
PSCL5 PREFETCH  REQUESTED:          0  ISSUED:          0  USEFUL:          0  USELESS:          0
PSCL5 USEFUL LOAD PREFETCHES:          0 PREFETCH ISSUED TO LOWER LEVEL:          0  ACCURACY: -nan
PSCL5 TIMELY PREFETCHES:          0 LATE PREFETCHES: 0 DROPPED PREFETCHES: 0
PSCL5 PREFETCHES SAME FILL-ORIGIN LEVEL: 0 DIFFERENT FILL-ORIGIN LEVEL: 0

PSCL4 TOTAL     ACCESS:     221300  HIT:     221290  MISS:         10  HIT %:    99.9955  MISS %: 0.00451875   MPKI: 5e-05
PSCL4 LOAD TRANSLATION ACCESS:      22447  HIT:      22437  MISS:         10  HIT %:    99.9555  MISS %:  0.0445494   MPKI: 5e-05
PSCL4 TRANSLATION FROM L1D PREFETCHER ACCESS:     198853  HIT:     198853  MISS:          0  HIT %:        100  MISS %:          0   MPKI: 0
PSCL4 PREFETCH  REQUESTED:          0  ISSUED:          0  USEFUL:          0  USELESS:          0
PSCL4 USEFUL LOAD PREFETCHES:          0 PREFETCH ISSUED TO LOWER LEVEL:          0  ACCURACY: -nan
PSCL4 TIMELY PREFETCHES:          0 LATE PREFETCHES: 0 DROPPED PREFETCHES: 0
PSCL4 PREFETCHES SAME FILL-ORIGIN LEVEL: 0 DIFFERENT FILL-ORIGIN LEVEL: 0

PSCL3 TOTAL     ACCESS:     219777  HIT:     219693  MISS:         84  HIT %:    99.9618  MISS %:  0.0382206   MPKI: 0.00042
PSCL3 LOAD TRANSLATION ACCESS:      22779  HIT:      22695  MISS:         84  HIT %:    99.6312  MISS %:   0.368761   MPKI: 0.00042
PSCL3 TRANSLATION FROM L1D PREFETCHER ACCESS:     196998  HIT:     196998  MISS:          0  HIT %:        100  MISS %:          0   MPKI: 0
PSCL3 PREFETCH  REQUESTED:          0  ISSUED:          0  USEFUL:          0  USELESS:          0
PSCL3 USEFUL LOAD PREFETCHES:          0 PREFETCH ISSUED TO LOWER LEVEL:          0  ACCURACY: -nan
PSCL3 TIMELY PREFETCHES:          0 LATE PREFETCHES: 0 DROPPED PREFETCHES: 0
PSCL3 PREFETCHES SAME FILL-ORIGIN LEVEL: 0 DIFFERENT FILL-ORIGIN LEVEL: 0

PSCL2 TOTAL     ACCESS:      34839  HIT:      26078  MISS:       8761  HIT %:    74.8529  MISS %:    25.1471   MPKI: 0.043805
PSCL2 LOAD TRANSLATION ACCESS:      22974  HIT:      14213  MISS:       8761  HIT %:    61.8656  MISS %:    38.1344   MPKI: 0.043805
PSCL2 TRANSLATION FROM L1D PREFETCHER ACCESS:      11865  HIT:      11865  MISS:          0  HIT %:        100  MISS %:          0   MPKI: 0
PSCL2 PREFETCH  REQUESTED:          0  ISSUED:          0  USEFUL:          0  USELESS:          0
PSCL2 USEFUL LOAD PREFETCHES:          0 PREFETCH ISSUED TO LOWER LEVEL:          0  ACCURACY: -nan
PSCL2 TIMELY PREFETCHES:          0 LATE PREFETCHES: 0 DROPPED PREFETCHES: 0
PSCL2 PREFETCHES SAME FILL-ORIGIN LEVEL: 0 DIFFERENT FILL-ORIGIN LEVEL: 0

LLC TOTAL     ACCESS:     940113  HIT:     857407  MISS:      82706  HIT %:    91.2025  MISS %:    8.79745   MPKI: 0.41353
LLC LOAD      ACCESS:     431099  HIT:     373610  MISS:      57489  HIT %:    86.6645  MISS %:    13.3355   MPKI: 0.287445
LLC RFO       ACCESS:      98525  HIT:      79913  MISS:      18612  HIT %:    81.1094  MISS %:    18.8906   MPKI: 0.09306
LLC PREFETCH  ACCESS:      91926  HIT:      86929  MISS:       4997  HIT %:    94.5641  MISS %:    5.43589   MPKI: 0.024985
AGUS PREFETCH L1 MISS: 0
LLC WRITEBACK ACCESS:     286335  HIT:     285649  MISS:        686  HIT %:    99.7604  MISS %:    0.23958   MPKI: 0.00343
LLC LOAD TRANSLATION ACCESS:      19253  HIT:      18852  MISS:        401  HIT %:    97.9172  MISS %:    2.08279   MPKI: 0.002005
LLC TRANSLATION FROM L1D PREFETCHER ACCESS:      12975  HIT:      12454  MISS:        521  HIT %:    95.9846  MISS %:    4.01541   MPKI: 0.002605
LLC PREFETCH  REQUESTED:          0  ISSUED:          0  USEFUL:        631  USELESS:       3518
LLC USEFUL LOAD PREFETCHES:        631 PREFETCH ISSUED TO LOWER LEVEL:       4997  ACCURACY: 12.6276
LLC TIMELY PREFETCHES:        631 LATE PREFETCHES: 0 DROPPED PREFETCHES: 0
LLC PREFETCHES SAME FILL-ORIGIN LEVEL: 0 DIFFERENT FILL-ORIGIN LEVEL: 0
LLC AVERAGE MISS LATENCY: 158.261 cycles
LLC RQ	ACCESS:     561854	FORWARD:          0	MERGED:          0	TO_CACHE:     561852
LLC WQ	ACCESS:     286335	FORWARD:          2	MERGED:          0	TO_CACHE:     286335
LLC PQ	ACCESS:      91926	FORWARD:          0	MERGED:          0	TO_CACHE:      91926

LLC Dense regions hint to LLC: 0

RAW hits: 2110704
Loads Generated: 48099756
Loads sent to L1D: 45989050
Stores Generated: 24697058
Stores sent to L1D: 24697059
Major fault: 0 Minor fault: 5748
Allocated PAGES: 5748
Completed 

DRAM Statistics
 CHANNEL 0
 RQ ROW_BUFFER_HIT:      19365  ROW_BUFFER_MISS:      62651
 DBUS_CONGESTED:         11
 WQ ROW_BUFFER_HIT:       3746  ROW_BUFFER_MISS:      29108  FULL:          0

 AVG_CONGESTED_CYCLE: 6
 All warmup complete: 2
Channel 0 Bank busy for read cycles: 0
Channel 0 Bank busy for write cycles: 0
Channel 0
Rank 0
0banks busy for read cycles: 387156357
0banks busy for write cycles: 22691
1banks busy for read cycles: 7212916
1banks busy for write cycles: 3393762
2banks busy for read cycles: 853382
2banks busy for write cycles: 623747
3banks busy for read cycles: 140252
3banks busy for write cycles: 90087
4banks busy for read cycles: 27231
4banks busy for write cycles: 57818
5banks busy for read cycles: 30507
5banks busy for write cycles: 20265
6banks busy for read cycles: 32261
6banks busy for write cycles: 15063
7banks busy for read cycles: 35778
7banks busy for write cycles: 12312
8banks busy for read cycles: 41115
8banks busy for write cycles: 10999

CPU 0 Branch Prediction Accuracy: 99.9778% MPKI: 0.038155 Average ROB Occupancy at Mispredict: 24.0515
Branch types
NOT_BRANCH: 165656550 82.8283%
BRANCH_DIRECT_JUMP: 2068715 1.03436%
BRANCH_INDIRECT: 12589489 6.29474%
BRANCH_CONDITIONAL: 10225817 5.11291%
BRANCH_DIRECT_CALL: 3834256 1.91713%
BRANCH_INDIRECT_CALL: 895479 0.44774%
BRANCH_RETURN: 4729714 2.36486%
BRANCH_OTHER: 0 0%

DRAM PAGES: 1048576
Allocated PAGES: 5748
