
*** ChampSim Multicore Out-of-Order Simulator ***

Warmup Instructions: 50000000
Simulation Instructions: 200000000
Number of CPUs: 1
LLC sets: 2048
LLC ways: 16
Off-chip DRAM Size: 4096 MB Channels: 1 Width: 64-bit Data Rate: 6400 MT/s
CPU 0 runs traces/spec2k17/server_019.champsimtrace.xz
.xz
BTB has LRU replacement policy
ITLB has LRU replacement policy
DTLB has LRU replacement policy
STLB has LRU replacement policy
L1I has LRU replacement policy
L1D has LRU replacement policy
Initialize SRRIP state for L2C
Initialize DRRIP state for LLC
Heartbeat CPU 0 instructions: 10000001 cycles: 2944017 heartbeat IPC: 3.39672 cumulative IPC: 3.39672 (Simulation time: 0 hr 0 min 47 sec) 
Heartbeat CPU 0 instructions: 20000002 cycles: 5888037 heartbeat IPC: 3.39672 cumulative IPC: 3.39672 (Simulation time: 0 hr 1 min 32 sec) 
Heartbeat CPU 0 instructions: 30000000 cycles: 8830042 heartbeat IPC: 3.39904 cumulative IPC: 3.39749 (Simulation time: 0 hr 2 min 16 sec) 
Heartbeat CPU 0 instructions: 40000003 cycles: 11778279 heartbeat IPC: 3.39186 cumulative IPC: 3.39608 (Simulation time: 0 hr 3 min 0 sec) 
Heartbeat CPU 0 instructions: 50000000 cycles: 14718194 heartbeat IPC: 3.40146 cumulative IPC: 3.39716 (Simulation time: 0 hr 3 min 43 sec) 

Warmup complete CPU 0 instructions: 50000004 cycles: 14718195 (Simulation time: 0 hr 3 min 43 sec) 

Heartbeat CPU 0 instructions: 60000000 cycles: 37788496 heartbeat IPC: 0.433458 cumulative IPC: 0.433458 (Simulation time: 0 hr 5 min 11 sec) 
Heartbeat CPU 0 instructions: 70000000 cycles: 59230105 heartbeat IPC: 0.466383 cumulative IPC: 0.449318 (Simulation time: 0 hr 6 min 25 sec) 
Heartbeat CPU 0 instructions: 80000000 cycles: 92820815 heartbeat IPC: 0.297701 cumulative IPC: 0.38411 (Simulation time: 0 hr 7 min 40 sec) 
Heartbeat CPU 0 instructions: 90000000 cycles: 116363407 heartbeat IPC: 0.424762 cumulative IPC: 0.393526 (Simulation time: 0 hr 8 min 50 sec) 
Heartbeat CPU 0 instructions: 100000000 cycles: 138431476 heartbeat IPC: 0.453143 cumulative IPC: 0.40416 (Simulation time: 0 hr 10 min 5 sec) 
*** Reached end of trace for Core: 0 Repeating trace: traces/spec2k17/server_019.champsimtrace.xz
Heartbeat CPU 0 instructions: 110000000 cycles: 159692101 heartbeat IPC: 0.470353 cumulative IPC: 0.413868 (Simulation time: 0 hr 11 min 20 sec) 
Heartbeat CPU 0 instructions: 120000003 cycles: 180035620 heartbeat IPC: 0.491557 cumulative IPC: 0.423428 (Simulation time: 0 hr 12 min 37 sec) 
Heartbeat CPU 0 instructions: 130000000 cycles: 199587993 heartbeat IPC: 0.511447 cumulative IPC: 0.432737 (Simulation time: 0 hr 13 min 49 sec) 
Heartbeat CPU 0 instructions: 140000001 cycles: 219015679 heartbeat IPC: 0.514729 cumulative IPC: 0.440534 (Simulation time: 0 hr 14 min 58 sec) 
Heartbeat CPU 0 instructions: 150000003 cycles: 238566701 heartbeat IPC: 0.511482 cumulative IPC: 0.446731 (Simulation time: 0 hr 16 min 9 sec) 
Heartbeat CPU 0 instructions: 160000000 cycles: 257907171 heartbeat IPC: 0.51705 cumulative IPC: 0.452323 (Simulation time: 0 hr 17 min 19 sec) 
Heartbeat CPU 0 instructions: 170000000 cycles: 280980671 heartbeat IPC: 0.433398 cumulative IPC: 0.450683 (Simulation time: 0 hr 18 min 36 sec) 
Heartbeat CPU 0 instructions: 180000000 cycles: 304927196 heartbeat IPC: 0.417597 cumulative IPC: 0.447953 (Simulation time: 0 hr 19 min 51 sec) 
Heartbeat CPU 0 instructions: 190000001 cycles: 336321618 heartbeat IPC: 0.318528 cumulative IPC: 0.435319 (Simulation time: 0 hr 21 min 11 sec) 
Heartbeat CPU 0 instructions: 200000002 cycles: 359089791 heartbeat IPC: 0.43921 cumulative IPC: 0.435576 (Simulation time: 0 hr 22 min 28 sec) 
Heartbeat CPU 0 instructions: 210000000 cycles: 380947749 heartbeat IPC: 0.457499 cumulative IPC: 0.436884 (Simulation time: 0 hr 23 min 43 sec) 
*** Reached end of trace for Core: 0 Repeating trace: traces/spec2k17/server_019.champsimtrace.xz
Heartbeat CPU 0 instructions: 220000000 cycles: 401674540 heartbeat IPC: 0.482467 cumulative IPC: 0.439326 (Simulation time: 0 hr 24 min 50 sec) 
Heartbeat CPU 0 instructions: 230000000 cycles: 421876429 heartbeat IPC: 0.495003 cumulative IPC: 0.442089 (Simulation time: 0 hr 26 min 1 sec) 
Heartbeat CPU 0 instructions: 240000003 cycles: 441669614 heartbeat IPC: 0.505225 cumulative IPC: 0.445015 (Simulation time: 0 hr 27 min 17 sec) 
Heartbeat CPU 0 instructions: 250000000 cycles: 461393688 heartbeat IPC: 0.506994 cumulative IPC: 0.447752 (Simulation time: 0 hr 28 min 23 sec) 
Finished CPU 0 instructions: 200000000 cycles: 446675495 cumulative IPC: 0.447752 (Simulation time: 0 hr 28 min 23 sec) 

ChampSim completed all CPUs

Region of Interest Statistics

CPU 0 cumulative IPC: 0.447752 instructions: 200000000 cycles: 446675495
ITLB TOTAL     ACCESS:   33604713  HIT:   32175149  MISS:    1429564  HIT %:    95.7459  MISS %:    4.25406   MPKI: 7.14782
ITLB LOAD TRANSLATION ACCESS:   33604713  HIT:   32175149  MISS:    1429564  HIT %:    95.7459  MISS %:    4.25406   MPKI: 7.14782
ITLB PREFETCH  REQUESTED:          0  ISSUED:          0  USEFUL:          0  USELESS:          0
ITLB USEFUL LOAD PREFETCHES:          0 PREFETCH ISSUED TO LOWER LEVEL:          0  ACCURACY: -nan
ITLB TIMELY PREFETCHES:          0 LATE PREFETCHES: 0 DROPPED PREFETCHES: 0
ITLB PREFETCHES SAME FILL-ORIGIN LEVEL: 0 DIFFERENT FILL-ORIGIN LEVEL: 0
ITLB AVERAGE MISS LATENCY: 9.41602 cycles
ITLB RQ	ACCESS:   40243456	FORWARD:          0	MERGED:    6178636	TO_CACHE:   34064820

DTLB TOTAL     ACCESS:   38849359  HIT:   37251954  MISS:    1597405  HIT %:    95.8882  MISS %:    4.11179   MPKI: 7.98703
DTLB LOAD TRANSLATION ACCESS:   38849359  HIT:   37251954  MISS:    1597405  HIT %:    95.8882  MISS %:    4.11179   MPKI: 7.98703
DTLB PREFETCH  REQUESTED:          0  ISSUED:          0  USEFUL:          0  USELESS:          0
DTLB USEFUL LOAD PREFETCHES:          0 PREFETCH ISSUED TO LOWER LEVEL:          0  ACCURACY: -nan
DTLB TIMELY PREFETCHES:          0 LATE PREFETCHES: 0 DROPPED PREFETCHES: 0
DTLB PREFETCHES SAME FILL-ORIGIN LEVEL: 0 DIFFERENT FILL-ORIGIN LEVEL: 0
DTLB AVERAGE MISS LATENCY: 19.8957 cycles
DTLB RQ	ACCESS:   58833779	FORWARD:          0	MERGED:   19618286	TO_CACHE:   39215493

STLB TOTAL     ACCESS:    9156887  HIT:    8986593  MISS:     170294  HIT %:    98.1403  MISS %:    1.85974   MPKI: 0.85147
STLB LOAD TRANSLATION ACCESS:    3026969  HIT:    2860040  MISS:     166929  HIT %:    94.4853  MISS %:    5.51472   MPKI: 0.834645
STLB TRANSLATION FROM L1D PREFETCHER ACCESS:    6129918  HIT:    6126553  MISS:       3365  HIT %:    99.9451  MISS %:  0.0548947   MPKI: 0.016825
STLB PREFETCH  REQUESTED:          0  ISSUED:          0  USEFUL:       2957  USELESS:        407
STLB USEFUL LOAD PREFETCHES:       2957 PREFETCH ISSUED TO LOWER LEVEL:          0  ACCURACY: inf
STLB TIMELY PREFETCHES:       2957 LATE PREFETCHES: 1018 DROPPED PREFETCHES: 27448
STLB PREFETCHES SAME FILL-ORIGIN LEVEL: 0 DIFFERENT FILL-ORIGIN LEVEL: 0
STLB AVERAGE MISS LATENCY: 87501.1 cycles
STLB RQ	ACCESS:   11856977	FORWARD:          0	MERGED:    2671193	TO_CACHE:    9185784

STLB Hit, L1D data hit: 0
STLB Hit, L2C data hit: 0
STLB Hit, LLC data hit: 0
STLB Hit, LLC data miss: 0
STLB STLB hints to L2: 0
L1D TOTAL     ACCESS:   55185423  HIT:   48260792  MISS:    6924631  HIT %:    87.4521  MISS %:    12.5479   MPKI: 34.6232
L1D LOAD      ACCESS:   26032919  HIT:   23050857  MISS:    2982062  HIT %:     88.545  MISS %:     11.455   MPKI: 14.9103
L1D RFO       ACCESS:   21621915  HIT:   18073766  MISS:    3548149  HIT %:      83.59  MISS %:      16.41   MPKI: 17.7407
L1D PREFETCH  ACCESS:    7530589  HIT:    7136169  MISS:     394420  HIT %:    94.7624  MISS %:    5.23757   MPKI: 1.9721
AGUS PREFETCH L1 MISS: 0
L1D PREFETCH  REQUESTED:   19092193  ISSUED:   19090810  USEFUL:     227486  USELESS:     166923
L1D USEFUL LOAD PREFETCHES:     227486 PREFETCH ISSUED TO LOWER LEVEL:     800515  ACCURACY: 28.4175
L1D TIMELY PREFETCHES:     227486 LATE PREFETCHES: 403856 DROPPED PREFETCHES: 28350
L1D PREFETCHES SAME FILL-ORIGIN LEVEL: 800515 DIFFERENT FILL-ORIGIN LEVEL: 0
L1D AVERAGE MISS LATENCY: 1.48256e+07 cycles
L1D RQ	ACCESS:   44253723	FORWARD:          0	MERGED:   17583244	TO_CACHE:   26412593
L1D WQ	ACCESS:   32636784	FORWARD:     289215	MERGED:     215598	TO_CACHE:   32421186
L1D PQ	ACCESS:   10260803	FORWARD:          0	MERGED:    1399467	TO_CACHE:    8830007

L1D UNIQUE REGIONS ACCESSED: 0
L1D REGIONS CONFLICTS: 0
L1D Cross Page Prefetch Requests: 4072455
L1D Same Page Prefetch Requests: 7917648
L1D ROI Sum of L1D PQ occupancy: 128576424
L1D PREFETCHES PUSHED FROM L2C: 0
L1I TOTAL     ACCESS:   37754725  HIT:   29253298  MISS:    8501427  HIT %:    77.4825  MISS %:    22.5175   MPKI: 42.5071
L1I LOAD      ACCESS:   37754725  HIT:   29253298  MISS:    8501427  HIT %:    77.4825  MISS %:    22.5175   MPKI: 42.5071
L1I PREFETCH  REQUESTED:          0  ISSUED:          0  USEFUL:          0  USELESS:          0
L1I USEFUL LOAD PREFETCHES:          0 PREFETCH ISSUED TO LOWER LEVEL:          0  ACCURACY: -nan
L1I TIMELY PREFETCHES:          0 LATE PREFETCHES: 0 DROPPED PREFETCHES: 0
L1I PREFETCHES SAME FILL-ORIGIN LEVEL: 0 DIFFERENT FILL-ORIGIN LEVEL: 0
L1I AVERAGE MISS LATENCY: 17.6712 cycles
L1I RQ	ACCESS:   58553542	FORWARD:          0	MERGED:   18310086	TO_CACHE:   40243456

BTB TOTAL     ACCESS:   25868833  HIT:   24240387  MISS:    1628446  HIT %:     93.705  MISS %:    6.29501   MPKI: 8.14223
BTB BRANCH_DIRECT_JUMP	ACCESS:    1694760  HIT:    1684405  MISS:      10355
BTB BRANCH_INDIRECT	ACCESS:    9830410  HIT:    9194063  MISS:     636347
BTB BRANCH_CONDITIONAL	ACCESS:    7683208  HIT:    7668728  MISS:      14480
BTB BRANCH_DIRECT_CALL	ACCESS:    2643025  HIT:    2609037  MISS:      33988
BTB BRANCH_INDIRECT_CALL	ACCESS:     687193  HIT:     583910  MISS:     103283
BTB BRANCH_RETURN	ACCESS:    3330237  HIT:    2500244  MISS:     829993
BTB BRANCH_OTHER ACCESS:          0  HIT:          0  MISS:          0

L2C TOTAL     ACCESS:   20052951  HIT:   13316196  MISS:    6736755  HIT %:    66.4052  MISS %:    33.5948   MPKI: 33.6838
L2C LOAD      ACCESS:   11079551  HIT:    8596982  MISS:    2482569  HIT %:    77.5932  MISS %:    22.4068   MPKI: 12.4128
L2C DATA LOAD MPKI: 9.69957
L2C INSTRUCTION LOAD MPKI: 2.71327
L2C RFO       ACCESS:    3545904  HIT:     149471  MISS:    3396433  HIT %:    4.21531  MISS %:    95.7847   MPKI: 16.9822
L2C PREFETCH  ACCESS:     800497  HIT:     183897  MISS:     616600  HIT %:    22.9729  MISS %:    77.0271   MPKI: 3.083
AGUS PREFETCH L1 MISS: 0
L2C DATA PREFETCH MPKI: 3.083
L2C INSTRUCTION PREFETCH MPKI: 0
L2C WRITEBACK ACCESS:    4352134  HIT:    4206156  MISS:     145978  HIT %:    96.6458  MISS %:    3.35417   MPKI: 0.72989
L2C LOAD TRANSLATION ACCESS:     225264  HIT:     144414  MISS:      80850  HIT %:    64.1088  MISS %:    35.8912   MPKI: 0.40425
L2C TRANSLATION FROM L1D PREFETCHER ACCESS:      49601  HIT:      35276  MISS:      14325  HIT %:    71.1195  MISS %:    28.8805   MPKI: 0.071625
L2C PREFETCH  REQUESTED:          0  ISSUED:          0  USEFUL:      23851  USELESS:     607237
L2C USEFUL LOAD PREFETCHES:      23851 PREFETCH ISSUED TO LOWER LEVEL:     616600  ACCURACY: 3.86815
L2C TIMELY PREFETCHES:      23851 LATE PREFETCHES: 0 DROPPED PREFETCHES: 0
L2C PREFETCHES SAME FILL-ORIGIN LEVEL: 0 DIFFERENT FILL-ORIGIN LEVEL: 0
L2C AVERAGE MISS LATENCY: 176.258 cycles
L2C RQ	ACCESS:   14900408	FORWARD:          0	MERGED:          0	TO_CACHE:   14900320
L2C WQ	ACCESS:    4352134	FORWARD:        106	MERGED:          0	TO_CACHE:    4352134
L2C PQ	ACCESS:     800515	FORWARD:          0	MERGED:          0	TO_CACHE:     800497

L2C Instructions Evicting Data 494846
L2C Translations Evicting Data 86811
L2C Data Evicting Data 5383970
L2C Instructions Evicting Instructions 41159
L2C Translations Evicting Instructions 6871
L2C Data Evicting Instructions 483536
L2C Instructions Evicting Translations 6650
L2C Translations Evicting Translations 1493
L2C Data Evicting Translations 85441
L2C Dense regions hint from L2: 0
PSCL5 TOTAL     ACCESS:     197096  HIT:     197096  MISS:          0  HIT %:        100  MISS %:          0   MPKI: 0
PSCL5 LOAD TRANSLATION ACCESS:     165912  HIT:     165912  MISS:          0  HIT %:        100  MISS %:          0   MPKI: 0
PSCL5 TRANSLATION FROM L1D PREFETCHER ACCESS:      31184  HIT:      31184  MISS:          0  HIT %:        100  MISS %:          0   MPKI: 0
PSCL5 PREFETCH  REQUESTED:          0  ISSUED:          0  USEFUL:          0  USELESS:          0
PSCL5 USEFUL LOAD PREFETCHES:          0 PREFETCH ISSUED TO LOWER LEVEL:          0  ACCURACY: -nan
PSCL5 TIMELY PREFETCHES:          0 LATE PREFETCHES: 0 DROPPED PREFETCHES: 0
PSCL5 PREFETCHES SAME FILL-ORIGIN LEVEL: 0 DIFFERENT FILL-ORIGIN LEVEL: 0

PSCL4 TOTAL     ACCESS:     187418  HIT:     187097  MISS:        321  HIT %:    99.8287  MISS %:   0.171275   MPKI: 0.001605
PSCL4 LOAD TRANSLATION ACCESS:     162783  HIT:     162462  MISS:        321  HIT %:    99.8028  MISS %:   0.197195   MPKI: 0.001605
PSCL4 TRANSLATION FROM L1D PREFETCHER ACCESS:      24635  HIT:      24635  MISS:          0  HIT %:        100  MISS %:          0   MPKI: 0
PSCL4 PREFETCH  REQUESTED:          0  ISSUED:          0  USEFUL:          0  USELESS:          0
PSCL4 USEFUL LOAD PREFETCHES:          0 PREFETCH ISSUED TO LOWER LEVEL:          0  ACCURACY: -nan
PSCL4 TIMELY PREFETCHES:          0 LATE PREFETCHES: 0 DROPPED PREFETCHES: 0
PSCL4 PREFETCHES SAME FILL-ORIGIN LEVEL: 0 DIFFERENT FILL-ORIGIN LEVEL: 0

PSCL3 TOTAL     ACCESS:     185241  HIT:     183641  MISS:       1600  HIT %:    99.1363  MISS %:    0.86374   MPKI: 0.008
PSCL3 LOAD TRANSLATION ACCESS:     162462  HIT:     160862  MISS:       1600  HIT %:    99.0152  MISS %:   0.984846   MPKI: 0.008
PSCL3 TRANSLATION FROM L1D PREFETCHER ACCESS:      22779  HIT:      22779  MISS:          0  HIT %:        100  MISS %:          0   MPKI: 0
PSCL3 PREFETCH  REQUESTED:          0  ISSUED:          0  USEFUL:          0  USELESS:          0
PSCL3 USEFUL LOAD PREFETCHES:          0 PREFETCH ISSUED TO LOWER LEVEL:          0  ACCURACY: -nan
PSCL3 TIMELY PREFETCHES:          0 LATE PREFETCHES: 0 DROPPED PREFETCHES: 0
PSCL3 PREFETCHES SAME FILL-ORIGIN LEVEL: 0 DIFFERENT FILL-ORIGIN LEVEL: 0

PSCL2 TOTAL     ACCESS:     177872  HIT:     119680  MISS:      58192  HIT %:    67.2843  MISS %:    32.7157   MPKI: 0.29096
PSCL2 LOAD TRANSLATION ACCESS:     166605  HIT:     108413  MISS:      58192  HIT %:    65.0719  MISS %:    34.9281   MPKI: 0.29096
PSCL2 TRANSLATION FROM L1D PREFETCHER ACCESS:      11267  HIT:      11267  MISS:          0  HIT %:        100  MISS %:          0   MPKI: 0
PSCL2 PREFETCH  REQUESTED:          0  ISSUED:          0  USEFUL:          0  USELESS:          0
PSCL2 USEFUL LOAD PREFETCHES:          0 PREFETCH ISSUED TO LOWER LEVEL:          0  ACCURACY: -nan
PSCL2 TIMELY PREFETCHES:          0 LATE PREFETCHES: 0 DROPPED PREFETCHES: 0
PSCL2 PREFETCHES SAME FILL-ORIGIN LEVEL: 0 DIFFERENT FILL-ORIGIN LEVEL: 0

LLC TOTAL     ACCESS:   10630848  HIT:    4092407  MISS:    6538441  HIT %:    38.4956  MISS %:    61.5044   MPKI: 32.6922
LLC LOAD      ACCESS:    2482569  HIT:    1329000  MISS:    1153569  HIT %:    53.5333  MISS %:    46.4667   MPKI: 5.76785
LLC RFO       ACCESS:    3396403  HIT:     827861  MISS:    2568542  HIT %:    24.3746  MISS %:    75.6254   MPKI: 12.8427
LLC PREFETCH  ACCESS:     616600  HIT:     112439  MISS:     504161  HIT %:    18.2353  MISS %:    81.7647   MPKI: 2.52081
AGUS PREFETCH L1 MISS: 0
LLC WRITEBACK ACCESS:    4040101  HIT:    1789548  MISS:    2250553  HIT %:    44.2946  MISS %:    55.7054   MPKI: 11.2528
LLC LOAD TRANSLATION ACCESS:      80850  HIT:      26485  MISS:      54365  HIT %:    32.7582  MISS %:    67.2418   MPKI: 0.271825
LLC TRANSLATION FROM L1D PREFETCHER ACCESS:      14325  HIT:       7074  MISS:       7251  HIT %:    49.3822  MISS %:    50.6178   MPKI: 0.036255
LLC PREFETCH  REQUESTED:          0  ISSUED:          0  USEFUL:       5299  USELESS:     510744
LLC USEFUL LOAD PREFETCHES:       5299 PREFETCH ISSUED TO LOWER LEVEL:     504161  ACCURACY: 1.05105
LLC TIMELY PREFETCHES:       5299 LATE PREFETCHES: 0 DROPPED PREFETCHES: 0
LLC PREFETCHES SAME FILL-ORIGIN LEVEL: 0 DIFFERENT FILL-ORIGIN LEVEL: 0
LLC AVERAGE MISS LATENCY: 150.969 cycles
LLC RQ	ACCESS:    5974177	FORWARD:          0	MERGED:          0	TO_CACHE:    5974147
LLC WQ	ACCESS:    4040101	FORWARD:         30	MERGED:          0	TO_CACHE:    4040101
LLC PQ	ACCESS:     616600	FORWARD:          0	MERGED:          0	TO_CACHE:     616600

LLC Dense regions hint to LLC: 0

RAW hits: 2544708
Loads Generated: 46798431
Loads sent to L1D: 44253723
Stores Generated: 32636771
Stores sent to L1D: 32636784
Major fault: 0 Minor fault: 25901
Allocated PAGES: 25901
Completed 

DRAM Statistics
 CHANNEL 0
 RQ ROW_BUFFER_HIT:    1736643  ROW_BUFFER_MISS:    2550892
 DBUS_CONGESTED:       1860
 WQ ROW_BUFFER_HIT:     632845  ROW_BUFFER_MISS:    2191573  FULL:      47919

 AVG_CONGESTED_CYCLE: 3
 All warmup complete: 2
Channel 0 Bank busy for read cycles: 0
Channel 0 Bank busy for write cycles: 0
Channel 0
Rank 0
0banks busy for read cycles: 160547621
0banks busy for write cycles: 264971
1banks busy for read cycles: 72294275
1banks busy for write cycles: 40270784
2banks busy for read cycles: 23960747
2banks busy for write cycles: 19297397
3banks busy for read cycles: 15975771
3banks busy for write cycles: 10661086
4banks busy for read cycles: 5751583
4banks busy for write cycles: 6411915
5banks busy for read cycles: 4798544
5banks busy for write cycles: 4393698
6banks busy for read cycles: 5743037
6banks busy for write cycles: 3618876
7banks busy for read cycles: 8921223
7banks busy for write cycles: 5892576
8banks busy for read cycles: 20732909
8banks busy for write cycles: 37138483

CPU 0 Branch Prediction Accuracy: 99.9365% MPKI: 0.098915 Average ROB Occupancy at Mispredict: 107.5
Branch types
NOT_BRANCH: 168850935 84.4255%
BRANCH_DIRECT_JUMP: 1694760 0.84738%
BRANCH_INDIRECT: 9830410 4.91521%
BRANCH_CONDITIONAL: 12963086 6.48154%
BRANCH_DIRECT_CALL: 2643025 1.32151%
BRANCH_INDIRECT_CALL: 687193 0.343597%
BRANCH_RETURN: 3330237 1.66512%
BRANCH_OTHER: 0 0%

DRAM PAGES: 1048576
Allocated PAGES: 25901
