
*** ChampSim Multicore Out-of-Order Simulator ***

Warmup Instructions: 50000000
Simulation Instructions: 200000000
Number of CPUs: 1
LLC sets: 2048
LLC ways: 16
Off-chip DRAM Size: 4096 MB Channels: 1 Width: 64-bit Data Rate: 6400 MT/s
CPU 0 runs traces/spec2k17/server_039.champsimtrace.xz
.xz
BTB has LRU replacement policy
ITLB has LRU replacement policy
DTLB has LRU replacement policy
STLB has LRU replacement policy
L1I has LRU replacement policy
L1D has LRU replacement policy
Initialize SRRIP state for L2C
Initialize DRRIP state for LLC
Heartbeat CPU 0 instructions: 10000003 cycles: 2760514 heartbeat IPC: 3.62251 cumulative IPC: 3.62251 (Simulation time: 0 hr 0 min 30 sec) 
Heartbeat CPU 0 instructions: 20000002 cycles: 5540407 heartbeat IPC: 3.59726 cumulative IPC: 3.60984 (Simulation time: 0 hr 1 min 2 sec) 
Heartbeat CPU 0 instructions: 30000001 cycles: 8336180 heartbeat IPC: 3.57683 cumulative IPC: 3.59877 (Simulation time: 0 hr 1 min 29 sec) 
Heartbeat CPU 0 instructions: 40000003 cycles: 11136126 heartbeat IPC: 3.5715 cumulative IPC: 3.59191 (Simulation time: 0 hr 2 min 1 sec) 
Heartbeat CPU 0 instructions: 50000000 cycles: 13938755 heartbeat IPC: 3.56808 cumulative IPC: 3.58712 (Simulation time: 0 hr 2 min 33 sec) 

Warmup complete CPU 0 instructions: 50000004 cycles: 13938756 (Simulation time: 0 hr 2 min 33 sec) 

Heartbeat CPU 0 instructions: 60000001 cycles: 33103602 heartbeat IPC: 0.521789 cumulative IPC: 0.521789 (Simulation time: 0 hr 3 min 28 sec) 
Heartbeat CPU 0 instructions: 70000002 cycles: 52203537 heartbeat IPC: 0.523562 cumulative IPC: 0.522674 (Simulation time: 0 hr 4 min 9 sec) 
Heartbeat CPU 0 instructions: 80000001 cycles: 71307997 heartbeat IPC: 0.523438 cumulative IPC: 0.522928 (Simulation time: 0 hr 4 min 58 sec) 
Heartbeat CPU 0 instructions: 90000002 cycles: 90470208 heartbeat IPC: 0.52186 cumulative IPC: 0.522661 (Simulation time: 0 hr 5 min 42 sec) 
Heartbeat CPU 0 instructions: 100000000 cycles: 109666514 heartbeat IPC: 0.520933 cumulative IPC: 0.522314 (Simulation time: 0 hr 6 min 40 sec) 
Heartbeat CPU 0 instructions: 110000000 cycles: 128863525 heartbeat IPC: 0.520914 cumulative IPC: 0.522081 (Simulation time: 0 hr 7 min 39 sec) 
Heartbeat CPU 0 instructions: 120000002 cycles: 148003666 heartbeat IPC: 0.522462 cumulative IPC: 0.522135 (Simulation time: 0 hr 8 min 31 sec) 
Heartbeat CPU 0 instructions: 130000000 cycles: 167119334 heartbeat IPC: 0.523131 cumulative IPC: 0.522259 (Simulation time: 0 hr 9 min 11 sec) 
Heartbeat CPU 0 instructions: 140000000 cycles: 186234480 heartbeat IPC: 0.523145 cumulative IPC: 0.522358 (Simulation time: 0 hr 9 min 52 sec) 
Heartbeat CPU 0 instructions: 150000000 cycles: 205338447 heartbeat IPC: 0.523452 cumulative IPC: 0.522467 (Simulation time: 0 hr 10 min 33 sec) 
Heartbeat CPU 0 instructions: 160000000 cycles: 224446351 heartbeat IPC: 0.523344 cumulative IPC: 0.522546 (Simulation time: 0 hr 11 min 23 sec) 
*** Reached end of trace for Core: 0 Repeating trace: traces/spec2k17/server_039.champsimtrace.xz
Heartbeat CPU 0 instructions: 170000001 cycles: 243877628 heartbeat IPC: 0.514634 cumulative IPC: 0.521878 (Simulation time: 0 hr 12 min 22 sec) 
Heartbeat CPU 0 instructions: 180000000 cycles: 262897540 heartbeat IPC: 0.525765 cumulative IPC: 0.522175 (Simulation time: 0 hr 13 min 18 sec) 
Heartbeat CPU 0 instructions: 190000003 cycles: 281899258 heartbeat IPC: 0.526268 cumulative IPC: 0.522465 (Simulation time: 0 hr 14 min 0 sec) 
Heartbeat CPU 0 instructions: 200000002 cycles: 301018171 heartbeat IPC: 0.523042 cumulative IPC: 0.522503 (Simulation time: 0 hr 14 min 53 sec) 
Heartbeat CPU 0 instructions: 210000001 cycles: 320129528 heartbeat IPC: 0.523249 cumulative IPC: 0.52255 (Simulation time: 0 hr 15 min 45 sec) 
Heartbeat CPU 0 instructions: 220000000 cycles: 339233627 heartbeat IPC: 0.523448 cumulative IPC: 0.522603 (Simulation time: 0 hr 16 min 29 sec) 
Heartbeat CPU 0 instructions: 230000003 cycles: 358328232 heartbeat IPC: 0.523708 cumulative IPC: 0.522664 (Simulation time: 0 hr 17 min 9 sec) 
Heartbeat CPU 0 instructions: 240000003 cycles: 377427833 heartbeat IPC: 0.523571 cumulative IPC: 0.522712 (Simulation time: 0 hr 17 min 51 sec) 
Heartbeat CPU 0 instructions: 250000000 cycles: 396582323 heartbeat IPC: 0.522071 cumulative IPC: 0.52268 (Simulation time: 0 hr 18 min 36 sec) 
Finished CPU 0 instructions: 200000000 cycles: 382643568 cumulative IPC: 0.52268 (Simulation time: 0 hr 18 min 36 sec) 

ChampSim completed all CPUs

Region of Interest Statistics

CPU 0 cumulative IPC: 0.52268 instructions: 200000000 cycles: 382643568
ITLB TOTAL     ACCESS:   35872485  HIT:   33717762  MISS:    2154723  HIT %:    93.9934  MISS %:    6.00662   MPKI: 10.7736
ITLB LOAD TRANSLATION ACCESS:   35872485  HIT:   33717762  MISS:    2154723  HIT %:    93.9934  MISS %:    6.00662   MPKI: 10.7736
ITLB PREFETCH  REQUESTED:          0  ISSUED:          0  USEFUL:          0  USELESS:          0
ITLB USEFUL LOAD PREFETCHES:          0 PREFETCH ISSUED TO LOWER LEVEL:          0  ACCURACY: -nan
ITLB TIMELY PREFETCHES:          0 LATE PREFETCHES: 0 DROPPED PREFETCHES: 0
ITLB PREFETCHES SAME FILL-ORIGIN LEVEL: 0 DIFFERENT FILL-ORIGIN LEVEL: 0
ITLB AVERAGE MISS LATENCY: 9.03147 cycles
ITLB RQ	ACCESS:   41235979	FORWARD:          0	MERGED:    4952195	TO_CACHE:   36283784

DTLB TOTAL     ACCESS:   40725229  HIT:   39543005  MISS:    1182224  HIT %:    97.0971  MISS %:    2.90293   MPKI: 5.91112
DTLB LOAD TRANSLATION ACCESS:   40725229  HIT:   39543005  MISS:    1182224  HIT %:    97.0971  MISS %:    2.90293   MPKI: 5.91112
DTLB PREFETCH  REQUESTED:          0  ISSUED:          0  USEFUL:          0  USELESS:          0
DTLB USEFUL LOAD PREFETCHES:          0 PREFETCH ISSUED TO LOWER LEVEL:          0  ACCURACY: -nan
DTLB TIMELY PREFETCHES:          0 LATE PREFETCHES: 0 DROPPED PREFETCHES: 0
DTLB PREFETCHES SAME FILL-ORIGIN LEVEL: 0 DIFFERENT FILL-ORIGIN LEVEL: 0
DTLB AVERAGE MISS LATENCY: 7.46403 cycles
DTLB RQ	ACCESS:   58421311	FORWARD:          0	MERGED:   17632423	TO_CACHE:   40788888

STLB TOTAL     ACCESS:   23070157  HIT:   23069887  MISS:        270  HIT %:    99.9988  MISS %: 0.00117034   MPKI: 0.00135
STLB LOAD TRANSLATION ACCESS:    3336947  HIT:    3336677  MISS:        270  HIT %:    99.9919  MISS %: 0.00809123   MPKI: 0.00135
STLB TRANSLATION FROM L1D PREFETCHER ACCESS:   19733210  HIT:   19733210  MISS:          0  HIT %:        100  MISS %:          0   MPKI: 0
STLB PREFETCH  REQUESTED:          0  ISSUED:          0  USEFUL:          0  USELESS:          0
STLB USEFUL LOAD PREFETCHES:          0 PREFETCH ISSUED TO LOWER LEVEL:          0  ACCURACY: -nan
STLB TIMELY PREFETCHES:          0 LATE PREFETCHES: 0 DROPPED PREFETCHES: 215833
STLB PREFETCHES SAME FILL-ORIGIN LEVEL: 0 DIFFERENT FILL-ORIGIN LEVEL: 0
STLB AVERAGE MISS LATENCY: 197.678 cycles
STLB RQ	ACCESS:   28745594	FORWARD:          0	MERGED:    5459090	TO_CACHE:   23286504

STLB Hit, L1D data hit: 0
STLB Hit, L2C data hit: 0
STLB Hit, LLC data hit: 0
STLB Hit, LLC data miss: 0
STLB STLB hints to L2: 0
L1D TOTAL     ACCESS:   83404479  HIT:   83147997  MISS:     256482  HIT %:    99.6925  MISS %:   0.307516   MPKI: 1.28241
L1D LOAD      ACCESS:   30431891  HIT:   30275838  MISS:     156053  HIT %:    99.4872  MISS %:   0.512794   MPKI: 0.780265
L1D RFO       ACCESS:   27931076  HIT:   27899734  MISS:      31342  HIT %:    99.8878  MISS %:   0.112212   MPKI: 0.15671
L1D PREFETCH  ACCESS:   25041512  HIT:   24972425  MISS:      69087  HIT %:    99.7241  MISS %:    0.27589   MPKI: 0.345435
AGUS PREFETCH L1 MISS: 0
L1D PREFETCH  REQUESTED:   53836294  ISSUED:   53836246  USEFUL:      38843  USELESS:      30249
L1D USEFUL LOAD PREFETCHES:      38843 PREFETCH ISSUED TO LOWER LEVEL:     141901  ACCURACY: 27.3733
L1D TIMELY PREFETCHES:      38843 LATE PREFETCHES: 72787 DROPPED PREFETCHES: 241309
L1D PREFETCHES SAME FILL-ORIGIN LEVEL: 141901 DIFFERENT FILL-ORIGIN LEVEL: 0
L1D AVERAGE MISS LATENCY: 5.97876e+07 cycles
L1D RQ	ACCESS:   46574302	FORWARD:          0	MERGED:   15642850	TO_CACHE:   30434965
L1D WQ	ACCESS:   28081962	FORWARD:     595658	MERGED:      95616	TO_CACHE:   27986346
L1D PQ	ACCESS:   28427600	FORWARD:          0	MERGED:    2919783	TO_CACHE:   25408646

L1D UNIQUE REGIONS ACCESSED: 0
L1D REGIONS CONFLICTS: 0
L1D Cross Page Prefetch Requests: 18997849
L1D Same Page Prefetch Requests: 14272951
L1D ROI Sum of L1D PQ occupancy: 345048565
L1D PREFETCHES PUSHED FROM L2C: 0
L1I TOTAL     ACCESS:   37023809  HIT:   21592652  MISS:   15431157  HIT %:     58.321  MISS %:     41.679   MPKI: 77.1558
L1I LOAD      ACCESS:   37023809  HIT:   21592652  MISS:   15431157  HIT %:     58.321  MISS %:     41.679   MPKI: 77.1558
L1I PREFETCH  REQUESTED:          0  ISSUED:          0  USEFUL:          0  USELESS:          0
L1I USEFUL LOAD PREFETCHES:          0 PREFETCH ISSUED TO LOWER LEVEL:          0  ACCURACY: -nan
L1I TIMELY PREFETCHES:          0 LATE PREFETCHES: 0 DROPPED PREFETCHES: 0
L1I PREFETCHES SAME FILL-ORIGIN LEVEL: 0 DIFFERENT FILL-ORIGIN LEVEL: 0
L1I AVERAGE MISS LATENCY: 14.0615 cycles
L1I RQ	ACCESS:   61059345	FORWARD:          0	MERGED:   19823366	TO_CACHE:   41235979

BTB TOTAL     ACCESS:   27154127  HIT:   23772575  MISS:    3381552  HIT %:    87.5468  MISS %:    12.4532   MPKI: 16.9078
BTB BRANCH_DIRECT_JUMP	ACCESS:    1854668  HIT:    1769509  MISS:      85159
BTB BRANCH_INDIRECT	ACCESS:   11982974  HIT:   10669647  MISS:    1313327
BTB BRANCH_CONDITIONAL	ACCESS:    4186045  HIT:    4086497  MISS:      99548
BTB BRANCH_DIRECT_CALL	ACCESS:    3881854  HIT:    3707800  MISS:     174054
BTB BRANCH_INDIRECT_CALL	ACCESS:     683366  HIT:     534468  MISS:     148898
BTB BRANCH_RETURN	ACCESS:    4565220  HIT:    3004654  MISS:    1560566
BTB BRANCH_OTHER ACCESS:          0  HIT:          0  MISS:          0

L2C TOTAL     ACCESS:   16049839  HIT:   16046934  MISS:       2905  HIT %:    99.9819  MISS %:  0.0180999   MPKI: 0.014525
L2C LOAD      ACCESS:   15514423  HIT:   15512442  MISS:       1981  HIT %:    99.9872  MISS %:  0.0127688   MPKI: 0.009905
L2C DATA LOAD MPKI: 0.00242
L2C INSTRUCTION LOAD MPKI: 0.007485
L2C RFO       ACCESS:      31315  HIT:      30918  MISS:        397  HIT %:    98.7322  MISS %:    1.26776   MPKI: 0.001985
L2C PREFETCH  ACCESS:     141901  HIT:     141590  MISS:        311  HIT %:    99.7808  MISS %:   0.219167   MPKI: 0.001555
AGUS PREFETCH L1 MISS: 0
L2C DATA PREFETCH MPKI: 0.001555
L2C INSTRUCTION PREFETCH MPKI: 0
L2C WRITEBACK ACCESS:     103094  HIT:     103065  MISS:         29  HIT %:    99.9719  MISS %:  0.0281297   MPKI: 0.000145
L2C LOAD TRANSLATION ACCESS:        287  HIT:        182  MISS:        105  HIT %:    63.4146  MISS %:    36.5854   MPKI: 0.000525
L2C TRANSLATION FROM L1D PREFETCHER ACCESS:     258819  HIT:     258737  MISS:         82  HIT %:    99.9683  MISS %:  0.0316824   MPKI: 0.00041
L2C PREFETCH  REQUESTED:          0  ISSUED:          0  USEFUL:        104  USELESS:         40
L2C USEFUL LOAD PREFETCHES:        104 PREFETCH ISSUED TO LOWER LEVEL:        311  ACCURACY: 33.4405
L2C TIMELY PREFETCHES:        104 LATE PREFETCHES: 0 DROPPED PREFETCHES: 0
L2C PREFETCHES SAME FILL-ORIGIN LEVEL: 0 DIFFERENT FILL-ORIGIN LEVEL: 0
L2C AVERAGE MISS LATENCY: 165.57 cycles
L2C RQ	ACCESS:   15804844	FORWARD:          0	MERGED:          0	TO_CACHE:   15804844
L2C WQ	ACCESS:     103094	FORWARD:          0	MERGED:          0	TO_CACHE:     103094
L2C PQ	ACCESS:     141901	FORWARD:          0	MERGED:          0	TO_CACHE:     141901

L2C Instructions Evicting Data 79
L2C Translations Evicting Data 4
L2C Data Evicting Data 56
L2C Instructions Evicting Instructions 105
L2C Translations Evicting Instructions 11
L2C Data Evicting Instructions 76
L2C Instructions Evicting Translations 16
L2C Translations Evicting Translations 2
L2C Data Evicting Translations 10
L2C Dense regions hint from L2: 0
PSCL5 TOTAL     ACCESS:     215887  HIT:     215887  MISS:          0  HIT %:        100  MISS %:          0   MPKI: 0
PSCL5 LOAD TRANSLATION ACCESS:        270  HIT:        270  MISS:          0  HIT %:        100  MISS %:          0   MPKI: 0
PSCL5 TRANSLATION FROM L1D PREFETCHER ACCESS:     215617  HIT:     215617  MISS:          0  HIT %:        100  MISS %:          0   MPKI: 0
PSCL5 PREFETCH  REQUESTED:          0  ISSUED:          0  USEFUL:          0  USELESS:          0
PSCL5 USEFUL LOAD PREFETCHES:          0 PREFETCH ISSUED TO LOWER LEVEL:          0  ACCURACY: -nan
PSCL5 TIMELY PREFETCHES:          0 LATE PREFETCHES: 0 DROPPED PREFETCHES: 0
PSCL5 PREFETCHES SAME FILL-ORIGIN LEVEL: 0 DIFFERENT FILL-ORIGIN LEVEL: 0

PSCL4 TOTAL     ACCESS:     167263  HIT:     167263  MISS:          0  HIT %:        100  MISS %:          0   MPKI: 0
PSCL4 LOAD TRANSLATION ACCESS:         96  HIT:         96  MISS:          0  HIT %:        100  MISS %:          0   MPKI: 0
PSCL4 TRANSLATION FROM L1D PREFETCHER ACCESS:     167167  HIT:     167167  MISS:          0  HIT %:        100  MISS %:          0   MPKI: 0
PSCL4 PREFETCH  REQUESTED:          0  ISSUED:          0  USEFUL:          0  USELESS:          0
PSCL4 USEFUL LOAD PREFETCHES:          0 PREFETCH ISSUED TO LOWER LEVEL:          0  ACCURACY: -nan
PSCL4 TIMELY PREFETCHES:          0 LATE PREFETCHES: 0 DROPPED PREFETCHES: 0
PSCL4 PREFETCHES SAME FILL-ORIGIN LEVEL: 0 DIFFERENT FILL-ORIGIN LEVEL: 0

PSCL3 TOTAL     ACCESS:     215682  HIT:     215681  MISS:          1  HIT %:    99.9995  MISS %: 0.000463646   MPKI: 5e-06
PSCL3 LOAD TRANSLATION ACCESS:        260  HIT:        259  MISS:          1  HIT %:    99.6154  MISS %:   0.384615   MPKI: 5e-06
PSCL3 TRANSLATION FROM L1D PREFETCHER ACCESS:     215422  HIT:     215422  MISS:          0  HIT %:        100  MISS %:          0   MPKI: 0
PSCL3 PREFETCH  REQUESTED:          0  ISSUED:          0  USEFUL:          0  USELESS:          0
PSCL3 USEFUL LOAD PREFETCHES:          0 PREFETCH ISSUED TO LOWER LEVEL:          0  ACCURACY: -nan
PSCL3 TIMELY PREFETCHES:          0 LATE PREFETCHES: 0 DROPPED PREFETCHES: 0
PSCL3 PREFETCHES SAME FILL-ORIGIN LEVEL: 0 DIFFERENT FILL-ORIGIN LEVEL: 0

PSCL2 TOTAL     ACCESS:     141429  HIT:     141404  MISS:         25  HIT %:    99.9823  MISS %:  0.0176767   MPKI: 0.000125
PSCL2 LOAD TRANSLATION ACCESS:        270  HIT:        245  MISS:         25  HIT %:    90.7407  MISS %:    9.25926   MPKI: 0.000125
PSCL2 TRANSLATION FROM L1D PREFETCHER ACCESS:     141159  HIT:     141159  MISS:          0  HIT %:        100  MISS %:          0   MPKI: 0
PSCL2 PREFETCH  REQUESTED:          0  ISSUED:          0  USEFUL:          0  USELESS:          0
PSCL2 USEFUL LOAD PREFETCHES:          0 PREFETCH ISSUED TO LOWER LEVEL:          0  ACCURACY: -nan
PSCL2 TIMELY PREFETCHES:          0 LATE PREFETCHES: 0 DROPPED PREFETCHES: 0
PSCL2 PREFETCHES SAME FILL-ORIGIN LEVEL: 0 DIFFERENT FILL-ORIGIN LEVEL: 0

LLC TOTAL     ACCESS:       2892  HIT:        134  MISS:       2758  HIT %:    4.63347  MISS %:    95.3665   MPKI: 0.01379
LLC LOAD      ACCESS:       1981  HIT:         94  MISS:       1887  HIT %:    4.74508  MISS %:    95.2549   MPKI: 0.009435
LLC RFO       ACCESS:        397  HIT:          4  MISS:        393  HIT %:    1.00756  MISS %:    98.9924   MPKI: 0.001965
LLC PREFETCH  ACCESS:        311  HIT:         16  MISS:        295  HIT %:    5.14469  MISS %:    94.8553   MPKI: 0.001475
AGUS PREFETCH L1 MISS: 0
LLC WRITEBACK ACCESS:         16  HIT:         16  MISS:          0  HIT %:        100  MISS %:          0   MPKI: 0
LLC LOAD TRANSLATION ACCESS:        105  HIT:          1  MISS:        104  HIT %:   0.952381  MISS %:    99.0476   MPKI: 0.00052
LLC TRANSLATION FROM L1D PREFETCHER ACCESS:         82  HIT:          3  MISS:         79  HIT %:    3.65854  MISS %:    96.3415   MPKI: 0.000395
LLC PREFETCH  REQUESTED:          0  ISSUED:          0  USEFUL:          2  USELESS:          6
LLC USEFUL LOAD PREFETCHES:          2 PREFETCH ISSUED TO LOWER LEVEL:        295  ACCURACY: 0.677966
LLC TIMELY PREFETCHES:          2 LATE PREFETCHES: 0 DROPPED PREFETCHES: 0
LLC PREFETCHES SAME FILL-ORIGIN LEVEL: 0 DIFFERENT FILL-ORIGIN LEVEL: 0
LLC AVERAGE MISS LATENCY: 140.907 cycles
LLC RQ	ACCESS:       2565	FORWARD:          0	MERGED:          0	TO_CACHE:       2565
LLC WQ	ACCESS:         16	FORWARD:          0	MERGED:          0	TO_CACHE:         16
LLC PQ	ACCESS:        311	FORWARD:          0	MERGED:          0	TO_CACHE:        311

LLC Dense regions hint to LLC: 0

RAW hits: 2210876
Loads Generated: 48785178
Loads sent to L1D: 46574302
Stores Generated: 28081946
Stores sent to L1D: 28081962
Major fault: 0 Minor fault: 690
Allocated PAGES: 690
Completed 

DRAM Statistics
 CHANNEL 0
 RQ ROW_BUFFER_HIT:        901  ROW_BUFFER_MISS:       1857
 DBUS_CONGESTED:          0
 WQ ROW_BUFFER_HIT:          0  ROW_BUFFER_MISS:          0  FULL:          0

 AVG_CONGESTED_CYCLE: -
 All warmup complete: 2
Channel 0 Bank busy for read cycles: 0
Channel 0 Bank busy for write cycles: 0
Channel 0
Rank 0
0banks busy for read cycles: 382381441
0banks busy for write cycles: 0
1banks busy for read cycles: 212231
1banks busy for write cycles: 0
2banks busy for read cycles: 42314
2banks busy for write cycles: 0
3banks busy for read cycles: 5247
3banks busy for write cycles: 0
4banks busy for read cycles: 1538
4banks busy for write cycles: 0
5banks busy for read cycles: 283
5banks busy for write cycles: 0
6banks busy for read cycles: 315
6banks busy for write cycles: 0
7banks busy for read cycles: 55
7banks busy for write cycles: 0
8banks busy for read cycles: 145
8banks busy for write cycles: 0

CPU 0 Branch Prediction Accuracy: 99.9368% MPKI: 0.10154 Average ROB Occupancy at Mispredict: 5.36921
Branch types
NOT_BRANCH: 167870716 83.9354%
BRANCH_DIRECT_JUMP: 1854668 0.927334%
BRANCH_INDIRECT: 11982974 5.99149%
BRANCH_CONDITIONAL: 9161158 4.58058%
BRANCH_DIRECT_CALL: 3881854 1.94093%
BRANCH_INDIRECT_CALL: 683366 0.341683%
BRANCH_RETURN: 4565220 2.28261%
BRANCH_OTHER: 0 0%

DRAM PAGES: 1048576
Allocated PAGES: 690
