
*** ChampSim Multicore Out-of-Order Simulator ***

Warmup Instructions: 50000000
Simulation Instructions: 200000000
Number of CPUs: 1
LLC sets: 2048
LLC ways: 16
Off-chip DRAM Size: 4096 MB Channels: 1 Width: 64-bit Data Rate: 6400 MT/s
CPU 0 runs traces/spec2k17/server_032.champsimtrace.xz
.xz
BTB has LRU replacement policy
ITLB has LRU replacement policy
DTLB has LRU replacement policy
STLB has LRU replacement policy
L1I has LRU replacement policy
L1D has LRU replacement policy
Initialize SRRIP state for L2C
Initialize DRRIP state for LLC
Heartbeat CPU 0 instructions: 10000000 cycles: 2835029 heartbeat IPC: 3.5273 cumulative IPC: 3.5273 (Simulation time: 0 hr 0 min 37 sec) 
Heartbeat CPU 0 instructions: 20000000 cycles: 5669348 heartbeat IPC: 3.52818 cumulative IPC: 3.52774 (Simulation time: 0 hr 1 min 7 sec) 
Heartbeat CPU 0 instructions: 30000000 cycles: 8507649 heartbeat IPC: 3.52323 cumulative IPC: 3.52624 (Simulation time: 0 hr 1 min 41 sec) 
Heartbeat CPU 0 instructions: 40000001 cycles: 11355359 heartbeat IPC: 3.51159 cumulative IPC: 3.52257 (Simulation time: 0 hr 2 min 17 sec) 
Heartbeat CPU 0 instructions: 50000000 cycles: 14208279 heartbeat IPC: 3.50518 cumulative IPC: 3.51908 (Simulation time: 0 hr 2 min 47 sec) 

Warmup complete CPU 0 instructions: 50000004 cycles: 14208280 (Simulation time: 0 hr 2 min 47 sec) 

Heartbeat CPU 0 instructions: 60000001 cycles: 47542251 heartbeat IPC: 0.299994 cumulative IPC: 0.299994 (Simulation time: 0 hr 3 min 33 sec) 
Heartbeat CPU 0 instructions: 70000000 cycles: 80752920 heartbeat IPC: 0.301108 cumulative IPC: 0.30055 (Simulation time: 0 hr 4 min 34 sec) 
Heartbeat CPU 0 instructions: 80000003 cycles: 113787508 heartbeat IPC: 0.302713 cumulative IPC: 0.301268 (Simulation time: 0 hr 5 min 35 sec) 
*** Reached end of trace for Core: 0 Repeating trace: traces/spec2k17/server_032.champsimtrace.xz
Heartbeat CPU 0 instructions: 90000001 cycles: 146457771 heartbeat IPC: 0.306089 cumulative IPC: 0.302459 (Simulation time: 0 hr 6 min 37 sec) 
Heartbeat CPU 0 instructions: 100000000 cycles: 179079656 heartbeat IPC: 0.306543 cumulative IPC: 0.303267 (Simulation time: 0 hr 7 min 44 sec) 
Heartbeat CPU 0 instructions: 110000000 cycles: 211712284 heartbeat IPC: 0.306442 cumulative IPC: 0.303791 (Simulation time: 0 hr 8 min 50 sec) 
Heartbeat CPU 0 instructions: 120000000 cycles: 244338116 heartbeat IPC: 0.306506 cumulative IPC: 0.304176 (Simulation time: 0 hr 9 min 55 sec) 
Heartbeat CPU 0 instructions: 130000000 cycles: 276965122 heartbeat IPC: 0.306495 cumulative IPC: 0.304464 (Simulation time: 0 hr 11 min 5 sec) 
Heartbeat CPU 0 instructions: 140000002 cycles: 309581986 heartbeat IPC: 0.30659 cumulative IPC: 0.304699 (Simulation time: 0 hr 12 min 11 sec) 
Heartbeat CPU 0 instructions: 150000000 cycles: 342188429 heartbeat IPC: 0.306688 cumulative IPC: 0.304897 (Simulation time: 0 hr 13 min 22 sec) 
Heartbeat CPU 0 instructions: 160000000 cycles: 374792830 heartbeat IPC: 0.306707 cumulative IPC: 0.30506 (Simulation time: 0 hr 14 min 32 sec) 
*** Reached end of trace for Core: 0 Repeating trace: traces/spec2k17/server_032.champsimtrace.xz
Heartbeat CPU 0 instructions: 170000003 cycles: 407360458 heartbeat IPC: 0.307053 cumulative IPC: 0.305225 (Simulation time: 0 hr 15 min 38 sec) 
Heartbeat CPU 0 instructions: 180000002 cycles: 439953658 heartbeat IPC: 0.306812 cumulative IPC: 0.305347 (Simulation time: 0 hr 16 min 45 sec) 
Heartbeat CPU 0 instructions: 190000002 cycles: 472579007 heartbeat IPC: 0.30651 cumulative IPC: 0.30543 (Simulation time: 0 hr 17 min 51 sec) 
Heartbeat CPU 0 instructions: 200000000 cycles: 505189179 heartbeat IPC: 0.306653 cumulative IPC: 0.305511 (Simulation time: 0 hr 18 min 57 sec) 
Heartbeat CPU 0 instructions: 210000001 cycles: 537795618 heartbeat IPC: 0.306688 cumulative IPC: 0.305584 (Simulation time: 0 hr 19 min 56 sec) 
Heartbeat CPU 0 instructions: 220000000 cycles: 570409157 heartbeat IPC: 0.306621 cumulative IPC: 0.305645 (Simulation time: 0 hr 20 min 59 sec) 
Heartbeat CPU 0 instructions: 230000002 cycles: 603003292 heartbeat IPC: 0.306804 cumulative IPC: 0.305709 (Simulation time: 0 hr 22 min 2 sec) 
Heartbeat CPU 0 instructions: 240000000 cycles: 635594793 heartbeat IPC: 0.306828 cumulative IPC: 0.305768 (Simulation time: 0 hr 23 min 7 sec) 
*** Reached end of trace for Core: 0 Repeating trace: traces/spec2k17/server_032.champsimtrace.xz
Heartbeat CPU 0 instructions: 250000002 cycles: 668159817 heartbeat IPC: 0.307078 cumulative IPC: 0.305833 (Simulation time: 0 hr 24 min 13 sec) 
Finished CPU 0 instructions: 200000001 cycles: 653951538 cumulative IPC: 0.305833 (Simulation time: 0 hr 24 min 13 sec) 

ChampSim completed all CPUs

Region of Interest Statistics

CPU 0 cumulative IPC: 0.305833 instructions: 200000001 cycles: 653951538
ITLB TOTAL     ACCESS:   35334253  HIT:   32920055  MISS:    2414198  HIT %:    93.1675  MISS %:    6.83246   MPKI: 12.071
ITLB LOAD TRANSLATION ACCESS:   35334253  HIT:   32920055  MISS:    2414198  HIT %:    93.1675  MISS %:    6.83246   MPKI: 12.071
ITLB PREFETCH  REQUESTED:          0  ISSUED:          0  USEFUL:          0  USELESS:          0
ITLB USEFUL LOAD PREFETCHES:          0 PREFETCH ISSUED TO LOWER LEVEL:          0  ACCURACY: -nan
ITLB TIMELY PREFETCHES:          0 LATE PREFETCHES: 0 DROPPED PREFETCHES: 0
ITLB PREFETCHES SAME FILL-ORIGIN LEVEL: 0 DIFFERENT FILL-ORIGIN LEVEL: 0
ITLB AVERAGE MISS LATENCY: 9.0158 cycles
ITLB RQ	ACCESS:   41882562	FORWARD:          0	MERGED:    5990306	TO_CACHE:   35892256

DTLB TOTAL     ACCESS:   47316635  HIT:   45355616  MISS:    1961019  HIT %:    95.8555  MISS %:    4.14446   MPKI: 9.80509
DTLB LOAD TRANSLATION ACCESS:   47316635  HIT:   45355616  MISS:    1961019  HIT %:    95.8555  MISS %:    4.14446   MPKI: 9.80509
DTLB PREFETCH  REQUESTED:          0  ISSUED:          0  USEFUL:          0  USELESS:          0
DTLB USEFUL LOAD PREFETCHES:          0 PREFETCH ISSUED TO LOWER LEVEL:          0  ACCURACY: -nan
DTLB TIMELY PREFETCHES:          0 LATE PREFETCHES: 0 DROPPED PREFETCHES: 0
DTLB PREFETCHES SAME FILL-ORIGIN LEVEL: 0 DIFFERENT FILL-ORIGIN LEVEL: 0
DTLB AVERAGE MISS LATENCY: 7.98911 cycles
DTLB RQ	ACCESS:   62494629	FORWARD:          0	MERGED:   15130803	TO_CACHE:   47363826

STLB TOTAL     ACCESS:   26771760  HIT:   26769721  MISS:       2039  HIT %:    99.9924  MISS %: 0.00761623   MPKI: 0.010195
STLB LOAD TRANSLATION ACCESS:    4375217  HIT:    4373600  MISS:       1617  HIT %:     99.963  MISS %:  0.0369582   MPKI: 0.008085
STLB TRANSLATION FROM L1D PREFETCHER ACCESS:   22396543  HIT:   22396121  MISS:        422  HIT %:    99.9981  MISS %: 0.00188422   MPKI: 0.00211
STLB PREFETCH  REQUESTED:          0  ISSUED:          0  USEFUL:        415  USELESS:          7
STLB USEFUL LOAD PREFETCHES:        415 PREFETCH ISSUED TO LOWER LEVEL:          0  ACCURACY: inf
STLB TIMELY PREFETCHES:        415 LATE PREFETCHES: 11 DROPPED PREFETCHES: 342236
STLB PREFETCHES SAME FILL-ORIGIN LEVEL: 0 DIFFERENT FILL-ORIGIN LEVEL: 0
STLB AVERAGE MISS LATENCY: 23.8936 cycles
STLB RQ	ACCESS:   31369647	FORWARD:          0	MERGED:    4255459	TO_CACHE:   27114188

STLB Hit, L1D data hit: 0
STLB Hit, L2C data hit: 0
STLB Hit, LLC data hit: 0
STLB Hit, LLC data miss: 0
STLB STLB hints to L2: 0
L1D TOTAL     ACCESS:   86260085  HIT:   81277885  MISS:    4982200  HIT %:    94.2242  MISS %:    5.77579   MPKI: 24.911
L1D LOAD      ACCESS:   34586213  HIT:   32469311  MISS:    2116902  HIT %:    93.8793  MISS %:    6.12065   MPKI: 10.5845
L1D RFO       ACCESS:   26258515  HIT:   25185805  MISS:    1072710  HIT %:    95.9148  MISS %:    4.08519   MPKI: 5.36355
L1D PREFETCH  ACCESS:   25415357  HIT:   23622769  MISS:    1792588  HIT %:    92.9468  MISS %:    7.05317   MPKI: 8.96294
AGUS PREFETCH L1 MISS: 0
L1D PREFETCH  REQUESTED:   56262932  ISSUED:   56262889  USEFUL:    1317354  USELESS:     475187
L1D USEFUL LOAD PREFETCHES:    1317354 PREFETCH ISSUED TO LOWER LEVEL:    2353564  ACCURACY: 55.9727
L1D TIMELY PREFETCHES:    1317354 LATE PREFETCHES: 553723 DROPPED PREFETCHES: 363761
L1D PREFETCHES SAME FILL-ORIGIN LEVEL: 2353564 DIFFERENT FILL-ORIGIN LEVEL: 0
L1D AVERAGE MISS LATENCY: 4.2138e+07 cycles
L1D RQ	ACCESS:   47123972	FORWARD:          0	MERGED:   12090320	TO_CACHE:   34684565
L1D WQ	ACCESS:   27955667	FORWARD:     397376	MERGED:     145603	TO_CACHE:   27810064
L1D PQ	ACCESS:   29268459	FORWARD:          0	MERGED:    2225740	TO_CACHE:   26994430

L1D UNIQUE REGIONS ACCESSED: 0
L1D REGIONS CONFLICTS: 0
L1D Cross Page Prefetch Requests: 20704214
L1D Same Page Prefetch Requests: 10272133
L1D ROI Sum of L1D PQ occupancy: 375249266
L1D PREFETCHES PUSHED FROM L2C: 0
L1I TOTAL     ACCESS:   40134297  HIT:   28013196  MISS:   12121101  HIT %:    69.7986  MISS %:    30.2014   MPKI: 60.6055
L1I LOAD      ACCESS:   40134297  HIT:   28013196  MISS:   12121101  HIT %:    69.7986  MISS %:    30.2014   MPKI: 60.6055
L1I PREFETCH  REQUESTED:          0  ISSUED:          0  USEFUL:          0  USELESS:          0
L1I USEFUL LOAD PREFETCHES:          0 PREFETCH ISSUED TO LOWER LEVEL:          0  ACCURACY: -nan
L1I TIMELY PREFETCHES:          0 LATE PREFETCHES: 0 DROPPED PREFETCHES: 0
L1I PREFETCHES SAME FILL-ORIGIN LEVEL: 0 DIFFERENT FILL-ORIGIN LEVEL: 0
L1I AVERAGE MISS LATENCY: 15.0986 cycles
L1I RQ	ACCESS:   58856683	FORWARD:          0	MERGED:   16974121	TO_CACHE:   41882562

BTB TOTAL     ACCESS:   30249220  HIT:   16785844  MISS:   13463376  HIT %:    55.4918  MISS %:    44.5082   MPKI: 67.3169
BTB BRANCH_DIRECT_JUMP	ACCESS:    1947251  HIT:    1081143  MISS:     866108
BTB BRANCH_INDIRECT	ACCESS:   12726639  HIT:    7595465  MISS:    5131174
BTB BRANCH_CONDITIONAL	ACCESS:    5680027  HIT:    4304442  MISS:    1375585
BTB BRANCH_DIRECT_CALL	ACCESS:    4158631  HIT:    1955106  MISS:    2203525
BTB BRANCH_INDIRECT_CALL	ACCESS:     789030  HIT:     387653  MISS:     401377
BTB BRANCH_RETURN	ACCESS:    4947642  HIT:    1462035  MISS:    3485607
BTB BRANCH_OTHER ACCESS:          0  HIT:          0  MISS:          0

L2C TOTAL     ACCESS:   19905230  HIT:   19237754  MISS:     667476  HIT %:    96.6467  MISS %:    3.35327   MPKI: 3.33738
L2C LOAD      ACCESS:   13683989  HIT:   13144761  MISS:     539228  HIT %:    96.0594  MISS %:    3.94058   MPKI: 2.69614
L2C DATA LOAD MPKI: 0.629695
L2C INSTRUCTION LOAD MPKI: 2.06644
L2C RFO       ACCESS:    1065455  HIT:    1054697  MISS:      10758  HIT %:    98.9903  MISS %:    1.00971   MPKI: 0.05379
L2C PREFETCH  ACCESS:    2353557  HIT:    2255825  MISS:      97732  HIT %:    95.8475  MISS %:    4.15252   MPKI: 0.48866
AGUS PREFETCH L1 MISS: 0
L2C DATA PREFETCH MPKI: 0.48866
L2C INSTRUCTION PREFETCH MPKI: 0
L2C WRITEBACK ACCESS:    2316549  HIT:    2308383  MISS:       8166  HIT %:    99.6475  MISS %:   0.352507   MPKI: 0.04083
L2C LOAD TRANSLATION ACCESS:       1619  HIT:       1346  MISS:        273  HIT %:    83.1377  MISS %:    16.8623   MPKI: 0.001365
L2C TRANSLATION FROM L1D PREFETCHER ACCESS:     484061  HIT:     472742  MISS:      11319  HIT %:    97.6617  MISS %:    2.33834   MPKI: 0.056595
L2C PREFETCH  REQUESTED:          0  ISSUED:          0  USEFUL:       8073  USELESS:     100794
L2C USEFUL LOAD PREFETCHES:       8073 PREFETCH ISSUED TO LOWER LEVEL:      97732  ACCURACY: 8.26034
L2C TIMELY PREFETCHES:       8073 LATE PREFETCHES: 0 DROPPED PREFETCHES: 0
L2C PREFETCHES SAME FILL-ORIGIN LEVEL: 0 DIFFERENT FILL-ORIGIN LEVEL: 0
L2C AVERAGE MISS LATENCY: 30.722 cycles
L2C RQ	ACCESS:   15235415	FORWARD:          0	MERGED:          0	TO_CACHE:   15235123
L2C WQ	ACCESS:    2316549	FORWARD:        299	MERGED:          0	TO_CACHE:    2316549
L2C PQ	ACCESS:    2353564	FORWARD:          0	MERGED:          0	TO_CACHE:    2353557

L2C Instructions Evicting Data 102189
L2C Translations Evicting Data 6321
L2C Data Evicting Data 131308
L2C Instructions Evicting Instructions 305498
L2C Translations Evicting Instructions 4930
L2C Data Evicting Instructions 97696
L2C Instructions Evicting Translations 5602
L2C Translations Evicting Translations 341
L2C Data Evicting Translations 5425
L2C Dense regions hint from L2: 0
PSCL5 TOTAL     ACCESS:     342656  HIT:     342656  MISS:          0  HIT %:        100  MISS %:          0   MPKI: 0
PSCL5 LOAD TRANSLATION ACCESS:       1606  HIT:       1606  MISS:          0  HIT %:        100  MISS %:          0   MPKI: 0
PSCL5 TRANSLATION FROM L1D PREFETCHER ACCESS:     341050  HIT:     341050  MISS:          0  HIT %:        100  MISS %:          0   MPKI: 0
PSCL5 PREFETCH  REQUESTED:          0  ISSUED:          0  USEFUL:          0  USELESS:          0
PSCL5 USEFUL LOAD PREFETCHES:          0 PREFETCH ISSUED TO LOWER LEVEL:          0  ACCURACY: -nan
PSCL5 TIMELY PREFETCHES:          0 LATE PREFETCHES: 0 DROPPED PREFETCHES: 0
PSCL5 PREFETCHES SAME FILL-ORIGIN LEVEL: 0 DIFFERENT FILL-ORIGIN LEVEL: 0

PSCL4 TOTAL     ACCESS:     305461  HIT:     305460  MISS:          1  HIT %:    99.9997  MISS %: 0.000327374   MPKI: 5e-06
PSCL4 LOAD TRANSLATION ACCESS:       1605  HIT:       1604  MISS:          1  HIT %:    99.9377  MISS %:  0.0623053   MPKI: 5e-06
PSCL4 TRANSLATION FROM L1D PREFETCHER ACCESS:     303856  HIT:     303856  MISS:          0  HIT %:        100  MISS %:          0   MPKI: 0
PSCL4 PREFETCH  REQUESTED:          0  ISSUED:          0  USEFUL:          0  USELESS:          0
PSCL4 USEFUL LOAD PREFETCHES:          0 PREFETCH ISSUED TO LOWER LEVEL:          0  ACCURACY: -nan
PSCL4 TIMELY PREFETCHES:          0 LATE PREFETCHES: 0 DROPPED PREFETCHES: 0
PSCL4 PREFETCHES SAME FILL-ORIGIN LEVEL: 0 DIFFERENT FILL-ORIGIN LEVEL: 0

PSCL3 TOTAL     ACCESS:     283265  HIT:     283264  MISS:          1  HIT %:    99.9996  MISS %: 0.000353026   MPKI: 5e-06
PSCL3 LOAD TRANSLATION ACCESS:       1605  HIT:       1604  MISS:          1  HIT %:    99.9377  MISS %:  0.0623053   MPKI: 5e-06
PSCL3 TRANSLATION FROM L1D PREFETCHER ACCESS:     281660  HIT:     281660  MISS:          0  HIT %:        100  MISS %:          0   MPKI: 0
PSCL3 PREFETCH  REQUESTED:          0  ISSUED:          0  USEFUL:          0  USELESS:          0
PSCL3 USEFUL LOAD PREFETCHES:          0 PREFETCH ISSUED TO LOWER LEVEL:          0  ACCURACY: -nan
PSCL3 TIMELY PREFETCHES:          0 LATE PREFETCHES: 0 DROPPED PREFETCHES: 0
PSCL3 PREFETCHES SAME FILL-ORIGIN LEVEL: 0 DIFFERENT FILL-ORIGIN LEVEL: 0

PSCL2 TOTAL     ACCESS:      82351  HIT:      82339  MISS:         12  HIT %:    99.9854  MISS %:  0.0145718   MPKI: 6e-05
PSCL2 LOAD TRANSLATION ACCESS:       1607  HIT:       1595  MISS:         12  HIT %:    99.2533  MISS %:   0.746733   MPKI: 6e-05
PSCL2 TRANSLATION FROM L1D PREFETCHER ACCESS:      80744  HIT:      80744  MISS:          0  HIT %:        100  MISS %:          0   MPKI: 0
PSCL2 PREFETCH  REQUESTED:          0  ISSUED:          0  USEFUL:          0  USELESS:          0
PSCL2 USEFUL LOAD PREFETCHES:          0 PREFETCH ISSUED TO LOWER LEVEL:          0  ACCURACY: -nan
PSCL2 TIMELY PREFETCHES:          0 LATE PREFETCHES: 0 DROPPED PREFETCHES: 0
PSCL2 PREFETCHES SAME FILL-ORIGIN LEVEL: 0 DIFFERENT FILL-ORIGIN LEVEL: 0

LLC TOTAL     ACCESS:     677064  HIT:     671989  MISS:       5075  HIT %:    99.2504  MISS %:    0.74956   MPKI: 0.025375
LLC LOAD      ACCESS:     539228  HIT:     536292  MISS:       2936  HIT %:    99.4555  MISS %:   0.544482   MPKI: 0.01468
LLC RFO       ACCESS:      10758  HIT:      10758  MISS:          0  HIT %:        100  MISS %:          0   MPKI: 0
LLC PREFETCH  ACCESS:      97732  HIT:      95772  MISS:       1960  HIT %:    97.9945  MISS %:    2.00548   MPKI: 0.0098
AGUS PREFETCH L1 MISS: 0
LLC WRITEBACK ACCESS:      17754  HIT:      17742  MISS:         12  HIT %:    99.9324  MISS %:  0.0675904   MPKI: 6e-05
LLC LOAD TRANSLATION ACCESS:        273  HIT:        270  MISS:          3  HIT %:    98.9011  MISS %:     1.0989   MPKI: 1.5e-05
LLC TRANSLATION FROM L1D PREFETCHER ACCESS:      11319  HIT:      11155  MISS:        164  HIT %:    98.5511  MISS %:    1.44889   MPKI: 0.00082
LLC PREFETCH  REQUESTED:          0  ISSUED:          0  USEFUL:       2891  USELESS:        314
LLC USEFUL LOAD PREFETCHES:       2891 PREFETCH ISSUED TO LOWER LEVEL:       1960  ACCURACY: 147.5
LLC TIMELY PREFETCHES:       2891 LATE PREFETCHES: 0 DROPPED PREFETCHES: 0
LLC PREFETCHES SAME FILL-ORIGIN LEVEL: 0 DIFFERENT FILL-ORIGIN LEVEL: 0
LLC AVERAGE MISS LATENCY: 143.223 cycles
LLC RQ	ACCESS:     561578	FORWARD:          0	MERGED:          0	TO_CACHE:     561578
LLC WQ	ACCESS:      17754	FORWARD:          0	MERGED:          0	TO_CACHE:      17754
LLC PQ	ACCESS:      97732	FORWARD:          0	MERGED:          0	TO_CACHE:      97732

LLC Dense regions hint to LLC: 0

RAW hits: 1527186
Loads Generated: 48651159
Loads sent to L1D: 47123972
Stores Generated: 27955658
Stores sent to L1D: 27955667
Major fault: 0 Minor fault: 1263
Allocated PAGES: 1263
Completed 

DRAM Statistics
 CHANNEL 0
 RQ ROW_BUFFER_HIT:       1516  ROW_BUFFER_MISS:       3547
 DBUS_CONGESTED:          0
 WQ ROW_BUFFER_HIT:          0  ROW_BUFFER_MISS:         13  FULL:          0

 AVG_CONGESTED_CYCLE: -
 All warmup complete: 2
Channel 0 Bank busy for read cycles: 0
Channel 0 Bank busy for write cycles: 0
Channel 0
Rank 0
0banks busy for read cycles: 653581866
0banks busy for write cycles: 13
1banks busy for read cycles: 286679
1banks busy for write cycles: 1978
2banks busy for read cycles: 33410
2banks busy for write cycles: 0
3banks busy for read cycles: 12272
3banks busy for write cycles: 0
4banks busy for read cycles: 7736
4banks busy for write cycles: 0
5banks busy for read cycles: 5251
5banks busy for write cycles: 0
6banks busy for read cycles: 5706
6banks busy for write cycles: 0
7banks busy for read cycles: 6889
7banks busy for write cycles: 0
8banks busy for read cycles: 9739
8banks busy for write cycles: 0

CPU 0 Branch Prediction Accuracy: 99.8972% MPKI: 0.18238 Average ROB Occupancy at Mispredict: 31.7545
Branch types
NOT_BRANCH: 164500471 82.2502%
BRANCH_DIRECT_JUMP: 1947251 0.973625%
BRANCH_INDIRECT: 12726639 6.36332%
BRANCH_CONDITIONAL: 10930225 5.46511%
BRANCH_DIRECT_CALL: 4158631 2.07932%
BRANCH_INDIRECT_CALL: 789030 0.394515%
BRANCH_RETURN: 4947642 2.47382%
BRANCH_OTHER: 0 0%

DRAM PAGES: 1048576
Allocated PAGES: 1263
