
*** ChampSim Multicore Out-of-Order Simulator ***

Warmup Instructions: 50000000
Simulation Instructions: 200000000
Number of CPUs: 1
LLC sets: 2048
LLC ways: 16
Off-chip DRAM Size: 4096 MB Channels: 1 Width: 64-bit Data Rate: 6400 MT/s
CPU 0 runs traces/spec2k17/server_037.champsimtrace.xz
.xz
BTB has LRU replacement policy
ITLB has LRU replacement policy
DTLB has LRU replacement policy
STLB has LRU replacement policy
L1I has LRU replacement policy
L1D has LRU replacement policy
Initialize SRRIP state for L2C
Initialize DRRIP state for LLC
Heartbeat CPU 0 instructions: 10000002 cycles: 2793779 heartbeat IPC: 3.57938 cumulative IPC: 3.57938 (Simulation time: 0 hr 0 min 35 sec) 
Heartbeat CPU 0 instructions: 20000000 cycles: 5595308 heartbeat IPC: 3.56948 cumulative IPC: 3.57442 (Simulation time: 0 hr 1 min 2 sec) 
Heartbeat CPU 0 instructions: 30000001 cycles: 8401525 heartbeat IPC: 3.56352 cumulative IPC: 3.57078 (Simulation time: 0 hr 1 min 31 sec) 
Heartbeat CPU 0 instructions: 40000001 cycles: 11207012 heartbeat IPC: 3.56444 cumulative IPC: 3.56919 (Simulation time: 0 hr 2 min 6 sec) 
Heartbeat CPU 0 instructions: 50000001 cycles: 14012892 heartbeat IPC: 3.56394 cumulative IPC: 3.56814 (Simulation time: 0 hr 2 min 33 sec) 

Warmup complete CPU 0 instructions: 50000001 cycles: 14012892 (Simulation time: 0 hr 2 min 33 sec) 

Heartbeat CPU 0 instructions: 60000000 cycles: 34058060 heartbeat IPC: 0.498873 cumulative IPC: 0.498873 (Simulation time: 0 hr 3 min 32 sec) 
Heartbeat CPU 0 instructions: 70000001 cycles: 54256154 heartbeat IPC: 0.495096 cumulative IPC: 0.496978 (Simulation time: 0 hr 4 min 28 sec) 
Heartbeat CPU 0 instructions: 80000003 cycles: 74227272 heartbeat IPC: 0.500723 cumulative IPC: 0.49822 (Simulation time: 0 hr 5 min 28 sec) 
Heartbeat CPU 0 instructions: 90000001 cycles: 94223468 heartbeat IPC: 0.500095 cumulative IPC: 0.498687 (Simulation time: 0 hr 6 min 28 sec) 
*** Reached end of trace for Core: 0 Repeating trace: traces/spec2k17/server_037.champsimtrace.xz
Heartbeat CPU 0 instructions: 100000000 cycles: 114262268 heartbeat IPC: 0.499032 cumulative IPC: 0.498756 (Simulation time: 0 hr 7 min 28 sec) 
Heartbeat CPU 0 instructions: 110000000 cycles: 134194626 heartbeat IPC: 0.501697 cumulative IPC: 0.499244 (Simulation time: 0 hr 8 min 26 sec) 
Heartbeat CPU 0 instructions: 120000002 cycles: 154107028 heartbeat IPC: 0.5022 cumulative IPC: 0.499664 (Simulation time: 0 hr 9 min 26 sec) 
Heartbeat CPU 0 instructions: 130000003 cycles: 173588979 heartbeat IPC: 0.513296 cumulative IPC: 0.501328 (Simulation time: 0 hr 10 min 22 sec) 
Heartbeat CPU 0 instructions: 140000000 cycles: 193583320 heartbeat IPC: 0.500141 cumulative IPC: 0.501196 (Simulation time: 0 hr 11 min 25 sec) 
Heartbeat CPU 0 instructions: 150000000 cycles: 213558368 heartbeat IPC: 0.500625 cumulative IPC: 0.501139 (Simulation time: 0 hr 12 min 26 sec) 
Heartbeat CPU 0 instructions: 160000001 cycles: 233481451 heartbeat IPC: 0.50193 cumulative IPC: 0.501211 (Simulation time: 0 hr 13 min 25 sec) 
Heartbeat CPU 0 instructions: 170000000 cycles: 253565958 heartbeat IPC: 0.497896 cumulative IPC: 0.500933 (Simulation time: 0 hr 14 min 26 sec) 
Heartbeat CPU 0 instructions: 180000001 cycles: 273496738 heartbeat IPC: 0.501737 cumulative IPC: 0.500995 (Simulation time: 0 hr 15 min 28 sec) 
Heartbeat CPU 0 instructions: 190000002 cycles: 293441890 heartbeat IPC: 0.501375 cumulative IPC: 0.501022 (Simulation time: 0 hr 16 min 29 sec) 
*** Reached end of trace for Core: 0 Repeating trace: traces/spec2k17/server_037.champsimtrace.xz
Heartbeat CPU 0 instructions: 200000000 cycles: 313425106 heartbeat IPC: 0.50042 cumulative IPC: 0.500982 (Simulation time: 0 hr 17 min 29 sec) 
Heartbeat CPU 0 instructions: 210000000 cycles: 333353948 heartbeat IPC: 0.501785 cumulative IPC: 0.501032 (Simulation time: 0 hr 18 min 27 sec) 
Heartbeat CPU 0 instructions: 220000000 cycles: 353280316 heartbeat IPC: 0.501848 cumulative IPC: 0.50108 (Simulation time: 0 hr 19 min 18 sec) 
Heartbeat CPU 0 instructions: 230000001 cycles: 372768897 heartbeat IPC: 0.513121 cumulative IPC: 0.501734 (Simulation time: 0 hr 20 min 9 sec) 
Heartbeat CPU 0 instructions: 240000000 cycles: 392767533 heartbeat IPC: 0.500034 cumulative IPC: 0.501644 (Simulation time: 0 hr 21 min 6 sec) 
Heartbeat CPU 0 instructions: 250000001 cycles: 412753669 heartbeat IPC: 0.500347 cumulative IPC: 0.501579 (Simulation time: 0 hr 21 min 56 sec) 
Finished CPU 0 instructions: 200000000 cycles: 398740777 cumulative IPC: 0.501579 (Simulation time: 0 hr 21 min 56 sec) 

ChampSim completed all CPUs

Region of Interest Statistics

CPU 0 cumulative IPC: 0.501579 instructions: 200000000 cycles: 398740777
ITLB TOTAL     ACCESS:   35155245  HIT:   32678985  MISS:    2476260  HIT %:    92.9562  MISS %:    7.04379   MPKI: 12.3813
ITLB LOAD TRANSLATION ACCESS:   35155245  HIT:   32678985  MISS:    2476260  HIT %:    92.9562  MISS %:    7.04379   MPKI: 12.3813
ITLB PREFETCH  REQUESTED:          0  ISSUED:          0  USEFUL:          0  USELESS:          0
ITLB USEFUL LOAD PREFETCHES:          0 PREFETCH ISSUED TO LOWER LEVEL:          0  ACCURACY: -nan
ITLB TIMELY PREFETCHES:          0 LATE PREFETCHES: 0 DROPPED PREFETCHES: 0
ITLB PREFETCHES SAME FILL-ORIGIN LEVEL: 0 DIFFERENT FILL-ORIGIN LEVEL: 0
ITLB AVERAGE MISS LATENCY: 9.02367 cycles
ITLB RQ	ACCESS:   41399304	FORWARD:          0	MERGED:    5435565	TO_CACHE:   35963739

DTLB TOTAL     ACCESS:   40029643  HIT:   38023791  MISS:    2005852  HIT %:    94.9891  MISS %:    5.01092   MPKI: 10.0293
DTLB LOAD TRANSLATION ACCESS:   40029643  HIT:   38023791  MISS:    2005852  HIT %:    94.9891  MISS %:    5.01092   MPKI: 10.0293
DTLB PREFETCH  REQUESTED:          0  ISSUED:          0  USEFUL:          0  USELESS:          0
DTLB USEFUL LOAD PREFETCHES:          0 PREFETCH ISSUED TO LOWER LEVEL:          0  ACCURACY: -nan
DTLB TIMELY PREFETCHES:          0 LATE PREFETCHES: 0 DROPPED PREFETCHES: 0
DTLB PREFETCHES SAME FILL-ORIGIN LEVEL: 0 DIFFERENT FILL-ORIGIN LEVEL: 0
DTLB AVERAGE MISS LATENCY: 9.0131 cycles
DTLB RQ	ACCESS:   55789348	FORWARD:          0	MERGED:   15624317	TO_CACHE:   40165031

STLB TOTAL     ACCESS:   13115470  HIT:   13092176  MISS:      23294  HIT %:    99.8224  MISS %:   0.177607   MPKI: 0.11647
STLB LOAD TRANSLATION ACCESS:    4482112  HIT:    4459265  MISS:      22847  HIT %:    99.4903  MISS %:   0.509737   MPKI: 0.114235
STLB TRANSLATION FROM L1D PREFETCHER ACCESS:    8633358  HIT:    8632911  MISS:        447  HIT %:    99.9948  MISS %: 0.00517759   MPKI: 0.002235
STLB PREFETCH  REQUESTED:          0  ISSUED:          0  USEFUL:        297  USELESS:        139
STLB USEFUL LOAD PREFETCHES:        297 PREFETCH ISSUED TO LOWER LEVEL:          0  ACCURACY: inf
STLB TIMELY PREFETCHES:        297 LATE PREFETCHES: 1 DROPPED PREFETCHES: 193462
STLB PREFETCHES SAME FILL-ORIGIN LEVEL: 0 DIFFERENT FILL-ORIGIN LEVEL: 0
STLB AVERAGE MISS LATENCY: 59.808 cycles
STLB RQ	ACCESS:   16102821	FORWARD:          0	MERGED:    2793720	TO_CACHE:   13309101

STLB Hit, L1D data hit: 0
STLB Hit, L2C data hit: 0
STLB Hit, LLC data hit: 0
STLB Hit, LLC data miss: 0
STLB STLB hints to L2: 0
L1D TOTAL     ACCESS:   66564363  HIT:   64583302  MISS:    1981061  HIT %:    97.0238  MISS %:    2.97616   MPKI: 9.90531
L1D LOAD      ACCESS:   31261962  HIT:   29884695  MISS:    1377267  HIT %:    95.5944  MISS %:    4.40557   MPKI: 6.88633
L1D RFO       ACCESS:   24163897  HIT:   23919497  MISS:     244400  HIT %:    98.9886  MISS %:    1.01143   MPKI: 1.222
L1D PREFETCH  ACCESS:   11138504  HIT:   10779110  MISS:     359394  HIT %:    96.7734  MISS %:    3.22659   MPKI: 1.79697
AGUS PREFETCH L1 MISS: 0
L1D PREFETCH  REQUESTED:   24852866  ISSUED:   24852544  USEFUL:     135224  USELESS:     224118
L1D USEFUL LOAD PREFETCHES:     135224 PREFETCH ISSUED TO LOWER LEVEL:     449236  ACCURACY: 30.1009
L1D TIMELY PREFETCHES:     135224 LATE PREFETCHES: 84319 DROPPED PREFETCHES: 215174
L1D PREFETCHES SAME FILL-ORIGIN LEVEL: 449236 DIFFERENT FILL-ORIGIN LEVEL: 0
L1D AVERAGE MISS LATENCY: 1.15152e+07 cycles
L1D RQ	ACCESS:   45843348	FORWARD:          0	MERGED:   14220566	TO_CACHE:   31362427
L1D WQ	ACCESS:   24616487	FORWARD:     324090	MERGED:     189566	TO_CACHE:   24426921
L1D PQ	ACCESS:   13231834	FORWARD:          0	MERGED:    1547389	TO_CACHE:   11620710

L1D UNIQUE REGIONS ACCESSED: 0
L1D REGIONS CONFLICTS: 0
L1D Cross Page Prefetch Requests: 8205715
L1D Same Page Prefetch Requests: 7305529
L1D ROI Sum of L1D PQ occupancy: 163425085
L1D PREFETCHES PUSHED FROM L2C: 0
L1I TOTAL     ACCESS:   37477937  HIT:   22150435  MISS:   15327502  HIT %:    59.1026  MISS %:    40.8974   MPKI: 76.6375
L1I LOAD      ACCESS:   37477937  HIT:   22150435  MISS:   15327502  HIT %:    59.1026  MISS %:    40.8974   MPKI: 76.6375
L1I PREFETCH  REQUESTED:          0  ISSUED:          0  USEFUL:          0  USELESS:          0
L1I USEFUL LOAD PREFETCHES:          0 PREFETCH ISSUED TO LOWER LEVEL:          0  ACCURACY: -nan
L1I TIMELY PREFETCHES:          0 LATE PREFETCHES: 0 DROPPED PREFETCHES: 0
L1I PREFETCHES SAME FILL-ORIGIN LEVEL: 0 DIFFERENT FILL-ORIGIN LEVEL: 0
L1I AVERAGE MISS LATENCY: 14.1512 cycles
L1I RQ	ACCESS:   62434807	FORWARD:          0	MERGED:   21035503	TO_CACHE:   41399304

BTB TOTAL     ACCESS:   28200156  HIT:   24637368  MISS:    3562788  HIT %:    87.3661  MISS %:    12.6339   MPKI: 17.8139
BTB BRANCH_DIRECT_JUMP	ACCESS:    2065529  HIT:    1955055  MISS:     110474
BTB BRANCH_INDIRECT	ACCESS:   12547706  HIT:   11310984  MISS:    1236722
BTB BRANCH_CONDITIONAL	ACCESS:    4129025  HIT:    4013332  MISS:     115693
BTB BRANCH_DIRECT_CALL	ACCESS:    3836283  HIT:    3585253  MISS:     251030
BTB BRANCH_INDIRECT_CALL	ACCESS:     892681  HIT:     717749  MISS:     174932
BTB BRANCH_RETURN	ACCESS:    4728932  HIT:    3054995  MISS:    1673937
BTB BRANCH_OTHER ACCESS:          0  HIT:          0  MISS:          0

L2C TOTAL     ACCESS:   18550558  HIT:   17846045  MISS:     704513  HIT %:    96.2022  MISS %:     3.7978   MPKI: 3.52257
L2C LOAD      ACCESS:   16620397  HIT:   16173917  MISS:     446480  HIT %:    97.3137  MISS %:    2.68634   MPKI: 2.2324
L2C DATA LOAD MPKI: 2.09547
L2C INSTRUCTION LOAD MPKI: 0.13693
L2C RFO       ACCESS:     238877  HIT:     132285  MISS:     106592  HIT %:    55.3779  MISS %:    44.6221   MPKI: 0.53296
L2C PREFETCH  ACCESS:     449233  HIT:     344863  MISS:     104370  HIT %:    76.7671  MISS %:    23.2329   MPKI: 0.52185
AGUS PREFETCH L1 MISS: 0
L2C DATA PREFETCH MPKI: 0.52185
L2C INSTRUCTION PREFETCH MPKI: 0
L2C WRITEBACK ACCESS:     902338  HIT:     887318  MISS:      15020  HIT %:    98.3354  MISS %:    1.66456   MPKI: 0.0751
L2C LOAD TRANSLATION ACCESS:      31624  HIT:      12527  MISS:      19097  HIT %:    39.6123  MISS %:    60.3877   MPKI: 0.095485
L2C TRANSLATION FROM L1D PREFETCHER ACCESS:     308089  HIT:     295135  MISS:      12954  HIT %:    95.7954  MISS %:    4.20463   MPKI: 0.06477
L2C PREFETCH  REQUESTED:          0  ISSUED:          0  USEFUL:      14813  USELESS:     102024
L2C USEFUL LOAD PREFETCHES:      14813 PREFETCH ISSUED TO LOWER LEVEL:     104370  ACCURACY: 14.1928
L2C TIMELY PREFETCHES:      14813 LATE PREFETCHES: 0 DROPPED PREFETCHES: 0
L2C PREFETCHES SAME FILL-ORIGIN LEVEL: 0 DIFFERENT FILL-ORIGIN LEVEL: 0
L2C AVERAGE MISS LATENCY: 48.6991 cycles
L2C RQ	ACCESS:   17199041	FORWARD:          0	MERGED:          0	TO_CACHE:   17198988
L2C WQ	ACCESS:     902338	FORWARD:         56	MERGED:          0	TO_CACHE:     902338
L2C PQ	ACCESS:     449236	FORWARD:          0	MERGED:          0	TO_CACHE:     449233

L2C Instructions Evicting Data 24508
L2C Translations Evicting Data 28896
L2C Data Evicting Data 578049
L2C Instructions Evicting Instructions 1347
L2C Translations Evicting Instructions 1481
L2C Data Evicting Instructions 23869
L2C Instructions Evicting Translations 1531
L2C Translations Evicting Translations 1674
L2C Data Evicting Translations 28138
L2C Dense regions hint from L2: 0
PSCL5 TOTAL     ACCESS:     209714  HIT:     209714  MISS:          0  HIT %:        100  MISS %:          0   MPKI: 0
PSCL5 LOAD TRANSLATION ACCESS:      22846  HIT:      22846  MISS:          0  HIT %:        100  MISS %:          0   MPKI: 0
PSCL5 TRANSLATION FROM L1D PREFETCHER ACCESS:     186868  HIT:     186868  MISS:          0  HIT %:        100  MISS %:          0   MPKI: 0
PSCL5 PREFETCH  REQUESTED:          0  ISSUED:          0  USEFUL:          0  USELESS:          0
PSCL5 USEFUL LOAD PREFETCHES:          0 PREFETCH ISSUED TO LOWER LEVEL:          0  ACCURACY: -nan
PSCL5 TIMELY PREFETCHES:          0 LATE PREFETCHES: 0 DROPPED PREFETCHES: 0
PSCL5 PREFETCHES SAME FILL-ORIGIN LEVEL: 0 DIFFERENT FILL-ORIGIN LEVEL: 0

PSCL4 TOTAL     ACCESS:     155283  HIT:     155263  MISS:         20  HIT %:    99.9871  MISS %:  0.0128797   MPKI: 0.0001
PSCL4 LOAD TRANSLATION ACCESS:      22730  HIT:      22710  MISS:         20  HIT %:     99.912  MISS %:  0.0879894   MPKI: 0.0001
PSCL4 TRANSLATION FROM L1D PREFETCHER ACCESS:     132553  HIT:     132553  MISS:          0  HIT %:        100  MISS %:          0   MPKI: 0
PSCL4 PREFETCH  REQUESTED:          0  ISSUED:          0  USEFUL:          0  USELESS:          0
PSCL4 USEFUL LOAD PREFETCHES:          0 PREFETCH ISSUED TO LOWER LEVEL:          0  ACCURACY: -nan
PSCL4 TIMELY PREFETCHES:          0 LATE PREFETCHES: 0 DROPPED PREFETCHES: 0
PSCL4 PREFETCHES SAME FILL-ORIGIN LEVEL: 0 DIFFERENT FILL-ORIGIN LEVEL: 0

PSCL3 TOTAL     ACCESS:     149557  HIT:     149422  MISS:        135  HIT %:    99.9097  MISS %:  0.0902666   MPKI: 0.000675
PSCL3 LOAD TRANSLATION ACCESS:      22767  HIT:      22632  MISS:        135  HIT %:     99.407  MISS %:   0.592963   MPKI: 0.000675
PSCL3 TRANSLATION FROM L1D PREFETCHER ACCESS:     126790  HIT:     126790  MISS:          0  HIT %:        100  MISS %:          0   MPKI: 0
PSCL3 PREFETCH  REQUESTED:          0  ISSUED:          0  USEFUL:          0  USELESS:          0
PSCL3 USEFUL LOAD PREFETCHES:          0 PREFETCH ISSUED TO LOWER LEVEL:          0  ACCURACY: -nan
PSCL3 TIMELY PREFETCHES:          0 LATE PREFETCHES: 0 DROPPED PREFETCHES: 0
PSCL3 PREFETCHES SAME FILL-ORIGIN LEVEL: 0 DIFFERENT FILL-ORIGIN LEVEL: 0

PSCL2 TOTAL     ACCESS:      34518  HIT:      25719  MISS:       8799  HIT %:     74.509  MISS %:     25.491   MPKI: 0.043995
PSCL2 LOAD TRANSLATION ACCESS:      22992  HIT:      14193  MISS:       8799  HIT %:    61.7302  MISS %:    38.2698   MPKI: 0.043995
PSCL2 TRANSLATION FROM L1D PREFETCHER ACCESS:      11526  HIT:      11526  MISS:          0  HIT %:        100  MISS %:          0   MPKI: 0
PSCL2 PREFETCH  REQUESTED:          0  ISSUED:          0  USEFUL:          0  USELESS:          0
PSCL2 USEFUL LOAD PREFETCHES:          0 PREFETCH ISSUED TO LOWER LEVEL:          0  ACCURACY: -nan
PSCL2 TIMELY PREFETCHES:          0 LATE PREFETCHES: 0 DROPPED PREFETCHES: 0
PSCL2 PREFETCHES SAME FILL-ORIGIN LEVEL: 0 DIFFERENT FILL-ORIGIN LEVEL: 0

LLC TOTAL     ACCESS:    1001646  HIT:     915453  MISS:      86193  HIT %:    91.3949  MISS %:    8.60514   MPKI: 0.430965
LLC LOAD      ACCESS:     446480  HIT:     389818  MISS:      56662  HIT %:    87.3092  MISS %:    12.6908   MPKI: 0.28331
LLC RFO       ACCESS:     106592  HIT:      87419  MISS:      19173  HIT %:    82.0127  MISS %:    17.9873   MPKI: 0.095865
LLC PREFETCH  ACCESS:     104370  HIT:      95848  MISS:       8522  HIT %:    91.8348  MISS %:    8.16518   MPKI: 0.04261
AGUS PREFETCH L1 MISS: 0
LLC WRITEBACK ACCESS:     312153  HIT:     311431  MISS:        722  HIT %:    99.7687  MISS %:   0.231297   MPKI: 0.00361
LLC LOAD TRANSLATION ACCESS:      19097  HIT:      18493  MISS:        604  HIT %:    96.8372  MISS %:     3.1628   MPKI: 0.00302
LLC TRANSLATION FROM L1D PREFETCHER ACCESS:      12954  HIT:      12444  MISS:        510  HIT %:     96.063  MISS %:    3.93701   MPKI: 0.00255
LLC PREFETCH  REQUESTED:          0  ISSUED:          0  USEFUL:        948  USELESS:       5696
LLC USEFUL LOAD PREFETCHES:        948 PREFETCH ISSUED TO LOWER LEVEL:       8522  ACCURACY: 11.1241
LLC TIMELY PREFETCHES:        948 LATE PREFETCHES: 0 DROPPED PREFETCHES: 0
LLC PREFETCHES SAME FILL-ORIGIN LEVEL: 0 DIFFERENT FILL-ORIGIN LEVEL: 0
LLC AVERAGE MISS LATENCY: 157.946 cycles
LLC RQ	ACCESS:     585123	FORWARD:          0	MERGED:          0	TO_CACHE:     585123
LLC WQ	ACCESS:     312153	FORWARD:          0	MERGED:          0	TO_CACHE:     312153
LLC PQ	ACCESS:     104370	FORWARD:          0	MERGED:          0	TO_CACHE:     104370

LLC Dense regions hint to LLC: 0

RAW hits: 2118969
Loads Generated: 47962317
Loads sent to L1D: 45843348
Stores Generated: 24616492
Stores sent to L1D: 24616487
Major fault: 0 Minor fault: 5878
Allocated PAGES: 5878
Completed 

DRAM Statistics
 CHANNEL 0
 RQ ROW_BUFFER_HIT:      20202  ROW_BUFFER_MISS:      65268
 DBUS_CONGESTED:         13
 WQ ROW_BUFFER_HIT:       3589  ROW_BUFFER_MISS:      28762  FULL:          0

 AVG_CONGESTED_CYCLE: 5
 All warmup complete: 2
Channel 0 Bank busy for read cycles: 0
Channel 0 Bank busy for write cycles: 0
Channel 0
Rank 0
0banks busy for read cycles: 385862438
0banks busy for write cycles: 23100
1banks busy for read cycles: 7428977
1banks busy for write cycles: 3463401
2banks busy for read cycles: 743786
2banks busy for write cycles: 555772
3banks busy for read cycles: 224676
3banks busy for write cycles: 104263
4banks busy for read cycles: 95276
4banks busy for write cycles: 62380
5banks busy for read cycles: 24515
5banks busy for write cycles: 20117
6banks busy for read cycles: 25661
6banks busy for write cycles: 13142
7banks busy for read cycles: 33548
7banks busy for write cycles: 11623
8banks busy for read cycles: 40763
8banks busy for write cycles: 7340

CPU 0 Branch Prediction Accuracy: 99.974% MPKI: 0.044765 Average ROB Occupancy at Mispredict: 23.2131
Branch types
NOT_BRANCH: 165600942 82.8005%
BRANCH_DIRECT_JUMP: 2065529 1.03276%
BRANCH_INDIRECT: 12547706 6.27385%
BRANCH_CONDITIONAL: 10327907 5.16395%
BRANCH_DIRECT_CALL: 3836283 1.91814%
BRANCH_INDIRECT_CALL: 892681 0.44634%
BRANCH_RETURN: 4728932 2.36447%
BRANCH_OTHER: 0 0%

DRAM PAGES: 1048576
Allocated PAGES: 5878
