
*** ChampSim Multicore Out-of-Order Simulator ***

Warmup Instructions: 50000000
Simulation Instructions: 200000000
Number of CPUs: 1
LLC sets: 2048
LLC ways: 16
Off-chip DRAM Size: 4096 MB Channels: 1 Width: 64-bit Data Rate: 6400 MT/s
CPU 0 runs traces/spec2k17/srv_46.champsimtrace.xz
.xz
BTB has LRU replacement policy
ITLB has LRU replacement policy
DTLB has LRU replacement policy
STLB has LRU replacement policy
L1I has LRU replacement policy
L1D has LRU replacement policy
Initialize SRRIP state for L2C
Initialize DRRIP state for LLC
Heartbeat CPU 0 instructions: 10000003 cycles: 2962941 heartbeat IPC: 3.37503 cumulative IPC: 3.37503 (Simulation time: 0 hr 0 min 30 sec) 
Heartbeat CPU 0 instructions: 20000002 cycles: 5931360 heartbeat IPC: 3.3688 cumulative IPC: 3.37191 (Simulation time: 0 hr 1 min 1 sec) 
Heartbeat CPU 0 instructions: 30000003 cycles: 8875165 heartbeat IPC: 3.39696 cumulative IPC: 3.38022 (Simulation time: 0 hr 1 min 30 sec) 
*** Reached end of trace for Core: 0 Repeating trace: traces/spec2k17/srv_46.champsimtrace.xz
Heartbeat CPU 0 instructions: 40000000 cycles: 11840301 heartbeat IPC: 3.37253 cumulative IPC: 3.37829 (Simulation time: 0 hr 2 min 6 sec) 
Heartbeat CPU 0 instructions: 50000000 cycles: 14797298 heartbeat IPC: 3.38181 cumulative IPC: 3.379 (Simulation time: 0 hr 2 min 43 sec) 

Warmup complete CPU 0 instructions: 50000004 cycles: 14797299 (Simulation time: 0 hr 2 min 43 sec) 

Heartbeat CPU 0 instructions: 60000001 cycles: 39154954 heartbeat IPC: 0.410549 cumulative IPC: 0.410548 (Simulation time: 0 hr 3 min 27 sec) 
*** Reached end of trace for Core: 0 Repeating trace: traces/spec2k17/srv_46.champsimtrace.xz
Heartbeat CPU 0 instructions: 70000002 cycles: 62840560 heartbeat IPC: 0.422197 cumulative IPC: 0.416291 (Simulation time: 0 hr 4 min 17 sec) 
Heartbeat CPU 0 instructions: 80000000 cycles: 85100334 heartbeat IPC: 0.449241 cumulative IPC: 0.426724 (Simulation time: 0 hr 4 min 55 sec) 
Heartbeat CPU 0 instructions: 90000003 cycles: 108938222 heartbeat IPC: 0.4195 cumulative IPC: 0.424895 (Simulation time: 0 hr 5 min 49 sec) 
*** Reached end of trace for Core: 0 Repeating trace: traces/spec2k17/srv_46.champsimtrace.xz
Heartbeat CPU 0 instructions: 100000000 cycles: 132182843 heartbeat IPC: 0.430207 cumulative IPC: 0.425947 (Simulation time: 0 hr 6 min 48 sec) 
Heartbeat CPU 0 instructions: 110000000 cycles: 155461602 heartbeat IPC: 0.429576 cumulative IPC: 0.426547 (Simulation time: 0 hr 7 min 37 sec) 
Heartbeat CPU 0 instructions: 120000000 cycles: 177844705 heartbeat IPC: 0.446766 cumulative IPC: 0.429323 (Simulation time: 0 hr 8 min 14 sec) 
*** Reached end of trace for Core: 0 Repeating trace: traces/spec2k17/srv_46.champsimtrace.xz
Heartbeat CPU 0 instructions: 130000001 cycles: 201250605 heartbeat IPC: 0.427243 cumulative IPC: 0.429062 (Simulation time: 0 hr 8 min 52 sec) 
Heartbeat CPU 0 instructions: 140000002 cycles: 225261619 heartbeat IPC: 0.416476 cumulative IPC: 0.427626 (Simulation time: 0 hr 9 min 39 sec) 
Heartbeat CPU 0 instructions: 150000002 cycles: 247908571 heartbeat IPC: 0.441561 cumulative IPC: 0.42898 (Simulation time: 0 hr 10 min 34 sec) 
*** Reached end of trace for Core: 0 Repeating trace: traces/spec2k17/srv_46.champsimtrace.xz
Heartbeat CPU 0 instructions: 160000002 cycles: 270268092 heartbeat IPC: 0.447237 cumulative IPC: 0.430578 (Simulation time: 0 hr 11 min 17 sec) 
Heartbeat CPU 0 instructions: 170000003 cycles: 294903331 heartbeat IPC: 0.405923 cumulative IPC: 0.428409 (Simulation time: 0 hr 12 min 1 sec) 
Heartbeat CPU 0 instructions: 180000000 cycles: 317889295 heartbeat IPC: 0.435048 cumulative IPC: 0.428913 (Simulation time: 0 hr 12 min 44 sec) 
*** Reached end of trace for Core: 0 Repeating trace: traces/spec2k17/srv_46.champsimtrace.xz
Heartbeat CPU 0 instructions: 190000000 cycles: 340212330 heartbeat IPC: 0.447968 cumulative IPC: 0.43022 (Simulation time: 0 hr 13 min 24 sec) 
Heartbeat CPU 0 instructions: 200000003 cycles: 363839229 heartbeat IPC: 0.423247 cumulative IPC: 0.429748 (Simulation time: 0 hr 14 min 2 sec) 
Heartbeat CPU 0 instructions: 210000002 cycles: 387604431 heartbeat IPC: 0.420783 cumulative IPC: 0.429176 (Simulation time: 0 hr 14 min 49 sec) 
*** Reached end of trace for Core: 0 Repeating trace: traces/spec2k17/srv_46.champsimtrace.xz
Heartbeat CPU 0 instructions: 220000000 cycles: 410242885 heartbeat IPC: 0.441726 cumulative IPC: 0.429895 (Simulation time: 0 hr 15 min 54 sec) 
Heartbeat CPU 0 instructions: 230000002 cycles: 432247614 heartbeat IPC: 0.454448 cumulative IPC: 0.431189 (Simulation time: 0 hr 16 min 54 sec) 
Heartbeat CPU 0 instructions: 240000000 cycles: 456522069 heartbeat IPC: 0.411956 cumulative IPC: 0.430132 (Simulation time: 0 hr 17 min 56 sec) 
*** Reached end of trace for Core: 0 Repeating trace: traces/spec2k17/srv_46.champsimtrace.xz
Heartbeat CPU 0 instructions: 250000003 cycles: 480056629 heartbeat IPC: 0.424907 cumulative IPC: 0.429868 (Simulation time: 0 hr 18 min 49 sec) 
Finished CPU 0 instructions: 200000003 cycles: 465259331 cumulative IPC: 0.429868 (Simulation time: 0 hr 18 min 49 sec) 

ChampSim completed all CPUs

Region of Interest Statistics

CPU 0 cumulative IPC: 0.429868 instructions: 200000003 cycles: 465259331
ITLB TOTAL     ACCESS:   34876742  HIT:   33559909  MISS:    1316833  HIT %:    96.2243  MISS %:    3.77568   MPKI: 6.58416
ITLB LOAD TRANSLATION ACCESS:   34876742  HIT:   33559909  MISS:    1316833  HIT %:    96.2243  MISS %:    3.77568   MPKI: 6.58416
ITLB PREFETCH  REQUESTED:          0  ISSUED:          0  USEFUL:          0  USELESS:          0
ITLB USEFUL LOAD PREFETCHES:          0 PREFETCH ISSUED TO LOWER LEVEL:          0  ACCURACY: -nan
ITLB TIMELY PREFETCHES:          0 LATE PREFETCHES: 0 DROPPED PREFETCHES: 0
ITLB PREFETCHES SAME FILL-ORIGIN LEVEL: 0 DIFFERENT FILL-ORIGIN LEVEL: 0
ITLB AVERAGE MISS LATENCY: 9.53231 cycles
ITLB RQ	ACCESS:   40095951	FORWARD:          0	MERGED:    4840594	TO_CACHE:   35255357

DTLB TOTAL     ACCESS:   45191556  HIT:   43953942  MISS:    1237614  HIT %:    97.2614  MISS %:     2.7386   MPKI: 6.18807
DTLB LOAD TRANSLATION ACCESS:   45191556  HIT:   43953942  MISS:    1237614  HIT %:    97.2614  MISS %:     2.7386   MPKI: 6.18807
DTLB PREFETCH  REQUESTED:          0  ISSUED:          0  USEFUL:          0  USELESS:          0
DTLB USEFUL LOAD PREFETCHES:          0 PREFETCH ISSUED TO LOWER LEVEL:          0  ACCURACY: -nan
DTLB TIMELY PREFETCHES:          0 LATE PREFETCHES: 0 DROPPED PREFETCHES: 0
DTLB PREFETCHES SAME FILL-ORIGIN LEVEL: 0 DIFFERENT FILL-ORIGIN LEVEL: 0
DTLB AVERAGE MISS LATENCY: 11.8067 cycles
DTLB RQ	ACCESS:   61858515	FORWARD:          0	MERGED:   16580780	TO_CACHE:   45277735

STLB TOTAL     ACCESS:   12368838  HIT:   12310785  MISS:      58053  HIT %:    99.5307  MISS %:   0.469349   MPKI: 0.290265
STLB LOAD TRANSLATION ACCESS:    2554447  HIT:    2500757  MISS:      53690  HIT %:    97.8982  MISS %:    2.10182   MPKI: 0.26845
STLB TRANSLATION FROM L1D PREFETCHER ACCESS:    9814391  HIT:    9810028  MISS:       4363  HIT %:    99.9555  MISS %:  0.0444551   MPKI: 0.021815
STLB PREFETCH  REQUESTED:          0  ISSUED:          0  USEFUL:       3443  USELESS:        904
STLB USEFUL LOAD PREFETCHES:       3443 PREFETCH ISSUED TO LOWER LEVEL:          0  ACCURACY: inf
STLB TIMELY PREFETCHES:       3443 LATE PREFETCHES: 208 DROPPED PREFETCHES: 271764
STLB PREFETCHES SAME FILL-ORIGIN LEVEL: 0 DIFFERENT FILL-ORIGIN LEVEL: 0
STLB AVERAGE MISS LATENCY: 82.0623 cycles
STLB RQ	ACCESS:   14954473	FORWARD:          0	MERGED:    2312727	TO_CACHE:   12641746

STLB Hit, L1D data hit: 0
STLB Hit, L2C data hit: 0
STLB Hit, LLC data hit: 0
STLB Hit, LLC data miss: 0
STLB STLB hints to L2: 0
L1D TOTAL     ACCESS:   71573083  HIT:   68778527  MISS:    2794556  HIT %:    96.0955  MISS %:    3.90448   MPKI: 13.9728
L1D LOAD      ACCESS:   37557843  HIT:   35954483  MISS:    1603360  HIT %:     95.731  MISS %:    4.26904   MPKI: 8.0168
L1D RFO       ACCESS:   22120623  HIT:   21266197  MISS:     854426  HIT %:    96.1374  MISS %:    3.86258   MPKI: 4.27213
L1D PREFETCH  ACCESS:   11894617  HIT:   11557847  MISS:     336770  HIT %:    97.1687  MISS %:    2.83128   MPKI: 1.68385
AGUS PREFETCH L1 MISS: 0
L1D PREFETCH  REQUESTED:   25973516  ISSUED:   25963441  USEFUL:     179023  USELESS:     157658
L1D USEFUL LOAD PREFETCHES:     179023 PREFETCH ISSUED TO LOWER LEVEL:     434080  ACCURACY: 41.2419
L1D TIMELY PREFETCHES:     179023 LATE PREFETCHES: 96581 DROPPED PREFETCHES: 289192
L1D PREFETCHES SAME FILL-ORIGIN LEVEL: 434080 DIFFERENT FILL-ORIGIN LEVEL: 0
L1D AVERAGE MISS LATENCY: 1.04302e+07 cycles
L1D RQ	ACCESS:   54609396	FORWARD:          0	MERGED:   16803096	TO_CACHE:   37664180
L1D WQ	ACCESS:   24630455	FORWARD:     155987	MERGED:     436120	TO_CACHE:   24194335
L1D PQ	ACCESS:   13563415	FORWARD:          0	MERGED:    1149522	TO_CACHE:   12400026

L1D UNIQUE REGIONS ACCESSED: 0
L1D REGIONS CONFLICTS: 0
L1D Cross Page Prefetch Requests: 8706393
L1D Same Page Prefetch Requests: 6109310
L1D ROI Sum of L1D PQ occupancy: 182916473
L1D PREFETCHES PUSHED FROM L2C: 0
L1I TOTAL     ACCESS:   39407072  HIT:   34416690  MISS:    4990382  HIT %:    87.3363  MISS %:    12.6637   MPKI: 24.9519
L1I LOAD      ACCESS:   39407072  HIT:   34416690  MISS:    4990382  HIT %:    87.3363  MISS %:    12.6637   MPKI: 24.9519
L1I PREFETCH  REQUESTED:          0  ISSUED:          0  USEFUL:          0  USELESS:          0
L1I USEFUL LOAD PREFETCHES:          0 PREFETCH ISSUED TO LOWER LEVEL:          0  ACCURACY: -nan
L1I TIMELY PREFETCHES:          0 LATE PREFETCHES: 0 DROPPED PREFETCHES: 0
L1I PREFETCHES SAME FILL-ORIGIN LEVEL: 0 DIFFERENT FILL-ORIGIN LEVEL: 0
L1I AVERAGE MISS LATENCY: 20.0205 cycles
L1I RQ	ACCESS:   60429002	FORWARD:          0	MERGED:   20333051	TO_CACHE:   40095951

BTB TOTAL     ACCESS:   31255803  HIT:   24838532  MISS:    6417271  HIT %:    79.4685  MISS %:    20.5315   MPKI: 32.0864
BTB BRANCH_DIRECT_JUMP	ACCESS:    2533222  HIT:    2107885  MISS:     425337
BTB BRANCH_INDIRECT	ACCESS:   13038563  HIT:   10544316  MISS:    2494247
BTB BRANCH_CONDITIONAL	ACCESS:    7059562  HIT:    6546706  MISS:     512856
BTB BRANCH_DIRECT_CALL	ACCESS:    3018472  HIT:    2245364  MISS:     773108
BTB BRANCH_INDIRECT_CALL	ACCESS:    1293792  HIT:     937788  MISS:     356004
BTB BRANCH_RETURN	ACCESS:    4312192  HIT:    2456473  MISS:    1855719
BTB BRANCH_OTHER ACCESS:          0  HIT:          0  MISS:          0

L2C TOTAL     ACCESS:    9516594  HIT:    7293153  MISS:    2223441  HIT %:    76.6362  MISS %:    23.3638   MPKI: 11.1172
L2C LOAD      ACCESS:    6497123  HIT:    5016575  MISS:    1480548  HIT %:    77.2123  MISS %:    22.7877   MPKI: 7.40274
L2C DATA LOAD MPKI: 2.65349
L2C INSTRUCTION LOAD MPKI: 4.74925
L2C RFO       ACCESS:     853696  HIT:     391530  MISS:     462166  HIT %:    45.8629  MISS %:    54.1371   MPKI: 2.31083
L2C PREFETCH  ACCESS:     434069  HIT:     301202  MISS:     132867  HIT %:    69.3904  MISS %:    30.6096   MPKI: 0.664335
AGUS PREFETCH L1 MISS: 0
L2C DATA PREFETCH MPKI: 0.664335
L2C INSTRUCTION PREFETCH MPKI: 0
L2C WRITEBACK ACCESS:    1280549  HIT:    1206753  MISS:      73796  HIT %:    94.2372  MISS %:    5.76284   MPKI: 0.36898
L2C LOAD TRANSLATION ACCESS:      82351  HIT:      37078  MISS:      45273  HIT %:    45.0243  MISS %:    54.9757   MPKI: 0.226365
L2C TRANSLATION FROM L1D PREFETCHER ACCESS:     368806  HIT:     340015  MISS:      28791  HIT %:    92.1935  MISS %:    7.80654   MPKI: 0.143955
L2C PREFETCH  REQUESTED:          0  ISSUED:          0  USEFUL:      28988  USELESS:     132390
L2C USEFUL LOAD PREFETCHES:      28988 PREFETCH ISSUED TO LOWER LEVEL:     132867  ACCURACY: 21.8173
L2C TIMELY PREFETCHES:      28988 LATE PREFETCHES: 0 DROPPED PREFETCHES: 0
L2C PREFETCHES SAME FILL-ORIGIN LEVEL: 0 DIFFERENT FILL-ORIGIN LEVEL: 0
L2C AVERAGE MISS LATENCY: 63.0784 cycles
L2C RQ	ACCESS:    7802014	FORWARD:          0	MERGED:          0	TO_CACHE:    7801976
L2C WQ	ACCESS:    1280549	FORWARD:         49	MERGED:          0	TO_CACHE:    1280549
L2C PQ	ACCESS:     434080	FORWARD:          0	MERGED:          0	TO_CACHE:     434069

L2C Instructions Evicting Data 470982
L2C Translations Evicting Data 44648
L2C Data Evicting Data 645149
L2C Instructions Evicting Instructions 452017
L2C Translations Evicting Instructions 26480
L2C Data Evicting Instructions 438334
L2C Instructions Evicting Translations 26851
L2C Translations Evicting Translations 2936
L2C Data Evicting Translations 42248
L2C Dense regions hint from L2: 0
PSCL5 TOTAL     ACCESS:     318017  HIT:     318017  MISS:          0  HIT %:        100  MISS %:          0   MPKI: 0
PSCL5 LOAD TRANSLATION ACCESS:      53482  HIT:      53482  MISS:          0  HIT %:        100  MISS %:          0   MPKI: 0
PSCL5 TRANSLATION FROM L1D PREFETCHER ACCESS:     264535  HIT:     264535  MISS:          0  HIT %:        100  MISS %:          0   MPKI: 0
PSCL5 PREFETCH  REQUESTED:          0  ISSUED:          0  USEFUL:          0  USELESS:          0
PSCL5 USEFUL LOAD PREFETCHES:          0 PREFETCH ISSUED TO LOWER LEVEL:          0  ACCURACY: -nan
PSCL5 TIMELY PREFETCHES:          0 LATE PREFETCHES: 0 DROPPED PREFETCHES: 0
PSCL5 PREFETCHES SAME FILL-ORIGIN LEVEL: 0 DIFFERENT FILL-ORIGIN LEVEL: 0

PSCL4 TOTAL     ACCESS:     275458  HIT:     274948  MISS:        510  HIT %:    99.8149  MISS %:   0.185146   MPKI: 0.00255
PSCL4 LOAD TRANSLATION ACCESS:      52332  HIT:      51822  MISS:        510  HIT %:    99.0255  MISS %:   0.974547   MPKI: 0.00255
PSCL4 TRANSLATION FROM L1D PREFETCHER ACCESS:     223126  HIT:     223126  MISS:          0  HIT %:        100  MISS %:          0   MPKI: 0
PSCL4 PREFETCH  REQUESTED:          0  ISSUED:          0  USEFUL:          0  USELESS:          0
PSCL4 USEFUL LOAD PREFETCHES:          0 PREFETCH ISSUED TO LOWER LEVEL:          0  ACCURACY: -nan
PSCL4 TIMELY PREFETCHES:          0 LATE PREFETCHES: 0 DROPPED PREFETCHES: 0
PSCL4 PREFETCHES SAME FILL-ORIGIN LEVEL: 0 DIFFERENT FILL-ORIGIN LEVEL: 0

PSCL3 TOTAL     ACCESS:     198380  HIT:     190401  MISS:       7979  HIT %:    95.9779  MISS %:    4.02208   MPKI: 0.039895
PSCL3 LOAD TRANSLATION ACCESS:      50330  HIT:      42351  MISS:       7979  HIT %:    84.1466  MISS %:    15.8534   MPKI: 0.039895
PSCL3 TRANSLATION FROM L1D PREFETCHER ACCESS:     148050  HIT:     148050  MISS:          0  HIT %:        100  MISS %:          0   MPKI: 0
PSCL3 PREFETCH  REQUESTED:          0  ISSUED:          0  USEFUL:          0  USELESS:          0
PSCL3 USEFUL LOAD PREFETCHES:          0 PREFETCH ISSUED TO LOWER LEVEL:          0  ACCURACY: -nan
PSCL3 TIMELY PREFETCHES:          0 LATE PREFETCHES: 0 DROPPED PREFETCHES: 0
PSCL3 PREFETCHES SAME FILL-ORIGIN LEVEL: 0 DIFFERENT FILL-ORIGIN LEVEL: 0

PSCL2 TOTAL     ACCESS:      94576  HIT:      72284  MISS:      22292  HIT %:    76.4295  MISS %:    23.5705   MPKI: 0.11146
PSCL2 LOAD TRANSLATION ACCESS:      54909  HIT:      32617  MISS:      22292  HIT %:    59.4019  MISS %:    40.5981   MPKI: 0.11146
PSCL2 TRANSLATION FROM L1D PREFETCHER ACCESS:      39667  HIT:      39667  MISS:          0  HIT %:        100  MISS %:          0   MPKI: 0
PSCL2 PREFETCH  REQUESTED:          0  ISSUED:          0  USEFUL:          0  USELESS:          0
PSCL2 USEFUL LOAD PREFETCHES:          0 PREFETCH ISSUED TO LOWER LEVEL:          0  ACCURACY: -nan
PSCL2 TIMELY PREFETCHES:          0 LATE PREFETCHES: 0 DROPPED PREFETCHES: 0
PSCL2 PREFETCHES SAME FILL-ORIGIN LEVEL: 0 DIFFERENT FILL-ORIGIN LEVEL: 0

LLC TOTAL     ACCESS:    2737069  HIT:    2267339  MISS:     469730  HIT %:    82.8382  MISS %:    17.1618   MPKI: 2.34865
LLC LOAD      ACCESS:    1480548  HIT:    1270304  MISS:     210244  HIT %:    85.7996  MISS %:    14.2004   MPKI: 1.05122
LLC RFO       ACCESS:     462166  HIT:     290856  MISS:     171310  HIT %:    62.9332  MISS %:    37.0668   MPKI: 0.85655
LLC PREFETCH  ACCESS:     132853  HIT:      98047  MISS:      34806  HIT %:    73.8011  MISS %:    26.1989   MPKI: 0.17403
AGUS PREFETCH L1 MISS: 0
LLC WRITEBACK ACCESS:     587438  HIT:     547727  MISS:      39711  HIT %:      93.24  MISS %:    6.76003   MPKI: 0.198555
LLC LOAD TRANSLATION ACCESS:      45273  HIT:      35682  MISS:       9591  HIT %:    78.8152  MISS %:    21.1848   MPKI: 0.047955
LLC TRANSLATION FROM L1D PREFETCHER ACCESS:      28791  HIT:      24723  MISS:       4068  HIT %:    85.8706  MISS %:    14.1294   MPKI: 0.02034
LLC PREFETCH  REQUESTED:          0  ISSUED:          0  USEFUL:       2752  USELESS:      36739
LLC USEFUL LOAD PREFETCHES:       2752 PREFETCH ISSUED TO LOWER LEVEL:      34806  ACCURACY: 7.90668
LLC TIMELY PREFETCHES:       2752 LATE PREFETCHES: 0 DROPPED PREFETCHES: 0
LLC PREFETCHES SAME FILL-ORIGIN LEVEL: 0 DIFFERENT FILL-ORIGIN LEVEL: 0
LLC AVERAGE MISS LATENCY: 161.287 cycles
LLC RQ	ACCESS:    2016778	FORWARD:          0	MERGED:          0	TO_CACHE:    2016778
LLC WQ	ACCESS:     587438	FORWARD:         14	MERGED:          0	TO_CACHE:     587438
LLC PQ	ACCESS:     132867	FORWARD:          0	MERGED:          0	TO_CACHE:     132853

LLC Dense regions hint to LLC: 0

RAW hits: 2706069
Loads Generated: 57315463
Loads sent to L1D: 54609396
Stores Generated: 24630459
Stores sent to L1D: 24630455
Major fault: 0 Minor fault: 4769
Allocated PAGES: 4769
Completed 

DRAM Statistics
 CHANNEL 0
 RQ ROW_BUFFER_HIT:     140020  ROW_BUFFER_MISS:     289997
 DBUS_CONGESTED:        159
 WQ ROW_BUFFER_HIT:      33171  ROW_BUFFER_MISS:     176374  FULL:          0

 AVG_CONGESTED_CYCLE: 4
 All warmup complete: 2
Channel 0 Bank busy for read cycles: 0
Channel 0 Bank busy for write cycles: 0
Channel 0
Rank 0
0banks busy for read cycles: 414661342
0banks busy for write cycles: 91485
1banks busy for read cycles: 22454056
1banks busy for write cycles: 13059302
2banks busy for read cycles: 5449692
2banks busy for write cycles: 3226907
3banks busy for read cycles: 1033406
3banks busy for write cycles: 905583
4banks busy for read cycles: 264706
4banks busy for write cycles: 361954
5banks busy for read cycles: 219823
5banks busy for write cycles: 196147
6banks busy for read cycles: 182595
6banks busy for write cycles: 138932
7banks busy for read cycles: 223249
7banks busy for write cycles: 180740
8banks busy for read cycles: 1177724
8banks busy for write cycles: 1431689

CPU 0 Branch Prediction Accuracy: 99.7584% MPKI: 0.42388 Average ROB Occupancy at Mispredict: 26.654
Branch types
NOT_BRANCH: 164908869 82.4544%
BRANCH_DIRECT_JUMP: 2533222 1.26661%
BRANCH_INDIRECT: 13038563 6.51928%
BRANCH_CONDITIONAL: 10894809 5.4474%
BRANCH_DIRECT_CALL: 3018472 1.50924%
BRANCH_INDIRECT_CALL: 1293792 0.646896%
BRANCH_RETURN: 4312192 2.1561%
BRANCH_OTHER: 0 0%

DRAM PAGES: 1048576
Allocated PAGES: 4769
