
*** ChampSim Multicore Out-of-Order Simulator ***

Warmup Instructions: 50000000
Simulation Instructions: 200000000
Number of CPUs: 1
LLC sets: 2048
LLC ways: 16
Off-chip DRAM Size: 4096 MB Channels: 1 Width: 64-bit Data Rate: 6400 MT/s
CPU 0 runs traces/spec2k17/srv_75.champsimtrace.xz
.xz
BTB has LRU replacement policy
ITLB has LRU replacement policy
DTLB has LRU replacement policy
STLB has LRU replacement policy
L1I has LRU replacement policy
L1D has LRU replacement policy
Initialize SRRIP state for L2C
Initialize DRRIP state for LLC
Heartbeat CPU 0 instructions: 10000003 cycles: 2946366 heartbeat IPC: 3.39401 cumulative IPC: 3.39401 (Simulation time: 0 hr 0 min 32 sec) 
Heartbeat CPU 0 instructions: 20000003 cycles: 5885776 heartbeat IPC: 3.40204 cumulative IPC: 3.39802 (Simulation time: 0 hr 1 min 0 sec) 
Heartbeat CPU 0 instructions: 30000001 cycles: 8832058 heartbeat IPC: 3.39411 cumulative IPC: 3.39672 (Simulation time: 0 hr 1 min 27 sec) 
*** Reached end of trace for Core: 0 Repeating trace: traces/spec2k17/srv_75.champsimtrace.xz
Heartbeat CPU 0 instructions: 40000000 cycles: 11777672 heartbeat IPC: 3.39488 cumulative IPC: 3.39626 (Simulation time: 0 hr 1 min 55 sec) 
Heartbeat CPU 0 instructions: 50000001 cycles: 14722774 heartbeat IPC: 3.39547 cumulative IPC: 3.3961 (Simulation time: 0 hr 2 min 23 sec) 

Warmup complete CPU 0 instructions: 50000001 cycles: 14722774 (Simulation time: 0 hr 2 min 23 sec) 

Heartbeat CPU 0 instructions: 60000003 cycles: 34117508 heartbeat IPC: 0.515604 cumulative IPC: 0.515604 (Simulation time: 0 hr 3 min 10 sec) 
*** Reached end of trace for Core: 0 Repeating trace: traces/spec2k17/srv_75.champsimtrace.xz
Heartbeat CPU 0 instructions: 70000000 cycles: 53451457 heartbeat IPC: 0.517225 cumulative IPC: 0.516413 (Simulation time: 0 hr 3 min 57 sec) 
Heartbeat CPU 0 instructions: 80000000 cycles: 72794663 heartbeat IPC: 0.516977 cumulative IPC: 0.516601 (Simulation time: 0 hr 4 min 42 sec) 
Heartbeat CPU 0 instructions: 90000002 cycles: 92067193 heartbeat IPC: 0.518873 cumulative IPC: 0.517167 (Simulation time: 0 hr 5 min 27 sec) 
*** Reached end of trace for Core: 0 Repeating trace: traces/spec2k17/srv_75.champsimtrace.xz
Heartbeat CPU 0 instructions: 100000000 cycles: 111367516 heartbeat IPC: 0.518126 cumulative IPC: 0.517359 (Simulation time: 0 hr 6 min 12 sec) 
Heartbeat CPU 0 instructions: 110000000 cycles: 130716734 heartbeat IPC: 0.516817 cumulative IPC: 0.517268 (Simulation time: 0 hr 7 min 9 sec) 
Heartbeat CPU 0 instructions: 120000000 cycles: 149971851 heartbeat IPC: 0.519342 cumulative IPC: 0.517564 (Simulation time: 0 hr 8 min 17 sec) 
*** Reached end of trace for Core: 0 Repeating trace: traces/spec2k17/srv_75.champsimtrace.xz
Heartbeat CPU 0 instructions: 130000002 cycles: 169216410 heartbeat IPC: 0.519628 cumulative IPC: 0.517821 (Simulation time: 0 hr 9 min 10 sec) 
Heartbeat CPU 0 instructions: 140000000 cycles: 188526028 heartbeat IPC: 0.517877 cumulative IPC: 0.517827 (Simulation time: 0 hr 9 min 55 sec) 
Heartbeat CPU 0 instructions: 150000001 cycles: 207737307 heartbeat IPC: 0.520528 cumulative IPC: 0.518096 (Simulation time: 0 hr 10 min 40 sec) 
Heartbeat CPU 0 instructions: 160000000 cycles: 226990157 heartbeat IPC: 0.519404 cumulative IPC: 0.518214 (Simulation time: 0 hr 11 min 24 sec) 
*** Reached end of trace for Core: 0 Repeating trace: traces/spec2k17/srv_75.champsimtrace.xz
Heartbeat CPU 0 instructions: 170000001 cycles: 246184079 heartbeat IPC: 0.520998 cumulative IPC: 0.518445 (Simulation time: 0 hr 12 min 39 sec) 
Heartbeat CPU 0 instructions: 180000002 cycles: 265487148 heartbeat IPC: 0.518052 cumulative IPC: 0.518415 (Simulation time: 0 hr 13 min 53 sec) 
Heartbeat CPU 0 instructions: 190000000 cycles: 284728174 heartbeat IPC: 0.519723 cumulative IPC: 0.518508 (Simulation time: 0 hr 15 min 4 sec) 
*** Reached end of trace for Core: 0 Repeating trace: traces/spec2k17/srv_75.champsimtrace.xz
Heartbeat CPU 0 instructions: 200000002 cycles: 303961663 heartbeat IPC: 0.519927 cumulative IPC: 0.518602 (Simulation time: 0 hr 16 min 11 sec) 
Heartbeat CPU 0 instructions: 210000002 cycles: 323211025 heartbeat IPC: 0.519498 cumulative IPC: 0.518658 (Simulation time: 0 hr 16 min 55 sec) 
Heartbeat CPU 0 instructions: 220000000 cycles: 342392911 heartbeat IPC: 0.521325 cumulative IPC: 0.518814 (Simulation time: 0 hr 17 min 39 sec) 
*** Reached end of trace for Core: 0 Repeating trace: traces/spec2k17/srv_75.champsimtrace.xz
Heartbeat CPU 0 instructions: 230000003 cycles: 361582625 heartbeat IPC: 0.521113 cumulative IPC: 0.518942 (Simulation time: 0 hr 18 min 22 sec) 
Heartbeat CPU 0 instructions: 240000000 cycles: 380879954 heartbeat IPC: 0.518206 cumulative IPC: 0.518903 (Simulation time: 0 hr 19 min 5 sec) 
Heartbeat CPU 0 instructions: 250000002 cycles: 400071932 heartbeat IPC: 0.521051 cumulative IPC: 0.51901 (Simulation time: 0 hr 19 min 47 sec) 
Finished CPU 0 instructions: 200000001 cycles: 385349158 cumulative IPC: 0.51901 (Simulation time: 0 hr 19 min 47 sec) 

ChampSim completed all CPUs

Region of Interest Statistics

CPU 0 cumulative IPC: 0.51901 instructions: 200000001 cycles: 385349158
ITLB TOTAL     ACCESS:   33760126  HIT:   32223382  MISS:    1536744  HIT %:    95.4481  MISS %:    4.55195   MPKI: 7.68372
ITLB LOAD TRANSLATION ACCESS:   33760126  HIT:   32223382  MISS:    1536744  HIT %:    95.4481  MISS %:    4.55195   MPKI: 7.68372
ITLB PREFETCH  REQUESTED:          0  ISSUED:          0  USEFUL:          0  USELESS:          0
ITLB USEFUL LOAD PREFETCHES:          0 PREFETCH ISSUED TO LOWER LEVEL:          0  ACCURACY: -nan
ITLB TIMELY PREFETCHES:          0 LATE PREFETCHES: 0 DROPPED PREFETCHES: 0
ITLB PREFETCHES SAME FILL-ORIGIN LEVEL: 0 DIFFERENT FILL-ORIGIN LEVEL: 0
ITLB AVERAGE MISS LATENCY: 9.17874 cycles
ITLB RQ	ACCESS:   40659323	FORWARD:          0	MERGED:    6403864	TO_CACHE:   34255459

DTLB TOTAL     ACCESS:   40031061  HIT:   38507578  MISS:    1523483  HIT %:    96.1942  MISS %:    3.80575   MPKI: 7.61741
DTLB LOAD TRANSLATION ACCESS:   40031061  HIT:   38507578  MISS:    1523483  HIT %:    96.1942  MISS %:    3.80575   MPKI: 7.61741
DTLB PREFETCH  REQUESTED:          0  ISSUED:          0  USEFUL:          0  USELESS:          0
DTLB USEFUL LOAD PREFETCHES:          0 PREFETCH ISSUED TO LOWER LEVEL:          0  ACCURACY: -nan
DTLB TIMELY PREFETCHES:          0 LATE PREFETCHES: 0 DROPPED PREFETCHES: 0
DTLB PREFETCHES SAME FILL-ORIGIN LEVEL: 0 DIFFERENT FILL-ORIGIN LEVEL: 0
DTLB AVERAGE MISS LATENCY: 13.415 cycles
DTLB RQ	ACCESS:   61186221	FORWARD:          0	MERGED:   20785168	TO_CACHE:   40401053

STLB TOTAL     ACCESS:    9840044  HIT:    9764230  MISS:      75814  HIT %:    99.2295  MISS %:   0.770464   MPKI: 0.37907
STLB LOAD TRANSLATION ACCESS:    3060226  HIT:    2986949  MISS:      73277  HIT %:    97.6055  MISS %:     2.3945   MPKI: 0.366385
STLB TRANSLATION FROM L1D PREFETCHER ACCESS:    6779818  HIT:    6777281  MISS:       2537  HIT %:    99.9626  MISS %:  0.0374199   MPKI: 0.012685
STLB PREFETCH  REQUESTED:          0  ISSUED:          0  USEFUL:       2287  USELESS:        245
STLB USEFUL LOAD PREFETCHES:       2287 PREFETCH ISSUED TO LOWER LEVEL:          0  ACCURACY: inf
STLB TIMELY PREFETCHES:       2287 LATE PREFETCHES: 1054 DROPPED PREFETCHES: 35435
STLB PREFETCHES SAME FILL-ORIGIN LEVEL: 0 DIFFERENT FILL-ORIGIN LEVEL: 0
STLB AVERAGE MISS LATENCY: 122422 cycles
STLB RQ	ACCESS:   12614725	FORWARD:          0	MERGED:    2737713	TO_CACHE:    9877012

STLB Hit, L1D data hit: 0
STLB Hit, L2C data hit: 0
STLB Hit, LLC data hit: 0
STLB Hit, LLC data miss: 0
STLB STLB hints to L2: 0
L1D TOTAL     ACCESS:   57217578  HIT:   50263784  MISS:    6953794  HIT %:    87.8468  MISS %:    12.1532   MPKI: 34.769
L1D LOAD      ACCESS:   26722508  HIT:   23864507  MISS:    2858001  HIT %:    89.3049  MISS %:    10.6951   MPKI: 14.29
L1D RFO       ACCESS:   22357949  HIT:   18646647  MISS:    3711302  HIT %:    83.4005  MISS %:    16.5995   MPKI: 18.5565
L1D PREFETCH  ACCESS:    8137121  HIT:    7752630  MISS:     384491  HIT %:    95.2749  MISS %:    4.72515   MPKI: 1.92245
AGUS PREFETCH L1 MISS: 0
L1D PREFETCH  REQUESTED:   20775813  ISSUED:   20774023  USEFUL:     236832  USELESS:     147682
L1D USEFUL LOAD PREFETCHES:     236832 PREFETCH ISSUED TO LOWER LEVEL:     825918  ACCURACY: 28.675
L1D TIMELY PREFETCHES:     236832 LATE PREFETCHES: 438903 DROPPED PREFETCHES: 36500
L1D PREFETCHES SAME FILL-ORIGIN LEVEL: 825918 DIFFERENT FILL-ORIGIN LEVEL: 0
L1D AVERAGE MISS LATENCY: 1.34423e+07 cycles
L1D RQ	ACCESS:   45276472	FORWARD:          0	MERGED:   17873792	TO_CACHE:   27121371
L1D WQ	ACCESS:   34266000	FORWARD:     319158	MERGED:     201150	TO_CACHE:   34064850
L1D PQ	ACCESS:   11219524	FORWARD:          0	MERGED:    1627176	TO_CACHE:    9554499

L1D UNIQUE REGIONS ACCESSED: 0
L1D REGIONS CONFLICTS: 0
L1D Cross Page Prefetch Requests: 4582415
L1D Same Page Prefetch Requests: 8382169
L1D ROI Sum of L1D PQ occupancy: 140336220
L1D PREFETCHES PUSHED FROM L2C: 0
L1I TOTAL     ACCESS:   38013471  HIT:   28960046  MISS:    9053425  HIT %:    76.1836  MISS %:    23.8164   MPKI: 45.2671
L1I LOAD      ACCESS:   38013471  HIT:   28960046  MISS:    9053425  HIT %:    76.1836  MISS %:    23.8164   MPKI: 45.2671
L1I PREFETCH  REQUESTED:          0  ISSUED:          0  USEFUL:          0  USELESS:          0
L1I USEFUL LOAD PREFETCHES:          0 PREFETCH ISSUED TO LOWER LEVEL:          0  ACCURACY: -nan
L1I TIMELY PREFETCHES:          0 LATE PREFETCHES: 0 DROPPED PREFETCHES: 0
L1I PREFETCHES SAME FILL-ORIGIN LEVEL: 0 DIFFERENT FILL-ORIGIN LEVEL: 0
L1I AVERAGE MISS LATENCY: 16.4576 cycles
L1I RQ	ACCESS:   58949255	FORWARD:          0	MERGED:   18289932	TO_CACHE:   40659323

BTB TOTAL     ACCESS:   25661075  HIT:   24120507  MISS:    1540568  HIT %:    93.9965  MISS %:    6.00352   MPKI: 7.70284
BTB BRANCH_DIRECT_JUMP	ACCESS:    1658498  HIT:    1648884  MISS:       9614
BTB BRANCH_INDIRECT	ACCESS:    9965680  HIT:    9453518  MISS:     512162
BTB BRANCH_CONDITIONAL	ACCESS:    7213546  HIT:    7200102  MISS:      13444
BTB BRANCH_DIRECT_CALL	ACCESS:    2819430  HIT:    2786168  MISS:      33262
BTB BRANCH_INDIRECT_CALL	ACCESS:     592212  HIT:     481174  MISS:     111038
BTB BRANCH_RETURN	ACCESS:    3411709  HIT:    2550661  MISS:     861048
BTB BRANCH_OTHER ACCESS:          0  HIT:          0  MISS:          0

L2C TOTAL     ACCESS:   20510610  HIT:   13796534  MISS:    6714076  HIT %:    67.2654  MISS %:    32.7346   MPKI: 33.5704
L2C LOAD      ACCESS:   11472458  HIT:    9126894  MISS:    2345564  HIT %:    79.5548  MISS %:    20.4452   MPKI: 11.7278
L2C DATA LOAD MPKI: 8.94045
L2C INSTRUCTION LOAD MPKI: 2.78737
L2C RFO       ACCESS:    3708776  HIT:     164959  MISS:    3543817  HIT %:     4.4478  MISS %:    95.5522   MPKI: 17.7191
L2C PREFETCH  ACCESS:     825906  HIT:     190946  MISS:     634960  HIT %:    23.1196  MISS %:    76.8804   MPKI: 3.1748
AGUS PREFETCH L1 MISS: 0
L2C DATA PREFETCH MPKI: 3.1748
L2C INSTRUCTION PREFETCH MPKI: 0
L2C WRITEBACK ACCESS:    4371263  HIT:    4233026  MISS:     138237  HIT %:    96.8376  MISS %:     3.1624   MPKI: 0.691185
L2C LOAD TRANSLATION ACCESS:      78947  HIT:      45228  MISS:      33719  HIT %:    57.2891  MISS %:    42.7109   MPKI: 0.168595
L2C TRANSLATION FROM L1D PREFETCHER ACCESS:      53260  HIT:      35481  MISS:      17779  HIT %:    66.6185  MISS %:    33.3815   MPKI: 0.088895
L2C PREFETCH  REQUESTED:          0  ISSUED:          0  USEFUL:      22753  USELESS:     630093
L2C USEFUL LOAD PREFETCHES:      22753 PREFETCH ISSUED TO LOWER LEVEL:     634961  ACCURACY: 3.58337
L2C TIMELY PREFETCHES:      22753 LATE PREFETCHES: 0 DROPPED PREFETCHES: 0
L2C PREFETCHES SAME FILL-ORIGIN LEVEL: 0 DIFFERENT FILL-ORIGIN LEVEL: 0
L2C AVERAGE MISS LATENCY: 158.863 cycles
L2C RQ	ACCESS:   15313512	FORWARD:          0	MERGED:          0	TO_CACHE:   15313444
L2C WQ	ACCESS:    4371263	FORWARD:         79	MERGED:          0	TO_CACHE:    4371263
L2C PQ	ACCESS:     825918	FORWARD:          0	MERGED:          0	TO_CACHE:     825907

L2C Instructions Evicting Data 507515
L2C Translations Evicting Data 46605
L2C Data Evicting Data 5423993
L2C Instructions Evicting Instructions 45255
L2C Translations Evicting Instructions 4588
L2C Data Evicting Instructions 497195
L2C Instructions Evicting Translations 4704
L2C Translations Evicting Translations 305
L2C Data Evicting Translations 45679
L2C Dense regions hint from L2: 0
PSCL5 TOTAL     ACCESS:     110642  HIT:     110642  MISS:          0  HIT %:        100  MISS %:          0   MPKI: 0
PSCL5 LOAD TRANSLATION ACCESS:      72223  HIT:      72223  MISS:          0  HIT %:        100  MISS %:          0   MPKI: 0
PSCL5 TRANSLATION FROM L1D PREFETCHER ACCESS:      38419  HIT:      38419  MISS:          0  HIT %:        100  MISS %:          0   MPKI: 0
PSCL5 PREFETCH  REQUESTED:          0  ISSUED:          0  USEFUL:          0  USELESS:          0
PSCL5 USEFUL LOAD PREFETCHES:          0 PREFETCH ISSUED TO LOWER LEVEL:          0  ACCURACY: -nan
PSCL5 TIMELY PREFETCHES:          0 LATE PREFETCHES: 0 DROPPED PREFETCHES: 0
PSCL5 PREFETCHES SAME FILL-ORIGIN LEVEL: 0 DIFFERENT FILL-ORIGIN LEVEL: 0

PSCL4 TOTAL     ACCESS:      95144  HIT:      95050  MISS:         94  HIT %:    99.9012  MISS %:  0.0987976   MPKI: 0.00047
PSCL4 LOAD TRANSLATION ACCESS:      62685  HIT:      62591  MISS:         94  HIT %:      99.85  MISS %:   0.149956   MPKI: 0.00047
PSCL4 TRANSLATION FROM L1D PREFETCHER ACCESS:      32459  HIT:      32459  MISS:          0  HIT %:        100  MISS %:          0   MPKI: 0
PSCL4 PREFETCH  REQUESTED:          0  ISSUED:          0  USEFUL:          0  USELESS:          0
PSCL4 USEFUL LOAD PREFETCHES:          0 PREFETCH ISSUED TO LOWER LEVEL:          0  ACCURACY: -nan
PSCL4 TIMELY PREFETCHES:          0 LATE PREFETCHES: 0 DROPPED PREFETCHES: 0
PSCL4 PREFETCHES SAME FILL-ORIGIN LEVEL: 0 DIFFERENT FILL-ORIGIN LEVEL: 0

PSCL3 TOTAL     ACCESS:     105198  HIT:     105009  MISS:        189  HIT %:    99.8203  MISS %:   0.179661   MPKI: 0.000945
PSCL3 LOAD TRANSLATION ACCESS:      71594  HIT:      71405  MISS:        189  HIT %:     99.736  MISS %:   0.263989   MPKI: 0.000945
PSCL3 TRANSLATION FROM L1D PREFETCHER ACCESS:      33604  HIT:      33604  MISS:          0  HIT %:        100  MISS %:          0   MPKI: 0
PSCL3 PREFETCH  REQUESTED:          0  ISSUED:          0  USEFUL:          0  USELESS:          0
PSCL3 USEFUL LOAD PREFETCHES:          0 PREFETCH ISSUED TO LOWER LEVEL:          0  ACCURACY: -nan
PSCL3 TIMELY PREFETCHES:          0 LATE PREFETCHES: 0 DROPPED PREFETCHES: 0
PSCL3 PREFETCHES SAME FILL-ORIGIN LEVEL: 0 DIFFERENT FILL-ORIGIN LEVEL: 0

PSCL2 TOTAL     ACCESS:      90622  HIT:      83933  MISS:       6689  HIT %:    92.6188  MISS %:    7.38121   MPKI: 0.033445
PSCL2 LOAD TRANSLATION ACCESS:      72460  HIT:      65771  MISS:       6689  HIT %:    90.7687  MISS %:     9.2313   MPKI: 0.033445
PSCL2 TRANSLATION FROM L1D PREFETCHER ACCESS:      18162  HIT:      18162  MISS:          0  HIT %:        100  MISS %:          0   MPKI: 0
PSCL2 PREFETCH  REQUESTED:          0  ISSUED:          0  USEFUL:          0  USELESS:          0
PSCL2 USEFUL LOAD PREFETCHES:          0 PREFETCH ISSUED TO LOWER LEVEL:          0  ACCURACY: -nan
PSCL2 TIMELY PREFETCHES:          0 LATE PREFETCHES: 0 DROPPED PREFETCHES: 0
PSCL2 PREFETCHES SAME FILL-ORIGIN LEVEL: 0 DIFFERENT FILL-ORIGIN LEVEL: 0

LLC TOTAL     ACCESS:   10620919  HIT:    4221900  MISS:    6399019  HIT %:    39.7508  MISS %:    60.2492   MPKI: 31.9951
LLC LOAD      ACCESS:    2345564  HIT:    1573610  MISS:     771954  HIT %:    67.0888  MISS %:    32.9112   MPKI: 3.85977
LLC RFO       ACCESS:    3543804  HIT:     965691  MISS:    2578113  HIT %:    27.2501  MISS %:    72.7499   MPKI: 12.8906
LLC PREFETCH  ACCESS:     634959  HIT:     126276  MISS:     508683  HIT %:    19.8873  MISS %:    80.1127   MPKI: 2.54341
AGUS PREFETCH L1 MISS: 0
LLC WRITEBACK ACCESS:    4045094  HIT:    1534883  MISS:    2510211  HIT %:    37.9443  MISS %:    62.0557   MPKI: 12.5511
LLC LOAD TRANSLATION ACCESS:      33719  HIT:      12572  MISS:      21147  HIT %:    37.2846  MISS %:    62.7154   MPKI: 0.105735
LLC TRANSLATION FROM L1D PREFETCHER ACCESS:      17779  HIT:       8868  MISS:       8911  HIT %:    49.8791  MISS %:    50.1209   MPKI: 0.044555
LLC PREFETCH  REQUESTED:          0  ISSUED:          0  USEFUL:       1837  USELESS:     516478
LLC USEFUL LOAD PREFETCHES:       1837 PREFETCH ISSUED TO LOWER LEVEL:     508684  ACCURACY: 0.361128
LLC TIMELY PREFETCHES:       1837 LATE PREFETCHES: 0 DROPPED PREFETCHES: 0
LLC PREFETCHES SAME FILL-ORIGIN LEVEL: 0 DIFFERENT FILL-ORIGIN LEVEL: 0
LLC AVERAGE MISS LATENCY: 135.854 cycles
LLC RQ	ACCESS:    5940880	FORWARD:          0	MERGED:          0	TO_CACHE:    5940867
LLC WQ	ACCESS:    4045096	FORWARD:         14	MERGED:          0	TO_CACHE:    4045096
LLC PQ	ACCESS:     634961	FORWARD:          0	MERGED:          0	TO_CACHE:     634960

LLC Dense regions hint to LLC: 0

RAW hits: 2453200
Loads Generated: 47729674
Loads sent to L1D: 45276472
Stores Generated: 34266005
Stores sent to L1D: 34266000
Major fault: 0 Minor fault: 8372
Allocated PAGES: 8372
Completed 

DRAM Statistics
 CHANNEL 0
 RQ ROW_BUFFER_HIT:    1832296  ROW_BUFFER_MISS:    2056040
 DBUS_CONGESTED:       2457
 WQ ROW_BUFFER_HIT:     545568  ROW_BUFFER_MISS:    2102579  FULL:      65042

 AVG_CONGESTED_CYCLE: 3
 All warmup complete: 2
Channel 0 Bank busy for read cycles: 0
Channel 0 Bank busy for write cycles: 0
Channel 0
Rank 0
0banks busy for read cycles: 169206690
0banks busy for write cycles: 275990
1banks busy for read cycles: 31439680
1banks busy for write cycles: 38725783
2banks busy for read cycles: 13841450
2banks busy for write cycles: 13673143
3banks busy for read cycles: 15482415
3banks busy for write cycles: 6111861
4banks busy for read cycles: 5943121
4banks busy for write cycles: 3868410
5banks busy for read cycles: 5139306
5banks busy for write cycles: 3235492
6banks busy for read cycles: 6042570
6banks busy for write cycles: 3193195
7banks busy for read cycles: 8802424
7banks busy for write cycles: 5745658
8banks busy for read cycles: 19307182
8banks busy for write cycles: 35314789

CPU 0 Branch Prediction Accuracy: 99.9491% MPKI: 0.077685 Average ROB Occupancy at Mispredict: 125.916
Branch types
NOT_BRANCH: 169475776 84.7379%
BRANCH_DIRECT_JUMP: 1658498 0.829249%
BRANCH_INDIRECT: 9965680 4.98284%
BRANCH_CONDITIONAL: 12076911 6.03846%
BRANCH_DIRECT_CALL: 2819430 1.40971%
BRANCH_INDIRECT_CALL: 592212 0.296106%
BRANCH_RETURN: 3411709 1.70585%
BRANCH_OTHER: 0 0%

DRAM PAGES: 1048576
Allocated PAGES: 8372
