
*** ChampSim Multicore Out-of-Order Simulator ***

Warmup Instructions: 50000000
Simulation Instructions: 200000000
Number of CPUs: 1
LLC sets: 2048
LLC ways: 16
Off-chip DRAM Size: 4096 MB Channels: 1 Width: 64-bit Data Rate: 6400 MT/s
CPU 0 runs traces/spec2k17/srv_58.champsimtrace.xz
.xz
BTB has LRU replacement policy
ITLB has LRU replacement policy
DTLB has LRU replacement policy
STLB has LRU replacement policy
L1I has LRU replacement policy
L1D has LRU replacement policy
Initialize SRRIP state for L2C
Initialize DRRIP state for LLC
Heartbeat CPU 0 instructions: 10000001 cycles: 2795024 heartbeat IPC: 3.57779 cumulative IPC: 3.57779 (Simulation time: 0 hr 0 min 30 sec) 
Heartbeat CPU 0 instructions: 20000002 cycles: 5588842 heartbeat IPC: 3.57933 cumulative IPC: 3.57856 (Simulation time: 0 hr 1 min 0 sec) 
Heartbeat CPU 0 instructions: 30000003 cycles: 8612065 heartbeat IPC: 3.30773 cumulative IPC: 3.48349 (Simulation time: 0 hr 1 min 36 sec) 
*** Reached end of trace for Core: 0 Repeating trace: traces/spec2k17/srv_58.champsimtrace.xz
Heartbeat CPU 0 instructions: 40000003 cycles: 11431681 heartbeat IPC: 3.54658 cumulative IPC: 3.49905 (Simulation time: 0 hr 2 min 15 sec) 
Heartbeat CPU 0 instructions: 50000000 cycles: 14223450 heartbeat IPC: 3.58196 cumulative IPC: 3.51532 (Simulation time: 0 hr 2 min 47 sec) 

Warmup complete CPU 0 instructions: 50000004 cycles: 14223451 (Simulation time: 0 hr 2 min 47 sec) 

Heartbeat CPU 0 instructions: 60000000 cycles: 25411774 heartbeat IPC: 0.893789 cumulative IPC: 0.893789 (Simulation time: 0 hr 3 min 26 sec) 
*** Reached end of trace for Core: 0 Repeating trace: traces/spec2k17/srv_58.champsimtrace.xz
Heartbeat CPU 0 instructions: 70000000 cycles: 42639312 heartbeat IPC: 0.580466 cumulative IPC: 0.703832 (Simulation time: 0 hr 4 min 5 sec) 
Heartbeat CPU 0 instructions: 80000003 cycles: 61245491 heartbeat IPC: 0.537456 cumulative IPC: 0.637999 (Simulation time: 0 hr 4 min 41 sec) 
Heartbeat CPU 0 instructions: 90000001 cycles: 73507029 heartbeat IPC: 0.815558 cumulative IPC: 0.674723 (Simulation time: 0 hr 5 min 18 sec) 
*** Reached end of trace for Core: 0 Repeating trace: traces/spec2k17/srv_58.champsimtrace.xz
Heartbeat CPU 0 instructions: 100000002 cycles: 89556588 heartbeat IPC: 0.62307 cumulative IPC: 0.663719 (Simulation time: 0 hr 6 min 1 sec) 
Heartbeat CPU 0 instructions: 110000000 cycles: 108454889 heartbeat IPC: 0.529148 cumulative IPC: 0.63673 (Simulation time: 0 hr 6 min 47 sec) 
Heartbeat CPU 0 instructions: 120000001 cycles: 121488381 heartbeat IPC: 0.767254 cumulative IPC: 0.65259 (Simulation time: 0 hr 7 min 41 sec) 
*** Reached end of trace for Core: 0 Repeating trace: traces/spec2k17/srv_58.champsimtrace.xz
Heartbeat CPU 0 instructions: 130000000 cycles: 136650695 heartbeat IPC: 0.65953 cumulative IPC: 0.653449 (Simulation time: 0 hr 8 min 23 sec) 
Heartbeat CPU 0 instructions: 140000000 cycles: 155417217 heartbeat IPC: 0.532864 cumulative IPC: 0.637422 (Simulation time: 0 hr 8 min 57 sec) 
Heartbeat CPU 0 instructions: 150000003 cycles: 169440769 heartbeat IPC: 0.713086 cumulative IPC: 0.644258 (Simulation time: 0 hr 9 min 34 sec) 
*** Reached end of trace for Core: 0 Repeating trace: traces/spec2k17/srv_58.champsimtrace.xz
Heartbeat CPU 0 instructions: 160000000 cycles: 183677732 heartbeat IPC: 0.702397 cumulative IPC: 0.649143 (Simulation time: 0 hr 10 min 10 sec) 
Heartbeat CPU 0 instructions: 170000000 cycles: 202520548 heartbeat IPC: 0.530706 cumulative IPC: 0.637291 (Simulation time: 0 hr 10 min 44 sec) 
Heartbeat CPU 0 instructions: 180000000 cycles: 217356443 heartbeat IPC: 0.674041 cumulative IPC: 0.639975 (Simulation time: 0 hr 11 min 19 sec) 
*** Reached end of trace for Core: 0 Repeating trace: traces/spec2k17/srv_58.champsimtrace.xz
Heartbeat CPU 0 instructions: 190000000 cycles: 230649209 heartbeat IPC: 0.752289 cumulative IPC: 0.646873 (Simulation time: 0 hr 11 min 56 sec) 
Heartbeat CPU 0 instructions: 200000000 cycles: 249522628 heartbeat IPC: 0.529846 cumulative IPC: 0.637486 (Simulation time: 0 hr 12 min 30 sec) 
Heartbeat CPU 0 instructions: 210000002 cycles: 265339667 heartbeat IPC: 0.63223 cumulative IPC: 0.637155 (Simulation time: 0 hr 13 min 6 sec) 
*** Reached end of trace for Core: 0 Repeating trace: traces/spec2k17/srv_58.champsimtrace.xz
Heartbeat CPU 0 instructions: 220000000 cycles: 277832946 heartbeat IPC: 0.80043 cumulative IPC: 0.644893 (Simulation time: 0 hr 13 min 49 sec) 
Heartbeat CPU 0 instructions: 230000001 cycles: 296472646 heartbeat IPC: 0.536489 cumulative IPC: 0.637734 (Simulation time: 0 hr 14 min 48 sec) 
Heartbeat CPU 0 instructions: 240000003 cycles: 313306403 heartbeat IPC: 0.594045 cumulative IPC: 0.635275 (Simulation time: 0 hr 15 min 45 sec) 
*** Reached end of trace for Core: 0 Repeating trace: traces/spec2k17/srv_58.champsimtrace.xz
Heartbeat CPU 0 instructions: 250000000 cycles: 324706042 heartbeat IPC: 0.877221 cumulative IPC: 0.644158 (Simulation time: 0 hr 16 min 44 sec) 
Finished CPU 0 instructions: 200000000 cycles: 310482592 cumulative IPC: 0.644158 (Simulation time: 0 hr 16 min 44 sec) 

ChampSim completed all CPUs

Region of Interest Statistics

CPU 0 cumulative IPC: 0.644158 instructions: 200000000 cycles: 310482592
ITLB TOTAL     ACCESS:   36474376  HIT:   35954324  MISS:     520052  HIT %:    98.5742  MISS %:     1.4258   MPKI: 2.60026
ITLB LOAD TRANSLATION ACCESS:   36474376  HIT:   35954324  MISS:     520052  HIT %:    98.5742  MISS %:     1.4258   MPKI: 2.60026
ITLB PREFETCH  REQUESTED:          0  ISSUED:          0  USEFUL:          0  USELESS:          0
ITLB USEFUL LOAD PREFETCHES:          0 PREFETCH ISSUED TO LOWER LEVEL:          0  ACCURACY: -nan
ITLB TIMELY PREFETCHES:          0 LATE PREFETCHES: 0 DROPPED PREFETCHES: 0
ITLB PREFETCHES SAME FILL-ORIGIN LEVEL: 0 DIFFERENT FILL-ORIGIN LEVEL: 0
ITLB AVERAGE MISS LATENCY: 9.03203 cycles
ITLB RQ	ACCESS:   40850561	FORWARD:          0	MERGED:    4205441	TO_CACHE:   36645120

DTLB TOTAL     ACCESS:   43233924  HIT:   42582525  MISS:     651399  HIT %:    98.4933  MISS %:    1.50668   MPKI: 3.25699
DTLB LOAD TRANSLATION ACCESS:   43233924  HIT:   42582525  MISS:     651399  HIT %:    98.4933  MISS %:    1.50668   MPKI: 3.25699
DTLB PREFETCH  REQUESTED:          0  ISSUED:          0  USEFUL:          0  USELESS:          0
DTLB USEFUL LOAD PREFETCHES:          0 PREFETCH ISSUED TO LOWER LEVEL:          0  ACCURACY: -nan
DTLB TIMELY PREFETCHES:          0 LATE PREFETCHES: 0 DROPPED PREFETCHES: 0
DTLB PREFETCHES SAME FILL-ORIGIN LEVEL: 0 DIFFERENT FILL-ORIGIN LEVEL: 0
DTLB AVERAGE MISS LATENCY: 8.48729 cycles
DTLB RQ	ACCESS:   59540291	FORWARD:          0	MERGED:   16276829	TO_CACHE:   43263462

STLB TOTAL     ACCESS:   19063285  HIT:   19062755  MISS:        530  HIT %:    99.9972  MISS %: 0.00278021   MPKI: 0.00265
STLB LOAD TRANSLATION ACCESS:    1171451  HIT:    1170963  MISS:        488  HIT %:    99.9583  MISS %:  0.0416577   MPKI: 0.00244
STLB TRANSLATION FROM L1D PREFETCHER ACCESS:   17891834  HIT:   17891792  MISS:         42  HIT %:    99.9998  MISS %: 0.000234744   MPKI: 0.00021
STLB PREFETCH  REQUESTED:          0  ISSUED:          0  USEFUL:         41  USELESS:          1
STLB USEFUL LOAD PREFETCHES:         41 PREFETCH ISSUED TO LOWER LEVEL:          0  ACCURACY: inf
STLB TIMELY PREFETCHES:         41 LATE PREFETCHES: 4 DROPPED PREFETCHES: 432878
STLB PREFETCHES SAME FILL-ORIGIN LEVEL: 0 DIFFERENT FILL-ORIGIN LEVEL: 0
STLB AVERAGE MISS LATENCY: 52.6925 cycles
STLB RQ	ACCESS:   24361382	FORWARD:          0	MERGED:    4864002	TO_CACHE:   19497380

STLB Hit, L1D data hit: 0
STLB Hit, L2C data hit: 0
STLB Hit, LLC data hit: 0
STLB Hit, LLC data miss: 0
STLB STLB hints to L2: 0
L1D TOTAL     ACCESS:   81833871  HIT:   80773892  MISS:    1059979  HIT %:    98.7047  MISS %:    1.29528   MPKI: 5.2999
L1D LOAD      ACCESS:   38529065  HIT:   37888926  MISS:     640139  HIT %:    98.3386  MISS %:    1.66144   MPKI: 3.2007
L1D RFO       ACCESS:   20660773  HIT:   20399884  MISS:     260889  HIT %:    98.7373  MISS %:    1.26273   MPKI: 1.30445
L1D PREFETCH  ACCESS:   22644033  HIT:   22485082  MISS:     158951  HIT %:     99.298  MISS %:   0.701955   MPKI: 0.794755
AGUS PREFETCH L1 MISS: 0
L1D PREFETCH  REQUESTED:   48462617  ISSUED:   48460215  USEFUL:      44832  USELESS:     114029
L1D USEFUL LOAD PREFETCHES:      44832 PREFETCH ISSUED TO LOWER LEVEL:     181496  ACCURACY: 24.7014
L1D TIMELY PREFETCHES:      44832 LATE PREFETCHES: 22426 DROPPED PREFETCHES: 486336
L1D PREFETCHES SAME FILL-ORIGIN LEVEL: 181496 DIFFERENT FILL-ORIGIN LEVEL: 0
L1D AVERAGE MISS LATENCY: 4.28565e+06 cycles
L1D RQ	ACCESS:   53965927	FORWARD:          0	MERGED:   15201040	TO_CACHE:   38554742
L1D WQ	ACCESS:   21214489	FORWARD:     252425	MERGED:     228940	TO_CACHE:   20985549
L1D PQ	ACCESS:   25270284	FORWARD:          0	MERGED:    2038073	TO_CACHE:   23189931

L1D UNIQUE REGIONS ACCESSED: 0
L1D REGIONS CONFLICTS: 0
L1D Cross Page Prefetch Requests: 20420448
L1D Same Page Prefetch Requests: 6549956
L1D ROI Sum of L1D PQ occupancy: 340158873
L1D PREFETCHES PUSHED FROM L2C: 0
L1I TOTAL     ACCESS:   40500818  HIT:   38564718  MISS:    1936100  HIT %:    95.2196  MISS %:     4.7804   MPKI: 9.6805
L1I LOAD      ACCESS:   40500818  HIT:   38564718  MISS:    1936100  HIT %:    95.2196  MISS %:     4.7804   MPKI: 9.6805
L1I PREFETCH  REQUESTED:          0  ISSUED:          0  USEFUL:          0  USELESS:          0
L1I USEFUL LOAD PREFETCHES:          0 PREFETCH ISSUED TO LOWER LEVEL:          0  ACCURACY: -nan
L1I TIMELY PREFETCHES:          0 LATE PREFETCHES: 0 DROPPED PREFETCHES: 0
L1I PREFETCHES SAME FILL-ORIGIN LEVEL: 0 DIFFERENT FILL-ORIGIN LEVEL: 0
L1I AVERAGE MISS LATENCY: 18.7302 cycles
L1I RQ	ACCESS:   63951762	FORWARD:          0	MERGED:   23101201	TO_CACHE:   40850561

BTB TOTAL     ACCESS:   35033009  HIT:   31765673  MISS:    3267336  HIT %:    90.6736  MISS %:    9.32645   MPKI: 16.3367
BTB BRANCH_DIRECT_JUMP	ACCESS:    3530101  HIT:    3387873  MISS:     142228
BTB BRANCH_INDIRECT	ACCESS:   14433198  HIT:   13493749  MISS:     939449
BTB BRANCH_CONDITIONAL	ACCESS:    7608282  HIT:    7427963  MISS:     180319
BTB BRANCH_DIRECT_CALL	ACCESS:    2343708  HIT:    2092536  MISS:     251172
BTB BRANCH_INDIRECT_CALL	ACCESS:    2387048  HIT:    2184647  MISS:     202401
BTB BRANCH_RETURN	ACCESS:    4730672  HIT:    3178905  MISS:    1551767
BTB BRANCH_OTHER ACCESS:          0  HIT:          0  MISS:          0

L2C TOTAL     ACCESS:    4069147  HIT:    3527874  MISS:     541273  HIT %:    86.6981  MISS %:    13.3019   MPKI: 2.70636
L2C LOAD      ACCESS:    2553798  HIT:    2136341  MISS:     417457  HIT %:    83.6535  MISS %:    16.3465   MPKI: 2.08729
L2C DATA LOAD MPKI: 0.58075
L2C INSTRUCTION LOAD MPKI: 1.50653
L2C RFO       ACCESS:     260770  HIT:     200309  MISS:      60461  HIT %:    76.8144  MISS %:    23.1856   MPKI: 0.302305
L2C PREFETCH  ACCESS:     181496  HIT:     135574  MISS:      45922  HIT %:    74.6981  MISS %:    25.3019   MPKI: 0.22961
AGUS PREFETCH L1 MISS: 0
L2C DATA PREFETCH MPKI: 0.22961
L2C INSTRUCTION PREFETCH MPKI: 0
L2C WRITEBACK ACCESS:     438966  HIT:     430498  MISS:       8468  HIT %:    98.0709  MISS %:    1.92908   MPKI: 0.04234
L2C LOAD TRANSLATION ACCESS:        603  HIT:        169  MISS:        434  HIT %:    28.0265  MISS %:    71.9735   MPKI: 0.00217
L2C TRANSLATION FROM L1D PREFETCHER ACCESS:     633514  HIT:     624983  MISS:       8531  HIT %:    98.6534  MISS %:    1.34662   MPKI: 0.042655
L2C PREFETCH  REQUESTED:          0  ISSUED:          0  USEFUL:       9940  USELESS:      44496
L2C USEFUL LOAD PREFETCHES:       9940 PREFETCH ISSUED TO LOWER LEVEL:      45922  ACCURACY: 21.6454
L2C TIMELY PREFETCHES:       9940 LATE PREFETCHES: 0 DROPPED PREFETCHES: 0
L2C PREFETCHES SAME FILL-ORIGIN LEVEL: 0 DIFFERENT FILL-ORIGIN LEVEL: 0
L2C AVERAGE MISS LATENCY: 30.2559 cycles
L2C RQ	ACCESS:    3448700	FORWARD:          0	MERGED:          0	TO_CACHE:    3448685
L2C WQ	ACCESS:     438966	FORWARD:         15	MERGED:          0	TO_CACHE:     438966
L2C PQ	ACCESS:     181496	FORWARD:          0	MERGED:          0	TO_CACHE:     181496

L2C Instructions Evicting Data 109359
L2C Translations Evicting Data 4588
L2C Data Evicting Data 112607
L2C Instructions Evicting Instructions 187604
L2C Translations Evicting Instructions 4157
L2C Data Evicting Instructions 105653
L2C Instructions Evicting Translations 4344
L2C Translations Evicting Translations 216
L2C Data Evicting Translations 4258
L2C Dense regions hint from L2: 0
PSCL5 TOTAL     ACCESS:     377469  HIT:     377469  MISS:          0  HIT %:        100  MISS %:          0   MPKI: 0
PSCL5 LOAD TRANSLATION ACCESS:        484  HIT:        484  MISS:          0  HIT %:        100  MISS %:          0   MPKI: 0
PSCL5 TRANSLATION FROM L1D PREFETCHER ACCESS:     376985  HIT:     376985  MISS:          0  HIT %:        100  MISS %:          0   MPKI: 0
PSCL5 PREFETCH  REQUESTED:          0  ISSUED:          0  USEFUL:          0  USELESS:          0
PSCL5 USEFUL LOAD PREFETCHES:          0 PREFETCH ISSUED TO LOWER LEVEL:          0  ACCURACY: -nan
PSCL5 TIMELY PREFETCHES:          0 LATE PREFETCHES: 0 DROPPED PREFETCHES: 0
PSCL5 PREFETCHES SAME FILL-ORIGIN LEVEL: 0 DIFFERENT FILL-ORIGIN LEVEL: 0

PSCL4 TOTAL     ACCESS:     345875  HIT:     345875  MISS:          0  HIT %:        100  MISS %:          0   MPKI: 0
PSCL4 LOAD TRANSLATION ACCESS:        484  HIT:        484  MISS:          0  HIT %:        100  MISS %:          0   MPKI: 0
PSCL4 TRANSLATION FROM L1D PREFETCHER ACCESS:     345391  HIT:     345391  MISS:          0  HIT %:        100  MISS %:          0   MPKI: 0
PSCL4 PREFETCH  REQUESTED:          0  ISSUED:          0  USEFUL:          0  USELESS:          0
PSCL4 USEFUL LOAD PREFETCHES:          0 PREFETCH ISSUED TO LOWER LEVEL:          0  ACCURACY: -nan
PSCL4 TIMELY PREFETCHES:          0 LATE PREFETCHES: 0 DROPPED PREFETCHES: 0
PSCL4 PREFETCHES SAME FILL-ORIGIN LEVEL: 0 DIFFERENT FILL-ORIGIN LEVEL: 0

PSCL3 TOTAL     ACCESS:     147439  HIT:     147413  MISS:         26  HIT %:    99.9824  MISS %:  0.0176344   MPKI: 0.00013
PSCL3 LOAD TRANSLATION ACCESS:        372  HIT:        346  MISS:         26  HIT %:    93.0108  MISS %:    6.98925   MPKI: 0.00013
PSCL3 TRANSLATION FROM L1D PREFETCHER ACCESS:     147067  HIT:     147067  MISS:          0  HIT %:        100  MISS %:          0   MPKI: 0
PSCL3 PREFETCH  REQUESTED:          0  ISSUED:          0  USEFUL:          0  USELESS:          0
PSCL3 USEFUL LOAD PREFETCHES:          0 PREFETCH ISSUED TO LOWER LEVEL:          0  ACCURACY: -nan
PSCL3 TIMELY PREFETCHES:          0 LATE PREFETCHES: 0 DROPPED PREFETCHES: 0
PSCL3 PREFETCHES SAME FILL-ORIGIN LEVEL: 0 DIFFERENT FILL-ORIGIN LEVEL: 0

PSCL2 TOTAL     ACCESS:      57859  HIT:      57760  MISS:         99  HIT %:    99.8289  MISS %:   0.171106   MPKI: 0.000495
PSCL2 LOAD TRANSLATION ACCESS:        489  HIT:        390  MISS:         99  HIT %:    79.7546  MISS %:    20.2454   MPKI: 0.000495
PSCL2 TRANSLATION FROM L1D PREFETCHER ACCESS:      57370  HIT:      57370  MISS:          0  HIT %:        100  MISS %:          0   MPKI: 0
PSCL2 PREFETCH  REQUESTED:          0  ISSUED:          0  USEFUL:          0  USELESS:          0
PSCL2 USEFUL LOAD PREFETCHES:          0 PREFETCH ISSUED TO LOWER LEVEL:          0  ACCURACY: -nan
PSCL2 TIMELY PREFETCHES:          0 LATE PREFETCHES: 0 DROPPED PREFETCHES: 0
PSCL2 PREFETCHES SAME FILL-ORIGIN LEVEL: 0 DIFFERENT FILL-ORIGIN LEVEL: 0

LLC TOTAL     ACCESS:     619916  HIT:     617461  MISS:       2455  HIT %:     99.604  MISS %:   0.396021   MPKI: 0.012275
LLC LOAD      ACCESS:     417457  HIT:     417127  MISS:        330  HIT %:    99.9209  MISS %:  0.0790501   MPKI: 0.00165
LLC RFO       ACCESS:      60460  HIT:      60460  MISS:          0  HIT %:        100  MISS %:          0   MPKI: 0
LLC PREFETCH  ACCESS:      45922  HIT:      44079  MISS:       1843  HIT %:    95.9867  MISS %:    4.01333   MPKI: 0.009215
AGUS PREFETCH L1 MISS: 0
LLC WRITEBACK ACCESS:      87112  HIT:      87109  MISS:          3  HIT %:    99.9966  MISS %: 0.00344384   MPKI: 1.5e-05
LLC LOAD TRANSLATION ACCESS:        434  HIT:        423  MISS:         11  HIT %:    97.4654  MISS %:    2.53456   MPKI: 5.5e-05
LLC TRANSLATION FROM L1D PREFETCHER ACCESS:       8531  HIT:       8263  MISS:        268  HIT %:    96.8585  MISS %:    3.14148   MPKI: 0.00134
LLC PREFETCH  REQUESTED:          0  ISSUED:          0  USEFUL:        508  USELESS:         97
LLC USEFUL LOAD PREFETCHES:        508 PREFETCH ISSUED TO LOWER LEVEL:       1843  ACCURACY: 27.5638
LLC TIMELY PREFETCHES:        508 LATE PREFETCHES: 0 DROPPED PREFETCHES: 0
LLC PREFETCHES SAME FILL-ORIGIN LEVEL: 0 DIFFERENT FILL-ORIGIN LEVEL: 0
LLC AVERAGE MISS LATENCY: 159.886 cycles
LLC RQ	ACCESS:     486883	FORWARD:          0	MERGED:          0	TO_CACHE:     486882
LLC WQ	ACCESS:      87112	FORWARD:          1	MERGED:          0	TO_CACHE:      87112
LLC PQ	ACCESS:      45922	FORWARD:          0	MERGED:          0	TO_CACHE:      45922

LLC Dense regions hint to LLC: 0

RAW hits: 3382670
Loads Generated: 57348600
Loads sent to L1D: 53965927
Stores Generated: 21214489
Stores sent to L1D: 21214489
Major fault: 0 Minor fault: 1185
Allocated PAGES: 1185
Completed 

DRAM Statistics
 CHANNEL 0
 RQ ROW_BUFFER_HIT:        267  ROW_BUFFER_MISS:       2185
 DBUS_CONGESTED:          0
 WQ ROW_BUFFER_HIT:          0  ROW_BUFFER_MISS:          0  FULL:          0

 AVG_CONGESTED_CYCLE: -
 All warmup complete: 2
Channel 0 Bank busy for read cycles: 0
Channel 0 Bank busy for write cycles: 0
Channel 0
Rank 0
0banks busy for read cycles: 310166134
0banks busy for write cycles: 0
1banks busy for read cycles: 293307
1banks busy for write cycles: 0
2banks busy for read cycles: 22245
2banks busy for write cycles: 0
3banks busy for read cycles: 589
3banks busy for write cycles: 0
4banks busy for read cycles: 136
4banks busy for write cycles: 0
5banks busy for read cycles: 100
5banks busy for write cycles: 0
6banks busy for read cycles: 82
6banks busy for write cycles: 0
7banks busy for read cycles: 0
7banks busy for write cycles: 0
8banks busy for read cycles: 0
8banks busy for write cycles: 0

CPU 0 Branch Prediction Accuracy: 99.8678% MPKI: 0.264215 Average ROB Occupancy at Mispredict: 41.3431
Branch types
NOT_BRANCH: 160022998 80.0115%
BRANCH_DIRECT_JUMP: 3530101 1.76505%
BRANCH_INDIRECT: 14433198 7.2166%
BRANCH_CONDITIONAL: 12551976 6.27599%
BRANCH_DIRECT_CALL: 2343708 1.17185%
BRANCH_INDIRECT_CALL: 2387048 1.19352%
BRANCH_RETURN: 4730672 2.36534%
BRANCH_OTHER: 0 0%

DRAM PAGES: 1048576
Allocated PAGES: 1185
