
*** ChampSim Multicore Out-of-Order Simulator ***

Warmup Instructions: 50000000
Simulation Instructions: 200000000
Number of CPUs: 1
LLC sets: 2048
LLC ways: 16
Off-chip DRAM Size: 4096 MB Channels: 1 Width: 64-bit Data Rate: 6400 MT/s
CPU 0 runs traces/spec2k17/srv_13.champsimtrace.xz
.xz
BTB has LRU replacement policy
ITLB has LRU replacement policy
DTLB has LRU replacement policy
STLB has LRU replacement policy
L1I has LRU replacement policy
L1D has LRU replacement policy
Initialize SRRIP state for L2C
Initialize DRRIP state for LLC
Heartbeat CPU 0 instructions: 10000002 cycles: 2808462 heartbeat IPC: 3.56067 cumulative IPC: 3.56067 (Simulation time: 0 hr 0 min 42 sec) 
Heartbeat CPU 0 instructions: 20000000 cycles: 5615062 heartbeat IPC: 3.56303 cumulative IPC: 3.56185 (Simulation time: 0 hr 1 min 22 sec) 
Heartbeat CPU 0 instructions: 30000003 cycles: 8425576 heartbeat IPC: 3.55807 cumulative IPC: 3.56059 (Simulation time: 0 hr 2 min 2 sec) 
*** Reached end of trace for Core: 0 Repeating trace: traces/spec2k17/srv_13.champsimtrace.xz
Heartbeat CPU 0 instructions: 40000001 cycles: 11228702 heartbeat IPC: 3.56745 cumulative IPC: 3.5623 (Simulation time: 0 hr 2 min 41 sec) 
Heartbeat CPU 0 instructions: 50000003 cycles: 14039743 heartbeat IPC: 3.5574 cumulative IPC: 3.56132 (Simulation time: 0 hr 3 min 10 sec) 

Warmup complete CPU 0 instructions: 50000003 cycles: 14039743 (Simulation time: 0 hr 3 min 10 sec) 

Heartbeat CPU 0 instructions: 60000000 cycles: 44275069 heartbeat IPC: 0.330739 cumulative IPC: 0.330739 (Simulation time: 0 hr 4 min 2 sec) 
*** Reached end of trace for Core: 0 Repeating trace: traces/spec2k17/srv_13.champsimtrace.xz
Heartbeat CPU 0 instructions: 70000001 cycles: 73280719 heartbeat IPC: 0.34476 cumulative IPC: 0.337604 (Simulation time: 0 hr 4 min 48 sec) 
Heartbeat CPU 0 instructions: 80000003 cycles: 103118060 heartbeat IPC: 0.335151 cumulative IPC: 0.336782 (Simulation time: 0 hr 5 min 44 sec) 
Heartbeat CPU 0 instructions: 90000001 cycles: 133366054 heartbeat IPC: 0.3306 cumulative IPC: 0.335215 (Simulation time: 0 hr 6 min 25 sec) 
*** Reached end of trace for Core: 0 Repeating trace: traces/spec2k17/srv_13.champsimtrace.xz
Heartbeat CPU 0 instructions: 100000000 cycles: 162573450 heartbeat IPC: 0.342379 cumulative IPC: 0.336624 (Simulation time: 0 hr 7 min 21 sec) 
Heartbeat CPU 0 instructions: 110000000 cycles: 192059987 heartbeat IPC: 0.339138 cumulative IPC: 0.33704 (Simulation time: 0 hr 8 min 20 sec) 
Heartbeat CPU 0 instructions: 120000002 cycles: 222324532 heartbeat IPC: 0.33042 cumulative IPC: 0.336078 (Simulation time: 0 hr 9 min 2 sec) 
*** Reached end of trace for Core: 0 Repeating trace: traces/spec2k17/srv_13.champsimtrace.xz
Heartbeat CPU 0 instructions: 130000001 cycles: 251356831 heartbeat IPC: 0.344444 cumulative IPC: 0.337102 (Simulation time: 0 hr 9 min 53 sec) 
Heartbeat CPU 0 instructions: 140000002 cycles: 280956786 heartbeat IPC: 0.337838 cumulative IPC: 0.337183 (Simulation time: 0 hr 10 min 54 sec) 
Heartbeat CPU 0 instructions: 150000002 cycles: 310982504 heartbeat IPC: 0.333048 cumulative IPC: 0.336765 (Simulation time: 0 hr 11 min 57 sec) 
*** Reached end of trace for Core: 0 Repeating trace: traces/spec2k17/srv_13.champsimtrace.xz
Heartbeat CPU 0 instructions: 160000002 cycles: 339968005 heartbeat IPC: 0.345 cumulative IPC: 0.337498 (Simulation time: 0 hr 13 min 0 sec) 
Heartbeat CPU 0 instructions: 170000000 cycles: 369631867 heartbeat IPC: 0.33711 cumulative IPC: 0.337465 (Simulation time: 0 hr 14 min 6 sec) 
Heartbeat CPU 0 instructions: 180000003 cycles: 399565288 heartbeat IPC: 0.334075 cumulative IPC: 0.337202 (Simulation time: 0 hr 15 min 13 sec) 
*** Reached end of trace for Core: 0 Repeating trace: traces/spec2k17/srv_13.champsimtrace.xz
Heartbeat CPU 0 instructions: 190000000 cycles: 428656250 heartbeat IPC: 0.343749 cumulative IPC: 0.337661 (Simulation time: 0 hr 16 min 17 sec) 
Heartbeat CPU 0 instructions: 200000001 cycles: 458186029 heartbeat IPC: 0.338641 cumulative IPC: 0.337727 (Simulation time: 0 hr 17 min 21 sec) 
Heartbeat CPU 0 instructions: 210000000 cycles: 487842199 heartbeat IPC: 0.337198 cumulative IPC: 0.337693 (Simulation time: 0 hr 18 min 23 sec) 
*** Reached end of trace for Core: 0 Repeating trace: traces/spec2k17/srv_13.champsimtrace.xz
Heartbeat CPU 0 instructions: 220000000 cycles: 517160204 heartbeat IPC: 0.341087 cumulative IPC: 0.337891 (Simulation time: 0 hr 19 min 18 sec) 
Heartbeat CPU 0 instructions: 230000001 cycles: 546540374 heartbeat IPC: 0.340366 cumulative IPC: 0.338028 (Simulation time: 0 hr 20 min 17 sec) 
Heartbeat CPU 0 instructions: 240000000 cycles: 576201785 heartbeat IPC: 0.337138 cumulative IPC: 0.337981 (Simulation time: 0 hr 21 min 18 sec) 
*** Reached end of trace for Core: 0 Repeating trace: traces/spec2k17/srv_13.champsimtrace.xz
Heartbeat CPU 0 instructions: 250000000 cycles: 605860699 heartbeat IPC: 0.337167 cumulative IPC: 0.33794 (Simulation time: 0 hr 22 min 21 sec) 
Finished CPU 0 instructions: 200000003 cycles: 591820958 cumulative IPC: 0.33794 (Simulation time: 0 hr 22 min 21 sec) 

ChampSim completed all CPUs

Region of Interest Statistics

CPU 0 cumulative IPC: 0.33794 instructions: 200000003 cycles: 591820958
ITLB TOTAL     ACCESS:   34418832  HIT:   32580707  MISS:    1838125  HIT %:    94.6595  MISS %:    5.34046   MPKI: 9.19062
ITLB LOAD TRANSLATION ACCESS:   34418832  HIT:   32580707  MISS:    1838125  HIT %:    94.6595  MISS %:    5.34046   MPKI: 9.19062
ITLB PREFETCH  REQUESTED:          0  ISSUED:          0  USEFUL:          0  USELESS:          0
ITLB USEFUL LOAD PREFETCHES:          0 PREFETCH ISSUED TO LOWER LEVEL:          0  ACCURACY: -nan
ITLB TIMELY PREFETCHES:          0 LATE PREFETCHES: 0 DROPPED PREFETCHES: 0
ITLB PREFETCHES SAME FILL-ORIGIN LEVEL: 0 DIFFERENT FILL-ORIGIN LEVEL: 0
ITLB AVERAGE MISS LATENCY: 9.05468 cycles
ITLB RQ	ACCESS:   40220181	FORWARD:          0	MERGED:    5358051	TO_CACHE:   34862130

DTLB TOTAL     ACCESS:   45400519  HIT:   43606897  MISS:    1793622  HIT %:    96.0493  MISS %:    3.95066   MPKI: 8.96811
DTLB LOAD TRANSLATION ACCESS:   45400519  HIT:   43606897  MISS:    1793622  HIT %:    96.0493  MISS %:    3.95066   MPKI: 8.96811
DTLB PREFETCH  REQUESTED:          0  ISSUED:          0  USEFUL:          0  USELESS:          0
DTLB USEFUL LOAD PREFETCHES:          0 PREFETCH ISSUED TO LOWER LEVEL:          0  ACCURACY: -nan
DTLB TIMELY PREFETCHES:          0 LATE PREFETCHES: 0 DROPPED PREFETCHES: 0
DTLB PREFETCHES SAME FILL-ORIGIN LEVEL: 0 DIFFERENT FILL-ORIGIN LEVEL: 0
DTLB AVERAGE MISS LATENCY: 8.50045 cycles
DTLB RQ	ACCESS:   59745737	FORWARD:          0	MERGED:   14280588	TO_CACHE:   45465149

STLB TOTAL     ACCESS:   18425438  HIT:   18414621  MISS:      10817  HIT %:    99.9413  MISS %:  0.0587069   MPKI: 0.054085
STLB LOAD TRANSLATION ACCESS:    3631747  HIT:    3622290  MISS:       9457  HIT %:    99.7396  MISS %:   0.260398   MPKI: 0.047285
STLB TRANSLATION FROM L1D PREFETCHER ACCESS:   14793691  HIT:   14792331  MISS:       1360  HIT %:    99.9908  MISS %: 0.00919311   MPKI: 0.0068
STLB PREFETCH  REQUESTED:          0  ISSUED:          0  USEFUL:       1047  USELESS:        300
STLB USEFUL LOAD PREFETCHES:       1047 PREFETCH ISSUED TO LOWER LEVEL:          0  ACCURACY: inf
STLB TIMELY PREFETCHES:       1047 LATE PREFETCHES: 176 DROPPED PREFETCHES: 222596
STLB PREFETCHES SAME FILL-ORIGIN LEVEL: 0 DIFFERENT FILL-ORIGIN LEVEL: 0
STLB AVERAGE MISS LATENCY: 42.5893 cycles
STLB RQ	ACCESS:   21415363	FORWARD:          0	MERGED:    2766814	TO_CACHE:   18648549

STLB Hit, L1D data hit: 0
STLB Hit, L2C data hit: 0
STLB Hit, LLC data hit: 0
STLB Hit, LLC data miss: 0
STLB STLB hints to L2: 0
L1D TOTAL     ACCESS:   74796138  HIT:   70520556  MISS:    4275582  HIT %:    94.2837  MISS %:    5.71631   MPKI: 21.3779
L1D LOAD      ACCESS:   33506190  HIT:   31304267  MISS:    2201923  HIT %:    93.4283  MISS %:    6.57169   MPKI: 11.0096
L1D RFO       ACCESS:   24548529  HIT:   23527298  MISS:    1021231  HIT %:      95.84  MISS %:    4.16005   MPKI: 5.10615
L1D PREFETCH  ACCESS:   16741419  HIT:   15688991  MISS:    1052428  HIT %:    93.7136  MISS %:    6.28637   MPKI: 5.26214
AGUS PREFETCH L1 MISS: 0
L1D PREFETCH  REQUESTED:   37287566  ISSUED:   37287501  USEFUL:     689399  USELESS:     362983
L1D USEFUL LOAD PREFETCHES:     689399 PREFETCH ISSUED TO LOWER LEVEL:    1482849  ACCURACY: 46.4915
L1D TIMELY PREFETCHES:     689399 LATE PREFETCHES: 427778 DROPPED PREFETCHES: 239615
L1D PREFETCHES SAME FILL-ORIGIN LEVEL: 1482849 DIFFERENT FILL-ORIGIN LEVEL: 0
L1D AVERAGE MISS LATENCY: 3.59587e+07 cycles
L1D RQ	ACCESS:   46973267	FORWARD:          0	MERGED:   13073828	TO_CACHE:   33604198
L1D WQ	ACCESS:   26311887	FORWARD:     329157	MERGED:     170348	TO_CACHE:   26141539
L1D PQ	ACCESS:   19503885	FORWARD:          0	MERGED:    1686353	TO_CACHE:   17783616

L1D UNIQUE REGIONS ACCESSED: 0
L1D REGIONS CONFLICTS: 0
L1D Cross Page Prefetch Requests: 13032930
L1D Same Page Prefetch Requests: 7447665
L1D ROI Sum of L1D PQ occupancy: 249807583
L1D PREFETCHES PUSHED FROM L2C: 0
L1I TOTAL     ACCESS:   38816174  HIT:   29175335  MISS:    9640839  HIT %:    75.1628  MISS %:    24.8372   MPKI: 48.2042
L1I LOAD      ACCESS:   38816174  HIT:   29175335  MISS:    9640839  HIT %:    75.1628  MISS %:    24.8372   MPKI: 48.2042
L1I PREFETCH  REQUESTED:          0  ISSUED:          0  USEFUL:          0  USELESS:          0
L1I USEFUL LOAD PREFETCHES:          0 PREFETCH ISSUED TO LOWER LEVEL:          0  ACCURACY: -nan
L1I TIMELY PREFETCHES:          0 LATE PREFETCHES: 0 DROPPED PREFETCHES: 0
L1I PREFETCHES SAME FILL-ORIGIN LEVEL: 0 DIFFERENT FILL-ORIGIN LEVEL: 0
L1I AVERAGE MISS LATENCY: 16.7886 cycles
L1I RQ	ACCESS:   57783702	FORWARD:          0	MERGED:   17563521	TO_CACHE:   40220181

BTB TOTAL     ACCESS:   30281760  HIT:   18910009  MISS:   11371751  HIT %:    62.4469  MISS %:    37.5531   MPKI: 56.8588
BTB BRANCH_DIRECT_JUMP	ACCESS:    2184471  HIT:    1385849  MISS:     798622
BTB BRANCH_INDIRECT	ACCESS:   11367631  HIT:    7108083  MISS:    4259548
BTB BRANCH_CONDITIONAL	ACCESS:    8713184  HIT:    7563917  MISS:    1149267
BTB BRANCH_DIRECT_CALL	ACCESS:    3386061  HIT:    1522950  MISS:    1863111
BTB BRANCH_INDIRECT_CALL	ACCESS:     622186  HIT:     244573  MISS:     377613
BTB BRANCH_RETURN	ACCESS:    4008227  HIT:    1084637  MISS:    2923590
BTB BRANCH_OTHER ACCESS:          0  HIT:          0  MISS:          0

L2C TOTAL     ACCESS:   16074852  HIT:   14383031  MISS:    1691821  HIT %:    89.4754  MISS %:    10.5246   MPKI: 8.4591
L2C LOAD      ACCESS:   11414958  HIT:   10247541  MISS:    1167417  HIT %:    89.7729  MISS %:    10.2271   MPKI: 5.83708
L2C DATA LOAD MPKI: 1.51027
L2C INSTRUCTION LOAD MPKI: 4.32681
L2C RFO       ACCESS:    1018568  HIT:     809330  MISS:     209238  HIT %:    79.4576  MISS %:    20.5424   MPKI: 1.04619
L2C PREFETCH  ACCESS:    1482091  HIT:    1259659  MISS:     222432  HIT %:     84.992  MISS %:     15.008   MPKI: 1.11216
AGUS PREFETCH L1 MISS: 0
L2C DATA PREFETCH MPKI: 1.11216
L2C INSTRUCTION PREFETCH MPKI: 0
L2C WRITEBACK ACCESS:    1837757  HIT:    1788567  MISS:      49190  HIT %:    97.3234  MISS %:    2.67663   MPKI: 0.24595
L2C LOAD TRANSLATION ACCESS:      10110  HIT:       3792  MISS:       6318  HIT %:    37.5074  MISS %:    62.4926   MPKI: 0.03159
L2C TRANSLATION FROM L1D PREFETCHER ACCESS:     311368  HIT:     274142  MISS:      37226  HIT %:    88.0444  MISS %:    11.9556   MPKI: 0.18613
L2C PREFETCH  REQUESTED:          0  ISSUED:          0  USEFUL:      45708  USELESS:     213688
L2C USEFUL LOAD PREFETCHES:      45708 PREFETCH ISSUED TO LOWER LEVEL:     222432  ACCURACY: 20.5492
L2C TIMELY PREFETCHES:      45708 LATE PREFETCHES: 0 DROPPED PREFETCHES: 0
L2C PREFETCHES SAME FILL-ORIGIN LEVEL: 0 DIFFERENT FILL-ORIGIN LEVEL: 0
L2C AVERAGE MISS LATENCY: 34.1292 cycles
L2C RQ	ACCESS:   12755052	FORWARD:          0	MERGED:          0	TO_CACHE:   12755006
L2C WQ	ACCESS:    1837757	FORWARD:        804	MERGED:          0	TO_CACHE:    1837757
L2C PQ	ACCESS:    1482849	FORWARD:          0	MERGED:          0	TO_CACHE:    1482091

L2C Instructions Evicting Data 352437
L2C Translations Evicting Data 25548
L2C Data Evicting Data 384222
L2C Instructions Evicting Instructions 497035
L2C Translations Evicting Instructions 15951
L2C Data Evicting Instructions 325109
L2C Instructions Evicting Translations 15891
L2C Translations Evicting Translations 2045
L2C Data Evicting Translations 24393
L2C Dense regions hint from L2: 0
PSCL5 TOTAL     ACCESS:     232260  HIT:     232260  MISS:          0  HIT %:        100  MISS %:          0   MPKI: 0
PSCL5 LOAD TRANSLATION ACCESS:       9281  HIT:       9281  MISS:          0  HIT %:        100  MISS %:          0   MPKI: 0
PSCL5 TRANSLATION FROM L1D PREFETCHER ACCESS:     222979  HIT:     222979  MISS:          0  HIT %:        100  MISS %:          0   MPKI: 0
PSCL5 PREFETCH  REQUESTED:          0  ISSUED:          0  USEFUL:          0  USELESS:          0
PSCL5 USEFUL LOAD PREFETCHES:          0 PREFETCH ISSUED TO LOWER LEVEL:          0  ACCURACY: -nan
PSCL5 TIMELY PREFETCHES:          0 LATE PREFETCHES: 0 DROPPED PREFETCHES: 0
PSCL5 PREFETCHES SAME FILL-ORIGIN LEVEL: 0 DIFFERENT FILL-ORIGIN LEVEL: 0

PSCL4 TOTAL     ACCESS:     177677  HIT:     177636  MISS:         41  HIT %:    99.9769  MISS %:  0.0230756   MPKI: 0.000205
PSCL4 LOAD TRANSLATION ACCESS:       8439  HIT:       8398  MISS:         41  HIT %:    99.5142  MISS %:    0.48584   MPKI: 0.000205
PSCL4 TRANSLATION FROM L1D PREFETCHER ACCESS:     169238  HIT:     169238  MISS:          0  HIT %:        100  MISS %:          0   MPKI: 0
PSCL4 PREFETCH  REQUESTED:          0  ISSUED:          0  USEFUL:          0  USELESS:          0
PSCL4 USEFUL LOAD PREFETCHES:          0 PREFETCH ISSUED TO LOWER LEVEL:          0  ACCURACY: -nan
PSCL4 TIMELY PREFETCHES:          0 LATE PREFETCHES: 0 DROPPED PREFETCHES: 0
PSCL4 PREFETCHES SAME FILL-ORIGIN LEVEL: 0 DIFFERENT FILL-ORIGIN LEVEL: 0

PSCL3 TOTAL     ACCESS:     188860  HIT:     188819  MISS:         41  HIT %:    99.9783  MISS %:  0.0217092   MPKI: 0.000205
PSCL3 LOAD TRANSLATION ACCESS:       8907  HIT:       8866  MISS:         41  HIT %:    99.5397  MISS %:   0.460312   MPKI: 0.000205
PSCL3 TRANSLATION FROM L1D PREFETCHER ACCESS:     179953  HIT:     179953  MISS:          0  HIT %:        100  MISS %:          0   MPKI: 0
PSCL3 PREFETCH  REQUESTED:          0  ISSUED:          0  USEFUL:          0  USELESS:          0
PSCL3 USEFUL LOAD PREFETCHES:          0 PREFETCH ISSUED TO LOWER LEVEL:          0  ACCURACY: -nan
PSCL3 TIMELY PREFETCHES:          0 LATE PREFETCHES: 0 DROPPED PREFETCHES: 0
PSCL3 PREFETCHES SAME FILL-ORIGIN LEVEL: 0 DIFFERENT FILL-ORIGIN LEVEL: 0

PSCL2 TOTAL     ACCESS:      64971  HIT:      64114  MISS:        857  HIT %:    98.6809  MISS %:    1.31905   MPKI: 0.004285
PSCL2 LOAD TRANSLATION ACCESS:       9379  HIT:       8522  MISS:        857  HIT %:    90.8626  MISS %:    9.13743   MPKI: 0.004285
PSCL2 TRANSLATION FROM L1D PREFETCHER ACCESS:      55592  HIT:      55592  MISS:          0  HIT %:        100  MISS %:          0   MPKI: 0
PSCL2 PREFETCH  REQUESTED:          0  ISSUED:          0  USEFUL:          0  USELESS:          0
PSCL2 USEFUL LOAD PREFETCHES:          0 PREFETCH ISSUED TO LOWER LEVEL:          0  ACCURACY: -nan
PSCL2 TIMELY PREFETCHES:          0 LATE PREFETCHES: 0 DROPPED PREFETCHES: 0
PSCL2 PREFETCHES SAME FILL-ORIGIN LEVEL: 0 DIFFERENT FILL-ORIGIN LEVEL: 0

LLC TOTAL     ACCESS:    1943101  HIT:    1886716  MISS:      56385  HIT %:    97.0982  MISS %:     2.9018   MPKI: 0.281925
LLC LOAD      ACCESS:    1167417  HIT:    1149051  MISS:      18366  HIT %:    98.4268  MISS %:    1.57322   MPKI: 0.09183
LLC RFO       ACCESS:     209238  HIT:     185783  MISS:      23455  HIT %:    88.7903  MISS %:    11.2097   MPKI: 0.117275
LLC PREFETCH  ACCESS:     222432  HIT:     209574  MISS:      12858  HIT %:    94.2194  MISS %:    5.78064   MPKI: 0.06429
AGUS PREFETCH L1 MISS: 0
LLC WRITEBACK ACCESS:     300470  HIT:     300194  MISS:        276  HIT %:    99.9081  MISS %:  0.0918561   MPKI: 0.00138
LLC LOAD TRANSLATION ACCESS:       6318  HIT:       6204  MISS:        114  HIT %:    98.1956  MISS %:    1.80437   MPKI: 0.00057
LLC TRANSLATION FROM L1D PREFETCHER ACCESS:      37226  HIT:      35910  MISS:       1316  HIT %:    96.4648  MISS %:    3.53516   MPKI: 0.00658
LLC PREFETCH  REQUESTED:          0  ISSUED:          0  USEFUL:       2570  USELESS:      10756
LLC USEFUL LOAD PREFETCHES:       2570 PREFETCH ISSUED TO LOWER LEVEL:      12858  ACCURACY: 19.9876
LLC TIMELY PREFETCHES:       2570 LATE PREFETCHES: 0 DROPPED PREFETCHES: 0
LLC PREFETCHES SAME FILL-ORIGIN LEVEL: 0 DIFFERENT FILL-ORIGIN LEVEL: 0
LLC AVERAGE MISS LATENCY: 150.047 cycles
LLC RQ	ACCESS:    1420199	FORWARD:          0	MERGED:          0	TO_CACHE:    1420199
LLC WQ	ACCESS:     300470	FORWARD:          0	MERGED:          0	TO_CACHE:     300470
LLC PQ	ACCESS:     222432	FORWARD:          0	MERGED:          0	TO_CACHE:     222432

LLC Dense regions hint to LLC: 0

RAW hits: 1369098
Loads Generated: 48342365
Loads sent to L1D: 46973267
Stores Generated: 26311868
Stores sent to L1D: 26311887
Major fault: 0 Minor fault: 1910
Allocated PAGES: 1910
Completed 

DRAM Statistics
 CHANNEL 0
 RQ ROW_BUFFER_HIT:      16553  ROW_BUFFER_MISS:      39515
 DBUS_CONGESTED:         86
 WQ ROW_BUFFER_HIT:       3207  ROW_BUFFER_MISS:      24533  FULL:          0

 AVG_CONGESTED_CYCLE: 5
 All warmup complete: 2
Channel 0 Bank busy for read cycles: 0
Channel 0 Bank busy for write cycles: 0
Channel 0
Rank 0
0banks busy for read cycles: 585914873
0banks busy for write cycles: 10359
1banks busy for read cycles: 2600804
1banks busy for write cycles: 1333014
2banks busy for read cycles: 490553
2banks busy for write cycles: 231250
3banks busy for read cycles: 242883
3banks busy for write cycles: 119594
4banks busy for read cycles: 163815
4banks busy for write cycles: 84133
5banks busy for read cycles: 114146
5banks busy for write cycles: 70931
6banks busy for read cycles: 86685
6banks busy for write cycles: 56906
7banks busy for read cycles: 57605
7banks busy for write cycles: 59842
8banks busy for read cycles: 37744
8banks busy for write cycles: 145822

CPU 0 Branch Prediction Accuracy: 99.8429% MPKI: 0.27698 Average ROB Occupancy at Mispredict: 53.2032
Branch types
NOT_BRANCH: 164736751 82.3684%
BRANCH_DIRECT_JUMP: 2184471 1.09224%
BRANCH_INDIRECT: 11367631 5.68382%
BRANCH_CONDITIONAL: 13694607 6.8473%
BRANCH_DIRECT_CALL: 3386061 1.69303%
BRANCH_INDIRECT_CALL: 622186 0.311093%
BRANCH_RETURN: 4008227 2.00411%
BRANCH_OTHER: 0 0%

DRAM PAGES: 1048576
Allocated PAGES: 1910
