
*** ChampSim Multicore Out-of-Order Simulator ***

Warmup Instructions: 50000000
Simulation Instructions: 200000000
Number of CPUs: 1
LLC sets: 2048
LLC ways: 16
Off-chip DRAM Size: 4096 MB Channels: 1 Width: 64-bit Data Rate: 6400 MT/s
CPU 0 runs traces/spec2k17/srv_20.champsimtrace.xz
.xz
BTB has LRU replacement policy
ITLB has LRU replacement policy
DTLB has LRU replacement policy
STLB has LRU replacement policy
L1I has LRU replacement policy
L1D has LRU replacement policy
Initialize SRRIP state for L2C
Initialize DRRIP state for LLC
Heartbeat CPU 0 instructions: 10000001 cycles: 2825751 heartbeat IPC: 3.53888 cumulative IPC: 3.53888 (Simulation time: 0 hr 0 min 30 sec) 
Heartbeat CPU 0 instructions: 20000003 cycles: 5643935 heartbeat IPC: 3.54839 cumulative IPC: 3.54363 (Simulation time: 0 hr 1 min 1 sec) 
Heartbeat CPU 0 instructions: 30000003 cycles: 8466488 heartbeat IPC: 3.54289 cumulative IPC: 3.54338 (Simulation time: 0 hr 1 min 38 sec) 
*** Reached end of trace for Core: 0 Repeating trace: traces/spec2k17/srv_20.champsimtrace.xz
Heartbeat CPU 0 instructions: 40000000 cycles: 11290440 heartbeat IPC: 3.54114 cumulative IPC: 3.54282 (Simulation time: 0 hr 2 min 13 sec) 
Heartbeat CPU 0 instructions: 50000003 cycles: 14114410 heartbeat IPC: 3.54112 cumulative IPC: 3.54248 (Simulation time: 0 hr 2 min 49 sec) 

Warmup complete CPU 0 instructions: 50000003 cycles: 14114410 (Simulation time: 0 hr 2 min 49 sec) 

Heartbeat CPU 0 instructions: 60000003 cycles: 46301155 heartbeat IPC: 0.310687 cumulative IPC: 0.310687 (Simulation time: 0 hr 3 min 49 sec) 
*** Reached end of trace for Core: 0 Repeating trace: traces/spec2k17/srv_20.champsimtrace.xz
Heartbeat CPU 0 instructions: 70000003 cycles: 78413675 heartbeat IPC: 0.311405 cumulative IPC: 0.311046 (Simulation time: 0 hr 4 min 51 sec) 
Heartbeat CPU 0 instructions: 80000000 cycles: 110367278 heartbeat IPC: 0.312954 cumulative IPC: 0.311679 (Simulation time: 0 hr 5 min 49 sec) 
Heartbeat CPU 0 instructions: 90000001 cycles: 142368495 heartbeat IPC: 0.312488 cumulative IPC: 0.311881 (Simulation time: 0 hr 6 min 50 sec) 
*** Reached end of trace for Core: 0 Repeating trace: traces/spec2k17/srv_20.champsimtrace.xz
Heartbeat CPU 0 instructions: 100000001 cycles: 174353025 heartbeat IPC: 0.312651 cumulative IPC: 0.312035 (Simulation time: 0 hr 7 min 38 sec) 
Heartbeat CPU 0 instructions: 110000000 cycles: 206283160 heartbeat IPC: 0.313184 cumulative IPC: 0.312226 (Simulation time: 0 hr 8 min 35 sec) 
Heartbeat CPU 0 instructions: 120000000 cycles: 238169519 heartbeat IPC: 0.313614 cumulative IPC: 0.312423 (Simulation time: 0 hr 9 min 36 sec) 
*** Reached end of trace for Core: 0 Repeating trace: traces/spec2k17/srv_20.champsimtrace.xz
Heartbeat CPU 0 instructions: 130000000 cycles: 270079804 heartbeat IPC: 0.313379 cumulative IPC: 0.312542 (Simulation time: 0 hr 10 min 44 sec) 
Heartbeat CPU 0 instructions: 140000000 cycles: 301965020 heartbeat IPC: 0.313625 cumulative IPC: 0.312662 (Simulation time: 0 hr 11 min 49 sec) 
Heartbeat CPU 0 instructions: 150000000 cycles: 333762790 heartbeat IPC: 0.314487 cumulative IPC: 0.312844 (Simulation time: 0 hr 12 min 58 sec) 
*** Reached end of trace for Core: 0 Repeating trace: traces/spec2k17/srv_20.champsimtrace.xz
Heartbeat CPU 0 instructions: 160000003 cycles: 365578128 heartbeat IPC: 0.314314 cumulative IPC: 0.312977 (Simulation time: 0 hr 14 min 5 sec) 
Heartbeat CPU 0 instructions: 170000001 cycles: 397484912 heartbeat IPC: 0.313413 cumulative IPC: 0.313013 (Simulation time: 0 hr 15 min 4 sec) 
Heartbeat CPU 0 instructions: 180000001 cycles: 429148326 heartbeat IPC: 0.315822 cumulative IPC: 0.313227 (Simulation time: 0 hr 16 min 8 sec) 
*** Reached end of trace for Core: 0 Repeating trace: traces/spec2k17/srv_20.champsimtrace.xz
Heartbeat CPU 0 instructions: 190000002 cycles: 460968971 heartbeat IPC: 0.314261 cumulative IPC: 0.313301 (Simulation time: 0 hr 17 min 12 sec) 
Heartbeat CPU 0 instructions: 200000000 cycles: 492869587 heartbeat IPC: 0.313474 cumulative IPC: 0.313313 (Simulation time: 0 hr 18 min 17 sec) 
Heartbeat CPU 0 instructions: 210000002 cycles: 524520959 heartbeat IPC: 0.315942 cumulative IPC: 0.313476 (Simulation time: 0 hr 19 min 10 sec) 
*** Reached end of trace for Core: 0 Repeating trace: traces/spec2k17/srv_20.champsimtrace.xz
Heartbeat CPU 0 instructions: 220000000 cycles: 556360288 heartbeat IPC: 0.314077 cumulative IPC: 0.313511 (Simulation time: 0 hr 20 min 9 sec) 
Heartbeat CPU 0 instructions: 230000000 cycles: 588238265 heartbeat IPC: 0.313696 cumulative IPC: 0.313521 (Simulation time: 0 hr 21 min 14 sec) 
Heartbeat CPU 0 instructions: 240000000 cycles: 619970563 heartbeat IPC: 0.315136 cumulative IPC: 0.313606 (Simulation time: 0 hr 22 min 20 sec) 
*** Reached end of trace for Core: 0 Repeating trace: traces/spec2k17/srv_20.champsimtrace.xz
Heartbeat CPU 0 instructions: 250000002 cycles: 651830857 heartbeat IPC: 0.31387 cumulative IPC: 0.313619 (Simulation time: 0 hr 23 min 23 sec) 
Finished CPU 0 instructions: 200000003 cycles: 637716448 cumulative IPC: 0.313619 (Simulation time: 0 hr 23 min 23 sec) 

ChampSim completed all CPUs

Region of Interest Statistics

CPU 0 cumulative IPC: 0.313619 instructions: 200000003 cycles: 637716448
ITLB TOTAL     ACCESS:   34715754  HIT:   32682070  MISS:    2033684  HIT %:    94.1419  MISS %:     5.8581   MPKI: 10.1684
ITLB LOAD TRANSLATION ACCESS:   34715754  HIT:   32682070  MISS:    2033684  HIT %:    94.1419  MISS %:     5.8581   MPKI: 10.1684
ITLB PREFETCH  REQUESTED:          0  ISSUED:          0  USEFUL:          0  USELESS:          0
ITLB USEFUL LOAD PREFETCHES:          0 PREFETCH ISSUED TO LOWER LEVEL:          0  ACCURACY: -nan
ITLB TIMELY PREFETCHES:          0 LATE PREFETCHES: 0 DROPPED PREFETCHES: 0
ITLB PREFETCHES SAME FILL-ORIGIN LEVEL: 0 DIFFERENT FILL-ORIGIN LEVEL: 0
ITLB AVERAGE MISS LATENCY: 9.05131 cycles
ITLB RQ	ACCESS:   40942912	FORWARD:          0	MERGED:    5742095	TO_CACHE:   35200817

DTLB TOTAL     ACCESS:   46546227  HIT:   44704818  MISS:    1841409  HIT %:    96.0439  MISS %:    3.95609   MPKI: 9.20704
DTLB LOAD TRANSLATION ACCESS:   46546227  HIT:   44704818  MISS:    1841409  HIT %:    96.0439  MISS %:    3.95609   MPKI: 9.20704
DTLB PREFETCH  REQUESTED:          0  ISSUED:          0  USEFUL:          0  USELESS:          0
DTLB USEFUL LOAD PREFETCHES:          0 PREFETCH ISSUED TO LOWER LEVEL:          0  ACCURACY: -nan
DTLB TIMELY PREFETCHES:          0 LATE PREFETCHES: 0 DROPPED PREFETCHES: 0
DTLB PREFETCHES SAME FILL-ORIGIN LEVEL: 0 DIFFERENT FILL-ORIGIN LEVEL: 0
DTLB AVERAGE MISS LATENCY: 8.43294 cycles
DTLB RQ	ACCESS:   61166269	FORWARD:          0	MERGED:   14557680	TO_CACHE:   46608589

STLB TOTAL     ACCESS:   20161207  HIT:   20151589  MISS:       9618  HIT %:    99.9523  MISS %:  0.0477055   MPKI: 0.04809
STLB LOAD TRANSLATION ACCESS:    3875093  HIT:    3866518  MISS:       8575  HIT %:    99.7787  MISS %:   0.221285   MPKI: 0.042875
STLB TRANSLATION FROM L1D PREFETCHER ACCESS:   16286114  HIT:   16285071  MISS:       1043  HIT %:    99.9936  MISS %: 0.00640423   MPKI: 0.005215
STLB PREFETCH  REQUESTED:          0  ISSUED:          0  USEFUL:        679  USELESS:        361
STLB USEFUL LOAD PREFETCHES:        679 PREFETCH ISSUED TO LOWER LEVEL:          0  ACCURACY: inf
STLB TIMELY PREFETCHES:        679 LATE PREFETCHES: 226 DROPPED PREFETCHES: 244552
STLB PREFETCHES SAME FILL-ORIGIN LEVEL: 0 DIFFERENT FILL-ORIGIN LEVEL: 0
STLB AVERAGE MISS LATENCY: 43.4603 cycles
STLB RQ	ACCESS:   23426158	FORWARD:          0	MERGED:    3020032	TO_CACHE:   20406126

STLB Hit, L1D data hit: 0
STLB Hit, L2C data hit: 0
STLB Hit, LLC data hit: 0
STLB Hit, LLC data miss: 0
STLB STLB hints to L2: 0
L1D TOTAL     ACCESS:   77832137  HIT:   73338887  MISS:    4493250  HIT %:     94.227  MISS %:      5.773   MPKI: 22.4662
L1D LOAD      ACCESS:   34261898  HIT:   32088781  MISS:    2173117  HIT %:    93.6573  MISS %:    6.34266   MPKI: 10.8656
L1D RFO       ACCESS:   25119465  HIT:   24043252  MISS:    1076213  HIT %:    95.7156  MISS %:    4.28438   MPKI: 5.38106
L1D PREFETCH  ACCESS:   18450774  HIT:   17206854  MISS:    1243920  HIT %:    93.2582  MISS %:    6.74183   MPKI: 6.2196
AGUS PREFETCH L1 MISS: 0
L1D PREFETCH  REQUESTED:   41025631  ISSUED:   41025609  USEFUL:     836764  USELESS:     407089
L1D USEFUL LOAD PREFETCHES:     836764 PREFETCH ISSUED TO LOWER LEVEL:    1644709  ACCURACY: 50.8761
L1D TIMELY PREFETCHES:     836764 LATE PREFETCHES: 396808 DROPPED PREFETCHES: 266520
L1D PREFETCHES SAME FILL-ORIGIN LEVEL: 1644709 DIFFERENT FILL-ORIGIN LEVEL: 0
L1D AVERAGE MISS LATENCY: 3.48426e+07 cycles
L1D RQ	ACCESS:   47529867	FORWARD:          0	MERGED:   12855786	TO_CACHE:   34372199
L1D WQ	ACCESS:   26961101	FORWARD:     336794	MERGED:     167031	TO_CACHE:   26794070
L1D PQ	ACCESS:   21474544	FORWARD:          0	MERGED:    1888567	TO_CACHE:   19551065

L1D UNIQUE REGIONS ACCESSED: 0
L1D REGIONS CONFLICTS: 0
L1D Cross Page Prefetch Requests: 14439426
L1D Same Page Prefetch Requests: 8068960
L1D ROI Sum of L1D PQ occupancy: 276711697
L1D PREFETCHES PUSHED FROM L2C: 0
L1I TOTAL     ACCESS:   39412071  HIT:   28795565  MISS:   10616506  HIT %:    73.0628  MISS %:    26.9372   MPKI: 53.0825
L1I LOAD      ACCESS:   39412071  HIT:   28795565  MISS:   10616506  HIT %:    73.0628  MISS %:    26.9372   MPKI: 53.0825
L1I PREFETCH  REQUESTED:          0  ISSUED:          0  USEFUL:          0  USELESS:          0
L1I USEFUL LOAD PREFETCHES:          0 PREFETCH ISSUED TO LOWER LEVEL:          0  ACCURACY: -nan
L1I TIMELY PREFETCHES:          0 LATE PREFETCHES: 0 DROPPED PREFETCHES: 0
L1I PREFETCHES SAME FILL-ORIGIN LEVEL: 0 DIFFERENT FILL-ORIGIN LEVEL: 0
L1I AVERAGE MISS LATENCY: 16.9487 cycles
L1I RQ	ACCESS:   57966725	FORWARD:          0	MERGED:   17023813	TO_CACHE:   40942912

BTB TOTAL     ACCESS:   29994000  HIT:   17272559  MISS:   12721441  HIT %:    57.5867  MISS %:    42.4133   MPKI: 63.6072
BTB BRANCH_DIRECT_JUMP	ACCESS:    2025964  HIT:    1135056  MISS:     890908
BTB BRANCH_INDIRECT	ACCESS:   11876543  HIT:    7045667  MISS:    4830876
BTB BRANCH_CONDITIONAL	ACCESS:    7549910  HIT:    6212601  MISS:    1337309
BTB BRANCH_DIRECT_CALL	ACCESS:    3602862  HIT:    1507613  MISS:    2095249
BTB BRANCH_INDIRECT_CALL	ACCESS:     667964  HIT:     262432  MISS:     405532
BTB BRANCH_RETURN	ACCESS:    4270757  HIT:    1109190  MISS:    3161567
BTB BRANCH_OTHER ACCESS:          0  HIT:          0  MISS:          0

L2C TOTAL     ACCESS:   17554466  HIT:   15766629  MISS:    1787837  HIT %:    89.8155  MISS %:    10.1845   MPKI: 8.93918
L2C LOAD      ACCESS:   12392789  HIT:   11116457  MISS:    1276332  HIT %:     89.701  MISS %:     10.299   MPKI: 6.38166
L2C DATA LOAD MPKI: 1.31885
L2C INSTRUCTION LOAD MPKI: 5.06281
L2C RFO       ACCESS:    1072227  HIT:     865740  MISS:     206487  HIT %:    80.7422  MISS %:    19.2578   MPKI: 1.03243
L2C PREFETCH  ACCESS:    1644657  HIT:    1449149  MISS:     195508  HIT %:    88.1125  MISS %:    11.8875   MPKI: 0.97754
AGUS PREFETCH L1 MISS: 0
L2C DATA PREFETCH MPKI: 0.97754
L2C INSTRUCTION PREFETCH MPKI: 0
L2C WRITEBACK ACCESS:    2028616  HIT:    1966293  MISS:      62323  HIT %:    96.9278  MISS %:    3.07219   MPKI: 0.311615
L2C LOAD TRANSLATION ACCESS:       9112  HIT:       3482  MISS:       5630  HIT %:    38.2133  MISS %:    61.7867   MPKI: 0.02815
L2C TRANSLATION FROM L1D PREFETCHER ACCESS:     407065  HIT:     365508  MISS:      41557  HIT %:    89.7911  MISS %:    10.2089   MPKI: 0.207785
L2C PREFETCH  REQUESTED:          0  ISSUED:          0  USEFUL:      43658  USELESS:     193110
L2C USEFUL LOAD PREFETCHES:      43658 PREFETCH ISSUED TO LOWER LEVEL:     195508  ACCURACY: 22.3305
L2C TIMELY PREFETCHES:      43658 LATE PREFETCHES: 0 DROPPED PREFETCHES: 0
L2C PREFETCHES SAME FILL-ORIGIN LEVEL: 0 DIFFERENT FILL-ORIGIN LEVEL: 0
L2C AVERAGE MISS LATENCY: 31.1012 cycles
L2C RQ	ACCESS:   13881223	FORWARD:          0	MERGED:          0	TO_CACHE:   13881193
L2C WQ	ACCESS:    2028616	FORWARD:         82	MERGED:          0	TO_CACHE:    2028616
L2C PQ	ACCESS:    1644709	FORWARD:          0	MERGED:          0	TO_CACHE:    1644657

L2C Instructions Evicting Data 370629
L2C Translations Evicting Data 23835
L2C Data Evicting Data 309489
L2C Instructions Evicting Instructions 619478
L2C Translations Evicting Instructions 21593
L2C Data Evicting Instructions 334920
L2C Instructions Evicting Translations 22455
L2C Translations Evicting Translations 1759
L2C Data Evicting Translations 21356
L2C Dense regions hint from L2: 0
PSCL5 TOTAL     ACCESS:     252589  HIT:     252589  MISS:          0  HIT %:        100  MISS %:          0   MPKI: 0
PSCL5 LOAD TRANSLATION ACCESS:       8349  HIT:       8349  MISS:          0  HIT %:        100  MISS %:          0   MPKI: 0
PSCL5 TRANSLATION FROM L1D PREFETCHER ACCESS:     244240  HIT:     244240  MISS:          0  HIT %:        100  MISS %:          0   MPKI: 0
PSCL5 PREFETCH  REQUESTED:          0  ISSUED:          0  USEFUL:          0  USELESS:          0
PSCL5 USEFUL LOAD PREFETCHES:          0 PREFETCH ISSUED TO LOWER LEVEL:          0  ACCURACY: -nan
PSCL5 TIMELY PREFETCHES:          0 LATE PREFETCHES: 0 DROPPED PREFETCHES: 0
PSCL5 PREFETCHES SAME FILL-ORIGIN LEVEL: 0 DIFFERENT FILL-ORIGIN LEVEL: 0

PSCL4 TOTAL     ACCESS:     171534  HIT:     171447  MISS:         87  HIT %:    99.9493  MISS %:  0.0507188   MPKI: 0.000435
PSCL4 LOAD TRANSLATION ACCESS:       7543  HIT:       7456  MISS:         87  HIT %:    98.8466  MISS %:    1.15339   MPKI: 0.000435
PSCL4 TRANSLATION FROM L1D PREFETCHER ACCESS:     163991  HIT:     163991  MISS:          0  HIT %:        100  MISS %:          0   MPKI: 0
PSCL4 PREFETCH  REQUESTED:          0  ISSUED:          0  USEFUL:          0  USELESS:          0
PSCL4 USEFUL LOAD PREFETCHES:          0 PREFETCH ISSUED TO LOWER LEVEL:          0  ACCURACY: -nan
PSCL4 TIMELY PREFETCHES:          0 LATE PREFETCHES: 0 DROPPED PREFETCHES: 0
PSCL4 PREFETCHES SAME FILL-ORIGIN LEVEL: 0 DIFFERENT FILL-ORIGIN LEVEL: 0

PSCL3 TOTAL     ACCESS:     186305  HIT:     186218  MISS:         87  HIT %:    99.9533  MISS %:  0.0466976   MPKI: 0.000435
PSCL3 LOAD TRANSLATION ACCESS:       7761  HIT:       7674  MISS:         87  HIT %:     98.879  MISS %:    1.12099   MPKI: 0.000435
PSCL3 TRANSLATION FROM L1D PREFETCHER ACCESS:     178544  HIT:     178544  MISS:          0  HIT %:        100  MISS %:          0   MPKI: 0
PSCL3 PREFETCH  REQUESTED:          0  ISSUED:          0  USEFUL:          0  USELESS:          0
PSCL3 USEFUL LOAD PREFETCHES:          0 PREFETCH ISSUED TO LOWER LEVEL:          0  ACCURACY: -nan
PSCL3 TIMELY PREFETCHES:          0 LATE PREFETCHES: 0 DROPPED PREFETCHES: 0
PSCL3 PREFETCHES SAME FILL-ORIGIN LEVEL: 0 DIFFERENT FILL-ORIGIN LEVEL: 0

PSCL2 TOTAL     ACCESS:      66010  HIT:      65343  MISS:        667  HIT %:    98.9895  MISS %:    1.01045   MPKI: 0.003335
PSCL2 LOAD TRANSLATION ACCESS:       8407  HIT:       7740  MISS:        667  HIT %:    92.0661  MISS %:    7.93386   MPKI: 0.003335
PSCL2 TRANSLATION FROM L1D PREFETCHER ACCESS:      57603  HIT:      57603  MISS:          0  HIT %:        100  MISS %:          0   MPKI: 0
PSCL2 PREFETCH  REQUESTED:          0  ISSUED:          0  USEFUL:          0  USELESS:          0
PSCL2 USEFUL LOAD PREFETCHES:          0 PREFETCH ISSUED TO LOWER LEVEL:          0  ACCURACY: -nan
PSCL2 TIMELY PREFETCHES:          0 LATE PREFETCHES: 0 DROPPED PREFETCHES: 0
PSCL2 PREFETCHES SAME FILL-ORIGIN LEVEL: 0 DIFFERENT FILL-ORIGIN LEVEL: 0

LLC TOTAL     ACCESS:    2027864  HIT:    2002088  MISS:      25776  HIT %:    98.7289  MISS %:    1.27109   MPKI: 0.12888
LLC LOAD      ACCESS:    1276332  HIT:    1268513  MISS:       7819  HIT %:    99.3874  MISS %:   0.612615   MPKI: 0.039095
LLC RFO       ACCESS:     206487  HIT:     195855  MISS:      10632  HIT %:     94.851  MISS %:    5.14899   MPKI: 0.05316
LLC PREFETCH  ACCESS:     195500  HIT:     189404  MISS:       6096  HIT %:    96.8818  MISS %:    3.11816   MPKI: 0.03048
AGUS PREFETCH L1 MISS: 0
LLC WRITEBACK ACCESS:     302358  HIT:     302116  MISS:        242  HIT %:      99.92  MISS %:  0.0800376   MPKI: 0.00121
LLC LOAD TRANSLATION ACCESS:       5630  HIT:       5514  MISS:        116  HIT %:    97.9396  MISS %:    2.06039   MPKI: 0.00058
LLC TRANSLATION FROM L1D PREFETCHER ACCESS:      41557  HIT:      40686  MISS:        871  HIT %:    97.9041  MISS %:    2.09592   MPKI: 0.004355
LLC PREFETCH  REQUESTED:          0  ISSUED:          0  USEFUL:       1346  USELESS:       4055
LLC USEFUL LOAD PREFETCHES:       1346 PREFETCH ISSUED TO LOWER LEVEL:       6096  ACCURACY: 22.0801
LLC TIMELY PREFETCHES:       1346 LATE PREFETCHES: 0 DROPPED PREFETCHES: 0
LLC PREFETCHES SAME FILL-ORIGIN LEVEL: 0 DIFFERENT FILL-ORIGIN LEVEL: 0
LLC AVERAGE MISS LATENCY: 148.898 cycles
LLC RQ	ACCESS:    1530006	FORWARD:          0	MERGED:          0	TO_CACHE:    1530006
LLC WQ	ACCESS:     302358	FORWARD:          8	MERGED:          0	TO_CACHE:     302358
LLC PQ	ACCESS:     195508	FORWARD:          0	MERGED:          0	TO_CACHE:     195500

LLC Dense regions hint to LLC: 0

RAW hits: 1408068
Loads Generated: 48937935
Loads sent to L1D: 47529867
Stores Generated: 26961103
Stores sent to L1D: 26961101
Major fault: 0 Minor fault: 1949
Allocated PAGES: 1949
Completed 

DRAM Statistics
 CHANNEL 0
 RQ ROW_BUFFER_HIT:       5869  ROW_BUFFER_MISS:      19663
 DBUS_CONGESTED:         53
 WQ ROW_BUFFER_HIT:       1435  ROW_BUFFER_MISS:      10816  FULL:          0

 AVG_CONGESTED_CYCLE: 5
 All warmup complete: 2
Channel 0 Bank busy for read cycles: 0
Channel 0 Bank busy for write cycles: 0
Channel 0
Rank 0
0banks busy for read cycles: 634473400
0banks busy for write cycles: 5520
1banks busy for read cycles: 1604794
1banks busy for write cycles: 719661
2banks busy for read cycles: 294787
2banks busy for write cycles: 127565
3banks busy for read cycles: 115035
3banks busy for write cycles: 64970
4banks busy for read cycles: 66109
4banks busy for write cycles: 47345
5banks busy for read cycles: 37623
5banks busy for write cycles: 32380
6banks busy for read cycles: 20010
6banks busy for write cycles: 27192
7banks busy for read cycles: 11507
7banks busy for write cycles: 25572
8banks busy for read cycles: 6329
8banks busy for write cycles: 36650

CPU 0 Branch Prediction Accuracy: 99.8849% MPKI: 0.202245 Average ROB Occupancy at Mispredict: 31.9281
Branch types
NOT_BRANCH: 164866948 82.4335%
BRANCH_DIRECT_JUMP: 2025964 1.01298%
BRANCH_INDIRECT: 11876543 5.93827%
BRANCH_CONDITIONAL: 12688705 6.34435%
BRANCH_DIRECT_CALL: 3602862 1.80143%
BRANCH_INDIRECT_CALL: 667964 0.333982%
BRANCH_RETURN: 4270757 2.13538%
BRANCH_OTHER: 0 0%

DRAM PAGES: 1048576
Allocated PAGES: 1949
