
*** ChampSim Multicore Out-of-Order Simulator ***

Warmup Instructions: 50000000
Simulation Instructions: 200000000
Number of CPUs: 1
LLC sets: 2048
LLC ways: 16
Off-chip DRAM Size: 4096 MB Channels: 1 Width: 64-bit Data Rate: 6400 MT/s
CPU 0 runs traces/spec2k17/srv_33.champsimtrace.xz
.xz
BTB has LRU replacement policy
ITLB has LRU replacement policy
DTLB has LRU replacement policy
STLB has LRU replacement policy
L1I has LRU replacement policy
L1D has LRU replacement policy
Initialize SRRIP state for L2C
Initialize DRRIP state for LLC
Heartbeat CPU 0 instructions: 10000001 cycles: 2940486 heartbeat IPC: 3.4008 cumulative IPC: 3.4008 (Simulation time: 0 hr 0 min 41 sec) 
Heartbeat CPU 0 instructions: 20000003 cycles: 5886201 heartbeat IPC: 3.39476 cumulative IPC: 3.39778 (Simulation time: 0 hr 1 min 15 sec) 
Heartbeat CPU 0 instructions: 30000000 cycles: 8827083 heartbeat IPC: 3.40034 cumulative IPC: 3.39863 (Simulation time: 0 hr 1 min 58 sec) 
*** Reached end of trace for Core: 0 Repeating trace: traces/spec2k17/srv_33.champsimtrace.xz
Heartbeat CPU 0 instructions: 40000002 cycles: 11769086 heartbeat IPC: 3.39905 cumulative IPC: 3.39873 (Simulation time: 0 hr 2 min 41 sec) 
Heartbeat CPU 0 instructions: 50000002 cycles: 14718553 heartbeat IPC: 3.39044 cumulative IPC: 3.39707 (Simulation time: 0 hr 3 min 13 sec) 

Warmup complete CPU 0 instructions: 50000002 cycles: 14718553 (Simulation time: 0 hr 3 min 13 sec) 

Heartbeat CPU 0 instructions: 60000000 cycles: 34098176 heartbeat IPC: 0.516006 cumulative IPC: 0.516006 (Simulation time: 0 hr 4 min 22 sec) 
*** Reached end of trace for Core: 0 Repeating trace: traces/spec2k17/srv_33.champsimtrace.xz
Heartbeat CPU 0 instructions: 70000000 cycles: 53458353 heartbeat IPC: 0.516524 cumulative IPC: 0.516265 (Simulation time: 0 hr 5 min 13 sec) 
Heartbeat CPU 0 instructions: 80000000 cycles: 72756283 heartbeat IPC: 0.51819 cumulative IPC: 0.516905 (Simulation time: 0 hr 6 min 11 sec) 
Heartbeat CPU 0 instructions: 90000001 cycles: 92074574 heartbeat IPC: 0.517644 cumulative IPC: 0.51709 (Simulation time: 0 hr 7 min 24 sec) 
*** Reached end of trace for Core: 0 Repeating trace: traces/spec2k17/srv_33.champsimtrace.xz
Heartbeat CPU 0 instructions: 100000000 cycles: 111402836 heartbeat IPC: 0.517377 cumulative IPC: 0.517147 (Simulation time: 0 hr 8 min 33 sec) 
Heartbeat CPU 0 instructions: 110000000 cycles: 130645200 heartbeat IPC: 0.519687 cumulative IPC: 0.517569 (Simulation time: 0 hr 9 min 50 sec) 
Heartbeat CPU 0 instructions: 120000000 cycles: 150010019 heartbeat IPC: 0.5164 cumulative IPC: 0.517401 (Simulation time: 0 hr 11 min 5 sec) 
*** Reached end of trace for Core: 0 Repeating trace: traces/spec2k17/srv_33.champsimtrace.xz
Heartbeat CPU 0 instructions: 130000002 cycles: 169307671 heartbeat IPC: 0.518198 cumulative IPC: 0.517501 (Simulation time: 0 hr 12 min 6 sec) 
Heartbeat CPU 0 instructions: 140000000 cycles: 188505519 heartbeat IPC: 0.520892 cumulative IPC: 0.517875 (Simulation time: 0 hr 13 min 12 sec) 
Heartbeat CPU 0 instructions: 150000001 cycles: 207774409 heartbeat IPC: 0.518971 cumulative IPC: 0.517985 (Simulation time: 0 hr 14 min 15 sec) 
Heartbeat CPU 0 instructions: 160000001 cycles: 227069480 heartbeat IPC: 0.518267 cumulative IPC: 0.51801 (Simulation time: 0 hr 15 min 21 sec) 
*** Reached end of trace for Core: 0 Repeating trace: traces/spec2k17/srv_33.champsimtrace.xz
Heartbeat CPU 0 instructions: 170000001 cycles: 246296817 heartbeat IPC: 0.520093 cumulative IPC: 0.518183 (Simulation time: 0 hr 16 min 36 sec) 
Heartbeat CPU 0 instructions: 180000003 cycles: 265586087 heartbeat IPC: 0.518423 cumulative IPC: 0.518202 (Simulation time: 0 hr 17 min 48 sec) 
Heartbeat CPU 0 instructions: 190000002 cycles: 284836782 heartbeat IPC: 0.519462 cumulative IPC: 0.518292 (Simulation time: 0 hr 19 min 0 sec) 
*** Reached end of trace for Core: 0 Repeating trace: traces/spec2k17/srv_33.champsimtrace.xz
Heartbeat CPU 0 instructions: 200000000 cycles: 304075752 heartbeat IPC: 0.519778 cumulative IPC: 0.51839 (Simulation time: 0 hr 20 min 10 sec) 
Heartbeat CPU 0 instructions: 210000001 cycles: 323371036 heartbeat IPC: 0.518261 cumulative IPC: 0.518382 (Simulation time: 0 hr 21 min 16 sec) 
Heartbeat CPU 0 instructions: 220000000 cycles: 342554686 heartbeat IPC: 0.521277 cumulative IPC: 0.518552 (Simulation time: 0 hr 22 min 22 sec) 
*** Reached end of trace for Core: 0 Repeating trace: traces/spec2k17/srv_33.champsimtrace.xz
Heartbeat CPU 0 instructions: 230000000 cycles: 361825212 heartbeat IPC: 0.518927 cumulative IPC: 0.518573 (Simulation time: 0 hr 23 min 23 sec) 
Heartbeat CPU 0 instructions: 240000001 cycles: 381126011 heartbeat IPC: 0.518113 cumulative IPC: 0.518548 (Simulation time: 0 hr 24 min 38 sec) 
Heartbeat CPU 0 instructions: 250000002 cycles: 400351890 heartbeat IPC: 0.520132 cumulative IPC: 0.518627 (Simulation time: 0 hr 25 min 48 sec) 
Finished CPU 0 instructions: 200000000 cycles: 385633337 cumulative IPC: 0.518627 (Simulation time: 0 hr 25 min 48 sec) 

ChampSim completed all CPUs

Region of Interest Statistics

CPU 0 cumulative IPC: 0.518627 instructions: 200000000 cycles: 385633337
ITLB TOTAL     ACCESS:   33779069  HIT:   32236171  MISS:    1542898  HIT %:    95.4324  MISS %:    4.56762   MPKI: 7.71449
ITLB LOAD TRANSLATION ACCESS:   33779069  HIT:   32236171  MISS:    1542898  HIT %:    95.4324  MISS %:    4.56762   MPKI: 7.71449
ITLB PREFETCH  REQUESTED:          0  ISSUED:          0  USEFUL:          0  USELESS:          0
ITLB USEFUL LOAD PREFETCHES:          0 PREFETCH ISSUED TO LOWER LEVEL:          0  ACCURACY: -nan
ITLB TIMELY PREFETCHES:          0 LATE PREFETCHES: 0 DROPPED PREFETCHES: 0
ITLB PREFETCHES SAME FILL-ORIGIN LEVEL: 0 DIFFERENT FILL-ORIGIN LEVEL: 0
ITLB AVERAGE MISS LATENCY: 9.20739 cycles
ITLB RQ	ACCESS:   40678954	FORWARD:          0	MERGED:    6403609	TO_CACHE:   34275345

DTLB TOTAL     ACCESS:   40040390  HIT:   38524196  MISS:    1516194  HIT %:    96.2133  MISS %:    3.78666   MPKI: 7.58097
DTLB LOAD TRANSLATION ACCESS:   40040390  HIT:   38524196  MISS:    1516194  HIT %:    96.2133  MISS %:    3.78666   MPKI: 7.58097
DTLB PREFETCH  REQUESTED:          0  ISSUED:          0  USEFUL:          0  USELESS:          0
DTLB USEFUL LOAD PREFETCHES:          0 PREFETCH ISSUED TO LOWER LEVEL:          0  ACCURACY: -nan
DTLB TIMELY PREFETCHES:          0 LATE PREFETCHES: 0 DROPPED PREFETCHES: 0
DTLB PREFETCHES SAME FILL-ORIGIN LEVEL: 0 DIFFERENT FILL-ORIGIN LEVEL: 0
DTLB AVERAGE MISS LATENCY: 13.934 cycles
DTLB RQ	ACCESS:   61202729	FORWARD:          0	MERGED:   20788887	TO_CACHE:   40413842

STLB TOTAL     ACCESS:    9818091  HIT:    9744041  MISS:      74050  HIT %:    99.2458  MISS %:    0.75422   MPKI: 0.37025
STLB LOAD TRANSLATION ACCESS:    3059092  HIT:    2987208  MISS:      71884  HIT %:    97.6502  MISS %:    2.34985   MPKI: 0.35942
STLB TRANSLATION FROM L1D PREFETCHER ACCESS:    6758999  HIT:    6756833  MISS:       2166  HIT %:     99.968  MISS %:  0.0320462   MPKI: 0.01083
STLB PREFETCH  REQUESTED:          0  ISSUED:          0  USEFUL:       2025  USELESS:        136
STLB USEFUL LOAD PREFETCHES:       2025 PREFETCH ISSUED TO LOWER LEVEL:          0  ACCURACY: inf
STLB TIMELY PREFETCHES:       2025 LATE PREFETCHES: 882 DROPPED PREFETCHES: 36971
STLB PREFETCHES SAME FILL-ORIGIN LEVEL: 0 DIFFERENT FILL-ORIGIN LEVEL: 0
STLB AVERAGE MISS LATENCY: 81417.9 cycles
STLB RQ	ACCESS:   12721479	FORWARD:          0	MERGED:    2865108	TO_CACHE:    9856371

STLB Hit, L1D data hit: 0
STLB Hit, L2C data hit: 0
STLB Hit, LLC data hit: 0
STLB Hit, LLC data miss: 0
STLB STLB hints to L2: 0
L1D TOTAL     ACCESS:   57415446  HIT:   50455028  MISS:    6960418  HIT %:    87.8771  MISS %:    12.1229   MPKI: 34.8021
L1D LOAD      ACCESS:   26760327  HIT:   23915593  MISS:    2844734  HIT %:    89.3696  MISS %:    10.6304   MPKI: 14.2237
L1D RFO       ACCESS:   22409899  HIT:   18712449  MISS:    3697450  HIT %:    83.5008  MISS %:    16.4992   MPKI: 18.4872
L1D PREFETCH  ACCESS:    8245220  HIT:    7826986  MISS:     418234  HIT %:    94.9276  MISS %:    5.07244   MPKI: 2.09117
AGUS PREFETCH L1 MISS: 0
L1D PREFETCH  REQUESTED:   20879805  ISSUED:   20877830  USEFUL:     244275  USELESS:     173957
L1D USEFUL LOAD PREFETCHES:     244275 PREFETCH ISSUED TO LOWER LEVEL:     858830  ACCURACY: 28.4428
L1D TIMELY PREFETCHES:     244275 LATE PREFETCHES: 438365 DROPPED PREFETCHES: 37946
L1D PREFETCHES SAME FILL-ORIGIN LEVEL: 858830 DIFFERENT FILL-ORIGIN LEVEL: 0
L1D AVERAGE MISS LATENCY: 1.34469e+07 cycles
L1D RQ	ACCESS:   45294988	FORWARD:          0	MERGED:   17859656	TO_CACHE:   27155042
L1D WQ	ACCESS:   34247148	FORWARD:     317503	MERGED:     199461	TO_CACHE:   34047687
L1D PQ	ACCESS:   11215443	FORWARD:          0	MERGED:    1515843	TO_CACHE:    9662387

L1D UNIQUE REGIONS ACCESSED: 0
L1D REGIONS CONFLICTS: 0
L1D Cross Page Prefetch Requests: 4559352
L1D Same Page Prefetch Requests: 8395213
L1D ROI Sum of L1D PQ occupancy: 142419508
L1D PREFETCHES PUSHED FROM L2C: 0
L1I TOTAL     ACCESS:   38019893  HIT:   28901758  MISS:    9118135  HIT %:    76.0175  MISS %:    23.9825   MPKI: 45.5907
L1I LOAD      ACCESS:   38019893  HIT:   28901758  MISS:    9118135  HIT %:    76.0175  MISS %:    23.9825   MPKI: 45.5907
L1I PREFETCH  REQUESTED:          0  ISSUED:          0  USEFUL:          0  USELESS:          0
L1I USEFUL LOAD PREFETCHES:          0 PREFETCH ISSUED TO LOWER LEVEL:          0  ACCURACY: -nan
L1I TIMELY PREFETCHES:          0 LATE PREFETCHES: 0 DROPPED PREFETCHES: 0
L1I PREFETCHES SAME FILL-ORIGIN LEVEL: 0 DIFFERENT FILL-ORIGIN LEVEL: 0
L1I AVERAGE MISS LATENCY: 16.5019 cycles
L1I RQ	ACCESS:   58984390	FORWARD:          0	MERGED:   18305436	TO_CACHE:   40678954

BTB TOTAL     ACCESS:   25663217  HIT:   24125509  MISS:    1537708  HIT %:    94.0081  MISS %:    5.99188   MPKI: 7.68854
BTB BRANCH_DIRECT_JUMP	ACCESS:    1661208  HIT:    1651586  MISS:       9622
BTB BRANCH_INDIRECT	ACCESS:    9967593  HIT:    9459764  MISS:     507829
BTB BRANCH_CONDITIONAL	ACCESS:    7198622  HIT:    7185146  MISS:      13476
BTB BRANCH_DIRECT_CALL	ACCESS:    2825210  HIT:    2791882  MISS:      33328
BTB BRANCH_INDIRECT_CALL	ACCESS:     592633  HIT:     481147  MISS:     111486
BTB BRANCH_RETURN	ACCESS:    3417951  HIT:    2555984  MISS:     861967
BTB BRANCH_OTHER ACCESS:          0  HIT:          0  MISS:          0

L2C TOTAL     ACCESS:   20574980  HIT:   13863468  MISS:    6711512  HIT %:    67.3802  MISS %:    32.6198   MPKI: 33.5576
L2C LOAD      ACCESS:   11524459  HIT:    9189993  MISS:    2334466  HIT %:    79.7434  MISS %:    20.2566   MPKI: 11.6723
L2C DATA LOAD MPKI: 8.87472
L2C INSTRUCTION LOAD MPKI: 2.79761
L2C RFO       ACCESS:    3695216  HIT:     167754  MISS:    3527462  HIT %:    4.53976  MISS %:    95.4602   MPKI: 17.6373
L2C PREFETCH  ACCESS:     858824  HIT:     195958  MISS:     662866  HIT %:     22.817  MISS %:     77.183   MPKI: 3.31433
AGUS PREFETCH L1 MISS: 0
L2C DATA PREFETCH MPKI: 3.31433
L2C INSTRUCTION PREFETCH MPKI: 0
L2C WRITEBACK ACCESS:    4358989  HIT:    4225101  MISS:     133888  HIT %:    96.9285  MISS %:    3.07154   MPKI: 0.66944
L2C LOAD TRANSLATION ACCESS:      78983  HIT:      44027  MISS:      34956  HIT %:    55.7424  MISS %:    44.2576   MPKI: 0.17478
L2C TRANSLATION FROM L1D PREFETCHER ACCESS:      58509  HIT:      40635  MISS:      17874  HIT %:    69.4509  MISS %:    30.5491   MPKI: 0.08937
L2C PREFETCH  REQUESTED:          0  ISSUED:          0  USEFUL:      26885  USELESS:     654214
L2C USEFUL LOAD PREFETCHES:      26885 PREFETCH ISSUED TO LOWER LEVEL:     662866  ACCURACY: 4.05587
L2C TIMELY PREFETCHES:      26885 LATE PREFETCHES: 0 DROPPED PREFETCHES: 0
L2C PREFETCHES SAME FILL-ORIGIN LEVEL: 0 DIFFERENT FILL-ORIGIN LEVEL: 0
L2C AVERAGE MISS LATENCY: 158.128 cycles
L2C RQ	ACCESS:   15357216	FORWARD:          0	MERGED:          0	TO_CACHE:   15357169
L2C WQ	ACCESS:    4358989	FORWARD:         53	MERGED:          0	TO_CACHE:    4358989
L2C PQ	ACCESS:     858830	FORWARD:          0	MERGED:          0	TO_CACHE:     858824

L2C Instructions Evicting Data 512523
L2C Translations Evicting Data 47702
L2C Data Evicting Data 5420132
L2C Instructions Evicting Instructions 42407
L2C Translations Evicting Instructions 4762
L2C Data Evicting Instructions 498196
L2C Instructions Evicting Translations 4592
L2C Translations Evicting Translations 366
L2C Data Evicting Translations 46944
L2C Dense regions hint from L2: 0
PSCL5 TOTAL     ACCESS:     110425  HIT:     110425  MISS:          0  HIT %:        100  MISS %:          0   MPKI: 0
PSCL5 LOAD TRANSLATION ACCESS:      71002  HIT:      71002  MISS:          0  HIT %:        100  MISS %:          0   MPKI: 0
PSCL5 TRANSLATION FROM L1D PREFETCHER ACCESS:      39423  HIT:      39423  MISS:          0  HIT %:        100  MISS %:          0   MPKI: 0
PSCL5 PREFETCH  REQUESTED:          0  ISSUED:          0  USEFUL:          0  USELESS:          0
PSCL5 USEFUL LOAD PREFETCHES:          0 PREFETCH ISSUED TO LOWER LEVEL:          0  ACCURACY: -nan
PSCL5 TIMELY PREFETCHES:          0 LATE PREFETCHES: 0 DROPPED PREFETCHES: 0
PSCL5 PREFETCHES SAME FILL-ORIGIN LEVEL: 0 DIFFERENT FILL-ORIGIN LEVEL: 0

PSCL4 TOTAL     ACCESS:      91996  HIT:      91902  MISS:         94  HIT %:    99.8978  MISS %:   0.102178   MPKI: 0.00047
PSCL4 LOAD TRANSLATION ACCESS:      62057  HIT:      61963  MISS:         94  HIT %:    99.8485  MISS %:   0.151474   MPKI: 0.00047
PSCL4 TRANSLATION FROM L1D PREFETCHER ACCESS:      29939  HIT:      29939  MISS:          0  HIT %:        100  MISS %:          0   MPKI: 0
PSCL4 PREFETCH  REQUESTED:          0  ISSUED:          0  USEFUL:          0  USELESS:          0
PSCL4 USEFUL LOAD PREFETCHES:          0 PREFETCH ISSUED TO LOWER LEVEL:          0  ACCURACY: -nan
PSCL4 TIMELY PREFETCHES:          0 LATE PREFETCHES: 0 DROPPED PREFETCHES: 0
PSCL4 PREFETCHES SAME FILL-ORIGIN LEVEL: 0 DIFFERENT FILL-ORIGIN LEVEL: 0

PSCL3 TOTAL     ACCESS:     103682  HIT:     103497  MISS:        185  HIT %:    99.8216  MISS %:    0.17843   MPKI: 0.000925
PSCL3 LOAD TRANSLATION ACCESS:      70985  HIT:      70800  MISS:        185  HIT %:    99.7394  MISS %:   0.260618   MPKI: 0.000925
PSCL3 TRANSLATION FROM L1D PREFETCHER ACCESS:      32697  HIT:      32697  MISS:          0  HIT %:        100  MISS %:          0   MPKI: 0
PSCL3 PREFETCH  REQUESTED:          0  ISSUED:          0  USEFUL:          0  USELESS:          0
PSCL3 USEFUL LOAD PREFETCHES:          0 PREFETCH ISSUED TO LOWER LEVEL:          0  ACCURACY: -nan
PSCL3 TIMELY PREFETCHES:          0 LATE PREFETCHES: 0 DROPPED PREFETCHES: 0
PSCL3 PREFETCHES SAME FILL-ORIGIN LEVEL: 0 DIFFERENT FILL-ORIGIN LEVEL: 0

PSCL2 TOTAL     ACCESS:      86437  HIT:      78456  MISS:       7981  HIT %:    90.7667  MISS %:    9.23331   MPKI: 0.039905
PSCL2 LOAD TRANSLATION ACCESS:      71279  HIT:      63298  MISS:       7981  HIT %:    88.8032  MISS %:    11.1968   MPKI: 0.039905
PSCL2 TRANSLATION FROM L1D PREFETCHER ACCESS:      15158  HIT:      15158  MISS:          0  HIT %:        100  MISS %:          0   MPKI: 0
PSCL2 PREFETCH  REQUESTED:          0  ISSUED:          0  USEFUL:          0  USELESS:          0
PSCL2 USEFUL LOAD PREFETCHES:          0 PREFETCH ISSUED TO LOWER LEVEL:          0  ACCURACY: -nan
PSCL2 TIMELY PREFETCHES:          0 LATE PREFETCHES: 0 DROPPED PREFETCHES: 0
PSCL2 PREFETCHES SAME FILL-ORIGIN LEVEL: 0 DIFFERENT FILL-ORIGIN LEVEL: 0

LLC TOTAL     ACCESS:   10612830  HIT:    4241753  MISS:    6371077  HIT %:    39.9682  MISS %:    60.0318   MPKI: 31.8554
LLC LOAD      ACCESS:    2334462  HIT:    1570777  MISS:     763685  HIT %:    67.2865  MISS %:    32.7135   MPKI: 3.81842
LLC RFO       ACCESS:    3527443  HIT:     963081  MISS:    2564362  HIT %:    27.3025  MISS %:    72.6975   MPKI: 12.8218
LLC PREFETCH  ACCESS:     662866  HIT:     147694  MISS:     515172  HIT %:    22.2811  MISS %:    77.7189   MPKI: 2.57586
AGUS PREFETCH L1 MISS: 0
LLC WRITEBACK ACCESS:    4035229  HIT:    1542166  MISS:    2493063  HIT %:    38.2176  MISS %:    61.7824   MPKI: 12.4653
LLC LOAD TRANSLATION ACCESS:      34956  HIT:       9192  MISS:      25764  HIT %:    26.2959  MISS %:    73.7041   MPKI: 0.12882
LLC TRANSLATION FROM L1D PREFETCHER ACCESS:      17874  HIT:       8843  MISS:       9031  HIT %:    49.4741  MISS %:    50.5259   MPKI: 0.045155
LLC PREFETCH  REQUESTED:          0  ISSUED:          0  USEFUL:       2400  USELESS:     527129
LLC USEFUL LOAD PREFETCHES:       2400 PREFETCH ISSUED TO LOWER LEVEL:     515172  ACCURACY: 0.465864
LLC TIMELY PREFETCHES:       2400 LATE PREFETCHES: 0 DROPPED PREFETCHES: 0
LLC PREFETCHES SAME FILL-ORIGIN LEVEL: 0 DIFFERENT FILL-ORIGIN LEVEL: 0
LLC AVERAGE MISS LATENCY: 135.603 cycles
LLC RQ	ACCESS:    5914760	FORWARD:          0	MERGED:          0	TO_CACHE:    5914737
LLC WQ	ACCESS:    4035229	FORWARD:         23	MERGED:          0	TO_CACHE:    4035229
LLC PQ	ACCESS:     662866	FORWARD:          0	MERGED:          0	TO_CACHE:     662866

LLC Dense regions hint to LLC: 0

RAW hits: 2432955
Loads Generated: 47727944
Loads sent to L1D: 45294988
Stores Generated: 34247178
Stores sent to L1D: 34247148
Major fault: 0 Minor fault: 8597
Allocated PAGES: 8597
Completed 

DRAM Statistics
 CHANNEL 0
 RQ ROW_BUFFER_HIT:    1829346  ROW_BUFFER_MISS:    2048161
 DBUS_CONGESTED:       2268
 WQ ROW_BUFFER_HIT:     528134  ROW_BUFFER_MISS:    2097181  FULL:      54096

 AVG_CONGESTED_CYCLE: 3
 All warmup complete: 2
Channel 0 Bank busy for read cycles: 0
Channel 0 Bank busy for write cycles: 0
Channel 0
Rank 0
0banks busy for read cycles: 169741974
0banks busy for write cycles: 276929
1banks busy for read cycles: 31742286
1banks busy for write cycles: 38748283
2banks busy for read cycles: 13601838
2banks busy for write cycles: 13518215
3banks busy for read cycles: 15591650
3banks busy for write cycles: 6179783
4banks busy for read cycles: 6090818
4banks busy for write cycles: 4006721
5banks busy for read cycles: 5079161
5banks busy for write cycles: 3263612
6banks busy for read cycles: 5890563
6banks busy for write cycles: 3246846
7banks busy for read cycles: 8712164
7banks busy for write cycles: 5695090
8banks busy for read cycles: 19224517
8banks busy for write cycles: 35022888

CPU 0 Branch Prediction Accuracy: 99.9491% MPKI: 0.0777 Average ROB Occupancy at Mispredict: 123.327
Branch types
NOT_BRANCH: 169471465 84.7357%
BRANCH_DIRECT_JUMP: 1661208 0.830604%
BRANCH_INDIRECT: 9967593 4.9838%
BRANCH_CONDITIONAL: 12063902 6.03195%
BRANCH_DIRECT_CALL: 2825210 1.41261%
BRANCH_INDIRECT_CALL: 592633 0.296316%
BRANCH_RETURN: 3417951 1.70898%
BRANCH_OTHER: 0 0%

DRAM PAGES: 1048576
Allocated PAGES: 8597
