
*** ChampSim Multicore Out-of-Order Simulator ***

Warmup Instructions: 50000000
Simulation Instructions: 200000000
Number of CPUs: 1
LLC sets: 2048
LLC ways: 16
Off-chip DRAM Size: 4096 MB Channels: 1 Width: 64-bit Data Rate: 6400 MT/s
CPU 0 runs traces/spec2k17/srv_36.champsimtrace.xz
.xz
BTB has LRU replacement policy
ITLB has LRU replacement policy
DTLB has LRU replacement policy
STLB has LRU replacement policy
L1I has LRU replacement policy
L1D has LRU replacement policy
Initialize SRRIP state for L2C
Initialize DRRIP state for LLC
Heartbeat CPU 0 instructions: 10000001 cycles: 2945655 heartbeat IPC: 3.39483 cumulative IPC: 3.39483 (Simulation time: 0 hr 0 min 35 sec) 
Heartbeat CPU 0 instructions: 20000003 cycles: 5887713 heartbeat IPC: 3.39898 cumulative IPC: 3.39691 (Simulation time: 0 hr 1 min 5 sec) 
Heartbeat CPU 0 instructions: 30000000 cycles: 8831590 heartbeat IPC: 3.39688 cumulative IPC: 3.3969 (Simulation time: 0 hr 1 min 35 sec) 
*** Reached end of trace for Core: 0 Repeating trace: traces/spec2k17/srv_36.champsimtrace.xz
Heartbeat CPU 0 instructions: 40000001 cycles: 11778661 heartbeat IPC: 3.3932 cumulative IPC: 3.39597 (Simulation time: 0 hr 2 min 7 sec) 
Heartbeat CPU 0 instructions: 50000002 cycles: 14727327 heartbeat IPC: 3.39136 cumulative IPC: 3.39505 (Simulation time: 0 hr 2 min 37 sec) 

Warmup complete CPU 0 instructions: 50000002 cycles: 14727327 (Simulation time: 0 hr 2 min 37 sec) 

Heartbeat CPU 0 instructions: 60000003 cycles: 34310556 heartbeat IPC: 0.510641 cumulative IPC: 0.510641 (Simulation time: 0 hr 3 min 31 sec) 
*** Reached end of trace for Core: 0 Repeating trace: traces/spec2k17/srv_36.champsimtrace.xz
Heartbeat CPU 0 instructions: 70000001 cycles: 53794691 heartbeat IPC: 0.513238 cumulative IPC: 0.511936 (Simulation time: 0 hr 4 min 28 sec) 
Heartbeat CPU 0 instructions: 80000000 cycles: 73224881 heartbeat IPC: 0.514663 cumulative IPC: 0.512842 (Simulation time: 0 hr 5 min 22 sec) 
Heartbeat CPU 0 instructions: 90000000 cycles: 92640528 heartbeat IPC: 0.515049 cumulative IPC: 0.513392 (Simulation time: 0 hr 6 min 15 sec) 
*** Reached end of trace for Core: 0 Repeating trace: traces/spec2k17/srv_36.champsimtrace.xz
Heartbeat CPU 0 instructions: 100000000 cycles: 112050124 heartbeat IPC: 0.515209 cumulative IPC: 0.513754 (Simulation time: 0 hr 7 min 28 sec) 
Heartbeat CPU 0 instructions: 110000000 cycles: 131422118 heartbeat IPC: 0.516209 cumulative IPC: 0.514162 (Simulation time: 0 hr 8 min 38 sec) 
Heartbeat CPU 0 instructions: 120000000 cycles: 150796736 heartbeat IPC: 0.516139 cumulative IPC: 0.514443 (Simulation time: 0 hr 9 min 24 sec) 
*** Reached end of trace for Core: 0 Repeating trace: traces/spec2k17/srv_36.champsimtrace.xz
Heartbeat CPU 0 instructions: 130000000 cycles: 170211080 heartbeat IPC: 0.515083 cumulative IPC: 0.514523 (Simulation time: 0 hr 10 min 12 sec) 
Heartbeat CPU 0 instructions: 140000000 cycles: 189573469 heartbeat IPC: 0.516465 cumulative IPC: 0.514738 (Simulation time: 0 hr 10 min 58 sec) 
Heartbeat CPU 0 instructions: 150000003 cycles: 208965693 heartbeat IPC: 0.515671 cumulative IPC: 0.514831 (Simulation time: 0 hr 11 min 43 sec) 
Heartbeat CPU 0 instructions: 160000001 cycles: 228283518 heartbeat IPC: 0.517657 cumulative IPC: 0.515087 (Simulation time: 0 hr 12 min 27 sec) 
*** Reached end of trace for Core: 0 Repeating trace: traces/spec2k17/srv_36.champsimtrace.xz
Heartbeat CPU 0 instructions: 170000001 cycles: 247675176 heartbeat IPC: 0.515686 cumulative IPC: 0.515137 (Simulation time: 0 hr 13 min 14 sec) 
Heartbeat CPU 0 instructions: 180000000 cycles: 266989971 heartbeat IPC: 0.517738 cumulative IPC: 0.515336 (Simulation time: 0 hr 14 min 8 sec) 
Heartbeat CPU 0 instructions: 190000000 cycles: 286355918 heartbeat IPC: 0.51637 cumulative IPC: 0.51541 (Simulation time: 0 hr 14 min 59 sec) 
*** Reached end of trace for Core: 0 Repeating trace: traces/spec2k17/srv_36.champsimtrace.xz
Heartbeat CPU 0 instructions: 200000002 cycles: 305752075 heartbeat IPC: 0.515566 cumulative IPC: 0.51542 (Simulation time: 0 hr 15 min 59 sec) 
Heartbeat CPU 0 instructions: 210000001 cycles: 325107167 heartbeat IPC: 0.51666 cumulative IPC: 0.515497 (Simulation time: 0 hr 16 min 48 sec) 
Heartbeat CPU 0 instructions: 220000000 cycles: 344437768 heartbeat IPC: 0.517314 cumulative IPC: 0.515604 (Simulation time: 0 hr 17 min 36 sec) 
*** Reached end of trace for Core: 0 Repeating trace: traces/spec2k17/srv_36.champsimtrace.xz
Heartbeat CPU 0 instructions: 230000001 cycles: 363800719 heartbeat IPC: 0.51645 cumulative IPC: 0.515651 (Simulation time: 0 hr 18 min 22 sec) 
Heartbeat CPU 0 instructions: 240000002 cycles: 383152809 heartbeat IPC: 0.51674 cumulative IPC: 0.515708 (Simulation time: 0 hr 19 min 35 sec) 
Heartbeat CPU 0 instructions: 250000001 cycles: 402395919 heartbeat IPC: 0.519666 cumulative IPC: 0.515905 (Simulation time: 0 hr 20 min 47 sec) 
Finished CPU 0 instructions: 200000000 cycles: 387668593 cumulative IPC: 0.515905 (Simulation time: 0 hr 20 min 47 sec) 

ChampSim completed all CPUs

Region of Interest Statistics

CPU 0 cumulative IPC: 0.515905 instructions: 200000000 cycles: 387668593
ITLB TOTAL     ACCESS:   33768944  HIT:   32233941  MISS:    1535003  HIT %:    95.4544  MISS %:    4.54561   MPKI: 7.67502
ITLB LOAD TRANSLATION ACCESS:   33768944  HIT:   32233941  MISS:    1535003  HIT %:    95.4544  MISS %:    4.54561   MPKI: 7.67502
ITLB PREFETCH  REQUESTED:          0  ISSUED:          0  USEFUL:          0  USELESS:          0
ITLB USEFUL LOAD PREFETCHES:          0 PREFETCH ISSUED TO LOWER LEVEL:          0  ACCURACY: -nan
ITLB TIMELY PREFETCHES:          0 LATE PREFETCHES: 0 DROPPED PREFETCHES: 0
ITLB PREFETCHES SAME FILL-ORIGIN LEVEL: 0 DIFFERENT FILL-ORIGIN LEVEL: 0
ITLB AVERAGE MISS LATENCY: 9.2078 cycles
ITLB RQ	ACCESS:   40653277	FORWARD:          0	MERGED:    6390042	TO_CACHE:   34263235

DTLB TOTAL     ACCESS:   39958120  HIT:   38444512  MISS:    1513608  HIT %:     96.212  MISS %:    3.78799   MPKI: 7.56804
DTLB LOAD TRANSLATION ACCESS:   39958120  HIT:   38444512  MISS:    1513608  HIT %:     96.212  MISS %:    3.78799   MPKI: 7.56804
DTLB PREFETCH  REQUESTED:          0  ISSUED:          0  USEFUL:          0  USELESS:          0
DTLB USEFUL LOAD PREFETCHES:          0 PREFETCH ISSUED TO LOWER LEVEL:          0  ACCURACY: -nan
DTLB TIMELY PREFETCHES:          0 LATE PREFETCHES: 0 DROPPED PREFETCHES: 0
DTLB PREFETCHES SAME FILL-ORIGIN LEVEL: 0 DIFFERENT FILL-ORIGIN LEVEL: 0
DTLB AVERAGE MISS LATENCY: 14.838 cycles
DTLB RQ	ACCESS:   61073527	FORWARD:          0	MERGED:   20739011	TO_CACHE:   40334516

STLB TOTAL     ACCESS:    9785634  HIT:    9705505  MISS:      80129  HIT %:    99.1812  MISS %:   0.818843   MPKI: 0.400645
STLB LOAD TRANSLATION ACCESS:    3048611  HIT:    2971324  MISS:      77287  HIT %:    97.4648  MISS %:    2.53515   MPKI: 0.386435
STLB TRANSLATION FROM L1D PREFETCHER ACCESS:    6737023  HIT:    6734181  MISS:       2842  HIT %:    99.9578  MISS %:  0.0421848   MPKI: 0.01421
STLB PREFETCH  REQUESTED:          0  ISSUED:          0  USEFUL:       2762  USELESS:         78
STLB USEFUL LOAD PREFETCHES:       2762 PREFETCH ISSUED TO LOWER LEVEL:          0  ACCURACY: inf
STLB TIMELY PREFETCHES:       2762 LATE PREFETCHES: 1092 DROPPED PREFETCHES: 35471
STLB PREFETCHES SAME FILL-ORIGIN LEVEL: 0 DIFFERENT FILL-ORIGIN LEVEL: 0
STLB AVERAGE MISS LATENCY: 187634 cycles
STLB RQ	ACCESS:   12681908	FORWARD:          0	MERGED:    2859217	TO_CACHE:    9822691

STLB Hit, L1D data hit: 0
STLB Hit, L2C data hit: 0
STLB Hit, LLC data hit: 0
STLB Hit, LLC data miss: 0
STLB STLB hints to L2: 0
L1D TOTAL     ACCESS:   57245251  HIT:   50270036  MISS:    6975215  HIT %:    87.8152  MISS %:    12.1848   MPKI: 34.8761
L1D LOAD      ACCESS:   26685566  HIT:   23821187  MISS:    2864379  HIT %:    89.2662  MISS %:    10.7338   MPKI: 14.3219
L1D RFO       ACCESS:   22353069  HIT:   18648729  MISS:    3704340  HIT %:     83.428  MISS %:     16.572   MPKI: 18.5217
L1D PREFETCH  ACCESS:    8206616  HIT:    7800120  MISS:     406496  HIT %:    95.0467  MISS %:    4.95327   MPKI: 2.03248
AGUS PREFETCH L1 MISS: 0
L1D PREFETCH  REQUESTED:   20814965  ISSUED:   20812986  USEFUL:     241878  USELESS:     164652
L1D USEFUL LOAD PREFETCHES:     241878 PREFETCH ISSUED TO LOWER LEVEL:     856586  ACCURACY: 28.2374
L1D TIMELY PREFETCHES:     241878 LATE PREFETCHES: 447943 DROPPED PREFETCHES: 36573
L1D PREFETCHES SAME FILL-ORIGIN LEVEL: 856586 DIFFERENT FILL-ORIGIN LEVEL: 0
L1D AVERAGE MISS LATENCY: 1.37935e+07 cycles
L1D RQ	ACCESS:   45182472	FORWARD:          0	MERGED:   17825496	TO_CACHE:   27079140
L1D WQ	ACCESS:   34191048	FORWARD:     312662	MERGED:     196661	TO_CACHE:   33994387
L1D PQ	ACCESS:   11179689	FORWARD:          0	MERGED:    1511566	TO_CACHE:    9633297

L1D UNIQUE REGIONS ACCESSED: 0
L1D REGIONS CONFLICTS: 0
L1D Cross Page Prefetch Requests: 4545482
L1D Same Page Prefetch Requests: 8373505
L1D ROI Sum of L1D PQ occupancy: 141434160
L1D PREFETCHES PUSHED FROM L2C: 0
L1I TOTAL     ACCESS:   38004906  HIT:   28945911  MISS:    9058995  HIT %:    76.1636  MISS %:    23.8364   MPKI: 45.295
L1I LOAD      ACCESS:   38004906  HIT:   28945911  MISS:    9058995  HIT %:    76.1636  MISS %:    23.8364   MPKI: 45.295
L1I PREFETCH  REQUESTED:          0  ISSUED:          0  USEFUL:          0  USELESS:          0
L1I USEFUL LOAD PREFETCHES:          0 PREFETCH ISSUED TO LOWER LEVEL:          0  ACCURACY: -nan
L1I TIMELY PREFETCHES:          0 LATE PREFETCHES: 0 DROPPED PREFETCHES: 0
L1I PREFETCHES SAME FILL-ORIGIN LEVEL: 0 DIFFERENT FILL-ORIGIN LEVEL: 0
L1I AVERAGE MISS LATENCY: 16.6695 cycles
L1I RQ	ACCESS:   58962602	FORWARD:          0	MERGED:   18309325	TO_CACHE:   40653277

BTB TOTAL     ACCESS:   25729049  HIT:   24193614  MISS:    1535435  HIT %:    94.0323  MISS %:    5.96771   MPKI: 7.67718
BTB BRANCH_DIRECT_JUMP	ACCESS:    1654273  HIT:    1644479  MISS:       9794
BTB BRANCH_INDIRECT	ACCESS:    9941101  HIT:    9432728  MISS:     508373
BTB BRANCH_CONDITIONAL	ACCESS:    7321751  HIT:    7308109  MISS:      13642
BTB BRANCH_DIRECT_CALL	ACCESS:    2814711  HIT:    2781382  MISS:      33329
BTB BRANCH_INDIRECT_CALL	ACCESS:     591266  HIT:     480297  MISS:     110969
BTB BRANCH_RETURN	ACCESS:    3405947  HIT:    2546619  MISS:     859328
BTB BRANCH_OTHER ACCESS:          0  HIT:          0  MISS:          0

L2C TOTAL     ACCESS:   20551111  HIT:   13840874  MISS:    6710237  HIT %:    67.3485  MISS %:    32.6515   MPKI: 33.5512
L2C LOAD      ACCESS:   11475355  HIT:    9140593  MISS:    2334762  HIT %:    79.6541  MISS %:    20.3459   MPKI: 11.6738
L2C DATA LOAD MPKI: 8.81948
L2C INSTRUCTION LOAD MPKI: 2.85433
L2C RFO       ACCESS:    3702178  HIT:     168148  MISS:    3534030  HIT %:    4.54187  MISS %:    95.4581   MPKI: 17.6701
L2C PREFETCH  ACCESS:     856575  HIT:     203398  MISS:     653177  HIT %:    23.7455  MISS %:    76.2545   MPKI: 3.26588
AGUS PREFETCH L1 MISS: 0
L2C DATA PREFETCH MPKI: 3.26588
L2C INSTRUCTION PREFETCH MPKI: 0
L2C WRITEBACK ACCESS:    4364302  HIT:    4233967  MISS:     130335  HIT %:    97.0136  MISS %:    2.98639   MPKI: 0.651675
L2C LOAD TRANSLATION ACCESS:      87690  HIT:      47355  MISS:      40335  HIT %:    54.0027  MISS %:    45.9973   MPKI: 0.201675
L2C TRANSLATION FROM L1D PREFETCHER ACCESS:      65011  HIT:      47413  MISS:      17598  HIT %:    72.9307  MISS %:    27.0693   MPKI: 0.08799
L2C PREFETCH  REQUESTED:          0  ISSUED:          0  USEFUL:      26379  USELESS:     644391
L2C USEFUL LOAD PREFETCHES:      26379 PREFETCH ISSUED TO LOWER LEVEL:     653177  ACCURACY: 4.03857
L2C TIMELY PREFETCHES:      26379 LATE PREFETCHES: 0 DROPPED PREFETCHES: 0
L2C PREFETCHES SAME FILL-ORIGIN LEVEL: 0 DIFFERENT FILL-ORIGIN LEVEL: 0
L2C AVERAGE MISS LATENCY: 157.21 cycles
L2C RQ	ACCESS:   15330325	FORWARD:          0	MERGED:          0	TO_CACHE:   15330234
L2C WQ	ACCESS:    4364302	FORWARD:        102	MERGED:          0	TO_CACHE:    4364302
L2C PQ	ACCESS:     856586	FORWARD:          0	MERGED:          0	TO_CACHE:     856575

L2C Instructions Evicting Data 518159
L2C Translations Evicting Data 53095
L2C Data Evicting Data 5391356
L2C Instructions Evicting Instructions 48285
L2C Translations Evicting Instructions 4374
L2C Data Evicting Instructions 507749
L2C Instructions Evicting Translations 4423
L2C Translations Evicting Translations 464
L2C Data Evicting Translations 51997
L2C Dense regions hint from L2: 0
PSCL5 TOTAL     ACCESS:     114990  HIT:     114990  MISS:          0  HIT %:        100  MISS %:          0   MPKI: 0
PSCL5 LOAD TRANSLATION ACCESS:      76195  HIT:      76195  MISS:          0  HIT %:        100  MISS %:          0   MPKI: 0
PSCL5 TRANSLATION FROM L1D PREFETCHER ACCESS:      38795  HIT:      38795  MISS:          0  HIT %:        100  MISS %:          0   MPKI: 0
PSCL5 PREFETCH  REQUESTED:          0  ISSUED:          0  USEFUL:          0  USELESS:          0
PSCL5 USEFUL LOAD PREFETCHES:          0 PREFETCH ISSUED TO LOWER LEVEL:          0  ACCURACY: -nan
PSCL5 TIMELY PREFETCHES:          0 LATE PREFETCHES: 0 DROPPED PREFETCHES: 0
PSCL5 PREFETCHES SAME FILL-ORIGIN LEVEL: 0 DIFFERENT FILL-ORIGIN LEVEL: 0

PSCL4 TOTAL     ACCESS:      99790  HIT:      99542  MISS:        248  HIT %:    99.7515  MISS %:   0.248522   MPKI: 0.00124
PSCL4 LOAD TRANSLATION ACCESS:      69102  HIT:      68854  MISS:        248  HIT %:    99.6411  MISS %:    0.35889   MPKI: 0.00124
PSCL4 TRANSLATION FROM L1D PREFETCHER ACCESS:      30688  HIT:      30688  MISS:          0  HIT %:        100  MISS %:          0   MPKI: 0
PSCL4 PREFETCH  REQUESTED:          0  ISSUED:          0  USEFUL:          0  USELESS:          0
PSCL4 USEFUL LOAD PREFETCHES:          0 PREFETCH ISSUED TO LOWER LEVEL:          0  ACCURACY: -nan
PSCL4 TIMELY PREFETCHES:          0 LATE PREFETCHES: 0 DROPPED PREFETCHES: 0
PSCL4 PREFETCHES SAME FILL-ORIGIN LEVEL: 0 DIFFERENT FILL-ORIGIN LEVEL: 0

PSCL3 TOTAL     ACCESS:     100393  HIT:      99323  MISS:       1070  HIT %:    98.9342  MISS %:    1.06581   MPKI: 0.00535
PSCL3 LOAD TRANSLATION ACCESS:      71326  HIT:      70256  MISS:       1070  HIT %:    98.4998  MISS %:    1.50015   MPKI: 0.00535
PSCL3 TRANSLATION FROM L1D PREFETCHER ACCESS:      29067  HIT:      29067  MISS:          0  HIT %:        100  MISS %:          0   MPKI: 0
PSCL3 PREFETCH  REQUESTED:          0  ISSUED:          0  USEFUL:          0  USELESS:          0
PSCL3 USEFUL LOAD PREFETCHES:          0 PREFETCH ISSUED TO LOWER LEVEL:          0  ACCURACY: -nan
PSCL3 TIMELY PREFETCHES:          0 LATE PREFETCHES: 0 DROPPED PREFETCHES: 0
PSCL3 PREFETCHES SAME FILL-ORIGIN LEVEL: 0 DIFFERENT FILL-ORIGIN LEVEL: 0

PSCL2 TOTAL     ACCESS:      91076  HIT:      80549  MISS:      10527  HIT %:    88.4415  MISS %:    11.5585   MPKI: 0.052635
PSCL2 LOAD TRANSLATION ACCESS:      76507  HIT:      65980  MISS:      10527  HIT %:    86.2405  MISS %:    13.7595   MPKI: 0.052635
PSCL2 TRANSLATION FROM L1D PREFETCHER ACCESS:      14569  HIT:      14569  MISS:          0  HIT %:        100  MISS %:          0   MPKI: 0
PSCL2 PREFETCH  REQUESTED:          0  ISSUED:          0  USEFUL:          0  USELESS:          0
PSCL2 USEFUL LOAD PREFETCHES:          0 PREFETCH ISSUED TO LOWER LEVEL:          0  ACCURACY: -nan
PSCL2 TIMELY PREFETCHES:          0 LATE PREFETCHES: 0 DROPPED PREFETCHES: 0
PSCL2 PREFETCHES SAME FILL-ORIGIN LEVEL: 0 DIFFERENT FILL-ORIGIN LEVEL: 0

LLC TOTAL     ACCESS:   10614917  HIT:    4250711  MISS:    6364206  HIT %:    40.0447  MISS %:    59.9553   MPKI: 31.821
LLC LOAD      ACCESS:    2334761  HIT:    1562829  MISS:     771932  HIT %:    66.9374  MISS %:    33.0626   MPKI: 3.85966
LLC RFO       ACCESS:    3534012  HIT:     982337  MISS:    2551675  HIT %:    27.7967  MISS %:    72.2033   MPKI: 12.7584
LLC PREFETCH  ACCESS:     653177  HIT:     134616  MISS:     518561  HIT %:    20.6094  MISS %:    79.3906   MPKI: 2.5928
AGUS PREFETCH L1 MISS: 0
LLC WRITEBACK ACCESS:    4035034  HIT:    1553233  MISS:    2481801  HIT %:    38.4937  MISS %:    61.5063   MPKI: 12.409
LLC LOAD TRANSLATION ACCESS:      40335  HIT:       9060  MISS:      31275  HIT %:    22.4619  MISS %:    77.5381   MPKI: 0.156375
LLC TRANSLATION FROM L1D PREFETCHER ACCESS:      17598  HIT:       8636  MISS:       8962  HIT %:    49.0738  MISS %:    50.9262   MPKI: 0.04481
LLC PREFETCH  REQUESTED:          0  ISSUED:          0  USEFUL:       2109  USELESS:     525775
LLC USEFUL LOAD PREFETCHES:       2109 PREFETCH ISSUED TO LOWER LEVEL:     518561  ACCURACY: 0.406702
LLC TIMELY PREFETCHES:       2109 LATE PREFETCHES: 0 DROPPED PREFETCHES: 0
LLC PREFETCHES SAME FILL-ORIGIN LEVEL: 0 DIFFERENT FILL-ORIGIN LEVEL: 0
LLC AVERAGE MISS LATENCY: 134.739 cycles
LLC RQ	ACCESS:    5926725	FORWARD:          0	MERGED:          0	TO_CACHE:    5926706
LLC WQ	ACCESS:    4035034	FORWARD:         19	MERGED:          0	TO_CACHE:    4035034
LLC PQ	ACCESS:     653177	FORWARD:          0	MERGED:          0	TO_CACHE:     653177

LLC Dense regions hint to LLC: 0

RAW hits: 2435723
Loads Generated: 47618197
Loads sent to L1D: 45182472
Stores Generated: 34191046
Stores sent to L1D: 34191048
Major fault: 0 Minor fault: 9094
Allocated PAGES: 9094
Completed 

DRAM Statistics
 CHANNEL 0
 RQ ROW_BUFFER_HIT:    1848620  ROW_BUFFER_MISS:    2033414
 DBUS_CONGESTED:       2259
 WQ ROW_BUFFER_HIT:     535550  ROW_BUFFER_MISS:    2085253  FULL:      57902

 AVG_CONGESTED_CYCLE: 3
 All warmup complete: 2
Channel 0 Bank busy for read cycles: 0
Channel 0 Bank busy for write cycles: 0
Channel 0
Rank 0
0banks busy for read cycles: 170655714
0banks busy for write cycles: 273095
1banks busy for read cycles: 33300087
1banks busy for write cycles: 38339511
2banks busy for read cycles: 13922453
2banks busy for write cycles: 13743465
3banks busy for read cycles: 15448765
3banks busy for write cycles: 6243139
4banks busy for read cycles: 5970009
4banks busy for write cycles: 4062418
5banks busy for read cycles: 4997057
5banks busy for write cycles: 3370171
6banks busy for read cycles: 5914509
6banks busy for write cycles: 3221700
7banks busy for read cycles: 8776677
7banks busy for write cycles: 5733249
8banks busy for read cycles: 18889683
8banks busy for write cycles: 34806892

CPU 0 Branch Prediction Accuracy: 99.9484% MPKI: 0.07887 Average ROB Occupancy at Mispredict: 120.374
Branch types
NOT_BRANCH: 169412819 84.7064%
BRANCH_DIRECT_JUMP: 1654273 0.827137%
BRANCH_INDIRECT: 9941101 4.97055%
BRANCH_CONDITIONAL: 12179886 6.08994%
BRANCH_DIRECT_CALL: 2814711 1.40736%
BRANCH_INDIRECT_CALL: 591266 0.295633%
BRANCH_RETURN: 3405947 1.70297%
BRANCH_OTHER: 0 0%

DRAM PAGES: 1048576
Allocated PAGES: 9094
