
*** ChampSim Multicore Out-of-Order Simulator ***

Warmup Instructions: 50000000
Simulation Instructions: 200000000
Number of CPUs: 1
LLC sets: 2048
LLC ways: 16
Off-chip DRAM Size: 4096 MB Channels: 1 Width: 64-bit Data Rate: 6400 MT/s
CPU 0 runs traces/spec2k17/srv_34.champsimtrace.xz
.xz
BTB has LRU replacement policy
ITLB has LRU replacement policy
DTLB has LRU replacement policy
STLB has LRU replacement policy
L1I has LRU replacement policy
L1D has LRU replacement policy
Initialize SRRIP state for L2C
Initialize DRRIP state for LLC
Heartbeat CPU 0 instructions: 10000001 cycles: 2937978 heartbeat IPC: 3.4037 cumulative IPC: 3.4037 (Simulation time: 0 hr 0 min 31 sec) 
Heartbeat CPU 0 instructions: 20000002 cycles: 5883694 heartbeat IPC: 3.39476 cumulative IPC: 3.39923 (Simulation time: 0 hr 1 min 2 sec) 
Heartbeat CPU 0 instructions: 30000001 cycles: 8822047 heartbeat IPC: 3.40327 cumulative IPC: 3.40057 (Simulation time: 0 hr 1 min 40 sec) 
*** Reached end of trace for Core: 0 Repeating trace: traces/spec2k17/srv_34.champsimtrace.xz
Heartbeat CPU 0 instructions: 40000001 cycles: 11764474 heartbeat IPC: 3.39856 cumulative IPC: 3.40007 (Simulation time: 0 hr 2 min 21 sec) 
Heartbeat CPU 0 instructions: 50000003 cycles: 14710358 heartbeat IPC: 3.39457 cumulative IPC: 3.39897 (Simulation time: 0 hr 3 min 1 sec) 

Warmup complete CPU 0 instructions: 50000003 cycles: 14710358 (Simulation time: 0 hr 3 min 1 sec) 

Heartbeat CPU 0 instructions: 60000001 cycles: 34198845 heartbeat IPC: 0.513123 cumulative IPC: 0.513123 (Simulation time: 0 hr 4 min 13 sec) 
*** Reached end of trace for Core: 0 Repeating trace: traces/spec2k17/srv_34.champsimtrace.xz
Heartbeat CPU 0 instructions: 70000001 cycles: 53555374 heartbeat IPC: 0.516622 cumulative IPC: 0.514867 (Simulation time: 0 hr 5 min 24 sec) 
Heartbeat CPU 0 instructions: 80000003 cycles: 73022181 heartbeat IPC: 0.513695 cumulative IPC: 0.514475 (Simulation time: 0 hr 6 min 33 sec) 
Heartbeat CPU 0 instructions: 90000001 cycles: 92452406 heartbeat IPC: 0.514662 cumulative IPC: 0.514522 (Simulation time: 0 hr 7 min 48 sec) 
*** Reached end of trace for Core: 0 Repeating trace: traces/spec2k17/srv_34.champsimtrace.xz
Heartbeat CPU 0 instructions: 100000000 cycles: 111780337 heartbeat IPC: 0.517386 cumulative IPC: 0.515092 (Simulation time: 0 hr 8 min 51 sec) 
Heartbeat CPU 0 instructions: 110000000 cycles: 131209278 heartbeat IPC: 0.514696 cumulative IPC: 0.515026 (Simulation time: 0 hr 10 min 5 sec) 
Heartbeat CPU 0 instructions: 120000000 cycles: 150558091 heartbeat IPC: 0.516828 cumulative IPC: 0.515283 (Simulation time: 0 hr 11 min 18 sec) 
*** Reached end of trace for Core: 0 Repeating trace: traces/spec2k17/srv_34.champsimtrace.xz
Heartbeat CPU 0 instructions: 130000002 cycles: 169866709 heartbeat IPC: 0.517904 cumulative IPC: 0.515609 (Simulation time: 0 hr 12 min 19 sec) 
Heartbeat CPU 0 instructions: 140000001 cycles: 189200427 heartbeat IPC: 0.517231 cumulative IPC: 0.515789 (Simulation time: 0 hr 13 min 29 sec) 
Heartbeat CPU 0 instructions: 150000001 cycles: 208513785 heartbeat IPC: 0.517776 cumulative IPC: 0.515987 (Simulation time: 0 hr 14 min 35 sec) 
Heartbeat CPU 0 instructions: 160000000 cycles: 227824436 heartbeat IPC: 0.517849 cumulative IPC: 0.516155 (Simulation time: 0 hr 15 min 49 sec) 
*** Reached end of trace for Core: 0 Repeating trace: traces/spec2k17/srv_34.champsimtrace.xz
Heartbeat CPU 0 instructions: 170000000 cycles: 247129619 heartbeat IPC: 0.517996 cumulative IPC: 0.516308 (Simulation time: 0 hr 17 min 4 sec) 
Heartbeat CPU 0 instructions: 180000000 cycles: 266507661 heartbeat IPC: 0.516048 cumulative IPC: 0.516288 (Simulation time: 0 hr 18 min 16 sec) 
Heartbeat CPU 0 instructions: 190000000 cycles: 285859345 heartbeat IPC: 0.516751 cumulative IPC: 0.516321 (Simulation time: 0 hr 19 min 32 sec) 
*** Reached end of trace for Core: 0 Repeating trace: traces/spec2k17/srv_34.champsimtrace.xz
Heartbeat CPU 0 instructions: 200000000 cycles: 305100189 heartbeat IPC: 0.519728 cumulative IPC: 0.516547 (Simulation time: 0 hr 20 min 42 sec) 
Heartbeat CPU 0 instructions: 210000000 cycles: 324486380 heartbeat IPC: 0.515831 cumulative IPC: 0.516502 (Simulation time: 0 hr 21 min 52 sec) 
Heartbeat CPU 0 instructions: 220000000 cycles: 343726425 heartbeat IPC: 0.519749 cumulative IPC: 0.516692 (Simulation time: 0 hr 22 min 52 sec) 
*** Reached end of trace for Core: 0 Repeating trace: traces/spec2k17/srv_34.champsimtrace.xz
Heartbeat CPU 0 instructions: 230000003 cycles: 363017458 heartbeat IPC: 0.518376 cumulative IPC: 0.516785 (Simulation time: 0 hr 23 min 51 sec) 
Heartbeat CPU 0 instructions: 240000000 cycles: 382427967 heartbeat IPC: 0.515185 cumulative IPC: 0.516701 (Simulation time: 0 hr 24 min 41 sec) 
Heartbeat CPU 0 instructions: 250000001 cycles: 401688377 heartbeat IPC: 0.5192 cumulative IPC: 0.516825 (Simulation time: 0 hr 25 min 30 sec) 
Finished CPU 0 instructions: 200000000 cycles: 386978020 cumulative IPC: 0.516825 (Simulation time: 0 hr 25 min 30 sec) 

ChampSim completed all CPUs

Region of Interest Statistics

CPU 0 cumulative IPC: 0.516825 instructions: 200000000 cycles: 386978020
ITLB TOTAL     ACCESS:   33782060  HIT:   32239905  MISS:    1542155  HIT %:     95.435  MISS %:    4.56501   MPKI: 7.71077
ITLB LOAD TRANSLATION ACCESS:   33782060  HIT:   32239905  MISS:    1542155  HIT %:     95.435  MISS %:    4.56501   MPKI: 7.71077
ITLB PREFETCH  REQUESTED:          0  ISSUED:          0  USEFUL:          0  USELESS:          0
ITLB USEFUL LOAD PREFETCHES:          0 PREFETCH ISSUED TO LOWER LEVEL:          0  ACCURACY: -nan
ITLB TIMELY PREFETCHES:          0 LATE PREFETCHES: 0 DROPPED PREFETCHES: 0
ITLB PREFETCHES SAME FILL-ORIGIN LEVEL: 0 DIFFERENT FILL-ORIGIN LEVEL: 0
ITLB AVERAGE MISS LATENCY: 9.20093 cycles
ITLB RQ	ACCESS:   40673302	FORWARD:          0	MERGED:    6396382	TO_CACHE:   34276920

DTLB TOTAL     ACCESS:   40014242  HIT:   38504742  MISS:    1509500  HIT %:    96.2276  MISS %:    3.77241   MPKI: 7.5475
DTLB LOAD TRANSLATION ACCESS:   40014242  HIT:   38504742  MISS:    1509500  HIT %:    96.2276  MISS %:    3.77241   MPKI: 7.5475
DTLB PREFETCH  REQUESTED:          0  ISSUED:          0  USEFUL:          0  USELESS:          0
DTLB USEFUL LOAD PREFETCHES:          0 PREFETCH ISSUED TO LOWER LEVEL:          0  ACCURACY: -nan
DTLB TIMELY PREFETCHES:          0 LATE PREFETCHES: 0 DROPPED PREFETCHES: 0
DTLB PREFETCHES SAME FILL-ORIGIN LEVEL: 0 DIFFERENT FILL-ORIGIN LEVEL: 0
DTLB AVERAGE MISS LATENCY: 14.3244 cycles
DTLB RQ	ACCESS:   61133035	FORWARD:          0	MERGED:   20747964	TO_CACHE:   40385071

STLB TOTAL     ACCESS:    9728309  HIT:    9651267  MISS:      77042  HIT %:    99.2081  MISS %:   0.791936   MPKI: 0.38521
STLB LOAD TRANSLATION ACCESS:    3051655  HIT:    2977162  MISS:      74493  HIT %:    97.5589  MISS %:    2.44107   MPKI: 0.372465
STLB TRANSLATION FROM L1D PREFETCHER ACCESS:    6676654  HIT:    6674105  MISS:       2549  HIT %:    99.9618  MISS %:  0.0381778   MPKI: 0.012745
STLB PREFETCH  REQUESTED:          0  ISSUED:          0  USEFUL:       2322  USELESS:        225
STLB USEFUL LOAD PREFETCHES:       2322 PREFETCH ISSUED TO LOWER LEVEL:          0  ACCURACY: inf
STLB TIMELY PREFETCHES:       2322 LATE PREFETCHES: 919 DROPPED PREFETCHES: 42388
STLB PREFETCHES SAME FILL-ORIGIN LEVEL: 0 DIFFERENT FILL-ORIGIN LEVEL: 0
STLB AVERAGE MISS LATENCY: 132946 cycles
STLB RQ	ACCESS:   12613968	FORWARD:          0	MERGED:    2841915	TO_CACHE:    9772053

STLB Hit, L1D data hit: 0
STLB Hit, L2C data hit: 0
STLB Hit, LLC data hit: 0
STLB Hit, LLC data miss: 0
STLB STLB hints to L2: 0
L1D TOTAL     ACCESS:   57296839  HIT:   50353891  MISS:    6942948  HIT %:    87.8825  MISS %:    12.1175   MPKI: 34.7147
L1D LOAD      ACCESS:   26760788  HIT:   23908335  MISS:    2852453  HIT %:    89.3409  MISS %:    10.6591   MPKI: 14.2623
L1D RFO       ACCESS:   22390495  HIT:   18715177  MISS:    3675318  HIT %:    83.5854  MISS %:    16.4146   MPKI: 18.3766
L1D PREFETCH  ACCESS:    8145556  HIT:    7730379  MISS:     415177  HIT %:     94.903  MISS %:    5.09698   MPKI: 2.07588
AGUS PREFETCH L1 MISS: 0
L1D PREFETCH  REQUESTED:   20679035  ISSUED:   20676895  USEFUL:     241179  USELESS:     174001
L1D USEFUL LOAD PREFETCHES:     241179 PREFETCH ISSUED TO LOWER LEVEL:     857051  ACCURACY: 28.1406
L1D TIMELY PREFETCHES:     241179 LATE PREFETCHES: 439646 DROPPED PREFETCHES: 43359
L1D PREFETCHES SAME FILL-ORIGIN LEVEL: 857051 DIFFERENT FILL-ORIGIN LEVEL: 0
L1D AVERAGE MISS LATENCY: 1.35775e+07 cycles
L1D RQ	ACCESS:   45294506	FORWARD:          0	MERGED:   17856761	TO_CACHE:   27158883
L1D WQ	ACCESS:   34174261	FORWARD:     315498	MERGED:     200109	TO_CACHE:   33974152
L1D PQ	ACCESS:   11114582	FORWARD:          0	MERGED:    1515633	TO_CACHE:    9562313

L1D UNIQUE REGIONS ACCESSED: 0
L1D REGIONS CONFLICTS: 0
L1D Cross Page Prefetch Requests: 4508735
L1D Same Page Prefetch Requests: 8329751
L1D ROI Sum of L1D PQ occupancy: 141552819
L1D PREFETCHES PUSHED FROM L2C: 0
L1I TOTAL     ACCESS:   38006946  HIT:   28877255  MISS:    9129691  HIT %:    75.9789  MISS %:    24.0211   MPKI: 45.6485
L1I LOAD      ACCESS:   38006946  HIT:   28877255  MISS:    9129691  HIT %:    75.9789  MISS %:    24.0211   MPKI: 45.6485
L1I PREFETCH  REQUESTED:          0  ISSUED:          0  USEFUL:          0  USELESS:          0
L1I USEFUL LOAD PREFETCHES:          0 PREFETCH ISSUED TO LOWER LEVEL:          0  ACCURACY: -nan
L1I TIMELY PREFETCHES:          0 LATE PREFETCHES: 0 DROPPED PREFETCHES: 0
L1I PREFETCHES SAME FILL-ORIGIN LEVEL: 0 DIFFERENT FILL-ORIGIN LEVEL: 0
L1I AVERAGE MISS LATENCY: 16.5105 cycles
L1I RQ	ACCESS:   58996547	FORWARD:          0	MERGED:   18323245	TO_CACHE:   40673302

BTB TOTAL     ACCESS:   25683983  HIT:   24137267  MISS:    1546716  HIT %:    93.9779  MISS %:     6.0221   MPKI: 7.73358
BTB BRANCH_DIRECT_JUMP	ACCESS:    1661224  HIT:    1651564  MISS:       9660
BTB BRANCH_INDIRECT	ACCESS:    9989440  HIT:    9473851  MISS:     515589
BTB BRANCH_CONDITIONAL	ACCESS:    7185443  HIT:    7172058  MISS:      13385
BTB BRANCH_DIRECT_CALL	ACCESS:    2827619  HIT:    2794301  MISS:      33318
BTB BRANCH_INDIRECT_CALL	ACCESS:     596257  HIT:     484762  MISS:     111495
BTB BRANCH_RETURN	ACCESS:    3424000  HIT:    2560731  MISS:     863269
BTB BRANCH_OTHER ACCESS:          0  HIT:          0  MISS:          0

L2C TOTAL     ACCESS:   20564481  HIT:   13881903  MISS:    6682578  HIT %:    67.5043  MISS %:    32.4957   MPKI: 33.4129
L2C LOAD      ACCESS:   11542430  HIT:    9217974  MISS:    2324456  HIT %:    79.8616  MISS %:    20.1384   MPKI: 11.6223
L2C DATA LOAD MPKI: 8.87134
L2C INSTRUCTION LOAD MPKI: 2.75094
L2C RFO       ACCESS:    3673088  HIT:     168119  MISS:    3504969  HIT %:    4.57705  MISS %:     95.423   MPKI: 17.5248
L2C PREFETCH  ACCESS:     857032  HIT:     195028  MISS:     662004  HIT %:    22.7562  MISS %:    77.2438   MPKI: 3.31002
AGUS PREFETCH L1 MISS: 0
L2C DATA PREFETCH MPKI: 3.31002
L2C INSTRUCTION PREFETCH MPKI: 0
L2C WRITEBACK ACCESS:    4339012  HIT:    4206245  MISS:     132767  HIT %:    96.9402  MISS %:    3.05984   MPKI: 0.663835
L2C LOAD TRANSLATION ACCESS:      83665  HIT:      44864  MISS:      38801  HIT %:    53.6234  MISS %:    46.3766   MPKI: 0.194005
L2C TRANSLATION FROM L1D PREFETCHER ACCESS:      69254  HIT:      49673  MISS:      19581  HIT %:    71.7258  MISS %:    28.2742   MPKI: 0.097905
L2C PREFETCH  REQUESTED:          0  ISSUED:          0  USEFUL:      27070  USELESS:     654996
L2C USEFUL LOAD PREFETCHES:      27070 PREFETCH ISSUED TO LOWER LEVEL:     662004  ACCURACY: 4.0891
L2C TIMELY PREFETCHES:      27070 LATE PREFETCHES: 0 DROPPED PREFETCHES: 0
L2C PREFETCHES SAME FILL-ORIGIN LEVEL: 0 DIFFERENT FILL-ORIGIN LEVEL: 0
L2C AVERAGE MISS LATENCY: 158.201 cycles
L2C RQ	ACCESS:   15368523	FORWARD:          0	MERGED:          0	TO_CACHE:   15368453
L2C WQ	ACCESS:    4339012	FORWARD:         89	MERGED:          0	TO_CACHE:    4339012
L2C PQ	ACCESS:     857051	FORWARD:          0	MERGED:          0	TO_CACHE:     857032

L2C Instructions Evicting Data 508460
L2C Translations Evicting Data 53198
L2C Data Evicting Data 5392220
L2C Instructions Evicting Instructions 36915
L2C Translations Evicting Instructions 4840
L2C Data Evicting Instructions 496814
L2C Instructions Evicting Translations 4812
L2C Translations Evicting Translations 344
L2C Data Evicting Translations 52208
L2C Dense regions hint from L2: 0
PSCL5 TOTAL     ACCESS:     118848  HIT:     118848  MISS:          0  HIT %:        100  MISS %:          0   MPKI: 0
PSCL5 LOAD TRANSLATION ACCESS:      73574  HIT:      73574  MISS:          0  HIT %:        100  MISS %:          0   MPKI: 0
PSCL5 TRANSLATION FROM L1D PREFETCHER ACCESS:      45274  HIT:      45274  MISS:          0  HIT %:        100  MISS %:          0   MPKI: 0
PSCL5 PREFETCH  REQUESTED:          0  ISSUED:          0  USEFUL:          0  USELESS:          0
PSCL5 USEFUL LOAD PREFETCHES:          0 PREFETCH ISSUED TO LOWER LEVEL:          0  ACCURACY: -nan
PSCL5 TIMELY PREFETCHES:          0 LATE PREFETCHES: 0 DROPPED PREFETCHES: 0
PSCL5 PREFETCHES SAME FILL-ORIGIN LEVEL: 0 DIFFERENT FILL-ORIGIN LEVEL: 0

PSCL4 TOTAL     ACCESS:      98296  HIT:      98186  MISS:        110  HIT %:    99.8881  MISS %:   0.111907   MPKI: 0.00055
PSCL4 LOAD TRANSLATION ACCESS:      63107  HIT:      62997  MISS:        110  HIT %:    99.8257  MISS %:   0.174307   MPKI: 0.00055
PSCL4 TRANSLATION FROM L1D PREFETCHER ACCESS:      35189  HIT:      35189  MISS:          0  HIT %:        100  MISS %:          0   MPKI: 0
PSCL4 PREFETCH  REQUESTED:          0  ISSUED:          0  USEFUL:          0  USELESS:          0
PSCL4 USEFUL LOAD PREFETCHES:          0 PREFETCH ISSUED TO LOWER LEVEL:          0  ACCURACY: -nan
PSCL4 TIMELY PREFETCHES:          0 LATE PREFETCHES: 0 DROPPED PREFETCHES: 0
PSCL4 PREFETCHES SAME FILL-ORIGIN LEVEL: 0 DIFFERENT FILL-ORIGIN LEVEL: 0

PSCL3 TOTAL     ACCESS:     112380  HIT:     112159  MISS:        221  HIT %:    99.8033  MISS %:   0.196654   MPKI: 0.001105
PSCL3 LOAD TRANSLATION ACCESS:      73508  HIT:      73287  MISS:        221  HIT %:    99.6994  MISS %:   0.300648   MPKI: 0.001105
PSCL3 TRANSLATION FROM L1D PREFETCHER ACCESS:      38872  HIT:      38872  MISS:          0  HIT %:        100  MISS %:          0   MPKI: 0
PSCL3 PREFETCH  REQUESTED:          0  ISSUED:          0  USEFUL:          0  USELESS:          0
PSCL3 USEFUL LOAD PREFETCHES:          0 PREFETCH ISSUED TO LOWER LEVEL:          0  ACCURACY: -nan
PSCL3 TIMELY PREFETCHES:          0 LATE PREFETCHES: 0 DROPPED PREFETCHES: 0
PSCL3 PREFETCHES SAME FILL-ORIGIN LEVEL: 0 DIFFERENT FILL-ORIGIN LEVEL: 0

PSCL2 TOTAL     ACCESS:      90539  HIT:      80414  MISS:      10125  HIT %:     88.817  MISS %:     11.183   MPKI: 0.050625
PSCL2 LOAD TRANSLATION ACCESS:      73937  HIT:      63812  MISS:      10125  HIT %:    86.3059  MISS %:    13.6941   MPKI: 0.050625
PSCL2 TRANSLATION FROM L1D PREFETCHER ACCESS:      16602  HIT:      16602  MISS:          0  HIT %:        100  MISS %:          0   MPKI: 0
PSCL2 PREFETCH  REQUESTED:          0  ISSUED:          0  USEFUL:          0  USELESS:          0
PSCL2 USEFUL LOAD PREFETCHES:          0 PREFETCH ISSUED TO LOWER LEVEL:          0  ACCURACY: -nan
PSCL2 TIMELY PREFETCHES:          0 LATE PREFETCHES: 0 DROPPED PREFETCHES: 0
PSCL2 PREFETCHES SAME FILL-ORIGIN LEVEL: 0 DIFFERENT FILL-ORIGIN LEVEL: 0

LLC TOTAL     ACCESS:   10563465  HIT:    4209308  MISS:    6354157  HIT %:    39.8478  MISS %:    60.1522   MPKI: 31.7708
LLC LOAD      ACCESS:    2324455  HIT:    1547998  MISS:     776457  HIT %:    66.5962  MISS %:    33.4038   MPKI: 3.88228
LLC RFO       ACCESS:    3504946  HIT:     962830  MISS:    2542116  HIT %:    27.4706  MISS %:    72.5294   MPKI: 12.7106
LLC PREFETCH  ACCESS:     662004  HIT:     139776  MISS:     522228  HIT %:    21.1141  MISS %:    78.8859   MPKI: 2.61114
AGUS PREFETCH L1 MISS: 0
LLC WRITEBACK ACCESS:    4013678  HIT:    1538330  MISS:    2475348  HIT %:    38.3272  MISS %:    61.6728   MPKI: 12.3767
LLC LOAD TRANSLATION ACCESS:      38801  HIT:      10815  MISS:      27986  HIT %:     27.873  MISS %:     72.127   MPKI: 0.13993
LLC TRANSLATION FROM L1D PREFETCHER ACCESS:      19581  HIT:       9559  MISS:      10022  HIT %:    48.8177  MISS %:    51.1823   MPKI: 0.05011
LLC PREFETCH  REQUESTED:          0  ISSUED:          0  USEFUL:       2048  USELESS:     530945
LLC USEFUL LOAD PREFETCHES:       2048 PREFETCH ISSUED TO LOWER LEVEL:     522228  ACCURACY: 0.392166
LLC TIMELY PREFETCHES:       2048 LATE PREFETCHES: 0 DROPPED PREFETCHES: 0
LLC PREFETCHES SAME FILL-ORIGIN LEVEL: 0 DIFFERENT FILL-ORIGIN LEVEL: 0
LLC AVERAGE MISS LATENCY: 135.453 cycles
LLC RQ	ACCESS:    5887823	FORWARD:          0	MERGED:          0	TO_CACHE:    5887799
LLC WQ	ACCESS:    4013678	FORWARD:         24	MERGED:          0	TO_CACHE:    4013678
LLC PQ	ACCESS:     662004	FORWARD:          0	MERGED:          0	TO_CACHE:     662004

LLC Dense regions hint to LLC: 0

RAW hits: 2450535
Loads Generated: 47745046
Loads sent to L1D: 45294506
Stores Generated: 34174248
Stores sent to L1D: 34174261
Major fault: 0 Minor fault: 8817
Allocated PAGES: 8817
Completed 

DRAM Statistics
 CHANNEL 0
 RQ ROW_BUFFER_HIT:    1830086  ROW_BUFFER_MISS:    2048172
 DBUS_CONGESTED:       2413
 WQ ROW_BUFFER_HIT:     524681  ROW_BUFFER_MISS:    2089225  FULL:      56587

 AVG_CONGESTED_CYCLE: 3
 All warmup complete: 2
Channel 0 Bank busy for read cycles: 0
Channel 0 Bank busy for write cycles: 0
Channel 0
Rank 0
0banks busy for read cycles: 169767071
0banks busy for write cycles: 275242
1banks busy for read cycles: 33331647
1banks busy for write cycles: 38581026
2banks busy for read cycles: 13681276
2banks busy for write cycles: 13646174
3banks busy for read cycles: 15484021
3banks busy for write cycles: 6312487
4banks busy for read cycles: 6009607
4banks busy for write cycles: 4053236
5banks busy for read cycles: 4938770
5banks busy for write cycles: 3297700
6banks busy for read cycles: 5876969
6banks busy for write cycles: 3234706
7banks busy for read cycles: 8874569
7banks busy for write cycles: 5685156
8banks busy for read cycles: 19077013
8banks busy for write cycles: 34851351

CPU 0 Branch Prediction Accuracy: 99.9482% MPKI: 0.079205 Average ROB Occupancy at Mispredict: 122.823
Branch types
NOT_BRANCH: 169447800 84.7239%
BRANCH_DIRECT_JUMP: 1661224 0.830612%
BRANCH_INDIRECT: 9989440 4.99472%
BRANCH_CONDITIONAL: 12053307 6.02665%
BRANCH_DIRECT_CALL: 2827619 1.41381%
BRANCH_INDIRECT_CALL: 596257 0.298129%
BRANCH_RETURN: 3424000 1.712%
BRANCH_OTHER: 0 0%

DRAM PAGES: 1048576
Allocated PAGES: 8817
