
*** ChampSim Multicore Out-of-Order Simulator ***

Warmup Instructions: 50000000
Simulation Instructions: 200000000
Number of CPUs: 1
LLC sets: 2048
LLC ways: 16
Off-chip DRAM Size: 4096 MB Channels: 1 Width: 64-bit Data Rate: 6400 MT/s
CPU 0 runs traces/spec2k17/srv_10.champsimtrace.xz
.xz
BTB has LRU replacement policy
ITLB has LRU replacement policy
DTLB has LRU replacement policy
STLB has LRU replacement policy
L1I has LRU replacement policy
L1D has LRU replacement policy
Initialize SRRIP state for L2C
Initialize DRRIP state for LLC
Heartbeat CPU 0 instructions: 10000000 cycles: 2781546 heartbeat IPC: 3.59512 cumulative IPC: 3.59512 (Simulation time: 0 hr 0 min 36 sec) 
Heartbeat CPU 0 instructions: 20000002 cycles: 5556419 heartbeat IPC: 3.60377 cumulative IPC: 3.59944 (Simulation time: 0 hr 1 min 11 sec) 
Heartbeat CPU 0 instructions: 30000002 cycles: 8332212 heartbeat IPC: 3.60257 cumulative IPC: 3.60048 (Simulation time: 0 hr 1 min 39 sec) 
*** Reached end of trace for Core: 0 Repeating trace: traces/spec2k17/srv_10.champsimtrace.xz
Heartbeat CPU 0 instructions: 40000001 cycles: 11110033 heartbeat IPC: 3.59994 cumulative IPC: 3.60035 (Simulation time: 0 hr 2 min 14 sec) 
Heartbeat CPU 0 instructions: 50000002 cycles: 13885378 heartbeat IPC: 3.60316 cumulative IPC: 3.60091 (Simulation time: 0 hr 2 min 50 sec) 

Warmup complete CPU 0 instructions: 50000002 cycles: 13885378 (Simulation time: 0 hr 2 min 50 sec) 

Heartbeat CPU 0 instructions: 60000000 cycles: 37066296 heartbeat IPC: 0.431389 cumulative IPC: 0.431389 (Simulation time: 0 hr 3 min 32 sec) 
*** Reached end of trace for Core: 0 Repeating trace: traces/spec2k17/srv_10.champsimtrace.xz
Heartbeat CPU 0 instructions: 70000003 cycles: 60646780 heartbeat IPC: 0.42408 cumulative IPC: 0.427703 (Simulation time: 0 hr 4 min 11 sec) 
Heartbeat CPU 0 instructions: 80000001 cycles: 84141963 heartbeat IPC: 0.425619 cumulative IPC: 0.427006 (Simulation time: 0 hr 5 min 6 sec) 
Heartbeat CPU 0 instructions: 90000000 cycles: 107150875 heartbeat IPC: 0.434614 cumulative IPC: 0.428883 (Simulation time: 0 hr 6 min 3 sec) 
*** Reached end of trace for Core: 0 Repeating trace: traces/spec2k17/srv_10.champsimtrace.xz
Heartbeat CPU 0 instructions: 100000002 cycles: 130645525 heartbeat IPC: 0.425629 cumulative IPC: 0.428228 (Simulation time: 0 hr 6 min 56 sec) 
Heartbeat CPU 0 instructions: 110000000 cycles: 154116650 heartbeat IPC: 0.426055 cumulative IPC: 0.427865 (Simulation time: 0 hr 7 min 54 sec) 
Heartbeat CPU 0 instructions: 120000000 cycles: 177215053 heartbeat IPC: 0.43293 cumulative IPC: 0.428581 (Simulation time: 0 hr 8 min 52 sec) 
*** Reached end of trace for Core: 0 Repeating trace: traces/spec2k17/srv_10.champsimtrace.xz
Heartbeat CPU 0 instructions: 130000002 cycles: 200514608 heartbeat IPC: 0.429193 cumulative IPC: 0.428657 (Simulation time: 0 hr 9 min 52 sec) 
Heartbeat CPU 0 instructions: 140000003 cycles: 224062190 heartbeat IPC: 0.424672 cumulative IPC: 0.428211 (Simulation time: 0 hr 10 min 53 sec) 
Heartbeat CPU 0 instructions: 150000000 cycles: 247220601 heartbeat IPC: 0.431808 cumulative IPC: 0.428568 (Simulation time: 0 hr 11 min 52 sec) 
*** Reached end of trace for Core: 0 Repeating trace: traces/spec2k17/srv_10.champsimtrace.xz
Heartbeat CPU 0 instructions: 160000002 cycles: 270480401 heartbeat IPC: 0.429926 cumulative IPC: 0.428691 (Simulation time: 0 hr 12 min 49 sec) 
Heartbeat CPU 0 instructions: 170000000 cycles: 293837065 heartbeat IPC: 0.428143 cumulative IPC: 0.428645 (Simulation time: 0 hr 13 min 47 sec) 
Heartbeat CPU 0 instructions: 180000000 cycles: 316996895 heartbeat IPC: 0.431782 cumulative IPC: 0.428885 (Simulation time: 0 hr 14 min 46 sec) 
*** Reached end of trace for Core: 0 Repeating trace: traces/spec2k17/srv_10.champsimtrace.xz
Heartbeat CPU 0 instructions: 190000000 cycles: 340239633 heartbeat IPC: 0.430242 cumulative IPC: 0.428982 (Simulation time: 0 hr 15 min 48 sec) 
Heartbeat CPU 0 instructions: 200000001 cycles: 363536979 heartbeat IPC: 0.429233 cumulative IPC: 0.428998 (Simulation time: 0 hr 16 min 45 sec) 
Heartbeat CPU 0 instructions: 210000001 cycles: 386925787 heartbeat IPC: 0.427555 cumulative IPC: 0.428908 (Simulation time: 0 hr 17 min 36 sec) 
*** Reached end of trace for Core: 0 Repeating trace: traces/spec2k17/srv_10.champsimtrace.xz
Heartbeat CPU 0 instructions: 220000000 cycles: 410040681 heartbeat IPC: 0.432621 cumulative IPC: 0.429125 (Simulation time: 0 hr 18 min 23 sec) 
Heartbeat CPU 0 instructions: 230000000 cycles: 433302776 heartbeat IPC: 0.429884 cumulative IPC: 0.429167 (Simulation time: 0 hr 19 min 23 sec) 
Heartbeat CPU 0 instructions: 240000000 cycles: 456271823 heartbeat IPC: 0.435369 cumulative IPC: 0.429489 (Simulation time: 0 hr 20 min 24 sec) 
*** Reached end of trace for Core: 0 Repeating trace: traces/spec2k17/srv_10.champsimtrace.xz
Heartbeat CPU 0 instructions: 250000001 cycles: 479489320 heartbeat IPC: 0.43071 cumulative IPC: 0.42955 (Simulation time: 0 hr 21 min 22 sec) 
Finished CPU 0 instructions: 200000000 cycles: 465603943 cumulative IPC: 0.42955 (Simulation time: 0 hr 21 min 22 sec) 

ChampSim completed all CPUs

Region of Interest Statistics

CPU 0 cumulative IPC: 0.42955 instructions: 200000000 cycles: 465603943
ITLB TOTAL     ACCESS:   31520568  HIT:   30726230  MISS:     794338  HIT %:    97.4799  MISS %:    2.52006   MPKI: 3.97169
ITLB LOAD TRANSLATION ACCESS:   31520568  HIT:   30726230  MISS:     794338  HIT %:    97.4799  MISS %:    2.52006   MPKI: 3.97169
ITLB PREFETCH  REQUESTED:          0  ISSUED:          0  USEFUL:          0  USELESS:          0
ITLB USEFUL LOAD PREFETCHES:          0 PREFETCH ISSUED TO LOWER LEVEL:          0  ACCURACY: -nan
ITLB TIMELY PREFETCHES:          0 LATE PREFETCHES: 0 DROPPED PREFETCHES: 0
ITLB PREFETCHES SAME FILL-ORIGIN LEVEL: 0 DIFFERENT FILL-ORIGIN LEVEL: 0
ITLB AVERAGE MISS LATENCY: 15.9513 cycles
ITLB RQ	ACCESS:   38423572	FORWARD:          0	MERGED:    6711751	TO_CACHE:   31711821

DTLB TOTAL     ACCESS:   37385854  HIT:   34870942  MISS:    2514912  HIT %:    93.2731  MISS %:    6.72691   MPKI: 12.5746
DTLB LOAD TRANSLATION ACCESS:   37385854  HIT:   34870942  MISS:    2514912  HIT %:    93.2731  MISS %:    6.72691   MPKI: 12.5746
DTLB PREFETCH  REQUESTED:          0  ISSUED:          0  USEFUL:          0  USELESS:          0
DTLB USEFUL LOAD PREFETCHES:          0 PREFETCH ISSUED TO LOWER LEVEL:          0  ACCURACY: -nan
DTLB TIMELY PREFETCHES:          0 LATE PREFETCHES: 0 DROPPED PREFETCHES: 0
DTLB PREFETCHES SAME FILL-ORIGIN LEVEL: 0 DIFFERENT FILL-ORIGIN LEVEL: 0
DTLB AVERAGE MISS LATENCY: 13.4904 cycles
DTLB RQ	ACCESS:   47836902	FORWARD:          0	MERGED:   10300658	TO_CACHE:   37536244

STLB TOTAL     ACCESS:   11181094  HIT:   10709075  MISS:     472019  HIT %:    95.7784  MISS %:    4.22158   MPKI: 2.36009
STLB LOAD TRANSLATION ACCESS:    3309250  HIT:    2852077  MISS:     457173  HIT %:     86.185  MISS %:     13.815   MPKI: 2.28586
STLB TRANSLATION FROM L1D PREFETCHER ACCESS:    7871844  HIT:    7856998  MISS:      14846  HIT %:    99.8114  MISS %:   0.188596   MPKI: 0.07423
STLB PREFETCH  REQUESTED:          0  ISSUED:          0  USEFUL:      12689  USELESS:       2153
STLB USEFUL LOAD PREFETCHES:      12689 PREFETCH ISSUED TO LOWER LEVEL:          0  ACCURACY: inf
STLB TIMELY PREFETCHES:      12689 LATE PREFETCHES: 3163 DROPPED PREFETCHES: 297209
STLB PREFETCHES SAME FILL-ORIGIN LEVEL: 0 DIFFERENT FILL-ORIGIN LEVEL: 0
STLB AVERAGE MISS LATENCY: 38.4689 cycles
STLB RQ	ACCESS:   13168899	FORWARD:          0	MERGED:    1685349	TO_CACHE:   11483550

STLB Hit, L1D data hit: 0
STLB Hit, L2C data hit: 0
STLB Hit, LLC data hit: 0
STLB Hit, LLC data miss: 0
STLB STLB hints to L2: 0
L1D TOTAL     ACCESS:   56631695  HIT:   54001909  MISS:    2629786  HIT %:    95.3563  MISS %:    4.64366   MPKI: 13.1489
L1D LOAD      ACCESS:   27756697  HIT:   25683051  MISS:    2073646  HIT %:    92.5292  MISS %:     7.4708   MPKI: 10.3682
L1D RFO       ACCESS:   19500511  HIT:   19142844  MISS:     357667  HIT %:    98.1659  MISS %:    1.83414   MPKI: 1.78834
L1D PREFETCH  ACCESS:    9374487  HIT:    9176014  MISS:     198473  HIT %:    97.8828  MISS %:    2.11716   MPKI: 0.992365
AGUS PREFETCH L1 MISS: 0
L1D PREFETCH  REQUESTED:   21238951  ISSUED:   21237840  USEFUL:     115249  USELESS:      83204
L1D USEFUL LOAD PREFETCHES:     115249 PREFETCH ISSUED TO LOWER LEVEL:     253558  ACCURACY: 45.4527
L1D TIMELY PREFETCHES:     115249 LATE PREFETCHES: 54876 DROPPED PREFETCHES: 321044
L1D PREFETCHES SAME FILL-ORIGIN LEVEL: 253558 DIFFERENT FILL-ORIGIN LEVEL: 0
L1D AVERAGE MISS LATENCY: 6.7762e+06 cycles
L1D RQ	ACCESS:   42023088	FORWARD:          0	MERGED:   13907369	TO_CACHE:   27900511
L1D WQ	ACCESS:   20227584	FORWARD:     268294	MERGED:     291193	TO_CACHE:   19936391
L1D PQ	ACCESS:   11378191	FORWARD:          0	MERGED:    1465456	TO_CACHE:    9859649

L1D UNIQUE REGIONS ACCESSED: 0
L1D REGIONS CONFLICTS: 0
L1D Cross Page Prefetch Requests: 8146195
L1D Same Page Prefetch Requests: 4980894
L1D ROI Sum of L1D PQ occupancy: 149386735
L1D PREFETCHES PUSHED FROM L2C: 0
L1I TOTAL     ACCESS:   36764853  HIT:   31721422  MISS:    5043431  HIT %:    86.2819  MISS %:    13.7181   MPKI: 25.2172
L1I LOAD      ACCESS:   36764853  HIT:   31721422  MISS:    5043431  HIT %:    86.2819  MISS %:    13.7181   MPKI: 25.2172
L1I PREFETCH  REQUESTED:          0  ISSUED:          0  USEFUL:          0  USELESS:          0
L1I USEFUL LOAD PREFETCHES:          0 PREFETCH ISSUED TO LOWER LEVEL:          0  ACCURACY: -nan
L1I TIMELY PREFETCHES:          0 LATE PREFETCHES: 0 DROPPED PREFETCHES: 0
L1I PREFETCHES SAME FILL-ORIGIN LEVEL: 0 DIFFERENT FILL-ORIGIN LEVEL: 0
L1I AVERAGE MISS LATENCY: 27.9841 cycles
L1I RQ	ACCESS:   57063656	FORWARD:          0	MERGED:   18640084	TO_CACHE:   38423572

BTB TOTAL     ACCESS:   22616971  HIT:   17672573  MISS:    4944398  HIT %:    78.1385  MISS %:    21.8615   MPKI: 24.722
BTB BRANCH_DIRECT_JUMP	ACCESS:    1742577  HIT:    1446257  MISS:     296320
BTB BRANCH_INDIRECT	ACCESS:    9604965  HIT:    7286777  MISS:    2318188
BTB BRANCH_CONDITIONAL	ACCESS:    4679517  HIT:    4209943  MISS:     469574
BTB BRANCH_DIRECT_CALL	ACCESS:    2572130  HIT:    1992728  MISS:     579402
BTB BRANCH_INDIRECT_CALL	ACCESS:     719271  HIT:     661890  MISS:      57381
BTB BRANCH_RETURN	ACCESS:    3298511  HIT:    2074978  MISS:    1223533
BTB BRANCH_OTHER ACCESS:          0  HIT:          0  MISS:          0

L2C TOTAL     ACCESS:    9647334  HIT:    5697879  MISS:    3949455  HIT %:    59.0617  MISS %:    40.9383   MPKI: 19.7473
L2C LOAD      ACCESS:    7062040  HIT:    3695693  MISS:    3366347  HIT %:    52.3318  MISS %:    47.6682   MPKI: 16.8317
L2C DATA LOAD MPKI: 5.4112
L2C INSTRUCTION LOAD MPKI: 11.4205
L2C RFO       ACCESS:     357455  HIT:     178770  MISS:     178685  HIT %:    50.0119  MISS %:    49.9881   MPKI: 0.893425
L2C PREFETCH  ACCESS:     253546  HIT:     154404  MISS:      99142  HIT %:    60.8978  MISS %:    39.1022   MPKI: 0.49571
AGUS PREFETCH L1 MISS: 0
L2C DATA PREFETCH MPKI: 0.49571
L2C INSTRUCTION PREFETCH MPKI: 0
L2C WRITEBACK ACCESS:    1016006  HIT:     961039  MISS:      54967  HIT %:    94.5899  MISS %:    5.41011   MPKI: 0.274835
L2C LOAD TRANSLATION ACCESS:     573979  HIT:     366545  MISS:     207434  HIT %:    63.8604  MISS %:    36.1396   MPKI: 1.03717
L2C TRANSLATION FROM L1D PREFETCHER ACCESS:     384308  HIT:     341428  MISS:      42880  HIT %:    88.8423  MISS %:    11.1577   MPKI: 0.2144
L2C PREFETCH  REQUESTED:          0  ISSUED:          0  USEFUL:      31311  USELESS:     110475
L2C USEFUL LOAD PREFETCHES:      31311 PREFETCH ISSUED TO LOWER LEVEL:      99142  ACCURACY: 31.582
L2C TIMELY PREFETCHES:      31311 LATE PREFETCHES: 0 DROPPED PREFETCHES: 0
L2C PREFETCHES SAME FILL-ORIGIN LEVEL: 0 DIFFERENT FILL-ORIGIN LEVEL: 0
L2C AVERAGE MISS LATENCY: 39.3698 cycles
L2C RQ	ACCESS:    8377946	FORWARD:          0	MERGED:          0	TO_CACHE:    8377782
L2C WQ	ACCESS:    1016006	FORWARD:        176	MERGED:          0	TO_CACHE:    1016006
L2C PQ	ACCESS:     253558	FORWARD:          0	MERGED:          0	TO_CACHE:     253546

L2C Instructions Evicting Data 815496
L2C Translations Evicting Data 91867
L2C Data Evicting Data 487666
L2C Instructions Evicting Instructions 1326262
L2C Translations Evicting Instructions 142814
L2C Data Evicting Instructions 783865
L2C Instructions Evicting Translations 142348
L2C Translations Evicting Translations 15633
L2C Data Evicting Translations 88537
L2C Dense regions hint from L2: 0
PSCL5 TOTAL     ACCESS:     716449  HIT:     716449  MISS:          0  HIT %:        100  MISS %:          0   MPKI: 0
PSCL5 LOAD TRANSLATION ACCESS:     454010  HIT:     454010  MISS:          0  HIT %:        100  MISS %:          0   MPKI: 0
PSCL5 TRANSLATION FROM L1D PREFETCHER ACCESS:     262439  HIT:     262439  MISS:          0  HIT %:        100  MISS %:          0   MPKI: 0
PSCL5 PREFETCH  REQUESTED:          0  ISSUED:          0  USEFUL:          0  USELESS:          0
PSCL5 USEFUL LOAD PREFETCHES:          0 PREFETCH ISSUED TO LOWER LEVEL:          0  ACCURACY: -nan
PSCL5 TIMELY PREFETCHES:          0 LATE PREFETCHES: 0 DROPPED PREFETCHES: 0
PSCL5 PREFETCHES SAME FILL-ORIGIN LEVEL: 0 DIFFERENT FILL-ORIGIN LEVEL: 0

PSCL4 TOTAL     ACCESS:     650109  HIT:     649016  MISS:       1093  HIT %:    99.8319  MISS %:   0.168126   MPKI: 0.005465
PSCL4 LOAD TRANSLATION ACCESS:     428744  HIT:     427651  MISS:       1093  HIT %:    99.7451  MISS %:   0.254931   MPKI: 0.005465
PSCL4 TRANSLATION FROM L1D PREFETCHER ACCESS:     221365  HIT:     221365  MISS:          0  HIT %:        100  MISS %:          0   MPKI: 0
PSCL4 PREFETCH  REQUESTED:          0  ISSUED:          0  USEFUL:          0  USELESS:          0
PSCL4 USEFUL LOAD PREFETCHES:          0 PREFETCH ISSUED TO LOWER LEVEL:          0  ACCURACY: -nan
PSCL4 TIMELY PREFETCHES:          0 LATE PREFETCHES: 0 DROPPED PREFETCHES: 0
PSCL4 PREFETCHES SAME FILL-ORIGIN LEVEL: 0 DIFFERENT FILL-ORIGIN LEVEL: 0

PSCL3 TOTAL     ACCESS:     662279  HIT:     658451  MISS:       3828  HIT %:     99.422  MISS %:   0.578004   MPKI: 0.01914
PSCL3 LOAD TRANSLATION ACCESS:     450579  HIT:     446751  MISS:       3828  HIT %:    99.1504  MISS %:   0.849574   MPKI: 0.01914
PSCL3 TRANSLATION FROM L1D PREFETCHER ACCESS:     211700  HIT:     211700  MISS:          0  HIT %:        100  MISS %:          0   MPKI: 0
PSCL3 PREFETCH  REQUESTED:          0  ISSUED:          0  USEFUL:          0  USELESS:          0
PSCL3 USEFUL LOAD PREFETCHES:          0 PREFETCH ISSUED TO LOWER LEVEL:          0  ACCURACY: -nan
PSCL3 TIMELY PREFETCHES:          0 LATE PREFETCHES: 0 DROPPED PREFETCHES: 0
PSCL3 PREFETCHES SAME FILL-ORIGIN LEVEL: 0 DIFFERENT FILL-ORIGIN LEVEL: 0

PSCL2 TOTAL     ACCESS:     504754  HIT:     381266  MISS:     123488  HIT %:     75.535  MISS %:     24.465   MPKI: 0.61744
PSCL2 LOAD TRANSLATION ACCESS:     462328  HIT:     338840  MISS:     123488  HIT %:      73.29  MISS %:      26.71   MPKI: 0.61744
PSCL2 TRANSLATION FROM L1D PREFETCHER ACCESS:      42426  HIT:      42426  MISS:          0  HIT %:        100  MISS %:          0   MPKI: 0
PSCL2 PREFETCH  REQUESTED:          0  ISSUED:          0  USEFUL:          0  USELESS:          0
PSCL2 USEFUL LOAD PREFETCHES:          0 PREFETCH ISSUED TO LOWER LEVEL:          0  ACCURACY: -nan
PSCL2 TIMELY PREFETCHES:          0 LATE PREFETCHES: 0 DROPPED PREFETCHES: 0
PSCL2 PREFETCHES SAME FILL-ORIGIN LEVEL: 0 DIFFERENT FILL-ORIGIN LEVEL: 0

LLC TOTAL     ACCESS:    4376798  HIT:    4131688  MISS:     245110  HIT %:    94.3998  MISS %:    5.60021   MPKI: 1.22555
LLC LOAD      ACCESS:    3366347  HIT:    3180223  MISS:     186124  HIT %:     94.471  MISS %:    5.52896   MPKI: 0.93062
LLC RFO       ACCESS:     178684  HIT:     137413  MISS:      41271  HIT %:    76.9028  MISS %:    23.0972   MPKI: 0.206355
LLC PREFETCH  ACCESS:      99142  HIT:      87882  MISS:      11260  HIT %:    88.6426  MISS %:    11.3574   MPKI: 0.0563
AGUS PREFETCH L1 MISS: 0
LLC WRITEBACK ACCESS:     482311  HIT:     480831  MISS:       1480  HIT %:    99.6931  MISS %:   0.306856   MPKI: 0.0074
LLC LOAD TRANSLATION ACCESS:     207434  HIT:     204681  MISS:       2753  HIT %:    98.6728  MISS %:    1.32717   MPKI: 0.013765
LLC TRANSLATION FROM L1D PREFETCHER ACCESS:      42880  HIT:      40658  MISS:       2222  HIT %:    94.8181  MISS %:     5.1819   MPKI: 0.01111
LLC PREFETCH  REQUESTED:          0  ISSUED:          0  USEFUL:       5004  USELESS:       7660
LLC USEFUL LOAD PREFETCHES:       5004 PREFETCH ISSUED TO LOWER LEVEL:      11260  ACCURACY: 44.4405
LLC TIMELY PREFETCHES:       5004 LATE PREFETCHES: 0 DROPPED PREFETCHES: 0
LLC PREFETCHES SAME FILL-ORIGIN LEVEL: 0 DIFFERENT FILL-ORIGIN LEVEL: 0
LLC AVERAGE MISS LATENCY: 157.695 cycles
LLC RQ	ACCESS:    3795346	FORWARD:          0	MERGED:          0	TO_CACHE:    3795345
LLC WQ	ACCESS:     482311	FORWARD:          1	MERGED:          0	TO_CACHE:     482311
LLC PQ	ACCESS:      99142	FORWARD:          0	MERGED:          0	TO_CACHE:      99142

LLC Dense regions hint to LLC: 0

RAW hits: 2700354
Loads Generated: 44723442
Loads sent to L1D: 42023088
Stores Generated: 20227563
Stores sent to L1D: 20227584
Major fault: 0 Minor fault: 4015
Allocated PAGES: 4015
Completed 

DRAM Statistics
 CHANNEL 0
 RQ ROW_BUFFER_HIT:      30907  ROW_BUFFER_MISS:     212723
 DBUS_CONGESTED:         82
 WQ ROW_BUFFER_HIT:      18510  ROW_BUFFER_MISS:     183284  FULL:          0

 AVG_CONGESTED_CYCLE: 4
 All warmup complete: 2
Channel 0 Bank busy for read cycles: 0
Channel 0 Bank busy for write cycles: 0
Channel 0
Rank 0
0banks busy for read cycles: 414659481
0banks busy for write cycles: 126644
1banks busy for read cycles: 23874398
1banks busy for write cycles: 17220658
2banks busy for read cycles: 3098906
2banks busy for write cycles: 3657143
3banks busy for read cycles: 437526
3banks busy for write cycles: 925779
4banks busy for read cycles: 213581
4banks busy for write cycles: 382920
5banks busy for read cycles: 82173
5banks busy for write cycles: 231634
6banks busy for read cycles: 44205
6banks busy for write cycles: 166683
7banks busy for read cycles: 32539
7banks busy for write cycles: 168922
8banks busy for read cycles: 38912
8banks busy for write cycles: 241840

CPU 0 Branch Prediction Accuracy: 99.8374% MPKI: 0.292835 Average ROB Occupancy at Mispredict: 37.7318
Branch types
NOT_BRANCH: 163982148 81.9911%
BRANCH_DIRECT_JUMP: 1742577 0.871289%
BRANCH_INDIRECT: 9604965 4.80248%
BRANCH_CONDITIONAL: 18080053 9.04003%
BRANCH_DIRECT_CALL: 2572130 1.28607%
BRANCH_INDIRECT_CALL: 719271 0.359635%
BRANCH_RETURN: 3298511 1.64926%
BRANCH_OTHER: 0 0%

DRAM PAGES: 1048576
Allocated PAGES: 4015
