
*** ChampSim Multicore Out-of-Order Simulator ***

Warmup Instructions: 50000000
Simulation Instructions: 200000000
Number of CPUs: 1
LLC sets: 2048
LLC ways: 16
Off-chip DRAM Size: 4096 MB Channels: 1 Width: 64-bit Data Rate: 6400 MT/s
CPU 0 runs traces/spec2k17/srv_66.champsimtrace.xz
.xz
BTB has LRU replacement policy
ITLB has LRU replacement policy
DTLB has LRU replacement policy
STLB has LRU replacement policy
L1I has LRU replacement policy
L1D has LRU replacement policy
Initialize SRRIP state for L2C
Initialize DRRIP state for LLC
Heartbeat CPU 0 instructions: 10000000 cycles: 2772212 heartbeat IPC: 3.60723 cumulative IPC: 3.60723 (Simulation time: 0 hr 0 min 34 sec) 
Heartbeat CPU 0 instructions: 20000000 cycles: 5534858 heartbeat IPC: 3.61972 cumulative IPC: 3.61346 (Simulation time: 0 hr 1 min 6 sec) 
Heartbeat CPU 0 instructions: 30000002 cycles: 8299885 heartbeat IPC: 3.6166 cumulative IPC: 3.61451 (Simulation time: 0 hr 1 min 33 sec) 
*** Reached end of trace for Core: 0 Repeating trace: traces/spec2k17/srv_66.champsimtrace.xz
Heartbeat CPU 0 instructions: 40000003 cycles: 11067158 heartbeat IPC: 3.61367 cumulative IPC: 3.6143 (Simulation time: 0 hr 2 min 0 sec) 
Heartbeat CPU 0 instructions: 50000001 cycles: 13832262 heartbeat IPC: 3.6165 cumulative IPC: 3.61474 (Simulation time: 0 hr 2 min 25 sec) 

Warmup complete CPU 0 instructions: 50000001 cycles: 13832262 (Simulation time: 0 hr 2 min 25 sec) 

Heartbeat CPU 0 instructions: 60000000 cycles: 35282951 heartbeat IPC: 0.466185 cumulative IPC: 0.466185 (Simulation time: 0 hr 3 min 8 sec) 
*** Reached end of trace for Core: 0 Repeating trace: traces/spec2k17/srv_66.champsimtrace.xz
Heartbeat CPU 0 instructions: 70000001 cycles: 57500775 heartbeat IPC: 0.450089 cumulative IPC: 0.457996 (Simulation time: 0 hr 3 min 45 sec) 
Heartbeat CPU 0 instructions: 80000002 cycles: 78959645 heartbeat IPC: 0.466008 cumulative IPC: 0.460636 (Simulation time: 0 hr 4 min 22 sec) 
Heartbeat CPU 0 instructions: 90000000 cycles: 100312747 heartbeat IPC: 0.468316 cumulative IPC: 0.462532 (Simulation time: 0 hr 4 min 57 sec) 
*** Reached end of trace for Core: 0 Repeating trace: traces/spec2k17/srv_66.champsimtrace.xz
Heartbeat CPU 0 instructions: 100000001 cycles: 122488933 heartbeat IPC: 0.450934 cumulative IPC: 0.460165 (Simulation time: 0 hr 5 min 34 sec) 
Heartbeat CPU 0 instructions: 110000000 cycles: 143745080 heartbeat IPC: 0.470452 cumulative IPC: 0.461848 (Simulation time: 0 hr 6 min 9 sec) 
Heartbeat CPU 0 instructions: 120000002 cycles: 165265460 heartbeat IPC: 0.464676 cumulative IPC: 0.46225 (Simulation time: 0 hr 6 min 45 sec) 
*** Reached end of trace for Core: 0 Repeating trace: traces/spec2k17/srv_66.champsimtrace.xz
Heartbeat CPU 0 instructions: 130000003 cycles: 187281173 heartbeat IPC: 0.454221 cumulative IPC: 0.461231 (Simulation time: 0 hr 7 min 25 sec) 
Heartbeat CPU 0 instructions: 140000002 cycles: 208591306 heartbeat IPC: 0.46926 cumulative IPC: 0.462109 (Simulation time: 0 hr 8 min 15 sec) 
Heartbeat CPU 0 instructions: 150000003 cycles: 230166808 heartbeat IPC: 0.463489 cumulative IPC: 0.462247 (Simulation time: 0 hr 8 min 53 sec) 
*** Reached end of trace for Core: 0 Repeating trace: traces/spec2k17/srv_66.champsimtrace.xz
Heartbeat CPU 0 instructions: 160000002 cycles: 251851362 heartbeat IPC: 0.461158 cumulative IPC: 0.462148 (Simulation time: 0 hr 9 min 31 sec) 
Heartbeat CPU 0 instructions: 170000003 cycles: 273328972 heartbeat IPC: 0.465601 cumulative IPC: 0.462434 (Simulation time: 0 hr 10 min 15 sec) 
Heartbeat CPU 0 instructions: 180000002 cycles: 294895408 heartbeat IPC: 0.463683 cumulative IPC: 0.46253 (Simulation time: 0 hr 10 min 54 sec) 
*** Reached end of trace for Core: 0 Repeating trace: traces/spec2k17/srv_66.champsimtrace.xz
Heartbeat CPU 0 instructions: 190000003 cycles: 316519173 heartbeat IPC: 0.462454 cumulative IPC: 0.462524 (Simulation time: 0 hr 11 min 34 sec) 
Heartbeat CPU 0 instructions: 200000002 cycles: 337913056 heartbeat IPC: 0.467423 cumulative IPC: 0.462848 (Simulation time: 0 hr 12 min 19 sec) 
Heartbeat CPU 0 instructions: 210000003 cycles: 359583213 heartbeat IPC: 0.461464 cumulative IPC: 0.462761 (Simulation time: 0 hr 13 min 22 sec) 
*** Reached end of trace for Core: 0 Repeating trace: traces/spec2k17/srv_66.champsimtrace.xz
Heartbeat CPU 0 instructions: 220000000 cycles: 381029013 heartbeat IPC: 0.466292 cumulative IPC: 0.462967 (Simulation time: 0 hr 14 min 30 sec) 
Heartbeat CPU 0 instructions: 230000002 cycles: 402494484 heartbeat IPC: 0.465865 cumulative IPC: 0.463127 (Simulation time: 0 hr 15 min 35 sec) 
Heartbeat CPU 0 instructions: 240000003 cycles: 424075181 heartbeat IPC: 0.463377 cumulative IPC: 0.46314 (Simulation time: 0 hr 16 min 36 sec) 
*** Reached end of trace for Core: 0 Repeating trace: traces/spec2k17/srv_66.champsimtrace.xz
Heartbeat CPU 0 instructions: 250000003 cycles: 445384008 heartbeat IPC: 0.469289 cumulative IPC: 0.463444 (Simulation time: 0 hr 17 min 33 sec) 
Finished CPU 0 instructions: 200000002 cycles: 431551746 cumulative IPC: 0.463444 (Simulation time: 0 hr 17 min 33 sec) 

ChampSim completed all CPUs

Region of Interest Statistics

CPU 0 cumulative IPC: 0.463444 instructions: 200000002 cycles: 431551746
ITLB TOTAL     ACCESS:   31543175  HIT:   30749414  MISS:     793761  HIT %:    97.4836  MISS %:    2.51643   MPKI: 3.9688
ITLB LOAD TRANSLATION ACCESS:   31543175  HIT:   30749414  MISS:     793761  HIT %:    97.4836  MISS %:    2.51643   MPKI: 3.9688
ITLB PREFETCH  REQUESTED:          0  ISSUED:          0  USEFUL:          0  USELESS:          0
ITLB USEFUL LOAD PREFETCHES:          0 PREFETCH ISSUED TO LOWER LEVEL:          0  ACCURACY: -nan
ITLB TIMELY PREFETCHES:          0 LATE PREFETCHES: 0 DROPPED PREFETCHES: 0
ITLB PREFETCHES SAME FILL-ORIGIN LEVEL: 0 DIFFERENT FILL-ORIGIN LEVEL: 0
ITLB AVERAGE MISS LATENCY: 14.0194 cycles
ITLB RQ	ACCESS:   38319446	FORWARD:          0	MERGED:    6582058	TO_CACHE:   31737388

DTLB TOTAL     ACCESS:   36983986  HIT:   34415188  MISS:    2568798  HIT %:    93.0543  MISS %:     6.9457   MPKI: 12.844
DTLB LOAD TRANSLATION ACCESS:   36983986  HIT:   34415188  MISS:    2568798  HIT %:    93.0543  MISS %:     6.9457   MPKI: 12.844
DTLB PREFETCH  REQUESTED:          0  ISSUED:          0  USEFUL:          0  USELESS:          0
DTLB USEFUL LOAD PREFETCHES:          0 PREFETCH ISSUED TO LOWER LEVEL:          0  ACCURACY: -nan
DTLB TIMELY PREFETCHES:          0 LATE PREFETCHES: 0 DROPPED PREFETCHES: 0
DTLB PREFETCHES SAME FILL-ORIGIN LEVEL: 0 DIFFERENT FILL-ORIGIN LEVEL: 0
DTLB AVERAGE MISS LATENCY: 13.1303 cycles
DTLB RQ	ACCESS:   47512519	FORWARD:          0	MERGED:   10387061	TO_CACHE:   37125458

STLB TOTAL     ACCESS:   11429252  HIT:   11082322  MISS:     346930  HIT %:    96.9645  MISS %:    3.03546   MPKI: 1.73465
STLB LOAD TRANSLATION ACCESS:    3362559  HIT:    3025047  MISS:     337512  HIT %:    89.9626  MISS %:    10.0374   MPKI: 1.68756
STLB TRANSLATION FROM L1D PREFETCHER ACCESS:    8066693  HIT:    8057275  MISS:       9418  HIT %:    99.8832  MISS %:   0.116752   MPKI: 0.04709
STLB PREFETCH  REQUESTED:          0  ISSUED:          0  USEFUL:       7927  USELESS:       1485
STLB USEFUL LOAD PREFETCHES:       7927 PREFETCH ISSUED TO LOWER LEVEL:          0  ACCURACY: inf
STLB TIMELY PREFETCHES:       7927 LATE PREFETCHES: 2295 DROPPED PREFETCHES: 240305
STLB PREFETCHES SAME FILL-ORIGIN LEVEL: 0 DIFFERENT FILL-ORIGIN LEVEL: 0
STLB AVERAGE MISS LATENCY: 2062.05 cycles
STLB RQ	ACCESS:   13538708	FORWARD:          0	MERGED:    1864966	TO_CACHE:   11673742

STLB Hit, L1D data hit: 0
STLB Hit, L2C data hit: 0
STLB Hit, LLC data hit: 0
STLB Hit, LLC data miss: 0
STLB STLB hints to L2: 0
L1D TOTAL     ACCESS:   56716018  HIT:   54185046  MISS:    2530972  HIT %:    95.5375  MISS %:    4.46253   MPKI: 12.6549
L1D LOAD      ACCESS:   27404294  HIT:   25407852  MISS:    1996442  HIT %:    92.7149  MISS %:    7.28514   MPKI: 9.98221
L1D RFO       ACCESS:   19570265  HIT:   19245767  MISS:     324498  HIT %:    98.3419  MISS %:    1.65812   MPKI: 1.62249
L1D PREFETCH  ACCESS:    9741459  HIT:    9531427  MISS:     210032  HIT %:    97.8439  MISS %:    2.15606   MPKI: 1.05016
AGUS PREFETCH L1 MISS: 0
L1D PREFETCH  REQUESTED:   21821519  ISSUED:   21819788  USEFUL:     131981  USELESS:      78038
L1D USEFUL LOAD PREFETCHES:     131981 PREFETCH ISSUED TO LOWER LEVEL:     274395  ACCURACY: 48.0989
L1D TIMELY PREFETCHES:     131981 LATE PREFETCHES: 64197 DROPPED PREFETCHES: 258452
L1D PREFETCHES SAME FILL-ORIGIN LEVEL: 274395 DIFFERENT FILL-ORIGIN LEVEL: 0
L1D AVERAGE MISS LATENCY: 7.5096e+06 cycles
L1D RQ	ACCESS:   42107371	FORWARD:          0	MERGED:   14326078	TO_CACHE:   27536203
L1D WQ	ACCESS:   20281804	FORWARD:     309087	MERGED:     305488	TO_CACHE:   19976316
L1D PQ	ACCESS:   11643639	FORWARD:          0	MERGED:    1403493	TO_CACHE:   10176149

L1D UNIQUE REGIONS ACCESSED: 0
L1D REGIONS CONFLICTS: 0
L1D Cross Page Prefetch Requests: 8472036
L1D Same Page Prefetch Requests: 4989089
L1D ROI Sum of L1D PQ occupancy: 152379955
L1D PREFETCHES PUSHED FROM L2C: 0
L1I TOTAL     ACCESS:   36538334  HIT:   31499872  MISS:    5038462  HIT %:    86.2105  MISS %:    13.7895   MPKI: 25.1923
L1I LOAD      ACCESS:   36538334  HIT:   31499872  MISS:    5038462  HIT %:    86.2105  MISS %:    13.7895   MPKI: 25.1923
L1I PREFETCH  REQUESTED:          0  ISSUED:          0  USEFUL:          0  USELESS:          0
L1I USEFUL LOAD PREFETCHES:          0 PREFETCH ISSUED TO LOWER LEVEL:          0  ACCURACY: -nan
L1I TIMELY PREFETCHES:          0 LATE PREFETCHES: 0 DROPPED PREFETCHES: 0
L1I PREFETCHES SAME FILL-ORIGIN LEVEL: 0 DIFFERENT FILL-ORIGIN LEVEL: 0
L1I AVERAGE MISS LATENCY: 25.1895 cycles
L1I RQ	ACCESS:   57205361	FORWARD:          0	MERGED:   18885915	TO_CACHE:   38319446

BTB TOTAL     ACCESS:   22223393  HIT:   18065540  MISS:    4157853  HIT %:    81.2906  MISS %:    18.7094   MPKI: 20.7893
BTB BRANCH_DIRECT_JUMP	ACCESS:    1718257  HIT:    1473997  MISS:     244260
BTB BRANCH_INDIRECT	ACCESS:    9436323  HIT:    7433911  MISS:    2002412
BTB BRANCH_CONDITIONAL	ACCESS:    4754690  HIT:    4374903  MISS:     379787
BTB BRANCH_DIRECT_CALL	ACCESS:    2480173  HIT:    2032253  MISS:     447920
BTB BRANCH_INDIRECT_CALL	ACCESS:     676469  HIT:     636836  MISS:      39633
BTB BRANCH_RETURN	ACCESS:    3157481  HIT:    2113640  MISS:    1043841
BTB BRANCH_OTHER ACCESS:          0  HIT:          0  MISS:          0

L2C TOTAL     ACCESS:    9336900  HIT:    6194076  MISS:    3142824  HIT %:    66.3397  MISS %:    33.6603   MPKI: 15.7141
L2C LOAD      ACCESS:    6970653  HIT:    4320208  MISS:    2650445  HIT %:    61.9771  MISS %:    38.0229   MPKI: 13.2522
L2C DATA LOAD MPKI: 4.36959
L2C INSTRUCTION LOAD MPKI: 8.88263
L2C RFO       ACCESS:     324332  HIT:     180321  MISS:     144011  HIT %:    55.5977  MISS %:    44.4023   MPKI: 0.720055
L2C PREFETCH  ACCESS:     274394  HIT:     188802  MISS:      85592  HIT %:    68.8069  MISS %:    31.1931   MPKI: 0.42796
AGUS PREFETCH L1 MISS: 0
L2C DATA PREFETCH MPKI: 0.42796
L2C INSTRUCTION PREFETCH MPKI: 0
L2C WRITEBACK ACCESS:    1009956  HIT:     953672  MISS:      56284  HIT %:    94.4271  MISS %:    5.57292   MPKI: 0.28142
L2C LOAD TRANSLATION ACCESS:     443112  HIT:     271979  MISS:     171133  HIT %:    61.3793  MISS %:    38.6207   MPKI: 0.855665
L2C TRANSLATION FROM L1D PREFETCHER ACCESS:     314453  HIT:     279094  MISS:      35359  HIT %:    88.7554  MISS %:    11.2446   MPKI: 0.176795
L2C PREFETCH  REQUESTED:          0  ISSUED:          0  USEFUL:      28012  USELESS:      92780
L2C USEFUL LOAD PREFETCHES:      28012 PREFETCH ISSUED TO LOWER LEVEL:      85592  ACCURACY: 32.7274
L2C TIMELY PREFETCHES:      28012 LATE PREFETCHES: 0 DROPPED PREFETCHES: 0
L2C PREFETCHES SAME FILL-ORIGIN LEVEL: 0 DIFFERENT FILL-ORIGIN LEVEL: 0
L2C AVERAGE MISS LATENCY: 44.6985 cycles
L2C RQ	ACCESS:    8052605	FORWARD:          0	MERGED:          0	TO_CACHE:    8052551
L2C WQ	ACCESS:    1009956	FORWARD:         55	MERGED:          0	TO_CACHE:    1009956
L2C PQ	ACCESS:     274395	FORWARD:          0	MERGED:          0	TO_CACHE:     274394

L2C Instructions Evicting Data 628676
L2C Translations Evicting Data 80690
L2C Data Evicting Data 428586
L2C Instructions Evicting Instructions 1037027
L2C Translations Evicting Instructions 109822
L2C Data Evicting Instructions 598499
L2C Instructions Evicting Translations 110823
L2C Translations Evicting Translations 15980
L2C Data Evicting Translations 76437
L2C Dense regions hint from L2: 0
PSCL5 TOTAL     ACCESS:     535704  HIT:     535704  MISS:          0  HIT %:        100  MISS %:          0   MPKI: 0
PSCL5 LOAD TRANSLATION ACCESS:     335217  HIT:     335217  MISS:          0  HIT %:        100  MISS %:          0   MPKI: 0
PSCL5 TRANSLATION FROM L1D PREFETCHER ACCESS:     200487  HIT:     200487  MISS:          0  HIT %:        100  MISS %:          0   MPKI: 0
PSCL5 PREFETCH  REQUESTED:          0  ISSUED:          0  USEFUL:          0  USELESS:          0
PSCL5 USEFUL LOAD PREFETCHES:          0 PREFETCH ISSUED TO LOWER LEVEL:          0  ACCURACY: -nan
PSCL5 TIMELY PREFETCHES:          0 LATE PREFETCHES: 0 DROPPED PREFETCHES: 0
PSCL5 PREFETCHES SAME FILL-ORIGIN LEVEL: 0 DIFFERENT FILL-ORIGIN LEVEL: 0

PSCL4 TOTAL     ACCESS:     507574  HIT:     506279  MISS:       1295  HIT %:    99.7449  MISS %:   0.255135   MPKI: 0.006475
PSCL4 LOAD TRANSLATION ACCESS:     325921  HIT:     324626  MISS:       1295  HIT %:    99.6027  MISS %:   0.397336   MPKI: 0.006475
PSCL4 TRANSLATION FROM L1D PREFETCHER ACCESS:     181653  HIT:     181653  MISS:          0  HIT %:        100  MISS %:          0   MPKI: 0
PSCL4 PREFETCH  REQUESTED:          0  ISSUED:          0  USEFUL:          0  USELESS:          0
PSCL4 USEFUL LOAD PREFETCHES:          0 PREFETCH ISSUED TO LOWER LEVEL:          0  ACCURACY: -nan
PSCL4 TIMELY PREFETCHES:          0 LATE PREFETCHES: 0 DROPPED PREFETCHES: 0
PSCL4 PREFETCHES SAME FILL-ORIGIN LEVEL: 0 DIFFERENT FILL-ORIGIN LEVEL: 0

PSCL3 TOTAL     ACCESS:     492200  HIT:     490905  MISS:       1295  HIT %:    99.7369  MISS %:   0.263104   MPKI: 0.006475
PSCL3 LOAD TRANSLATION ACCESS:     332687  HIT:     331392  MISS:       1295  HIT %:    99.6107  MISS %:   0.389255   MPKI: 0.006475
PSCL3 TRANSLATION FROM L1D PREFETCHER ACCESS:     159513  HIT:     159513  MISS:          0  HIT %:        100  MISS %:          0   MPKI: 0
PSCL3 PREFETCH  REQUESTED:          0  ISSUED:          0  USEFUL:          0  USELESS:          0
PSCL3 USEFUL LOAD PREFETCHES:          0 PREFETCH ISSUED TO LOWER LEVEL:          0  ACCURACY: -nan
PSCL3 TIMELY PREFETCHES:          0 LATE PREFETCHES: 0 DROPPED PREFETCHES: 0
PSCL3 PREFETCHES SAME FILL-ORIGIN LEVEL: 0 DIFFERENT FILL-ORIGIN LEVEL: 0

PSCL2 TOTAL     ACCESS:     371440  HIT:     259743  MISS:     111697  HIT %:    69.9287  MISS %:    30.0713   MPKI: 0.558485
PSCL2 LOAD TRANSLATION ACCESS:     341465  HIT:     229768  MISS:     111697  HIT %:    67.2889  MISS %:    32.7111   MPKI: 0.558485
PSCL2 TRANSLATION FROM L1D PREFETCHER ACCESS:      29975  HIT:      29975  MISS:          0  HIT %:        100  MISS %:          0   MPKI: 0
PSCL2 PREFETCH  REQUESTED:          0  ISSUED:          0  USEFUL:          0  USELESS:          0
PSCL2 USEFUL LOAD PREFETCHES:          0 PREFETCH ISSUED TO LOWER LEVEL:          0  ACCURACY: -nan
PSCL2 TIMELY PREFETCHES:          0 LATE PREFETCHES: 0 DROPPED PREFETCHES: 0
PSCL2 PREFETCHES SAME FILL-ORIGIN LEVEL: 0 DIFFERENT FILL-ORIGIN LEVEL: 0

LLC TOTAL     ACCESS:    3519741  HIT:    3202269  MISS:     317472  HIT %:    90.9802  MISS %:    9.01975   MPKI: 1.58736
LLC LOAD      ACCESS:    2650445  HIT:    2406753  MISS:     243692  HIT %:    90.8056  MISS %:    9.19438   MPKI: 1.21846
LLC RFO       ACCESS:     144011  HIT:      96488  MISS:      47523  HIT %:    67.0004  MISS %:    32.9996   MPKI: 0.237615
LLC PREFETCH  ACCESS:      85591  HIT:      76372  MISS:       9219  HIT %:     89.229  MISS %:     10.771   MPKI: 0.046095
AGUS PREFETCH L1 MISS: 0
LLC WRITEBACK ACCESS:     433202  HIT:     431068  MISS:       2134  HIT %:    99.5074  MISS %:   0.492611   MPKI: 0.01067
LLC LOAD TRANSLATION ACCESS:     171133  HIT:     158674  MISS:      12459  HIT %:    92.7197  MISS %:     7.2803   MPKI: 0.062295
LLC TRANSLATION FROM L1D PREFETCHER ACCESS:      35359  HIT:      32914  MISS:       2445  HIT %:    93.0852  MISS %:    6.91479   MPKI: 0.012225
LLC PREFETCH  REQUESTED:          0  ISSUED:          0  USEFUL:       1961  USELESS:       9180
LLC USEFUL LOAD PREFETCHES:       1961 PREFETCH ISSUED TO LOWER LEVEL:       9219  ACCURACY: 21.2713
LLC TIMELY PREFETCHES:       1961 LATE PREFETCHES: 0 DROPPED PREFETCHES: 0
LLC PREFETCHES SAME FILL-ORIGIN LEVEL: 0 DIFFERENT FILL-ORIGIN LEVEL: 0
LLC AVERAGE MISS LATENCY: 150.822 cycles
LLC RQ	ACCESS:    3000949	FORWARD:          0	MERGED:          0	TO_CACHE:    3000949
LLC WQ	ACCESS:     433202	FORWARD:          1	MERGED:          0	TO_CACHE:     433202
LLC PQ	ACCESS:      85592	FORWARD:          0	MERGED:          0	TO_CACHE:      85591

LLC Dense regions hint to LLC: 0

RAW hits: 2860869
Loads Generated: 44968240
Loads sent to L1D: 42107371
Stores Generated: 20281799
Stores sent to L1D: 20281804
Major fault: 0 Minor fault: 6269
Allocated PAGES: 6269
Completed 

DRAM Statistics
 CHANNEL 0
 RQ ROW_BUFFER_HIT:      63033  ROW_BUFFER_MISS:     252305
 DBUS_CONGESTED:        202
 WQ ROW_BUFFER_HIT:      32047  ROW_BUFFER_MISS:     187733  FULL:          0

 AVG_CONGESTED_CYCLE: 4
 All warmup complete: 2
Channel 0 Bank busy for read cycles: 0
Channel 0 Bank busy for write cycles: 0
Channel 0
Rank 0
0banks busy for read cycles: 372541289
0banks busy for write cycles: 122984
1banks busy for read cycles: 28765403
1banks busy for write cycles: 17331801
2banks busy for read cycles: 3968864
2banks busy for write cycles: 4265965
3banks busy for read cycles: 572505
3banks busy for write cycles: 1461566
4banks busy for read cycles: 226832
4banks busy for write cycles: 748154
5banks busy for read cycles: 94286
5banks busy for write cycles: 445662
6banks busy for read cycles: 71271
6banks busy for write cycles: 306669
7banks busy for read cycles: 51233
7banks busy for write cycles: 265176
8banks busy for read cycles: 51595
8banks busy for write cycles: 260492

CPU 0 Branch Prediction Accuracy: 99.8407% MPKI: 0.28518 Average ROB Occupancy at Mispredict: 48.2977
Branch types
NOT_BRANCH: 164201220 82.1006%
BRANCH_DIRECT_JUMP: 1718257 0.859128%
BRANCH_INDIRECT: 9436323 4.71816%
BRANCH_CONDITIONAL: 18329753 9.16488%
BRANCH_DIRECT_CALL: 2480173 1.24009%
BRANCH_INDIRECT_CALL: 676469 0.338234%
BRANCH_RETURN: 3157481 1.57874%
BRANCH_OTHER: 0 0%

DRAM PAGES: 1048576
Allocated PAGES: 6269
