
*** ChampSim Multicore Out-of-Order Simulator ***

Warmup Instructions: 50000000
Simulation Instructions: 200000000
Number of CPUs: 1
LLC sets: 2048
LLC ways: 16
Off-chip DRAM Size: 4096 MB Channels: 1 Width: 64-bit Data Rate: 6400 MT/s
CPU 0 runs traces/spec2k17/srv_76.champsimtrace.xz
.xz
BTB has LRU replacement policy
ITLB has LRU replacement policy
DTLB has LRU replacement policy
STLB has LRU replacement policy
L1I has LRU replacement policy
L1D has LRU replacement policy
Initialize SRRIP state for L2C
Initialize DRRIP state for LLC
Heartbeat CPU 0 instructions: 10000002 cycles: 2946678 heartbeat IPC: 3.39365 cumulative IPC: 3.39365 (Simulation time: 0 hr 0 min 40 sec) 
Heartbeat CPU 0 instructions: 20000002 cycles: 5886451 heartbeat IPC: 3.40162 cumulative IPC: 3.39763 (Simulation time: 0 hr 1 min 20 sec) 
Heartbeat CPU 0 instructions: 30000000 cycles: 8834669 heartbeat IPC: 3.39188 cumulative IPC: 3.39571 (Simulation time: 0 hr 2 min 0 sec) 
*** Reached end of trace for Core: 0 Repeating trace: traces/spec2k17/srv_76.champsimtrace.xz
Heartbeat CPU 0 instructions: 40000002 cycles: 11783279 heartbeat IPC: 3.39143 cumulative IPC: 3.39464 (Simulation time: 0 hr 2 min 44 sec) 
Heartbeat CPU 0 instructions: 50000000 cycles: 14724198 heartbeat IPC: 3.4003 cumulative IPC: 3.39577 (Simulation time: 0 hr 3 min 14 sec) 

Warmup complete CPU 0 instructions: 50000004 cycles: 14724199 (Simulation time: 0 hr 3 min 14 sec) 

Heartbeat CPU 0 instructions: 60000001 cycles: 34831312 heartbeat IPC: 0.497336 cumulative IPC: 0.497336 (Simulation time: 0 hr 4 min 2 sec) 
*** Reached end of trace for Core: 0 Repeating trace: traces/spec2k17/srv_76.champsimtrace.xz
Heartbeat CPU 0 instructions: 70000002 cycles: 54438497 heartbeat IPC: 0.510017 cumulative IPC: 0.503597 (Simulation time: 0 hr 4 min 50 sec) 
Heartbeat CPU 0 instructions: 80000001 cycles: 73973677 heartbeat IPC: 0.511897 cumulative IPC: 0.506334 (Simulation time: 0 hr 5 min 38 sec) 
Heartbeat CPU 0 instructions: 90000001 cycles: 93522785 heartbeat IPC: 0.511532 cumulative IPC: 0.507623 (Simulation time: 0 hr 6 min 25 sec) 
*** Reached end of trace for Core: 0 Repeating trace: traces/spec2k17/srv_76.champsimtrace.xz
Heartbeat CPU 0 instructions: 100000000 cycles: 113040041 heartbeat IPC: 0.512367 cumulative IPC: 0.508565 (Simulation time: 0 hr 7 min 13 sec) 
Heartbeat CPU 0 instructions: 110000000 cycles: 132553455 heartbeat IPC: 0.512468 cumulative IPC: 0.509211 (Simulation time: 0 hr 8 min 5 sec) 
Heartbeat CPU 0 instructions: 120000000 cycles: 152037178 heartbeat IPC: 0.513249 cumulative IPC: 0.509784 (Simulation time: 0 hr 8 min 53 sec) 
*** Reached end of trace for Core: 0 Repeating trace: traces/spec2k17/srv_76.champsimtrace.xz
Heartbeat CPU 0 instructions: 130000001 cycles: 171586220 heartbeat IPC: 0.511534 cumulative IPC: 0.510002 (Simulation time: 0 hr 9 min 40 sec) 
Heartbeat CPU 0 instructions: 140000000 cycles: 191064494 heartbeat IPC: 0.513392 cumulative IPC: 0.510377 (Simulation time: 0 hr 10 min 29 sec) 
Heartbeat CPU 0 instructions: 150000001 cycles: 210562843 heartbeat IPC: 0.512864 cumulative IPC: 0.510624 (Simulation time: 0 hr 11 min 16 sec) 
Heartbeat CPU 0 instructions: 160000003 cycles: 230056202 heartbeat IPC: 0.512995 cumulative IPC: 0.510839 (Simulation time: 0 hr 12 min 34 sec) 
*** Reached end of trace for Core: 0 Repeating trace: traces/spec2k17/srv_76.champsimtrace.xz
Heartbeat CPU 0 instructions: 170000000 cycles: 249607587 heartbeat IPC: 0.511473 cumulative IPC: 0.510892 (Simulation time: 0 hr 13 min 57 sec) 
Heartbeat CPU 0 instructions: 180000001 cycles: 269099996 heartbeat IPC: 0.51302 cumulative IPC: 0.511055 (Simulation time: 0 hr 15 min 18 sec) 
Heartbeat CPU 0 instructions: 190000000 cycles: 288624292 heartbeat IPC: 0.512182 cumulative IPC: 0.511135 (Simulation time: 0 hr 16 min 30 sec) 
*** Reached end of trace for Core: 0 Repeating trace: traces/spec2k17/srv_76.champsimtrace.xz
Heartbeat CPU 0 instructions: 200000003 cycles: 308137721 heartbeat IPC: 0.512468 cumulative IPC: 0.511224 (Simulation time: 0 hr 17 min 35 sec) 
Heartbeat CPU 0 instructions: 210000000 cycles: 327641735 heartbeat IPC: 0.512715 cumulative IPC: 0.511317 (Simulation time: 0 hr 18 min 38 sec) 
Heartbeat CPU 0 instructions: 220000000 cycles: 347113517 heartbeat IPC: 0.513564 cumulative IPC: 0.511448 (Simulation time: 0 hr 19 min 22 sec) 
*** Reached end of trace for Core: 0 Repeating trace: traces/spec2k17/srv_76.champsimtrace.xz
Heartbeat CPU 0 instructions: 230000003 cycles: 366641334 heartbeat IPC: 0.51209 cumulative IPC: 0.511484 (Simulation time: 0 hr 20 min 7 sec) 
Heartbeat CPU 0 instructions: 240000000 cycles: 386063367 heartbeat IPC: 0.514879 cumulative IPC: 0.511662 (Simulation time: 0 hr 20 min 49 sec) 
Heartbeat CPU 0 instructions: 250000001 cycles: 405616346 heartbeat IPC: 0.511431 cumulative IPC: 0.51165 (Simulation time: 0 hr 21 min 31 sec) 
Finished CPU 0 instructions: 200000000 cycles: 390892149 cumulative IPC: 0.51165 (Simulation time: 0 hr 21 min 31 sec) 

ChampSim completed all CPUs

Region of Interest Statistics

CPU 0 cumulative IPC: 0.51165 instructions: 200000000 cycles: 390892149
ITLB TOTAL     ACCESS:   33766758  HIT:   32235513  MISS:    1531245  HIT %:    95.4652  MISS %:    4.53477   MPKI: 7.65623
ITLB LOAD TRANSLATION ACCESS:   33766758  HIT:   32235513  MISS:    1531245  HIT %:    95.4652  MISS %:    4.53477   MPKI: 7.65623
ITLB PREFETCH  REQUESTED:          0  ISSUED:          0  USEFUL:          0  USELESS:          0
ITLB USEFUL LOAD PREFETCHES:          0 PREFETCH ISSUED TO LOWER LEVEL:          0  ACCURACY: -nan
ITLB TIMELY PREFETCHES:          0 LATE PREFETCHES: 0 DROPPED PREFETCHES: 0
ITLB PREFETCHES SAME FILL-ORIGIN LEVEL: 0 DIFFERENT FILL-ORIGIN LEVEL: 0
ITLB AVERAGE MISS LATENCY: 9.22455 cycles
ITLB RQ	ACCESS:   40658051	FORWARD:          0	MERGED:    6396829	TO_CACHE:   34261222

DTLB TOTAL     ACCESS:   39937702  HIT:   38409446  MISS:    1528256  HIT %:    96.1734  MISS %:     3.8266   MPKI: 7.64128
DTLB LOAD TRANSLATION ACCESS:   39937702  HIT:   38409446  MISS:    1528256  HIT %:    96.1734  MISS %:     3.8266   MPKI: 7.64128
DTLB PREFETCH  REQUESTED:          0  ISSUED:          0  USEFUL:          0  USELESS:          0
DTLB USEFUL LOAD PREFETCHES:          0 PREFETCH ISSUED TO LOWER LEVEL:          0  ACCURACY: -nan
DTLB TIMELY PREFETCHES:          0 LATE PREFETCHES: 0 DROPPED PREFETCHES: 0
DTLB PREFETCHES SAME FILL-ORIGIN LEVEL: 0 DIFFERENT FILL-ORIGIN LEVEL: 0
DTLB AVERAGE MISS LATENCY: 14.9297 cycles
DTLB RQ	ACCESS:   61072146	FORWARD:          0	MERGED:   20757061	TO_CACHE:   40315085

STLB TOTAL     ACCESS:    9800843  HIT:    9722328  MISS:      78515  HIT %:    99.1989  MISS %:   0.801105   MPKI: 0.392575
STLB LOAD TRANSLATION ACCESS:    3059501  HIT:    2983532  MISS:      75969  HIT %:    97.5169  MISS %:    2.48305   MPKI: 0.379845
STLB TRANSLATION FROM L1D PREFETCHER ACCESS:    6741342  HIT:    6738796  MISS:       2546  HIT %:    99.9622  MISS %:   0.037767   MPKI: 0.01273
STLB PREFETCH  REQUESTED:          0  ISSUED:          0  USEFUL:       2460  USELESS:         85
STLB USEFUL LOAD PREFETCHES:       2460 PREFETCH ISSUED TO LOWER LEVEL:          0  ACCURACY: inf
STLB TIMELY PREFETCHES:       2460 LATE PREFETCHES: 981 DROPPED PREFETCHES: 30004
STLB PREFETCHES SAME FILL-ORIGIN LEVEL: 0 DIFFERENT FILL-ORIGIN LEVEL: 0
STLB AVERAGE MISS LATENCY: 155279 cycles
STLB RQ	ACCESS:   12684025	FORWARD:          0	MERGED:    2851668	TO_CACHE:    9832357

STLB Hit, L1D data hit: 0
STLB Hit, L2C data hit: 0
STLB Hit, LLC data hit: 0
STLB Hit, LLC data miss: 0
STLB STLB hints to L2: 0
L1D TOTAL     ACCESS:   57192885  HIT:   50203808  MISS:    6989077  HIT %:    87.7798  MISS %:    12.2202   MPKI: 34.9454
L1D LOAD      ACCESS:   26668325  HIT:   23802657  MISS:    2865668  HIT %:    89.2544  MISS %:    10.7456   MPKI: 14.3283
L1D RFO       ACCESS:   22316265  HIT:   18608523  MISS:    3707742  HIT %:    83.3855  MISS %:    16.6145   MPKI: 18.5387
L1D PREFETCH  ACCESS:    8208295  HIT:    7792628  MISS:     415667  HIT %:     94.936  MISS %:    5.06399   MPKI: 2.07834
AGUS PREFETCH L1 MISS: 0
L1D PREFETCH  REQUESTED:   20803268  ISSUED:   20801882  USEFUL:     244806  USELESS:     170842
L1D USEFUL LOAD PREFETCHES:     244806 PREFETCH ISSUED TO LOWER LEVEL:     861805  ACCURACY: 28.4062
L1D TIMELY PREFETCHES:     244806 LATE PREFETCHES: 443936 DROPPED PREFETCHES: 31089
L1D PREFETCHES SAME FILL-ORIGIN LEVEL: 861805 DIFFERENT FILL-ORIGIN LEVEL: 0
L1D AVERAGE MISS LATENCY: 1.37322e+07 cycles
L1D RQ	ACCESS:   45171799	FORWARD:          0	MERGED:   17823836	TO_CACHE:   27068652
L1D WQ	ACCESS:   34202058	FORWARD:     315835	MERGED:     198564	TO_CACHE:   34003494
L1D PQ	ACCESS:   11177358	FORWARD:          0	MERGED:    1516310	TO_CACHE:    9624524

L1D UNIQUE REGIONS ACCESSED: 0
L1D REGIONS CONFLICTS: 0
L1D Cross Page Prefetch Requests: 4544563
L1D Same Page Prefetch Requests: 8373011
L1D ROI Sum of L1D PQ occupancy: 140294236
L1D PREFETCHES PUSHED FROM L2C: 0
L1I TOTAL     ACCESS:   38013979  HIT:   28962937  MISS:    9051042  HIT %:    76.1902  MISS %:    23.8098   MPKI: 45.2552
L1I LOAD      ACCESS:   38013979  HIT:   28962937  MISS:    9051042  HIT %:    76.1902  MISS %:    23.8098   MPKI: 45.2552
L1I PREFETCH  REQUESTED:          0  ISSUED:          0  USEFUL:          0  USELESS:          0
L1I USEFUL LOAD PREFETCHES:          0 PREFETCH ISSUED TO LOWER LEVEL:          0  ACCURACY: -nan
L1I TIMELY PREFETCHES:          0 LATE PREFETCHES: 0 DROPPED PREFETCHES: 0
L1I PREFETCHES SAME FILL-ORIGIN LEVEL: 0 DIFFERENT FILL-ORIGIN LEVEL: 0
L1I AVERAGE MISS LATENCY: 16.8124 cycles
L1I RQ	ACCESS:   58938514	FORWARD:          0	MERGED:   18280463	TO_CACHE:   40658051

BTB TOTAL     ACCESS:   25729445  HIT:   24177550  MISS:    1551895  HIT %:    93.9684  MISS %:    6.03159   MPKI: 7.75948
BTB BRANCH_DIRECT_JUMP	ACCESS:    1656284  HIT:    1645281  MISS:      11003
BTB BRANCH_INDIRECT	ACCESS:    9938661  HIT:    9422853  MISS:     515808
BTB BRANCH_CONDITIONAL	ACCESS:    7324845  HIT:    7309493  MISS:      15352
BTB BRANCH_DIRECT_CALL	ACCESS:    2813378  HIT:    2777728  MISS:      35650
BTB BRANCH_INDIRECT_CALL	ACCESS:     591510  HIT:     480327  MISS:     111183
BTB BRANCH_RETURN	ACCESS:    3404767  HIT:    2541868  MISS:     862899
BTB BRANCH_OTHER ACCESS:          0  HIT:          0  MISS:          0

L2C TOTAL     ACCESS:   20547201  HIT:   13807452  MISS:    6739749  HIT %:    67.1987  MISS %:    32.8013   MPKI: 33.6987
L2C LOAD      ACCESS:   11472710  HIT:    9135885  MISS:    2336825  HIT %:    79.6314  MISS %:    20.3686   MPKI: 11.6841
L2C DATA LOAD MPKI: 8.85085
L2C INSTRUCTION LOAD MPKI: 2.83327
L2C RFO       ACCESS:    3705539  HIT:     155153  MISS:    3550386  HIT %:    4.18706  MISS %:    95.8129   MPKI: 17.7519
L2C PREFETCH  ACCESS:     861792  HIT:     199281  MISS:     662511  HIT %:     23.124  MISS %:     76.876   MPKI: 3.31256
AGUS PREFETCH L1 MISS: 0
L2C DATA PREFETCH MPKI: 3.31256
L2C INSTRUCTION PREFETCH MPKI: 0
L2C WRITEBACK ACCESS:    4369251  HIT:    4235563  MISS:     133688  HIT %:    96.9403  MISS %:    3.05975   MPKI: 0.66844
L2C LOAD TRANSLATION ACCESS:      86864  HIT:      45984  MISS:      40880  HIT %:    52.9379  MISS %:    47.0621   MPKI: 0.2044
L2C TRANSLATION FROM L1D PREFETCHER ACCESS:      51045  HIT:      35586  MISS:      15459  HIT %:     69.715  MISS %:     30.285   MPKI: 0.077295
L2C PREFETCH  REQUESTED:          0  ISSUED:          0  USEFUL:      25402  USELESS:     652725
L2C USEFUL LOAD PREFETCHES:      25402 PREFETCH ISSUED TO LOWER LEVEL:     662511  ACCURACY: 3.8342
L2C TIMELY PREFETCHES:      25402 LATE PREFETCHES: 0 DROPPED PREFETCHES: 0
L2C PREFETCHES SAME FILL-ORIGIN LEVEL: 0 DIFFERENT FILL-ORIGIN LEVEL: 0
L2C AVERAGE MISS LATENCY: 159.358 cycles
L2C RQ	ACCESS:   15316224	FORWARD:          0	MERGED:          0	TO_CACHE:   15316159
L2C WQ	ACCESS:    4369251	FORWARD:         78	MERGED:          0	TO_CACHE:    4369251
L2C PQ	ACCESS:     861805	FORWARD:          0	MERGED:          0	TO_CACHE:     861792

L2C Instructions Evicting Data 520885
L2C Translations Evicting Data 51387
L2C Data Evicting Data 5424365
L2C Instructions Evicting Instructions 41052
L2C Translations Evicting Instructions 4420
L2C Data Evicting Instructions 508533
L2C Instructions Evicting Translations 4718
L2C Translations Evicting Translations 532
L2C Data Evicting Translations 50169
L2C Dense regions hint from L2: 0
PSCL5 TOTAL     ACCESS:     107929  HIT:     107929  MISS:          0  HIT %:        100  MISS %:          0   MPKI: 0
PSCL5 LOAD TRANSLATION ACCESS:      74988  HIT:      74988  MISS:          0  HIT %:        100  MISS %:          0   MPKI: 0
PSCL5 TRANSLATION FROM L1D PREFETCHER ACCESS:      32941  HIT:      32941  MISS:          0  HIT %:        100  MISS %:          0   MPKI: 0
PSCL5 PREFETCH  REQUESTED:          0  ISSUED:          0  USEFUL:          0  USELESS:          0
PSCL5 USEFUL LOAD PREFETCHES:          0 PREFETCH ISSUED TO LOWER LEVEL:          0  ACCURACY: -nan
PSCL5 TIMELY PREFETCHES:          0 LATE PREFETCHES: 0 DROPPED PREFETCHES: 0
PSCL5 PREFETCHES SAME FILL-ORIGIN LEVEL: 0 DIFFERENT FILL-ORIGIN LEVEL: 0

PSCL4 TOTAL     ACCESS:      98897  HIT:      98687  MISS:        210  HIT %:    99.7877  MISS %:   0.212342   MPKI: 0.00105
PSCL4 LOAD TRANSLATION ACCESS:      72354  HIT:      72144  MISS:        210  HIT %:    99.7098  MISS %:    0.29024   MPKI: 0.00105
PSCL4 TRANSLATION FROM L1D PREFETCHER ACCESS:      26543  HIT:      26543  MISS:          0  HIT %:        100  MISS %:          0   MPKI: 0
PSCL4 PREFETCH  REQUESTED:          0  ISSUED:          0  USEFUL:          0  USELESS:          0
PSCL4 USEFUL LOAD PREFETCHES:          0 PREFETCH ISSUED TO LOWER LEVEL:          0  ACCURACY: -nan
PSCL4 TIMELY PREFETCHES:          0 LATE PREFETCHES: 0 DROPPED PREFETCHES: 0
PSCL4 PREFETCHES SAME FILL-ORIGIN LEVEL: 0 DIFFERENT FILL-ORIGIN LEVEL: 0

PSCL3 TOTAL     ACCESS:      94799  HIT:      93468  MISS:       1331  HIT %:     98.596  MISS %:    1.40402   MPKI: 0.006655
PSCL3 LOAD TRANSLATION ACCESS:      70472  HIT:      69141  MISS:       1331  HIT %:    98.1113  MISS %:    1.88869   MPKI: 0.006655
PSCL3 TRANSLATION FROM L1D PREFETCHER ACCESS:      24327  HIT:      24327  MISS:          0  HIT %:        100  MISS %:          0   MPKI: 0
PSCL3 PREFETCH  REQUESTED:          0  ISSUED:          0  USEFUL:          0  USELESS:          0
PSCL3 USEFUL LOAD PREFETCHES:          0 PREFETCH ISSUED TO LOWER LEVEL:          0  ACCURACY: -nan
PSCL3 TIMELY PREFETCHES:          0 LATE PREFETCHES: 0 DROPPED PREFETCHES: 0
PSCL3 PREFETCHES SAME FILL-ORIGIN LEVEL: 0 DIFFERENT FILL-ORIGIN LEVEL: 0

PSCL2 TOTAL     ACCESS:      88673  HIT:      78010  MISS:      10663  HIT %:    87.9749  MISS %:    12.0251   MPKI: 0.053315
PSCL2 LOAD TRANSLATION ACCESS:      75275  HIT:      64612  MISS:      10663  HIT %:    85.8346  MISS %:    14.1654   MPKI: 0.053315
PSCL2 TRANSLATION FROM L1D PREFETCHER ACCESS:      13398  HIT:      13398  MISS:          0  HIT %:        100  MISS %:          0   MPKI: 0
PSCL2 PREFETCH  REQUESTED:          0  ISSUED:          0  USEFUL:          0  USELESS:          0
PSCL2 USEFUL LOAD PREFETCHES:          0 PREFETCH ISSUED TO LOWER LEVEL:          0  ACCURACY: -nan
PSCL2 TIMELY PREFETCHES:          0 LATE PREFETCHES: 0 DROPPED PREFETCHES: 0
PSCL2 PREFETCHES SAME FILL-ORIGIN LEVEL: 0 DIFFERENT FILL-ORIGIN LEVEL: 0

LLC TOTAL     ACCESS:   10660647  HIT:    4313160  MISS:    6347487  HIT %:    40.4587  MISS %:    59.5413   MPKI: 31.7374
LLC LOAD      ACCESS:    2336824  HIT:    1549456  MISS:     787368  HIT %:    66.3061  MISS %:    33.6939   MPKI: 3.93684
LLC RFO       ACCESS:    3550381  HIT:     974801  MISS:    2575580  HIT %:    27.4562  MISS %:    72.5438   MPKI: 12.8779
LLC PREFETCH  ACCESS:     662511  HIT:     143205  MISS:     519306  HIT %:    21.6155  MISS %:    78.3845   MPKI: 2.59653
AGUS PREFETCH L1 MISS: 0
LLC WRITEBACK ACCESS:    4054592  HIT:    1630236  MISS:    2424356  HIT %:    40.2072  MISS %:    59.7928   MPKI: 12.1218
LLC LOAD TRANSLATION ACCESS:      40880  HIT:       8128  MISS:      32752  HIT %:    19.8826  MISS %:    80.1174   MPKI: 0.16376
LLC TRANSLATION FROM L1D PREFETCHER ACCESS:      15459  HIT:       7334  MISS:       8125  HIT %:    47.4416  MISS %:    52.5584   MPKI: 0.040625
LLC PREFETCH  REQUESTED:          0  ISSUED:          0  USEFUL:       3059  USELESS:     529437
LLC USEFUL LOAD PREFETCHES:       3059 PREFETCH ISSUED TO LOWER LEVEL:     519306  ACCURACY: 0.589055
LLC TIMELY PREFETCHES:       3059 LATE PREFETCHES: 0 DROPPED PREFETCHES: 0
LLC PREFETCHES SAME FILL-ORIGIN LEVEL: 0 DIFFERENT FILL-ORIGIN LEVEL: 0
LLC AVERAGE MISS LATENCY: 137.982 cycles
LLC RQ	ACCESS:    5943550	FORWARD:          0	MERGED:          0	TO_CACHE:    5943544
LLC WQ	ACCESS:    4054592	FORWARD:          6	MERGED:          0	TO_CACHE:    4054592
LLC PQ	ACCESS:     662511	FORWARD:          0	MERGED:          0	TO_CACHE:     662511

LLC Dense regions hint to LLC: 0

RAW hits: 2451755
Loads Generated: 47623555
Loads sent to L1D: 45171799
Stores Generated: 34202037
Stores sent to L1D: 34202058
Major fault: 0 Minor fault: 9169
Allocated PAGES: 9169
Completed 

DRAM Statistics
 CHANNEL 0
 RQ ROW_BUFFER_HIT:    1834978  ROW_BUFFER_MISS:    2087833
 DBUS_CONGESTED:       2274
 WQ ROW_BUFFER_HIT:     536626  ROW_BUFFER_MISS:    2102038  FULL:      51086

 AVG_CONGESTED_CYCLE: 3
 All warmup complete: 2
Channel 0 Bank busy for read cycles: 0
Channel 0 Bank busy for write cycles: 0
Channel 0
Rank 0
0banks busy for read cycles: 171833540
0banks busy for write cycles: 262245
1banks busy for read cycles: 34702277
1banks busy for write cycles: 36890101
2banks busy for read cycles: 14131306
2banks busy for write cycles: 13177704
3banks busy for read cycles: 15894242
3banks busy for write cycles: 6285753
4banks busy for read cycles: 5942741
4banks busy for write cycles: 4199574
5banks busy for read cycles: 5092840
5banks busy for write cycles: 3393237
6banks busy for read cycles: 6022259
6banks busy for write cycles: 3331586
7banks busy for read cycles: 8889493
7banks busy for write cycles: 5813293
8banks busy for read cycles: 19230494
8banks busy for write cycles: 35799465

CPU 0 Branch Prediction Accuracy: 99.9457% MPKI: 0.083 Average ROB Occupancy at Mispredict: 122.104
Branch types
NOT_BRANCH: 169416916 84.7085%
BRANCH_DIRECT_JUMP: 1656284 0.828142%
BRANCH_INDIRECT: 9938661 4.96933%
BRANCH_CONDITIONAL: 12178317 6.08916%
BRANCH_DIRECT_CALL: 2813378 1.40669%
BRANCH_INDIRECT_CALL: 591510 0.295755%
BRANCH_RETURN: 3404767 1.70238%
BRANCH_OTHER: 0 0%

DRAM PAGES: 1048576
Allocated PAGES: 9169
