
*** ChampSim Multicore Out-of-Order Simulator ***

Warmup Instructions: 50000000
Simulation Instructions: 200000000
Number of CPUs: 1
LLC sets: 2048
LLC ways: 16
Off-chip DRAM Size: 4096 MB Channels: 1 Width: 64-bit Data Rate: 6400 MT/s
CPU 0 runs traces/spec2k17/srv_67.champsimtrace.xz
.xz
BTB has LRU replacement policy
ITLB has LRU replacement policy
DTLB has LRU replacement policy
STLB has LRU replacement policy
L1I has LRU replacement policy
L1D has LRU replacement policy
Initialize SRRIP state for L2C
Initialize DRRIP state for LLC
Heartbeat CPU 0 instructions: 10000001 cycles: 2765247 heartbeat IPC: 3.61631 cumulative IPC: 3.61631 (Simulation time: 0 hr 0 min 35 sec) 
Heartbeat CPU 0 instructions: 20000002 cycles: 5527157 heartbeat IPC: 3.62068 cumulative IPC: 3.6185 (Simulation time: 0 hr 1 min 9 sec) 
Heartbeat CPU 0 instructions: 30000003 cycles: 8291132 heartbeat IPC: 3.61798 cumulative IPC: 3.61832 (Simulation time: 0 hr 1 min 47 sec) 
*** Reached end of trace for Core: 0 Repeating trace: traces/spec2k17/srv_67.champsimtrace.xz
Heartbeat CPU 0 instructions: 40000003 cycles: 11053787 heartbeat IPC: 3.61971 cumulative IPC: 3.61867 (Simulation time: 0 hr 2 min 24 sec) 
Heartbeat CPU 0 instructions: 50000003 cycles: 13818943 heartbeat IPC: 3.61643 cumulative IPC: 3.61822 (Simulation time: 0 hr 2 min 55 sec) 

Warmup complete CPU 0 instructions: 50000003 cycles: 13818943 (Simulation time: 0 hr 2 min 55 sec) 

Heartbeat CPU 0 instructions: 60000001 cycles: 35571491 heartbeat IPC: 0.459716 cumulative IPC: 0.459716 (Simulation time: 0 hr 3 min 53 sec) 
*** Reached end of trace for Core: 0 Repeating trace: traces/spec2k17/srv_67.champsimtrace.xz
Heartbeat CPU 0 instructions: 70000003 cycles: 56795895 heartbeat IPC: 0.471156 cumulative IPC: 0.465366 (Simulation time: 0 hr 4 min 52 sec) 
Heartbeat CPU 0 instructions: 80000001 cycles: 78464793 heartbeat IPC: 0.461491 cumulative IPC: 0.464067 (Simulation time: 0 hr 5 min 47 sec) 
Heartbeat CPU 0 instructions: 90000002 cycles: 99966146 heartbeat IPC: 0.465087 cumulative IPC: 0.464321 (Simulation time: 0 hr 6 min 36 sec) 
*** Reached end of trace for Core: 0 Repeating trace: traces/spec2k17/srv_67.champsimtrace.xz
Heartbeat CPU 0 instructions: 100000003 cycles: 121242088 heartbeat IPC: 0.470014 cumulative IPC: 0.465449 (Simulation time: 0 hr 7 min 27 sec) 
Heartbeat CPU 0 instructions: 110000000 cycles: 142928959 heartbeat IPC: 0.461108 cumulative IPC: 0.46472 (Simulation time: 0 hr 8 min 4 sec) 
Heartbeat CPU 0 instructions: 120000000 cycles: 164401153 heartbeat IPC: 0.465719 cumulative IPC: 0.464862 (Simulation time: 0 hr 8 min 44 sec) 
*** Reached end of trace for Core: 0 Repeating trace: traces/spec2k17/srv_67.champsimtrace.xz
Heartbeat CPU 0 instructions: 130000001 cycles: 185742006 heartbeat IPC: 0.468585 cumulative IPC: 0.465324 (Simulation time: 0 hr 9 min 30 sec) 
Heartbeat CPU 0 instructions: 140000000 cycles: 207540206 heartbeat IPC: 0.458753 cumulative IPC: 0.464585 (Simulation time: 0 hr 10 min 9 sec) 
Heartbeat CPU 0 instructions: 150000002 cycles: 228634962 heartbeat IPC: 0.474052 cumulative IPC: 0.465515 (Simulation time: 0 hr 10 min 45 sec) 
*** Reached end of trace for Core: 0 Repeating trace: traces/spec2k17/srv_67.champsimtrace.xz
Heartbeat CPU 0 instructions: 160000000 cycles: 250116097 heartbeat IPC: 0.465525 cumulative IPC: 0.465516 (Simulation time: 0 hr 11 min 25 sec) 
Heartbeat CPU 0 instructions: 170000001 cycles: 271906306 heartbeat IPC: 0.458922 cumulative IPC: 0.464959 (Simulation time: 0 hr 12 min 5 sec) 
Heartbeat CPU 0 instructions: 180000001 cycles: 293031104 heartbeat IPC: 0.473377 cumulative IPC: 0.465596 (Simulation time: 0 hr 13 min 6 sec) 
*** Reached end of trace for Core: 0 Repeating trace: traces/spec2k17/srv_67.champsimtrace.xz
Heartbeat CPU 0 instructions: 190000000 cycles: 314353289 heartbeat IPC: 0.468995 cumulative IPC: 0.465837 (Simulation time: 0 hr 14 min 15 sec) 
Heartbeat CPU 0 instructions: 200000001 cycles: 335967357 heartbeat IPC: 0.462662 cumulative IPC: 0.465624 (Simulation time: 0 hr 15 min 19 sec) 
Heartbeat CPU 0 instructions: 210000003 cycles: 357276688 heartbeat IPC: 0.469278 cumulative IPC: 0.465851 (Simulation time: 0 hr 16 min 14 sec) 
*** Reached end of trace for Core: 0 Repeating trace: traces/spec2k17/srv_67.champsimtrace.xz
Heartbeat CPU 0 instructions: 220000000 cycles: 378479203 heartbeat IPC: 0.471642 cumulative IPC: 0.466187 (Simulation time: 0 hr 17 min 15 sec) 
Heartbeat CPU 0 instructions: 230000000 cycles: 400031770 heartbeat IPC: 0.463982 cumulative IPC: 0.466064 (Simulation time: 0 hr 18 min 15 sec) 
Heartbeat CPU 0 instructions: 240000001 cycles: 421480118 heartbeat IPC: 0.466236 cumulative IPC: 0.466073 (Simulation time: 0 hr 19 min 1 sec) 
*** Reached end of trace for Core: 0 Repeating trace: traces/spec2k17/srv_67.champsimtrace.xz
Heartbeat CPU 0 instructions: 250000003 cycles: 442637791 heartbeat IPC: 0.472642 cumulative IPC: 0.466397 (Simulation time: 0 hr 19 min 37 sec) 
Finished CPU 0 instructions: 200000000 cycles: 428818848 cumulative IPC: 0.466397 (Simulation time: 0 hr 19 min 37 sec) 

ChampSim completed all CPUs

Region of Interest Statistics

CPU 0 cumulative IPC: 0.466397 instructions: 200000000 cycles: 428818848
ITLB TOTAL     ACCESS:   31349064  HIT:   30555927  MISS:     793137  HIT %:      97.47  MISS %:    2.53002   MPKI: 3.96569
ITLB LOAD TRANSLATION ACCESS:   31349064  HIT:   30555927  MISS:     793137  HIT %:      97.47  MISS %:    2.53002   MPKI: 3.96569
ITLB PREFETCH  REQUESTED:          0  ISSUED:          0  USEFUL:          0  USELESS:          0
ITLB USEFUL LOAD PREFETCHES:          0 PREFETCH ISSUED TO LOWER LEVEL:          0  ACCURACY: -nan
ITLB TIMELY PREFETCHES:          0 LATE PREFETCHES: 0 DROPPED PREFETCHES: 0
ITLB PREFETCHES SAME FILL-ORIGIN LEVEL: 0 DIFFERENT FILL-ORIGIN LEVEL: 0
ITLB AVERAGE MISS LATENCY: 13.8748 cycles
ITLB RQ	ACCESS:   38246607	FORWARD:          0	MERGED:    6703680	TO_CACHE:   31542927

DTLB TOTAL     ACCESS:   36954793  HIT:   34375569  MISS:    2579224  HIT %:    93.0206  MISS %:     6.9794   MPKI: 12.8961
DTLB LOAD TRANSLATION ACCESS:   36954793  HIT:   34375569  MISS:    2579224  HIT %:    93.0206  MISS %:     6.9794   MPKI: 12.8961
DTLB PREFETCH  REQUESTED:          0  ISSUED:          0  USEFUL:          0  USELESS:          0
DTLB USEFUL LOAD PREFETCHES:          0 PREFETCH ISSUED TO LOWER LEVEL:          0  ACCURACY: -nan
DTLB TIMELY PREFETCHES:          0 LATE PREFETCHES: 0 DROPPED PREFETCHES: 0
DTLB PREFETCHES SAME FILL-ORIGIN LEVEL: 0 DIFFERENT FILL-ORIGIN LEVEL: 0
DTLB AVERAGE MISS LATENCY: 12.9128 cycles
DTLB RQ	ACCESS:   47474347	FORWARD:          0	MERGED:   10372864	TO_CACHE:   37101483

STLB TOTAL     ACCESS:   11503433  HIT:   11169980  MISS:     333453  HIT %:    97.1013  MISS %:    2.89873   MPKI: 1.66726
STLB LOAD TRANSLATION ACCESS:    3372361  HIT:    3049408  MISS:     322953  HIT %:    90.4235  MISS %:    9.57647   MPKI: 1.61477
STLB TRANSLATION FROM L1D PREFETCHER ACCESS:    8131072  HIT:    8120572  MISS:      10500  HIT %:    99.8709  MISS %:   0.129134   MPKI: 0.0525
STLB PREFETCH  REQUESTED:          0  ISSUED:          0  USEFUL:       8763  USELESS:       1733
STLB USEFUL LOAD PREFETCHES:       8763 PREFETCH ISSUED TO LOWER LEVEL:          0  ACCURACY: inf
STLB TIMELY PREFETCHES:       8763 LATE PREFETCHES: 2232 DROPPED PREFETCHES: 289847
STLB PREFETCHES SAME FILL-ORIGIN LEVEL: 0 DIFFERENT FILL-ORIGIN LEVEL: 0
STLB AVERAGE MISS LATENCY: 45.5312 cycles
STLB RQ	ACCESS:   13587948	FORWARD:          0	MERGED:    1790377	TO_CACHE:   11797571

STLB Hit, L1D data hit: 0
STLB Hit, L2C data hit: 0
STLB Hit, LLC data hit: 0
STLB Hit, LLC data miss: 0
STLB STLB hints to L2: 0
L1D TOTAL     ACCESS:   56677361  HIT:   54164617  MISS:    2512744  HIT %:    95.5666  MISS %:    4.43342   MPKI: 12.5637
L1D LOAD      ACCESS:   27345493  HIT:   25362888  MISS:    1982605  HIT %:    92.7498  MISS %:    7.25021   MPKI: 9.91302
L1D RFO       ACCESS:   19597390  HIT:   19274657  MISS:     322733  HIT %:    98.3532  MISS %:    1.64682   MPKI: 1.61366
L1D PREFETCH  ACCESS:    9734478  HIT:    9527072  MISS:     207406  HIT %:    97.8694  MISS %:    2.13063   MPKI: 1.03703
AGUS PREFETCH L1 MISS: 0
L1D PREFETCH  REQUESTED:   21886487  ISSUED:   21885250  USEFUL:     127702  USELESS:      79663
L1D USEFUL LOAD PREFETCHES:     127702 PREFETCH ISSUED TO LOWER LEVEL:     269714  ACCURACY: 47.3472
L1D TIMELY PREFETCHES:     127702 LATE PREFETCHES: 62146 DROPPED PREFETCHES: 308710
L1D PREFETCHES SAME FILL-ORIGIN LEVEL: 269714 DIFFERENT FILL-ORIGIN LEVEL: 0
L1D AVERAGE MISS LATENCY: 7.34156e+06 cycles
L1D RQ	ACCESS:   42021412	FORWARD:          0	MERGED:   14287505	TO_CACHE:   27478179
L1D WQ	ACCESS:   20323448	FORWARD:     311378	MERGED:     327280	TO_CACHE:   19996168
L1D PQ	ACCESS:   11669663	FORWARD:          0	MERGED:    1398426	TO_CACHE:   10215587

L1D UNIQUE REGIONS ACCESSED: 0
L1D REGIONS CONFLICTS: 0
L1D Cross Page Prefetch Requests: 8541606
L1D Same Page Prefetch Requests: 4929321
L1D ROI Sum of L1D PQ occupancy: 154494259
L1D PREFETCHES PUSHED FROM L2C: 0
L1I TOTAL     ACCESS:   36474485  HIT:   31452724  MISS:    5021761  HIT %:    86.2321  MISS %:    13.7679   MPKI: 25.1088
L1I LOAD      ACCESS:   36474485  HIT:   31452724  MISS:    5021761  HIT %:    86.2321  MISS %:    13.7679   MPKI: 25.1088
L1I PREFETCH  REQUESTED:          0  ISSUED:          0  USEFUL:          0  USELESS:          0
L1I USEFUL LOAD PREFETCHES:          0 PREFETCH ISSUED TO LOWER LEVEL:          0  ACCURACY: -nan
L1I TIMELY PREFETCHES:          0 LATE PREFETCHES: 0 DROPPED PREFETCHES: 0
L1I PREFETCHES SAME FILL-ORIGIN LEVEL: 0 DIFFERENT FILL-ORIGIN LEVEL: 0
L1I AVERAGE MISS LATENCY: 25.098 cycles
L1I RQ	ACCESS:   57197678	FORWARD:          0	MERGED:   18951071	TO_CACHE:   38246607

BTB TOTAL     ACCESS:   22385295  HIT:   18261967  MISS:    4123328  HIT %:    81.5802  MISS %:    18.4198   MPKI: 20.6166
BTB BRANCH_DIRECT_JUMP	ACCESS:    1763864  HIT:    1523664  MISS:     240200
BTB BRANCH_INDIRECT	ACCESS:    9441713  HIT:    7464419  MISS:    1977294
BTB BRANCH_CONDITIONAL	ACCESS:    4809987  HIT:    4436732  MISS:     373255
BTB BRANCH_DIRECT_CALL	ACCESS:    2503051  HIT:    2063439  MISS:     439612
BTB BRANCH_INDIRECT_CALL	ACCESS:     681117  HIT:     639848  MISS:      41269
BTB BRANCH_RETURN	ACCESS:    3185563  HIT:    2133865  MISS:    1051698
BTB BRANCH_OTHER ACCESS:          0  HIT:          0  MISS:          0

L2C TOTAL     ACCESS:    9338355  HIT:    6276167  MISS:    3062188  HIT %:    67.2085  MISS %:    32.7915   MPKI: 15.3109
L2C LOAD      ACCESS:    6942140  HIT:    4358809  MISS:    2583331  HIT %:    62.7877  MISS %:    37.2123   MPKI: 12.9167
L2C DATA LOAD MPKI: 4.23184
L2C INSTRUCTION LOAD MPKI: 8.68482
L2C RFO       ACCESS:     322571  HIT:     186717  MISS:     135854  HIT %:     57.884  MISS %:     42.116   MPKI: 0.67927
L2C PREFETCH  ACCESS:     269712  HIT:     181511  MISS:      88201  HIT %:    67.2981  MISS %:    32.7019   MPKI: 0.441005
AGUS PREFETCH L1 MISS: 0
L2C DATA PREFETCH MPKI: 0.441005
L2C INSTRUCTION PREFETCH MPKI: 0
L2C WRITEBACK ACCESS:    1001282  HIT:     949723  MISS:      51559  HIT %:    94.8507  MISS %:     5.1493   MPKI: 0.257795
L2C LOAD TRANSLATION ACCESS:     425189  HIT:     261226  MISS:     163963  HIT %:    61.4376  MISS %:    38.5624   MPKI: 0.819815
L2C TRANSLATION FROM L1D PREFETCHER ACCESS:     377461  HIT:     338181  MISS:      39280  HIT %:    89.5936  MISS %:    10.4064   MPKI: 0.1964
L2C PREFETCH  REQUESTED:          0  ISSUED:          0  USEFUL:      31069  USELESS:      96173
L2C USEFUL LOAD PREFETCHES:      31069 PREFETCH ISSUED TO LOWER LEVEL:      88201  ACCURACY: 35.2252
L2C TIMELY PREFETCHES:      31069 LATE PREFETCHES: 0 DROPPED PREFETCHES: 0
L2C PREFETCHES SAME FILL-ORIGIN LEVEL: 0 DIFFERENT FILL-ORIGIN LEVEL: 0
L2C AVERAGE MISS LATENCY: 44.9864 cycles
L2C RQ	ACCESS:    8067441	FORWARD:          0	MERGED:          0	TO_CACHE:    8067361
L2C WQ	ACCESS:    1001282	FORWARD:         82	MERGED:          0	TO_CACHE:    1001282
L2C PQ	ACCESS:     269714	FORWARD:          0	MERGED:          0	TO_CACHE:     269712

L2C Instructions Evicting Data 618286
L2C Translations Evicting Data 76318
L2C Data Evicting Data 407621
L2C Instructions Evicting Instructions 1008452
L2C Translations Evicting Instructions 111698
L2C Data Evicting Instructions 587859
L2C Instructions Evicting Translations 110226
L2C Translations Evicting Translations 15227
L2C Data Evicting Translations 74942
L2C Dense regions hint from L2: 0
PSCL5 TOTAL     ACCESS:     571884  HIT:     571884  MISS:          0  HIT %:        100  MISS %:          0   MPKI: 0
PSCL5 LOAD TRANSLATION ACCESS:     320721  HIT:     320721  MISS:          0  HIT %:        100  MISS %:          0   MPKI: 0
PSCL5 TRANSLATION FROM L1D PREFETCHER ACCESS:     251163  HIT:     251163  MISS:          0  HIT %:        100  MISS %:          0   MPKI: 0
PSCL5 PREFETCH  REQUESTED:          0  ISSUED:          0  USEFUL:          0  USELESS:          0
PSCL5 USEFUL LOAD PREFETCHES:          0 PREFETCH ISSUED TO LOWER LEVEL:          0  ACCURACY: -nan
PSCL5 TIMELY PREFETCHES:          0 LATE PREFETCHES: 0 DROPPED PREFETCHES: 0
PSCL5 PREFETCHES SAME FILL-ORIGIN LEVEL: 0 DIFFERENT FILL-ORIGIN LEVEL: 0

PSCL4 TOTAL     ACCESS:     518991  HIT:     518292  MISS:        699  HIT %:    99.8653  MISS %:   0.134684   MPKI: 0.003495
PSCL4 LOAD TRANSLATION ACCESS:     303792  HIT:     303093  MISS:        699  HIT %:    99.7699  MISS %:   0.230092   MPKI: 0.003495
PSCL4 TRANSLATION FROM L1D PREFETCHER ACCESS:     215199  HIT:     215199  MISS:          0  HIT %:        100  MISS %:          0   MPKI: 0
PSCL4 PREFETCH  REQUESTED:          0  ISSUED:          0  USEFUL:          0  USELESS:          0
PSCL4 USEFUL LOAD PREFETCHES:          0 PREFETCH ISSUED TO LOWER LEVEL:          0  ACCURACY: -nan
PSCL4 TIMELY PREFETCHES:          0 LATE PREFETCHES: 0 DROPPED PREFETCHES: 0
PSCL4 PREFETCHES SAME FILL-ORIGIN LEVEL: 0 DIFFERENT FILL-ORIGIN LEVEL: 0

PSCL3 TOTAL     ACCESS:     526412  HIT:     525016  MISS:       1396  HIT %:    99.7348  MISS %:   0.265192   MPKI: 0.00698
PSCL3 LOAD TRANSLATION ACCESS:     319782  HIT:     318386  MISS:       1396  HIT %:    99.5635  MISS %:   0.436547   MPKI: 0.00698
PSCL3 TRANSLATION FROM L1D PREFETCHER ACCESS:     206630  HIT:     206630  MISS:          0  HIT %:        100  MISS %:          0   MPKI: 0
PSCL3 PREFETCH  REQUESTED:          0  ISSUED:          0  USEFUL:          0  USELESS:          0
PSCL3 USEFUL LOAD PREFETCHES:          0 PREFETCH ISSUED TO LOWER LEVEL:          0  ACCURACY: -nan
PSCL3 TIMELY PREFETCHES:          0 LATE PREFETCHES: 0 DROPPED PREFETCHES: 0
PSCL3 PREFETCHES SAME FILL-ORIGIN LEVEL: 0 DIFFERENT FILL-ORIGIN LEVEL: 0

PSCL2 TOTAL     ACCESS:     366478  HIT:     257610  MISS:     108868  HIT %:    70.2934  MISS %:    29.7066   MPKI: 0.54434
PSCL2 LOAD TRANSLATION ACCESS:     327123  HIT:     218255  MISS:     108868  HIT %:    66.7196  MISS %:    33.2804   MPKI: 0.54434
PSCL2 TRANSLATION FROM L1D PREFETCHER ACCESS:      39355  HIT:      39355  MISS:          0  HIT %:        100  MISS %:          0   MPKI: 0
PSCL2 PREFETCH  REQUESTED:          0  ISSUED:          0  USEFUL:          0  USELESS:          0
PSCL2 USEFUL LOAD PREFETCHES:          0 PREFETCH ISSUED TO LOWER LEVEL:          0  ACCURACY: -nan
PSCL2 TIMELY PREFETCHES:          0 LATE PREFETCHES: 0 DROPPED PREFETCHES: 0
PSCL2 PREFETCHES SAME FILL-ORIGIN LEVEL: 0 DIFFERENT FILL-ORIGIN LEVEL: 0

LLC TOTAL     ACCESS:    3424946  HIT:    3109969  MISS:     314977  HIT %:    90.8034  MISS %:    9.19655   MPKI: 1.57489
LLC LOAD      ACCESS:    2583331  HIT:    2341149  MISS:     242182  HIT %:    90.6252  MISS %:     9.3748   MPKI: 1.21091
LLC RFO       ACCESS:     135854  HIT:      90120  MISS:      45734  HIT %:    66.3359  MISS %:    33.6641   MPKI: 0.22867
LLC PREFETCH  ACCESS:      88201  HIT:      76866  MISS:      11335  HIT %:    87.1487  MISS %:    12.8513   MPKI: 0.056675
AGUS PREFETCH L1 MISS: 0
LLC WRITEBACK ACCESS:     414317  HIT:     412379  MISS:       1938  HIT %:    99.5322  MISS %:   0.467758   MPKI: 0.00969
LLC LOAD TRANSLATION ACCESS:     163963  HIT:     152636  MISS:      11327  HIT %:    93.0917  MISS %:    6.90827   MPKI: 0.056635
LLC TRANSLATION FROM L1D PREFETCHER ACCESS:      39280  HIT:      36819  MISS:       2461  HIT %:    93.7347  MISS %:    6.26527   MPKI: 0.012305
LLC PREFETCH  REQUESTED:          0  ISSUED:          0  USEFUL:       4576  USELESS:       8630
LLC USEFUL LOAD PREFETCHES:       4576 PREFETCH ISSUED TO LOWER LEVEL:      11335  ACCURACY: 40.3705
LLC TIMELY PREFETCHES:       4576 LATE PREFETCHES: 0 DROPPED PREFETCHES: 0
LLC PREFETCHES SAME FILL-ORIGIN LEVEL: 0 DIFFERENT FILL-ORIGIN LEVEL: 0
LLC AVERAGE MISS LATENCY: 150.604 cycles
LLC RQ	ACCESS:    2922428	FORWARD:          0	MERGED:          0	TO_CACHE:    2922428
LLC WQ	ACCESS:     414317	FORWARD:          0	MERGED:          0	TO_CACHE:     414317
LLC PQ	ACCESS:      88201	FORWARD:          0	MERGED:          0	TO_CACHE:      88201

LLC Dense regions hint to LLC: 0

RAW hits: 2842850
Loads Generated: 44864262
Loads sent to L1D: 42021412
Stores Generated: 20323447
Stores sent to L1D: 20323448
Major fault: 0 Minor fault: 6122
Allocated PAGES: 6122
Completed 

DRAM Statistics
 CHANNEL 0
 RQ ROW_BUFFER_HIT:      63466  ROW_BUFFER_MISS:     249573
 DBUS_CONGESTED:        195
 WQ ROW_BUFFER_HIT:      34214  ROW_BUFFER_MISS:     177652  FULL:          0

 AVG_CONGESTED_CYCLE: 4
 All warmup complete: 2
Channel 0 Bank busy for read cycles: 0
Channel 0 Bank busy for write cycles: 0
Channel 0
Rank 0
0banks busy for read cycles: 370522719
0banks busy for write cycles: 117636
1banks busy for read cycles: 28834177
1banks busy for write cycles: 16841974
2banks busy for read cycles: 3873662
2banks busy for write cycles: 4102529
3banks busy for read cycles: 541319
3banks busy for write cycles: 1525066
4banks busy for read cycles: 209325
4banks busy for write cycles: 771189
5banks busy for read cycles: 106140
5banks busy for write cycles: 445840
6banks busy for read cycles: 66306
6banks busy for write cycles: 309220
7banks busy for read cycles: 47046
7banks busy for write cycles: 242694
8banks busy for read cycles: 38707
8banks busy for write cycles: 223300

CPU 0 Branch Prediction Accuracy: 99.8315% MPKI: 0.301655 Average ROB Occupancy at Mispredict: 45.9196
Branch types
NOT_BRANCH: 164189943 82.095%
BRANCH_DIRECT_JUMP: 1763864 0.881932%
BRANCH_INDIRECT: 9441713 4.72086%
BRANCH_CONDITIONAL: 18234424 9.11721%
BRANCH_DIRECT_CALL: 2503051 1.25153%
BRANCH_INDIRECT_CALL: 681117 0.340558%
BRANCH_RETURN: 3185563 1.59278%
BRANCH_OTHER: 0 0%

DRAM PAGES: 1048576
Allocated PAGES: 6122
