
*** ChampSim Multicore Out-of-Order Simulator ***

Warmup Instructions: 50000000
Simulation Instructions: 200000000
Number of CPUs: 1
LLC sets: 2048
LLC ways: 16
Off-chip DRAM Size: 4096 MB Channels: 1 Width: 64-bit Data Rate: 6400 MT/s
CPU 0 runs traces/spec2k17/srv_49.champsimtrace.xz
.xz
BTB has LRU replacement policy
ITLB has LRU replacement policy
DTLB has LRU replacement policy
STLB has LRU replacement policy
L1I has LRU replacement policy
L1D has LRU replacement policy
Initialize SRRIP state for L2C
Initialize DRRIP state for LLC
Heartbeat CPU 0 instructions: 10000002 cycles: 2894263 heartbeat IPC: 3.45511 cumulative IPC: 3.45511 (Simulation time: 0 hr 0 min 37 sec) 
Heartbeat CPU 0 instructions: 20000001 cycles: 5822435 heartbeat IPC: 3.4151 cumulative IPC: 3.43499 (Simulation time: 0 hr 1 min 15 sec) 
Heartbeat CPU 0 instructions: 30000003 cycles: 8736487 heartbeat IPC: 3.43165 cumulative IPC: 3.43387 (Simulation time: 0 hr 1 min 56 sec) 
*** Reached end of trace for Core: 0 Repeating trace: traces/spec2k17/srv_49.champsimtrace.xz
Heartbeat CPU 0 instructions: 40000000 cycles: 11626628 heartbeat IPC: 3.46004 cumulative IPC: 3.44038 (Simulation time: 0 hr 2 min 34 sec) 
Heartbeat CPU 0 instructions: 50000001 cycles: 14555292 heartbeat IPC: 3.41453 cumulative IPC: 3.43518 (Simulation time: 0 hr 3 min 16 sec) 

Warmup complete CPU 0 instructions: 50000001 cycles: 14555292 (Simulation time: 0 hr 3 min 16 sec) 

Heartbeat CPU 0 instructions: 60000003 cycles: 35662466 heartbeat IPC: 0.473773 cumulative IPC: 0.473773 (Simulation time: 0 hr 4 min 13 sec) 
*** Reached end of trace for Core: 0 Repeating trace: traces/spec2k17/srv_49.champsimtrace.xz
Heartbeat CPU 0 instructions: 70000001 cycles: 58635825 heartbeat IPC: 0.435287 cumulative IPC: 0.453715 (Simulation time: 0 hr 5 min 0 sec) 
Heartbeat CPU 0 instructions: 80000003 cycles: 81547500 heartbeat IPC: 0.436459 cumulative IPC: 0.447813 (Simulation time: 0 hr 5 min 49 sec) 
Heartbeat CPU 0 instructions: 90000000 cycles: 104203184 heartbeat IPC: 0.44139 cumulative IPC: 0.44619 (Simulation time: 0 hr 6 min 26 sec) 
*** Reached end of trace for Core: 0 Repeating trace: traces/spec2k17/srv_49.champsimtrace.xz
Heartbeat CPU 0 instructions: 100000000 cycles: 127458136 heartbeat IPC: 0.430016 cumulative IPC: 0.442859 (Simulation time: 0 hr 7 min 3 sec) 
Heartbeat CPU 0 instructions: 110000000 cycles: 149238762 heartbeat IPC: 0.459124 cumulative IPC: 0.445489 (Simulation time: 0 hr 7 min 39 sec) 
Heartbeat CPU 0 instructions: 120000003 cycles: 173386186 heartbeat IPC: 0.414123 cumulative IPC: 0.44072 (Simulation time: 0 hr 8 min 17 sec) 
*** Reached end of trace for Core: 0 Repeating trace: traces/spec2k17/srv_49.champsimtrace.xz
Heartbeat CPU 0 instructions: 130000001 cycles: 194426395 heartbeat IPC: 0.47528 cumulative IPC: 0.444763 (Simulation time: 0 hr 8 min 53 sec) 
Heartbeat CPU 0 instructions: 140000002 cycles: 216942133 heartbeat IPC: 0.444134 cumulative IPC: 0.444693 (Simulation time: 0 hr 9 min 29 sec) 
Heartbeat CPU 0 instructions: 150000002 cycles: 241485965 heartbeat IPC: 0.407434 cumulative IPC: 0.440663 (Simulation time: 0 hr 10 min 7 sec) 
*** Reached end of trace for Core: 0 Repeating trace: traces/spec2k17/srv_49.champsimtrace.xz
Heartbeat CPU 0 instructions: 160000003 cycles: 262267888 heartbeat IPC: 0.481187 cumulative IPC: 0.444063 (Simulation time: 0 hr 10 min 43 sec) 
Heartbeat CPU 0 instructions: 170000002 cycles: 284952349 heartbeat IPC: 0.44083 cumulative IPC: 0.443792 (Simulation time: 0 hr 11 min 20 sec) 
Heartbeat CPU 0 instructions: 180000000 cycles: 308940659 heartbeat IPC: 0.41687 cumulative IPC: 0.441598 (Simulation time: 0 hr 11 min 56 sec) 
*** Reached end of trace for Core: 0 Repeating trace: traces/spec2k17/srv_49.champsimtrace.xz
Heartbeat CPU 0 instructions: 190000003 cycles: 330221078 heartbeat IPC: 0.469916 cumulative IPC: 0.443507 (Simulation time: 0 hr 12 min 41 sec) 
Heartbeat CPU 0 instructions: 200000001 cycles: 352495773 heartbeat IPC: 0.44894 cumulative IPC: 0.443865 (Simulation time: 0 hr 13 min 18 sec) 
Heartbeat CPU 0 instructions: 210000000 cycles: 375832513 heartbeat IPC: 0.428509 cumulative IPC: 0.442873 (Simulation time: 0 hr 13 min 55 sec) 
*** Reached end of trace for Core: 0 Repeating trace: traces/spec2k17/srv_49.champsimtrace.xz
Heartbeat CPU 0 instructions: 220000000 cycles: 398007065 heartbeat IPC: 0.450967 cumulative IPC: 0.443341 (Simulation time: 0 hr 14 min 39 sec) 
Heartbeat CPU 0 instructions: 230000003 cycles: 419343256 heartbeat IPC: 0.468687 cumulative IPC: 0.444677 (Simulation time: 0 hr 15 min 38 sec) 
Heartbeat CPU 0 instructions: 240000002 cycles: 442686865 heartbeat IPC: 0.428383 cumulative IPC: 0.443789 (Simulation time: 0 hr 16 min 39 sec) 
*** Reached end of trace for Core: 0 Repeating trace: traces/spec2k17/srv_49.champsimtrace.xz
Heartbeat CPU 0 instructions: 250000002 cycles: 465337371 heartbeat IPC: 0.441491 cumulative IPC: 0.443673 (Simulation time: 0 hr 17 min 32 sec) 
Finished CPU 0 instructions: 200000001 cycles: 450782079 cumulative IPC: 0.443673 (Simulation time: 0 hr 17 min 32 sec) 

ChampSim completed all CPUs

Region of Interest Statistics

CPU 0 cumulative IPC: 0.443673 instructions: 200000001 cycles: 450782079
ITLB TOTAL     ACCESS:   34602390  HIT:   33561302  MISS:    1041088  HIT %:    96.9913  MISS %:    3.00872   MPKI: 5.20544
ITLB LOAD TRANSLATION ACCESS:   34602390  HIT:   33561302  MISS:    1041088  HIT %:    96.9913  MISS %:    3.00872   MPKI: 5.20544
ITLB PREFETCH  REQUESTED:          0  ISSUED:          0  USEFUL:          0  USELESS:          0
ITLB USEFUL LOAD PREFETCHES:          0 PREFETCH ISSUED TO LOWER LEVEL:          0  ACCURACY: -nan
ITLB TIMELY PREFETCHES:          0 LATE PREFETCHES: 0 DROPPED PREFETCHES: 0
ITLB PREFETCHES SAME FILL-ORIGIN LEVEL: 0 DIFFERENT FILL-ORIGIN LEVEL: 0
ITLB AVERAGE MISS LATENCY: 10.1743 cycles
ITLB RQ	ACCESS:   39434157	FORWARD:          0	MERGED:    4537244	TO_CACHE:   34896913

DTLB TOTAL     ACCESS:   43108642  HIT:   42052129  MISS:    1056513  HIT %:    97.5492  MISS %:    2.45081   MPKI: 5.28256
DTLB LOAD TRANSLATION ACCESS:   43108642  HIT:   42052129  MISS:    1056513  HIT %:    97.5492  MISS %:    2.45081   MPKI: 5.28256
DTLB PREFETCH  REQUESTED:          0  ISSUED:          0  USEFUL:          0  USELESS:          0
DTLB USEFUL LOAD PREFETCHES:          0 PREFETCH ISSUED TO LOWER LEVEL:          0  ACCURACY: -nan
DTLB TIMELY PREFETCHES:          0 LATE PREFETCHES: 0 DROPPED PREFETCHES: 0
DTLB PREFETCHES SAME FILL-ORIGIN LEVEL: 0 DIFFERENT FILL-ORIGIN LEVEL: 0
DTLB AVERAGE MISS LATENCY: 14.7448 cycles
DTLB RQ	ACCESS:   57847267	FORWARD:          0	MERGED:   14668185	TO_CACHE:   43179082

STLB TOTAL     ACCESS:   10125123  HIT:   10031036  MISS:      94087  HIT %:    99.0708  MISS %:   0.929243   MPKI: 0.470435
STLB LOAD TRANSLATION ACCESS:    2097601  HIT:    2008635  MISS:      88966  HIT %:    95.7587  MISS %:    4.24132   MPKI: 0.44483
STLB TRANSLATION FROM L1D PREFETCHER ACCESS:    8027522  HIT:    8022401  MISS:       5121  HIT %:    99.9362  MISS %:   0.063793   MPKI: 0.025605
STLB PREFETCH  REQUESTED:          0  ISSUED:          0  USEFUL:       3781  USELESS:       1317
STLB USEFUL LOAD PREFETCHES:       3781 PREFETCH ISSUED TO LOWER LEVEL:          0  ACCURACY: inf
STLB TIMELY PREFETCHES:       3781 LATE PREFETCHES: 212 DROPPED PREFETCHES: 219454
STLB PREFETCHES SAME FILL-ORIGIN LEVEL: 0 DIFFERENT FILL-ORIGIN LEVEL: 0
STLB AVERAGE MISS LATENCY: 83.4728 cycles
STLB RQ	ACCESS:   12161226	FORWARD:          0	MERGED:    1815676	TO_CACHE:   10345550

STLB Hit, L1D data hit: 0
STLB Hit, L2C data hit: 0
STLB Hit, LLC data hit: 0
STLB Hit, LLC data miss: 0
STLB STLB hints to L2: 0
L1D TOTAL     ACCESS:   65560643  HIT:   63211434  MISS:    2349209  HIT %:    96.4167  MISS %:    3.58326   MPKI: 11.746
L1D LOAD      ACCESS:   34896309  HIT:   33462427  MISS:    1433882  HIT %:     95.891  MISS %:    4.10898   MPKI: 7.16941
L1D RFO       ACCESS:   20972356  HIT:   20263537  MISS:     708819  HIT %:    96.6202  MISS %:    3.37978   MPKI: 3.54409
L1D PREFETCH  ACCESS:    9691978  HIT:    9485470  MISS:     206508  HIT %:    97.8693  MISS %:    2.13071   MPKI: 1.03254
AGUS PREFETCH L1 MISS: 0
L1D PREFETCH  REQUESTED:   21216713  ISSUED:   21207767  USEFUL:     104755  USELESS:     101740
L1D USEFUL LOAD PREFETCHES:     104755 PREFETCH ISSUED TO LOWER LEVEL:     259420  ACCURACY: 40.3805
L1D TIMELY PREFETCHES:     104755 LATE PREFETCHES: 52561 DROPPED PREFETCHES: 241646
L1D PREFETCHES SAME FILL-ORIGIN LEVEL: 259420 DIFFERENT FILL-ORIGIN LEVEL: 0
L1D AVERAGE MISS LATENCY: 6.50721e+06 cycles
L1D RQ	ACCESS:   50589150	FORWARD:          0	MERGED:   15369233	TO_CACHE:   35015925
L1D WQ	ACCESS:   23216834	FORWARD:     211146	MERGED:     385492	TO_CACHE:   22831342
L1D PQ	ACCESS:   11144142	FORWARD:          0	MERGED:    1073363	TO_CACHE:   10063625

L1D UNIQUE REGIONS ACCESSED: 0
L1D REGIONS CONFLICTS: 0
L1D Cross Page Prefetch Requests: 7102548
L1D Same Page Prefetch Requests: 5197890
L1D ROI Sum of L1D PQ occupancy: 150759049
L1D PREFETCHES PUSHED FROM L2C: 0
L1I TOTAL     ACCESS:   38833901  HIT:   34554347  MISS:    4279554  HIT %:    88.9799  MISS %:    11.0201   MPKI: 21.3978
L1I LOAD      ACCESS:   38833901  HIT:   34554347  MISS:    4279554  HIT %:    88.9799  MISS %:    11.0201   MPKI: 21.3978
L1I PREFETCH  REQUESTED:          0  ISSUED:          0  USEFUL:          0  USELESS:          0
L1I USEFUL LOAD PREFETCHES:          0 PREFETCH ISSUED TO LOWER LEVEL:          0  ACCURACY: -nan
L1I TIMELY PREFETCHES:          0 LATE PREFETCHES: 0 DROPPED PREFETCHES: 0
L1I PREFETCHES SAME FILL-ORIGIN LEVEL: 0 DIFFERENT FILL-ORIGIN LEVEL: 0
L1I AVERAGE MISS LATENCY: 22.3238 cycles
L1I RQ	ACCESS:   60390621	FORWARD:          0	MERGED:   20956464	TO_CACHE:   39434157

BTB TOTAL     ACCESS:   31621999  HIT:   25926549  MISS:    5695450  HIT %:     81.989  MISS %:     18.011   MPKI: 28.4772
BTB BRANCH_DIRECT_JUMP	ACCESS:    3058145  HIT:    2682154  MISS:     375991
BTB BRANCH_INDIRECT	ACCESS:   12869399  HIT:   10666785  MISS:    2202614
BTB BRANCH_CONDITIONAL	ACCESS:    8093722  HIT:    7632458  MISS:     461264
BTB BRANCH_DIRECT_CALL	ACCESS:    2838199  HIT:    2154241  MISS:     683958
BTB BRANCH_INDIRECT_CALL	ACCESS:     962232  HIT:     678614  MISS:     283618
BTB BRANCH_RETURN	ACCESS:    3800302  HIT:    2112297  MISS:    1688005
BTB BRANCH_OTHER ACCESS:          0  HIT:          0  MISS:          0

L2C TOTAL     ACCESS:    8206469  HIT:    5944091  MISS:    2262378  HIT %:    72.4318  MISS %:    27.5682   MPKI: 11.3119
L2C LOAD      ACCESS:    5660837  HIT:    4053884  MISS:    1606953  HIT %:    71.6128  MISS %:    28.3872   MPKI: 8.03476
L2C DATA LOAD MPKI: 2.83921
L2C INSTRUCTION LOAD MPKI: 5.19555
L2C RFO       ACCESS:     708461  HIT:     311629  MISS:     396832  HIT %:    43.9868  MISS %:    56.0132   MPKI: 1.98416
L2C PREFETCH  ACCESS:     259416  HIT:     168846  MISS:      90570  HIT %:     65.087  MISS %:     34.913   MPKI: 0.45285
AGUS PREFETCH L1 MISS: 0
L2C DATA PREFETCH MPKI: 0.45285
L2C INSTRUCTION PREFETCH MPKI: 0
L2C WRITEBACK ACCESS:    1125511  HIT:    1056660  MISS:      68851  HIT %:    93.8827  MISS %:    6.11731   MPKI: 0.344255
L2C LOAD TRANSLATION ACCESS:     129360  HIT:      58638  MISS:      70722  HIT %:    45.3293  MISS %:    54.6707   MPKI: 0.35361
L2C TRANSLATION FROM L1D PREFETCHER ACCESS:     322884  HIT:     294434  MISS:      28450  HIT %:    91.1888  MISS %:    8.81121   MPKI: 0.14225
L2C PREFETCH  REQUESTED:          0  ISSUED:          0  USEFUL:      23523  USELESS:      95348
L2C USEFUL LOAD PREFETCHES:      23523 PREFETCH ISSUED TO LOWER LEVEL:      90570  ACCURACY: 25.9722
L2C TIMELY PREFETCHES:      23523 LATE PREFETCHES: 0 DROPPED PREFETCHES: 0
L2C PREFETCHES SAME FILL-ORIGIN LEVEL: 0 DIFFERENT FILL-ORIGIN LEVEL: 0
L2C AVERAGE MISS LATENCY: 66.8884 cycles
L2C RQ	ACCESS:    6821587	FORWARD:          0	MERGED:          0	TO_CACHE:    6821542
L2C WQ	ACCESS:    1125511	FORWARD:         49	MERGED:          0	TO_CACHE:    1125511
L2C PQ	ACCESS:     259420	FORWARD:          0	MERGED:          0	TO_CACHE:     259416

L2C Instructions Evicting Data 497996
L2C Translations Evicting Data 53336
L2C Data Evicting Data 537931
L2C Instructions Evicting Instructions 499728
L2C Translations Evicting Instructions 41232
L2C Data Evicting Instructions 466759
L2C Instructions Evicting Translations 41386
L2C Translations Evicting Translations 4604
L2C Data Evicting Translations 50555
L2C Dense regions hint from L2: 0
PSCL5 TOTAL     ACCESS:     309487  HIT:     309487  MISS:          0  HIT %:        100  MISS %:          0   MPKI: 0
PSCL5 LOAD TRANSLATION ACCESS:      88754  HIT:      88754  MISS:          0  HIT %:        100  MISS %:          0   MPKI: 0
PSCL5 TRANSLATION FROM L1D PREFETCHER ACCESS:     220733  HIT:     220733  MISS:          0  HIT %:        100  MISS %:          0   MPKI: 0
PSCL5 PREFETCH  REQUESTED:          0  ISSUED:          0  USEFUL:          0  USELESS:          0
PSCL5 USEFUL LOAD PREFETCHES:          0 PREFETCH ISSUED TO LOWER LEVEL:          0  ACCURACY: -nan
PSCL5 TIMELY PREFETCHES:          0 LATE PREFETCHES: 0 DROPPED PREFETCHES: 0
PSCL5 PREFETCHES SAME FILL-ORIGIN LEVEL: 0 DIFFERENT FILL-ORIGIN LEVEL: 0

PSCL4 TOTAL     ACCESS:     280840  HIT:     280202  MISS:        638  HIT %:    99.7728  MISS %:   0.227176   MPKI: 0.00319
PSCL4 LOAD TRANSLATION ACCESS:      87500  HIT:      86862  MISS:        638  HIT %:    99.2709  MISS %:   0.729143   MPKI: 0.00319
PSCL4 TRANSLATION FROM L1D PREFETCHER ACCESS:     193340  HIT:     193340  MISS:          0  HIT %:        100  MISS %:          0   MPKI: 0
PSCL4 PREFETCH  REQUESTED:          0  ISSUED:          0  USEFUL:          0  USELESS:          0
PSCL4 USEFUL LOAD PREFETCHES:          0 PREFETCH ISSUED TO LOWER LEVEL:          0  ACCURACY: -nan
PSCL4 TIMELY PREFETCHES:          0 LATE PREFETCHES: 0 DROPPED PREFETCHES: 0
PSCL4 PREFETCHES SAME FILL-ORIGIN LEVEL: 0 DIFFERENT FILL-ORIGIN LEVEL: 0

PSCL3 TOTAL     ACCESS:     211147  HIT:     200370  MISS:      10777  HIT %:     94.896  MISS %:    5.10403   MPKI: 0.053885
PSCL3 LOAD TRANSLATION ACCESS:      82748  HIT:      71971  MISS:      10777  HIT %:    86.9761  MISS %:    13.0239   MPKI: 0.053885
PSCL3 TRANSLATION FROM L1D PREFETCHER ACCESS:     128399  HIT:     128399  MISS:          0  HIT %:        100  MISS %:          0   MPKI: 0
PSCL3 PREFETCH  REQUESTED:          0  ISSUED:          0  USEFUL:          0  USELESS:          0
PSCL3 USEFUL LOAD PREFETCHES:          0 PREFETCH ISSUED TO LOWER LEVEL:          0  ACCURACY: -nan
PSCL3 TIMELY PREFETCHES:          0 LATE PREFETCHES: 0 DROPPED PREFETCHES: 0
PSCL3 PREFETCHES SAME FILL-ORIGIN LEVEL: 0 DIFFERENT FILL-ORIGIN LEVEL: 0

PSCL2 TOTAL     ACCESS:     130895  HIT:      98828  MISS:      32067  HIT %:    75.5017  MISS %:    24.4983   MPKI: 0.160335
PSCL2 LOAD TRANSLATION ACCESS:      90782  HIT:      58715  MISS:      32067  HIT %:    64.6769  MISS %:    35.3231   MPKI: 0.160335
PSCL2 TRANSLATION FROM L1D PREFETCHER ACCESS:      40113  HIT:      40113  MISS:          0  HIT %:        100  MISS %:          0   MPKI: 0
PSCL2 PREFETCH  REQUESTED:          0  ISSUED:          0  USEFUL:          0  USELESS:          0
PSCL2 USEFUL LOAD PREFETCHES:          0 PREFETCH ISSUED TO LOWER LEVEL:          0  ACCURACY: -nan
PSCL2 TIMELY PREFETCHES:          0 LATE PREFETCHES: 0 DROPPED PREFETCHES: 0
PSCL2 PREFETCHES SAME FILL-ORIGIN LEVEL: 0 DIFFERENT FILL-ORIGIN LEVEL: 0

LLC TOTAL     ACCESS:    2751376  HIT:    2228833  MISS:     522543  HIT %:    81.0079  MISS %:    18.9921   MPKI: 2.61271
LLC LOAD      ACCESS:    1606953  HIT:    1345072  MISS:     261881  HIT %:    83.7033  MISS %:    16.2967   MPKI: 1.3094
LLC RFO       ACCESS:     396831  HIT:     193328  MISS:     203503  HIT %:     48.718  MISS %:     51.282   MPKI: 1.01751
LLC PREFETCH  ACCESS:      90570  HIT:      59140  MISS:      31430  HIT %:    65.2976  MISS %:    34.7024   MPKI: 0.15715
AGUS PREFETCH L1 MISS: 0
LLC WRITEBACK ACCESS:     557850  HIT:     553684  MISS:       4166  HIT %:    99.2532  MISS %:   0.746796   MPKI: 0.02083
LLC LOAD TRANSLATION ACCESS:      70722  HIT:      54732  MISS:      15990  HIT %:    77.3903  MISS %:    22.6097   MPKI: 0.07995
LLC TRANSLATION FROM L1D PREFETCHER ACCESS:      28450  HIT:      22877  MISS:       5573  HIT %:    80.4112  MISS %:    19.5888   MPKI: 0.027865
LLC PREFETCH  REQUESTED:          0  ISSUED:          0  USEFUL:       3725  USELESS:      32837
LLC USEFUL LOAD PREFETCHES:       3725 PREFETCH ISSUED TO LOWER LEVEL:      31430  ACCURACY: 11.8517
LLC TIMELY PREFETCHES:       3725 LATE PREFETCHES: 0 DROPPED PREFETCHES: 0
LLC PREFETCHES SAME FILL-ORIGIN LEVEL: 0 DIFFERENT FILL-ORIGIN LEVEL: 0
LLC AVERAGE MISS LATENCY: 163.661 cycles
LLC RQ	ACCESS:    2102957	FORWARD:          0	MERGED:          0	TO_CACHE:    2102956
LLC WQ	ACCESS:     557850	FORWARD:          1	MERGED:          0	TO_CACHE:     557850
LLC PQ	ACCESS:      90570	FORWARD:          0	MERGED:          0	TO_CACHE:      90570

LLC Dense regions hint to LLC: 0

RAW hits: 2563297
Loads Generated: 53152447
Loads sent to L1D: 50589150
Stores Generated: 23216828
Stores sent to L1D: 23216834
Major fault: 0 Minor fault: 6099
Allocated PAGES: 6099
Completed 

DRAM Statistics
 CHANNEL 0
 RQ ROW_BUFFER_HIT:     124530  ROW_BUFFER_MISS:     393844
 DBUS_CONGESTED:        221
 WQ ROW_BUFFER_HIT:      50041  ROW_BUFFER_MISS:     238110  FULL:          0

 AVG_CONGESTED_CYCLE: 4
 All warmup complete: 2
Channel 0 Bank busy for read cycles: 0
Channel 0 Bank busy for write cycles: 0
Channel 0
Rank 0
0banks busy for read cycles: 374900062
0banks busy for write cycles: 136776
1banks busy for read cycles: 34700854
1banks busy for write cycles: 19429221
2banks busy for read cycles: 8200869
2banks busy for write cycles: 5705224
3banks busy for read cycles: 1500077
3banks busy for write cycles: 1828499
4banks busy for read cycles: 386702
4banks busy for write cycles: 811871
5banks busy for read cycles: 238042
5banks busy for write cycles: 435475
6banks busy for read cycles: 180065
6banks busy for write cycles: 282627
7banks busy for read cycles: 201394
7banks busy for write cycles: 265474
8banks busy for read cycles: 581884
8banks busy for write cycles: 996964

CPU 0 Branch Prediction Accuracy: 99.5147% MPKI: 0.87397 Average ROB Occupancy at Mispredict: 23.3203
Branch types
NOT_BRANCH: 163984830 81.9924%
BRANCH_DIRECT_JUMP: 3058145 1.52907%
BRANCH_INDIRECT: 12869399 6.4347%
BRANCH_CONDITIONAL: 12486555 6.24328%
BRANCH_DIRECT_CALL: 2838199 1.4191%
BRANCH_INDIRECT_CALL: 962232 0.481116%
BRANCH_RETURN: 3800302 1.90015%
BRANCH_OTHER: 0 0%

DRAM PAGES: 1048576
Allocated PAGES: 6099
