
*** ChampSim Multicore Out-of-Order Simulator ***

Warmup Instructions: 50000000
Simulation Instructions: 200000000
Number of CPUs: 1
LLC sets: 2048
LLC ways: 16
Off-chip DRAM Size: 4096 MB Channels: 1 Width: 64-bit Data Rate: 6400 MT/s
CPU 0 runs traces/spec2k17/srv_11.champsimtrace.xz
.xz
BTB has LRU replacement policy
ITLB has LRU replacement policy
DTLB has LRU replacement policy
STLB has LRU replacement policy
L1I has LRU replacement policy
L1D has LRU replacement policy
Initialize SRRIP state for L2C
Initialize DRRIP state for LLC
Heartbeat CPU 0 instructions: 10000000 cycles: 3210565 heartbeat IPC: 3.11472 cumulative IPC: 3.11472 (Simulation time: 0 hr 0 min 45 sec) 
Heartbeat CPU 0 instructions: 20000002 cycles: 7389614 heartbeat IPC: 2.39289 cumulative IPC: 2.7065 (Simulation time: 0 hr 1 min 35 sec) 
Heartbeat CPU 0 instructions: 30000001 cycles: 10165036 heartbeat IPC: 3.60306 cumulative IPC: 2.95129 (Simulation time: 0 hr 2 min 11 sec) 
*** Reached end of trace for Core: 0 Repeating trace: traces/spec2k17/srv_11.champsimtrace.xz
Heartbeat CPU 0 instructions: 40000001 cycles: 13233579 heartbeat IPC: 3.25888 cumulative IPC: 3.02261 (Simulation time: 0 hr 2 min 52 sec) 
Heartbeat CPU 0 instructions: 50000000 cycles: 17549588 heartbeat IPC: 2.31696 cumulative IPC: 2.84907 (Simulation time: 0 hr 3 min 53 sec) 

Warmup complete CPU 0 instructions: 50000004 cycles: 17549589 (Simulation time: 0 hr 3 min 53 sec) 

Heartbeat CPU 0 instructions: 60000003 cycles: 41225335 heartbeat IPC: 0.422373 cumulative IPC: 0.422373 (Simulation time: 0 hr 4 min 50 sec) 
*** Reached end of trace for Core: 0 Repeating trace: traces/spec2k17/srv_11.champsimtrace.xz
Heartbeat CPU 0 instructions: 70000000 cycles: 65127287 heartbeat IPC: 0.418376 cumulative IPC: 0.420365 (Simulation time: 0 hr 5 min 52 sec) 
Heartbeat CPU 0 instructions: 80000001 cycles: 101441104 heartbeat IPC: 0.275377 cumulative IPC: 0.357605 (Simulation time: 0 hr 7 min 18 sec) 
Heartbeat CPU 0 instructions: 90000003 cycles: 125895764 heartbeat IPC: 0.40892 cumulative IPC: 0.369187 (Simulation time: 0 hr 8 min 15 sec) 
*** Reached end of trace for Core: 0 Repeating trace: traces/spec2k17/srv_11.champsimtrace.xz
Heartbeat CPU 0 instructions: 100000003 cycles: 149392247 heartbeat IPC: 0.425596 cumulative IPC: 0.37924 (Simulation time: 0 hr 9 min 12 sec) 
Heartbeat CPU 0 instructions: 110000000 cycles: 184804555 heartbeat IPC: 0.282388 cumulative IPC: 0.358734 (Simulation time: 0 hr 10 min 36 sec) 
Heartbeat CPU 0 instructions: 120000000 cycles: 210104762 heartbeat IPC: 0.395254 cumulative IPC: 0.363532 (Simulation time: 0 hr 11 min 41 sec) 
*** Reached end of trace for Core: 0 Repeating trace: traces/spec2k17/srv_11.champsimtrace.xz
Heartbeat CPU 0 instructions: 130000002 cycles: 233564652 heartbeat IPC: 0.42626 cumulative IPC: 0.370345 (Simulation time: 0 hr 12 min 39 sec) 
Heartbeat CPU 0 instructions: 140000002 cycles: 268050557 heartbeat IPC: 0.289974 cumulative IPC: 0.35928 (Simulation time: 0 hr 14 min 5 sec) 
Heartbeat CPU 0 instructions: 150000002 cycles: 294023815 heartbeat IPC: 0.385011 cumulative IPC: 0.361697 (Simulation time: 0 hr 15 min 16 sec) 
*** Reached end of trace for Core: 0 Repeating trace: traces/spec2k17/srv_11.champsimtrace.xz
Heartbeat CPU 0 instructions: 160000003 cycles: 317637238 heartbeat IPC: 0.423488 cumulative IPC: 0.36656 (Simulation time: 0 hr 16 min 17 sec) 
Heartbeat CPU 0 instructions: 170000000 cycles: 351194163 heartbeat IPC: 0.298001 cumulative IPC: 0.359664 (Simulation time: 0 hr 17 min 38 sec) 
Heartbeat CPU 0 instructions: 180000001 cycles: 378016824 heartbeat IPC: 0.372819 cumulative IPC: 0.360643 (Simulation time: 0 hr 18 min 45 sec) 
*** Reached end of trace for Core: 0 Repeating trace: traces/spec2k17/srv_11.champsimtrace.xz
Heartbeat CPU 0 instructions: 190000003 cycles: 401449392 heartbeat IPC: 0.426757 cumulative IPC: 0.364678 (Simulation time: 0 hr 19 min 43 sec) 
Heartbeat CPU 0 instructions: 200000000 cycles: 434264563 heartbeat IPC: 0.304737 cumulative IPC: 0.359958 (Simulation time: 0 hr 20 min 55 sec) 
Heartbeat CPU 0 instructions: 210000001 cycles: 461895087 heartbeat IPC: 0.361919 cumulative IPC: 0.36008 (Simulation time: 0 hr 21 min 51 sec) 
*** Reached end of trace for Core: 0 Repeating trace: traces/spec2k17/srv_11.champsimtrace.xz
Heartbeat CPU 0 instructions: 220000000 cycles: 485375230 heartbeat IPC: 0.425892 cumulative IPC: 0.363383 (Simulation time: 0 hr 22 min 46 sec) 
Heartbeat CPU 0 instructions: 230000000 cycles: 517265630 heartbeat IPC: 0.313574 cumulative IPC: 0.360205 (Simulation time: 0 hr 24 min 0 sec) 
Heartbeat CPU 0 instructions: 240000002 cycles: 545776547 heartbeat IPC: 0.350743 cumulative IPC: 0.359694 (Simulation time: 0 hr 24 min 58 sec) 
*** Reached end of trace for Core: 0 Repeating trace: traces/spec2k17/srv_11.champsimtrace.xz
Heartbeat CPU 0 instructions: 250000000 cycles: 569207425 heartbeat IPC: 0.426787 cumulative IPC: 0.362544 (Simulation time: 0 hr 25 min 41 sec) 
Finished CPU 0 instructions: 200000000 cycles: 551657837 cumulative IPC: 0.362544 (Simulation time: 0 hr 25 min 41 sec) 

ChampSim completed all CPUs

Region of Interest Statistics

CPU 0 cumulative IPC: 0.362544 instructions: 200000000 cycles: 551657837
ITLB TOTAL     ACCESS:   37990767  HIT:   37451290  MISS:     539477  HIT %:      98.58  MISS %:    1.42002   MPKI: 2.69739
ITLB LOAD TRANSLATION ACCESS:   37990767  HIT:   37451290  MISS:     539477  HIT %:      98.58  MISS %:    1.42002   MPKI: 2.69739
ITLB PREFETCH  REQUESTED:          0  ISSUED:          0  USEFUL:          0  USELESS:          0
ITLB USEFUL LOAD PREFETCHES:          0 PREFETCH ISSUED TO LOWER LEVEL:          0  ACCURACY: -nan
ITLB TIMELY PREFETCHES:          0 LATE PREFETCHES: 0 DROPPED PREFETCHES: 0
ITLB PREFETCHES SAME FILL-ORIGIN LEVEL: 0 DIFFERENT FILL-ORIGIN LEVEL: 0
ITLB AVERAGE MISS LATENCY: 16.0757 cycles
ITLB RQ	ACCESS:   43893150	FORWARD:          0	MERGED:    5773669	TO_CACHE:   38119481

DTLB TOTAL     ACCESS:   43910590  HIT:   34923867  MISS:    8986723  HIT %:     79.534  MISS %:     20.466   MPKI: 44.9336
DTLB LOAD TRANSLATION ACCESS:   43910590  HIT:   34923867  MISS:    8986723  HIT %:     79.534  MISS %:     20.466   MPKI: 44.9336
DTLB PREFETCH  REQUESTED:          0  ISSUED:          0  USEFUL:          0  USELESS:          0
DTLB USEFUL LOAD PREFETCHES:          0 PREFETCH ISSUED TO LOWER LEVEL:          0  ACCURACY: -nan
DTLB TIMELY PREFETCHES:          0 LATE PREFETCHES: 0 DROPPED PREFETCHES: 0
DTLB PREFETCHES SAME FILL-ORIGIN LEVEL: 0 DIFFERENT FILL-ORIGIN LEVEL: 0
DTLB AVERAGE MISS LATENCY: 8.46437 cycles
DTLB RQ	ACCESS:   58961414	FORWARD:          0	MERGED:   14868626	TO_CACHE:   44092788

STLB TOTAL     ACCESS:   28201100  HIT:   27881332  MISS:     319768  HIT %:    98.8661  MISS %:    1.13388   MPKI: 1.59884
STLB LOAD TRANSLATION ACCESS:    9526200  HIT:    9213445  MISS:     312755  HIT %:    96.7169  MISS %:     3.2831   MPKI: 1.56377
STLB TRANSLATION FROM L1D PREFETCHER ACCESS:   18674900  HIT:   18667887  MISS:       7013  HIT %:    99.9624  MISS %:  0.0375531   MPKI: 0.035065
STLB PREFETCH  REQUESTED:          0  ISSUED:          0  USEFUL:       5591  USELESS:       1421
STLB USEFUL LOAD PREFETCHES:       5591 PREFETCH ISSUED TO LOWER LEVEL:          0  ACCURACY: inf
STLB TIMELY PREFETCHES:       5591 LATE PREFETCHES: 1134 DROPPED PREFETCHES: 384087
STLB PREFETCHES SAME FILL-ORIGIN LEVEL: 0 DIFFERENT FILL-ORIGIN LEVEL: 0
STLB AVERAGE MISS LATENCY: 39.9961 cycles
STLB RQ	ACCESS:   36942000	FORWARD:          0	MERGED:    8354842	TO_CACHE:   28587158

STLB Hit, L1D data hit: 0
STLB Hit, L2C data hit: 0
STLB Hit, LLC data hit: 0
STLB Hit, LLC data miss: 0
STLB STLB hints to L2: 0
L1D TOTAL     ACCESS:   78253604  HIT:   65781777  MISS:   12471827  HIT %:    84.0623  MISS %:    15.9377   MPKI: 62.3591
L1D LOAD      ACCESS:   41031333  HIT:   31822008  MISS:    9209325  HIT %:    77.5554  MISS %:    22.4446   MPKI: 46.0466
L1D RFO       ACCESS:   17522893  HIT:   17155629  MISS:     367264  HIT %:    97.9041  MISS %:    2.09591   MPKI: 1.83632
L1D PREFETCH  ACCESS:   19699378  HIT:   16804140  MISS:    2895238  HIT %:    85.3029  MISS %:    14.6971   MPKI: 14.4762
AGUS PREFETCH L1 MISS: 0
L1D PREFETCH  REQUESTED:   56272370  ISSUED:   56270544  USEFUL:    2763301  USELESS:     131951
L1D USEFUL LOAD PREFETCHES:    2763301 PREFETCH ISSUED TO LOWER LEVEL:    5927197  ACCURACY: 46.6207
L1D TIMELY PREFETCHES:    2763301 LATE PREFETCHES: 3031666 DROPPED PREFETCHES: 441200
L1D PREFETCHES SAME FILL-ORIGIN LEVEL: 5927197 DIFFERENT FILL-ORIGIN LEVEL: 0
L1D AVERAGE MISS LATENCY: 7.37724e+07 cycles
L1D RQ	ACCESS:   54034682	FORWARD:          0	MERGED:   12746773	TO_CACHE:   41130567
L1D WQ	ACCESS:   18064452	FORWARD:     246110	MERGED:     233605	TO_CACHE:   17830847
L1D PQ	ACCESS:   28854744	FORWARD:          0	MERGED:    1350176	TO_CACHE:   27415800

L1D UNIQUE REGIONS ACCESSED: 0
L1D REGIONS CONFLICTS: 0
L1D Cross Page Prefetch Requests: 26837956
L1D Same Page Prefetch Requests: 9085866
L1D ROI Sum of L1D PQ occupancy: 391348379
L1D PREFETCHES PUSHED FROM L2C: 0
L1I TOTAL     ACCESS:   42777486  HIT:   39355344  MISS:    3422142  HIT %:    92.0001  MISS %:    7.99987   MPKI: 17.1107
L1I LOAD      ACCESS:   42777486  HIT:   39355344  MISS:    3422142  HIT %:    92.0001  MISS %:    7.99987   MPKI: 17.1107
L1I PREFETCH  REQUESTED:          0  ISSUED:          0  USEFUL:          0  USELESS:          0
L1I USEFUL LOAD PREFETCHES:          0 PREFETCH ISSUED TO LOWER LEVEL:          0  ACCURACY: -nan
L1I TIMELY PREFETCHES:          0 LATE PREFETCHES: 0 DROPPED PREFETCHES: 0
L1I PREFETCHES SAME FILL-ORIGIN LEVEL: 0 DIFFERENT FILL-ORIGIN LEVEL: 0
L1I AVERAGE MISS LATENCY: 28.3643 cycles
L1I RQ	ACCESS:   65990112	FORWARD:          0	MERGED:   22096962	TO_CACHE:   43893150

BTB TOTAL     ACCESS:   33562541  HIT:   29061291  MISS:    4501250  HIT %:    86.5885  MISS %:    13.4115   MPKI: 22.5063
BTB BRANCH_DIRECT_JUMP	ACCESS:    1685269  HIT:    1483558  MISS:     201711
BTB BRANCH_INDIRECT	ACCESS:   19828017  HIT:   17476348  MISS:    2351669
BTB BRANCH_CONDITIONAL	ACCESS:    4608066  HIT:    4287796  MISS:     320270
BTB BRANCH_DIRECT_CALL	ACCESS:    2993939  HIT:    2599188  MISS:     394751
BTB BRANCH_INDIRECT_CALL	ACCESS:     724221  HIT:     681906  MISS:      42315
BTB BRANCH_RETURN	ACCESS:    3723029  HIT:    2532495  MISS:    1190534
BTB BRANCH_OTHER ACCESS:          0  HIT:          0  MISS:          0

L2C TOTAL     ACCESS:   17637686  HIT:   14911392  MISS:    2726294  HIT %:    84.5428  MISS %:    15.4572   MPKI: 13.6315
L2C LOAD      ACCESS:    9599768  HIT:    7268548  MISS:    2331220  HIT %:    75.7159  MISS %:    24.2841   MPKI: 11.6561
L2C DATA LOAD MPKI: 3.8715
L2C INSTRUCTION LOAD MPKI: 7.7846
L2C RFO       ACCESS:     366971  HIT:     242286  MISS:     124685  HIT %:    66.0232  MISS %:    33.9768   MPKI: 0.623425
L2C PREFETCH  ACCESS:    5927195  HIT:    5870635  MISS:      56560  HIT %:    99.0458  MISS %:   0.954246   MPKI: 0.2828
AGUS PREFETCH L1 MISS: 0
L2C DATA PREFETCH MPKI: 0.2828
L2C INSTRUCTION PREFETCH MPKI: 0
L2C WRITEBACK ACCESS:     810949  HIT:     771076  MISS:      39873  HIT %:    95.0832  MISS %:    4.91683   MPKI: 0.199365
L2C LOAD TRANSLATION ACCESS:     394177  HIT:     247653  MISS:     146524  HIT %:    62.8279  MISS %:    37.1721   MPKI: 0.73262
L2C TRANSLATION FROM L1D PREFETCHER ACCESS:     538626  HIT:     511194  MISS:      27432  HIT %:     94.907  MISS %:    5.09296   MPKI: 0.13716
L2C PREFETCH  REQUESTED:          0  ISSUED:          0  USEFUL:      18861  USELESS:      65109
L2C USEFUL LOAD PREFETCHES:      18861 PREFETCH ISSUED TO LOWER LEVEL:      56560  ACCURACY: 33.3469
L2C TIMELY PREFETCHES:      18861 LATE PREFETCHES: 0 DROPPED PREFETCHES: 0
L2C PREFETCHES SAME FILL-ORIGIN LEVEL: 0 DIFFERENT FILL-ORIGIN LEVEL: 0
L2C AVERAGE MISS LATENCY: 41.8983 cycles
L2C RQ	ACCESS:   10899575	FORWARD:          0	MERGED:          0	TO_CACHE:   10899542
L2C WQ	ACCESS:     810949	FORWARD:         35	MERGED:          0	TO_CACHE:     810949
L2C PQ	ACCESS:    5927197	FORWARD:          0	MERGED:          0	TO_CACHE:    5927195

L2C Instructions Evicting Data 564670
L2C Translations Evicting Data 63742
L2C Data Evicting Data 354145
L2C Instructions Evicting Instructions 891552
L2C Translations Evicting Instructions 100776
L2C Data Evicting Instructions 540346
L2C Instructions Evicting Translations 100698
L2C Translations Evicting Translations 9438
L2C Data Evicting Translations 61054
L2C Dense regions hint from L2: 0
PSCL5 TOTAL     ACCESS:     692705  HIT:     692705  MISS:          0  HIT %:        100  MISS %:          0   MPKI: 0
PSCL5 LOAD TRANSLATION ACCESS:     311621  HIT:     311621  MISS:          0  HIT %:        100  MISS %:          0   MPKI: 0
PSCL5 TRANSLATION FROM L1D PREFETCHER ACCESS:     381084  HIT:     381084  MISS:          0  HIT %:        100  MISS %:          0   MPKI: 0
PSCL5 PREFETCH  REQUESTED:          0  ISSUED:          0  USEFUL:          0  USELESS:          0
PSCL5 USEFUL LOAD PREFETCHES:          0 PREFETCH ISSUED TO LOWER LEVEL:          0  ACCURACY: -nan
PSCL5 TIMELY PREFETCHES:          0 LATE PREFETCHES: 0 DROPPED PREFETCHES: 0
PSCL5 PREFETCHES SAME FILL-ORIGIN LEVEL: 0 DIFFERENT FILL-ORIGIN LEVEL: 0

PSCL4 TOTAL     ACCESS:     647438  HIT:     646720  MISS:        718  HIT %:    99.8891  MISS %:   0.110899   MPKI: 0.00359
PSCL4 LOAD TRANSLATION ACCESS:     292643  HIT:     291925  MISS:        718  HIT %:    99.7546  MISS %:    0.24535   MPKI: 0.00359
PSCL4 TRANSLATION FROM L1D PREFETCHER ACCESS:     354795  HIT:     354795  MISS:          0  HIT %:        100  MISS %:          0   MPKI: 0
PSCL4 PREFETCH  REQUESTED:          0  ISSUED:          0  USEFUL:          0  USELESS:          0
PSCL4 USEFUL LOAD PREFETCHES:          0 PREFETCH ISSUED TO LOWER LEVEL:          0  ACCURACY: -nan
PSCL4 TIMELY PREFETCHES:          0 LATE PREFETCHES: 0 DROPPED PREFETCHES: 0
PSCL4 PREFETCHES SAME FILL-ORIGIN LEVEL: 0 DIFFERENT FILL-ORIGIN LEVEL: 0

PSCL3 TOTAL     ACCESS:     639164  HIT:     636713  MISS:       2451  HIT %:    99.6165  MISS %:    0.38347   MPKI: 0.012255
PSCL3 LOAD TRANSLATION ACCESS:     309446  HIT:     306995  MISS:       2451  HIT %:    99.2079  MISS %:   0.792061   MPKI: 0.012255
PSCL3 TRANSLATION FROM L1D PREFETCHER ACCESS:     329718  HIT:     329718  MISS:          0  HIT %:        100  MISS %:          0   MPKI: 0
PSCL3 PREFETCH  REQUESTED:          0  ISSUED:          0  USEFUL:          0  USELESS:          0
PSCL3 USEFUL LOAD PREFETCHES:          0 PREFETCH ISSUED TO LOWER LEVEL:          0  ACCURACY: -nan
PSCL3 TIMELY PREFETCHES:          0 LATE PREFETCHES: 0 DROPPED PREFETCHES: 0
PSCL3 PREFETCHES SAME FILL-ORIGIN LEVEL: 0 DIFFERENT FILL-ORIGIN LEVEL: 0

PSCL2 TOTAL     ACCESS:     377932  HIT:     294882  MISS:      83050  HIT %:    78.0251  MISS %:    21.9749   MPKI: 0.41525
PSCL2 LOAD TRANSLATION ACCESS:     315205  HIT:     232155  MISS:      83050  HIT %:    73.6521  MISS %:    26.3479   MPKI: 0.41525
PSCL2 TRANSLATION FROM L1D PREFETCHER ACCESS:      62727  HIT:      62727  MISS:          0  HIT %:        100  MISS %:          0   MPKI: 0
PSCL2 PREFETCH  REQUESTED:          0  ISSUED:          0  USEFUL:          0  USELESS:          0
PSCL2 USEFUL LOAD PREFETCHES:          0 PREFETCH ISSUED TO LOWER LEVEL:          0  ACCURACY: -nan
PSCL2 TIMELY PREFETCHES:          0 LATE PREFETCHES: 0 DROPPED PREFETCHES: 0
PSCL2 PREFETCHES SAME FILL-ORIGIN LEVEL: 0 DIFFERENT FILL-ORIGIN LEVEL: 0

LLC TOTAL     ACCESS:    3024014  HIT:    2819441  MISS:     204573  HIT %:    93.2351  MISS %:    6.76495   MPKI: 1.02286
LLC LOAD      ACCESS:    2331219  HIT:    2175270  MISS:     155949  HIT %:    93.3104  MISS %:    6.68959   MPKI: 0.779745
LLC RFO       ACCESS:     124685  HIT:      92995  MISS:      31690  HIT %:     74.584  MISS %:     25.416   MPKI: 0.15845
LLC PREFETCH  ACCESS:      56560  HIT:      47309  MISS:       9251  HIT %:    83.6439  MISS %:    16.3561   MPKI: 0.046255
AGUS PREFETCH L1 MISS: 0
LLC WRITEBACK ACCESS:     337594  HIT:     335455  MISS:       2139  HIT %:    99.3664  MISS %:   0.633601   MPKI: 0.010695
LLC LOAD TRANSLATION ACCESS:     146524  HIT:     143128  MISS:       3396  HIT %:    97.6823  MISS %:    2.31771   MPKI: 0.01698
LLC TRANSLATION FROM L1D PREFETCHER ACCESS:      27432  HIT:      25284  MISS:       2148  HIT %:    92.1697  MISS %:    7.83027   MPKI: 0.01074
LLC PREFETCH  REQUESTED:          0  ISSUED:          0  USEFUL:       2369  USELESS:       8626
LLC USEFUL LOAD PREFETCHES:       2369 PREFETCH ISSUED TO LOWER LEVEL:       9251  ACCURACY: 25.608
LLC TIMELY PREFETCHES:       2369 LATE PREFETCHES: 0 DROPPED PREFETCHES: 0
LLC PREFETCHES SAME FILL-ORIGIN LEVEL: 0 DIFFERENT FILL-ORIGIN LEVEL: 0
LLC AVERAGE MISS LATENCY: 164.405 cycles
LLC RQ	ACCESS:    2629861	FORWARD:          0	MERGED:          0	TO_CACHE:    2629860
LLC WQ	ACCESS:     337594	FORWARD:          1	MERGED:          0	TO_CACHE:     337594
LLC PQ	ACCESS:      56560	FORWARD:          0	MERGED:          0	TO_CACHE:      56560

LLC Dense regions hint to LLC: 0

RAW hits: 2258136
Loads Generated: 56292824
Loads sent to L1D: 54034682
Stores Generated: 18064423
Stores sent to L1D: 18064452
Major fault: 0 Minor fault: 4241
Allocated PAGES: 4241
Completed 

DRAM Statistics
 CHANNEL 0
 RQ ROW_BUFFER_HIT:      43583  ROW_BUFFER_MISS:     158850
 DBUS_CONGESTED:         96
 WQ ROW_BUFFER_HIT:      18003  ROW_BUFFER_MISS:     118864  FULL:          0

 AVG_CONGESTED_CYCLE: 4
 All warmup complete: 2
Channel 0 Bank busy for read cycles: 0
Channel 0 Bank busy for write cycles: 0
Channel 0
Rank 0
0banks busy for read cycles: 515687740
0banks busy for write cycles: 78796
1banks busy for read cycles: 17732150
1banks busy for write cycles: 11127130
2banks busy for read cycles: 2236660
2banks busy for write cycles: 2208540
3banks busy for read cycles: 350184
3banks busy for write cycles: 640613
4banks busy for read cycles: 161953
4banks busy for write cycles: 318293
5banks busy for read cycles: 67455
5banks busy for write cycles: 189478
6banks busy for read cycles: 55366
6banks busy for write cycles: 139311
7banks busy for read cycles: 54811
7banks busy for write cycles: 126262
8banks busy for read cycles: 140453
8banks busy for write cycles: 342643

CPU 0 Branch Prediction Accuracy: 99.8224% MPKI: 0.38789 Average ROB Occupancy at Mispredict: 29.327
Branch types
NOT_BRANCH: 156307769 78.1539%
BRANCH_DIRECT_JUMP: 1685269 0.842634%
BRANCH_INDIRECT: 19828017 9.91401%
BRANCH_CONDITIONAL: 14737479 7.36874%
BRANCH_DIRECT_CALL: 2993939 1.49697%
BRANCH_INDIRECT_CALL: 724221 0.362111%
BRANCH_RETURN: 3723029 1.86151%
BRANCH_OTHER: 0 0%

DRAM PAGES: 1048576
Allocated PAGES: 4241
