
*** ChampSim Multicore Out-of-Order Simulator ***

Warmup Instructions: 50000000
Simulation Instructions: 200000000
Number of CPUs: 1
LLC sets: 2048
LLC ways: 16
Off-chip DRAM Size: 4096 MB Channels: 1 Width: 64-bit Data Rate: 6400 MT/s
CPU 0 runs traces/spec2k17/srv_26.champsimtrace.xz
.xz
BTB has LRU replacement policy
ITLB has LRU replacement policy
DTLB has LRU replacement policy
STLB has LRU replacement policy
L1I has LRU replacement policy
L1D has LRU replacement policy
Initialize SRRIP state for L2C
Initialize DRRIP state for LLC
Heartbeat CPU 0 instructions: 10000003 cycles: 2820878 heartbeat IPC: 3.545 cumulative IPC: 3.545 (Simulation time: 0 hr 0 min 37 sec) 
Heartbeat CPU 0 instructions: 20000000 cycles: 5640118 heartbeat IPC: 3.54705 cumulative IPC: 3.54603 (Simulation time: 0 hr 1 min 14 sec) 
Heartbeat CPU 0 instructions: 30000000 cycles: 8458661 heartbeat IPC: 3.54793 cumulative IPC: 3.54666 (Simulation time: 0 hr 1 min 49 sec) 
*** Reached end of trace for Core: 0 Repeating trace: traces/spec2k17/srv_26.champsimtrace.xz
Heartbeat CPU 0 instructions: 40000003 cycles: 11277053 heartbeat IPC: 3.54812 cumulative IPC: 3.54703 (Simulation time: 0 hr 2 min 23 sec) 
Heartbeat CPU 0 instructions: 50000000 cycles: 14099744 heartbeat IPC: 3.54272 cumulative IPC: 3.54616 (Simulation time: 0 hr 2 min 50 sec) 

Warmup complete CPU 0 instructions: 50000004 cycles: 14099745 (Simulation time: 0 hr 2 min 50 sec) 

Heartbeat CPU 0 instructions: 60000001 cycles: 46095968 heartbeat IPC: 0.312537 cumulative IPC: 0.312537 (Simulation time: 0 hr 3 min 32 sec) 
*** Reached end of trace for Core: 0 Repeating trace: traces/spec2k17/srv_26.champsimtrace.xz
Heartbeat CPU 0 instructions: 70000001 cycles: 78203016 heartbeat IPC: 0.311458 cumulative IPC: 0.311997 (Simulation time: 0 hr 4 min 29 sec) 
Heartbeat CPU 0 instructions: 80000000 cycles: 110147432 heartbeat IPC: 0.313044 cumulative IPC: 0.312345 (Simulation time: 0 hr 5 min 31 sec) 
Heartbeat CPU 0 instructions: 90000000 cycles: 142098966 heartbeat IPC: 0.312974 cumulative IPC: 0.312502 (Simulation time: 0 hr 6 min 32 sec) 
*** Reached end of trace for Core: 0 Repeating trace: traces/spec2k17/srv_26.champsimtrace.xz
Heartbeat CPU 0 instructions: 100000000 cycles: 174033250 heartbeat IPC: 0.313143 cumulative IPC: 0.31263 (Simulation time: 0 hr 7 min 32 sec) 
Heartbeat CPU 0 instructions: 110000000 cycles: 205868676 heartbeat IPC: 0.314115 cumulative IPC: 0.312877 (Simulation time: 0 hr 8 min 21 sec) 
Heartbeat CPU 0 instructions: 120000001 cycles: 237685039 heartbeat IPC: 0.314304 cumulative IPC: 0.31308 (Simulation time: 0 hr 9 min 23 sec) 
*** Reached end of trace for Core: 0 Repeating trace: traces/spec2k17/srv_26.champsimtrace.xz
Heartbeat CPU 0 instructions: 130000000 cycles: 269557976 heartbeat IPC: 0.313746 cumulative IPC: 0.313163 (Simulation time: 0 hr 10 min 29 sec) 
Heartbeat CPU 0 instructions: 140000001 cycles: 301393083 heartbeat IPC: 0.314119 cumulative IPC: 0.313269 (Simulation time: 0 hr 11 min 40 sec) 
Heartbeat CPU 0 instructions: 150000003 cycles: 333066909 heartbeat IPC: 0.315718 cumulative IPC: 0.313512 (Simulation time: 0 hr 12 min 47 sec) 
*** Reached end of trace for Core: 0 Repeating trace: traces/spec2k17/srv_26.champsimtrace.xz
Heartbeat CPU 0 instructions: 160000000 cycles: 364814144 heartbeat IPC: 0.314988 cumulative IPC: 0.313646 (Simulation time: 0 hr 13 min 53 sec) 
Heartbeat CPU 0 instructions: 170000000 cycles: 396539782 heartbeat IPC: 0.315202 cumulative IPC: 0.313775 (Simulation time: 0 hr 14 min 57 sec) 
Heartbeat CPU 0 instructions: 180000000 cycles: 428288433 heartbeat IPC: 0.314974 cumulative IPC: 0.313867 (Simulation time: 0 hr 16 min 2 sec) 
*** Reached end of trace for Core: 0 Repeating trace: traces/spec2k17/srv_26.champsimtrace.xz
Heartbeat CPU 0 instructions: 190000002 cycles: 459981156 heartbeat IPC: 0.31553 cumulative IPC: 0.313985 (Simulation time: 0 hr 17 min 6 sec) 
Heartbeat CPU 0 instructions: 200000003 cycles: 491705163 heartbeat IPC: 0.315219 cumulative IPC: 0.314067 (Simulation time: 0 hr 18 min 12 sec) 
Heartbeat CPU 0 instructions: 210000002 cycles: 523461873 heartbeat IPC: 0.314894 cumulative IPC: 0.314118 (Simulation time: 0 hr 19 min 15 sec) 
*** Reached end of trace for Core: 0 Repeating trace: traces/spec2k17/srv_26.champsimtrace.xz
Heartbeat CPU 0 instructions: 220000000 cycles: 555137813 heartbeat IPC: 0.315697 cumulative IPC: 0.314211 (Simulation time: 0 hr 20 min 20 sec) 
Heartbeat CPU 0 instructions: 230000000 cycles: 586847615 heartbeat IPC: 0.31536 cumulative IPC: 0.314274 (Simulation time: 0 hr 21 min 26 sec) 
Heartbeat CPU 0 instructions: 240000000 cycles: 618624264 heartbeat IPC: 0.314696 cumulative IPC: 0.314297 (Simulation time: 0 hr 22 min 31 sec) 
*** Reached end of trace for Core: 0 Repeating trace: traces/spec2k17/srv_26.champsimtrace.xz
Heartbeat CPU 0 instructions: 250000000 cycles: 650285415 heartbeat IPC: 0.315844 cumulative IPC: 0.314374 (Simulation time: 0 hr 23 min 34 sec) 
Finished CPU 0 instructions: 200000000 cycles: 636185694 cumulative IPC: 0.314374 (Simulation time: 0 hr 23 min 34 sec) 

ChampSim completed all CPUs

Region of Interest Statistics

CPU 0 cumulative IPC: 0.314374 instructions: 200000000 cycles: 636185694
ITLB TOTAL     ACCESS:   34709480  HIT:   32656367  MISS:    2053113  HIT %:    94.0849  MISS %:    5.91514   MPKI: 10.2656
ITLB LOAD TRANSLATION ACCESS:   34709480  HIT:   32656367  MISS:    2053113  HIT %:    94.0849  MISS %:    5.91514   MPKI: 10.2656
ITLB PREFETCH  REQUESTED:          0  ISSUED:          0  USEFUL:          0  USELESS:          0
ITLB USEFUL LOAD PREFETCHES:          0 PREFETCH ISSUED TO LOWER LEVEL:          0  ACCURACY: -nan
ITLB TIMELY PREFETCHES:          0 LATE PREFETCHES: 0 DROPPED PREFETCHES: 0
ITLB PREFETCHES SAME FILL-ORIGIN LEVEL: 0 DIFFERENT FILL-ORIGIN LEVEL: 0
ITLB AVERAGE MISS LATENCY: 9.06414 cycles
ITLB RQ	ACCESS:   40962610	FORWARD:          0	MERGED:    5761996	TO_CACHE:   35200614

DTLB TOTAL     ACCESS:   46578245  HIT:   44732732  MISS:    1845513  HIT %:    96.0378  MISS %:    3.96218   MPKI: 9.22757
DTLB LOAD TRANSLATION ACCESS:   46578245  HIT:   44732732  MISS:    1845513  HIT %:    96.0378  MISS %:    3.96218   MPKI: 9.22757
DTLB PREFETCH  REQUESTED:          0  ISSUED:          0  USEFUL:          0  USELESS:          0
DTLB USEFUL LOAD PREFETCHES:          0 PREFETCH ISSUED TO LOWER LEVEL:          0  ACCURACY: -nan
DTLB TIMELY PREFETCHES:          0 LATE PREFETCHES: 0 DROPPED PREFETCHES: 0
DTLB PREFETCHES SAME FILL-ORIGIN LEVEL: 0 DIFFERENT FILL-ORIGIN LEVEL: 0
DTLB AVERAGE MISS LATENCY: 8.43011 cycles
DTLB RQ	ACCESS:   61231034	FORWARD:          0	MERGED:   14588775	TO_CACHE:   46642259

STLB TOTAL     ACCESS:   20282485  HIT:   20271107  MISS:      11378  HIT %:    99.9439  MISS %:  0.0560977   MPKI: 0.05689
STLB LOAD TRANSLATION ACCESS:    3898626  HIT:    3888478  MISS:      10148  HIT %:    99.7397  MISS %:   0.260297   MPKI: 0.05074
STLB TRANSLATION FROM L1D PREFETCHER ACCESS:   16383859  HIT:   16382629  MISS:       1230  HIT %:    99.9925  MISS %: 0.00750739   MPKI: 0.00615
STLB PREFETCH  REQUESTED:          0  ISSUED:          0  USEFUL:        814  USELESS:        393
STLB USEFUL LOAD PREFETCHES:        814 PREFETCH ISSUED TO LOWER LEVEL:          0  ACCURACY: inf
STLB TIMELY PREFETCHES:        814 LATE PREFETCHES: 312 DROPPED PREFETCHES: 237396
STLB PREFETCHES SAME FILL-ORIGIN LEVEL: 0 DIFFERENT FILL-ORIGIN LEVEL: 0
STLB AVERAGE MISS LATENCY: 40.5271 cycles
STLB RQ	ACCESS:   23549458	FORWARD:          0	MERGED:    3029133	TO_CACHE:   20520325

STLB Hit, L1D data hit: 0
STLB Hit, L2C data hit: 0
STLB Hit, LLC data hit: 0
STLB Hit, LLC data miss: 0
STLB STLB hints to L2: 0
L1D TOTAL     ACCESS:   78035680  HIT:   73514176  MISS:    4521504  HIT %:    94.2059  MISS %:    5.79415   MPKI: 22.6075
L1D LOAD      ACCESS:   34300674  HIT:   32124768  MISS:    2175906  HIT %:    93.6564  MISS %:    6.34362   MPKI: 10.8795
L1D RFO       ACCESS:   25176332  HIT:   24109831  MISS:    1066501  HIT %:    95.7639  MISS %:    4.23613   MPKI: 5.33251
L1D PREFETCH  ACCESS:   18558674  HIT:   17279577  MISS:    1279097  HIT %:    93.1078  MISS %:    6.89218   MPKI: 6.39548
AGUS PREFETCH L1 MISS: 0
L1D PREFETCH  REQUESTED:   41249266  ISSUED:   41249247  USEFUL:     851047  USELESS:     427980
L1D USEFUL LOAD PREFETCHES:     851047 PREFETCH ISSUED TO LOWER LEVEL:    1681994  ACCURACY: 50.5975
L1D TIMELY PREFETCHES:     851047 LATE PREFETCHES: 397024 DROPPED PREFETCHES: 253127
L1D PREFETCHES SAME FILL-ORIGIN LEVEL: 1681994 DIFFERENT FILL-ORIGIN LEVEL: 0
L1D AVERAGE MISS LATENCY: 3.47263e+07 cycles
L1D RQ	ACCESS:   47479527	FORWARD:          0	MERGED:   12767384	TO_CACHE:   34404364
L1D WQ	ACCESS:   26994536	FORWARD:     341079	MERGED:     167866	TO_CACHE:   26826670
L1D PQ	ACCESS:   21598415	FORWARD:          0	MERGED:    1914283	TO_CACHE:   19650832

L1D UNIQUE REGIONS ACCESSED: 0
L1D REGIONS CONFLICTS: 0
L1D Cross Page Prefetch Requests: 14525799
L1D Same Page Prefetch Requests: 8093334
L1D ROI Sum of L1D PQ occupancy: 275671502
L1D PREFETCHES PUSHED FROM L2C: 0
L1I TOTAL     ACCESS:   39433254  HIT:   28741461  MISS:   10691793  HIT %:    72.8864  MISS %:    27.1136   MPKI: 53.459
L1I LOAD      ACCESS:   39433254  HIT:   28741461  MISS:   10691793  HIT %:    72.8864  MISS %:    27.1136   MPKI: 53.459
L1I PREFETCH  REQUESTED:          0  ISSUED:          0  USEFUL:          0  USELESS:          0
L1I USEFUL LOAD PREFETCHES:          0 PREFETCH ISSUED TO LOWER LEVEL:          0  ACCURACY: -nan
L1I TIMELY PREFETCHES:          0 LATE PREFETCHES: 0 DROPPED PREFETCHES: 0
L1I PREFETCHES SAME FILL-ORIGIN LEVEL: 0 DIFFERENT FILL-ORIGIN LEVEL: 0
L1I AVERAGE MISS LATENCY: 16.5381 cycles
L1I RQ	ACCESS:   58000617	FORWARD:          0	MERGED:   17038007	TO_CACHE:   40962610

BTB TOTAL     ACCESS:   30080361  HIT:   17302648  MISS:   12777713  HIT %:    57.5214  MISS %:    42.4786   MPKI: 63.8886
BTB BRANCH_DIRECT_JUMP	ACCESS:    2022883  HIT:    1132448  MISS:     890435
BTB BRANCH_INDIRECT	ACCESS:   11928564  HIT:    7079070  MISS:    4849494
BTB BRANCH_CONDITIONAL	ACCESS:    7505175  HIT:    6165615  MISS:    1339560
BTB BRANCH_DIRECT_CALL	ACCESS:    3636526  HIT:    1530723  MISS:    2105803
BTB BRANCH_INDIRECT_CALL	ACCESS:     675349  HIT:     268948  MISS:     406401
BTB BRANCH_RETURN	ACCESS:    4311864  HIT:    1125844  MISS:    3186020
BTB BRANCH_OTHER ACCESS:          0  HIT:          0  MISS:          0

L2C TOTAL     ACCESS:   17614236  HIT:   16008971  MISS:    1605265  HIT %:    90.8865  MISS %:    9.11345   MPKI: 8.02632
L2C LOAD      ACCESS:   12470639  HIT:   11333984  MISS:    1136655  HIT %:    90.8854  MISS %:    9.11465   MPKI: 5.68328
L2C DATA LOAD MPKI: 1.31183
L2C INSTRUCTION LOAD MPKI: 4.37145
L2C RFO       ACCESS:    1060625  HIT:     878379  MISS:     182246  HIT %:    82.8171  MISS %:    17.1829   MPKI: 0.91123
L2C PREFETCH  ACCESS:    1681674  HIT:    1493835  MISS:     187839  HIT %:    88.8302  MISS %:    11.1698   MPKI: 0.939195
AGUS PREFETCH L1 MISS: 0
L2C DATA PREFETCH MPKI: 0.939195
L2C INSTRUCTION PREFETCH MPKI: 0
L2C WRITEBACK ACCESS:    2037427  HIT:    1982922  MISS:      54505  HIT %:    97.3248  MISS %:    2.67519   MPKI: 0.272525
L2C LOAD TRANSLATION ACCESS:      10600  HIT:       4288  MISS:       6312  HIT %:    40.4528  MISS %:    59.5472   MPKI: 0.03156
L2C TRANSLATION FROM L1D PREFETCHER ACCESS:     353271  HIT:     315563  MISS:      37708  HIT %:     89.326  MISS %:     10.674   MPKI: 0.18854
L2C PREFETCH  REQUESTED:          0  ISSUED:          0  USEFUL:      34986  USELESS:     190181
L2C USEFUL LOAD PREFETCHES:      34986 PREFETCH ISSUED TO LOWER LEVEL:     187839  ACCURACY: 18.6255
L2C TIMELY PREFETCHES:      34986 LATE PREFETCHES: 0 DROPPED PREFETCHES: 0
L2C PREFETCHES SAME FILL-ORIGIN LEVEL: 0 DIFFERENT FILL-ORIGIN LEVEL: 0
L2C AVERAGE MISS LATENCY: 30.7515 cycles
L2C RQ	ACCESS:   13895174	FORWARD:          0	MERGED:          0	TO_CACHE:   13895135
L2C WQ	ACCESS:    2037427	FORWARD:        359	MERGED:          0	TO_CACHE:    2037427
L2C PQ	ACCESS:    1681994	FORWARD:          0	MERGED:          0	TO_CACHE:    1681674

L2C Instructions Evicting Data 341821
L2C Translations Evicting Data 22737
L2C Data Evicting Data 298884
L2C Instructions Evicting Instructions 512598
L2C Translations Evicting Instructions 19846
L2C Data Evicting Instructions 311877
L2C Instructions Evicting Translations 19871
L2C Translations Evicting Translations 1437
L2C Data Evicting Translations 21689
L2C Dense regions hint from L2: 0
PSCL5 TOTAL     ACCESS:     246816  HIT:     246816  MISS:          0  HIT %:        100  MISS %:          0   MPKI: 0
PSCL5 LOAD TRANSLATION ACCESS:       9836  HIT:       9836  MISS:          0  HIT %:        100  MISS %:          0   MPKI: 0
PSCL5 TRANSLATION FROM L1D PREFETCHER ACCESS:     236980  HIT:     236980  MISS:          0  HIT %:        100  MISS %:          0   MPKI: 0
PSCL5 PREFETCH  REQUESTED:          0  ISSUED:          0  USEFUL:          0  USELESS:          0
PSCL5 USEFUL LOAD PREFETCHES:          0 PREFETCH ISSUED TO LOWER LEVEL:          0  ACCURACY: -nan
PSCL5 TIMELY PREFETCHES:          0 LATE PREFETCHES: 0 DROPPED PREFETCHES: 0
PSCL5 PREFETCHES SAME FILL-ORIGIN LEVEL: 0 DIFFERENT FILL-ORIGIN LEVEL: 0

PSCL4 TOTAL     ACCESS:     142711  HIT:     142632  MISS:         79  HIT %:    99.9446  MISS %:  0.0553566   MPKI: 0.000395
PSCL4 LOAD TRANSLATION ACCESS:       7481  HIT:       7402  MISS:         79  HIT %:     98.944  MISS %:    1.05601   MPKI: 0.000395
PSCL4 TRANSLATION FROM L1D PREFETCHER ACCESS:     135230  HIT:     135230  MISS:          0  HIT %:        100  MISS %:          0   MPKI: 0
PSCL4 PREFETCH  REQUESTED:          0  ISSUED:          0  USEFUL:          0  USELESS:          0
PSCL4 USEFUL LOAD PREFETCHES:          0 PREFETCH ISSUED TO LOWER LEVEL:          0  ACCURACY: -nan
PSCL4 TIMELY PREFETCHES:          0 LATE PREFETCHES: 0 DROPPED PREFETCHES: 0
PSCL4 PREFETCHES SAME FILL-ORIGIN LEVEL: 0 DIFFERENT FILL-ORIGIN LEVEL: 0

PSCL3 TOTAL     ACCESS:     188389  HIT:     188262  MISS:        127  HIT %:    99.9326  MISS %:  0.0674137   MPKI: 0.000635
PSCL3 LOAD TRANSLATION ACCESS:       8670  HIT:       8543  MISS:        127  HIT %:    98.5352  MISS %:    1.46482   MPKI: 0.000635
PSCL3 TRANSLATION FROM L1D PREFETCHER ACCESS:     179719  HIT:     179719  MISS:          0  HIT %:        100  MISS %:          0   MPKI: 0
PSCL3 PREFETCH  REQUESTED:          0  ISSUED:          0  USEFUL:          0  USELESS:          0
PSCL3 USEFUL LOAD PREFETCHES:          0 PREFETCH ISSUED TO LOWER LEVEL:          0  ACCURACY: -nan
PSCL3 TIMELY PREFETCHES:          0 LATE PREFETCHES: 0 DROPPED PREFETCHES: 0
PSCL3 PREFETCHES SAME FILL-ORIGIN LEVEL: 0 DIFFERENT FILL-ORIGIN LEVEL: 0

PSCL2 TOTAL     ACCESS:      79875  HIT:      79243  MISS:        632  HIT %:    99.2088  MISS %:   0.791236   MPKI: 0.00316
PSCL2 LOAD TRANSLATION ACCESS:       9893  HIT:       9261  MISS:        632  HIT %:    93.6116  MISS %:    6.38836   MPKI: 0.00316
PSCL2 TRANSLATION FROM L1D PREFETCHER ACCESS:      69982  HIT:      69982  MISS:          0  HIT %:        100  MISS %:          0   MPKI: 0
PSCL2 PREFETCH  REQUESTED:          0  ISSUED:          0  USEFUL:          0  USELESS:          0
PSCL2 USEFUL LOAD PREFETCHES:          0 PREFETCH ISSUED TO LOWER LEVEL:          0  ACCURACY: -nan
PSCL2 TIMELY PREFETCHES:          0 LATE PREFETCHES: 0 DROPPED PREFETCHES: 0
PSCL2 PREFETCHES SAME FILL-ORIGIN LEVEL: 0 DIFFERENT FILL-ORIGIN LEVEL: 0

LLC TOTAL     ACCESS:    1816102  HIT:    1797040  MISS:      19062  HIT %:    98.9504  MISS %:    1.04961   MPKI: 0.09531
LLC LOAD      ACCESS:    1136653  HIT:    1131008  MISS:       5645  HIT %:    99.5034  MISS %:   0.496634   MPKI: 0.028225
LLC RFO       ACCESS:     182245  HIT:     174852  MISS:       7393  HIT %:    95.9434  MISS %:    4.05663   MPKI: 0.036965
LLC PREFETCH  ACCESS:     187836  HIT:     182790  MISS:       5046  HIT %:    97.3136  MISS %:    2.68639   MPKI: 0.02523
AGUS PREFETCH L1 MISS: 0
LLC WRITEBACK ACCESS:     265348  HIT:     265202  MISS:        146  HIT %:     99.945  MISS %:  0.0550221   MPKI: 0.00073
LLC LOAD TRANSLATION ACCESS:       6312  HIT:       6260  MISS:         52  HIT %:    99.1762  MISS %:   0.823828   MPKI: 0.00026
LLC TRANSLATION FROM L1D PREFETCHER ACCESS:      37708  HIT:      36928  MISS:        780  HIT %:    97.9315  MISS %:    2.06853   MPKI: 0.0039
LLC PREFETCH  REQUESTED:          0  ISSUED:          0  USEFUL:       1551  USELESS:       2661
LLC USEFUL LOAD PREFETCHES:       1551 PREFETCH ISSUED TO LOWER LEVEL:       5046  ACCURACY: 30.7372
LLC TIMELY PREFETCHES:       1551 LATE PREFETCHES: 0 DROPPED PREFETCHES: 0
LLC PREFETCHES SAME FILL-ORIGIN LEVEL: 0 DIFFERENT FILL-ORIGIN LEVEL: 0
LLC AVERAGE MISS LATENCY: 149.053 cycles
LLC RQ	ACCESS:    1362921	FORWARD:          0	MERGED:          0	TO_CACHE:    1362918
LLC WQ	ACCESS:     265348	FORWARD:          6	MERGED:          0	TO_CACHE:     265348
LLC PQ	ACCESS:     187839	FORWARD:          0	MERGED:          0	TO_CACHE:     187836

LLC Dense regions hint to LLC: 0

RAW hits: 1419139
Loads Generated: 48898667
Loads sent to L1D: 47479527
Stores Generated: 26994532
Stores sent to L1D: 26994536
Major fault: 0 Minor fault: 2014
Allocated PAGES: 2014
Completed 

DRAM Statistics
 CHANNEL 0
 RQ ROW_BUFFER_HIT:       4083  ROW_BUFFER_MISS:      14833
 DBUS_CONGESTED:         32
 WQ ROW_BUFFER_HIT:        816  ROW_BUFFER_MISS:       7644  FULL:          0

 AVG_CONGESTED_CYCLE: 5
 All warmup complete: 2
Channel 0 Bank busy for read cycles: 0
Channel 0 Bank busy for write cycles: 0
Channel 0
Rank 0
0banks busy for read cycles: 633664632
0banks busy for write cycles: 4291
1banks busy for read cycles: 1351988
1banks busy for write cycles: 558066
2banks busy for read cycles: 210093
2banks busy for write cycles: 87346
3banks busy for read cycles: 80549
3banks busy for write cycles: 44718
4banks busy for read cycles: 43207
4banks busy for write cycles: 32641
5banks busy for read cycles: 22880
5banks busy for write cycles: 26269
6banks busy for read cycles: 12089
6banks busy for write cycles: 16378
7banks busy for read cycles: 5073
7banks busy for write cycles: 12981
8banks busy for read cycles: 2526
8banks busy for write cycles: 9968

CPU 0 Branch Prediction Accuracy: 99.8844% MPKI: 0.20331 Average ROB Occupancy at Mispredict: 32.52
Branch types
NOT_BRANCH: 164819309 82.4097%
BRANCH_DIRECT_JUMP: 2022883 1.01144%
BRANCH_INDIRECT: 11928564 5.96428%
BRANCH_CONDITIONAL: 12605148 6.30257%
BRANCH_DIRECT_CALL: 3636526 1.81826%
BRANCH_INDIRECT_CALL: 675349 0.337674%
BRANCH_RETURN: 4311864 2.15593%
BRANCH_OTHER: 0 0%

DRAM PAGES: 1048576
Allocated PAGES: 2014
