
*** ChampSim Multicore Out-of-Order Simulator ***

Warmup Instructions: 50000000
Simulation Instructions: 200000000
Number of CPUs: 1
LLC sets: 2048
LLC ways: 16
Off-chip DRAM Size: 4096 MB Channels: 1 Width: 64-bit Data Rate: 6400 MT/s
CPU 0 runs traces/spec2k17/srv_56.champsimtrace.xz
.xz
BTB has LRU replacement policy
ITLB has LRU replacement policy
DTLB has LRU replacement policy
STLB has LRU replacement policy
L1I has LRU replacement policy
L1D has LRU replacement policy
Initialize SRRIP state for L2C
Initialize DRRIP state for LLC
Heartbeat CPU 0 instructions: 10000002 cycles: 2774391 heartbeat IPC: 3.6044 cumulative IPC: 3.6044 (Simulation time: 0 hr 0 min 31 sec) 
Heartbeat CPU 0 instructions: 20000003 cycles: 5603789 heartbeat IPC: 3.53432 cumulative IPC: 3.56901 (Simulation time: 0 hr 1 min 3 sec) 
Heartbeat CPU 0 instructions: 30000000 cycles: 8382416 heartbeat IPC: 3.5989 cumulative IPC: 3.57892 (Simulation time: 0 hr 1 min 34 sec) 
*** Reached end of trace for Core: 0 Repeating trace: traces/spec2k17/srv_56.champsimtrace.xz
Heartbeat CPU 0 instructions: 40000001 cycles: 11168381 heartbeat IPC: 3.58942 cumulative IPC: 3.58154 (Simulation time: 0 hr 2 min 7 sec) 
Heartbeat CPU 0 instructions: 50000002 cycles: 13997433 heartbeat IPC: 3.53475 cumulative IPC: 3.57208 (Simulation time: 0 hr 2 min 57 sec) 

Warmup complete CPU 0 instructions: 50000002 cycles: 13997433 (Simulation time: 0 hr 2 min 57 sec) 

Heartbeat CPU 0 instructions: 60000000 cycles: 30843862 heartbeat IPC: 0.593597 cumulative IPC: 0.593597 (Simulation time: 0 hr 3 min 57 sec) 
*** Reached end of trace for Core: 0 Repeating trace: traces/spec2k17/srv_56.champsimtrace.xz
Heartbeat CPU 0 instructions: 70000003 cycles: 47940122 heartbeat IPC: 0.584923 cumulative IPC: 0.589229 (Simulation time: 0 hr 4 min 43 sec) 
Heartbeat CPU 0 instructions: 80000002 cycles: 63948864 heartbeat IPC: 0.624659 cumulative IPC: 0.600583 (Simulation time: 0 hr 5 min 23 sec) 
Heartbeat CPU 0 instructions: 90000002 cycles: 80880561 heartbeat IPC: 0.590608 cumulative IPC: 0.598058 (Simulation time: 0 hr 6 min 0 sec) 
*** Reached end of trace for Core: 0 Repeating trace: traces/spec2k17/srv_56.champsimtrace.xz
Heartbeat CPU 0 instructions: 100000000 cycles: 97855474 heartbeat IPC: 0.589105 cumulative IPC: 0.596246 (Simulation time: 0 hr 6 min 37 sec) 
Heartbeat CPU 0 instructions: 110000000 cycles: 113606834 heartbeat IPC: 0.634866 cumulative IPC: 0.602353 (Simulation time: 0 hr 7 min 16 sec) 
Heartbeat CPU 0 instructions: 120000003 cycles: 130833039 heartbeat IPC: 0.580511 cumulative IPC: 0.599132 (Simulation time: 0 hr 7 min 53 sec) 
*** Reached end of trace for Core: 0 Repeating trace: traces/spec2k17/srv_56.champsimtrace.xz
Heartbeat CPU 0 instructions: 130000002 cycles: 147741276 heartbeat IPC: 0.591428 cumulative IPC: 0.598158 (Simulation time: 0 hr 8 min 30 sec) 
Heartbeat CPU 0 instructions: 140000001 cycles: 163737286 heartbeat IPC: 0.625156 cumulative IPC: 0.601042 (Simulation time: 0 hr 9 min 8 sec) 
Heartbeat CPU 0 instructions: 150000002 cycles: 180716912 heartbeat IPC: 0.588941 cumulative IPC: 0.59981 (Simulation time: 0 hr 9 min 45 sec) 
*** Reached end of trace for Core: 0 Repeating trace: traces/spec2k17/srv_56.champsimtrace.xz
Heartbeat CPU 0 instructions: 160000002 cycles: 197554720 heartbeat IPC: 0.593902 cumulative IPC: 0.599268 (Simulation time: 0 hr 10 min 23 sec) 
Heartbeat CPU 0 instructions: 170000000 cycles: 213845355 heartbeat IPC: 0.613849 cumulative IPC: 0.600457 (Simulation time: 0 hr 11 min 17 sec) 
Heartbeat CPU 0 instructions: 180000001 cycles: 230484713 heartbeat IPC: 0.600985 cumulative IPC: 0.600497 (Simulation time: 0 hr 11 min 57 sec) 
*** Reached end of trace for Core: 0 Repeating trace: traces/spec2k17/srv_56.champsimtrace.xz
Heartbeat CPU 0 instructions: 190000002 cycles: 247403923 heartbeat IPC: 0.591044 cumulative IPC: 0.599812 (Simulation time: 0 hr 12 min 37 sec) 
Heartbeat CPU 0 instructions: 200000001 cycles: 263944719 heartbeat IPC: 0.604566 cumulative IPC: 0.600127 (Simulation time: 0 hr 13 min 18 sec) 
Heartbeat CPU 0 instructions: 210000000 cycles: 280310471 heartbeat IPC: 0.611032 cumulative IPC: 0.600797 (Simulation time: 0 hr 14 min 12 sec) 
*** Reached end of trace for Core: 0 Repeating trace: traces/spec2k17/srv_56.champsimtrace.xz
Heartbeat CPU 0 instructions: 220000000 cycles: 297145859 heartbeat IPC: 0.593987 cumulative IPC: 0.600392 (Simulation time: 0 hr 15 min 15 sec) 
Heartbeat CPU 0 instructions: 230000000 cycles: 314009954 heartbeat IPC: 0.592976 cumulative IPC: 0.599975 (Simulation time: 0 hr 16 min 15 sec) 
Heartbeat CPU 0 instructions: 240000001 cycles: 330086148 heartbeat IPC: 0.622038 cumulative IPC: 0.601097 (Simulation time: 0 hr 17 min 9 sec) 
*** Reached end of trace for Core: 0 Repeating trace: traces/spec2k17/srv_56.champsimtrace.xz
Heartbeat CPU 0 instructions: 250000002 cycles: 346838965 heartbeat IPC: 0.596915 cumulative IPC: 0.600887 (Simulation time: 0 hr 18 min 4 sec) 
Finished CPU 0 instructions: 200000000 cycles: 332841532 cumulative IPC: 0.600887 (Simulation time: 0 hr 18 min 4 sec) 

ChampSim completed all CPUs

Region of Interest Statistics

CPU 0 cumulative IPC: 0.600887 instructions: 200000000 cycles: 332841532
ITLB TOTAL     ACCESS:   34934439  HIT:   34116980  MISS:     817459  HIT %:      97.66  MISS %:    2.33998   MPKI: 4.0873
ITLB LOAD TRANSLATION ACCESS:   34934439  HIT:   34116980  MISS:     817459  HIT %:      97.66  MISS %:    2.33998   MPKI: 4.0873
ITLB PREFETCH  REQUESTED:          0  ISSUED:          0  USEFUL:          0  USELESS:          0
ITLB USEFUL LOAD PREFETCHES:          0 PREFETCH ISSUED TO LOWER LEVEL:          0  ACCURACY: -nan
ITLB TIMELY PREFETCHES:          0 LATE PREFETCHES: 0 DROPPED PREFETCHES: 0
ITLB PREFETCHES SAME FILL-ORIGIN LEVEL: 0 DIFFERENT FILL-ORIGIN LEVEL: 0
ITLB AVERAGE MISS LATENCY: 9.34444 cycles
ITLB RQ	ACCESS:   39797792	FORWARD:          0	MERGED:    4575107	TO_CACHE:   35222685

DTLB TOTAL     ACCESS:   40112732  HIT:   39212845  MISS:     899887  HIT %:    97.7566  MISS %:    2.24339   MPKI: 4.49944
DTLB LOAD TRANSLATION ACCESS:   40112732  HIT:   39212845  MISS:     899887  HIT %:    97.7566  MISS %:    2.24339   MPKI: 4.49944
DTLB PREFETCH  REQUESTED:          0  ISSUED:          0  USEFUL:          0  USELESS:          0
DTLB USEFUL LOAD PREFETCHES:          0 PREFETCH ISSUED TO LOWER LEVEL:          0  ACCURACY: -nan
DTLB TIMELY PREFETCHES:          0 LATE PREFETCHES: 0 DROPPED PREFETCHES: 0
DTLB PREFETCHES SAME FILL-ORIGIN LEVEL: 0 DIFFERENT FILL-ORIGIN LEVEL: 0
DTLB AVERAGE MISS LATENCY: 13.1947 cycles
DTLB RQ	ACCESS:   54934535	FORWARD:          0	MERGED:   14773277	TO_CACHE:   40161258

STLB TOTAL     ACCESS:   16785825  HIT:   16731164  MISS:      54661  HIT %:    99.6744  MISS %:   0.325638   MPKI: 0.273305
STLB LOAD TRANSLATION ACCESS:    1717346  HIT:    1664887  MISS:      52459  HIT %:    96.9453  MISS %:    3.05466   MPKI: 0.262295
STLB TRANSLATION FROM L1D PREFETCHER ACCESS:   15068479  HIT:   15066277  MISS:       2202  HIT %:    99.9854  MISS %:  0.0146133   MPKI: 0.01101
STLB PREFETCH  REQUESTED:          0  ISSUED:          0  USEFUL:       1629  USELESS:        567
STLB USEFUL LOAD PREFETCHES:       1629 PREFETCH ISSUED TO LOWER LEVEL:          0  ACCURACY: inf
STLB TIMELY PREFETCHES:       1629 LATE PREFETCHES: 663 DROPPED PREFETCHES: 345766
STLB PREFETCHES SAME FILL-ORIGIN LEVEL: 0 DIFFERENT FILL-ORIGIN LEVEL: 0
STLB AVERAGE MISS LATENCY: 84.8869 cycles
STLB RQ	ACCESS:   20395217	FORWARD:          0	MERGED:    3262300	TO_CACHE:   17132917

STLB Hit, L1D data hit: 0
STLB Hit, L2C data hit: 0
STLB Hit, LLC data hit: 0
STLB Hit, LLC data miss: 0
STLB STLB hints to L2: 0
L1D TOTAL     ACCESS:   72593126  HIT:   71065012  MISS:    1528114  HIT %:     97.895  MISS %:    2.10504   MPKI: 7.64057
L1D LOAD      ACCESS:   33249860  HIT:   32314949  MISS:     934911  HIT %:    97.1882  MISS %:    2.81177   MPKI: 4.67455
L1D RFO       ACCESS:   21169502  HIT:   20821375  MISS:     348127  HIT %:    98.3555  MISS %:    1.64447   MPKI: 1.74063
L1D PREFETCH  ACCESS:   18173764  HIT:   17928688  MISS:     245076  HIT %:    98.6515  MISS %:    1.34852   MPKI: 1.22538
AGUS PREFETCH L1 MISS: 0
L1D PREFETCH  REQUESTED:   39296087  ISSUED:   39292396  USEFUL:      84555  USELESS:     160425
L1D USEFUL LOAD PREFETCHES:      84555 PREFETCH ISSUED TO LOWER LEVEL:     303047  ACCURACY: 27.9016
L1D TIMELY PREFETCHES:      84555 LATE PREFETCHES: 57817 DROPPED PREFETCHES: 371754
L1D PREFETCHES SAME FILL-ORIGIN LEVEL: 303047 DIFFERENT FILL-ORIGIN LEVEL: 0
L1D AVERAGE MISS LATENCY: 8.03612e+06 cycles
L1D RQ	ACCESS:   47523199	FORWARD:          0	MERGED:   13957680	TO_CACHE:   33292288
L1D WQ	ACCESS:   21914197	FORWARD:     319906	MERGED:     271950	TO_CACHE:   21642247
L1D PQ	ACCESS:   20614525	FORWARD:          0	MERGED:    1889979	TO_CACHE:   18677871

L1D UNIQUE REGIONS ACCESSED: 0
L1D REGIONS CONFLICTS: 0
L1D Cross Page Prefetch Requests: 15918248
L1D Same Page Prefetch Requests: 6054283
L1D ROI Sum of L1D PQ occupancy: 269776671
L1D PREFETCHES PUSHED FROM L2C: 0
L1I TOTAL     ACCESS:   39327687  HIT:   36687926  MISS:    2639761  HIT %:    93.2878  MISS %:    6.71222   MPKI: 13.1988
L1I LOAD      ACCESS:   39327687  HIT:   36687926  MISS:    2639761  HIT %:    93.2878  MISS %:    6.71222   MPKI: 13.1988
L1I PREFETCH  REQUESTED:          0  ISSUED:          0  USEFUL:          0  USELESS:          0
L1I USEFUL LOAD PREFETCHES:          0 PREFETCH ISSUED TO LOWER LEVEL:          0  ACCURACY: -nan
L1I TIMELY PREFETCHES:          0 LATE PREFETCHES: 0 DROPPED PREFETCHES: 0
L1I PREFETCHES SAME FILL-ORIGIN LEVEL: 0 DIFFERENT FILL-ORIGIN LEVEL: 0
L1I AVERAGE MISS LATENCY: 17.9461 cycles
L1I RQ	ACCESS:   62195627	FORWARD:          0	MERGED:   22397835	TO_CACHE:   39797792

BTB TOTAL     ACCESS:   32613613  HIT:   28976968  MISS:    3636645  HIT %:    88.8493  MISS %:    11.1507   MPKI: 18.1832
BTB BRANCH_DIRECT_JUMP	ACCESS:    3424496  HIT:    3239376  MISS:     185120
BTB BRANCH_INDIRECT	ACCESS:   12879305  HIT:   11560314  MISS:    1318991
BTB BRANCH_CONDITIONAL	ACCESS:    8936157  HIT:    8698809  MISS:     237348
BTB BRANCH_DIRECT_CALL	ACCESS:    2777775  HIT:    2446309  MISS:     331466
BTB BRANCH_INDIRECT_CALL	ACCESS:     909063  HIT:     766967  MISS:     142096
BTB BRANCH_RETURN	ACCESS:    3686817  HIT:    2265193  MISS:    1421624
BTB BRANCH_OTHER ACCESS:          0  HIT:          0  MISS:          0

L2C TOTAL     ACCESS:    5332846  HIT:    4552874  MISS:     779972  HIT %:    85.3742  MISS %:    14.6258   MPKI: 3.89986
L2C LOAD      ACCESS:    3516814  HIT:    2950492  MISS:     566322  HIT %:    83.8967  MISS %:    16.1033   MPKI: 2.83161
L2C DATA LOAD MPKI: 1.18241
L2C INSTRUCTION LOAD MPKI: 1.64919
L2C RFO       ACCESS:     347973  HIT:     266990  MISS:      80983  HIT %:    76.7272  MISS %:    23.2728   MPKI: 0.404915
L2C PREFETCH  ACCESS:     303043  HIT:     237145  MISS:      65898  HIT %:    78.2546  MISS %:    21.7454   MPKI: 0.32949
AGUS PREFETCH L1 MISS: 0
L2C DATA PREFETCH MPKI: 0.32949
L2C INSTRUCTION PREFETCH MPKI: 0
L2C WRITEBACK ACCESS:     593474  HIT:     580447  MISS:      13027  HIT %:     97.805  MISS %:    2.19504   MPKI: 0.065135
L2C LOAD TRANSLATION ACCESS:      95831  HIT:      59817  MISS:      36014  HIT %:    62.4193  MISS %:    37.5807   MPKI: 0.18007
L2C TRANSLATION FROM L1D PREFETCHER ACCESS:     475711  HIT:     457983  MISS:      17728  HIT %:    96.2734  MISS %:    3.72663   MPKI: 0.08864
L2C PREFETCH  REQUESTED:          0  ISSUED:          0  USEFUL:      16778  USELESS:      66457
L2C USEFUL LOAD PREFETCHES:      16778 PREFETCH ISSUED TO LOWER LEVEL:      65898  ACCURACY: 25.4606
L2C TIMELY PREFETCHES:      16778 LATE PREFETCHES: 0 DROPPED PREFETCHES: 0
L2C PREFETCHES SAME FILL-ORIGIN LEVEL: 0 DIFFERENT FILL-ORIGIN LEVEL: 0
L2C AVERAGE MISS LATENCY: 48.7294 cycles
L2C RQ	ACCESS:    4436370	FORWARD:          0	MERGED:          0	TO_CACHE:    4436329
L2C WQ	ACCESS:     593474	FORWARD:         45	MERGED:          0	TO_CACHE:     593474
L2C PQ	ACCESS:     303047	FORWARD:          0	MERGED:          0	TO_CACHE:     303043

L2C Instructions Evicting Data 134614
L2C Translations Evicting Data 33627
L2C Data Evicting Data 221919
L2C Instructions Evicting Instructions 180156
L2C Translations Evicting Instructions 14400
L2C Data Evicting Instructions 129455
L2C Instructions Evicting Translations 15069
L2C Translations Evicting Translations 5715
L2C Data Evicting Translations 31990
L2C Dense regions hint from L2: 0
PSCL5 TOTAL     ACCESS:     390747  HIT:     390747  MISS:          0  HIT %:        100  MISS %:          0   MPKI: 0
PSCL5 LOAD TRANSLATION ACCESS:      51796  HIT:      51796  MISS:          0  HIT %:        100  MISS %:          0   MPKI: 0
PSCL5 TRANSLATION FROM L1D PREFETCHER ACCESS:     338951  HIT:     338951  MISS:          0  HIT %:        100  MISS %:          0   MPKI: 0
PSCL5 PREFETCH  REQUESTED:          0  ISSUED:          0  USEFUL:          0  USELESS:          0
PSCL5 USEFUL LOAD PREFETCHES:          0 PREFETCH ISSUED TO LOWER LEVEL:          0  ACCURACY: -nan
PSCL5 TIMELY PREFETCHES:          0 LATE PREFETCHES: 0 DROPPED PREFETCHES: 0
PSCL5 PREFETCHES SAME FILL-ORIGIN LEVEL: 0 DIFFERENT FILL-ORIGIN LEVEL: 0

PSCL4 TOTAL     ACCESS:     357012  HIT:     356846  MISS:        166  HIT %:    99.9535  MISS %:   0.046497   MPKI: 0.00083
PSCL4 LOAD TRANSLATION ACCESS:      51515  HIT:      51349  MISS:        166  HIT %:    99.6778  MISS %:   0.322236   MPKI: 0.00083
PSCL4 TRANSLATION FROM L1D PREFETCHER ACCESS:     305497  HIT:     305497  MISS:          0  HIT %:        100  MISS %:          0   MPKI: 0
PSCL4 PREFETCH  REQUESTED:          0  ISSUED:          0  USEFUL:          0  USELESS:          0
PSCL4 USEFUL LOAD PREFETCHES:          0 PREFETCH ISSUED TO LOWER LEVEL:          0  ACCURACY: -nan
PSCL4 TIMELY PREFETCHES:          0 LATE PREFETCHES: 0 DROPPED PREFETCHES: 0
PSCL4 PREFETCHES SAME FILL-ORIGIN LEVEL: 0 DIFFERENT FILL-ORIGIN LEVEL: 0

PSCL3 TOTAL     ACCESS:     210510  HIT:     196151  MISS:      14359  HIT %:    93.1789  MISS %:    6.82105   MPKI: 0.071795
PSCL3 LOAD TRANSLATION ACCESS:      50383  HIT:      36024  MISS:      14359  HIT %:    71.5003  MISS %:    28.4997   MPKI: 0.071795
PSCL3 TRANSLATION FROM L1D PREFETCHER ACCESS:     160127  HIT:     160127  MISS:          0  HIT %:        100  MISS %:          0   MPKI: 0
PSCL3 PREFETCH  REQUESTED:          0  ISSUED:          0  USEFUL:          0  USELESS:          0
PSCL3 USEFUL LOAD PREFETCHES:          0 PREFETCH ISSUED TO LOWER LEVEL:          0  ACCURACY: -nan
PSCL3 TIMELY PREFETCHES:          0 LATE PREFETCHES: 0 DROPPED PREFETCHES: 0
PSCL3 PREFETCHES SAME FILL-ORIGIN LEVEL: 0 DIFFERENT FILL-ORIGIN LEVEL: 0

PSCL2 TOTAL     ACCESS:     162503  HIT:     131249  MISS:      31254  HIT %:    80.7671  MISS %:    19.2329   MPKI: 0.15627
PSCL2 LOAD TRANSLATION ACCESS:      53201  HIT:      21947  MISS:      31254  HIT %:     41.253  MISS %:     58.747   MPKI: 0.15627
PSCL2 TRANSLATION FROM L1D PREFETCHER ACCESS:     109302  HIT:     109302  MISS:          0  HIT %:        100  MISS %:          0   MPKI: 0
PSCL2 PREFETCH  REQUESTED:          0  ISSUED:          0  USEFUL:          0  USELESS:          0
PSCL2 USEFUL LOAD PREFETCHES:          0 PREFETCH ISSUED TO LOWER LEVEL:          0  ACCURACY: -nan
PSCL2 TIMELY PREFETCHES:          0 LATE PREFETCHES: 0 DROPPED PREFETCHES: 0
PSCL2 PREFETCHES SAME FILL-ORIGIN LEVEL: 0 DIFFERENT FILL-ORIGIN LEVEL: 0

LLC TOTAL     ACCESS:     906307  HIT:     799270  MISS:     107037  HIT %:    88.1898  MISS %:    11.8102   MPKI: 0.535185
LLC LOAD      ACCESS:     566322  HIT:     490359  MISS:      75963  HIT %:    86.5866  MISS %:    13.4134   MPKI: 0.379815
LLC RFO       ACCESS:      80983  HIT:      70935  MISS:      10048  HIT %:    87.5925  MISS %:    12.4075   MPKI: 0.05024
LLC PREFETCH  ACCESS:      65897  HIT:      56283  MISS:       9614  HIT %:    85.4106  MISS %:    14.5894   MPKI: 0.04807
AGUS PREFETCH L1 MISS: 0
LLC WRITEBACK ACCESS:     139363  HIT:     138835  MISS:        528  HIT %:    99.6211  MISS %:   0.378867   MPKI: 0.00264
LLC LOAD TRANSLATION ACCESS:      36014  HIT:      26482  MISS:       9532  HIT %:    73.5325  MISS %:    26.4675   MPKI: 0.04766
LLC TRANSLATION FROM L1D PREFETCHER ACCESS:      17728  HIT:      16376  MISS:       1352  HIT %:    92.3736  MISS %:    7.62635   MPKI: 0.00676
LLC PREFETCH  REQUESTED:          0  ISSUED:          0  USEFUL:        986  USELESS:       8040
LLC USEFUL LOAD PREFETCHES:        986 PREFETCH ISSUED TO LOWER LEVEL:       9614  ACCURACY: 10.2559
LLC TIMELY PREFETCHES:        986 LATE PREFETCHES: 0 DROPPED PREFETCHES: 0
LLC PREFETCHES SAME FILL-ORIGIN LEVEL: 0 DIFFERENT FILL-ORIGIN LEVEL: 0
LLC AVERAGE MISS LATENCY: 140.129 cycles
LLC RQ	ACCESS:     701047	FORWARD:          0	MERGED:          0	TO_CACHE:     701047
LLC WQ	ACCESS:     139363	FORWARD:          1	MERGED:          0	TO_CACHE:     139363
LLC PQ	ACCESS:      65898	FORWARD:          0	MERGED:          0	TO_CACHE:      65897

LLC Dense regions hint to LLC: 0

RAW hits: 2465187
Loads Generated: 49988386
Loads sent to L1D: 47523199
Stores Generated: 21914186
Stores sent to L1D: 21914197
Major fault: 0 Minor fault: 6990
Allocated PAGES: 6990
Completed 

DRAM Statistics
 CHANNEL 0
 RQ ROW_BUFFER_HIT:      33725  ROW_BUFFER_MISS:      72784
 DBUS_CONGESTED:        115
 WQ ROW_BUFFER_HIT:       4129  ROW_BUFFER_MISS:      22978  FULL:          0

 AVG_CONGESTED_CYCLE: 5
 All warmup complete: 2
Channel 0 Bank busy for read cycles: 0
Channel 0 Bank busy for write cycles: 0
Channel 0
Rank 0
0banks busy for read cycles: 319875969
0banks busy for write cycles: 18857
1banks busy for read cycles: 7143880
1banks busy for write cycles: 2858197
2banks busy for read cycles: 1632459
2banks busy for write cycles: 459741
3banks busy for read cycles: 329638
3banks busy for write cycles: 109237
4banks busy for read cycles: 137156
4banks busy for write cycles: 47761
5banks busy for read cycles: 60867
5banks busy for write cycles: 34856
6banks busy for read cycles: 30741
6banks busy for write cycles: 28900
7banks busy for read cycles: 15127
7banks busy for write cycles: 24215
8banks busy for read cycles: 7942
8banks busy for write cycles: 25990

CPU 0 Branch Prediction Accuracy: 99.8177% MPKI: 0.34573 Average ROB Occupancy at Mispredict: 34.2491
Branch types
NOT_BRANCH: 162062285 81.0311%
BRANCH_DIRECT_JUMP: 3424496 1.71225%
BRANCH_INDIRECT: 12879305 6.43965%
BRANCH_CONDITIONAL: 14259908 7.12995%
BRANCH_DIRECT_CALL: 2777775 1.38889%
BRANCH_INDIRECT_CALL: 909063 0.454531%
BRANCH_RETURN: 3686817 1.84341%
BRANCH_OTHER: 0 0%

DRAM PAGES: 1048576
Allocated PAGES: 6990
