
*** ChampSim Multicore Out-of-Order Simulator ***

Warmup Instructions: 50000000
Simulation Instructions: 200000000
Number of CPUs: 1
LLC sets: 2048
LLC ways: 16
Off-chip DRAM Size: 4096 MB Channels: 1 Width: 64-bit Data Rate: 6400 MT/s
CPU 0 runs traces/spec2k17/srv_37.champsimtrace.xz
.xz
BTB has LRU replacement policy
ITLB has LRU replacement policy
DTLB has LRU replacement policy
STLB has LRU replacement policy
L1I has LRU replacement policy
L1D has LRU replacement policy
Initialize SRRIP state for L2C
Initialize DRRIP state for LLC
Heartbeat CPU 0 instructions: 10000003 cycles: 2946637 heartbeat IPC: 3.3937 cumulative IPC: 3.3937 (Simulation time: 0 hr 0 min 30 sec) 
Heartbeat CPU 0 instructions: 20000003 cycles: 5885110 heartbeat IPC: 3.40313 cumulative IPC: 3.39841 (Simulation time: 0 hr 0 min 58 sec) 
Heartbeat CPU 0 instructions: 30000000 cycles: 8830735 heartbeat IPC: 3.39486 cumulative IPC: 3.39723 (Simulation time: 0 hr 1 min 25 sec) 
*** Reached end of trace for Core: 0 Repeating trace: traces/spec2k17/srv_37.champsimtrace.xz
Heartbeat CPU 0 instructions: 40000001 cycles: 11779271 heartbeat IPC: 3.39151 cumulative IPC: 3.3958 (Simulation time: 0 hr 1 min 58 sec) 
Heartbeat CPU 0 instructions: 50000000 cycles: 14720710 heartbeat IPC: 3.3997 cumulative IPC: 3.39658 (Simulation time: 0 hr 2 min 25 sec) 

Warmup complete CPU 0 instructions: 50000004 cycles: 14720711 (Simulation time: 0 hr 2 min 25 sec) 

Heartbeat CPU 0 instructions: 60000002 cycles: 34678432 heartbeat IPC: 0.501059 cumulative IPC: 0.501059 (Simulation time: 0 hr 3 min 22 sec) 
*** Reached end of trace for Core: 0 Repeating trace: traces/spec2k17/srv_37.champsimtrace.xz
Heartbeat CPU 0 instructions: 70000003 cycles: 54178855 heartbeat IPC: 0.512809 cumulative IPC: 0.506866 (Simulation time: 0 hr 4 min 21 sec) 
Heartbeat CPU 0 instructions: 80000000 cycles: 73741992 heartbeat IPC: 0.511165 cumulative IPC: 0.508291 (Simulation time: 0 hr 5 min 24 sec) 
Heartbeat CPU 0 instructions: 90000000 cycles: 93617609 heartbeat IPC: 0.503129 cumulative IPC: 0.506991 (Simulation time: 0 hr 6 min 15 sec) 
*** Reached end of trace for Core: 0 Repeating trace: traces/spec2k17/srv_37.champsimtrace.xz
Heartbeat CPU 0 instructions: 100000001 cycles: 113114126 heartbeat IPC: 0.512912 cumulative IPC: 0.508164 (Simulation time: 0 hr 7 min 15 sec) 
Heartbeat CPU 0 instructions: 110000000 cycles: 132644070 heartbeat IPC: 0.512034 cumulative IPC: 0.508805 (Simulation time: 0 hr 8 min 7 sec) 
Heartbeat CPU 0 instructions: 120000003 cycles: 152326706 heartbeat IPC: 0.508062 cumulative IPC: 0.508699 (Simulation time: 0 hr 9 min 6 sec) 
*** Reached end of trace for Core: 0 Repeating trace: traces/spec2k17/srv_37.champsimtrace.xz
Heartbeat CPU 0 instructions: 130000001 cycles: 172024560 heartbeat IPC: 0.507669 cumulative IPC: 0.50857 (Simulation time: 0 hr 9 min 54 sec) 
Heartbeat CPU 0 instructions: 140000003 cycles: 191416337 heartbeat IPC: 0.515683 cumulative IPC: 0.50935 (Simulation time: 0 hr 10 min 40 sec) 
Heartbeat CPU 0 instructions: 150000001 cycles: 210937162 heartbeat IPC: 0.512273 cumulative IPC: 0.509641 (Simulation time: 0 hr 11 min 25 sec) 
Heartbeat CPU 0 instructions: 160000000 cycles: 230809241 heartbeat IPC: 0.503219 cumulative IPC: 0.509051 (Simulation time: 0 hr 12 min 10 sec) 
*** Reached end of trace for Core: 0 Repeating trace: traces/spec2k17/srv_37.champsimtrace.xz
Heartbeat CPU 0 instructions: 170000000 cycles: 250263036 heartbeat IPC: 0.514039 cumulative IPC: 0.509463 (Simulation time: 0 hr 12 min 55 sec) 
Heartbeat CPU 0 instructions: 180000000 cycles: 269792640 heartbeat IPC: 0.512043 cumulative IPC: 0.50966 (Simulation time: 0 hr 13 min 54 sec) 
Heartbeat CPU 0 instructions: 190000002 cycles: 289582373 heartbeat IPC: 0.505313 cumulative IPC: 0.509347 (Simulation time: 0 hr 14 min 44 sec) 
*** Reached end of trace for Core: 0 Repeating trace: traces/spec2k17/srv_37.champsimtrace.xz
Heartbeat CPU 0 instructions: 200000001 cycles: 309027352 heartbeat IPC: 0.514271 cumulative IPC: 0.509672 (Simulation time: 0 hr 15 min 33 sec) 
Heartbeat CPU 0 instructions: 210000002 cycles: 328454279 heartbeat IPC: 0.51475 cumulative IPC: 0.509987 (Simulation time: 0 hr 16 min 28 sec) 
Heartbeat CPU 0 instructions: 220000000 cycles: 348281058 heartbeat IPC: 0.504368 cumulative IPC: 0.509653 (Simulation time: 0 hr 17 min 15 sec) 
*** Reached end of trace for Core: 0 Repeating trace: traces/spec2k17/srv_37.champsimtrace.xz
Heartbeat CPU 0 instructions: 230000000 cycles: 367724073 heartbeat IPC: 0.514324 cumulative IPC: 0.50991 (Simulation time: 0 hr 18 min 5 sec) 
Heartbeat CPU 0 instructions: 240000001 cycles: 387178340 heartbeat IPC: 0.514026 cumulative IPC: 0.510125 (Simulation time: 0 hr 19 min 18 sec) 
Heartbeat CPU 0 instructions: 250000001 cycles: 406913583 heartbeat IPC: 0.506708 cumulative IPC: 0.509953 (Simulation time: 0 hr 20 min 36 sec) 
Finished CPU 0 instructions: 200000002 cycles: 392192877 cumulative IPC: 0.509953 (Simulation time: 0 hr 20 min 36 sec) 

ChampSim completed all CPUs

Region of Interest Statistics

CPU 0 cumulative IPC: 0.509953 instructions: 200000002 cycles: 392192877
ITLB TOTAL     ACCESS:   33777992  HIT:   32245431  MISS:    1532561  HIT %:    95.4628  MISS %:    4.53716   MPKI: 7.6628
ITLB LOAD TRANSLATION ACCESS:   33777992  HIT:   32245431  MISS:    1532561  HIT %:    95.4628  MISS %:    4.53716   MPKI: 7.6628
ITLB PREFETCH  REQUESTED:          0  ISSUED:          0  USEFUL:          0  USELESS:          0
ITLB USEFUL LOAD PREFETCHES:          0 PREFETCH ISSUED TO LOWER LEVEL:          0  ACCURACY: -nan
ITLB TIMELY PREFETCHES:          0 LATE PREFETCHES: 0 DROPPED PREFETCHES: 0
ITLB PREFETCHES SAME FILL-ORIGIN LEVEL: 0 DIFFERENT FILL-ORIGIN LEVEL: 0
ITLB AVERAGE MISS LATENCY: 9.28007 cycles
ITLB RQ	ACCESS:   40656875	FORWARD:          0	MERGED:    6384092	TO_CACHE:   34272783

DTLB TOTAL     ACCESS:   39906618  HIT:   38372969  MISS:    1533649  HIT %:    96.1569  MISS %:    3.84309   MPKI: 7.66824
DTLB LOAD TRANSLATION ACCESS:   39906618  HIT:   38372969  MISS:    1533649  HIT %:    96.1569  MISS %:    3.84309   MPKI: 7.66824
DTLB PREFETCH  REQUESTED:          0  ISSUED:          0  USEFUL:          0  USELESS:          0
DTLB USEFUL LOAD PREFETCHES:          0 PREFETCH ISSUED TO LOWER LEVEL:          0  ACCURACY: -nan
DTLB TIMELY PREFETCHES:          0 LATE PREFETCHES: 0 DROPPED PREFETCHES: 0
DTLB PREFETCHES SAME FILL-ORIGIN LEVEL: 0 DIFFERENT FILL-ORIGIN LEVEL: 0
DTLB AVERAGE MISS LATENCY: 14.9986 cycles
DTLB RQ	ACCESS:   60997213	FORWARD:          0	MERGED:   20719142	TO_CACHE:   40278071

STLB TOTAL     ACCESS:    9739890  HIT:    9658056  MISS:      81834  HIT %:    99.1598  MISS %:   0.840194   MPKI: 0.40917
STLB LOAD TRANSLATION ACCESS:    3066210  HIT:    2987137  MISS:      79073  HIT %:    97.4211  MISS %:    2.57885   MPKI: 0.395365
STLB TRANSLATION FROM L1D PREFETCHER ACCESS:    6673680  HIT:    6670919  MISS:       2761  HIT %:    99.9586  MISS %:  0.0413715   MPKI: 0.013805
STLB PREFETCH  REQUESTED:          0  ISSUED:          0  USEFUL:       2646  USELESS:        114
STLB USEFUL LOAD PREFETCHES:       2646 PREFETCH ISSUED TO LOWER LEVEL:          0  ACCURACY: inf
STLB TIMELY PREFETCHES:       2646 LATE PREFETCHES: 1037 DROPPED PREFETCHES: 37207
STLB PREFETCHES SAME FILL-ORIGIN LEVEL: 0 DIFFERENT FILL-ORIGIN LEVEL: 0
STLB AVERAGE MISS LATENCY: 171902 cycles
STLB RQ	ACCESS:   12581094	FORWARD:          0	MERGED:    2802449	TO_CACHE:    9778645

STLB Hit, L1D data hit: 0
STLB Hit, L2C data hit: 0
STLB Hit, LLC data hit: 0
STLB Hit, LLC data miss: 0
STLB STLB hints to L2: 0
L1D TOTAL     ACCESS:   57094174  HIT:   50137308  MISS:    6956866  HIT %:    87.8151  MISS %:    12.1849   MPKI: 34.7843
L1D LOAD      ACCESS:   26664436  HIT:   23804607  MISS:    2859829  HIT %:    89.2747  MISS %:    10.7253   MPKI: 14.2991
L1D RFO       ACCESS:   22320905  HIT:   18631825  MISS:    3689080  HIT %:    83.4725  MISS %:    16.5275   MPKI: 18.4454
L1D PREFETCH  ACCESS:    8108833  HIT:    7700876  MISS:     407957  HIT %:     94.969  MISS %:    5.03102   MPKI: 2.03978
AGUS PREFETCH L1 MISS: 0
L1D PREFETCH  REQUESTED:   20603252  ISSUED:   20601373  USEFUL:     240355  USELESS:     167590
L1D USEFUL LOAD PREFETCHES:     240355 PREFETCH ISSUED TO LOWER LEVEL:     848480  ACCURACY: 28.3277
L1D TIMELY PREFETCHES:     240355 LATE PREFETCHES: 438463 DROPPED PREFETCHES: 38307
L1D PREFETCHES SAME FILL-ORIGIN LEVEL: 848480 DIFFERENT FILL-ORIGIN LEVEL: 0
L1D AVERAGE MISS LATENCY: 1.36548e+07 cycles
L1D RQ	ACCESS:   45143403	FORWARD:          0	MERGED:   17803326	TO_CACHE:   27061772
L1D WQ	ACCESS:   34134601	FORWARD:     313449	MERGED:     199160	TO_CACHE:   33935441
L1D PQ	ACCESS:   11086489	FORWARD:          0	MERGED:    1536461	TO_CACHE:    9514884

L1D UNIQUE REGIONS ACCESSED: 0
L1D REGIONS CONFLICTS: 0
L1D Cross Page Prefetch Requests: 4510003
L1D Same Page Prefetch Requests: 8307878
L1D ROI Sum of L1D PQ occupancy: 141305495
L1D PREFETCHES PUSHED FROM L2C: 0
L1I TOTAL     ACCESS:   38012092  HIT:   28935874  MISS:    9076218  HIT %:    76.1228  MISS %:    23.8772   MPKI: 45.3811
L1I LOAD      ACCESS:   38012092  HIT:   28935874  MISS:    9076218  HIT %:    76.1228  MISS %:    23.8772   MPKI: 45.3811
L1I PREFETCH  REQUESTED:          0  ISSUED:          0  USEFUL:          0  USELESS:          0
L1I USEFUL LOAD PREFETCHES:          0 PREFETCH ISSUED TO LOWER LEVEL:          0  ACCURACY: -nan
L1I TIMELY PREFETCHES:          0 LATE PREFETCHES: 0 DROPPED PREFETCHES: 0
L1I PREFETCHES SAME FILL-ORIGIN LEVEL: 0 DIFFERENT FILL-ORIGIN LEVEL: 0
L1I AVERAGE MISS LATENCY: 16.8947 cycles
L1I RQ	ACCESS:   58959719	FORWARD:          0	MERGED:   18302844	TO_CACHE:   40656875

BTB TOTAL     ACCESS:   25792472  HIT:   24215894  MISS:    1576578  HIT %:    93.8874  MISS %:    6.11255   MPKI: 7.88289
BTB BRANCH_DIRECT_JUMP	ACCESS:    1657270  HIT:    1644420  MISS:      12850
BTB BRANCH_INDIRECT	ACCESS:    9945377  HIT:    9419364  MISS:     526013
BTB BRANCH_CONDITIONAL	ACCESS:    7366898  HIT:    7349104  MISS:      17794
BTB BRANCH_DIRECT_CALL	ACCESS:    2818311  HIT:    2778534  MISS:      39777
BTB BRANCH_INDIRECT_CALL	ACCESS:     593130  HIT:     481549  MISS:     111581
BTB BRANCH_RETURN	ACCESS:    3411486  HIT:    2542923  MISS:     868563
BTB BRANCH_OTHER ACCESS:          0  HIT:          0  MISS:          0

L2C TOTAL     ACCESS:   20537457  HIT:   13812883  MISS:    6724574  HIT %:     67.257  MISS %:     32.743   MPKI: 33.6229
L2C LOAD      ACCESS:   11497531  HIT:    9154928  MISS:    2342603  HIT %:    79.6252  MISS %:    20.3748   MPKI: 11.713
L2C DATA LOAD MPKI: 8.8844
L2C INSTRUCTION LOAD MPKI: 2.82861
L2C RFO       ACCESS:    3687012  HIT:     161884  MISS:    3525128  HIT %:    4.39066  MISS %:    95.6093   MPKI: 17.6256
L2C PREFETCH  ACCESS:     848468  HIT:     191243  MISS:     657225  HIT %:    22.5398  MISS %:    77.4602   MPKI: 3.28612
AGUS PREFETCH L1 MISS: 0
L2C DATA PREFETCH MPKI: 3.28612
L2C INSTRUCTION PREFETCH MPKI: 0
L2C WRITEBACK ACCESS:    4350803  HIT:    4213379  MISS:     137424  HIT %:    96.8414  MISS %:    3.15859   MPKI: 0.68712
L2C LOAD TRANSLATION ACCESS:      91299  HIT:      48041  MISS:      43258  HIT %:    52.6194  MISS %:    47.3806   MPKI: 0.21629
L2C TRANSLATION FROM L1D PREFETCHER ACCESS:      62344  HIT:      43408  MISS:      18936  HIT %:    69.6266  MISS %:    30.3734   MPKI: 0.09468
L2C PREFETCH  REQUESTED:          0  ISSUED:          0  USEFUL:      27545  USELESS:     648584
L2C USEFUL LOAD PREFETCHES:      27545 PREFETCH ISSUED TO LOWER LEVEL:     657225  ACCURACY: 4.19111
L2C TIMELY PREFETCHES:      27545 LATE PREFETCHES: 0 DROPPED PREFETCHES: 0
L2C PREFETCHES SAME FILL-ORIGIN LEVEL: 0 DIFFERENT FILL-ORIGIN LEVEL: 0
L2C AVERAGE MISS LATENCY: 158.333 cycles
L2C RQ	ACCESS:   15338245	FORWARD:          0	MERGED:          0	TO_CACHE:   15338185
L2C WQ	ACCESS:    4350803	FORWARD:         72	MERGED:          0	TO_CACHE:    4350803
L2C PQ	ACCESS:     848480	FORWARD:          0	MERGED:          0	TO_CACHE:     848468

L2C Instructions Evicting Data 520305
L2C Translations Evicting Data 57011
L2C Data Evicting Data 5395756
L2C Instructions Evicting Instructions 40464
L2C Translations Evicting Instructions 4683
L2C Data Evicting Instructions 507849
L2C Instructions Evicting Translations 4954
L2C Translations Evicting Translations 500
L2C Data Evicting Translations 55628
L2C Dense regions hint from L2: 0
PSCL5 TOTAL     ACCESS:     118400  HIT:     118400  MISS:          0  HIT %:        100  MISS %:          0   MPKI: 0
PSCL5 LOAD TRANSLATION ACCESS:      78036  HIT:      78036  MISS:          0  HIT %:        100  MISS %:          0   MPKI: 0
PSCL5 TRANSLATION FROM L1D PREFETCHER ACCESS:      40364  HIT:      40364  MISS:          0  HIT %:        100  MISS %:          0   MPKI: 0
PSCL5 PREFETCH  REQUESTED:          0  ISSUED:          0  USEFUL:          0  USELESS:          0
PSCL5 USEFUL LOAD PREFETCHES:          0 PREFETCH ISSUED TO LOWER LEVEL:          0  ACCURACY: -nan
PSCL5 TIMELY PREFETCHES:          0 LATE PREFETCHES: 0 DROPPED PREFETCHES: 0
PSCL5 PREFETCHES SAME FILL-ORIGIN LEVEL: 0 DIFFERENT FILL-ORIGIN LEVEL: 0

PSCL4 TOTAL     ACCESS:     108737  HIT:     108514  MISS:        223  HIT %:    99.7949  MISS %:   0.205082   MPKI: 0.001115
PSCL4 LOAD TRANSLATION ACCESS:      75582  HIT:      75359  MISS:        223  HIT %:     99.705  MISS %:   0.295044   MPKI: 0.001115
PSCL4 TRANSLATION FROM L1D PREFETCHER ACCESS:      33155  HIT:      33155  MISS:          0  HIT %:        100  MISS %:          0   MPKI: 0
PSCL4 PREFETCH  REQUESTED:          0  ISSUED:          0  USEFUL:          0  USELESS:          0
PSCL4 USEFUL LOAD PREFETCHES:          0 PREFETCH ISSUED TO LOWER LEVEL:          0  ACCURACY: -nan
PSCL4 TIMELY PREFETCHES:          0 LATE PREFETCHES: 0 DROPPED PREFETCHES: 0
PSCL4 PREFETCHES SAME FILL-ORIGIN LEVEL: 0 DIFFERENT FILL-ORIGIN LEVEL: 0

PSCL3 TOTAL     ACCESS:     105305  HIT:     103996  MISS:       1309  HIT %:    98.7569  MISS %:    1.24306   MPKI: 0.006545
PSCL3 LOAD TRANSLATION ACCESS:      73126  HIT:      71817  MISS:       1309  HIT %:    98.2099  MISS %:    1.79006   MPKI: 0.006545
PSCL3 TRANSLATION FROM L1D PREFETCHER ACCESS:      32179  HIT:      32179  MISS:          0  HIT %:        100  MISS %:          0   MPKI: 0
PSCL3 PREFETCH  REQUESTED:          0  ISSUED:          0  USEFUL:          0  USELESS:          0
PSCL3 USEFUL LOAD PREFETCHES:          0 PREFETCH ISSUED TO LOWER LEVEL:          0  ACCURACY: -nan
PSCL3 TIMELY PREFETCHES:          0 LATE PREFETCHES: 0 DROPPED PREFETCHES: 0
PSCL3 PREFETCHES SAME FILL-ORIGIN LEVEL: 0 DIFFERENT FILL-ORIGIN LEVEL: 0

PSCL2 TOTAL     ACCESS:      97935  HIT:      85777  MISS:      12158  HIT %:    87.5856  MISS %:    12.4144   MPKI: 0.06079
PSCL2 LOAD TRANSLATION ACCESS:      78428  HIT:      66270  MISS:      12158  HIT %:    84.4979  MISS %:    15.5021   MPKI: 0.06079
PSCL2 TRANSLATION FROM L1D PREFETCHER ACCESS:      19507  HIT:      19507  MISS:          0  HIT %:        100  MISS %:          0   MPKI: 0
PSCL2 PREFETCH  REQUESTED:          0  ISSUED:          0  USEFUL:          0  USELESS:          0
PSCL2 USEFUL LOAD PREFETCHES:          0 PREFETCH ISSUED TO LOWER LEVEL:          0  ACCURACY: -nan
PSCL2 TIMELY PREFETCHES:          0 LATE PREFETCHES: 0 DROPPED PREFETCHES: 0
PSCL2 PREFETCHES SAME FILL-ORIGIN LEVEL: 0 DIFFERENT FILL-ORIGIN LEVEL: 0

LLC TOTAL     ACCESS:   10614719  HIT:    4241125  MISS:    6373594  HIT %:    39.9551  MISS %:    60.0449   MPKI: 31.868
LLC LOAD      ACCESS:    2342602  HIT:    1551361  MISS:     791241  HIT %:    66.2238  MISS %:    33.7762   MPKI: 3.9562
LLC RFO       ACCESS:    3525083  HIT:     977496  MISS:    2547587  HIT %:    27.7297  MISS %:    72.2703   MPKI: 12.7379
LLC PREFETCH  ACCESS:     657225  HIT:     141673  MISS:     515552  HIT %:    21.5562  MISS %:    78.4438   MPKI: 2.57776
AGUS PREFETCH L1 MISS: 0
LLC WRITEBACK ACCESS:    4027615  HIT:    1552264  MISS:    2475351  HIT %:    38.5405  MISS %:    61.4595   MPKI: 12.3768
LLC LOAD TRANSLATION ACCESS:      43258  HIT:       9260  MISS:      33998  HIT %:    21.4064  MISS %:    78.5936   MPKI: 0.16999
LLC TRANSLATION FROM L1D PREFETCHER ACCESS:      18936  HIT:       9071  MISS:       9865  HIT %:    47.9035  MISS %:    52.0965   MPKI: 0.049325
LLC PREFETCH  REQUESTED:          0  ISSUED:          0  USEFUL:       2269  USELESS:     523636
LLC USEFUL LOAD PREFETCHES:       2269 PREFETCH ISSUED TO LOWER LEVEL:     515552  ACCURACY: 0.440111
LLC TIMELY PREFETCHES:       2269 LATE PREFETCHES: 0 DROPPED PREFETCHES: 0
LLC PREFETCHES SAME FILL-ORIGIN LEVEL: 0 DIFFERENT FILL-ORIGIN LEVEL: 0
LLC AVERAGE MISS LATENCY: 136.045 cycles
LLC RQ	ACCESS:    5929925	FORWARD:          0	MERGED:          0	TO_CACHE:    5929879
LLC WQ	ACCESS:    4027615	FORWARD:         46	MERGED:          0	TO_CACHE:    4027615
LLC PQ	ACCESS:     657225	FORWARD:          0	MERGED:          0	TO_CACHE:     657225

LLC Dense regions hint to LLC: 0

RAW hits: 2449486
Loads Generated: 47592891
Loads sent to L1D: 45143403
Stores Generated: 34134589
Stores sent to L1D: 34134601
Major fault: 0 Minor fault: 9332
Allocated PAGES: 9332
Completed 

DRAM Statistics
 CHANNEL 0
 RQ ROW_BUFFER_HIT:    1829636  ROW_BUFFER_MISS:    2068251
 DBUS_CONGESTED:       2393
 WQ ROW_BUFFER_HIT:     537447  ROW_BUFFER_MISS:    2079352  FULL:      57221

 AVG_CONGESTED_CYCLE: 3
 All warmup complete: 2
Channel 0 Bank busy for read cycles: 0
Channel 0 Bank busy for write cycles: 0
Channel 0
Rank 0
0banks busy for read cycles: 172372744
0banks busy for write cycles: 264420
1banks busy for read cycles: 35592690
1banks busy for write cycles: 37306483
2banks busy for read cycles: 14267159
2banks busy for write cycles: 13407615
3banks busy for read cycles: 15754752
3banks busy for write cycles: 6480439
4banks busy for read cycles: 5924625
4banks busy for write cycles: 4173046
5banks busy for read cycles: 5107780
5banks busy for write cycles: 3421978
6banks busy for read cycles: 6007888
6banks busy for write cycles: 3422595
7banks busy for read cycles: 8776435
7banks busy for write cycles: 5926592
8banks busy for read cycles: 18845033
8banks busy for write cycles: 35140604

CPU 0 Branch Prediction Accuracy: 99.9446% MPKI: 0.08483 Average ROB Occupancy at Mispredict: 120.368
Branch types
NOT_BRANCH: 169380966 84.6905%
BRANCH_DIRECT_JUMP: 1657270 0.828635%
BRANCH_INDIRECT: 9945377 4.97269%
BRANCH_CONDITIONAL: 12193387 6.09669%
BRANCH_DIRECT_CALL: 2818311 1.40916%
BRANCH_INDIRECT_CALL: 593130 0.296565%
BRANCH_RETURN: 3411486 1.70574%
BRANCH_OTHER: 0 0%

DRAM PAGES: 1048576
Allocated PAGES: 9332
