
*** ChampSim Multicore Out-of-Order Simulator ***

Warmup Instructions: 50000000
Simulation Instructions: 200000000
Number of CPUs: 1
LLC sets: 2048
LLC ways: 16
Off-chip DRAM Size: 4096 MB Channels: 1 Width: 64-bit Data Rate: 6400 MT/s
CPU 0 runs traces/spec2k17/srv_35.champsimtrace.xz
.xz
BTB has LRU replacement policy
ITLB has LRU replacement policy
DTLB has LRU replacement policy
STLB has LRU replacement policy
L1I has LRU replacement policy
L1D has LRU replacement policy
Initialize SRRIP state for L2C
Initialize DRRIP state for LLC
Heartbeat CPU 0 instructions: 10000002 cycles: 2939441 heartbeat IPC: 3.40201 cumulative IPC: 3.40201 (Simulation time: 0 hr 0 min 28 sec) 
Heartbeat CPU 0 instructions: 20000000 cycles: 5884104 heartbeat IPC: 3.39597 cumulative IPC: 3.39899 (Simulation time: 0 hr 0 min 57 sec) 
Heartbeat CPU 0 instructions: 30000001 cycles: 8831648 heartbeat IPC: 3.39266 cumulative IPC: 3.39687 (Simulation time: 0 hr 1 min 32 sec) 
*** Reached end of trace for Core: 0 Repeating trace: traces/spec2k17/srv_35.champsimtrace.xz
Heartbeat CPU 0 instructions: 40000002 cycles: 11770701 heartbeat IPC: 3.40246 cumulative IPC: 3.39827 (Simulation time: 0 hr 2 min 3 sec) 
Heartbeat CPU 0 instructions: 50000002 cycles: 14716176 heartbeat IPC: 3.39504 cumulative IPC: 3.39762 (Simulation time: 0 hr 2 min 30 sec) 

Warmup complete CPU 0 instructions: 50000002 cycles: 14716176 (Simulation time: 0 hr 2 min 30 sec) 

Heartbeat CPU 0 instructions: 60000002 cycles: 34550842 heartbeat IPC: 0.504168 cumulative IPC: 0.504168 (Simulation time: 0 hr 3 min 26 sec) 
*** Reached end of trace for Core: 0 Repeating trace: traces/spec2k17/srv_35.champsimtrace.xz
Heartbeat CPU 0 instructions: 70000001 cycles: 53962232 heartbeat IPC: 0.515161 cumulative IPC: 0.509605 (Simulation time: 0 hr 4 min 27 sec) 
Heartbeat CPU 0 instructions: 80000002 cycles: 73600721 heartbeat IPC: 0.509204 cumulative IPC: 0.509472 (Simulation time: 0 hr 5 min 38 sec) 
Heartbeat CPU 0 instructions: 90000003 cycles: 93304260 heartbeat IPC: 0.507523 cumulative IPC: 0.508983 (Simulation time: 0 hr 6 min 48 sec) 
*** Reached end of trace for Core: 0 Repeating trace: traces/spec2k17/srv_35.champsimtrace.xz
Heartbeat CPU 0 instructions: 100000001 cycles: 112685371 heartbeat IPC: 0.515966 cumulative IPC: 0.510364 (Simulation time: 0 hr 8 min 1 sec) 
Heartbeat CPU 0 instructions: 110000000 cycles: 132338276 heartbeat IPC: 0.508831 cumulative IPC: 0.510108 (Simulation time: 0 hr 8 min 59 sec) 
Heartbeat CPU 0 instructions: 120000000 cycles: 152013540 heartbeat IPC: 0.508252 cumulative IPC: 0.509842 (Simulation time: 0 hr 9 min 54 sec) 
*** Reached end of trace for Core: 0 Repeating trace: traces/spec2k17/srv_35.champsimtrace.xz
Heartbeat CPU 0 instructions: 130000001 cycles: 171337263 heartbeat IPC: 0.517499 cumulative IPC: 0.510787 (Simulation time: 0 hr 10 min 46 sec) 
Heartbeat CPU 0 instructions: 140000000 cycles: 190984476 heartbeat IPC: 0.508978 cumulative IPC: 0.510585 (Simulation time: 0 hr 11 min 45 sec) 
Heartbeat CPU 0 instructions: 150000002 cycles: 210538431 heartbeat IPC: 0.511406 cumulative IPC: 0.510667 (Simulation time: 0 hr 12 min 33 sec) 
Heartbeat CPU 0 instructions: 160000001 cycles: 229955771 heartbeat IPC: 0.515004 cumulative IPC: 0.511058 (Simulation time: 0 hr 13 min 20 sec) 
*** Reached end of trace for Core: 0 Repeating trace: traces/spec2k17/srv_35.champsimtrace.xz
Heartbeat CPU 0 instructions: 170000000 cycles: 249281487 heartbeat IPC: 0.517445 cumulative IPC: 0.511585 (Simulation time: 0 hr 14 min 7 sec) 
Heartbeat CPU 0 instructions: 180000000 cycles: 269068343 heartbeat IPC: 0.505386 cumulative IPC: 0.511102 (Simulation time: 0 hr 14 min 54 sec) 
Heartbeat CPU 0 instructions: 190000003 cycles: 288520981 heartbeat IPC: 0.514069 cumulative IPC: 0.511313 (Simulation time: 0 hr 15 min 42 sec) 
*** Reached end of trace for Core: 0 Repeating trace: traces/spec2k17/srv_35.champsimtrace.xz
Heartbeat CPU 0 instructions: 200000003 cycles: 307841738 heartbeat IPC: 0.517578 cumulative IPC: 0.511726 (Simulation time: 0 hr 16 min 30 sec) 
Heartbeat CPU 0 instructions: 210000003 cycles: 327450906 heartbeat IPC: 0.509966 cumulative IPC: 0.511616 (Simulation time: 0 hr 17 min 18 sec) 
Heartbeat CPU 0 instructions: 220000000 cycles: 347011498 heartbeat IPC: 0.511232 cumulative IPC: 0.511593 (Simulation time: 0 hr 18 min 6 sec) 
*** Reached end of trace for Core: 0 Repeating trace: traces/spec2k17/srv_35.champsimtrace.xz
Heartbeat CPU 0 instructions: 230000000 cycles: 366336486 heartbeat IPC: 0.517465 cumulative IPC: 0.511916 (Simulation time: 0 hr 18 min 55 sec) 
Heartbeat CPU 0 instructions: 240000001 cycles: 385944038 heartbeat IPC: 0.510008 cumulative IPC: 0.511815 (Simulation time: 0 hr 19 min 44 sec) 
Heartbeat CPU 0 instructions: 250000001 cycles: 405557216 heartbeat IPC: 0.509861 cumulative IPC: 0.511717 (Simulation time: 0 hr 20 min 33 sec) 
Finished CPU 0 instructions: 200000003 cycles: 390841041 cumulative IPC: 0.511717 (Simulation time: 0 hr 20 min 33 sec) 

ChampSim completed all CPUs

Region of Interest Statistics

CPU 0 cumulative IPC: 0.511717 instructions: 200000003 cycles: 390841041
ITLB TOTAL     ACCESS:   33773328  HIT:   32235014  MISS:    1538314  HIT %:    95.4452  MISS %:    4.55482   MPKI: 7.69157
ITLB LOAD TRANSLATION ACCESS:   33773328  HIT:   32235014  MISS:    1538314  HIT %:    95.4452  MISS %:    4.55482   MPKI: 7.69157
ITLB PREFETCH  REQUESTED:          0  ISSUED:          0  USEFUL:          0  USELESS:          0
ITLB USEFUL LOAD PREFETCHES:          0 PREFETCH ISSUED TO LOWER LEVEL:          0  ACCURACY: -nan
ITLB TIMELY PREFETCHES:          0 LATE PREFETCHES: 0 DROPPED PREFETCHES: 0
ITLB PREFETCHES SAME FILL-ORIGIN LEVEL: 0 DIFFERENT FILL-ORIGIN LEVEL: 0
ITLB AVERAGE MISS LATENCY: 9.24216 cycles
ITLB RQ	ACCESS:   40657644	FORWARD:          0	MERGED:    6389608	TO_CACHE:   34268036

DTLB TOTAL     ACCESS:   39985482  HIT:   38454525  MISS:    1530957  HIT %:    96.1712  MISS %:    3.82878   MPKI: 7.65478
DTLB LOAD TRANSLATION ACCESS:   39985482  HIT:   38454525  MISS:    1530957  HIT %:    96.1712  MISS %:    3.82878   MPKI: 7.65478
DTLB PREFETCH  REQUESTED:          0  ISSUED:          0  USEFUL:          0  USELESS:          0
DTLB USEFUL LOAD PREFETCHES:          0 PREFETCH ISSUED TO LOWER LEVEL:          0  ACCURACY: -nan
DTLB TIMELY PREFETCHES:          0 LATE PREFETCHES: 0 DROPPED PREFETCHES: 0
DTLB PREFETCHES SAME FILL-ORIGIN LEVEL: 0 DIFFERENT FILL-ORIGIN LEVEL: 0
DTLB AVERAGE MISS LATENCY: 14.4502 cycles
DTLB RQ	ACCESS:   61079829	FORWARD:          0	MERGED:   20723406	TO_CACHE:   40356423

STLB TOTAL     ACCESS:    9770441  HIT:    9691704  MISS:      78737  HIT %:    99.1941  MISS %:   0.805869   MPKI: 0.393685
STLB LOAD TRANSLATION ACCESS:    3069271  HIT:    2993205  MISS:      76066  HIT %:    97.5217  MISS %:    2.47831   MPKI: 0.38033
STLB TRANSLATION FROM L1D PREFETCHER ACCESS:    6701170  HIT:    6698499  MISS:       2671  HIT %:    99.9601  MISS %:  0.0398587   MPKI: 0.013355
STLB PREFETCH  REQUESTED:          0  ISSUED:          0  USEFUL:       2454  USELESS:        215
STLB USEFUL LOAD PREFETCHES:       2454 PREFETCH ISSUED TO LOWER LEVEL:          0  ACCURACY: inf
STLB TIMELY PREFETCHES:       2454 LATE PREFETCHES: 805 DROPPED PREFETCHES: 39434
STLB PREFETCHES SAME FILL-ORIGIN LEVEL: 0 DIFFERENT FILL-ORIGIN LEVEL: 0
STLB AVERAGE MISS LATENCY: 132393 cycles
STLB RQ	ACCESS:   12651202	FORWARD:          0	MERGED:    2840059	TO_CACHE:    9811143

STLB Hit, L1D data hit: 0
STLB Hit, L2C data hit: 0
STLB Hit, LLC data hit: 0
STLB Hit, LLC data miss: 0
STLB STLB hints to L2: 0
L1D TOTAL     ACCESS:   57265095  HIT:   50306985  MISS:    6958110  HIT %:    87.8493  MISS %:    12.1507   MPKI: 34.7905
L1D LOAD      ACCESS:   26744651  HIT:   23880052  MISS:    2864599  HIT %:    89.2891  MISS %:    10.7109   MPKI: 14.323
L1D RFO       ACCESS:   22352359  HIT:   18678583  MISS:    3673776  HIT %:    83.5643  MISS %:    16.4357   MPKI: 18.3689
L1D PREFETCH  ACCESS:    8168085  HIT:    7748350  MISS:     419735  HIT %:    94.8613  MISS %:    5.13872   MPKI: 2.09867
AGUS PREFETCH L1 MISS: 0
L1D PREFETCH  REQUESTED:   20714025  ISSUED:   20711557  USEFUL:     244463  USELESS:     175280
L1D USEFUL LOAD PREFETCHES:     244463 PREFETCH ISSUED TO LOWER LEVEL:     859968  ACCURACY: 28.427
L1D TIMELY PREFETCHES:     244463 LATE PREFETCHES: 438079 DROPPED PREFETCHES: 40227
L1D PREFETCHES SAME FILL-ORIGIN LEVEL: 859968 DIFFERENT FILL-ORIGIN LEVEL: 0
L1D AVERAGE MISS LATENCY: 1.36103e+07 cycles
L1D RQ	ACCESS:   45259966	FORWARD:          0	MERGED:   17836972	TO_CACHE:   27143185
L1D WQ	ACCESS:   34133602	FORWARD:     315812	MERGED:     196958	TO_CACHE:   33936644
L1D PQ	ACCESS:   11129626	FORWARD:          0	MERGED:    1511692	TO_CACHE:    9581931

L1D UNIQUE REGIONS ACCESSED: 0
L1D REGIONS CONFLICTS: 0
L1D Cross Page Prefetch Requests: 4546478
L1D Same Page Prefetch Requests: 8317602
L1D ROI Sum of L1D PQ occupancy: 142449837
L1D PREFETCHES PUSHED FROM L2C: 0
L1I TOTAL     ACCESS:   38001587  HIT:   28896120  MISS:    9105467  HIT %:    76.0392  MISS %:    23.9608   MPKI: 45.5273
L1I LOAD      ACCESS:   38001587  HIT:   28896120  MISS:    9105467  HIT %:    76.0392  MISS %:    23.9608   MPKI: 45.5273
L1I PREFETCH  REQUESTED:          0  ISSUED:          0  USEFUL:          0  USELESS:          0
L1I USEFUL LOAD PREFETCHES:          0 PREFETCH ISSUED TO LOWER LEVEL:          0  ACCURACY: -nan
L1I TIMELY PREFETCHES:          0 LATE PREFETCHES: 0 DROPPED PREFETCHES: 0
L1I PREFETCHES SAME FILL-ORIGIN LEVEL: 0 DIFFERENT FILL-ORIGIN LEVEL: 0
L1I AVERAGE MISS LATENCY: 16.862 cycles
L1I RQ	ACCESS:   58971602	FORWARD:          0	MERGED:   18313958	TO_CACHE:   40657644

BTB TOTAL     ACCESS:   25730492  HIT:   24146056  MISS:    1584436  HIT %:    93.8422  MISS %:    6.15781   MPKI: 7.92218
BTB BRANCH_DIRECT_JUMP	ACCESS:    1658706  HIT:    1646127  MISS:      12579
BTB BRANCH_INDIRECT	ACCESS:    9991436  HIT:    9459142  MISS:     532294
BTB BRANCH_CONDITIONAL	ACCESS:    7236367  HIT:    7219065  MISS:      17302
BTB BRANCH_DIRECT_CALL	ACCESS:    2824055  HIT:    2784656  MISS:      39399
BTB BRANCH_INDIRECT_CALL	ACCESS:     597965  HIT:     486107  MISS:     111858
BTB BRANCH_RETURN	ACCESS:    3421963  HIT:    2550959  MISS:     871004
BTB BRANCH_OTHER ACCESS:          0  HIT:          0  MISS:          0

L2C TOTAL     ACCESS:   20557024  HIT:   13840831  MISS:    6716193  HIT %:     67.329  MISS %:     32.671   MPKI: 33.581
L2C LOAD      ACCESS:   11531941  HIT:    9184812  MISS:    2347129  HIT %:    79.6467  MISS %:    20.3533   MPKI: 11.7356
L2C DATA LOAD MPKI: 8.86092
L2C INSTRUCTION LOAD MPKI: 2.87472
L2C RFO       ACCESS:    3671614  HIT:     165502  MISS:    3506112  HIT %:    4.50761  MISS %:    95.4924   MPKI: 17.5306
L2C PREFETCH  ACCESS:     859957  HIT:     201513  MISS:     658444  HIT %:    23.4329  MISS %:    76.5671   MPKI: 3.29222
AGUS PREFETCH L1 MISS: 0
L2C DATA PREFETCH MPKI: 3.29222
L2C INSTRUCTION PREFETCH MPKI: 0
L2C WRITEBACK ACCESS:    4335681  HIT:    4192167  MISS:     143514  HIT %:    96.6899  MISS %:    3.31007   MPKI: 0.71757
L2C LOAD TRANSLATION ACCESS:      87755  HIT:      45595  MISS:      42160  HIT %:    51.9572  MISS %:    48.0428   MPKI: 0.2108
L2C TRANSLATION FROM L1D PREFETCHER ACCESS:      70076  HIT:      51242  MISS:      18834  HIT %:    73.1235  MISS %:    26.8765   MPKI: 0.09417
L2C PREFETCH  REQUESTED:          0  ISSUED:          0  USEFUL:      27278  USELESS:     650073
L2C USEFUL LOAD PREFETCHES:      27278 PREFETCH ISSUED TO LOWER LEVEL:     658444  ACCURACY: 4.1428
L2C TIMELY PREFETCHES:      27278 LATE PREFETCHES: 0 DROPPED PREFETCHES: 0
L2C PREFETCHES SAME FILL-ORIGIN LEVEL: 0 DIFFERENT FILL-ORIGIN LEVEL: 0
L2C AVERAGE MISS LATENCY: 156.337 cycles
L2C RQ	ACCESS:   15361440	FORWARD:          0	MERGED:          0	TO_CACHE:   15361386
L2C WQ	ACCESS:    4335682	FORWARD:         65	MERGED:          0	TO_CACHE:    4335682
L2C PQ	ACCESS:     859968	FORWARD:          0	MERGED:          0	TO_CACHE:     859957

L2C Instructions Evicting Data 523411
L2C Translations Evicting Data 55750
L2C Data Evicting Data 5371711
L2C Instructions Evicting Instructions 46528
L2C Translations Evicting Instructions 4781
L2C Data Evicting Instructions 510544
L2C Instructions Evicting Translations 5005
L2C Translations Evicting Translations 463
L2C Data Evicting Translations 54486
L2C Dense regions hint from L2: 0
PSCL5 TOTAL     ACCESS:     117499  HIT:     117499  MISS:          0  HIT %:        100  MISS %:          0   MPKI: 0
PSCL5 LOAD TRANSLATION ACCESS:      75261  HIT:      75261  MISS:          0  HIT %:        100  MISS %:          0   MPKI: 0
PSCL5 TRANSLATION FROM L1D PREFETCHER ACCESS:      42238  HIT:      42238  MISS:          0  HIT %:        100  MISS %:          0   MPKI: 0
PSCL5 PREFETCH  REQUESTED:          0  ISSUED:          0  USEFUL:          0  USELESS:          0
PSCL5 USEFUL LOAD PREFETCHES:          0 PREFETCH ISSUED TO LOWER LEVEL:          0  ACCURACY: -nan
PSCL5 TIMELY PREFETCHES:          0 LATE PREFETCHES: 0 DROPPED PREFETCHES: 0
PSCL5 PREFETCHES SAME FILL-ORIGIN LEVEL: 0 DIFFERENT FILL-ORIGIN LEVEL: 0

PSCL4 TOTAL     ACCESS:     108529  HIT:     108345  MISS:        184  HIT %:    99.8305  MISS %:    0.16954   MPKI: 0.00092
PSCL4 LOAD TRANSLATION ACCESS:      73422  HIT:      73238  MISS:        184  HIT %:    99.7494  MISS %:   0.250606   MPKI: 0.00092
PSCL4 TRANSLATION FROM L1D PREFETCHER ACCESS:      35107  HIT:      35107  MISS:          0  HIT %:        100  MISS %:          0   MPKI: 0
PSCL4 PREFETCH  REQUESTED:          0  ISSUED:          0  USEFUL:          0  USELESS:          0
PSCL4 USEFUL LOAD PREFETCHES:          0 PREFETCH ISSUED TO LOWER LEVEL:          0  ACCURACY: -nan
PSCL4 TIMELY PREFETCHES:          0 LATE PREFETCHES: 0 DROPPED PREFETCHES: 0
PSCL4 PREFETCHES SAME FILL-ORIGIN LEVEL: 0 DIFFERENT FILL-ORIGIN LEVEL: 0

PSCL3 TOTAL     ACCESS:     100090  HIT:      98837  MISS:       1253  HIT %:    98.7481  MISS %:    1.25187   MPKI: 0.006265
PSCL3 LOAD TRANSLATION ACCESS:      67545  HIT:      66292  MISS:       1253  HIT %:    98.1449  MISS %:    1.85506   MPKI: 0.006265
PSCL3 TRANSLATION FROM L1D PREFETCHER ACCESS:      32545  HIT:      32545  MISS:          0  HIT %:        100  MISS %:          0   MPKI: 0
PSCL3 PREFETCH  REQUESTED:          0  ISSUED:          0  USEFUL:          0  USELESS:          0
PSCL3 USEFUL LOAD PREFETCHES:          0 PREFETCH ISSUED TO LOWER LEVEL:          0  ACCURACY: -nan
PSCL3 TIMELY PREFETCHES:          0 LATE PREFETCHES: 0 DROPPED PREFETCHES: 0
PSCL3 PREFETCHES SAME FILL-ORIGIN LEVEL: 0 DIFFERENT FILL-ORIGIN LEVEL: 0

PSCL2 TOTAL     ACCESS:      90350  HIT:      78925  MISS:      11425  HIT %:    87.3547  MISS %:    12.6453   MPKI: 0.057125
PSCL2 LOAD TRANSLATION ACCESS:      75616  HIT:      64191  MISS:      11425  HIT %:    84.8908  MISS %:    15.1092   MPKI: 0.057125
PSCL2 TRANSLATION FROM L1D PREFETCHER ACCESS:      14734  HIT:      14734  MISS:          0  HIT %:        100  MISS %:          0   MPKI: 0
PSCL2 PREFETCH  REQUESTED:          0  ISSUED:          0  USEFUL:          0  USELESS:          0
PSCL2 USEFUL LOAD PREFETCHES:          0 PREFETCH ISSUED TO LOWER LEVEL:          0  ACCURACY: -nan
PSCL2 TIMELY PREFETCHES:          0 LATE PREFETCHES: 0 DROPPED PREFETCHES: 0
PSCL2 PREFETCHES SAME FILL-ORIGIN LEVEL: 0 DIFFERENT FILL-ORIGIN LEVEL: 0

LLC TOTAL     ACCESS:   10581346  HIT:    4267168  MISS:    6314178  HIT %:    40.3273  MISS %:    59.6727   MPKI: 31.5709
LLC LOAD      ACCESS:    2347128  HIT:    1571612  MISS:     775516  HIT %:    66.9589  MISS %:    33.0411   MPKI: 3.87758
LLC RFO       ACCESS:    3506098  HIT:     976767  MISS:    2529331  HIT %:    27.8591  MISS %:    72.1409   MPKI: 12.6467
LLC PREFETCH  ACCESS:     658443  HIT:     150041  MISS:     508402  HIT %:    22.7872  MISS %:    77.2128   MPKI: 2.54201
AGUS PREFETCH L1 MISS: 0
LLC WRITEBACK ACCESS:    4008683  HIT:    1546427  MISS:    2462256  HIT %:    38.5769  MISS %:    61.4231   MPKI: 12.3113
LLC LOAD TRANSLATION ACCESS:      42160  HIT:      13365  MISS:      28795  HIT %:    31.7007  MISS %:    68.2993   MPKI: 0.143975
LLC TRANSLATION FROM L1D PREFETCHER ACCESS:      18834  HIT:       8956  MISS:       9878  HIT %:    47.5523  MISS %:    52.4477   MPKI: 0.04939
LLC PREFETCH  REQUESTED:          0  ISSUED:          0  USEFUL:       2764  USELESS:     516320
LLC USEFUL LOAD PREFETCHES:       2764 PREFETCH ISSUED TO LOWER LEVEL:     508402  ACCURACY: 0.543664
LLC TIMELY PREFETCHES:       2764 LATE PREFETCHES: 0 DROPPED PREFETCHES: 0
LLC PREFETCHES SAME FILL-ORIGIN LEVEL: 0 DIFFERENT FILL-ORIGIN LEVEL: 0
LLC AVERAGE MISS LATENCY: 135.06 cycles
LLC RQ	ACCESS:    5914235	FORWARD:          0	MERGED:          0	TO_CACHE:    5914220
LLC WQ	ACCESS:    4008684	FORWARD:         16	MERGED:          0	TO_CACHE:    4008684
LLC PQ	ACCESS:     658444	FORWARD:          0	MERGED:          0	TO_CACHE:     658443

LLC Dense regions hint to LLC: 0

RAW hits: 2459575
Loads Generated: 47719541
Loads sent to L1D: 45259966
Stores Generated: 34133593
Stores sent to L1D: 34133602
Major fault: 0 Minor fault: 9063
Allocated PAGES: 9063
Completed 

DRAM Statistics
 CHANNEL 0
 RQ ROW_BUFFER_HIT:    1817379  ROW_BUFFER_MISS:    2034207
 DBUS_CONGESTED:       2274
 WQ ROW_BUFFER_HIT:     541479  ROW_BUFFER_MISS:    2059175  FULL:      53331

 AVG_CONGESTED_CYCLE: 3
 All warmup complete: 2
Channel 0 Bank busy for read cycles: 0
Channel 0 Bank busy for write cycles: 0
Channel 0
Rank 0
0banks busy for read cycles: 171853181
0banks busy for write cycles: 266415
1banks busy for read cycles: 36019407
1banks busy for write cycles: 37437111
2banks busy for read cycles: 14551484
2banks busy for write cycles: 13435237
3banks busy for read cycles: 15988747
3banks busy for write cycles: 6463698
4banks busy for read cycles: 5884588
4banks busy for write cycles: 4303507
5banks busy for read cycles: 4912512
5banks busy for write cycles: 3419741
6banks busy for read cycles: 5675539
6banks busy for write cycles: 3419211
7banks busy for read cycles: 8420720
7banks busy for write cycles: 5761886
8banks busy for read cycles: 18572372
8banks busy for write cycles: 34455686

CPU 0 Branch Prediction Accuracy: 99.9446% MPKI: 0.08472 Average ROB Occupancy at Mispredict: 119.847
Branch types
NOT_BRANCH: 169425254 84.7126%
BRANCH_DIRECT_JUMP: 1658706 0.829353%
BRANCH_INDIRECT: 9991436 4.99572%
BRANCH_CONDITIONAL: 12080659 6.04033%
BRANCH_DIRECT_CALL: 2824055 1.41203%
BRANCH_INDIRECT_CALL: 597965 0.298982%
BRANCH_RETURN: 3421963 1.71098%
BRANCH_OTHER: 0 0%

DRAM PAGES: 1048576
Allocated PAGES: 9063
