
*** ChampSim Multicore Out-of-Order Simulator ***

Warmup Instructions: 50000000
Simulation Instructions: 200000000
Number of CPUs: 1
LLC sets: 2048
LLC ways: 16
Off-chip DRAM Size: 4096 MB Channels: 1 Width: 64-bit Data Rate: 6400 MT/s
CPU 0 runs traces/spec2k17/server_034.champsimtrace.xz
.xz
BTB has LRU replacement policy
ITLB has LRU replacement policy
DTLB has LRU replacement policy
STLB has LRU replacement policy
L1I has LRU replacement policy
IP Table Entries: 1024
CSPT Entries: 128
RR_ENTRIES: 32
RST_ENTRIES: 8
L1D has LRU replacement policy
Initialize SRRIP state for L2C
Initialize DRRIP state for LLC
Heartbeat CPU 0 instructions: 10000001 cycles: 2815893 heartbeat IPC: 3.55127 cumulative IPC: 3.55127 (Simulation time: 0 hr 0 min 41 sec) 
Heartbeat CPU 0 instructions: 20000003 cycles: 5624726 heartbeat IPC: 3.5602 cumulative IPC: 3.55573 (Simulation time: 0 hr 1 min 22 sec) 
Heartbeat CPU 0 instructions: 30000001 cycles: 8438032 heartbeat IPC: 3.55454 cumulative IPC: 3.55533 (Simulation time: 0 hr 2 min 6 sec) 
Heartbeat CPU 0 instructions: 40000002 cycles: 11250843 heartbeat IPC: 3.55516 cumulative IPC: 3.55529 (Simulation time: 0 hr 2 min 49 sec) 
Heartbeat CPU 0 instructions: 50000001 cycles: 14063581 heartbeat IPC: 3.55525 cumulative IPC: 3.55528 (Simulation time: 0 hr 3 min 32 sec) 

Warmup complete CPU 0 instructions: 50000001 cycles: 14063581 (Simulation time: 0 hr 3 min 32 sec) 

Heartbeat CPU 0 instructions: 60000003 cycles: 40179691 heartbeat IPC: 0.382905 cumulative IPC: 0.382905 (Simulation time: 0 hr 4 min 28 sec) 
Heartbeat CPU 0 instructions: 70000000 cycles: 65728068 heartbeat IPC: 0.391414 cumulative IPC: 0.387113 (Simulation time: 0 hr 5 min 21 sec) 
Heartbeat CPU 0 instructions: 80000002 cycles: 91905363 heartbeat IPC: 0.382011 cumulative IPC: 0.385397 (Simulation time: 0 hr 6 min 10 sec) 
Heartbeat CPU 0 instructions: 90000003 cycles: 118066593 heartbeat IPC: 0.382245 cumulative IPC: 0.384604 (Simulation time: 0 hr 7 min 1 sec) 
Heartbeat CPU 0 instructions: 100000000 cycles: 144231908 heartbeat IPC: 0.382185 cumulative IPC: 0.384118 (Simulation time: 0 hr 7 min 49 sec) 
*** Reached end of trace for Core: 0 Repeating trace: traces/spec2k17/server_034.champsimtrace.xz
Heartbeat CPU 0 instructions: 110000000 cycles: 170442151 heartbeat IPC: 0.38153 cumulative IPC: 0.383684 (Simulation time: 0 hr 8 min 42 sec) 
Heartbeat CPU 0 instructions: 120000001 cycles: 196097738 heartbeat IPC: 0.389779 cumulative IPC: 0.384543 (Simulation time: 0 hr 9 min 40 sec) 
Heartbeat CPU 0 instructions: 130000003 cycles: 222479492 heartbeat IPC: 0.37905 cumulative IPC: 0.383848 (Simulation time: 0 hr 10 min 31 sec) 
Heartbeat CPU 0 instructions: 140000001 cycles: 249012063 heartbeat IPC: 0.376895 cumulative IPC: 0.383063 (Simulation time: 0 hr 11 min 18 sec) 
Heartbeat CPU 0 instructions: 150000003 cycles: 275333436 heartbeat IPC: 0.379919 cumulative IPC: 0.382746 (Simulation time: 0 hr 12 min 0 sec) 
Heartbeat CPU 0 instructions: 160000000 cycles: 301464794 heartbeat IPC: 0.382682 cumulative IPC: 0.38274 (Simulation time: 0 hr 12 min 53 sec) 
Heartbeat CPU 0 instructions: 170000001 cycles: 327599567 heartbeat IPC: 0.382632 cumulative IPC: 0.382731 (Simulation time: 0 hr 13 min 51 sec) 
Heartbeat CPU 0 instructions: 180000002 cycles: 353132417 heartbeat IPC: 0.391652 cumulative IPC: 0.383403 (Simulation time: 0 hr 14 min 38 sec) 
Heartbeat CPU 0 instructions: 190000002 cycles: 379293423 heartbeat IPC: 0.382248 cumulative IPC: 0.38332 (Simulation time: 0 hr 15 min 28 sec) 
Heartbeat CPU 0 instructions: 200000000 cycles: 405431169 heartbeat IPC: 0.382588 cumulative IPC: 0.383271 (Simulation time: 0 hr 16 min 20 sec) 
*** Reached end of trace for Core: 0 Repeating trace: traces/spec2k17/server_034.champsimtrace.xz
Heartbeat CPU 0 instructions: 210000000 cycles: 431645207 heartbeat IPC: 0.381475 cumulative IPC: 0.383159 (Simulation time: 0 hr 17 min 1 sec) 
Heartbeat CPU 0 instructions: 220000000 cycles: 457745127 heartbeat IPC: 0.383143 cumulative IPC: 0.383158 (Simulation time: 0 hr 17 min 57 sec) 
Heartbeat CPU 0 instructions: 230000000 cycles: 483496377 heartbeat IPC: 0.388331 cumulative IPC: 0.383441 (Simulation time: 0 hr 18 min 49 sec) 
Heartbeat CPU 0 instructions: 240000000 cycles: 510003872 heartbeat IPC: 0.377252 cumulative IPC: 0.383111 (Simulation time: 0 hr 19 min 34 sec) 
Heartbeat CPU 0 instructions: 250000001 cycles: 536385865 heartbeat IPC: 0.379046 cumulative IPC: 0.382905 (Simulation time: 0 hr 20 min 28 sec) 
Finished CPU 0 instructions: 200000000 cycles: 522322284 cumulative IPC: 0.382905 (Simulation time: 0 hr 20 min 28 sec) 

ChampSim completed all CPUs

Region of Interest Statistics

CPU 0 cumulative IPC: 0.382905 instructions: 200000000 cycles: 522322284
ITLB TOTAL     ACCESS:   35661655  HIT:   33629304  MISS:    2032351  HIT %:     94.301  MISS %:    5.69898   MPKI: 10.1618
ITLB LOAD TRANSLATION ACCESS:   35661655  HIT:   33629304  MISS:    2032351  HIT %:     94.301  MISS %:    5.69898   MPKI: 10.1618
ITLB PREFETCH  REQUESTED:          0  ISSUED:          0  USEFUL:          0  USELESS:          0
ITLB USEFUL LOAD PREFETCHES:          0 PREFETCH ISSUED TO LOWER LEVEL:          0  ACCURACY: -nan
ITLB TIMELY PREFETCHES:          0 LATE PREFETCHES: 0 DROPPED PREFETCHES: 0
ITLB PREFETCHES SAME FILL-ORIGIN LEVEL: 0 DIFFERENT FILL-ORIGIN LEVEL: 0
ITLB AVERAGE MISS LATENCY: 9.0262 cycles
ITLB RQ	ACCESS:   41325111	FORWARD:          0	MERGED:    5208478	TO_CACHE:   36116633

DTLB TOTAL     ACCESS:   39354768  HIT:   37767097  MISS:    1587671  HIT %:    95.9657  MISS %:    4.03425   MPKI: 7.93835
DTLB LOAD TRANSLATION ACCESS:   39354768  HIT:   37767097  MISS:    1587671  HIT %:    95.9657  MISS %:    4.03425   MPKI: 7.93835
DTLB PREFETCH  REQUESTED:          0  ISSUED:          0  USEFUL:          0  USELESS:          0
DTLB USEFUL LOAD PREFETCHES:          0 PREFETCH ISSUED TO LOWER LEVEL:          0  ACCURACY: -nan
DTLB TIMELY PREFETCHES:          0 LATE PREFETCHES: 0 DROPPED PREFETCHES: 0
DTLB PREFETCHES SAME FILL-ORIGIN LEVEL: 0 DIFFERENT FILL-ORIGIN LEVEL: 0
DTLB AVERAGE MISS LATENCY: 9.0499 cycles
DTLB RQ	ACCESS:   54959190	FORWARD:          0	MERGED:   15521209	TO_CACHE:   39437981

STLB TOTAL     ACCESS:    5007067  HIT:    5004386  MISS:       2681  HIT %:    99.9465  MISS %:  0.0535443   MPKI: 0.013405
STLB LOAD TRANSLATION ACCESS:    3620022  HIT:    3617341  MISS:       2681  HIT %:    99.9259  MISS %:  0.0740603   MPKI: 0.013405
STLB TRANSLATION FROM L1D PREFETCHER ACCESS:    1387045  HIT:    1387045  MISS:          0  HIT %:        100  MISS %:          0   MPKI: 0
STLB PREFETCH  REQUESTED:          0  ISSUED:          0  USEFUL:          0  USELESS:          0
STLB USEFUL LOAD PREFETCHES:          0 PREFETCH ISSUED TO LOWER LEVEL:          0  ACCURACY: -nan
STLB TIMELY PREFETCHES:          0 LATE PREFETCHES: 0 DROPPED PREFETCHES: 0
STLB PREFETCHES SAME FILL-ORIGIN LEVEL: 0 DIFFERENT FILL-ORIGIN LEVEL: 0
STLB AVERAGE MISS LATENCY: 33.4054 cycles
STLB RQ	ACCESS:    5658000	FORWARD:          0	MERGED:     650933	TO_CACHE:    5007067

STLB Hit, L1D data hit: 0
STLB Hit, L2C data hit: 0
STLB Hit, LLC data hit: 0
STLB Hit, LLC data miss: 0
STLB STLB hints to L2: 0
L1D TOTAL     ACCESS:   56463406  HIT:   52651400  MISS:    3812006  HIT %:    93.2487  MISS %:    6.75129   MPKI: 19.06
L1D LOAD      ACCESS:   30201300  HIT:   27753645  MISS:    2447655  HIT %:    91.8955  MISS %:    8.10447   MPKI: 12.2383
L1D RFO       ACCESS:   24270476  HIT:   23831229  MISS:     439247  HIT %:    98.1902  MISS %:     1.8098   MPKI: 2.19624
L1D PREFETCH  ACCESS:    1991630  HIT:    1066526  MISS:     925104  HIT %:    53.5504  MISS %:    46.4496   MPKI: 4.62552
AGUS PREFETCH L1 MISS: 0
L1D PREFETCH  REQUESTED:    4083541  ISSUED:    4080822  USEFUL:     116827  USELESS:     808304
L1D USEFUL LOAD PREFETCHES:     116827 PREFETCH ISSUED TO LOWER LEVEL:     926502  ACCURACY: 12.6095
L1D TIMELY PREFETCHES:     116827 LATE PREFETCHES: 1342 DROPPED PREFETCHES: 0
L1D PREFETCHES SAME FILL-ORIGIN LEVEL: 926502 DIFFERENT FILL-ORIGIN LEVEL: 0
L1D AVERAGE MISS LATENCY: 97169.6 cycles
L1D RQ	ACCESS:   43330452	FORWARD:          0	MERGED:   12733995	TO_CACHE:   30248306
L1D WQ	ACCESS:   24968545	FORWARD:     353017	MERGED:     257661	TO_CACHE:   24710884
L1D PQ	ACCESS:    2042844	FORWARD:          0	MERGED:          0	TO_CACHE:    2037978

L1D UNIQUE REGIONS ACCESSED: 0
L1D REGIONS CONFLICTS: 0
L1D Cross Page Prefetch Requests: 0
L1D Same Page Prefetch Requests: 2530683
L1D ROI Sum of L1D PQ occupancy: 26281591
L1D PREFETCHES PUSHED FROM L2C: 0
L1I TOTAL     ACCESS:   38736617  HIT:   26141526  MISS:   12595091  HIT %:    67.4853  MISS %:    32.5147   MPKI: 62.9755
L1I LOAD      ACCESS:   38736617  HIT:   26141526  MISS:   12595091  HIT %:    67.4853  MISS %:    32.5147   MPKI: 62.9755
L1I PREFETCH  REQUESTED:          0  ISSUED:          0  USEFUL:          0  USELESS:          0
L1I USEFUL LOAD PREFETCHES:          0 PREFETCH ISSUED TO LOWER LEVEL:          0  ACCURACY: -nan
L1I TIMELY PREFETCHES:          0 LATE PREFETCHES: 0 DROPPED PREFETCHES: 0
L1I PREFETCHES SAME FILL-ORIGIN LEVEL: 0 DIFFERENT FILL-ORIGIN LEVEL: 0
L1I AVERAGE MISS LATENCY: 14.3018 cycles
L1I RQ	ACCESS:   61097682	FORWARD:          0	MERGED:   19772571	TO_CACHE:   41325111

BTB TOTAL     ACCESS:   31187081  HIT:   22748972  MISS:    8438109  HIT %:    72.9436  MISS %:    27.0564   MPKI: 42.1905
BTB BRANCH_DIRECT_JUMP	ACCESS:    2936764  HIT:    2316190  MISS:     620574
BTB BRANCH_INDIRECT	ACCESS:   13065636  HIT:    9451143  MISS:    3614493
BTB BRANCH_CONDITIONAL	ACCESS:    5550027  HIT:    4880620  MISS:     669407
BTB BRANCH_DIRECT_CALL	ACCESS:    4007660  HIT:    3039316  MISS:     968344
BTB BRANCH_INDIRECT_CALL	ACCESS:     809679  HIT:     470392  MISS:     339287
BTB BRANCH_RETURN	ACCESS:    4817315  HIT:    2591311  MISS:    2226004
BTB BRANCH_OTHER ACCESS:          0  HIT:          0  MISS:          0

L2C TOTAL     ACCESS:   17512466  HIT:   17109670  MISS:     402796  HIT %:    97.6999  MISS %:    2.30005   MPKI: 2.01398
L2C LOAD      ACCESS:   15041400  HIT:   14780877  MISS:     260523  HIT %:     98.268  MISS %:    1.73204   MPKI: 1.30262
L2C DATA LOAD MPKI: 0.804495
L2C INSTRUCTION LOAD MPKI: 0.49812
L2C RFO       ACCESS:     439191  HIT:     401192  MISS:      37999  HIT %:     91.348  MISS %:    8.65204   MPKI: 0.189995
L2C PREFETCH  ACCESS:     926502  HIT:     835207  MISS:      91295  HIT %:    90.1463  MISS %:    9.85373   MPKI: 0.456475
AGUS PREFETCH L1 MISS: 0
L2C DATA PREFETCH MPKI: 0.456475
L2C INSTRUCTION PREFETCH MPKI: 0
L2C WRITEBACK ACCESS:    1102658  HIT:    1090687  MISS:      11971  HIT %:    98.9144  MISS %:    1.08565   MPKI: 0.059855
L2C LOAD TRANSLATION ACCESS:       2715  HIT:       1707  MISS:       1008  HIT %:    62.8729  MISS %:    37.1271   MPKI: 0.00504
L2C PREFETCH  REQUESTED:          0  ISSUED:          0  USEFUL:       8037  USELESS:      83470
L2C USEFUL LOAD PREFETCHES:       8037 PREFETCH ISSUED TO LOWER LEVEL:      91295  ACCURACY: 8.80333
L2C TIMELY PREFETCHES:       8037 LATE PREFETCHES: 0 DROPPED PREFETCHES: 0
L2C PREFETCHES SAME FILL-ORIGIN LEVEL: 0 DIFFERENT FILL-ORIGIN LEVEL: 0
L2C AVERAGE MISS LATENCY: 31.7709 cycles
L2C RQ	ACCESS:   15483310	FORWARD:          0	MERGED:          0	TO_CACHE:   15483306
L2C WQ	ACCESS:    1102658	FORWARD:          4	MERGED:          0	TO_CACHE:    1102658
L2C PQ	ACCESS:     926502	FORWARD:          0	MERGED:          0	TO_CACHE:     926502

L2C Instructions Evicting Data 36245
L2C Translations Evicting Data 907
L2C Data Evicting Data 255914
L2C Instructions Evicting Instructions 63311
L2C Translations Evicting Instructions 100
L2C Data Evicting Instructions 33358
L2C Instructions Evicting Translations 68
L2C Translations Evicting Translations 1
L2C Data Evicting Translations 921
L2C Dense regions hint from L2: 0
PSCL5 TOTAL     ACCESS:       2681  HIT:       2681  MISS:          0  HIT %:        100  MISS %:          0   MPKI: 0
PSCL5 LOAD TRANSLATION ACCESS:       2681  HIT:       2681  MISS:          0  HIT %:        100  MISS %:          0   MPKI: 0
PSCL5 PREFETCH  REQUESTED:          0  ISSUED:          0  USEFUL:          0  USELESS:          0
PSCL5 USEFUL LOAD PREFETCHES:          0 PREFETCH ISSUED TO LOWER LEVEL:          0  ACCURACY: -nan
PSCL5 TIMELY PREFETCHES:          0 LATE PREFETCHES: 0 DROPPED PREFETCHES: 0
PSCL5 PREFETCHES SAME FILL-ORIGIN LEVEL: 0 DIFFERENT FILL-ORIGIN LEVEL: 0

PSCL4 TOTAL     ACCESS:       1603  HIT:       1602  MISS:          1  HIT %:    99.9376  MISS %:   0.062383   MPKI: 5e-06
PSCL4 LOAD TRANSLATION ACCESS:       1603  HIT:       1602  MISS:          1  HIT %:    99.9376  MISS %:   0.062383   MPKI: 5e-06
PSCL4 PREFETCH  REQUESTED:          0  ISSUED:          0  USEFUL:          0  USELESS:          0
PSCL4 USEFUL LOAD PREFETCHES:          0 PREFETCH ISSUED TO LOWER LEVEL:          0  ACCURACY: -nan
PSCL4 TIMELY PREFETCHES:          0 LATE PREFETCHES: 0 DROPPED PREFETCHES: 0
PSCL4 PREFETCHES SAME FILL-ORIGIN LEVEL: 0 DIFFERENT FILL-ORIGIN LEVEL: 0

PSCL3 TOTAL     ACCESS:       2450  HIT:       2449  MISS:          1  HIT %:    99.9592  MISS %:  0.0408163   MPKI: 5e-06
PSCL3 LOAD TRANSLATION ACCESS:       2450  HIT:       2449  MISS:          1  HIT %:    99.9592  MISS %:  0.0408163   MPKI: 5e-06
PSCL3 PREFETCH  REQUESTED:          0  ISSUED:          0  USEFUL:          0  USELESS:          0
PSCL3 USEFUL LOAD PREFETCHES:          0 PREFETCH ISSUED TO LOWER LEVEL:          0  ACCURACY: -nan
PSCL3 TIMELY PREFETCHES:          0 LATE PREFETCHES: 0 DROPPED PREFETCHES: 0
PSCL3 PREFETCHES SAME FILL-ORIGIN LEVEL: 0 DIFFERENT FILL-ORIGIN LEVEL: 0

PSCL2 TOTAL     ACCESS:       2681  HIT:       2649  MISS:         32  HIT %:    98.8064  MISS %:    1.19358   MPKI: 0.00016
PSCL2 LOAD TRANSLATION ACCESS:       2681  HIT:       2649  MISS:         32  HIT %:    98.8064  MISS %:    1.19358   MPKI: 0.00016
PSCL2 PREFETCH  REQUESTED:          0  ISSUED:          0  USEFUL:          0  USELESS:          0
PSCL2 USEFUL LOAD PREFETCHES:          0 PREFETCH ISSUED TO LOWER LEVEL:          0  ACCURACY: -nan
PSCL2 TIMELY PREFETCHES:          0 LATE PREFETCHES: 0 DROPPED PREFETCHES: 0
PSCL2 PREFETCHES SAME FILL-ORIGIN LEVEL: 0 DIFFERENT FILL-ORIGIN LEVEL: 0

LLC TOTAL     ACCESS:     518265  HIT:     509602  MISS:       8663  HIT %:    98.3285  MISS %:    1.67154   MPKI: 0.043315
LLC LOAD      ACCESS:     260516  HIT:     259034  MISS:       1482  HIT %:    99.4311  MISS %:   0.568871   MPKI: 0.00741
LLC RFO       ACCESS:      37999  HIT:      37695  MISS:        304  HIT %:       99.2  MISS %:   0.800021   MPKI: 0.00152
LLC PREFETCH  ACCESS:      91294  HIT:      84561  MISS:       6733  HIT %:    92.6249  MISS %:    7.37507   MPKI: 0.033665
AGUS PREFETCH L1 MISS: 0
LLC WRITEBACK ACCESS:     127448  HIT:     127318  MISS:        130  HIT %:     99.898  MISS %:   0.102002   MPKI: 0.00065
LLC LOAD TRANSLATION ACCESS:       1008  HIT:        994  MISS:         14  HIT %:    98.6111  MISS %:    1.38889   MPKI: 7e-05
LLC PREFETCH  REQUESTED:          0  ISSUED:          0  USEFUL:       3504  USELESS:       1467
LLC USEFUL LOAD PREFETCHES:       3504 PREFETCH ISSUED TO LOWER LEVEL:       6733  ACCURACY: 52.0422
LLC TIMELY PREFETCHES:       3504 LATE PREFETCHES: 0 DROPPED PREFETCHES: 0
LLC PREFETCHES SAME FILL-ORIGIN LEVEL: 0 DIFFERENT FILL-ORIGIN LEVEL: 0
LLC AVERAGE MISS LATENCY: 123.547 cycles
LLC RQ	ACCESS:     299530	FORWARD:          0	MERGED:          0	TO_CACHE:     299523
LLC WQ	ACCESS:     127448	FORWARD:          8	MERGED:          0	TO_CACHE:     127448
LLC PQ	ACCESS:      91295	FORWARD:          0	MERGED:          0	TO_CACHE:      91294

LLC Dense regions hint to LLC: 0

RAW hits: 2697153
Loads Generated: 46027606
Loads sent to L1D: 43330452
Stores Generated: 24968544
Stores sent to L1D: 24968545
Major fault: 0 Minor fault: 1244
Allocated PAGES: 1244

stream: 
stream:times selected: 2857108
stream:pref_filled: 586178
stream:pref_useful: 81176
stream:pref_late: 1359
stream:misses: 44106
stream:misses_by_poll: 0

CS: 
CS:times selected: 38408
CS:pref_filled: 26544
CS:pref_useful: 14263
CS:pref_late: 167
CS:misses: 839
CS:misses_by_poll: 139

CPLX: 
CPLX:times selected: 2803866
CPLX:pref_filled: 536635
CPLX:pref_useful: 52294
CPLX:pref_late: 833
CPLX:misses: 220632
CPLX:misses_by_poll: 38

NL_L1: 
NL:times selected: 4294
NL:pref_filled: 916
NL:pref_useful: 87
NL:pref_late: 34
NL:misses: 1129
NL:misses_by_poll: 0

total selections: 5703676
total_filled: 925104
total_useful: 116827
total_late: 2589
total_polluted: 177
total_misses_after_warmup: 2494663
conflicts: 11618054
Degree Incremented Times: 1070
Degree Decremented Times: 533905

L1 IP Table Write Accesses: 17827892
L1 IP Table Read Accesses: 6209838
L1 RST Write Accesses: 2279959
L1 RST Read Accesses: 4559918
L1 CSPT Write Accesses: 2279959
L1 CSPT Read Accesses: 4515213
L1 RR Filter Tag Write Accesses: 2045563
L1 RR Filter Tag Read Accesses: 96744565
L1 IP Table Tag Write Accesses: 30248308
L1 IP Table Tag Read Accesses: 30248308
L1 RST Tag Write Accesses: 0
L1 RST Tag Read Accesses: 24383074
L1 RR Filter Write Accesses: 0
L1 RR Filter Read Accesses: 3406499
test: 1314461

DRAM Statistics
 CHANNEL 0
 RQ ROW_BUFFER_HIT:       4181  ROW_BUFFER_MISS:       4352
 DBUS_CONGESTED:         12
 WQ ROW_BUFFER_HIT:        219  ROW_BUFFER_MISS:       1808  FULL:          0

 AVG_CONGESTED_CYCLE: 5
 All warmup complete: 2
Channel 0 Bank busy for read cycles: 0
Channel 0 Bank busy for write cycles: 0
Channel 0
Rank 0
0banks busy for read cycles: 521520312
0banks busy for write cycles: 1152
1banks busy for read cycles: 434499
1banks busy for write cycles: 162306
2banks busy for read cycles: 74641
2banks busy for write cycles: 27222
3banks busy for read cycles: 33103
3banks busy for write cycles: 11518
4banks busy for read cycles: 26094
4banks busy for write cycles: 6930
5banks busy for read cycles: 9717
5banks busy for write cycles: 3324
6banks busy for read cycles: 2580
6banks busy for write cycles: 2131
7banks busy for read cycles: 832
7banks busy for write cycles: 2400
8banks busy for read cycles: 577
8banks busy for write cycles: 2947

CPU 0 Branch Prediction Accuracy: 99.958% MPKI: 0.07838 Average ROB Occupancy at Mispredict: 17.0378
Branch types
NOT_BRANCH: 162686426 81.3432%
BRANCH_DIRECT_JUMP: 2936764 1.46838%
BRANCH_INDIRECT: 13065636 6.53282%
BRANCH_CONDITIONAL: 11676504 5.83825%
BRANCH_DIRECT_CALL: 4007660 2.00383%
BRANCH_INDIRECT_CALL: 809679 0.40484%
BRANCH_RETURN: 4817315 2.40866%
BRANCH_OTHER: 0 0%

DRAM PAGES: 1048576
Allocated PAGES: 1244
