
*** ChampSim Multicore Out-of-Order Simulator ***

Warmup Instructions: 50000000
Simulation Instructions: 200000000
Number of CPUs: 1
LLC sets: 2048
LLC ways: 16
Off-chip DRAM Size: 4096 MB Channels: 1 Width: 64-bit Data Rate: 6400 MT/s
CPU 0 runs traces/spec2k17/server_032.champsimtrace.xz
.xz
BTB has LRU replacement policy
ITLB has LRU replacement policy
DTLB has LRU replacement policy
STLB has LRU replacement policy
L1I has LRU replacement policy
IP Table Entries: 1024
CSPT Entries: 128
RR_ENTRIES: 32
RST_ENTRIES: 8
L1D has LRU replacement policy
Initialize SRRIP state for L2C
Initialize DRRIP state for LLC
Heartbeat CPU 0 instructions: 10000000 cycles: 2835910 heartbeat IPC: 3.52621 cumulative IPC: 3.52621 (Simulation time: 0 hr 0 min 46 sec) 
Heartbeat CPU 0 instructions: 20000000 cycles: 5667751 heartbeat IPC: 3.53127 cumulative IPC: 3.52874 (Simulation time: 0 hr 1 min 35 sec) 
Heartbeat CPU 0 instructions: 30000000 cycles: 8500166 heartbeat IPC: 3.53056 cumulative IPC: 3.52934 (Simulation time: 0 hr 2 min 25 sec) 
Heartbeat CPU 0 instructions: 40000001 cycles: 11333384 heartbeat IPC: 3.52956 cumulative IPC: 3.5294 (Simulation time: 0 hr 3 min 11 sec) 
Heartbeat CPU 0 instructions: 50000000 cycles: 14165945 heartbeat IPC: 3.53037 cumulative IPC: 3.52959 (Simulation time: 0 hr 3 min 58 sec) 

Warmup complete CPU 0 instructions: 50000004 cycles: 14165946 (Simulation time: 0 hr 3 min 58 sec) 

Heartbeat CPU 0 instructions: 60000001 cycles: 47673988 heartbeat IPC: 0.298436 cumulative IPC: 0.298436 (Simulation time: 0 hr 4 min 49 sec) 
Heartbeat CPU 0 instructions: 70000000 cycles: 81155270 heartbeat IPC: 0.298674 cumulative IPC: 0.298555 (Simulation time: 0 hr 5 min 50 sec) 
Heartbeat CPU 0 instructions: 80000003 cycles: 114628400 heartbeat IPC: 0.298747 cumulative IPC: 0.298619 (Simulation time: 0 hr 6 min 47 sec) 
*** Reached end of trace for Core: 0 Repeating trace: traces/spec2k17/server_032.champsimtrace.xz
Heartbeat CPU 0 instructions: 90000001 cycles: 147897168 heartbeat IPC: 0.300582 cumulative IPC: 0.299107 (Simulation time: 0 hr 7 min 42 sec) 
Heartbeat CPU 0 instructions: 100000000 cycles: 181136402 heartbeat IPC: 0.300849 cumulative IPC: 0.299454 (Simulation time: 0 hr 8 min 40 sec) 
Heartbeat CPU 0 instructions: 110000000 cycles: 214397346 heartbeat IPC: 0.300653 cumulative IPC: 0.299653 (Simulation time: 0 hr 9 min 38 sec) 
Heartbeat CPU 0 instructions: 120000000 cycles: 247653230 heartbeat IPC: 0.300699 cumulative IPC: 0.299802 (Simulation time: 0 hr 10 min 35 sec) 
Heartbeat CPU 0 instructions: 130000000 cycles: 280920718 heartbeat IPC: 0.300594 cumulative IPC: 0.299901 (Simulation time: 0 hr 11 min 33 sec) 
Heartbeat CPU 0 instructions: 140000002 cycles: 314179819 heartbeat IPC: 0.30067 cumulative IPC: 0.299986 (Simulation time: 0 hr 12 min 30 sec) 
Heartbeat CPU 0 instructions: 150000000 cycles: 347434727 heartbeat IPC: 0.300707 cumulative IPC: 0.300058 (Simulation time: 0 hr 13 min 24 sec) 
Heartbeat CPU 0 instructions: 160000000 cycles: 380701343 heartbeat IPC: 0.300602 cumulative IPC: 0.300107 (Simulation time: 0 hr 14 min 25 sec) 
*** Reached end of trace for Core: 0 Repeating trace: traces/spec2k17/server_032.champsimtrace.xz
Heartbeat CPU 0 instructions: 170000003 cycles: 413915867 heartbeat IPC: 0.301073 cumulative IPC: 0.300188 (Simulation time: 0 hr 15 min 18 sec) 
Heartbeat CPU 0 instructions: 180000002 cycles: 447150328 heartbeat IPC: 0.300892 cumulative IPC: 0.300242 (Simulation time: 0 hr 16 min 13 sec) 
Heartbeat CPU 0 instructions: 190000002 cycles: 480395665 heartbeat IPC: 0.300794 cumulative IPC: 0.300281 (Simulation time: 0 hr 17 min 15 sec) 
Heartbeat CPU 0 instructions: 200000001 cycles: 513627303 heartbeat IPC: 0.300918 cumulative IPC: 0.300324 (Simulation time: 0 hr 18 min 11 sec) 
Heartbeat CPU 0 instructions: 210000001 cycles: 546858655 heartbeat IPC: 0.300921 cumulative IPC: 0.300361 (Simulation time: 0 hr 18 min 59 sec) 
Heartbeat CPU 0 instructions: 220000000 cycles: 580099701 heartbeat IPC: 0.300833 cumulative IPC: 0.300389 (Simulation time: 0 hr 19 min 59 sec) 
Heartbeat CPU 0 instructions: 230000002 cycles: 613314348 heartbeat IPC: 0.301072 cumulative IPC: 0.300426 (Simulation time: 0 hr 20 min 55 sec) 
Heartbeat CPU 0 instructions: 240000000 cycles: 646525903 heartbeat IPC: 0.3011 cumulative IPC: 0.300462 (Simulation time: 0 hr 21 min 48 sec) 
*** Reached end of trace for Core: 0 Repeating trace: traces/spec2k17/server_032.champsimtrace.xz
Heartbeat CPU 0 instructions: 250000002 cycles: 679709080 heartbeat IPC: 0.301358 cumulative IPC: 0.300506 (Simulation time: 0 hr 22 min 49 sec) 
Finished CPU 0 instructions: 200000001 cycles: 665543135 cumulative IPC: 0.300506 (Simulation time: 0 hr 22 min 49 sec) 

ChampSim completed all CPUs

Region of Interest Statistics

CPU 0 cumulative IPC: 0.300506 instructions: 200000001 cycles: 665543135
ITLB TOTAL     ACCESS:   35337008  HIT:   32922809  MISS:    2414199  HIT %:    93.1681  MISS %:    6.83193   MPKI: 12.071
ITLB LOAD TRANSLATION ACCESS:   35337008  HIT:   32922809  MISS:    2414199  HIT %:    93.1681  MISS %:    6.83193   MPKI: 12.071
ITLB PREFETCH  REQUESTED:          0  ISSUED:          0  USEFUL:          0  USELESS:          0
ITLB USEFUL LOAD PREFETCHES:          0 PREFETCH ISSUED TO LOWER LEVEL:          0  ACCURACY: -nan
ITLB TIMELY PREFETCHES:          0 LATE PREFETCHES: 0 DROPPED PREFETCHES: 0
ITLB PREFETCHES SAME FILL-ORIGIN LEVEL: 0 DIFFERENT FILL-ORIGIN LEVEL: 0
ITLB AVERAGE MISS LATENCY: 9.00356 cycles
ITLB RQ	ACCESS:   41884687	FORWARD:          0	MERGED:    5992701	TO_CACHE:   35891986

DTLB TOTAL     ACCESS:   47259298  HIT:   45298345  MISS:    1960953  HIT %:    95.8507  MISS %:    4.14935   MPKI: 9.80476
DTLB LOAD TRANSLATION ACCESS:   47259298  HIT:   45298345  MISS:    1960953  HIT %:    95.8507  MISS %:    4.14935   MPKI: 9.80476
DTLB PREFETCH  REQUESTED:          0  ISSUED:          0  USEFUL:          0  USELESS:          0
DTLB USEFUL LOAD PREFETCHES:          0 PREFETCH ISSUED TO LOWER LEVEL:          0  ACCURACY: -nan
DTLB TIMELY PREFETCHES:          0 LATE PREFETCHES: 0 DROPPED PREFETCHES: 0
DTLB PREFETCHES SAME FILL-ORIGIN LEVEL: 0 DIFFERENT FILL-ORIGIN LEVEL: 0
DTLB AVERAGE MISS LATENCY: 9.02727 cycles
DTLB RQ	ACCESS:   62459651	FORWARD:          0	MERGED:   15149521	TO_CACHE:   47310130

STLB TOTAL     ACCESS:    5962640  HIT:    5961460  MISS:       1180  HIT %:    99.9802  MISS %:  0.0197899   MPKI: 0.0059
STLB LOAD TRANSLATION ACCESS:    4375152  HIT:    4373972  MISS:       1180  HIT %:     99.973  MISS %:  0.0269705   MPKI: 0.0059
STLB TRANSLATION FROM L1D PREFETCHER ACCESS:    1587488  HIT:    1587488  MISS:          0  HIT %:        100  MISS %:          0   MPKI: 0
STLB PREFETCH  REQUESTED:          0  ISSUED:          0  USEFUL:          0  USELESS:          0
STLB USEFUL LOAD PREFETCHES:          0 PREFETCH ISSUED TO LOWER LEVEL:          0  ACCURACY: -nan
STLB TIMELY PREFETCHES:          0 LATE PREFETCHES: 0 DROPPED PREFETCHES: 0
STLB PREFETCHES SAME FILL-ORIGIN LEVEL: 0 DIFFERENT FILL-ORIGIN LEVEL: 0
STLB AVERAGE MISS LATENCY: 26.972 cycles
STLB RQ	ACCESS:    6328791	FORWARD:          0	MERGED:     366151	TO_CACHE:    5962640

STLB Hit, L1D data hit: 0
STLB Hit, L2C data hit: 0
STLB Hit, LLC data hit: 0
STLB Hit, LLC data miss: 0
STLB STLB hints to L2: 0
L1D TOTAL     ACCESS:   62526755  HIT:   57460293  MISS:    5066462  HIT %:    91.8971  MISS %:    8.10287   MPKI: 25.3323
L1D LOAD      ACCESS:   34531871  HIT:   31316724  MISS:    3215147  HIT %:    90.6893  MISS %:    9.31067   MPKI: 16.0757
L1D RFO       ACCESS:   26143735  HIT:   24970319  MISS:    1173416  HIT %:    95.5117  MISS %:    4.48833   MPKI: 5.86708
L1D PREFETCH  ACCESS:    1851149  HIT:    1173250  MISS:     677899  HIT %:    63.3796  MISS %:    36.6204   MPKI: 3.38949
AGUS PREFETCH L1 MISS: 0
L1D PREFETCH  REQUESTED:    3910556  ISSUED:    3910556  USEFUL:     130285  USELESS:     547613
L1D USEFUL LOAD PREFETCHES:     130285 PREFETCH ISSUED TO LOWER LEVEL:     725952  ACCURACY: 17.9468
L1D TIMELY PREFETCHES:     130285 LATE PREFETCHES: 45902 DROPPED PREFETCHES: 0
L1D PREFETCHES SAME FILL-ORIGIN LEVEL: 725952 DIFFERENT FILL-ORIGIN LEVEL: 0
L1D AVERAGE MISS LATENCY: 3.37499e+06 cycles
L1D RQ	ACCESS:   47100071	FORWARD:          0	MERGED:   12103128	TO_CACHE:   34652497
L1D WQ	ACCESS:   27955667	FORWARD:     347724	MERGED:     148513	TO_CACHE:   27807154
L1D PQ	ACCESS:    1956917	FORWARD:          0	MERGED:          0	TO_CACHE:    1953639

L1D UNIQUE REGIONS ACCESSED: 0
L1D REGIONS CONFLICTS: 0
L1D Cross Page Prefetch Requests: 0
L1D Same Page Prefetch Requests: 2404891
L1D ROI Sum of L1D PQ occupancy: 25166513
L1D PREFETCHES PUSHED FROM L2C: 0
L1I TOTAL     ACCESS:   40135696  HIT:   28014594  MISS:   12121102  HIT %:    69.7997  MISS %:    30.2003   MPKI: 60.6055
L1I LOAD      ACCESS:   40135696  HIT:   28014594  MISS:   12121102  HIT %:    69.7997  MISS %:    30.2003   MPKI: 60.6055
L1I PREFETCH  REQUESTED:          0  ISSUED:          0  USEFUL:          0  USELESS:          0
L1I USEFUL LOAD PREFETCHES:          0 PREFETCH ISSUED TO LOWER LEVEL:          0  ACCURACY: -nan
L1I TIMELY PREFETCHES:          0 LATE PREFETCHES: 0 DROPPED PREFETCHES: 0
L1I PREFETCHES SAME FILL-ORIGIN LEVEL: 0 DIFFERENT FILL-ORIGIN LEVEL: 0
L1I AVERAGE MISS LATENCY: 15.1507 cycles
L1I RQ	ACCESS:   58853634	FORWARD:          0	MERGED:   16968947	TO_CACHE:   41884687

BTB TOTAL     ACCESS:   30249221  HIT:   16785844  MISS:   13463377  HIT %:    55.4918  MISS %:    44.5082   MPKI: 67.3169
BTB BRANCH_DIRECT_JUMP	ACCESS:    1947252  HIT:    1081143  MISS:     866109
BTB BRANCH_INDIRECT	ACCESS:   12726639  HIT:    7595465  MISS:    5131174
BTB BRANCH_CONDITIONAL	ACCESS:    5680027  HIT:    4304442  MISS:    1375585
BTB BRANCH_DIRECT_CALL	ACCESS:    4158631  HIT:    1955106  MISS:    2203525
BTB BRANCH_INDIRECT_CALL	ACCESS:     789030  HIT:     387653  MISS:     401377
BTB BRANCH_RETURN	ACCESS:    4947642  HIT:    1462035  MISS:    3485607
BTB BRANCH_OTHER ACCESS:          0  HIT:          0  MISS:          0

L2C TOTAL     ACCESS:   19519282  HIT:   18789991  MISS:     729291  HIT %:    96.2637  MISS %:    3.73626   MPKI: 3.64645
L2C LOAD      ACCESS:   15290343  HIT:   14690771  MISS:     599572  HIT %:    96.0788  MISS %:    3.92125   MPKI: 2.99786
L2C DATA LOAD MPKI: 0.82339
L2C INSTRUCTION LOAD MPKI: 2.17447
L2C RFO       ACCESS:    1171263  HIT:    1159822  MISS:      11441  HIT %:    99.0232  MISS %:   0.976809   MPKI: 0.057205
L2C PREFETCH  ACCESS:     725894  HIT:     620454  MISS:     105440  HIT %:    85.4745  MISS %:    14.5255   MPKI: 0.5272
AGUS PREFETCH L1 MISS: 0
L2C DATA PREFETCH MPKI: 0.5272
L2C INSTRUCTION PREFETCH MPKI: 0
L2C WRITEBACK ACCESS:    2330597  HIT:    2318052  MISS:      12545  HIT %:    99.4617  MISS %:   0.538274   MPKI: 0.062725
L2C LOAD TRANSLATION ACCESS:       1185  HIT:        892  MISS:        293  HIT %:    75.2743  MISS %:    24.7257   MPKI: 0.001465
L2C PREFETCH  REQUESTED:          0  ISSUED:          0  USEFUL:       2481  USELESS:     103219
L2C USEFUL LOAD PREFETCHES:       2481 PREFETCH ISSUED TO LOWER LEVEL:     105440  ACCURACY: 2.353
L2C TIMELY PREFETCHES:       2481 LATE PREFETCHES: 0 DROPPED PREFETCHES: 0
L2C PREFETCHES SAME FILL-ORIGIN LEVEL: 0 DIFFERENT FILL-ORIGIN LEVEL: 0
L2C AVERAGE MISS LATENCY: 30.3896 cycles
L2C RQ	ACCESS:   16462796	FORWARD:          0	MERGED:          0	TO_CACHE:   16462790
L2C WQ	ACCESS:    2330597	FORWARD:         64	MERGED:          0	TO_CACHE:    2330597
L2C PQ	ACCESS:     725952	FORWARD:          0	MERGED:          0	TO_CACHE:     725894

L2C Instructions Evicting Data 120384
L2C Translations Evicting Data 286
L2C Data Evicting Data 168930
L2C Instructions Evicting Instructions 314489
L2C Translations Evicting Instructions 7
L2C Data Evicting Instructions 112351
L2C Instructions Evicting Translations 21
L2C Translations Evicting Translations 0
L2C Data Evicting Translations 278
L2C Dense regions hint from L2: 0
PSCL5 TOTAL     ACCESS:       1180  HIT:       1180  MISS:          0  HIT %:        100  MISS %:          0   MPKI: 0
PSCL5 LOAD TRANSLATION ACCESS:       1180  HIT:       1180  MISS:          0  HIT %:        100  MISS %:          0   MPKI: 0
PSCL5 PREFETCH  REQUESTED:          0  ISSUED:          0  USEFUL:          0  USELESS:          0
PSCL5 USEFUL LOAD PREFETCHES:          0 PREFETCH ISSUED TO LOWER LEVEL:          0  ACCURACY: -nan
PSCL5 TIMELY PREFETCHES:          0 LATE PREFETCHES: 0 DROPPED PREFETCHES: 0
PSCL5 PREFETCHES SAME FILL-ORIGIN LEVEL: 0 DIFFERENT FILL-ORIGIN LEVEL: 0

PSCL4 TOTAL     ACCESS:       1180  HIT:       1180  MISS:          0  HIT %:        100  MISS %:          0   MPKI: 0
PSCL4 LOAD TRANSLATION ACCESS:       1180  HIT:       1180  MISS:          0  HIT %:        100  MISS %:          0   MPKI: 0
PSCL4 PREFETCH  REQUESTED:          0  ISSUED:          0  USEFUL:          0  USELESS:          0
PSCL4 USEFUL LOAD PREFETCHES:          0 PREFETCH ISSUED TO LOWER LEVEL:          0  ACCURACY: -nan
PSCL4 TIMELY PREFETCHES:          0 LATE PREFETCHES: 0 DROPPED PREFETCHES: 0
PSCL4 PREFETCHES SAME FILL-ORIGIN LEVEL: 0 DIFFERENT FILL-ORIGIN LEVEL: 0

PSCL3 TOTAL     ACCESS:       1180  HIT:       1180  MISS:          0  HIT %:        100  MISS %:          0   MPKI: 0
PSCL3 LOAD TRANSLATION ACCESS:       1180  HIT:       1180  MISS:          0  HIT %:        100  MISS %:          0   MPKI: 0
PSCL3 PREFETCH  REQUESTED:          0  ISSUED:          0  USEFUL:          0  USELESS:          0
PSCL3 USEFUL LOAD PREFETCHES:          0 PREFETCH ISSUED TO LOWER LEVEL:          0  ACCURACY: -nan
PSCL3 TIMELY PREFETCHES:          0 LATE PREFETCHES: 0 DROPPED PREFETCHES: 0
PSCL3 PREFETCHES SAME FILL-ORIGIN LEVEL: 0 DIFFERENT FILL-ORIGIN LEVEL: 0

PSCL2 TOTAL     ACCESS:       1180  HIT:       1175  MISS:          5  HIT %:    99.5763  MISS %:   0.423729   MPKI: 2.5e-05
PSCL2 LOAD TRANSLATION ACCESS:       1180  HIT:       1175  MISS:          5  HIT %:    99.5763  MISS %:   0.423729   MPKI: 2.5e-05
PSCL2 PREFETCH  REQUESTED:          0  ISSUED:          0  USEFUL:          0  USELESS:          0
PSCL2 USEFUL LOAD PREFETCHES:          0 PREFETCH ISSUED TO LOWER LEVEL:          0  ACCURACY: -nan
PSCL2 TIMELY PREFETCHES:          0 LATE PREFETCHES: 0 DROPPED PREFETCHES: 0
PSCL2 PREFETCHES SAME FILL-ORIGIN LEVEL: 0 DIFFERENT FILL-ORIGIN LEVEL: 0

LLC TOTAL     ACCESS:     740348  HIT:     735763  MISS:       4585  HIT %:    99.3807  MISS %:   0.619303   MPKI: 0.022925
LLC LOAD      ACCESS:     599572  HIT:     598175  MISS:       1397  HIT %:     99.767  MISS %:      0.233   MPKI: 0.006985
LLC RFO       ACCESS:      11441  HIT:      11435  MISS:          6  HIT %:    99.9476  MISS %:   0.052443   MPKI: 3e-05
LLC PREFETCH  ACCESS:     105440  HIT:     102269  MISS:       3171  HIT %:    96.9926  MISS %:     3.0074   MPKI: 0.015855
AGUS PREFETCH L1 MISS: 0
LLC WRITEBACK ACCESS:      23602  HIT:      23591  MISS:         11  HIT %:    99.9534  MISS %:  0.0466062   MPKI: 5.5e-05
LLC LOAD TRANSLATION ACCESS:        293  HIT:        293  MISS:          0  HIT %:        100  MISS %:          0   MPKI: 0
LLC PREFETCH  REQUESTED:          0  ISSUED:          0  USEFUL:       3611  USELESS:        658
LLC USEFUL LOAD PREFETCHES:       3611 PREFETCH ISSUED TO LOWER LEVEL:       3171  ACCURACY: 113.876
LLC TIMELY PREFETCHES:       3611 LATE PREFETCHES: 0 DROPPED PREFETCHES: 0
LLC PREFETCHES SAME FILL-ORIGIN LEVEL: 0 DIFFERENT FILL-ORIGIN LEVEL: 0
LLC AVERAGE MISS LATENCY: 144.025 cycles
LLC RQ	ACCESS:     611305	FORWARD:          0	MERGED:          0	TO_CACHE:     611305
LLC WQ	ACCESS:      23602	FORWARD:          0	MERGED:          0	TO_CACHE:      23602
LLC PQ	ACCESS:     105440	FORWARD:          0	MERGED:          0	TO_CACHE:     105440

LLC Dense regions hint to LLC: 0

RAW hits: 1551088
Loads Generated: 48651160
Loads sent to L1D: 47100071
Stores Generated: 27955659
Stores sent to L1D: 27955667
Major fault: 0 Minor fault: 1263
Allocated PAGES: 1263

stream: 
stream:times selected: 3638210
stream:pref_filled: 641960
stream:pref_useful: 129994
stream:pref_late: 24907
stream:misses: 34032
stream:misses_by_poll: 0

CS: 
CS:times selected: 224887
CS:pref_filled: 45039
CS:pref_useful: 18407
CS:pref_late: 9704
CS:misses: 25057
CS:misses_by_poll: 3

CPLX: 
CPLX:times selected: 3506639
CPLX:pref_filled: 165157
CPLX:pref_useful: 24470
CPLX:pref_late: 4423
CPLX:misses: 363704
CPLX:misses_by_poll: 7

NL_L1: 
NL:times selected: 34456
NL:pref_filled: 12765
NL:pref_useful: 1075
NL:pref_late: 21
NL:misses: 4850
NL:misses_by_poll: 0

total selections: 7404192
total_filled: 677899
total_useful: 130285
total_late: 50258
total_polluted: 10
total_misses_after_warmup: 3335774
conflicts: 12829944
Degree Incremented Times: 0
Degree Decremented Times: 502631

L1 IP Table Write Accesses: 20674413
L1 IP Table Read Accesses: 7844469
L1 RST Write Accesses: 2970487
L1 RST Read Accesses: 5940974
L1 CSPT Write Accesses: 2970487
L1 CSPT Read Accesses: 5846814
L1 RR Filter Tag Write Accesses: 1956917
L1 RR Filter Tag Read Accesses: 118518815
L1 IP Table Tag Write Accesses: 34652498
L1 IP Table Tag Read Accesses: 34652498
L1 RST Tag Write Accesses: 0
L1 RST Tag Read Accesses: 25445826
L1 RR Filter Write Accesses: 0
L1 RR Filter Read Accesses: 4295858
test: 785425

DRAM Statistics
 CHANNEL 0
 RQ ROW_BUFFER_HIT:       1425  ROW_BUFFER_MISS:       3149
 DBUS_CONGESTED:          0
 WQ ROW_BUFFER_HIT:          0  ROW_BUFFER_MISS:         21  FULL:          0

 AVG_CONGESTED_CYCLE: -
 All warmup complete: 2
Channel 0 Bank busy for read cycles: 0
Channel 0 Bank busy for write cycles: 0
Channel 0
Rank 0
0banks busy for read cycles: 665235686
0banks busy for write cycles: 18
1banks busy for read cycles: 224022
1banks busy for write cycles: 2571
2banks busy for read cycles: 34225
2banks busy for write cycles: 151
3banks busy for read cycles: 10605
3banks busy for write cycles: 148
4banks busy for read cycles: 7363
4banks busy for write cycles: 0
5banks busy for read cycles: 6214
5banks busy for write cycles: 0
6banks busy for read cycles: 5946
6banks busy for write cycles: 0
7banks busy for read cycles: 6368
7banks busy for write cycles: 0
8banks busy for read cycles: 9819
8banks busy for write cycles: 0

CPU 0 Branch Prediction Accuracy: 99.8972% MPKI: 0.18238 Average ROB Occupancy at Mispredict: 31.2428
Branch types
NOT_BRANCH: 164500476 82.2502%
BRANCH_DIRECT_JUMP: 1947252 0.973626%
BRANCH_INDIRECT: 12726639 6.36332%
BRANCH_CONDITIONAL: 10930226 5.46511%
BRANCH_DIRECT_CALL: 4158631 2.07932%
BRANCH_INDIRECT_CALL: 789030 0.394515%
BRANCH_RETURN: 4947642 2.47382%
BRANCH_OTHER: 0 0%

DRAM PAGES: 1048576
Allocated PAGES: 1263
