
*** ChampSim Multicore Out-of-Order Simulator ***

Warmup Instructions: 50000000
Simulation Instructions: 200000000
Number of CPUs: 1
LLC sets: 2048
LLC ways: 16
Off-chip DRAM Size: 4096 MB Channels: 1 Width: 64-bit Data Rate: 6400 MT/s
CPU 0 runs traces/spec2k17/server_035.champsimtrace.xz
.xz
BTB has LRU replacement policy
ITLB has LRU replacement policy
DTLB has LRU replacement policy
STLB has LRU replacement policy
L1I has LRU replacement policy
IP Table Entries: 1024
CSPT Entries: 128
RR_ENTRIES: 32
RST_ENTRIES: 8
L1D has LRU replacement policy
Initialize SRRIP state for L2C
Initialize DRRIP state for LLC
Heartbeat CPU 0 instructions: 10000003 cycles: 2818228 heartbeat IPC: 3.54833 cumulative IPC: 3.54833 (Simulation time: 0 hr 0 min 44 sec) 
Heartbeat CPU 0 instructions: 20000000 cycles: 5635267 heartbeat IPC: 3.54983 cumulative IPC: 3.54908 (Simulation time: 0 hr 1 min 27 sec) 
Heartbeat CPU 0 instructions: 30000002 cycles: 8449977 heartbeat IPC: 3.55276 cumulative IPC: 3.55031 (Simulation time: 0 hr 2 min 8 sec) 
Heartbeat CPU 0 instructions: 40000003 cycles: 11268820 heartbeat IPC: 3.54756 cumulative IPC: 3.54962 (Simulation time: 0 hr 2 min 48 sec) 
Heartbeat CPU 0 instructions: 50000000 cycles: 14084359 heartbeat IPC: 3.55172 cumulative IPC: 3.55004 (Simulation time: 0 hr 3 min 29 sec) 

Warmup complete CPU 0 instructions: 50000004 cycles: 14084360 (Simulation time: 0 hr 3 min 29 sec) 

Heartbeat CPU 0 instructions: 60000000 cycles: 42670344 heartbeat IPC: 0.349822 cumulative IPC: 0.349822 (Simulation time: 0 hr 4 min 18 sec) 
Heartbeat CPU 0 instructions: 70000001 cycles: 71503900 heartbeat IPC: 0.346818 cumulative IPC: 0.348313 (Simulation time: 0 hr 5 min 11 sec) 
Heartbeat CPU 0 instructions: 80000000 cycles: 99965196 heartbeat IPC: 0.351354 cumulative IPC: 0.349321 (Simulation time: 0 hr 6 min 7 sec) 
Heartbeat CPU 0 instructions: 90000000 cycles: 129096256 heartbeat IPC: 0.343276 cumulative IPC: 0.34779 (Simulation time: 0 hr 7 min 5 sec) 
Heartbeat CPU 0 instructions: 100000000 cycles: 157541997 heartbeat IPC: 0.351546 cumulative IPC: 0.348535 (Simulation time: 0 hr 7 min 58 sec) 
*** Reached end of trace for Core: 0 Repeating trace: traces/spec2k17/server_035.champsimtrace.xz
Heartbeat CPU 0 instructions: 110000000 cycles: 186030121 heartbeat IPC: 0.351023 cumulative IPC: 0.348947 (Simulation time: 0 hr 8 min 54 sec) 
Heartbeat CPU 0 instructions: 120000002 cycles: 214378854 heartbeat IPC: 0.35275 cumulative IPC: 0.349485 (Simulation time: 0 hr 9 min 51 sec) 
Heartbeat CPU 0 instructions: 130000001 cycles: 243299094 heartbeat IPC: 0.345779 cumulative IPC: 0.349018 (Simulation time: 0 hr 10 min 43 sec) 
Heartbeat CPU 0 instructions: 140000000 cycles: 272474670 heartbeat IPC: 0.342752 cumulative IPC: 0.34831 (Simulation time: 0 hr 11 min 40 sec) 
Heartbeat CPU 0 instructions: 150000001 cycles: 300792357 heartbeat IPC: 0.353136 cumulative IPC: 0.348787 (Simulation time: 0 hr 12 min 37 sec) 
Heartbeat CPU 0 instructions: 160000000 cycles: 329767477 heartbeat IPC: 0.345124 cumulative IPC: 0.348451 (Simulation time: 0 hr 13 min 30 sec) 
Heartbeat CPU 0 instructions: 170000000 cycles: 358238505 heartbeat IPC: 0.351234 cumulative IPC: 0.348681 (Simulation time: 0 hr 14 min 25 sec) 
Heartbeat CPU 0 instructions: 180000000 cycles: 386563643 heartbeat IPC: 0.353043 cumulative IPC: 0.349013 (Simulation time: 0 hr 15 min 23 sec) 
Heartbeat CPU 0 instructions: 190000000 cycles: 415587824 heartbeat IPC: 0.34454 cumulative IPC: 0.348689 (Simulation time: 0 hr 16 min 15 sec) 
Heartbeat CPU 0 instructions: 200000000 cycles: 444125035 heartbeat IPC: 0.35042 cumulative IPC: 0.348804 (Simulation time: 0 hr 17 min 10 sec) 
*** Reached end of trace for Core: 0 Repeating trace: traces/spec2k17/server_035.champsimtrace.xz
Heartbeat CPU 0 instructions: 210000000 cycles: 473139184 heartbeat IPC: 0.344659 cumulative IPC: 0.348542 (Simulation time: 0 hr 18 min 10 sec) 
Heartbeat CPU 0 instructions: 220000000 cycles: 500991904 heartbeat IPC: 0.359031 cumulative IPC: 0.349142 (Simulation time: 0 hr 19 min 6 sec) 
Heartbeat CPU 0 instructions: 230000000 cycles: 529989821 heartbeat IPC: 0.344852 cumulative IPC: 0.348901 (Simulation time: 0 hr 19 min 59 sec) 
Heartbeat CPU 0 instructions: 240000002 cycles: 558349750 heartbeat IPC: 0.35261 cumulative IPC: 0.349094 (Simulation time: 0 hr 20 min 53 sec) 
Heartbeat CPU 0 instructions: 250000000 cycles: 587228906 heartbeat IPC: 0.34627 cumulative IPC: 0.348952 (Simulation time: 0 hr 21 min 50 sec) 
Finished CPU 0 instructions: 200000002 cycles: 573144596 cumulative IPC: 0.348952 (Simulation time: 0 hr 21 min 50 sec) 

ChampSim completed all CPUs

Region of Interest Statistics

CPU 0 cumulative IPC: 0.348952 instructions: 200000002 cycles: 573144596
ITLB TOTAL     ACCESS:   35618079  HIT:   33573817  MISS:    2044262  HIT %:    94.2606  MISS %:    5.73939   MPKI: 10.2213
ITLB LOAD TRANSLATION ACCESS:   35618079  HIT:   33573817  MISS:    2044262  HIT %:    94.2606  MISS %:    5.73939   MPKI: 10.2213
ITLB PREFETCH  REQUESTED:          0  ISSUED:          0  USEFUL:          0  USELESS:          0
ITLB USEFUL LOAD PREFETCHES:          0 PREFETCH ISSUED TO LOWER LEVEL:          0  ACCURACY: -nan
ITLB TIMELY PREFETCHES:          0 LATE PREFETCHES: 0 DROPPED PREFETCHES: 0
ITLB PREFETCHES SAME FILL-ORIGIN LEVEL: 0 DIFFERENT FILL-ORIGIN LEVEL: 0
ITLB AVERAGE MISS LATENCY: 9.09678 cycles
ITLB RQ	ACCESS:   41310686	FORWARD:          0	MERGED:    5235382	TO_CACHE:   36075304

DTLB TOTAL     ACCESS:   39236964  HIT:   37514338  MISS:    1722626  HIT %:    95.6097  MISS %:    4.39031   MPKI: 8.61313
DTLB LOAD TRANSLATION ACCESS:   39236964  HIT:   37514338  MISS:    1722626  HIT %:    95.6097  MISS %:    4.39031   MPKI: 8.61313
DTLB PREFETCH  REQUESTED:          0  ISSUED:          0  USEFUL:          0  USELESS:          0
DTLB USEFUL LOAD PREFETCHES:          0 PREFETCH ISSUED TO LOWER LEVEL:          0  ACCURACY: -nan
DTLB TIMELY PREFETCHES:          0 LATE PREFETCHES: 0 DROPPED PREFETCHES: 0
DTLB PREFETCHES SAME FILL-ORIGIN LEVEL: 0 DIFFERENT FILL-ORIGIN LEVEL: 0
DTLB AVERAGE MISS LATENCY: 10.141 cycles
DTLB RQ	ACCESS:   54882769	FORWARD:          0	MERGED:   15576609	TO_CACHE:   39306160

STLB TOTAL     ACCESS:    5118542  HIT:    5084542  MISS:      34000  HIT %:    99.3357  MISS %:   0.664252   MPKI: 0.17
STLB LOAD TRANSLATION ACCESS:    3766888  HIT:    3732888  MISS:      34000  HIT %:    99.0974  MISS %:   0.902602   MPKI: 0.17
STLB TRANSLATION FROM L1D PREFETCHER ACCESS:    1351654  HIT:    1351654  MISS:          0  HIT %:        100  MISS %:          0   MPKI: 0
STLB PREFETCH  REQUESTED:          0  ISSUED:          0  USEFUL:          0  USELESS:          0
STLB USEFUL LOAD PREFETCHES:          0 PREFETCH ISSUED TO LOWER LEVEL:          0  ACCURACY: -nan
STLB TIMELY PREFETCHES:          0 LATE PREFETCHES: 0 DROPPED PREFETCHES: 0
STLB PREFETCHES SAME FILL-ORIGIN LEVEL: 0 DIFFERENT FILL-ORIGIN LEVEL: 0
STLB AVERAGE MISS LATENCY: 62.4027 cycles
STLB RQ	ACCESS:    5720457	FORWARD:          0	MERGED:     601915	TO_CACHE:    5118542

STLB Hit, L1D data hit: 0
STLB Hit, L2C data hit: 0
STLB Hit, LLC data hit: 0
STLB Hit, LLC data miss: 0
STLB STLB hints to L2: 0
L1D TOTAL     ACCESS:   56187583  HIT:   52247246  MISS:    3940337  HIT %:    92.9872  MISS %:    7.01283   MPKI: 19.7017
L1D LOAD      ACCESS:   30091547  HIT:   27567414  MISS:    2524133  HIT %:    91.6118  MISS %:    8.38818   MPKI: 12.6207
L1D RFO       ACCESS:   24216244  HIT:   23744227  MISS:     472017  HIT %:    98.0508  MISS %:    1.94918   MPKI: 2.36008
L1D PREFETCH  ACCESS:    1879792  HIT:     935605  MISS:     944187  HIT %:    49.7717  MISS %:    50.2283   MPKI: 4.72093
AGUS PREFETCH L1 MISS: 0
L1D PREFETCH  REQUESTED:    3922479  ISSUED:    3913288  USEFUL:     136026  USELESS:     808137
L1D USEFUL LOAD PREFETCHES:     136026 PREFETCH ISSUED TO LOWER LEVEL:     952161  ACCURACY: 14.286
L1D TIMELY PREFETCHES:     136026 LATE PREFETCHES: 6158 DROPPED PREFETCHES: 0
L1D PREFETCHES SAME FILL-ORIGIN LEVEL: 952161 DIFFERENT FILL-ORIGIN LEVEL: 0
L1D AVERAGE MISS LATENCY: 535994 cycles
L1D RQ	ACCESS:   43283577	FORWARD:          0	MERGED:   12758656	TO_CACHE:   30184245
L1D WQ	ACCESS:   24970645	FORWARD:     346826	MERGED:     272121	TO_CACHE:   24698524
L1D PQ	ACCESS:    1959719	FORWARD:          0	MERGED:          0	TO_CACHE:    1953569

L1D UNIQUE REGIONS ACCESSED: 0
L1D REGIONS CONFLICTS: 0
L1D Cross Page Prefetch Requests: 0
L1D Same Page Prefetch Requests: 2415341
L1D ROI Sum of L1D PQ occupancy: 38243390
L1D PREFETCHES PUSHED FROM L2C: 0
L1I TOTAL     ACCESS:   38656673  HIT:   25870256  MISS:   12786417  HIT %:    66.9231  MISS %:    33.0769   MPKI: 63.9321
L1I LOAD      ACCESS:   38656673  HIT:   25870256  MISS:   12786417  HIT %:    66.9231  MISS %:    33.0769   MPKI: 63.9321
L1I PREFETCH  REQUESTED:          0  ISSUED:          0  USEFUL:          0  USELESS:          0
L1I USEFUL LOAD PREFETCHES:          0 PREFETCH ISSUED TO LOWER LEVEL:          0  ACCURACY: -nan
L1I TIMELY PREFETCHES:          0 LATE PREFETCHES: 0 DROPPED PREFETCHES: 0
L1I PREFETCHES SAME FILL-ORIGIN LEVEL: 0 DIFFERENT FILL-ORIGIN LEVEL: 0
L1I AVERAGE MISS LATENCY: 14.5227 cycles
L1I RQ	ACCESS:   60997476	FORWARD:          0	MERGED:   19686790	TO_CACHE:   41310686

BTB TOTAL     ACCESS:   31158244  HIT:   22772674  MISS:    8385570  HIT %:    73.0872  MISS %:    26.9128   MPKI: 41.9278
BTB BRANCH_DIRECT_JUMP	ACCESS:    2947352  HIT:    2315063  MISS:     632289
BTB BRANCH_INDIRECT	ACCESS:   13078896  HIT:    9492312  MISS:    3586584
BTB BRANCH_CONDITIONAL	ACCESS:    5413260  HIT:    4750581  MISS:     662679
BTB BRANCH_DIRECT_CALL	ACCESS:    4056169  HIT:    3104099  MISS:     952070
BTB BRANCH_INDIRECT_CALL	ACCESS:     803174  HIT:     456636  MISS:     346538
BTB BRANCH_RETURN	ACCESS:    4859393  HIT:    2653983  MISS:    2205410
BTB BRANCH_OTHER ACCESS:          0  HIT:          0  MISS:          0

L2C TOTAL     ACCESS:   17885314  HIT:   16919191  MISS:     966123  HIT %:    94.5982  MISS %:    5.40177   MPKI: 4.83061
L2C LOAD      ACCESS:   15304353  HIT:   14677208  MISS:     627145  HIT %:    95.9022  MISS %:    4.09782   MPKI: 3.13572
L2C DATA LOAD MPKI: 2.83985
L2C INSTRUCTION LOAD MPKI: 0.295875
L2C RFO       ACCESS:     470201  HIT:     376112  MISS:      94089  HIT %:    79.9896  MISS %:    20.0104   MPKI: 0.470445
L2C PREFETCH  ACCESS:     952160  HIT:     733296  MISS:     218864  HIT %:    77.0139  MISS %:    22.9861   MPKI: 1.09432
AGUS PREFETCH L1 MISS: 0
L2C DATA PREFETCH MPKI: 1.09432
L2C INSTRUCTION PREFETCH MPKI: 0
L2C WRITEBACK ACCESS:    1122145  HIT:    1111535  MISS:      10610  HIT %:    99.0545  MISS %:   0.945511   MPKI: 0.05305
L2C LOAD TRANSLATION ACCESS:      36455  HIT:      21040  MISS:      15415  HIT %:     57.715  MISS %:     42.285   MPKI: 0.077075
L2C PREFETCH  REQUESTED:          0  ISSUED:          0  USEFUL:      15620  USELESS:     203323
L2C USEFUL LOAD PREFETCHES:      15620 PREFETCH ISSUED TO LOWER LEVEL:     218864  ACCURACY: 7.13685
L2C TIMELY PREFETCHES:      15620 LATE PREFETCHES: 0 DROPPED PREFETCHES: 0
L2C PREFETCHES SAME FILL-ORIGIN LEVEL: 0 DIFFERENT FILL-ORIGIN LEVEL: 0
L2C AVERAGE MISS LATENCY: 181.122 cycles
L2C RQ	ACCESS:   15811050	FORWARD:          0	MERGED:          0	TO_CACHE:   15811011
L2C WQ	ACCESS:    1122145	FORWARD:         40	MERGED:          0	TO_CACHE:    1122145
L2C PQ	ACCESS:     952161	FORWARD:          0	MERGED:          0	TO_CACHE:     952160

L2C Instructions Evicting Data 46439
L2C Translations Evicting Data 14554
L2C Data Evicting Data 821481
L2C Instructions Evicting Instructions 12309
L2C Translations Evicting Instructions 552
L2C Data Evicting Instructions 44973
L2C Instructions Evicting Translations 427
L2C Translations Evicting Translations 309
L2C Data Evicting Translations 14469
L2C Dense regions hint from L2: 0
PSCL5 TOTAL     ACCESS:      34000  HIT:      34000  MISS:          0  HIT %:        100  MISS %:          0   MPKI: 0
PSCL5 LOAD TRANSLATION ACCESS:      34000  HIT:      34000  MISS:          0  HIT %:        100  MISS %:          0   MPKI: 0
PSCL5 PREFETCH  REQUESTED:          0  ISSUED:          0  USEFUL:          0  USELESS:          0
PSCL5 USEFUL LOAD PREFETCHES:          0 PREFETCH ISSUED TO LOWER LEVEL:          0  ACCURACY: -nan
PSCL5 TIMELY PREFETCHES:          0 LATE PREFETCHES: 0 DROPPED PREFETCHES: 0
PSCL5 PREFETCHES SAME FILL-ORIGIN LEVEL: 0 DIFFERENT FILL-ORIGIN LEVEL: 0

PSCL4 TOTAL     ACCESS:      32272  HIT:      32207  MISS:         65  HIT %:    99.7986  MISS %:   0.201413   MPKI: 0.000325
PSCL4 LOAD TRANSLATION ACCESS:      32272  HIT:      32207  MISS:         65  HIT %:    99.7986  MISS %:   0.201413   MPKI: 0.000325
PSCL4 PREFETCH  REQUESTED:          0  ISSUED:          0  USEFUL:          0  USELESS:          0
PSCL4 USEFUL LOAD PREFETCHES:          0 PREFETCH ISSUED TO LOWER LEVEL:          0  ACCURACY: -nan
PSCL4 TIMELY PREFETCHES:          0 LATE PREFETCHES: 0 DROPPED PREFETCHES: 0
PSCL4 PREFETCHES SAME FILL-ORIGIN LEVEL: 0 DIFFERENT FILL-ORIGIN LEVEL: 0

PSCL3 TOTAL     ACCESS:      33047  HIT:      32918  MISS:        129  HIT %:    99.6096  MISS %:   0.390353   MPKI: 0.000645
PSCL3 LOAD TRANSLATION ACCESS:      33047  HIT:      32918  MISS:        129  HIT %:    99.6096  MISS %:   0.390353   MPKI: 0.000645
PSCL3 PREFETCH  REQUESTED:          0  ISSUED:          0  USEFUL:          0  USELESS:          0
PSCL3 USEFUL LOAD PREFETCHES:          0 PREFETCH ISSUED TO LOWER LEVEL:          0  ACCURACY: -nan
PSCL3 TIMELY PREFETCHES:          0 LATE PREFETCHES: 0 DROPPED PREFETCHES: 0
PSCL3 PREFETCHES SAME FILL-ORIGIN LEVEL: 0 DIFFERENT FILL-ORIGIN LEVEL: 0

PSCL2 TOTAL     ACCESS:      34000  HIT:      31737  MISS:       2263  HIT %:    93.3441  MISS %:    6.65588   MPKI: 0.011315
PSCL2 LOAD TRANSLATION ACCESS:      34000  HIT:      31737  MISS:       2263  HIT %:    93.3441  MISS %:    6.65588   MPKI: 0.011315
PSCL2 PREFETCH  REQUESTED:          0  ISSUED:          0  USEFUL:          0  USELESS:          0
PSCL2 USEFUL LOAD PREFETCHES:          0 PREFETCH ISSUED TO LOWER LEVEL:          0  ACCURACY: -nan
PSCL2 TIMELY PREFETCHES:          0 LATE PREFETCHES: 0 DROPPED PREFETCHES: 0
PSCL2 PREFETCHES SAME FILL-ORIGIN LEVEL: 0 DIFFERENT FILL-ORIGIN LEVEL: 0

LLC TOTAL     ACCESS:    1317428  HIT:     546925  MISS:     770503  HIT %:    41.5146  MISS %:    58.4854   MPKI: 3.85251
LLC LOAD      ACCESS:     627145  HIT:     114983  MISS:     512162  HIT %:    18.3344  MISS %:    81.6656   MPKI: 2.56081
LLC RFO       ACCESS:      94089  HIT:      33146  MISS:      60943  HIT %:    35.2283  MISS %:    64.7717   MPKI: 0.304715
LLC PREFETCH  ACCESS:     218862  HIT:      36095  MISS:     182767  HIT %:    16.4921  MISS %:    83.5079   MPKI: 0.913835
AGUS PREFETCH L1 MISS: 0
LLC WRITEBACK ACCESS:     361917  HIT:     351759  MISS:      10158  HIT %:    97.1933  MISS %:    2.80672   MPKI: 0.05079
LLC LOAD TRANSLATION ACCESS:      15415  HIT:      10942  MISS:       4473  HIT %:    70.9828  MISS %:    29.0172   MPKI: 0.022365
LLC PREFETCH  REQUESTED:          0  ISSUED:          0  USEFUL:      13367  USELESS:     169776
LLC USEFUL LOAD PREFETCHES:      13367 PREFETCH ISSUED TO LOWER LEVEL:     182767  ACCURACY: 7.31368
LLC TIMELY PREFETCHES:      13367 LATE PREFETCHES: 0 DROPPED PREFETCHES: 0
LLC PREFETCHES SAME FILL-ORIGIN LEVEL: 0 DIFFERENT FILL-ORIGIN LEVEL: 0
LLC AVERAGE MISS LATENCY: 189.895 cycles
LLC RQ	ACCESS:     736649	FORWARD:          0	MERGED:          0	TO_CACHE:     736649
LLC WQ	ACCESS:     361917	FORWARD:          2	MERGED:          0	TO_CACHE:     361917
LLC PQ	ACCESS:     218864	FORWARD:          0	MERGED:          0	TO_CACHE:     218862

LLC Dense regions hint to LLC: 0

RAW hits: 2883504
Loads Generated: 46167081
Loads sent to L1D: 43283577
Stores Generated: 24970633
Stores sent to L1D: 24970645
Major fault: 0 Minor fault: 5644
Allocated PAGES: 5644

stream: 
stream:times selected: 2936712
stream:pref_filled: 648309
stream:pref_useful: 103251
stream:pref_late: 3048
stream:misses: 82065
stream:misses_by_poll: 0

CS: 
CS:times selected: 122846
CS:pref_filled: 49448
CS:pref_useful: 18182
CS:pref_late: 2445
CS:misses: 3180
CS:misses_by_poll: 130

CPLX: 
CPLX:times selected: 2815578
CPLX:pref_filled: 471824
CPLX:pref_useful: 46651
CPLX:pref_late: 2266
CPLX:misses: 276582
CPLX:misses_by_poll: 195

NL_L1: 
NL:times selected: 18072
NL:pref_filled: 8410
NL:pref_useful: 102
NL:pref_late: 10
NL:misses: 1795
NL:misses_by_poll: 0

total selections: 5893208
total_filled: 944187
total_useful: 136026
total_late: 8066
total_polluted: 325
total_misses_after_warmup: 2616831
conflicts: 11616592
Degree Incremented Times: 0
Degree Decremented Times: 503478

L1 IP Table Write Accesses: 17782530
L1 IP Table Read Accesses: 6165938
L1 RST Write Accesses: 2351218
L1 RST Read Accesses: 4702436
L1 CSPT Write Accesses: 2351218
L1 CSPT Read Accesses: 4605531
L1 RR Filter Tag Write Accesses: 1968910
L1 RR Filter Tag Read Accesses: 94008336
L1 IP Table Tag Write Accesses: 30184245
L1 IP Table Tag Read Accesses: 30184245
L1 RST Tag Write Accesses: 0
L1 RST Tag Read Accesses: 23940077
L1 RR Filter Write Accesses: 0
L1 RR Filter Read Accesses: 3376940
test: 1458295

DRAM Statistics
 CHANNEL 0
 RQ ROW_BUFFER_HIT:     195452  ROW_BUFFER_MISS:     564886
 DBUS_CONGESTED:        185
 WQ ROW_BUFFER_HIT:      53314  ROW_BUFFER_MISS:     244585  FULL:          0

 AVG_CONGESTED_CYCLE: 5
 All warmup complete: 2
Channel 0 Bank busy for read cycles: 0
Channel 0 Bank busy for write cycles: 0
Channel 0
Rank 0
0banks busy for read cycles: 479244947
0banks busy for write cycles: 137611
1banks busy for read cycles: 45693872
1banks busy for write cycles: 20853135
2banks busy for read cycles: 10224736
2banks busy for write cycles: 5462543
3banks busy for read cycles: 3078979
3banks busy for write cycles: 1655142
4banks busy for read cycles: 1001035
4banks busy for write cycles: 602454
5banks busy for read cycles: 610207
5banks busy for write cycles: 307035
6banks busy for read cycles: 671276
6banks busy for write cycles: 341732
7banks busy for read cycles: 769767
7banks busy for write cycles: 767863
8banks busy for read cycles: 475049
8banks busy for write cycles: 1247214

CPU 0 Branch Prediction Accuracy: 99.9574% MPKI: 0.07907 Average ROB Occupancy at Mispredict: 24.3928
Branch types
NOT_BRANCH: 162853515 81.4268%
BRANCH_DIRECT_JUMP: 2947352 1.47368%
BRANCH_INDIRECT: 13078896 6.53945%
BRANCH_CONDITIONAL: 11401390 5.70069%
BRANCH_DIRECT_CALL: 4056169 2.02808%
BRANCH_INDIRECT_CALL: 803174 0.401587%
BRANCH_RETURN: 4859393 2.4297%
BRANCH_OTHER: 0 0%

DRAM PAGES: 1048576
Allocated PAGES: 5644
