
*** ChampSim Multicore Out-of-Order Simulator ***

Warmup Instructions: 50000000
Simulation Instructions: 200000000
Number of CPUs: 1
LLC sets: 2048
LLC ways: 16
Off-chip DRAM Size: 4096 MB Channels: 1 Width: 64-bit Data Rate: 6400 MT/s
CPU 0 runs traces/spec2k17/server_016.champsimtrace.xz
.xz
BTB has LRU replacement policy
ITLB has LRU replacement policy
DTLB has LRU replacement policy
STLB has LRU replacement policy
L1I has LRU replacement policy
IP Table Entries: 1024
CSPT Entries: 128
RR_ENTRIES: 32
RST_ENTRIES: 8
L1D has LRU replacement policy
Initialize SRRIP state for L2C
Initialize DRRIP state for LLC
Heartbeat CPU 0 instructions: 10000001 cycles: 2814494 heartbeat IPC: 3.55304 cumulative IPC: 3.55304 (Simulation time: 0 hr 0 min 50 sec) 
Heartbeat CPU 0 instructions: 20000001 cycles: 5622654 heartbeat IPC: 3.56105 cumulative IPC: 3.55704 (Simulation time: 0 hr 1 min 38 sec) 
Heartbeat CPU 0 instructions: 30000000 cycles: 8429428 heartbeat IPC: 3.56281 cumulative IPC: 3.55896 (Simulation time: 0 hr 2 min 27 sec) 
Heartbeat CPU 0 instructions: 40000000 cycles: 11535246 heartbeat IPC: 3.21976 cumulative IPC: 3.46763 (Simulation time: 0 hr 3 min 5 sec) 
Heartbeat CPU 0 instructions: 50000001 cycles: 14801720 heartbeat IPC: 3.06141 cumulative IPC: 3.37799 (Simulation time: 0 hr 3 min 31 sec) 

Warmup complete CPU 0 instructions: 50000001 cycles: 14801720 (Simulation time: 0 hr 3 min 31 sec) 

Heartbeat CPU 0 instructions: 60000001 cycles: 29239751 heartbeat IPC: 0.692615 cumulative IPC: 0.692615 (Simulation time: 0 hr 4 min 20 sec) 
Heartbeat CPU 0 instructions: 70000001 cycles: 59035366 heartbeat IPC: 0.33562 cumulative IPC: 0.452145 (Simulation time: 0 hr 5 min 16 sec) 
Heartbeat CPU 0 instructions: 80000000 cycles: 89760635 heartbeat IPC: 0.325465 cumulative IPC: 0.400219 (Simulation time: 0 hr 6 min 14 sec) 
Heartbeat CPU 0 instructions: 90000000 cycles: 119432861 heartbeat IPC: 0.337016 cumulative IPC: 0.382295 (Simulation time: 0 hr 7 min 11 sec) 
Heartbeat CPU 0 instructions: 100000000 cycles: 149606038 heartbeat IPC: 0.33142 cumulative IPC: 0.370908 (Simulation time: 0 hr 8 min 6 sec) 
*** Reached end of trace for Core: 0 Repeating trace: traces/spec2k17/server_016.champsimtrace.xz
Heartbeat CPU 0 instructions: 110000000 cycles: 179149253 heartbeat IPC: 0.338487 cumulative IPC: 0.36508 (Simulation time: 0 hr 8 min 56 sec) 
Heartbeat CPU 0 instructions: 120000003 cycles: 209366134 heartbeat IPC: 0.330941 cumulative IPC: 0.359778 (Simulation time: 0 hr 9 min 56 sec) 
Heartbeat CPU 0 instructions: 130000000 cycles: 239244264 heartbeat IPC: 0.334693 cumulative IPC: 0.356439 (Simulation time: 0 hr 10 min 52 sec) 
Heartbeat CPU 0 instructions: 140000000 cycles: 263646464 heartbeat IPC: 0.409799 cumulative IPC: 0.361671 (Simulation time: 0 hr 11 min 42 sec) 
Heartbeat CPU 0 instructions: 150000003 cycles: 278083620 heartbeat IPC: 0.692657 cumulative IPC: 0.379821 (Simulation time: 0 hr 12 min 24 sec) 
Heartbeat CPU 0 instructions: 160000001 cycles: 292520866 heartbeat IPC: 0.692653 cumulative IPC: 0.396084 (Simulation time: 0 hr 13 min 3 sec) 
Heartbeat CPU 0 instructions: 170000000 cycles: 317664482 heartbeat IPC: 0.397715 cumulative IPC: 0.396219 (Simulation time: 0 hr 13 min 53 sec) 
Heartbeat CPU 0 instructions: 180000003 cycles: 348128174 heartbeat IPC: 0.32826 cumulative IPC: 0.390008 (Simulation time: 0 hr 14 min 45 sec) 
Heartbeat CPU 0 instructions: 190000000 cycles: 378403921 heartbeat IPC: 0.330297 cumulative IPC: 0.385036 (Simulation time: 0 hr 15 min 36 sec) 
Heartbeat CPU 0 instructions: 200000000 cycles: 407876359 heartbeat IPC: 0.3393 cumulative IPC: 0.381607 (Simulation time: 0 hr 16 min 37 sec) 
*** Reached end of trace for Core: 0 Repeating trace: traces/spec2k17/server_016.champsimtrace.xz
Heartbeat CPU 0 instructions: 210000000 cycles: 437790641 heartbeat IPC: 0.334288 cumulative IPC: 0.37826 (Simulation time: 0 hr 17 min 33 sec) 
Heartbeat CPU 0 instructions: 220000000 cycles: 467784163 heartbeat IPC: 0.333405 cumulative IPC: 0.37529 (Simulation time: 0 hr 18 min 27 sec) 
Heartbeat CPU 0 instructions: 230000000 cycles: 497573514 heartbeat IPC: 0.33569 cumulative IPC: 0.372847 (Simulation time: 0 hr 19 min 28 sec) 
Heartbeat CPU 0 instructions: 240000000 cycles: 526528180 heartbeat IPC: 0.345367 cumulative IPC: 0.371292 (Simulation time: 0 hr 20 min 23 sec) 
Heartbeat CPU 0 instructions: 250000003 cycles: 541002973 heartbeat IPC: 0.690856 cumulative IPC: 0.380083 (Simulation time: 0 hr 21 min 6 sec) 
Finished CPU 0 instructions: 200000002 cycles: 526201253 cumulative IPC: 0.380083 (Simulation time: 0 hr 21 min 6 sec) 

ChampSim completed all CPUs

Region of Interest Statistics

CPU 0 cumulative IPC: 0.380083 instructions: 200000002 cycles: 526201253
ITLB TOTAL     ACCESS:   37654978  HIT:   36244770  MISS:    1410208  HIT %:    96.2549  MISS %:    3.74508   MPKI: 7.05104
ITLB LOAD TRANSLATION ACCESS:   37654978  HIT:   36244770  MISS:    1410208  HIT %:    96.2549  MISS %:    3.74508   MPKI: 7.05104
ITLB PREFETCH  REQUESTED:          0  ISSUED:          0  USEFUL:          0  USELESS:          0
ITLB USEFUL LOAD PREFETCHES:          0 PREFETCH ISSUED TO LOWER LEVEL:          0  ACCURACY: -nan
ITLB TIMELY PREFETCHES:          0 LATE PREFETCHES: 0 DROPPED PREFETCHES: 0
ITLB PREFETCHES SAME FILL-ORIGIN LEVEL: 0 DIFFERENT FILL-ORIGIN LEVEL: 0
ITLB AVERAGE MISS LATENCY: 9.06051 cycles
ITLB RQ	ACCESS:   42296095	FORWARD:          0	MERGED:    4301245	TO_CACHE:   37994850

DTLB TOTAL     ACCESS:   39335823  HIT:   37964955  MISS:    1370868  HIT %:     96.515  MISS %:    3.48504   MPKI: 6.85434
DTLB LOAD TRANSLATION ACCESS:   39335823  HIT:   37964955  MISS:    1370868  HIT %:     96.515  MISS %:    3.48504   MPKI: 6.85434
DTLB PREFETCH  REQUESTED:          0  ISSUED:          0  USEFUL:          0  USELESS:          0
DTLB USEFUL LOAD PREFETCHES:          0 PREFETCH ISSUED TO LOWER LEVEL:          0  ACCURACY: -nan
DTLB TIMELY PREFETCHES:          0 LATE PREFETCHES: 0 DROPPED PREFETCHES: 0
DTLB PREFETCHES SAME FILL-ORIGIN LEVEL: 0 DIFFERENT FILL-ORIGIN LEVEL: 0
DTLB AVERAGE MISS LATENCY: 9.31153 cycles
DTLB RQ	ACCESS:   50766614	FORWARD:          0	MERGED:   11378295	TO_CACHE:   39388319

STLB TOTAL     ACCESS:    7836115  HIT:    7828340  MISS:       7775  HIT %:    99.9008  MISS %:  0.0992201   MPKI: 0.038875
STLB LOAD TRANSLATION ACCESS:    2781076  HIT:    2773301  MISS:       7775  HIT %:    99.7204  MISS %:   0.279568   MPKI: 0.038875
STLB TRANSLATION FROM L1D PREFETCHER ACCESS:    5055039  HIT:    5055039  MISS:          0  HIT %:        100  MISS %:          0   MPKI: 0
STLB PREFETCH  REQUESTED:          0  ISSUED:          0  USEFUL:          0  USELESS:          0
STLB USEFUL LOAD PREFETCHES:          0 PREFETCH ISSUED TO LOWER LEVEL:          0  ACCURACY: -nan
STLB TIMELY PREFETCHES:          0 LATE PREFETCHES: 0 DROPPED PREFETCHES: 0
STLB PREFETCHES SAME FILL-ORIGIN LEVEL: 0 DIFFERENT FILL-ORIGIN LEVEL: 0
STLB AVERAGE MISS LATENCY: 63.5275 cycles
STLB RQ	ACCESS:   11675415	FORWARD:          0	MERGED:    3839299	TO_CACHE:    7836116

STLB Hit, L1D data hit: 0
STLB Hit, L2C data hit: 0
STLB Hit, LLC data hit: 0
STLB Hit, LLC data miss: 0
STLB STLB hints to L2: 0
L1D TOTAL     ACCESS:   58068023  HIT:   54594679  MISS:    3473344  HIT %:    94.0185  MISS %:    5.98151   MPKI: 17.3667
L1D LOAD      ACCESS:   29959118  HIT:   27911013  MISS:    2048105  HIT %:    93.1637  MISS %:    6.83633   MPKI: 10.2405
L1D RFO       ACCESS:   19454957  HIT:   18627773  MISS:     827184  HIT %:    95.7482  MISS %:    4.25179   MPKI: 4.13592
L1D PREFETCH  ACCESS:    8653948  HIT:    8055893  MISS:     598055  HIT %:    93.0892  MISS %:    6.91078   MPKI: 2.99027
AGUS PREFETCH L1 MISS: 0
L1D PREFETCH  REQUESTED:   17791338  ISSUED:   17791334  USEFUL:     194309  USELESS:     403757
L1D USEFUL LOAD PREFETCHES:     194309 PREFETCH ISSUED TO LOWER LEVEL:     775757  ACCURACY: 25.0477
L1D TIMELY PREFETCHES:     194309 LATE PREFETCHES: 176344 DROPPED PREFETCHES: 0
L1D PREFETCHES SAME FILL-ORIGIN LEVEL: 775757 DIFFERENT FILL-ORIGIN LEVEL: 0
L1D AVERAGE MISS LATENCY: 1.41297e+07 cycles
L1D RQ	ACCESS:   40499150	FORWARD:          0	MERGED:   10214765	TO_CACHE:   30037388
L1D WQ	ACCESS:   20857481	FORWARD:     249653	MERGED:     128255	TO_CACHE:   20729226
L1D PQ	ACCESS:    8896995	FORWARD:          0	MERGED:          0	TO_CACHE:    8894339

L1D UNIQUE REGIONS ACCESSED: 0
L1D REGIONS CONFLICTS: 0
L1D Cross Page Prefetch Requests: 0
L1D Same Page Prefetch Requests: 11637066
L1D ROI Sum of L1D PQ occupancy: 115859199
L1D PREFETCHES PUSHED FROM L2C: 0
L1I TOTAL     ACCESS:   41215704  HIT:   33840492  MISS:    7375212  HIT %:    82.1058  MISS %:    17.8942   MPKI: 36.8761
L1I LOAD      ACCESS:   41215704  HIT:   33840492  MISS:    7375212  HIT %:    82.1058  MISS %:    17.8942   MPKI: 36.8761
L1I PREFETCH  REQUESTED:          0  ISSUED:          0  USEFUL:          0  USELESS:          0
L1I USEFUL LOAD PREFETCHES:          0 PREFETCH ISSUED TO LOWER LEVEL:          0  ACCURACY: -nan
L1I TIMELY PREFETCHES:          0 LATE PREFETCHES: 0 DROPPED PREFETCHES: 0
L1I PREFETCHES SAME FILL-ORIGIN LEVEL: 0 DIFFERENT FILL-ORIGIN LEVEL: 0
L1I AVERAGE MISS LATENCY: 16.7945 cycles
L1I RQ	ACCESS:   59995589	FORWARD:          0	MERGED:   17699494	TO_CACHE:   42296095

BTB TOTAL     ACCESS:   31149502  HIT:   22487623  MISS:    8661879  HIT %:    72.1926  MISS %:    27.8074   MPKI: 43.3094
BTB BRANCH_DIRECT_JUMP	ACCESS:    1790889  HIT:    1185918  MISS:     604971
BTB BRANCH_INDIRECT	ACCESS:    9233189  HIT:    5986023  MISS:    3247166
BTB BRANCH_CONDITIONAL	ACCESS:   13716226  HIT:   12843151  MISS:     873075
BTB BRANCH_DIRECT_CALL	ACCESS:    2729399  HIT:    1310065  MISS:    1419334
BTB BRANCH_INDIRECT_CALL	ACCESS:     475210  HIT:     188709  MISS:     286501
BTB BRANCH_RETURN	ACCESS:    3204589  HIT:     973757  MISS:    2230832
BTB BRANCH_OTHER ACCESS:          0  HIT:          0  MISS:          0

L2C TOTAL     ACCESS:   12305539  HIT:   10964533  MISS:    1341006  HIT %:    89.1024  MISS %:    10.8976   MPKI: 6.70503
L2C LOAD      ACCESS:    9246902  HIT:    8349145  MISS:     897757  HIT %:    90.2913  MISS %:    9.70873   MPKI: 4.48878
L2C DATA LOAD MPKI: 1.25026
L2C INSTRUCTION LOAD MPKI: 3.23852
L2C RFO       ACCESS:     825824  HIT:     670057  MISS:     155767  HIT %:     81.138  MISS %:     18.862   MPKI: 0.778835
L2C PREFETCH  ACCESS:     775756  HIT:     529177  MISS:     246579  HIT %:    68.2144  MISS %:    31.7856   MPKI: 1.23289
AGUS PREFETCH L1 MISS: 0
L2C DATA PREFETCH MPKI: 1.23289
L2C INSTRUCTION PREFETCH MPKI: 0
L2C WRITEBACK ACCESS:    1448353  HIT:    1413933  MISS:      34420  HIT %:    97.6235  MISS %:    2.37649   MPKI: 0.1721
L2C LOAD TRANSLATION ACCESS:       8704  HIT:       2221  MISS:       6483  HIT %:     25.517  MISS %:     74.483   MPKI: 0.032415
L2C PREFETCH  REQUESTED:          0  ISSUED:          0  USEFUL:      11129  USELESS:     235741
L2C USEFUL LOAD PREFETCHES:      11129 PREFETCH ISSUED TO LOWER LEVEL:     246579  ACCURACY: 4.51336
L2C TIMELY PREFETCHES:      11129 LATE PREFETCHES: 0 DROPPED PREFETCHES: 0
L2C PREFETCHES SAME FILL-ORIGIN LEVEL: 0 DIFFERENT FILL-ORIGIN LEVEL: 0
L2C AVERAGE MISS LATENCY: 44.1238 cycles
L2C RQ	ACCESS:   10081503	FORWARD:          0	MERGED:          0	TO_CACHE:   10081430
L2C WQ	ACCESS:    1448353	FORWARD:         74	MERGED:          0	TO_CACHE:    1448353
L2C PQ	ACCESS:     775757	FORWARD:          0	MERGED:          0	TO_CACHE:     775756

L2C Instructions Evicting Data 295171
L2C Translations Evicting Data 4684
L2C Data Evicting Data 371862
L2C Instructions Evicting Instructions 350891
L2C Translations Evicting Instructions 1721
L2C Data Evicting Instructions 275844
L2C Instructions Evicting Translations 1643
L2C Translations Evicting Translations 78
L2C Data Evicting Translations 4692
L2C Dense regions hint from L2: 0
PSCL5 TOTAL     ACCESS:       7775  HIT:       7775  MISS:          0  HIT %:        100  MISS %:          0   MPKI: 0
PSCL5 LOAD TRANSLATION ACCESS:       7775  HIT:       7775  MISS:          0  HIT %:        100  MISS %:          0   MPKI: 0
PSCL5 PREFETCH  REQUESTED:          0  ISSUED:          0  USEFUL:          0  USELESS:          0
PSCL5 USEFUL LOAD PREFETCHES:          0 PREFETCH ISSUED TO LOWER LEVEL:          0  ACCURACY: -nan
PSCL5 TIMELY PREFETCHES:          0 LATE PREFETCHES: 0 DROPPED PREFETCHES: 0
PSCL5 PREFETCHES SAME FILL-ORIGIN LEVEL: 0 DIFFERENT FILL-ORIGIN LEVEL: 0

PSCL4 TOTAL     ACCESS:       7303  HIT:       7264  MISS:         39  HIT %:     99.466  MISS %:   0.534027   MPKI: 0.000195
PSCL4 LOAD TRANSLATION ACCESS:       7303  HIT:       7264  MISS:         39  HIT %:     99.466  MISS %:   0.534027   MPKI: 0.000195
PSCL4 PREFETCH  REQUESTED:          0  ISSUED:          0  USEFUL:          0  USELESS:          0
PSCL4 USEFUL LOAD PREFETCHES:          0 PREFETCH ISSUED TO LOWER LEVEL:          0  ACCURACY: -nan
PSCL4 TIMELY PREFETCHES:          0 LATE PREFETCHES: 0 DROPPED PREFETCHES: 0
PSCL4 PREFETCHES SAME FILL-ORIGIN LEVEL: 0 DIFFERENT FILL-ORIGIN LEVEL: 0

PSCL3 TOTAL     ACCESS:       7657  HIT:       7618  MISS:         39  HIT %:    99.4907  MISS %:   0.509338   MPKI: 0.000195
PSCL3 LOAD TRANSLATION ACCESS:       7657  HIT:       7618  MISS:         39  HIT %:    99.4907  MISS %:   0.509338   MPKI: 0.000195
PSCL3 PREFETCH  REQUESTED:          0  ISSUED:          0  USEFUL:          0  USELESS:          0
PSCL3 USEFUL LOAD PREFETCHES:          0 PREFETCH ISSUED TO LOWER LEVEL:          0  ACCURACY: -nan
PSCL3 TIMELY PREFETCHES:          0 LATE PREFETCHES: 0 DROPPED PREFETCHES: 0
PSCL3 PREFETCHES SAME FILL-ORIGIN LEVEL: 0 DIFFERENT FILL-ORIGIN LEVEL: 0

PSCL2 TOTAL     ACCESS:       7775  HIT:       6920  MISS:        855  HIT %:    89.0032  MISS %:    10.9968   MPKI: 0.004275
PSCL2 LOAD TRANSLATION ACCESS:       7775  HIT:       6920  MISS:        855  HIT %:    89.0032  MISS %:    10.9968   MPKI: 0.004275
PSCL2 PREFETCH  REQUESTED:          0  ISSUED:          0  USEFUL:          0  USELESS:          0
PSCL2 USEFUL LOAD PREFETCHES:          0 PREFETCH ISSUED TO LOWER LEVEL:          0  ACCURACY: -nan
PSCL2 TIMELY PREFETCHES:          0 LATE PREFETCHES: 0 DROPPED PREFETCHES: 0
PSCL2 PREFETCHES SAME FILL-ORIGIN LEVEL: 0 DIFFERENT FILL-ORIGIN LEVEL: 0

LLC TOTAL     ACCESS:    1527121  HIT:    1407557  MISS:     119564  HIT %:    92.1706  MISS %:    7.82937   MPKI: 0.59782
LLC LOAD      ACCESS:     897757  HIT:     873823  MISS:      23934  HIT %:     97.334  MISS %:    2.66598   MPKI: 0.11967
LLC RFO       ACCESS:     155764  HIT:     100996  MISS:      54768  HIT %:    64.8391  MISS %:    35.1609   MPKI: 0.27384
LLC PREFETCH  ACCESS:     246579  HIT:     207260  MISS:      39319  HIT %:    84.0542  MISS %:    15.9458   MPKI: 0.196595
AGUS PREFETCH L1 MISS: 0
LLC WRITEBACK ACCESS:     220538  HIT:     219565  MISS:        973  HIT %:    99.5588  MISS %:   0.441194   MPKI: 0.004865
LLC LOAD TRANSLATION ACCESS:       6483  HIT:       5913  MISS:        570  HIT %:    91.2078  MISS %:    8.79223   MPKI: 0.00285
LLC PREFETCH  REQUESTED:          0  ISSUED:          0  USEFUL:       2782  USELESS:      38132
LLC USEFUL LOAD PREFETCHES:       2782 PREFETCH ISSUED TO LOWER LEVEL:      39319  ACCURACY: 7.07546
LLC TIMELY PREFETCHES:       2782 LATE PREFETCHES: 0 DROPPED PREFETCHES: 0
LLC PREFETCHES SAME FILL-ORIGIN LEVEL: 0 DIFFERENT FILL-ORIGIN LEVEL: 0
LLC AVERAGE MISS LATENCY: 166.765 cycles
LLC RQ	ACCESS:    1060007	FORWARD:          0	MERGED:          0	TO_CACHE:    1060004
LLC WQ	ACCESS:     220538	FORWARD:          3	MERGED:          0	TO_CACHE:     220538
LLC PQ	ACCESS:     246579	FORWARD:          0	MERGED:          0	TO_CACHE:     246579

LLC Dense regions hint to LLC: 0

RAW hits: 1233889
Loads Generated: 41733040
Loads sent to L1D: 40499150
Stores Generated: 20857481
Stores sent to L1D: 20857481
Major fault: 0 Minor fault: 2472
Allocated PAGES: 2472

stream: 
stream:times selected: 8998453
stream:pref_filled: 440160
stream:pref_useful: 99414
stream:pref_late: 120650
stream:misses: 38443
stream:misses_by_poll: 0

CS: 
CS:times selected: 5179189
CS:pref_filled: 185896
CS:pref_useful: 124046
CS:pref_late: 32220
CS:misses: 79857
CS:misses_by_poll: 19

CPLX: 
CPLX:times selected: 3808669
CPLX:pref_filled: 130716
CPLX:pref_useful: 45122
CPLX:pref_late: 11077
CPLX:misses: 368348
CPLX:misses_by_poll: 33

NL_L1: 
NL:times selected: 25527
NL:pref_filled: 4341
NL:pref_useful: 1699
NL:pref_late: 30
NL:misses: 1970
NL:misses_by_poll: 0

total selections: 18011838
total_filled: 598055
total_useful: 194309
total_late: 180833
total_polluted: 52
total_misses_after_warmup: 2126375
conflicts: 8231966
Degree Incremented Times: 38
Degree Decremented Times: 284960

L1 IP Table Write Accesses: 20889473
L1 IP Table Read Accesses: 12657507
L1 RST Write Accesses: 7039234
L1 RST Read Accesses: 14078468
L1 CSPT Write Accesses: 7039234
L1 CSPT Read Accesses: 10167797
L1 RR Filter Tag Write Accesses: 8896999
L1 RR Filter Tag Read Accesses: 567755861
L1 IP Table Tag Write Accesses: 30037388
L1 IP Table Tag Read Accesses: 30037388
L1 RST Tag Write Accesses: 0
L1 RST Tag Read Accesses: 58609400
L1 RR Filter Write Accesses: 0
L1 RR Filter Read Accesses: 18941353
test: 999654

DRAM Statistics
 CHANNEL 0
 RQ ROW_BUFFER_HIT:      46311  ROW_BUFFER_MISS:      72258
 DBUS_CONGESTED:         42
 WQ ROW_BUFFER_HIT:       5364  ROW_BUFFER_MISS:      55607  FULL:          0

 AVG_CONGESTED_CYCLE: 5
 All warmup complete: 2
Channel 0 Bank busy for read cycles: 0
Channel 0 Bank busy for write cycles: 0
Channel 0
Rank 0
0banks busy for read cycles: 516924371
0banks busy for write cycles: 15406
1banks busy for read cycles: 3418804
1banks busy for write cycles: 1926844
2banks busy for read cycles: 753949
2banks busy for write cycles: 448769
3banks busy for read cycles: 325139
3banks busy for write cycles: 227606
4banks busy for read cycles: 200833
4banks busy for write cycles: 167761
5banks busy for read cycles: 166508
5banks busy for write cycles: 150396
6banks busy for read cycles: 157716
6banks busy for write cycles: 151966
7banks busy for read cycles: 175959
7banks busy for write cycles: 160440
8banks busy for read cycles: 436545
8banks busy for write cycles: 392242

CPU 0 Branch Prediction Accuracy: 99.773% MPKI: 0.39801 Average ROB Occupancy at Mispredict: 35.4421
Branch types
NOT_BRANCH: 164926668 82.4633%
BRANCH_DIRECT_JUMP: 1790889 0.895444%
BRANCH_INDIRECT: 9233189 4.61659%
BRANCH_CONDITIONAL: 17640059 8.82003%
BRANCH_DIRECT_CALL: 2729399 1.3647%
BRANCH_INDIRECT_CALL: 475210 0.237605%
BRANCH_RETURN: 3204589 1.60229%
BRANCH_OTHER: 0 0%

DRAM PAGES: 1048576
Allocated PAGES: 2472
