
*** ChampSim Multicore Out-of-Order Simulator ***

Warmup Instructions: 50000000
Simulation Instructions: 200000000
Number of CPUs: 1
LLC sets: 2048
LLC ways: 16
Off-chip DRAM Size: 4096 MB Channels: 1 Width: 64-bit Data Rate: 6400 MT/s
CPU 0 runs traces/spec2k17/srv_19.champsimtrace.xz
.xz
BTB has LRU replacement policy
ITLB has LRU replacement policy
DTLB has LRU replacement policy
STLB has LRU replacement policy
L1I has LRU replacement policy
IP Table Entries: 1024
CSPT Entries: 128
RR_ENTRIES: 32
RST_ENTRIES: 8
L1D has LRU replacement policy
Initialize SRRIP state for L2C
Initialize DRRIP state for LLC
Heartbeat CPU 0 instructions: 10000001 cycles: 2841487 heartbeat IPC: 3.51928 cumulative IPC: 3.51928 (Simulation time: 0 hr 0 min 51 sec) 
Heartbeat CPU 0 instructions: 20000000 cycles: 5675893 heartbeat IPC: 3.52808 cumulative IPC: 3.52367 (Simulation time: 0 hr 1 min 40 sec) 
Heartbeat CPU 0 instructions: 30000001 cycles: 8509317 heartbeat IPC: 3.5293 cumulative IPC: 3.52555 (Simulation time: 0 hr 2 min 30 sec) 
*** Reached end of trace for Core: 0 Repeating trace: traces/spec2k17/srv_19.champsimtrace.xz
Heartbeat CPU 0 instructions: 40000002 cycles: 11344113 heartbeat IPC: 3.52759 cumulative IPC: 3.52606 (Simulation time: 0 hr 3 min 17 sec) 
Heartbeat CPU 0 instructions: 50000000 cycles: 14178547 heartbeat IPC: 3.52804 cumulative IPC: 3.52645 (Simulation time: 0 hr 4 min 3 sec) 

Warmup complete CPU 0 instructions: 50000004 cycles: 14178548 (Simulation time: 0 hr 4 min 3 sec) 

Heartbeat CPU 0 instructions: 60000001 cycles: 47198319 heartbeat IPC: 0.302849 cumulative IPC: 0.302849 (Simulation time: 0 hr 4 min 56 sec) 
*** Reached end of trace for Core: 0 Repeating trace: traces/spec2k17/srv_19.champsimtrace.xz
Heartbeat CPU 0 instructions: 70000003 cycles: 80212997 heartbeat IPC: 0.302896 cumulative IPC: 0.302872 (Simulation time: 0 hr 6 min 0 sec) 
Heartbeat CPU 0 instructions: 80000000 cycles: 113038236 heartbeat IPC: 0.304644 cumulative IPC: 0.30346 (Simulation time: 0 hr 6 min 52 sec) 
Heartbeat CPU 0 instructions: 90000001 cycles: 145949558 heartbeat IPC: 0.303847 cumulative IPC: 0.303557 (Simulation time: 0 hr 7 min 47 sec) 
*** Reached end of trace for Core: 0 Repeating trace: traces/spec2k17/srv_19.champsimtrace.xz
Heartbeat CPU 0 instructions: 100000000 cycles: 178837777 heartbeat IPC: 0.30406 cumulative IPC: 0.303657 (Simulation time: 0 hr 8 min 48 sec) 
Heartbeat CPU 0 instructions: 110000000 cycles: 211658173 heartbeat IPC: 0.304689 cumulative IPC: 0.303829 (Simulation time: 0 hr 9 min 47 sec) 
Heartbeat CPU 0 instructions: 120000000 cycles: 244579562 heartbeat IPC: 0.303754 cumulative IPC: 0.303818 (Simulation time: 0 hr 10 min 46 sec) 
*** Reached end of trace for Core: 0 Repeating trace: traces/spec2k17/srv_19.champsimtrace.xz
Heartbeat CPU 0 instructions: 130000001 cycles: 277395951 heartbeat IPC: 0.304726 cumulative IPC: 0.303931 (Simulation time: 0 hr 11 min 48 sec) 
Heartbeat CPU 0 instructions: 140000000 cycles: 310136013 heartbeat IPC: 0.305436 cumulative IPC: 0.304098 (Simulation time: 0 hr 12 min 43 sec) 
Heartbeat CPU 0 instructions: 150000000 cycles: 343019770 heartbeat IPC: 0.304101 cumulative IPC: 0.304098 (Simulation time: 0 hr 13 min 42 sec) 
*** Reached end of trace for Core: 0 Repeating trace: traces/spec2k17/srv_19.champsimtrace.xz
Heartbeat CPU 0 instructions: 160000001 cycles: 375820975 heartbeat IPC: 0.304867 cumulative IPC: 0.304168 (Simulation time: 0 hr 14 min 42 sec) 
Heartbeat CPU 0 instructions: 170000000 cycles: 408530599 heartbeat IPC: 0.30572 cumulative IPC: 0.304297 (Simulation time: 0 hr 15 min 34 sec) 
Heartbeat CPU 0 instructions: 180000003 cycles: 441310502 heartbeat IPC: 0.305065 cumulative IPC: 0.304356 (Simulation time: 0 hr 16 min 32 sec) 
*** Reached end of trace for Core: 0 Repeating trace: traces/spec2k17/srv_19.champsimtrace.xz
Heartbeat CPU 0 instructions: 190000001 cycles: 473927340 heartbeat IPC: 0.30659 cumulative IPC: 0.304514 (Simulation time: 0 hr 17 min 34 sec) 
Heartbeat CPU 0 instructions: 200000000 cycles: 506718022 heartbeat IPC: 0.304965 cumulative IPC: 0.304544 (Simulation time: 0 hr 18 min 26 sec) 
Heartbeat CPU 0 instructions: 210000000 cycles: 539513877 heartbeat IPC: 0.304917 cumulative IPC: 0.304567 (Simulation time: 0 hr 19 min 24 sec) 
*** Reached end of trace for Core: 0 Repeating trace: traces/spec2k17/srv_19.champsimtrace.xz
Heartbeat CPU 0 instructions: 220000000 cycles: 572091183 heartbeat IPC: 0.306962 cumulative IPC: 0.304707 (Simulation time: 0 hr 20 min 26 sec) 
Heartbeat CPU 0 instructions: 230000001 cycles: 604807720 heartbeat IPC: 0.305656 cumulative IPC: 0.30476 (Simulation time: 0 hr 21 min 23 sec) 
Heartbeat CPU 0 instructions: 240000000 cycles: 637484501 heartbeat IPC: 0.306028 cumulative IPC: 0.304826 (Simulation time: 0 hr 22 min 20 sec) 
Heartbeat CPU 0 instructions: 250000001 cycles: 670110135 heartbeat IPC: 0.306507 cumulative IPC: 0.30491 (Simulation time: 0 hr 23 min 23 sec) 
Finished CPU 0 instructions: 200000000 cycles: 655931621 cumulative IPC: 0.30491 (Simulation time: 0 hr 23 min 23 sec) 

ChampSim completed all CPUs

Region of Interest Statistics

CPU 0 cumulative IPC: 0.30491 instructions: 200000000 cycles: 655931621
ITLB TOTAL     ACCESS:   35346195  HIT:   33110467  MISS:    2235728  HIT %:    93.6748  MISS %:    6.32523   MPKI: 11.1786
ITLB LOAD TRANSLATION ACCESS:   35346195  HIT:   33110467  MISS:    2235728  HIT %:    93.6748  MISS %:    6.32523   MPKI: 11.1786
ITLB PREFETCH  REQUESTED:          0  ISSUED:          0  USEFUL:          0  USELESS:          0
ITLB USEFUL LOAD PREFETCHES:          0 PREFETCH ISSUED TO LOWER LEVEL:          0  ACCURACY: -nan
ITLB TIMELY PREFETCHES:          0 LATE PREFETCHES: 0 DROPPED PREFETCHES: 0
ITLB PREFETCHES SAME FILL-ORIGIN LEVEL: 0 DIFFERENT FILL-ORIGIN LEVEL: 0
ITLB AVERAGE MISS LATENCY: 9.21199 cycles
ITLB RQ	ACCESS:   41662678	FORWARD:          0	MERGED:    5787126	TO_CACHE:   35875552

DTLB TOTAL     ACCESS:   45749338  HIT:   43637100  MISS:    2112238  HIT %:     95.383  MISS %:    4.61698   MPKI: 10.5612
DTLB LOAD TRANSLATION ACCESS:   45749338  HIT:   43637100  MISS:    2112238  HIT %:     95.383  MISS %:    4.61698   MPKI: 10.5612
DTLB PREFETCH  REQUESTED:          0  ISSUED:          0  USEFUL:          0  USELESS:          0
DTLB USEFUL LOAD PREFETCHES:          0 PREFETCH ISSUED TO LOWER LEVEL:          0  ACCURACY: -nan
DTLB TIMELY PREFETCHES:          0 LATE PREFETCHES: 0 DROPPED PREFETCHES: 0
DTLB PREFETCHES SAME FILL-ORIGIN LEVEL: 0 DIFFERENT FILL-ORIGIN LEVEL: 0
DTLB AVERAGE MISS LATENCY: 10.6551 cycles
DTLB RQ	ACCESS:   60481406	FORWARD:          0	MERGED:   14675732	TO_CACHE:   45805674

STLB TOTAL     ACCESS:    6378426  HIT:    6314938  MISS:      63488  HIT %:    99.0046  MISS %:   0.995355   MPKI: 0.31744
STLB LOAD TRANSLATION ACCESS:    4347965  HIT:    4284477  MISS:      63488  HIT %:    98.5398  MISS %:    1.46018   MPKI: 0.31744
STLB TRANSLATION FROM L1D PREFETCHER ACCESS:    2030461  HIT:    2030461  MISS:          0  HIT %:        100  MISS %:          0   MPKI: 0
STLB PREFETCH  REQUESTED:          0  ISSUED:          0  USEFUL:          0  USELESS:          0
STLB USEFUL LOAD PREFETCHES:          0 PREFETCH ISSUED TO LOWER LEVEL:          0  ACCURACY: -nan
STLB TIMELY PREFETCHES:          0 LATE PREFETCHES: 0 DROPPED PREFETCHES: 0
STLB PREFETCHES SAME FILL-ORIGIN LEVEL: 0 DIFFERENT FILL-ORIGIN LEVEL: 0
STLB AVERAGE MISS LATENCY: 62.0849 cycles
STLB RQ	ACCESS:    7151286	FORWARD:          0	MERGED:     772860	TO_CACHE:    6378426

STLB Hit, L1D data hit: 0
STLB Hit, L2C data hit: 0
STLB Hit, LLC data hit: 0
STLB Hit, LLC data miss: 0
STLB STLB hints to L2: 0
L1D TOTAL     ACCESS:   61145243  HIT:   55320085  MISS:    5825158  HIT %:    90.4732  MISS %:    9.52676   MPKI: 29.1258
L1D LOAD      ACCESS:   33707120  HIT:   30212408  MISS:    3494712  HIT %:    89.6321  MISS %:    10.3679   MPKI: 17.4736
L1D RFO       ACCESS:   24963100  HIT:   23793099  MISS:    1170001  HIT %:    95.3131  MISS %:    4.68692   MPKI: 5.85001
L1D PREFETCH  ACCESS:    2475023  HIT:    1314578  MISS:    1160445  HIT %:    53.1138  MISS %:    46.8862   MPKI: 5.80222
AGUS PREFETCH L1 MISS: 0
L1D PREFETCH  REQUESTED:    5608989  ISSUED:    5608988  USEFUL:     412700  USELESS:     747794
L1D USEFUL LOAD PREFETCHES:     412700 PREFETCH ISSUED TO LOWER LEVEL:    1396517  ACCURACY: 29.5521
L1D TIMELY PREFETCHES:     412700 LATE PREFETCHES: 233739 DROPPED PREFETCHES: 0
L1D PREFETCHES SAME FILL-ORIGIN LEVEL: 1396517 DIFFERENT FILL-ORIGIN LEVEL: 0
L1D AVERAGE MISS LATENCY: 1.55736e+07 cycles
L1D RQ	ACCESS:   46425561	FORWARD:          0	MERGED:   12272378	TO_CACHE:   33834959
L1D WQ	ACCESS:   26793542	FORWARD:     320570	MERGED:     147095	TO_CACHE:   26646447
L1D PQ	ACCESS:    2805667	FORWARD:          0	MERGED:          0	TO_CACHE:    2803321

L1D UNIQUE REGIONS ACCESSED: 0
L1D REGIONS CONFLICTS: 0
L1D Cross Page Prefetch Requests: 0
L1D Same Page Prefetch Requests: 3527043
L1D ROI Sum of L1D PQ occupancy: 35957511
L1D PREFETCHES PUSHED FROM L2C: 0
L1I TOTAL     ACCESS:   39964785  HIT:   28619933  MISS:   11344852  HIT %:    71.6129  MISS %:    28.3871   MPKI: 56.7243
L1I LOAD      ACCESS:   39964785  HIT:   28619933  MISS:   11344852  HIT %:    71.6129  MISS %:    28.3871   MPKI: 56.7243
L1I PREFETCH  REQUESTED:          0  ISSUED:          0  USEFUL:          0  USELESS:          0
L1I USEFUL LOAD PREFETCHES:          0 PREFETCH ISSUED TO LOWER LEVEL:          0  ACCURACY: -nan
L1I TIMELY PREFETCHES:          0 LATE PREFETCHES: 0 DROPPED PREFETCHES: 0
L1I PREFETCHES SAME FILL-ORIGIN LEVEL: 0 DIFFERENT FILL-ORIGIN LEVEL: 0
L1I AVERAGE MISS LATENCY: 15.9644 cycles
L1I RQ	ACCESS:   58686569	FORWARD:          0	MERGED:   17023891	TO_CACHE:   41662678

BTB TOTAL     ACCESS:   30556675  HIT:   18035302  MISS:   12521373  HIT %:    59.0225  MISS %:    40.9775   MPKI: 62.6069
BTB BRANCH_DIRECT_JUMP	ACCESS:    2074383  HIT:    1262779  MISS:     811604
BTB BRANCH_INDIRECT	ACCESS:   12202008  HIT:    7365935  MISS:    4836073
BTB BRANCH_CONDITIONAL	ACCESS:    7050334  HIT:    5793232  MISS:    1257102
BTB BRANCH_DIRECT_CALL	ACCESS:    3880637  HIT:    1846862  MISS:    2033775
BTB BRANCH_INDIRECT_CALL	ACCESS:     734371  HIT:     365103  MISS:     369268
BTB BRANCH_RETURN	ACCESS:    4614942  HIT:    1401391  MISS:    3213551
BTB BRANCH_OTHER ACCESS:          0  HIT:          0  MISS:          0

L2C TOTAL     ACCESS:   19557475  HIT:   18099830  MISS:    1457645  HIT %:    92.5469  MISS %:    7.45313   MPKI: 7.28822
L2C LOAD      ACCESS:   14605793  HIT:   13612798  MISS:     992995  HIT %:    93.2014  MISS %:    6.79864   MPKI: 4.96497
L2C DATA LOAD MPKI: 1.48227
L2C INSTRUCTION LOAD MPKI: 3.48271
L2C RFO       ACCESS:    1167548  HIT:    1090168  MISS:      77380  HIT %:    93.3724  MISS %:    6.62756   MPKI: 0.3869
L2C PREFETCH  ACCESS:    1396516  HIT:    1081137  MISS:     315379  HIT %:    77.4167  MISS %:    22.5833   MPKI: 1.57689
AGUS PREFETCH L1 MISS: 0
L2C DATA PREFETCH MPKI: 1.57689
L2C INSTRUCTION PREFETCH MPKI: 0
L2C WRITEBACK ACCESS:    2290694  HIT:    2265521  MISS:      25173  HIT %:    98.9011  MISS %:    1.09892   MPKI: 0.125865
L2C LOAD TRANSLATION ACCESS:      96924  HIT:      50206  MISS:      46718  HIT %:    51.7993  MISS %:    48.2007   MPKI: 0.23359
L2C PREFETCH  REQUESTED:          0  ISSUED:          0  USEFUL:       4623  USELESS:     310814
L2C USEFUL LOAD PREFETCHES:       4623 PREFETCH ISSUED TO LOWER LEVEL:     315379  ACCURACY: 1.46586
L2C TIMELY PREFETCHES:       4623 LATE PREFETCHES: 0 DROPPED PREFETCHES: 0
L2C PREFETCHES SAME FILL-ORIGIN LEVEL: 0 DIFFERENT FILL-ORIGIN LEVEL: 0
L2C AVERAGE MISS LATENCY: 45.6675 cycles
L2C RQ	ACCESS:   15870418	FORWARD:          0	MERGED:          0	TO_CACHE:   15870266
L2C WQ	ACCESS:    2290694	FORWARD:        153	MERGED:          0	TO_CACHE:    2290694
L2C PQ	ACCESS:    1396517	FORWARD:          0	MERGED:          0	TO_CACHE:    1396516

L2C Instructions Evicting Data 252785
L2C Translations Evicting Data 34388
L2C Data Evicting Data 419050
L2C Instructions Evicting Instructions 433657
L2C Translations Evicting Instructions 9643
L2C Data Evicting Instructions 236579
L2C Instructions Evicting Translations 10099
L2C Translations Evicting Translations 2687
L2C Data Evicting Translations 33584
L2C Dense regions hint from L2: 0
PSCL5 TOTAL     ACCESS:      63488  HIT:      63488  MISS:          0  HIT %:        100  MISS %:          0   MPKI: 0
PSCL5 LOAD TRANSLATION ACCESS:      63488  HIT:      63488  MISS:          0  HIT %:        100  MISS %:          0   MPKI: 0
PSCL5 PREFETCH  REQUESTED:          0  ISSUED:          0  USEFUL:          0  USELESS:          0
PSCL5 USEFUL LOAD PREFETCHES:          0 PREFETCH ISSUED TO LOWER LEVEL:          0  ACCURACY: -nan
PSCL5 TIMELY PREFETCHES:          0 LATE PREFETCHES: 0 DROPPED PREFETCHES: 0
PSCL5 PREFETCHES SAME FILL-ORIGIN LEVEL: 0 DIFFERENT FILL-ORIGIN LEVEL: 0

PSCL4 TOTAL     ACCESS:      61827  HIT:      61141  MISS:        686  HIT %:    98.8905  MISS %:    1.10955   MPKI: 0.00343
PSCL4 LOAD TRANSLATION ACCESS:      61827  HIT:      61141  MISS:        686  HIT %:    98.8905  MISS %:    1.10955   MPKI: 0.00343
PSCL4 PREFETCH  REQUESTED:          0  ISSUED:          0  USEFUL:          0  USELESS:          0
PSCL4 USEFUL LOAD PREFETCHES:          0 PREFETCH ISSUED TO LOWER LEVEL:          0  ACCURACY: -nan
PSCL4 TIMELY PREFETCHES:          0 LATE PREFETCHES: 0 DROPPED PREFETCHES: 0
PSCL4 PREFETCHES SAME FILL-ORIGIN LEVEL: 0 DIFFERENT FILL-ORIGIN LEVEL: 0

PSCL3 TOTAL     ACCESS:      63360  HIT:      62674  MISS:        686  HIT %:    98.9173  MISS %:     1.0827   MPKI: 0.00343
PSCL3 LOAD TRANSLATION ACCESS:      63360  HIT:      62674  MISS:        686  HIT %:    98.9173  MISS %:     1.0827   MPKI: 0.00343
PSCL3 PREFETCH  REQUESTED:          0  ISSUED:          0  USEFUL:          0  USELESS:          0
PSCL3 USEFUL LOAD PREFETCHES:          0 PREFETCH ISSUED TO LOWER LEVEL:          0  ACCURACY: -nan
PSCL3 TIMELY PREFETCHES:          0 LATE PREFETCHES: 0 DROPPED PREFETCHES: 0
PSCL3 PREFETCHES SAME FILL-ORIGIN LEVEL: 0 DIFFERENT FILL-ORIGIN LEVEL: 0

PSCL2 TOTAL     ACCESS:      63488  HIT:      31424  MISS:      32064  HIT %:     49.496  MISS %:     50.504   MPKI: 0.16032
PSCL2 LOAD TRANSLATION ACCESS:      63488  HIT:      31424  MISS:      32064  HIT %:     49.496  MISS %:     50.504   MPKI: 0.16032
PSCL2 PREFETCH  REQUESTED:          0  ISSUED:          0  USEFUL:          0  USELESS:          0
PSCL2 USEFUL LOAD PREFETCHES:          0 PREFETCH ISSUED TO LOWER LEVEL:          0  ACCURACY: -nan
PSCL2 TIMELY PREFETCHES:          0 LATE PREFETCHES: 0 DROPPED PREFETCHES: 0
PSCL2 PREFETCHES SAME FILL-ORIGIN LEVEL: 0 DIFFERENT FILL-ORIGIN LEVEL: 0

LLC TOTAL     ACCESS:    1539200  HIT:    1367583  MISS:     171617  HIT %:    88.8502  MISS %:    11.1498   MPKI: 0.858085
LLC LOAD      ACCESS:     992995  HIT:     930889  MISS:      62106  HIT %:    93.7456  MISS %:    6.25441   MPKI: 0.31053
LLC RFO       ACCESS:      77379  HIT:      66851  MISS:      10528  HIT %:    86.3942  MISS %:    13.6058   MPKI: 0.05264
LLC PREFETCH  ACCESS:     315379  HIT:     222328  MISS:      93051  HIT %:    70.4955  MISS %:    29.5045   MPKI: 0.465255
AGUS PREFETCH L1 MISS: 0
LLC WRITEBACK ACCESS:     106729  HIT:     106194  MISS:        535  HIT %:    99.4987  MISS %:    0.50127   MPKI: 0.002675
LLC LOAD TRANSLATION ACCESS:      46718  HIT:      41321  MISS:       5397  HIT %:    88.4477  MISS %:    11.5523   MPKI: 0.026985
LLC PREFETCH  REQUESTED:          0  ISSUED:          0  USEFUL:       1261  USELESS:      94332
LLC USEFUL LOAD PREFETCHES:       1261 PREFETCH ISSUED TO LOWER LEVEL:      93051  ACCURACY: 1.35517
LLC TIMELY PREFETCHES:       1261 LATE PREFETCHES: 0 DROPPED PREFETCHES: 0
LLC PREFETCHES SAME FILL-ORIGIN LEVEL: 0 DIFFERENT FILL-ORIGIN LEVEL: 0
LLC AVERAGE MISS LATENCY: 137.47 cycles
LLC RQ	ACCESS:    1117093	FORWARD:          0	MERGED:          0	TO_CACHE:    1117092
LLC WQ	ACCESS:     106729	FORWARD:          1	MERGED:          0	TO_CACHE:     106729
LLC PQ	ACCESS:     315379	FORWARD:          0	MERGED:          0	TO_CACHE:     315379

LLC Dense regions hint to LLC: 0

RAW hits: 1452468
Loads Generated: 47878029
Loads sent to L1D: 46425561
Stores Generated: 26793541
Stores sent to L1D: 26793542
Major fault: 0 Minor fault: 4418
Allocated PAGES: 4418

stream: 
stream:times selected: 4473946
stream:pref_filled: 715416
stream:pref_useful: 161193
stream:pref_late: 148203
stream:misses: 64657
stream:misses_by_poll: 0

CS: 
CS:times selected: 438609
CS:pref_filled: 254555
CS:pref_useful: 188256
CS:pref_late: 37053
CS:misses: 94908
CS:misses_by_poll: 3

CPLX: 
CPLX:times selected: 4012797
CPLX:pref_filled: 558122
CPLX:pref_useful: 210817
CPLX:pref_late: 39040
CPLX:misses: 578663
CPLX:misses_by_poll: 103

NL_L1: 
NL:times selected: 16993
NL:pref_filled: 7128
NL:pref_useful: 542
NL:pref_late: 13
NL:misses: 3575
NL:misses_by_poll: 0

total selections: 8942345
total_filled: 1160445
total_useful: 412700
total_late: 242908
total_polluted: 106
total_misses_after_warmup: 3622553
conflicts: 12108550
Degree Incremented Times: 0
Degree Decremented Times: 364503

L1 IP Table Write Accesses: 20640982
L1 IP Table Read Accesses: 8532432
L1 RST Write Accesses: 3605321
L1 RST Read Accesses: 7210642
L1 CSPT Write Accesses: 3605321
L1 CSPT Read Accesses: 8319885
L1 RR Filter Tag Write Accesses: 2805668
L1 RR Filter Tag Read Accesses: 179763125
L1 IP Table Tag Write Accesses: 33834961
L1 IP Table Tag Read Accesses: 33834961
L1 RST Tag Write Accesses: 0
L1 RST Tag Read Accesses: 32373622
L1 RR Filter Write Accesses: 0
L1 RR Filter Read Accesses: 6357782
test: 1073801

DRAM Statistics
 CHANNEL 0
 RQ ROW_BUFFER_HIT:      65346  ROW_BUFFER_MISS:     105735
 DBUS_CONGESTED:        111
 WQ ROW_BUFFER_HIT:       2549  ROW_BUFFER_MISS:       9991  FULL:          0

 AVG_CONGESTED_CYCLE: 4
 All warmup complete: 2
Channel 0 Bank busy for read cycles: 0
Channel 0 Bank busy for write cycles: 0
Channel 0
Rank 0
0banks busy for read cycles: 643240007
0banks busy for write cycles: 7890
1banks busy for read cycles: 6443165
1banks busy for write cycles: 1304348
2banks busy for read cycles: 2638168
2banks busy for write cycles: 307550
3banks busy for read cycles: 933161
3banks busy for write cycles: 114114
4banks busy for read cycles: 362794
4banks busy for write cycles: 42625
5banks busy for read cycles: 182545
5banks busy for write cycles: 18017
6banks busy for read cycles: 126307
6banks busy for write cycles: 5244
7banks busy for read cycles: 107405
7banks busy for write cycles: 2220
8banks busy for read cycles: 91995
8banks busy for write cycles: 4067

CPU 0 Branch Prediction Accuracy: 99.8157% MPKI: 0.33106 Average ROB Occupancy at Mispredict: 50.3606
Branch types
NOT_BRANCH: 164072294 82.0361%
BRANCH_DIRECT_JUMP: 2074383 1.03719%
BRANCH_INDIRECT: 12202008 6.101%
BRANCH_CONDITIONAL: 12421346 6.21067%
BRANCH_DIRECT_CALL: 3880637 1.94032%
BRANCH_INDIRECT_CALL: 734371 0.367185%
BRANCH_RETURN: 4614942 2.30747%
BRANCH_OTHER: 0 0%

DRAM PAGES: 1048576
Allocated PAGES: 4418
