
*** ChampSim Multicore Out-of-Order Simulator ***

Warmup Instructions: 50000000
Simulation Instructions: 200000000
Number of CPUs: 1
LLC sets: 2048
LLC ways: 16
Off-chip DRAM Size: 4096 MB Channels: 1 Width: 64-bit Data Rate: 6400 MT/s
CPU 0 runs traces/spec2k17/srv_43.champsimtrace.xz
.xz
BTB has LRU replacement policy
ITLB has LRU replacement policy
DTLB has LRU replacement policy
STLB has LRU replacement policy
L1I has LRU replacement policy
IP Table Entries: 1024
CSPT Entries: 128
RR_ENTRIES: 32
RST_ENTRIES: 8
L1D has LRU replacement policy
Initialize SRRIP state for L2C
Initialize DRRIP state for LLC
Heartbeat CPU 0 instructions: 10000003 cycles: 2932377 heartbeat IPC: 3.4102 cumulative IPC: 3.4102 (Simulation time: 0 hr 0 min 51 sec) 
Heartbeat CPU 0 instructions: 20000000 cycles: 5858180 heartbeat IPC: 3.41786 cumulative IPC: 3.41403 (Simulation time: 0 hr 1 min 44 sec) 
Heartbeat CPU 0 instructions: 30000001 cycles: 8784172 heartbeat IPC: 3.41764 cumulative IPC: 3.41523 (Simulation time: 0 hr 2 min 40 sec) 
*** Reached end of trace for Core: 0 Repeating trace: traces/spec2k17/srv_43.champsimtrace.xz
Heartbeat CPU 0 instructions: 40000001 cycles: 11707808 heartbeat IPC: 3.4204 cumulative IPC: 3.41652 (Simulation time: 0 hr 3 min 33 sec) 
Heartbeat CPU 0 instructions: 50000003 cycles: 14632283 heartbeat IPC: 3.41942 cumulative IPC: 3.4171 (Simulation time: 0 hr 4 min 26 sec) 

Warmup complete CPU 0 instructions: 50000003 cycles: 14632283 (Simulation time: 0 hr 4 min 26 sec) 

Heartbeat CPU 0 instructions: 60000000 cycles: 44787588 heartbeat IPC: 0.331617 cumulative IPC: 0.331617 (Simulation time: 0 hr 5 min 23 sec) 
*** Reached end of trace for Core: 0 Repeating trace: traces/spec2k17/srv_43.champsimtrace.xz
Heartbeat CPU 0 instructions: 70000000 cycles: 74818920 heartbeat IPC: 0.332986 cumulative IPC: 0.3323 (Simulation time: 0 hr 6 min 25 sec) 
Heartbeat CPU 0 instructions: 80000003 cycles: 104966339 heartbeat IPC: 0.331703 cumulative IPC: 0.332101 (Simulation time: 0 hr 7 min 17 sec) 
Heartbeat CPU 0 instructions: 90000003 cycles: 135121227 heartbeat IPC: 0.331621 cumulative IPC: 0.331981 (Simulation time: 0 hr 8 min 18 sec) 
*** Reached end of trace for Core: 0 Repeating trace: traces/spec2k17/srv_43.champsimtrace.xz
Heartbeat CPU 0 instructions: 100000003 cycles: 165126663 heartbeat IPC: 0.333273 cumulative IPC: 0.332238 (Simulation time: 0 hr 9 min 10 sec) 
Heartbeat CPU 0 instructions: 110000000 cycles: 195140400 heartbeat IPC: 0.333181 cumulative IPC: 0.332395 (Simulation time: 0 hr 10 min 7 sec) 
Heartbeat CPU 0 instructions: 120000003 cycles: 225253742 heartbeat IPC: 0.332079 cumulative IPC: 0.33235 (Simulation time: 0 hr 10 min 57 sec) 
*** Reached end of trace for Core: 0 Repeating trace: traces/spec2k17/srv_43.champsimtrace.xz
Heartbeat CPU 0 instructions: 130000002 cycles: 255224886 heartbeat IPC: 0.333654 cumulative IPC: 0.332512 (Simulation time: 0 hr 11 min 57 sec) 
Heartbeat CPU 0 instructions: 140000001 cycles: 285337164 heartbeat IPC: 0.33209 cumulative IPC: 0.332465 (Simulation time: 0 hr 12 min 52 sec) 
Heartbeat CPU 0 instructions: 150000003 cycles: 315236416 heartbeat IPC: 0.334457 cumulative IPC: 0.332663 (Simulation time: 0 hr 13 min 47 sec) 
*** Reached end of trace for Core: 0 Repeating trace: traces/spec2k17/srv_43.champsimtrace.xz
Heartbeat CPU 0 instructions: 160000000 cycles: 345262809 heartbeat IPC: 0.33304 cumulative IPC: 0.332698 (Simulation time: 0 hr 14 min 47 sec) 
Heartbeat CPU 0 instructions: 170000000 cycles: 375355954 heartbeat IPC: 0.332302 cumulative IPC: 0.332665 (Simulation time: 0 hr 15 min 41 sec) 
Heartbeat CPU 0 instructions: 180000000 cycles: 405354159 heartbeat IPC: 0.333353 cumulative IPC: 0.332717 (Simulation time: 0 hr 16 min 37 sec) 
*** Reached end of trace for Core: 0 Repeating trace: traces/spec2k17/srv_43.champsimtrace.xz
Heartbeat CPU 0 instructions: 190000002 cycles: 435369735 heartbeat IPC: 0.33316 cumulative IPC: 0.332749 (Simulation time: 0 hr 17 min 38 sec) 
Heartbeat CPU 0 instructions: 200000001 cycles: 465445134 heartbeat IPC: 0.332498 cumulative IPC: 0.332732 (Simulation time: 0 hr 18 min 34 sec) 
Heartbeat CPU 0 instructions: 210000002 cycles: 495427477 heartbeat IPC: 0.33353 cumulative IPC: 0.332782 (Simulation time: 0 hr 19 min 26 sec) 
*** Reached end of trace for Core: 0 Repeating trace: traces/spec2k17/srv_43.champsimtrace.xz
Heartbeat CPU 0 instructions: 220000000 cycles: 525462279 heartbeat IPC: 0.332947 cumulative IPC: 0.332792 (Simulation time: 0 hr 20 min 22 sec) 
Heartbeat CPU 0 instructions: 230000003 cycles: 555517159 heartbeat IPC: 0.332725 cumulative IPC: 0.332788 (Simulation time: 0 hr 21 min 26 sec) 
Heartbeat CPU 0 instructions: 240000000 cycles: 585430114 heartbeat IPC: 0.334303 cumulative IPC: 0.332867 (Simulation time: 0 hr 22 min 23 sec) 
*** Reached end of trace for Core: 0 Repeating trace: traces/spec2k17/srv_43.champsimtrace.xz
Heartbeat CPU 0 instructions: 250000000 cycles: 615436697 heartbeat IPC: 0.33326 cumulative IPC: 0.332887 (Simulation time: 0 hr 23 min 20 sec) 
Finished CPU 0 instructions: 200000001 cycles: 600804415 cumulative IPC: 0.332887 (Simulation time: 0 hr 23 min 20 sec) 

ChampSim completed all CPUs

Region of Interest Statistics

CPU 0 cumulative IPC: 0.332887 instructions: 200000001 cycles: 600804415
ITLB TOTAL     ACCESS:   34768615  HIT:   33123014  MISS:    1645601  HIT %:     95.267  MISS %:    4.73301   MPKI: 8.228
ITLB LOAD TRANSLATION ACCESS:   34768615  HIT:   33123014  MISS:    1645601  HIT %:     95.267  MISS %:    4.73301   MPKI: 8.228
ITLB PREFETCH  REQUESTED:          0  ISSUED:          0  USEFUL:          0  USELESS:          0
ITLB USEFUL LOAD PREFETCHES:          0 PREFETCH ISSUED TO LOWER LEVEL:          0  ACCURACY: -nan
ITLB TIMELY PREFETCHES:          0 LATE PREFETCHES: 0 DROPPED PREFETCHES: 0
ITLB PREFETCHES SAME FILL-ORIGIN LEVEL: 0 DIFFERENT FILL-ORIGIN LEVEL: 0
ITLB AVERAGE MISS LATENCY: 9.67274 cycles
ITLB RQ	ACCESS:   40684312	FORWARD:          0	MERGED:    5425019	TO_CACHE:   35259293

DTLB TOTAL     ACCESS:   45889683  HIT:   44078519  MISS:    1811164  HIT %:    96.0532  MISS %:    3.94678   MPKI: 9.05582
DTLB LOAD TRANSLATION ACCESS:   45889683  HIT:   44078519  MISS:    1811164  HIT %:    96.0532  MISS %:    3.94678   MPKI: 9.05582
DTLB PREFETCH  REQUESTED:          0  ISSUED:          0  USEFUL:          0  USELESS:          0
DTLB USEFUL LOAD PREFETCHES:          0 PREFETCH ISSUED TO LOWER LEVEL:          0  ACCURACY: -nan
DTLB TIMELY PREFETCHES:          0 LATE PREFETCHES: 0 DROPPED PREFETCHES: 0
DTLB PREFETCHES SAME FILL-ORIGIN LEVEL: 0 DIFFERENT FILL-ORIGIN LEVEL: 0
DTLB AVERAGE MISS LATENCY: 12.2122 cycles
DTLB RQ	ACCESS:   61034762	FORWARD:          0	MERGED:   15027117	TO_CACHE:   46007645

STLB TOTAL     ACCESS:    5649952  HIT:    5531871  MISS:     118081  HIT %:    97.9101  MISS %:    2.08995   MPKI: 0.590405
STLB LOAD TRANSLATION ACCESS:    3456765  HIT:    3338689  MISS:     118076  HIT %:    96.5842  MISS %:    3.41579   MPKI: 0.59038
STLB TRANSLATION FROM L1D PREFETCHER ACCESS:    2193187  HIT:    2193182  MISS:          5  HIT %:    99.9998  MISS %: 0.000227979   MPKI: 2.5e-05
STLB PREFETCH  REQUESTED:          0  ISSUED:          0  USEFUL:          5  USELESS:          0
STLB USEFUL LOAD PREFETCHES:          5 PREFETCH ISSUED TO LOWER LEVEL:          0  ACCURACY: inf
STLB TIMELY PREFETCHES:          5 LATE PREFETCHES: 0 DROPPED PREFETCHES: 0
STLB PREFETCHES SAME FILL-ORIGIN LEVEL: 0 DIFFERENT FILL-ORIGIN LEVEL: 0
STLB AVERAGE MISS LATENCY: 58.3432 cycles
STLB RQ	ACCESS:    6540253	FORWARD:          0	MERGED:     890301	TO_CACHE:    5649952

STLB Hit, L1D data hit: 0
STLB Hit, L2C data hit: 0
STLB Hit, LLC data hit: 0
STLB Hit, LLC data miss: 0
STLB STLB hints to L2: 0
L1D TOTAL     ACCESS:   62001829  HIT:   56740104  MISS:    5261725  HIT %:    91.5136  MISS %:     8.4864   MPKI: 26.3086
L1D LOAD      ACCESS:   35372376  HIT:   32220937  MISS:    3151439  HIT %:    91.0907  MISS %:    8.90932   MPKI: 15.7572
L1D RFO       ACCESS:   23628299  HIT:   22379245  MISS:    1249054  HIT %:    94.7137  MISS %:    5.28626   MPKI: 6.24527
L1D PREFETCH  ACCESS:    3001154  HIT:    2139922  MISS:     861232  HIT %:    71.3033  MISS %:    28.6967   MPKI: 4.30616
AGUS PREFETCH L1 MISS: 0
L1D PREFETCH  REQUESTED:    6168073  ISSUED:    6167910  USEFUL:     207945  USELESS:     653327
L1D USEFUL LOAD PREFETCHES:     207945 PREFETCH ISSUED TO LOWER LEVEL:     886218  ACCURACY: 23.4643
L1D TIMELY PREFETCHES:     207945 LATE PREFETCHES: 23192 DROPPED PREFETCHES: 0
L1D PREFETCHES SAME FILL-ORIGIN LEVEL: 886218 DIFFERENT FILL-ORIGIN LEVEL: 0
L1D AVERAGE MISS LATENCY: 1.48724e+06 cycles
L1D RQ	ACCESS:   46601661	FORWARD:          0	MERGED:   10887592	TO_CACHE:   35500779
L1D WQ	ACCESS:   25869328	FORWARD:     214224	MERGED:     335345	TO_CACHE:   25533983
L1D PQ	ACCESS:    3084422	FORWARD:          0	MERGED:          0	TO_CACHE:    3083488

L1D UNIQUE REGIONS ACCESSED: 0
L1D REGIONS CONFLICTS: 0
L1D Cross Page Prefetch Requests: 0
L1D Same Page Prefetch Requests: 3799749
L1D ROI Sum of L1D PQ occupancy: 39667781
L1D PREFETCHES PUSHED FROM L2C: 0
L1I TOTAL     ACCESS:   39401188  HIT:   30962740  MISS:    8438448  HIT %:    78.5833  MISS %:    21.4167   MPKI: 42.1922
L1I LOAD      ACCESS:   39401188  HIT:   30962740  MISS:    8438448  HIT %:    78.5833  MISS %:    21.4167   MPKI: 42.1922
L1I PREFETCH  REQUESTED:          0  ISSUED:          0  USEFUL:          0  USELESS:          0
L1I USEFUL LOAD PREFETCHES:          0 PREFETCH ISSUED TO LOWER LEVEL:          0  ACCURACY: -nan
L1I TIMELY PREFETCHES:          0 LATE PREFETCHES: 0 DROPPED PREFETCHES: 0
L1I PREFETCHES SAME FILL-ORIGIN LEVEL: 0 DIFFERENT FILL-ORIGIN LEVEL: 0
L1I AVERAGE MISS LATENCY: 19.9277 cycles
L1I RQ	ACCESS:   60005444	FORWARD:          0	MERGED:   19321132	TO_CACHE:   40684312

BTB TOTAL     ACCESS:   29897603  HIT:   19967868  MISS:    9929735  HIT %:    66.7875  MISS %:    33.2125   MPKI: 49.6487
BTB BRANCH_DIRECT_JUMP	ACCESS:    2615827  HIT:    1794124  MISS:     821703
BTB BRANCH_INDIRECT	ACCESS:   12513602  HIT:    8361778  MISS:    4151824
BTB BRANCH_CONDITIONAL	ACCESS:    6697250  HIT:    5806240  MISS:     891010
BTB BRANCH_DIRECT_CALL	ACCESS:    3083799  HIT:    1615768  MISS:    1468031
BTB BRANCH_INDIRECT_CALL	ACCESS:     951675  HIT:     669300  MISS:     282375
BTB BRANCH_RETURN	ACCESS:    4035450  HIT:    1720658  MISS:    2314792
BTB BRANCH_OTHER ACCESS:          0  HIT:          0  MISS:          0

L2C TOTAL     ACCESS:   16019086  HIT:   12246843  MISS:    3772243  HIT %:    76.4516  MISS %:    23.5484   MPKI: 18.8612
L2C LOAD      ACCESS:   11566655  HIT:    9010797  MISS:    2555858  HIT %:    77.9032  MISS %:    22.0968   MPKI: 12.7793
L2C DATA LOAD MPKI: 4.6985
L2C INSTRUCTION LOAD MPKI: 8.08078
L2C RFO       ACCESS:    1247260  HIT:     694536  MISS:     552724  HIT %:    55.6849  MISS %:    44.3151   MPKI: 2.76362
L2C PREFETCH  ACCESS:     886217  HIT:     421448  MISS:     464769  HIT %:    47.5558  MISS %:    52.4442   MPKI: 2.32384
AGUS PREFETCH L1 MISS: 0
L2C DATA PREFETCH MPKI: 2.32384
L2C INSTRUCTION PREFETCH MPKI: 0
L2C WRITEBACK ACCESS:    2111313  HIT:    2006550  MISS:     104763  HIT %:     95.038  MISS %:    4.96198   MPKI: 0.523815
L2C LOAD TRANSLATION ACCESS:     207631  HIT:     113507  MISS:      94124  HIT %:    54.6677  MISS %:    45.3323   MPKI: 0.47062
L2C TRANSLATION FROM L1D PREFETCHER ACCESS:         10  HIT:          5  MISS:          5  HIT %:         50  MISS %:         50   MPKI: 2.5e-05
L2C PREFETCH  REQUESTED:          0  ISSUED:          0  USEFUL:      15448  USELESS:     449332
L2C USEFUL LOAD PREFETCHES:      15448 PREFETCH ISSUED TO LOWER LEVEL:     464770  ACCURACY: 3.32379
L2C TIMELY PREFETCHES:      15448 LATE PREFETCHES: 0 DROPPED PREFETCHES: 0
L2C PREFETCHES SAME FILL-ORIGIN LEVEL: 0 DIFFERENT FILL-ORIGIN LEVEL: 0
L2C AVERAGE MISS LATENCY: 36.2176 cycles
L2C RQ	ACCESS:   13021597	FORWARD:          0	MERGED:          0	TO_CACHE:   13021556
L2C WQ	ACCESS:    2111313	FORWARD:         41	MERGED:          0	TO_CACHE:    2111313
L2C PQ	ACCESS:     886218	FORWARD:          0	MERGED:          0	TO_CACHE:     886218

L2C Instructions Evicting Data 725880
L2C Translations Evicting Data 65198
L2C Data Evicting Data 1206136
L2C Instructions Evicting Instructions 863459
L2C Translations Evicting Instructions 25832
L2C Data Evicting Instructions 689489
L2C Instructions Evicting Translations 26818
L2C Translations Evicting Translations 3099
L2C Data Evicting Translations 61569
L2C Dense regions hint from L2: 0
PSCL5 TOTAL     ACCESS:     118081  HIT:     118081  MISS:          0  HIT %:        100  MISS %:          0   MPKI: 0
PSCL5 LOAD TRANSLATION ACCESS:     118076  HIT:     118076  MISS:          0  HIT %:        100  MISS %:          0   MPKI: 0
PSCL5 TRANSLATION FROM L1D PREFETCHER ACCESS:          5  HIT:          5  MISS:          0  HIT %:        100  MISS %:          0   MPKI: 0
PSCL5 PREFETCH  REQUESTED:          0  ISSUED:          0  USEFUL:          0  USELESS:          0
PSCL5 USEFUL LOAD PREFETCHES:          0 PREFETCH ISSUED TO LOWER LEVEL:          0  ACCURACY: -nan
PSCL5 TIMELY PREFETCHES:          0 LATE PREFETCHES: 0 DROPPED PREFETCHES: 0
PSCL5 PREFETCHES SAME FILL-ORIGIN LEVEL: 0 DIFFERENT FILL-ORIGIN LEVEL: 0

PSCL4 TOTAL     ACCESS:     111650  HIT:     108328  MISS:       3322  HIT %:    97.0246  MISS %:    2.97537   MPKI: 0.01661
PSCL4 LOAD TRANSLATION ACCESS:     111645  HIT:     108323  MISS:       3322  HIT %:    97.0245  MISS %:     2.9755   MPKI: 0.01661
PSCL4 TRANSLATION FROM L1D PREFETCHER ACCESS:          5  HIT:          5  MISS:          0  HIT %:        100  MISS %:          0   MPKI: 0
PSCL4 PREFETCH  REQUESTED:          0  ISSUED:          0  USEFUL:          0  USELESS:          0
PSCL4 USEFUL LOAD PREFETCHES:          0 PREFETCH ISSUED TO LOWER LEVEL:          0  ACCURACY: -nan
PSCL4 TIMELY PREFETCHES:          0 LATE PREFETCHES: 0 DROPPED PREFETCHES: 0
PSCL4 PREFETCHES SAME FILL-ORIGIN LEVEL: 0 DIFFERENT FILL-ORIGIN LEVEL: 0

PSCL3 TOTAL     ACCESS:     111184  HIT:      87633  MISS:      23551  HIT %:     78.818  MISS %:     21.182   MPKI: 0.117755
PSCL3 LOAD TRANSLATION ACCESS:     111180  HIT:      87629  MISS:      23551  HIT %:    78.8172  MISS %:    21.1828   MPKI: 0.117755
PSCL3 TRANSLATION FROM L1D PREFETCHER ACCESS:          4  HIT:          4  MISS:          0  HIT %:        100  MISS %:          0   MPKI: 0
PSCL3 PREFETCH  REQUESTED:          0  ISSUED:          0  USEFUL:          0  USELESS:          0
PSCL3 USEFUL LOAD PREFETCHES:          0 PREFETCH ISSUED TO LOWER LEVEL:          0  ACCURACY: -nan
PSCL3 TIMELY PREFETCHES:          0 LATE PREFETCHES: 0 DROPPED PREFETCHES: 0
PSCL3 PREFETCHES SAME FILL-ORIGIN LEVEL: 0 DIFFERENT FILL-ORIGIN LEVEL: 0

PSCL2 TOTAL     ACCESS:     118081  HIT:      55394  MISS:      62687  HIT %:    46.9119  MISS %:    53.0881   MPKI: 0.313435
PSCL2 LOAD TRANSLATION ACCESS:     118080  HIT:      55393  MISS:      62687  HIT %:    46.9114  MISS %:    53.0886   MPKI: 0.313435
PSCL2 TRANSLATION FROM L1D PREFETCHER ACCESS:          1  HIT:          1  MISS:          0  HIT %:        100  MISS %:          0   MPKI: 0
PSCL2 PREFETCH  REQUESTED:          0  ISSUED:          0  USEFUL:          0  USELESS:          0
PSCL2 USEFUL LOAD PREFETCHES:          0 PREFETCH ISSUED TO LOWER LEVEL:          0  ACCURACY: -nan
PSCL2 TIMELY PREFETCHES:          0 LATE PREFETCHES: 0 DROPPED PREFETCHES: 0
PSCL2 PREFETCHES SAME FILL-ORIGIN LEVEL: 0 DIFFERENT FILL-ORIGIN LEVEL: 0

LLC TOTAL     ACCESS:    4503776  HIT:    4334087  MISS:     169689  HIT %:    96.2323  MISS %:    3.76771   MPKI: 0.848445
LLC LOAD      ACCESS:    2555857  HIT:    2477700  MISS:      78157  HIT %:     96.942  MISS %:    3.05796   MPKI: 0.390785
LLC RFO       ACCESS:     552724  HIT:     520114  MISS:      32610  HIT %:    94.1001  MISS %:    5.89987   MPKI: 0.16305
LLC PREFETCH  ACCESS:     464769  HIT:     411133  MISS:      53636  HIT %:    88.4596  MISS %:    11.5404   MPKI: 0.26818
AGUS PREFETCH L1 MISS: 0
LLC WRITEBACK ACCESS:     836297  HIT:     835860  MISS:        437  HIT %:    99.9477  MISS %:  0.0522542   MPKI: 0.002185
LLC LOAD TRANSLATION ACCESS:      94124  HIT:      89275  MISS:       4849  HIT %:    94.8483  MISS %:    5.15171   MPKI: 0.024245
LLC TRANSLATION FROM L1D PREFETCHER ACCESS:          5  HIT:          5  MISS:          0  HIT %:        100  MISS %:          0   MPKI: 0
LLC PREFETCH  REQUESTED:          0  ISSUED:          0  USEFUL:       1874  USELESS:      51503
LLC USEFUL LOAD PREFETCHES:       1874 PREFETCH ISSUED TO LOWER LEVEL:      53637  ACCURACY: 3.49386
LLC TIMELY PREFETCHES:       1874 LATE PREFETCHES: 0 DROPPED PREFETCHES: 0
LLC PREFETCHES SAME FILL-ORIGIN LEVEL: 0 DIFFERENT FILL-ORIGIN LEVEL: 0
LLC AVERAGE MISS LATENCY: 156.736 cycles
LLC RQ	ACCESS:    3202711	FORWARD:          0	MERGED:          0	TO_CACHE:    3202710
LLC WQ	ACCESS:     836298	FORWARD:          1	MERGED:          0	TO_CACHE:     836298
LLC PQ	ACCESS:     464770	FORWARD:          0	MERGED:          0	TO_CACHE:     464770

LLC Dense regions hint to LLC: 0

RAW hits: 3181853
Loads Generated: 49783514
Loads sent to L1D: 46601661
Stores Generated: 25869307
Stores sent to L1D: 25869328
Major fault: 0 Minor fault: 4436
Allocated PAGES: 4436

stream: 
stream:times selected: 4850534
stream:pref_filled: 743441
stream:pref_useful: 179011
stream:pref_late: 14233
stream:misses: 81519
stream:misses_by_poll: 0

CS: 
CS:times selected: 166062
CS:pref_filled: 54143
CS:pref_useful: 29160
CS:pref_late: 7395
CS:misses: 23967
CS:misses_by_poll: 0

CPLX: 
CPLX:times selected: 4671903
CPLX:pref_filled: 266052
CPLX:pref_useful: 47936
CPLX:pref_late: 2693
CPLX:misses: 383849
CPLX:misses_by_poll: 86

NL_L1: 
NL:times selected: 29925
NL:pref_filled: 10945
NL:pref_useful: 3341
NL:pref_late: 300
NL:misses: 2567
NL:misses_by_poll: 0

total selections: 9718424
total_filled: 861232
total_useful: 207945
total_late: 26648
total_polluted: 86
total_misses_after_warmup: 3279843
conflicts: 9920300
Degree Incremented Times: 0
Degree Decremented Times: 527649

L1 IP Table Write Accesses: 23934805
L1 IP Table Read Accesses: 14014505
L1 RST Write Accesses: 3942570
L1 RST Read Accesses: 7885140
L1 CSPT Write Accesses: 3942570
L1 CSPT Read Accesses: 7742243
L1 RR Filter Tag Write Accesses: 3084585
L1 RR Filter Tag Read Accesses: 151936707
L1 IP Table Tag Write Accesses: 35500780
L1 IP Table Tag Read Accesses: 35500780
L1 RST Tag Write Accesses: 0
L1 RST Tag Read Accesses: 33903711
L1 RR Filter Write Accesses: 0
L1 RR Filter Read Accesses: 5417324
test: 1262722

DRAM Statistics
 CHANNEL 0
 RQ ROW_BUFFER_HIT:      41928  ROW_BUFFER_MISS:     127322
 DBUS_CONGESTED:        185
 WQ ROW_BUFFER_HIT:       9163  ROW_BUFFER_MISS:      64002  FULL:          0

 AVG_CONGESTED_CYCLE: 4
 All warmup complete: 2
Channel 0 Bank busy for read cycles: 0
Channel 0 Bank busy for write cycles: 0
Channel 0
Rank 0
0banks busy for read cycles: 576904776
0banks busy for write cycles: 42578
1banks busy for read cycles: 11562172
1banks busy for write cycles: 6083868
2banks busy for read cycles: 2815010
2banks busy for write cycles: 1493491
3banks busy for read cycles: 666414
3banks busy for write cycles: 466122
4banks busy for read cycles: 115665
4banks busy for write cycles: 149662
5banks busy for read cycles: 47169
5banks busy for write cycles: 51768
6banks busy for read cycles: 35409
6banks busy for write cycles: 24823
7banks busy for read cycles: 41002
7banks busy for write cycles: 29764
8banks busy for read cycles: 102686
8banks busy for write cycles: 172037

CPU 0 Branch Prediction Accuracy: 99.8237% MPKI: 0.313695 Average ROB Occupancy at Mispredict: 37.878
Branch types
NOT_BRANCH: 164410969 82.2055%
BRANCH_DIRECT_JUMP: 2615827 1.30791%
BRANCH_INDIRECT: 12513602 6.2568%
BRANCH_CONDITIONAL: 12388308 6.19415%
BRANCH_DIRECT_CALL: 3083799 1.5419%
BRANCH_INDIRECT_CALL: 951675 0.475837%
BRANCH_RETURN: 4035450 2.01772%
BRANCH_OTHER: 0 0%

DRAM PAGES: 1048576
Allocated PAGES: 4436
