
*** ChampSim Multicore Out-of-Order Simulator ***

Warmup Instructions: 50000000
Simulation Instructions: 200000000
Number of CPUs: 1
LLC sets: 2048
LLC ways: 16
Off-chip DRAM Size: 4096 MB Channels: 1 Width: 64-bit Data Rate: 6400 MT/s
CPU 0 runs traces/spec2k17/srv_48.champsimtrace.xz
.xz
BTB has LRU replacement policy
ITLB has LRU replacement policy
DTLB has LRU replacement policy
STLB has LRU replacement policy
L1I has LRU replacement policy
IP Table Entries: 1024
CSPT Entries: 128
RR_ENTRIES: 32
RST_ENTRIES: 8
L1D has LRU replacement policy
Initialize SRRIP state for L2C
Initialize DRRIP state for LLC
Heartbeat CPU 0 instructions: 10000001 cycles: 2944322 heartbeat IPC: 3.39637 cumulative IPC: 3.39637 (Simulation time: 0 hr 0 min 52 sec) 
Heartbeat CPU 0 instructions: 20000001 cycles: 5881666 heartbeat IPC: 3.40444 cumulative IPC: 3.4004 (Simulation time: 0 hr 1 min 51 sec) 
Heartbeat CPU 0 instructions: 30000001 cycles: 8767065 heartbeat IPC: 3.46573 cumulative IPC: 3.4219 (Simulation time: 0 hr 2 min 47 sec) 
*** Reached end of trace for Core: 0 Repeating trace: traces/spec2k17/srv_48.champsimtrace.xz
Heartbeat CPU 0 instructions: 40000002 cycles: 11702702 heartbeat IPC: 3.40642 cumulative IPC: 3.41801 (Simulation time: 0 hr 3 min 38 sec) 
Heartbeat CPU 0 instructions: 50000001 cycles: 14640481 heartbeat IPC: 3.40393 cumulative IPC: 3.41519 (Simulation time: 0 hr 4 min 26 sec) 

Warmup complete CPU 0 instructions: 50000001 cycles: 14640481 (Simulation time: 0 hr 4 min 26 sec) 

Heartbeat CPU 0 instructions: 60000001 cycles: 34533067 heartbeat IPC: 0.5027 cumulative IPC: 0.5027 (Simulation time: 0 hr 5 min 21 sec) 
*** Reached end of trace for Core: 0 Repeating trace: traces/spec2k17/srv_48.champsimtrace.xz
Heartbeat CPU 0 instructions: 70000000 cycles: 56665679 heartbeat IPC: 0.451822 cumulative IPC: 0.475905 (Simulation time: 0 hr 6 min 17 sec) 
Heartbeat CPU 0 instructions: 80000002 cycles: 82105396 heartbeat IPC: 0.393086 cumulative IPC: 0.444676 (Simulation time: 0 hr 7 min 13 sec) 
Heartbeat CPU 0 instructions: 90000000 cycles: 103228302 heartbeat IPC: 0.47342 cumulative IPC: 0.451529 (Simulation time: 0 hr 8 min 3 sec) 
*** Reached end of trace for Core: 0 Repeating trace: traces/spec2k17/srv_48.champsimtrace.xz
Heartbeat CPU 0 instructions: 100000001 cycles: 124791268 heartbeat IPC: 0.463758 cumulative IPC: 0.453923 (Simulation time: 0 hr 8 min 48 sec) 
Heartbeat CPU 0 instructions: 110000000 cycles: 151011114 heartbeat IPC: 0.38139 cumulative IPC: 0.439977 (Simulation time: 0 hr 9 min 51 sec) 
Heartbeat CPU 0 instructions: 120000003 cycles: 171488862 heartbeat IPC: 0.488335 cumulative IPC: 0.446291 (Simulation time: 0 hr 10 min 36 sec) 
*** Reached end of trace for Core: 0 Repeating trace: traces/spec2k17/srv_48.champsimtrace.xz
Heartbeat CPU 0 instructions: 130000002 cycles: 193634711 heartbeat IPC: 0.451552 cumulative IPC: 0.446942 (Simulation time: 0 hr 11 min 32 sec) 
Heartbeat CPU 0 instructions: 140000003 cycles: 219721608 heartbeat IPC: 0.383334 cumulative IPC: 0.438851 (Simulation time: 0 hr 12 min 22 sec) 
Heartbeat CPU 0 instructions: 150000003 cycles: 240239200 heartbeat IPC: 0.487387 cumulative IPC: 0.443265 (Simulation time: 0 hr 13 min 14 sec) 
*** Reached end of trace for Core: 0 Repeating trace: traces/spec2k17/srv_48.champsimtrace.xz
Heartbeat CPU 0 instructions: 160000003 cycles: 262605386 heartbeat IPC: 0.447104 cumulative IPC: 0.443611 (Simulation time: 0 hr 14 min 8 sec) 
Heartbeat CPU 0 instructions: 170000001 cycles: 288158142 heartbeat IPC: 0.391347 cumulative IPC: 0.438729 (Simulation time: 0 hr 14 min 57 sec) 
Heartbeat CPU 0 instructions: 180000000 cycles: 308785076 heartbeat IPC: 0.484803 cumulative IPC: 0.44196 (Simulation time: 0 hr 15 min 49 sec) 
*** Reached end of trace for Core: 0 Repeating trace: traces/spec2k17/srv_48.champsimtrace.xz
Heartbeat CPU 0 instructions: 190000003 cycles: 331477135 heartbeat IPC: 0.440683 cumulative IPC: 0.441868 (Simulation time: 0 hr 16 min 42 sec) 
Heartbeat CPU 0 instructions: 200000000 cycles: 355885917 heartbeat IPC: 0.409689 cumulative IPC: 0.439566 (Simulation time: 0 hr 17 min 36 sec) 
Heartbeat CPU 0 instructions: 210000001 cycles: 378154588 heartbeat IPC: 0.449061 cumulative IPC: 0.440148 (Simulation time: 0 hr 18 min 35 sec) 
*** Reached end of trace for Core: 0 Repeating trace: traces/spec2k17/srv_48.champsimtrace.xz
Heartbeat CPU 0 instructions: 220000000 cycles: 400079025 heartbeat IPC: 0.456112 cumulative IPC: 0.441056 (Simulation time: 0 hr 19 min 30 sec) 
Heartbeat CPU 0 instructions: 230000003 cycles: 424682705 heartbeat IPC: 0.406443 cumulative IPC: 0.438979 (Simulation time: 0 hr 20 min 23 sec) 
Heartbeat CPU 0 instructions: 240000003 cycles: 447703437 heartbeat IPC: 0.434391 cumulative IPC: 0.438735 (Simulation time: 0 hr 21 min 15 sec) 
*** Reached end of trace for Core: 0 Repeating trace: traces/spec2k17/srv_48.champsimtrace.xz
Heartbeat CPU 0 instructions: 250000000 cycles: 468717162 heartbeat IPC: 0.475879 cumulative IPC: 0.440454 (Simulation time: 0 hr 21 min 57 sec) 
Finished CPU 0 instructions: 200000001 cycles: 454076697 cumulative IPC: 0.440454 (Simulation time: 0 hr 21 min 57 sec) 

ChampSim completed all CPUs

Region of Interest Statistics

CPU 0 cumulative IPC: 0.440454 instructions: 200000001 cycles: 454076697
ITLB TOTAL     ACCESS:   34346394  HIT:   33297424  MISS:    1048970  HIT %:    96.9459  MISS %:    3.05409   MPKI: 5.24485
ITLB LOAD TRANSLATION ACCESS:   34346394  HIT:   33297424  MISS:    1048970  HIT %:    96.9459  MISS %:    3.05409   MPKI: 5.24485
ITLB PREFETCH  REQUESTED:          0  ISSUED:          0  USEFUL:          0  USELESS:          0
ITLB USEFUL LOAD PREFETCHES:          0 PREFETCH ISSUED TO LOWER LEVEL:          0  ACCURACY: -nan
ITLB TIMELY PREFETCHES:          0 LATE PREFETCHES: 0 DROPPED PREFETCHES: 0
ITLB PREFETCHES SAME FILL-ORIGIN LEVEL: 0 DIFFERENT FILL-ORIGIN LEVEL: 0
ITLB AVERAGE MISS LATENCY: 10.059 cycles
ITLB RQ	ACCESS:   39529261	FORWARD:          0	MERGED:    4885152	TO_CACHE:   34644109

DTLB TOTAL     ACCESS:   43290523  HIT:   42255267  MISS:    1035256  HIT %:    97.6086  MISS %:    2.39141   MPKI: 5.17628
DTLB LOAD TRANSLATION ACCESS:   43290523  HIT:   42255267  MISS:    1035256  HIT %:    97.6086  MISS %:    2.39141   MPKI: 5.17628
DTLB PREFETCH  REQUESTED:          0  ISSUED:          0  USEFUL:          0  USELESS:          0
DTLB USEFUL LOAD PREFETCHES:          0 PREFETCH ISSUED TO LOWER LEVEL:          0  ACCURACY: -nan
DTLB TIMELY PREFETCHES:          0 LATE PREFETCHES: 0 DROPPED PREFETCHES: 0
DTLB PREFETCHES SAME FILL-ORIGIN LEVEL: 0 DIFFERENT FILL-ORIGIN LEVEL: 0
DTLB AVERAGE MISS LATENCY: 14.8204 cycles
DTLB RQ	ACCESS:   58574852	FORWARD:          0	MERGED:   15200761	TO_CACHE:   43374091

STLB TOTAL     ACCESS:    3998595  HIT:    3920080  MISS:      78515  HIT %:    98.0364  MISS %:    1.96356   MPKI: 0.392575
STLB LOAD TRANSLATION ACCESS:    2084226  HIT:    2005845  MISS:      78381  HIT %:    96.2393  MISS %:    3.76068   MPKI: 0.391905
STLB TRANSLATION FROM L1D PREFETCHER ACCESS:    1914369  HIT:    1914235  MISS:        134  HIT %:     99.993  MISS %:  0.0069997   MPKI: 0.00067
STLB PREFETCH  REQUESTED:          0  ISSUED:          0  USEFUL:        125  USELESS:          9
STLB USEFUL LOAD PREFETCHES:        125 PREFETCH ISSUED TO LOWER LEVEL:          0  ACCURACY: inf
STLB TIMELY PREFETCHES:        125 LATE PREFETCHES: 0 DROPPED PREFETCHES: 0
STLB PREFETCHES SAME FILL-ORIGIN LEVEL: 0 DIFFERENT FILL-ORIGIN LEVEL: 0
STLB AVERAGE MISS LATENCY: 90.7836 cycles
STLB RQ	ACCESS:    5135626	FORWARD:          0	MERGED:    1137030	TO_CACHE:    3998596

STLB Hit, L1D data hit: 0
STLB Hit, L2C data hit: 0
STLB Hit, LLC data hit: 0
STLB Hit, LLC data miss: 0
STLB STLB hints to L2: 0
L1D TOTAL     ACCESS:   59464383  HIT:   56773563  MISS:    2690820  HIT %:    95.4749  MISS %:     4.5251   MPKI: 13.4541
L1D LOAD      ACCESS:   36379243  HIT:   34917353  MISS:    1461890  HIT %:    95.9815  MISS %:    4.01847   MPKI: 7.30945
L1D RFO       ACCESS:   20134936  HIT:   19321825  MISS:     813111  HIT %:    95.9617  MISS %:    4.03831   MPKI: 4.06555
L1D PREFETCH  ACCESS:    2950204  HIT:    2534385  MISS:     415819  HIT %:    85.9054  MISS %:    14.0946   MPKI: 2.07909
AGUS PREFETCH L1 MISS: 0
L1D PREFETCH  REQUESTED:    6104251  ISSUED:    6104011  USEFUL:     169048  USELESS:     246740
L1D USEFUL LOAD PREFETCHES:     169048 PREFETCH ISSUED TO LOWER LEVEL:     465438  ACCURACY: 36.3202
L1D TIMELY PREFETCHES:     169048 LATE PREFETCHES: 46799 DROPPED PREFETCHES: 0
L1D PREFETCHES SAME FILL-ORIGIN LEVEL: 465438 DIFFERENT FILL-ORIGIN LEVEL: 0
L1D AVERAGE MISS LATENCY: 4.39818e+06 cycles
L1D RQ	ACCESS:   51378044	FORWARD:          0	MERGED:   14700997	TO_CACHE:   36470954
L1D WQ	ACCESS:   22494716	FORWARD:     207304	MERGED:     390818	TO_CACHE:   22103898
L1D PQ	ACCESS:    3052611	FORWARD:          0	MERGED:          0	TO_CACHE:    3051400

L1D UNIQUE REGIONS ACCESSED: 0
L1D REGIONS CONFLICTS: 0
L1D Cross Page Prefetch Requests: 0
L1D Same Page Prefetch Requests: 3737913
L1D ROI Sum of L1D PQ occupancy: 39891173
L1D PREFETCHES PUSHED FROM L2C: 0
L1I TOTAL     ACCESS:   38917459  HIT:   34636962  MISS:    4280497  HIT %:    89.0011  MISS %:    10.9989   MPKI: 21.4025
L1I LOAD      ACCESS:   38917459  HIT:   34636962  MISS:    4280497  HIT %:    89.0011  MISS %:    10.9989   MPKI: 21.4025
L1I PREFETCH  REQUESTED:          0  ISSUED:          0  USEFUL:          0  USELESS:          0
L1I USEFUL LOAD PREFETCHES:          0 PREFETCH ISSUED TO LOWER LEVEL:          0  ACCURACY: -nan
L1I TIMELY PREFETCHES:          0 LATE PREFETCHES: 0 DROPPED PREFETCHES: 0
L1I PREFETCHES SAME FILL-ORIGIN LEVEL: 0 DIFFERENT FILL-ORIGIN LEVEL: 0
L1I AVERAGE MISS LATENCY: 23.5856 cycles
L1I RQ	ACCESS:   59773081	FORWARD:          0	MERGED:   20243820	TO_CACHE:   39529261

BTB TOTAL     ACCESS:   30523112  HIT:   24853883  MISS:    5669229  HIT %:    81.4264  MISS %:    18.5736   MPKI: 28.3461
BTB BRANCH_DIRECT_JUMP	ACCESS:    2968490  HIT:    2593261  MISS:     375229
BTB BRANCH_INDIRECT	ACCESS:   12251247  HIT:   10058571  MISS:    2192676
BTB BRANCH_CONDITIONAL	ACCESS:    7936948  HIT:    7475794  MISS:     461154
BTB BRANCH_DIRECT_CALL	ACCESS:    2719215  HIT:    2029531  MISS:     689684
BTB BRANCH_INDIRECT_CALL	ACCESS:     964038  HIT:     680841  MISS:     283197
BTB BRANCH_RETURN	ACCESS:    3683174  HIT:    2015885  MISS:    1667289
BTB BRANCH_OTHER ACCESS:          0  HIT:          0  MISS:          0

L2C TOTAL     ACCESS:    8324631  HIT:    5699133  MISS:    2625498  HIT %:    68.4611  MISS %:    31.5389   MPKI: 13.1275
L2C LOAD      ACCESS:    5695569  HIT:    4004506  MISS:    1691063  HIT %:    70.3091  MISS %:    29.6909   MPKI: 8.45531
L2C DATA LOAD MPKI: 2.64763
L2C INSTRUCTION LOAD MPKI: 5.80768
L2C RFO       ACCESS:     810276  HIT:     311504  MISS:     498772  HIT %:    38.4442  MISS %:    61.5558   MPKI: 2.49386
L2C PREFETCH  ACCESS:     465419  HIT:     161447  MISS:     303972  HIT %:    34.6885  MISS %:    65.3115   MPKI: 1.51986
AGUS PREFETCH L1 MISS: 0
L2C DATA PREFETCH MPKI: 1.51986
L2C INSTRUCTION PREFETCH MPKI: 0
L2C WRITEBACK ACCESS:    1235595  HIT:    1170852  MISS:      64743  HIT %:    94.7602  MISS %:    5.23982   MPKI: 0.323715
L2C LOAD TRANSLATION ACCESS:     117595  HIT:      50722  MISS:      66873  HIT %:    43.1328  MISS %:    56.8672   MPKI: 0.334365
L2C TRANSLATION FROM L1D PREFETCHER ACCESS:        177  HIT:        102  MISS:         75  HIT %:    57.6271  MISS %:    42.3729   MPKI: 0.000375
L2C PREFETCH  REQUESTED:          0  ISSUED:          0  USEFUL:      10831  USELESS:     292926
L2C USEFUL LOAD PREFETCHES:      10831 PREFETCH ISSUED TO LOWER LEVEL:     303972  ACCURACY: 3.56316
L2C TIMELY PREFETCHES:      10831 LATE PREFETCHES: 0 DROPPED PREFETCHES: 0
L2C PREFETCHES SAME FILL-ORIGIN LEVEL: 0 DIFFERENT FILL-ORIGIN LEVEL: 0
L2C AVERAGE MISS LATENCY: 81.027 cycles
L2C RQ	ACCESS:    6623651	FORWARD:          0	MERGED:          0	TO_CACHE:    6623617
L2C WQ	ACCESS:    1235595	FORWARD:         53	MERGED:          0	TO_CACHE:    1235595
L2C PQ	ACCESS:     465438	FORWARD:          0	MERGED:          0	TO_CACHE:     465419

L2C Instructions Evicting Data 594557
L2C Translations Evicting Data 37793
L2C Data Evicting Data 729706
L2C Instructions Evicting Instructions 539513
L2C Translations Evicting Instructions 27208
L2C Data Evicting Instructions 566205
L2C Instructions Evicting Translations 27467
L2C Translations Evicting Translations 1947
L2C Data Evicting Translations 36359
L2C Dense regions hint from L2: 0
PSCL5 TOTAL     ACCESS:      78515  HIT:      78515  MISS:          0  HIT %:        100  MISS %:          0   MPKI: 0
PSCL5 LOAD TRANSLATION ACCESS:      78381  HIT:      78381  MISS:          0  HIT %:        100  MISS %:          0   MPKI: 0
PSCL5 TRANSLATION FROM L1D PREFETCHER ACCESS:        134  HIT:        134  MISS:          0  HIT %:        100  MISS %:          0   MPKI: 0
PSCL5 PREFETCH  REQUESTED:          0  ISSUED:          0  USEFUL:          0  USELESS:          0
PSCL5 USEFUL LOAD PREFETCHES:          0 PREFETCH ISSUED TO LOWER LEVEL:          0  ACCURACY: -nan
PSCL5 TIMELY PREFETCHES:          0 LATE PREFETCHES: 0 DROPPED PREFETCHES: 0
PSCL5 PREFETCHES SAME FILL-ORIGIN LEVEL: 0 DIFFERENT FILL-ORIGIN LEVEL: 0

PSCL4 TOTAL     ACCESS:      76446  HIT:      75500  MISS:        946  HIT %:    98.7625  MISS %:    1.23747   MPKI: 0.00473
PSCL4 LOAD TRANSLATION ACCESS:      76326  HIT:      75380  MISS:        946  HIT %:    98.7606  MISS %:    1.23942   MPKI: 0.00473
PSCL4 TRANSLATION FROM L1D PREFETCHER ACCESS:        120  HIT:        120  MISS:          0  HIT %:        100  MISS %:          0   MPKI: 0
PSCL4 PREFETCH  REQUESTED:          0  ISSUED:          0  USEFUL:          0  USELESS:          0
PSCL4 USEFUL LOAD PREFETCHES:          0 PREFETCH ISSUED TO LOWER LEVEL:          0  ACCURACY: -nan
PSCL4 TIMELY PREFETCHES:          0 LATE PREFETCHES: 0 DROPPED PREFETCHES: 0
PSCL4 PREFETCHES SAME FILL-ORIGIN LEVEL: 0 DIFFERENT FILL-ORIGIN LEVEL: 0

PSCL3 TOTAL     ACCESS:      71759  HIT:      61882  MISS:       9877  HIT %:    86.2359  MISS %:    13.7641   MPKI: 0.049385
PSCL3 LOAD TRANSLATION ACCESS:      71675  HIT:      61798  MISS:       9877  HIT %:    86.2197  MISS %:    13.7803   MPKI: 0.049385
PSCL3 TRANSLATION FROM L1D PREFETCHER ACCESS:         84  HIT:         84  MISS:          0  HIT %:        100  MISS %:          0   MPKI: 0
PSCL3 PREFETCH  REQUESTED:          0  ISSUED:          0  USEFUL:          0  USELESS:          0
PSCL3 USEFUL LOAD PREFETCHES:          0 PREFETCH ISSUED TO LOWER LEVEL:          0  ACCURACY: -nan
PSCL3 TIMELY PREFETCHES:          0 LATE PREFETCHES: 0 DROPPED PREFETCHES: 0
PSCL3 PREFETCHES SAME FILL-ORIGIN LEVEL: 0 DIFFERENT FILL-ORIGIN LEVEL: 0

PSCL2 TOTAL     ACCESS:      78515  HIT:      50081  MISS:      28434  HIT %:    63.7853  MISS %:    36.2147   MPKI: 0.14217
PSCL2 LOAD TRANSLATION ACCESS:      78414  HIT:      49980  MISS:      28434  HIT %:    63.7386  MISS %:    36.2614   MPKI: 0.14217
PSCL2 TRANSLATION FROM L1D PREFETCHER ACCESS:        101  HIT:        101  MISS:          0  HIT %:        100  MISS %:          0   MPKI: 0
PSCL2 PREFETCH  REQUESTED:          0  ISSUED:          0  USEFUL:          0  USELESS:          0
PSCL2 USEFUL LOAD PREFETCHES:          0 PREFETCH ISSUED TO LOWER LEVEL:          0  ACCURACY: -nan
PSCL2 TIMELY PREFETCHES:          0 LATE PREFETCHES: 0 DROPPED PREFETCHES: 0
PSCL2 PREFETCHES SAME FILL-ORIGIN LEVEL: 0 DIFFERENT FILL-ORIGIN LEVEL: 0

LLC TOTAL     ACCESS:    3221556  HIT:    2503987  MISS:     717569  HIT %:     77.726  MISS %:     22.274   MPKI: 3.58784
LLC LOAD      ACCESS:    1691063  HIT:    1482813  MISS:     208250  HIT %:    87.6853  MISS %:    12.3147   MPKI: 1.04125
LLC RFO       ACCESS:     498771  HIT:     197306  MISS:     301465  HIT %:    39.5584  MISS %:    60.4416   MPKI: 1.50732
LLC PREFETCH  ACCESS:     303972  HIT:     120845  MISS:     183127  HIT %:    39.7553  MISS %:    60.2447   MPKI: 0.915635
AGUS PREFETCH L1 MISS: 0
LLC WRITEBACK ACCESS:     660802  HIT:     653699  MISS:       7103  HIT %:    98.9251  MISS %:    1.07491   MPKI: 0.035515
LLC LOAD TRANSLATION ACCESS:      66873  HIT:      49249  MISS:      17624  HIT %:    73.6456  MISS %:    26.3544   MPKI: 0.08812
LLC TRANSLATION FROM L1D PREFETCHER ACCESS:         75  HIT:         75  MISS:          0  HIT %:        100  MISS %:          0   MPKI: 0
LLC PREFETCH  REQUESTED:          0  ISSUED:          0  USEFUL:       5199  USELESS:     177992
LLC USEFUL LOAD PREFETCHES:       5199 PREFETCH ISSUED TO LOWER LEVEL:     183127  ACCURACY: 2.83901
LLC TIMELY PREFETCHES:       5199 LATE PREFETCHES: 0 DROPPED PREFETCHES: 0
LLC PREFETCHES SAME FILL-ORIGIN LEVEL: 0 DIFFERENT FILL-ORIGIN LEVEL: 0
LLC AVERAGE MISS LATENCY: 189.406 cycles
LLC RQ	ACCESS:    2256783	FORWARD:          0	MERGED:          0	TO_CACHE:    2256782
LLC WQ	ACCESS:     660802	FORWARD:          1	MERGED:          0	TO_CACHE:     660802
LLC PQ	ACCESS:     303972	FORWARD:          0	MERGED:          0	TO_CACHE:     303972

LLC Dense regions hint to LLC: 0

RAW hits: 2391981
Loads Generated: 53770025
Loads sent to L1D: 51378044
Stores Generated: 22494708
Stores sent to L1D: 22494716
Major fault: 0 Minor fault: 5602
Allocated PAGES: 5602

stream: 
stream:times selected: 6145233
stream:pref_filled: 272296
stream:pref_useful: 72442
stream:pref_late: 13776
stream:misses: 32226
stream:misses_by_poll: 0

CS: 
CS:times selected: 547497
CS:pref_filled: 134043
CS:pref_useful: 117043
CS:pref_late: 29921
CS:misses: 49700
CS:misses_by_poll: 111

CPLX: 
CPLX:times selected: 5578622
CPLX:pref_filled: 127715
CPLX:pref_useful: 36391
CPLX:pref_late: 2158
CPLX:misses: 137141
CPLX:misses_by_poll: 50

NL_L1: 
NL:times selected: 32528
NL:pref_filled: 3052
NL:pref_useful: 600
NL:pref_late: 169
NL:misses: 1540
NL:misses_by_poll: 0

total selections: 12303880
total_filled: 415819
total_useful: 169048
total_late: 49964
total_polluted: 161
total_misses_after_warmup: 1553604
conflicts: 6837373
Degree Incremented Times: 152816
Degree Decremented Times: 485105

L1 IP Table Write Accesses: 26826856
L1 IP Table Read Accesses: 19989483
L1 RST Write Accesses: 5027217
L1 RST Read Accesses: 10054434
L1 CSPT Write Accesses: 5027217
L1 CSPT Read Accesses: 9596631
L1 RR Filter Tag Write Accesses: 3052851
L1 RR Filter Tag Read Accesses: 193189336
L1 IP Table Tag Write Accesses: 36470957
L1 IP Table Tag Read Accesses: 36470957
L1 RST Tag Write Accesses: 0
L1 RST Tag Read Accesses: 43072727
L1 RR Filter Write Accesses: 0
L1 RR Filter Read Accesses: 7921926
test: 1174152

DRAM Statistics
 CHANNEL 0
 RQ ROW_BUFFER_HIT:     214177  ROW_BUFFER_MISS:     496289
 DBUS_CONGESTED:        471
 WQ ROW_BUFFER_HIT:      60395  ROW_BUFFER_MISS:     325392  FULL:          0

 AVG_CONGESTED_CYCLE: 4
 All warmup complete: 2
Channel 0 Bank busy for read cycles: 0
Channel 0 Bank busy for write cycles: 0
Channel 0
Rank 0
0banks busy for read cycles: 370323072
0banks busy for write cycles: 140892
1banks busy for read cycles: 35494000
1banks busy for write cycles: 19330698
2banks busy for read cycles: 9248673
2banks busy for write cycles: 6200488
3banks busy for read cycles: 2363741
3banks busy for write cycles: 2341925
4banks busy for read cycles: 764806
4banks busy for write cycles: 1126092
5banks busy for read cycles: 392235
5banks busy for write cycles: 616581
6banks busy for read cycles: 343142
6banks busy for write cycles: 394130
7banks busy for read cycles: 436174
7banks busy for write cycles: 412282
8banks busy for read cycles: 1793328
8banks busy for write cycles: 2354439

CPU 0 Branch Prediction Accuracy: 99.5281% MPKI: 0.817655 Average ROB Occupancy at Mispredict: 21.8177
Branch types
NOT_BRANCH: 165342373 82.6712%
BRANCH_DIRECT_JUMP: 2968490 1.48424%
BRANCH_INDIRECT: 12251247 6.12562%
BRANCH_CONDITIONAL: 12071175 6.03559%
BRANCH_DIRECT_CALL: 2719215 1.35961%
BRANCH_INDIRECT_CALL: 964038 0.482019%
BRANCH_RETURN: 3683174 1.84159%
BRANCH_OTHER: 0 0%

DRAM PAGES: 1048576
Allocated PAGES: 5602
