
*** ChampSim Multicore Out-of-Order Simulator ***

Warmup Instructions: 50000000
Simulation Instructions: 200000000
Number of CPUs: 1
LLC sets: 2048
LLC ways: 16
Off-chip DRAM Size: 4096 MB Channels: 1 Width: 64-bit Data Rate: 6400 MT/s
CPU 0 runs traces/spec2k17/srv_61.champsimtrace.xz
.xz
BTB has LRU replacement policy
ITLB has LRU replacement policy
DTLB has LRU replacement policy
STLB has LRU replacement policy
L1I has LRU replacement policy
IP Table Entries: 1024
CSPT Entries: 128
RR_ENTRIES: 32
RST_ENTRIES: 8
L1D has LRU replacement policy
Initialize SRRIP state for L2C
Initialize DRRIP state for LLC
Heartbeat CPU 0 instructions: 10000002 cycles: 2781648 heartbeat IPC: 3.59499 cumulative IPC: 3.59499 (Simulation time: 0 hr 0 min 48 sec) 
Heartbeat CPU 0 instructions: 20000002 cycles: 5558240 heartbeat IPC: 3.60154 cumulative IPC: 3.59826 (Simulation time: 0 hr 1 min 35 sec) 
Heartbeat CPU 0 instructions: 30000000 cycles: 8336260 heartbeat IPC: 3.59969 cumulative IPC: 3.59874 (Simulation time: 0 hr 2 min 22 sec) 
*** Reached end of trace for Core: 0 Repeating trace: traces/spec2k17/srv_61.champsimtrace.xz
Heartbeat CPU 0 instructions: 40000000 cycles: 11113417 heartbeat IPC: 3.6008 cumulative IPC: 3.59925 (Simulation time: 0 hr 3 min 7 sec) 
Heartbeat CPU 0 instructions: 50000001 cycles: 13889823 heartbeat IPC: 3.60178 cumulative IPC: 3.59976 (Simulation time: 0 hr 3 min 55 sec) 

Warmup complete CPU 0 instructions: 50000001 cycles: 13889823 (Simulation time: 0 hr 3 min 55 sec) 

Heartbeat CPU 0 instructions: 60000002 cycles: 38102490 heartbeat IPC: 0.413007 cumulative IPC: 0.413007 (Simulation time: 0 hr 4 min 53 sec) 
*** Reached end of trace for Core: 0 Repeating trace: traces/spec2k17/srv_61.champsimtrace.xz
Heartbeat CPU 0 instructions: 70000001 cycles: 61941481 heartbeat IPC: 0.419481 cumulative IPC: 0.416219 (Simulation time: 0 hr 5 min 41 sec) 
Heartbeat CPU 0 instructions: 80000003 cycles: 85569555 heartbeat IPC: 0.423225 cumulative IPC: 0.418528 (Simulation time: 0 hr 6 min 34 sec) 
Heartbeat CPU 0 instructions: 90000003 cycles: 109803335 heartbeat IPC: 0.412647 cumulative IPC: 0.417042 (Simulation time: 0 hr 7 min 32 sec) 
*** Reached end of trace for Core: 0 Repeating trace: traces/spec2k17/srv_61.champsimtrace.xz
Heartbeat CPU 0 instructions: 100000001 cycles: 133548576 heartbeat IPC: 0.421137 cumulative IPC: 0.417855 (Simulation time: 0 hr 8 min 20 sec) 
Heartbeat CPU 0 instructions: 110000000 cycles: 157294536 heartbeat IPC: 0.421124 cumulative IPC: 0.418396 (Simulation time: 0 hr 9 min 12 sec) 
Heartbeat CPU 0 instructions: 120000001 cycles: 181295326 heartbeat IPC: 0.416653 cumulative IPC: 0.418146 (Simulation time: 0 hr 10 min 7 sec) 
*** Reached end of trace for Core: 0 Repeating trace: traces/spec2k17/srv_61.champsimtrace.xz
Heartbeat CPU 0 instructions: 130000000 cycles: 205430837 heartbeat IPC: 0.414327 cumulative IPC: 0.417665 (Simulation time: 0 hr 11 min 0 sec) 
Heartbeat CPU 0 instructions: 140000003 cycles: 228810273 heartbeat IPC: 0.427726 cumulative IPC: 0.41876 (Simulation time: 0 hr 11 min 52 sec) 
Heartbeat CPU 0 instructions: 150000002 cycles: 252671742 heartbeat IPC: 0.419086 cumulative IPC: 0.418792 (Simulation time: 0 hr 12 min 41 sec) 
*** Reached end of trace for Core: 0 Repeating trace: traces/spec2k17/srv_61.champsimtrace.xz
Heartbeat CPU 0 instructions: 160000000 cycles: 277012837 heartbeat IPC: 0.410828 cumulative IPC: 0.418055 (Simulation time: 0 hr 13 min 30 sec) 
Heartbeat CPU 0 instructions: 170000001 cycles: 300382402 heartbeat IPC: 0.427907 cumulative IPC: 0.418859 (Simulation time: 0 hr 14 min 23 sec) 
Heartbeat CPU 0 instructions: 180000002 cycles: 324169062 heartbeat IPC: 0.420404 cumulative IPC: 0.418977 (Simulation time: 0 hr 15 min 16 sec) 
*** Reached end of trace for Core: 0 Repeating trace: traces/spec2k17/srv_61.champsimtrace.xz
Heartbeat CPU 0 instructions: 190000000 cycles: 348286263 heartbeat IPC: 0.414642 cumulative IPC: 0.418665 (Simulation time: 0 hr 16 min 7 sec) 
Heartbeat CPU 0 instructions: 200000002 cycles: 371882128 heartbeat IPC: 0.423803 cumulative IPC: 0.419003 (Simulation time: 0 hr 17 min 7 sec) 
Heartbeat CPU 0 instructions: 210000000 cycles: 395749631 heartbeat IPC: 0.41898 cumulative IPC: 0.419002 (Simulation time: 0 hr 17 min 56 sec) 
*** Reached end of trace for Core: 0 Repeating trace: traces/spec2k17/srv_61.champsimtrace.xz
Heartbeat CPU 0 instructions: 220000000 cycles: 419826060 heartbeat IPC: 0.415344 cumulative IPC: 0.418785 (Simulation time: 0 hr 18 min 45 sec) 
Heartbeat CPU 0 instructions: 230000001 cycles: 443169556 heartbeat IPC: 0.428385 cumulative IPC: 0.419307 (Simulation time: 0 hr 19 min 38 sec) 
Heartbeat CPU 0 instructions: 240000000 cycles: 467081623 heartbeat IPC: 0.418199 cumulative IPC: 0.419249 (Simulation time: 0 hr 20 min 36 sec) 
*** Reached end of trace for Core: 0 Repeating trace: traces/spec2k17/srv_61.champsimtrace.xz
Heartbeat CPU 0 instructions: 250000003 cycles: 491052666 heartbeat IPC: 0.41717 cumulative IPC: 0.419144 (Simulation time: 0 hr 21 min 19 sec) 
Finished CPU 0 instructions: 200000002 cycles: 477162843 cumulative IPC: 0.419144 (Simulation time: 0 hr 21 min 19 sec) 

ChampSim completed all CPUs

Region of Interest Statistics

CPU 0 cumulative IPC: 0.419144 instructions: 200000002 cycles: 477162843
ITLB TOTAL     ACCESS:   31597788  HIT:   30775756  MISS:     822032  HIT %:    97.3985  MISS %:    2.60155   MPKI: 4.11016
ITLB LOAD TRANSLATION ACCESS:   31597788  HIT:   30775756  MISS:     822032  HIT %:    97.3985  MISS %:    2.60155   MPKI: 4.11016
ITLB PREFETCH  REQUESTED:          0  ISSUED:          0  USEFUL:          0  USELESS:          0
ITLB USEFUL LOAD PREFETCHES:          0 PREFETCH ISSUED TO LOWER LEVEL:          0  ACCURACY: -nan
ITLB TIMELY PREFETCHES:          0 LATE PREFETCHES: 0 DROPPED PREFETCHES: 0
ITLB PREFETCHES SAME FILL-ORIGIN LEVEL: 0 DIFFERENT FILL-ORIGIN LEVEL: 0
ITLB AVERAGE MISS LATENCY: 15.7345 cycles
ITLB RQ	ACCESS:   38397562	FORWARD:          0	MERGED:    6601743	TO_CACHE:   31795819

DTLB TOTAL     ACCESS:   37651851  HIT:   35108824  MISS:    2543027  HIT %:    93.2459  MISS %:    6.75406   MPKI: 12.7151
DTLB LOAD TRANSLATION ACCESS:   37651851  HIT:   35108824  MISS:    2543027  HIT %:    93.2459  MISS %:    6.75406   MPKI: 12.7151
DTLB PREFETCH  REQUESTED:          0  ISSUED:          0  USEFUL:          0  USELESS:          0
DTLB USEFUL LOAD PREFETCHES:          0 PREFETCH ISSUED TO LOWER LEVEL:          0  ACCURACY: -nan
DTLB TIMELY PREFETCHES:          0 LATE PREFETCHES: 0 DROPPED PREFETCHES: 0
DTLB PREFETCHES SAME FILL-ORIGIN LEVEL: 0 DIFFERENT FILL-ORIGIN LEVEL: 0
DTLB AVERAGE MISS LATENCY: 14.0203 cycles
DTLB RQ	ACCESS:   48089457	FORWARD:          0	MERGED:   10292900	TO_CACHE:   37796557

STLB TOTAL     ACCESS:    4401678  HIT:    3944420  MISS:     457258  HIT %:    89.6117  MISS %:    10.3883   MPKI: 2.28629
STLB LOAD TRANSLATION ACCESS:    3365059  HIT:    2907801  MISS:     457258  HIT %:    86.4116  MISS %:    13.5884   MPKI: 2.28629
STLB TRANSLATION FROM L1D PREFETCHER ACCESS:    1036619  HIT:    1036619  MISS:          0  HIT %:        100  MISS %:          0   MPKI: 0
STLB PREFETCH  REQUESTED:          0  ISSUED:          0  USEFUL:          0  USELESS:          0
STLB USEFUL LOAD PREFETCHES:          0 PREFETCH ISSUED TO LOWER LEVEL:          0  ACCURACY: -nan
STLB TIMELY PREFETCHES:          0 LATE PREFETCHES: 0 DROPPED PREFETCHES: 0
STLB PREFETCHES SAME FILL-ORIGIN LEVEL: 0 DIFFERENT FILL-ORIGIN LEVEL: 0
STLB AVERAGE MISS LATENCY: 39.853 cycles
STLB RQ	ACCESS:    4705490	FORWARD:          0	MERGED:     303812	TO_CACHE:    4401678

STLB Hit, L1D data hit: 0
STLB Hit, L2C data hit: 0
STLB Hit, LLC data hit: 0
STLB Hit, LLC data miss: 0
STLB STLB hints to L2: 0
L1D TOTAL     ACCESS:   48811321  HIT:   45834475  MISS:    2976846  HIT %:    93.9013  MISS %:    6.09868   MPKI: 14.8842
L1D LOAD      ACCESS:   27980324  HIT:   25871305  MISS:    2109019  HIT %:    92.4625  MISS %:    7.53751   MPKI: 10.5451
L1D RFO       ACCESS:   19579448  HIT:   19229345  MISS:     350103  HIT %:    98.2119  MISS %:    1.78811   MPKI: 1.75051
L1D PREFETCH  ACCESS:    1251549  HIT:     733825  MISS:     517724  HIT %:    58.6333  MISS %:    41.3667   MPKI: 2.58862
AGUS PREFETCH L1 MISS: 0
L1D PREFETCH  REQUESTED:    2682987  ISSUED:    2682138  USEFUL:     134333  USELESS:     383373
L1D USEFUL LOAD PREFETCHES:     134333 PREFETCH ISSUED TO LOWER LEVEL:     551614  ACCURACY: 24.3527
L1D TIMELY PREFETCHES:     134333 LATE PREFETCHES: 32770 DROPPED PREFETCHES: 0
L1D PREFETCHES SAME FILL-ORIGIN LEVEL: 551614 DIFFERENT FILL-ORIGIN LEVEL: 0
L1D AVERAGE MISS LATENCY: 2.8669e+06 cycles
L1D RQ	ACCESS:   42123060	FORWARD:          0	MERGED:   13815513	TO_CACHE:   28104792
L1D WQ	ACCESS:   20321693	FORWARD:     204031	MERGED:     337028	TO_CACHE:   19984665
L1D PQ	ACCESS:    1341707	FORWARD:          0	MERGED:          0	TO_CACHE:    1340431

L1D UNIQUE REGIONS ACCESSED: 0
L1D REGIONS CONFLICTS: 0
L1D Cross Page Prefetch Requests: 0
L1D Same Page Prefetch Requests: 1671692
L1D ROI Sum of L1D PQ occupancy: 17995069
L1D PREFETCHES PUSHED FROM L2C: 0
L1I TOTAL     ACCESS:   36721661  HIT:   31510676  MISS:    5210985  HIT %:    85.8095  MISS %:    14.1905   MPKI: 26.0549
L1I LOAD      ACCESS:   36721661  HIT:   31510676  MISS:    5210985  HIT %:    85.8095  MISS %:    14.1905   MPKI: 26.0549
L1I PREFETCH  REQUESTED:          0  ISSUED:          0  USEFUL:          0  USELESS:          0
L1I USEFUL LOAD PREFETCHES:          0 PREFETCH ISSUED TO LOWER LEVEL:          0  ACCURACY: -nan
L1I TIMELY PREFETCHES:          0 LATE PREFETCHES: 0 DROPPED PREFETCHES: 0
L1I PREFETCHES SAME FILL-ORIGIN LEVEL: 0 DIFFERENT FILL-ORIGIN LEVEL: 0
L1I AVERAGE MISS LATENCY: 28.289 cycles
L1I RQ	ACCESS:   57283415	FORWARD:          0	MERGED:   18885853	TO_CACHE:   38397562

BTB TOTAL     ACCESS:   22827168  HIT:   17699490  MISS:    5127678  HIT %:     77.537  MISS %:     22.463   MPKI: 25.6384
BTB BRANCH_DIRECT_JUMP	ACCESS:    1840942  HIT:    1534611  MISS:     306331
BTB BRANCH_INDIRECT	ACCESS:    9660731  HIT:    7262186  MISS:    2398545
BTB BRANCH_CONDITIONAL	ACCESS:    4665085  HIT:    4182126  MISS:     482959
BTB BRANCH_DIRECT_CALL	ACCESS:    2620364  HIT:    2026741  MISS:     593623
BTB BRANCH_INDIRECT_CALL	ACCESS:     705579  HIT:     643161  MISS:      62418
BTB BRANCH_RETURN	ACCESS:    3334467  HIT:    2050665  MISS:    1283802
BTB BRANCH_OTHER ACCESS:          0  HIT:          0  MISS:          0

L2C TOTAL     ACCESS:    9791847  HIT:    5491760  MISS:    4300087  HIT %:     56.085  MISS %:     43.915   MPKI: 21.5004
L2C LOAD      ACCESS:    7287129  HIT:    3845859  MISS:    3441270  HIT %:    52.7761  MISS %:    47.2239   MPKI: 17.2063
L2C DATA LOAD MPKI: 5.26833
L2C INSTRUCTION LOAD MPKI: 11.938
L2C RFO       ACCESS:     348982  HIT:     181920  MISS:     167062  HIT %:    52.1288  MISS %:    47.8712   MPKI: 0.83531
L2C PREFETCH  ACCESS:     551611  HIT:     126695  MISS:     424916  HIT %:    22.9682  MISS %:    77.0318   MPKI: 2.12458
AGUS PREFETCH L1 MISS: 0
L2C DATA PREFETCH MPKI: 2.12458
L2C INSTRUCTION PREFETCH MPKI: 0
L2C WRITEBACK ACCESS:    1024591  HIT:     977842  MISS:      46749  HIT %:    95.4373  MISS %:     4.5627   MPKI: 0.233745
L2C LOAD TRANSLATION ACCESS:     579534  HIT:     359444  MISS:     220090  HIT %:    62.0229  MISS %:    37.9771   MPKI: 1.10045
L2C PREFETCH  REQUESTED:          0  ISSUED:          0  USEFUL:      14056  USELESS:     410553
L2C USEFUL LOAD PREFETCHES:      14056 PREFETCH ISSUED TO LOWER LEVEL:     424917  ACCURACY: 3.30794
L2C TIMELY PREFETCHES:      14056 LATE PREFETCHES: 0 DROPPED PREFETCHES: 0
L2C PREFETCHES SAME FILL-ORIGIN LEVEL: 0 DIFFERENT FILL-ORIGIN LEVEL: 0
L2C AVERAGE MISS LATENCY: 41.4338 cycles
L2C RQ	ACCESS:    8215752	FORWARD:          0	MERGED:          0	TO_CACHE:    8215645
L2C WQ	ACCESS:    1024591	FORWARD:        109	MERGED:          0	TO_CACHE:    1024591
L2C PQ	ACCESS:     551614	FORWARD:          0	MERGED:          0	TO_CACHE:     551612

L2C Instructions Evicting Data 930596
L2C Translations Evicting Data 86612
L2C Data Evicting Data 655969
L2C Instructions Evicting Instructions 1337897
L2C Translations Evicting Instructions 120450
L2C Data Evicting Instructions 904159
L2C Instructions Evicting Translations 119110
L2C Translations Evicting Translations 13028
L2C Data Evicting Translations 85517
L2C Dense regions hint from L2: 0
PSCL5 TOTAL     ACCESS:     457258  HIT:     457258  MISS:          0  HIT %:        100  MISS %:          0   MPKI: 0
PSCL5 LOAD TRANSLATION ACCESS:     457258  HIT:     457258  MISS:          0  HIT %:        100  MISS %:          0   MPKI: 0
PSCL5 PREFETCH  REQUESTED:          0  ISSUED:          0  USEFUL:          0  USELESS:          0
PSCL5 USEFUL LOAD PREFETCHES:          0 PREFETCH ISSUED TO LOWER LEVEL:          0  ACCURACY: -nan
PSCL5 TIMELY PREFETCHES:          0 LATE PREFETCHES: 0 DROPPED PREFETCHES: 0
PSCL5 PREFETCHES SAME FILL-ORIGIN LEVEL: 0 DIFFERENT FILL-ORIGIN LEVEL: 0

PSCL4 TOTAL     ACCESS:     423549  HIT:     422271  MISS:       1278  HIT %:    99.6983  MISS %:   0.301736   MPKI: 0.00639
PSCL4 LOAD TRANSLATION ACCESS:     423549  HIT:     422271  MISS:       1278  HIT %:    99.6983  MISS %:   0.301736   MPKI: 0.00639
PSCL4 PREFETCH  REQUESTED:          0  ISSUED:          0  USEFUL:          0  USELESS:          0
PSCL4 USEFUL LOAD PREFETCHES:          0 PREFETCH ISSUED TO LOWER LEVEL:          0  ACCURACY: -nan
PSCL4 TIMELY PREFETCHES:          0 LATE PREFETCHES: 0 DROPPED PREFETCHES: 0
PSCL4 PREFETCHES SAME FILL-ORIGIN LEVEL: 0 DIFFERENT FILL-ORIGIN LEVEL: 0

PSCL3 TOTAL     ACCESS:     453634  HIT:     449786  MISS:       3848  HIT %:    99.1517  MISS %:   0.848261   MPKI: 0.01924
PSCL3 LOAD TRANSLATION ACCESS:     453634  HIT:     449786  MISS:       3848  HIT %:    99.1517  MISS %:   0.848261   MPKI: 0.01924
PSCL3 PREFETCH  REQUESTED:          0  ISSUED:          0  USEFUL:          0  USELESS:          0
PSCL3 USEFUL LOAD PREFETCHES:          0 PREFETCH ISSUED TO LOWER LEVEL:          0  ACCURACY: -nan
PSCL3 TIMELY PREFETCHES:          0 LATE PREFETCHES: 0 DROPPED PREFETCHES: 0
PSCL3 PREFETCHES SAME FILL-ORIGIN LEVEL: 0 DIFFERENT FILL-ORIGIN LEVEL: 0

PSCL2 TOTAL     ACCESS:     457258  HIT:     340108  MISS:     117150  HIT %:    74.3799  MISS %:    25.6201   MPKI: 0.58575
PSCL2 LOAD TRANSLATION ACCESS:     457258  HIT:     340108  MISS:     117150  HIT %:    74.3799  MISS %:    25.6201   MPKI: 0.58575
PSCL2 PREFETCH  REQUESTED:          0  ISSUED:          0  USEFUL:          0  USELESS:          0
PSCL2 USEFUL LOAD PREFETCHES:          0 PREFETCH ISSUED TO LOWER LEVEL:          0  ACCURACY: -nan
PSCL2 TIMELY PREFETCHES:          0 LATE PREFETCHES: 0 DROPPED PREFETCHES: 0
PSCL2 PREFETCHES SAME FILL-ORIGIN LEVEL: 0 DIFFERENT FILL-ORIGIN LEVEL: 0

LLC TOTAL     ACCESS:    4732942  HIT:    4408274  MISS:     324668  HIT %:    93.1402  MISS %:    6.85975   MPKI: 1.62334
LLC LOAD      ACCESS:    3441266  HIT:    3244592  MISS:     196674  HIT %:    94.2848  MISS %:    5.71516   MPKI: 0.98337
LLC RFO       ACCESS:     167062  HIT:     122284  MISS:      44778  HIT %:    73.1968  MISS %:    26.8032   MPKI: 0.22389
LLC PREFETCH  ACCESS:     424916  HIT:     349840  MISS:      75076  HIT %:    82.3316  MISS %:    17.6684   MPKI: 0.37538
AGUS PREFETCH L1 MISS: 0
LLC WRITEBACK ACCESS:     479608  HIT:     476614  MISS:       2994  HIT %:    99.3757  MISS %:    0.62426   MPKI: 0.01497
LLC LOAD TRANSLATION ACCESS:     220090  HIT:     214944  MISS:       5146  HIT %:    97.6619  MISS %:    2.33813   MPKI: 0.02573
LLC PREFETCH  REQUESTED:          0  ISSUED:          0  USEFUL:       4105  USELESS:      71205
LLC USEFUL LOAD PREFETCHES:       4105 PREFETCH ISSUED TO LOWER LEVEL:      75077  ACCURACY: 5.46772
LLC TIMELY PREFETCHES:       4105 LATE PREFETCHES: 0 DROPPED PREFETCHES: 0
LLC PREFETCHES SAME FILL-ORIGIN LEVEL: 0 DIFFERENT FILL-ORIGIN LEVEL: 0
LLC AVERAGE MISS LATENCY: 155.749 cycles
LLC RQ	ACCESS:    3828422	FORWARD:          0	MERGED:          0	TO_CACHE:    3828418
LLC WQ	ACCESS:     479608	FORWARD:          4	MERGED:          0	TO_CACHE:     479608
LLC PQ	ACCESS:     424917	FORWARD:          0	MERGED:          0	TO_CACHE:     424917

LLC Dense regions hint to LLC: 0

RAW hits: 2706945
Loads Generated: 44830005
Loads sent to L1D: 42123060
Stores Generated: 20321689
Stores sent to L1D: 20321693
Major fault: 0 Minor fault: 4273
Allocated PAGES: 4273

stream: 
stream:times selected: 2533076
stream:pref_filled: 418692
stream:pref_useful: 112602
stream:pref_late: 25489
stream:misses: 42621
stream:misses_by_poll: 0

CS: 
CS:times selected: 101920
CS:pref_filled: 60677
CS:pref_useful: 40814
CS:pref_late: 3344
CS:misses: 7751
CS:misses_by_poll: 0

CPLX: 
CPLX:times selected: 2399753
CPLX:pref_filled: 176854
CPLX:pref_useful: 28056
CPLX:pref_late: 3917
CPLX:misses: 220749
CPLX:misses_by_poll: 39

NL_L1: 
NL:times selected: 18602
NL:pref_filled: 6121
NL:pref_useful: 1092
NL:pref_late: 160
NL:misses: 2371
NL:misses_by_poll: 0

total selections: 5053351
total_filled: 517724
total_useful: 134333
total_late: 34743
total_polluted: 39
total_misses_after_warmup: 2233487
conflicts: 6587147
Degree Incremented Times: 15034
Degree Decremented Times: 445947

L1 IP Table Write Accesses: 19497278
L1 IP Table Read Accesses: 12910131
L1 RST Write Accesses: 2037338
L1 RST Read Accesses: 4074676
L1 CSPT Write Accesses: 2037338
L1 CSPT Read Accesses: 3978603
L1 RR Filter Tag Write Accesses: 1342556
L1 RR Filter Tag Read Accesses: 77011709
L1 IP Table Tag Write Accesses: 28104792
L1 IP Table Tag Read Accesses: 28104792
L1 RST Tag Write Accesses: 0
L1 RST Tag Read Accesses: 19560576
L1 RR Filter Write Accesses: 0
L1 RR Filter Read Accesses: 2802462
test: 758095

DRAM Statistics
 CHANNEL 0
 RQ ROW_BUFFER_HIT:      56165  ROW_BUFFER_MISS:     265508
 DBUS_CONGESTED:        113
 WQ ROW_BUFFER_HIT:      22135  ROW_BUFFER_MISS:     196424  FULL:          0

 AVG_CONGESTED_CYCLE: 4
 All warmup complete: 2
Channel 0 Bank busy for read cycles: 0
Channel 0 Bank busy for write cycles: 0
Channel 0
Rank 0
0banks busy for read cycles: 418215571
0banks busy for write cycles: 131501
1banks busy for read cycles: 28548447
1banks busy for write cycles: 18013669
2banks busy for read cycles: 4086834
2banks busy for write cycles: 3720968
3banks busy for read cycles: 968879
3banks busy for write cycles: 1269876
4banks busy for read cycles: 348121
4banks busy for write cycles: 614218
5banks busy for read cycles: 120793
5banks busy for write cycles: 355268
6banks busy for read cycles: 57300
6banks busy for write cycles: 224220
7banks busy for read cycles: 39846
7banks busy for write cycles: 188689
8banks busy for read cycles: 50559
8banks busy for write cycles: 208085

CPU 0 Branch Prediction Accuracy: 99.805% MPKI: 0.35292 Average ROB Occupancy at Mispredict: 32.1247
Branch types
NOT_BRANCH: 163812004 81.906%
BRANCH_DIRECT_JUMP: 1840942 0.920471%
BRANCH_INDIRECT: 9660731 4.83037%
BRANCH_CONDITIONAL: 18025786 9.01289%
BRANCH_DIRECT_CALL: 2620364 1.31018%
BRANCH_INDIRECT_CALL: 705579 0.352789%
BRANCH_RETURN: 3334467 1.66723%
BRANCH_OTHER: 0 0%

DRAM PAGES: 1048576
Allocated PAGES: 4273
