
*** ChampSim Multicore Out-of-Order Simulator ***

Warmup Instructions: 50000000
Simulation Instructions: 200000000
Number of CPUs: 1
LLC sets: 2048
LLC ways: 16
Off-chip DRAM Size: 4096 MB Channels: 1 Width: 64-bit Data Rate: 6400 MT/s
CPU 0 runs traces/spec2k17/srv_46.champsimtrace.xz
.xz
BTB has LRU replacement policy
ITLB has LRU replacement policy
DTLB has LRU replacement policy
STLB has LRU replacement policy
L1I has LRU replacement policy
IP Table Entries: 1024
CSPT Entries: 128
RR_ENTRIES: 32
RST_ENTRIES: 8
L1D has LRU replacement policy
Initialize SRRIP state for L2C
Initialize DRRIP state for LLC
Heartbeat CPU 0 instructions: 10000003 cycles: 2963052 heartbeat IPC: 3.3749 cumulative IPC: 3.3749 (Simulation time: 0 hr 0 min 56 sec) 
Heartbeat CPU 0 instructions: 20000002 cycles: 5931607 heartbeat IPC: 3.36864 cumulative IPC: 3.37177 (Simulation time: 0 hr 1 min 54 sec) 
Heartbeat CPU 0 instructions: 30000003 cycles: 8875462 heartbeat IPC: 3.39691 cumulative IPC: 3.38011 (Simulation time: 0 hr 2 min 47 sec) 
*** Reached end of trace for Core: 0 Repeating trace: traces/spec2k17/srv_46.champsimtrace.xz
Heartbeat CPU 0 instructions: 40000000 cycles: 11840119 heartbeat IPC: 3.37307 cumulative IPC: 3.37834 (Simulation time: 0 hr 3 min 44 sec) 
Heartbeat CPU 0 instructions: 50000000 cycles: 14796158 heartbeat IPC: 3.38291 cumulative IPC: 3.37926 (Simulation time: 0 hr 4 min 42 sec) 

Warmup complete CPU 0 instructions: 50000004 cycles: 14796159 (Simulation time: 0 hr 4 min 42 sec) 

Heartbeat CPU 0 instructions: 60000001 cycles: 39030084 heartbeat IPC: 0.412645 cumulative IPC: 0.412645 (Simulation time: 0 hr 5 min 34 sec) 
*** Reached end of trace for Core: 0 Repeating trace: traces/spec2k17/srv_46.champsimtrace.xz
Heartbeat CPU 0 instructions: 70000002 cycles: 62605413 heartbeat IPC: 0.424172 cumulative IPC: 0.418329 (Simulation time: 0 hr 6 min 33 sec) 
Heartbeat CPU 0 instructions: 80000000 cycles: 84711097 heartbeat IPC: 0.452372 cumulative IPC: 0.429093 (Simulation time: 0 hr 7 min 29 sec) 
Heartbeat CPU 0 instructions: 90000003 cycles: 108428513 heartbeat IPC: 0.421631 cumulative IPC: 0.427203 (Simulation time: 0 hr 8 min 20 sec) 
*** Reached end of trace for Core: 0 Repeating trace: traces/spec2k17/srv_46.champsimtrace.xz
Heartbeat CPU 0 instructions: 100000000 cycles: 131571132 heartbeat IPC: 0.432103 cumulative IPC: 0.428174 (Simulation time: 0 hr 9 min 16 sec) 
Heartbeat CPU 0 instructions: 110000000 cycles: 154729026 heartbeat IPC: 0.431818 cumulative IPC: 0.428777 (Simulation time: 0 hr 10 min 13 sec) 
Heartbeat CPU 0 instructions: 120000000 cycles: 176966925 heartbeat IPC: 0.449683 cumulative IPC: 0.431644 (Simulation time: 0 hr 11 min 9 sec) 
*** Reached end of trace for Core: 0 Repeating trace: traces/spec2k17/srv_46.champsimtrace.xz
Heartbeat CPU 0 instructions: 130000001 cycles: 200271105 heartbeat IPC: 0.429108 cumulative IPC: 0.431325 (Simulation time: 0 hr 12 min 0 sec) 
Heartbeat CPU 0 instructions: 140000002 cycles: 224151885 heartbeat IPC: 0.418747 cumulative IPC: 0.42989 (Simulation time: 0 hr 12 min 54 sec) 
Heartbeat CPU 0 instructions: 150000002 cycles: 246668151 heartbeat IPC: 0.444123 cumulative IPC: 0.431272 (Simulation time: 0 hr 13 min 53 sec) 
*** Reached end of trace for Core: 0 Repeating trace: traces/spec2k17/srv_46.champsimtrace.xz
Heartbeat CPU 0 instructions: 160000002 cycles: 268925609 heartbeat IPC: 0.449288 cumulative IPC: 0.43285 (Simulation time: 0 hr 14 min 48 sec) 
Heartbeat CPU 0 instructions: 170000003 cycles: 293480506 heartbeat IPC: 0.407251 cumulative IPC: 0.430595 (Simulation time: 0 hr 15 min 41 sec) 
Heartbeat CPU 0 instructions: 180000000 cycles: 316348894 heartbeat IPC: 0.437285 cumulative IPC: 0.431102 (Simulation time: 0 hr 16 min 39 sec) 
*** Reached end of trace for Core: 0 Repeating trace: traces/spec2k17/srv_46.champsimtrace.xz
Heartbeat CPU 0 instructions: 190000000 cycles: 338609487 heartbeat IPC: 0.449224 cumulative IPC: 0.432348 (Simulation time: 0 hr 17 min 39 sec) 
Heartbeat CPU 0 instructions: 200000003 cycles: 362192665 heartbeat IPC: 0.424031 cumulative IPC: 0.431783 (Simulation time: 0 hr 18 min 24 sec) 
Heartbeat CPU 0 instructions: 210000002 cycles: 385929604 heartbeat IPC: 0.421284 cumulative IPC: 0.431112 (Simulation time: 0 hr 19 min 19 sec) 
*** Reached end of trace for Core: 0 Repeating trace: traces/spec2k17/srv_46.champsimtrace.xz
Heartbeat CPU 0 instructions: 220000000 cycles: 408563722 heartbeat IPC: 0.441811 cumulative IPC: 0.431727 (Simulation time: 0 hr 20 min 15 sec) 
Heartbeat CPU 0 instructions: 230000002 cycles: 430496857 heartbeat IPC: 0.455931 cumulative IPC: 0.433004 (Simulation time: 0 hr 21 min 16 sec) 
Heartbeat CPU 0 instructions: 240000000 cycles: 454778048 heartbeat IPC: 0.411841 cumulative IPC: 0.431836 (Simulation time: 0 hr 22 min 6 sec) 
*** Reached end of trace for Core: 0 Repeating trace: traces/spec2k17/srv_46.champsimtrace.xz
Heartbeat CPU 0 instructions: 250000003 cycles: 478278643 heartbeat IPC: 0.425521 cumulative IPC: 0.431516 (Simulation time: 0 hr 22 min 59 sec) 
Finished CPU 0 instructions: 200000003 cycles: 463482485 cumulative IPC: 0.431516 (Simulation time: 0 hr 22 min 59 sec) 

ChampSim completed all CPUs

Region of Interest Statistics

CPU 0 cumulative IPC: 0.431516 instructions: 200000003 cycles: 463482485
ITLB TOTAL     ACCESS:   34868783  HIT:   33551950  MISS:    1316833  HIT %:    96.2235  MISS %:    3.77654   MPKI: 6.58416
ITLB LOAD TRANSLATION ACCESS:   34868783  HIT:   33551950  MISS:    1316833  HIT %:    96.2235  MISS %:    3.77654   MPKI: 6.58416
ITLB PREFETCH  REQUESTED:          0  ISSUED:          0  USEFUL:          0  USELESS:          0
ITLB USEFUL LOAD PREFETCHES:          0 PREFETCH ISSUED TO LOWER LEVEL:          0  ACCURACY: -nan
ITLB TIMELY PREFETCHES:          0 LATE PREFETCHES: 0 DROPPED PREFETCHES: 0
ITLB PREFETCHES SAME FILL-ORIGIN LEVEL: 0 DIFFERENT FILL-ORIGIN LEVEL: 0
ITLB AVERAGE MISS LATENCY: 9.48165 cycles
ITLB RQ	ACCESS:   40090301	FORWARD:          0	MERGED:    4844577	TO_CACHE:   35245724

DTLB TOTAL     ACCESS:   45446364  HIT:   44209134  MISS:    1237230  HIT %:    97.2776  MISS %:     2.7224   MPKI: 6.18615
DTLB LOAD TRANSLATION ACCESS:   45446364  HIT:   44209134  MISS:    1237230  HIT %:    97.2776  MISS %:     2.7224   MPKI: 6.18615
DTLB PREFETCH  REQUESTED:          0  ISSUED:          0  USEFUL:          0  USELESS:          0
DTLB USEFUL LOAD PREFETCHES:          0 PREFETCH ISSUED TO LOWER LEVEL:          0  ACCURACY: -nan
DTLB TIMELY PREFETCHES:          0 LATE PREFETCHES: 0 DROPPED PREFETCHES: 0
DTLB PREFETCHES SAME FILL-ORIGIN LEVEL: 0 DIFFERENT FILL-ORIGIN LEVEL: 0
DTLB AVERAGE MISS LATENCY: 12.3581 cycles
DTLB RQ	ACCESS:   62057173	FORWARD:          0	MERGED:   16520033	TO_CACHE:   45537140

STLB TOTAL     ACCESS:    4235773  HIT:    4183684  MISS:      52089  HIT %:    98.7703  MISS %:    1.22974   MPKI: 0.260445
STLB LOAD TRANSLATION ACCESS:    2554063  HIT:    2501996  MISS:      52067  HIT %:    97.9614  MISS %:    2.03859   MPKI: 0.260335
STLB TRANSLATION FROM L1D PREFETCHER ACCESS:    1681710  HIT:    1681688  MISS:         22  HIT %:    99.9987  MISS %: 0.00130819   MPKI: 0.00011
STLB PREFETCH  REQUESTED:          0  ISSUED:          0  USEFUL:         22  USELESS:          0
STLB USEFUL LOAD PREFETCHES:         22 PREFETCH ISSUED TO LOWER LEVEL:          0  ACCURACY: inf
STLB TIMELY PREFETCHES:         22 LATE PREFETCHES: 0 DROPPED PREFETCHES: 0
STLB PREFETCHES SAME FILL-ORIGIN LEVEL: 0 DIFFERENT FILL-ORIGIN LEVEL: 0
STLB AVERAGE MISS LATENCY: 91.6433 cycles
STLB RQ	ACCESS:    5152454	FORWARD:          0	MERGED:     916681	TO_CACHE:    4235773

STLB Hit, L1D data hit: 0
STLB Hit, L2C data hit: 0
STLB Hit, LLC data hit: 0
STLB Hit, LLC data miss: 0
STLB STLB hints to L2: 0
L1D TOTAL     ACCESS:   62252611  HIT:   59348010  MISS:    2904601  HIT %:    95.3342  MISS %:    4.66583   MPKI: 14.523
L1D LOAD      ACCESS:   37784487  HIT:   36175566  MISS:    1608921  HIT %:    95.7418  MISS %:    4.25815   MPKI: 8.0446
L1D RFO       ACCESS:   21962738  HIT:   21088397  MISS:     874341  HIT %:     96.019  MISS %:    3.98102   MPKI: 4.3717
L1D PREFETCH  ACCESS:    2505386  HIT:    2084047  MISS:     421339  HIT %:    83.1827  MISS %:    16.8173   MPKI: 2.10669
AGUS PREFETCH L1 MISS: 0
L1D PREFETCH  REQUESTED:    5197978  ISSUED:    5197976  USEFUL:     182101  USELESS:     239209
L1D USEFUL LOAD PREFETCHES:     182101 PREFETCH ISSUED TO LOWER LEVEL:     465091  ACCURACY: 39.1538
L1D TIMELY PREFETCHES:     182101 LATE PREFETCHES: 41996 DROPPED PREFETCHES: 0
L1D PREFETCHES SAME FILL-ORIGIN LEVEL: 465091 DIFFERENT FILL-ORIGIN LEVEL: 0
L1D AVERAGE MISS LATENCY: 3.70582e+06 cycles
L1D RQ	ACCESS:   54671172	FORWARD:          0	MERGED:   16663063	TO_CACHE:   37863826
L1D WQ	ACCESS:   24630455	FORWARD:     145477	MERGED:     437108	TO_CACHE:   24193347
L1D PQ	ACCESS:    2599585	FORWARD:          0	MERGED:          0	TO_CACHE:    2598391

L1D UNIQUE REGIONS ACCESSED: 0
L1D REGIONS CONFLICTS: 0
L1D Cross Page Prefetch Requests: 0
L1D Same Page Prefetch Requests: 3221463
L1D ROI Sum of L1D PQ occupancy: 33798928
L1D PREFETCHES PUSHED FROM L2C: 0
L1I TOTAL     ACCESS:   39402022  HIT:   34411645  MISS:    4990377  HIT %:    87.3347  MISS %:    12.6653   MPKI: 24.9519
L1I LOAD      ACCESS:   39402022  HIT:   34411645  MISS:    4990377  HIT %:    87.3347  MISS %:    12.6653   MPKI: 24.9519
L1I PREFETCH  REQUESTED:          0  ISSUED:          0  USEFUL:          0  USELESS:          0
L1I USEFUL LOAD PREFETCHES:          0 PREFETCH ISSUED TO LOWER LEVEL:          0  ACCURACY: -nan
L1I TIMELY PREFETCHES:          0 LATE PREFETCHES: 0 DROPPED PREFETCHES: 0
L1I PREFETCHES SAME FILL-ORIGIN LEVEL: 0 DIFFERENT FILL-ORIGIN LEVEL: 0
L1I AVERAGE MISS LATENCY: 20.0605 cycles
L1I RQ	ACCESS:   60410000	FORWARD:          0	MERGED:   20319699	TO_CACHE:   40090301

BTB TOTAL     ACCESS:   31255800  HIT:   24838532  MISS:    6417268  HIT %:    79.4686  MISS %:    20.5314   MPKI: 32.0863
BTB BRANCH_DIRECT_JUMP	ACCESS:    2533222  HIT:    2107885  MISS:     425337
BTB BRANCH_INDIRECT	ACCESS:   13038560  HIT:   10544316  MISS:    2494244
BTB BRANCH_CONDITIONAL	ACCESS:    7059562  HIT:    6546706  MISS:     512856
BTB BRANCH_DIRECT_CALL	ACCESS:    3018472  HIT:    2245364  MISS:     773108
BTB BRANCH_INDIRECT_CALL	ACCESS:    1293792  HIT:     937788  MISS:     356004
BTB BRANCH_RETURN	ACCESS:    4312192  HIT:    2456473  MISS:    1855719
BTB BRANCH_OTHER ACCESS:          0  HIT:          0  MISS:          0

L2C TOTAL     ACCESS:    9270459  HIT:    6995070  MISS:    2275389  HIT %:    75.4555  MISS %:    24.5445   MPKI: 11.3769
L2C LOAD      ACCESS:    6557246  HIT:    5138491  MISS:    1418755  HIT %:    78.3636  MISS %:    21.6364   MPKI: 7.09377
L2C DATA LOAD MPKI: 2.31651
L2C INSTRUCTION LOAD MPKI: 4.77726
L2C RFO       ACCESS:     872581  HIT:     406231  MISS:     466350  HIT %:    46.5551  MISS %:    53.4449   MPKI: 2.33175
L2C PREFETCH  ACCESS:     465075  HIT:     194644  MISS:     270431  HIT %:    41.8522  MISS %:    58.1478   MPKI: 1.35215
AGUS PREFETCH L1 MISS: 0
L2C DATA PREFETCH MPKI: 1.35215
L2C INSTRUCTION PREFETCH MPKI: 0
L2C WRITEBACK ACCESS:    1294919  HIT:    1222204  MISS:      72715  HIT %:    94.3846  MISS %:    5.61541   MPKI: 0.363575
L2C LOAD TRANSLATION ACCESS:      80586  HIT:      33473  MISS:      47113  HIT %:     41.537  MISS %:     58.463   MPKI: 0.235565
L2C TRANSLATION FROM L1D PREFETCHER ACCESS:         52  HIT:         27  MISS:         25  HIT %:    51.9231  MISS %:    48.0769   MPKI: 0.000125
L2C PREFETCH  REQUESTED:          0  ISSUED:          0  USEFUL:       9133  USELESS:     261117
L2C USEFUL LOAD PREFETCHES:       9133 PREFETCH ISSUED TO LOWER LEVEL:     270431  ACCURACY: 3.3772
L2C TIMELY PREFETCHES:       9133 LATE PREFETCHES: 0 DROPPED PREFETCHES: 0
L2C PREFETCHES SAME FILL-ORIGIN LEVEL: 0 DIFFERENT FILL-ORIGIN LEVEL: 0
L2C AVERAGE MISS LATENCY: 67.132 cycles
L2C RQ	ACCESS:    7510524	FORWARD:          0	MERGED:          0	TO_CACHE:    7510465
L2C WQ	ACCESS:    1294919	FORWARD:         75	MERGED:          0	TO_CACHE:    1294919
L2C PQ	ACCESS:     465091	FORWARD:          0	MERGED:          0	TO_CACHE:     465075

L2C Instructions Evicting Data 488648
L2C Translations Evicting Data 30311
L2C Data Evicting Data 714319
L2C Instructions Evicting Instructions 450861
L2C Translations Evicting Instructions 15602
L2C Data Evicting Instructions 456903
L2C Instructions Evicting Translations 15944
L2C Translations Evicting Translations 1225
L2C Data Evicting Translations 28861
L2C Dense regions hint from L2: 0
PSCL5 TOTAL     ACCESS:      52089  HIT:      52089  MISS:          0  HIT %:        100  MISS %:          0   MPKI: 0
PSCL5 LOAD TRANSLATION ACCESS:      52067  HIT:      52067  MISS:          0  HIT %:        100  MISS %:          0   MPKI: 0
PSCL5 TRANSLATION FROM L1D PREFETCHER ACCESS:         22  HIT:         22  MISS:          0  HIT %:        100  MISS %:          0   MPKI: 0
PSCL5 PREFETCH  REQUESTED:          0  ISSUED:          0  USEFUL:          0  USELESS:          0
PSCL5 USEFUL LOAD PREFETCHES:          0 PREFETCH ISSUED TO LOWER LEVEL:          0  ACCURACY: -nan
PSCL5 TIMELY PREFETCHES:          0 LATE PREFETCHES: 0 DROPPED PREFETCHES: 0
PSCL5 PREFETCHES SAME FILL-ORIGIN LEVEL: 0 DIFFERENT FILL-ORIGIN LEVEL: 0

PSCL4 TOTAL     ACCESS:      50656  HIT:      50186  MISS:        470  HIT %:    99.0722  MISS %:   0.927827   MPKI: 0.00235
PSCL4 LOAD TRANSLATION ACCESS:      50642  HIT:      50172  MISS:        470  HIT %:    99.0719  MISS %:   0.928083   MPKI: 0.00235
PSCL4 TRANSLATION FROM L1D PREFETCHER ACCESS:         14  HIT:         14  MISS:          0  HIT %:        100  MISS %:          0   MPKI: 0
PSCL4 PREFETCH  REQUESTED:          0  ISSUED:          0  USEFUL:          0  USELESS:          0
PSCL4 USEFUL LOAD PREFETCHES:          0 PREFETCH ISSUED TO LOWER LEVEL:          0  ACCURACY: -nan
PSCL4 TIMELY PREFETCHES:          0 LATE PREFETCHES: 0 DROPPED PREFETCHES: 0
PSCL4 PREFETCHES SAME FILL-ORIGIN LEVEL: 0 DIFFERENT FILL-ORIGIN LEVEL: 0

PSCL3 TOTAL     ACCESS:      48140  HIT:      40659  MISS:       7481  HIT %:    84.4599  MISS %:    15.5401   MPKI: 0.037405
PSCL3 LOAD TRANSLATION ACCESS:      48127  HIT:      40646  MISS:       7481  HIT %:    84.4557  MISS %:    15.5443   MPKI: 0.037405
PSCL3 TRANSLATION FROM L1D PREFETCHER ACCESS:         13  HIT:         13  MISS:          0  HIT %:        100  MISS %:          0   MPKI: 0
PSCL3 PREFETCH  REQUESTED:          0  ISSUED:          0  USEFUL:          0  USELESS:          0
PSCL3 USEFUL LOAD PREFETCHES:          0 PREFETCH ISSUED TO LOWER LEVEL:          0  ACCURACY: -nan
PSCL3 TIMELY PREFETCHES:          0 LATE PREFETCHES: 0 DROPPED PREFETCHES: 0
PSCL3 PREFETCHES SAME FILL-ORIGIN LEVEL: 0 DIFFERENT FILL-ORIGIN LEVEL: 0

PSCL2 TOTAL     ACCESS:      52089  HIT:      31491  MISS:      20598  HIT %:    60.4561  MISS %:    39.5439   MPKI: 0.10299
PSCL2 LOAD TRANSLATION ACCESS:      52080  HIT:      31482  MISS:      20598  HIT %:    60.4493  MISS %:    39.5507   MPKI: 0.10299
PSCL2 TRANSLATION FROM L1D PREFETCHER ACCESS:          9  HIT:          9  MISS:          0  HIT %:        100  MISS %:          0   MPKI: 0
PSCL2 PREFETCH  REQUESTED:          0  ISSUED:          0  USEFUL:          0  USELESS:          0
PSCL2 USEFUL LOAD PREFETCHES:          0 PREFETCH ISSUED TO LOWER LEVEL:          0  ACCURACY: -nan
PSCL2 TIMELY PREFETCHES:          0 LATE PREFETCHES: 0 DROPPED PREFETCHES: 0
PSCL2 PREFETCHES SAME FILL-ORIGIN LEVEL: 0 DIFFERENT FILL-ORIGIN LEVEL: 0

LLC TOTAL     ACCESS:    2795998  HIT:    2286986  MISS:     509012  HIT %:     81.795  MISS %:     18.205   MPKI: 2.54506
LLC LOAD      ACCESS:    1418752  HIT:    1282974  MISS:     135778  HIT %:    90.4298  MISS %:    9.57024   MPKI: 0.67889
LLC RFO       ACCESS:     466349  HIT:     279534  MISS:     186815  HIT %:    59.9409  MISS %:    40.0591   MPKI: 0.934075
LLC PREFETCH  ACCESS:     270431  HIT:     109142  MISS:     161289  HIT %:    40.3585  MISS %:    59.6415   MPKI: 0.806445
AGUS PREFETCH L1 MISS: 0
LLC WRITEBACK ACCESS:     593328  HIT:     579321  MISS:      14007  HIT %:    97.6392  MISS %:    2.36075   MPKI: 0.070035
LLC LOAD TRANSLATION ACCESS:      47113  HIT:      35993  MISS:      11120  HIT %:    76.3972  MISS %:    23.6028   MPKI: 0.0556
LLC TRANSLATION FROM L1D PREFETCHER ACCESS:         25  HIT:         22  MISS:          3  HIT %:         88  MISS %:         12   MPKI: 1.5e-05
LLC PREFETCH  REQUESTED:          0  ISSUED:          0  USEFUL:       3829  USELESS:     161532
LLC USEFUL LOAD PREFETCHES:       3829 PREFETCH ISSUED TO LOWER LEVEL:     161289  ACCURACY: 2.374
LLC TIMELY PREFETCHES:       3829 LATE PREFETCHES: 0 DROPPED PREFETCHES: 0
LLC PREFETCHES SAME FILL-ORIGIN LEVEL: 0 DIFFERENT FILL-ORIGIN LEVEL: 0
LLC AVERAGE MISS LATENCY: 170.272 cycles
LLC RQ	ACCESS:    1932243	FORWARD:          0	MERGED:          0	TO_CACHE:    1932239
LLC WQ	ACCESS:     593328	FORWARD:          4	MERGED:          0	TO_CACHE:     593328
LLC PQ	ACCESS:     270431	FORWARD:          0	MERGED:          0	TO_CACHE:     270431

LLC Dense regions hint to LLC: 0

RAW hits: 2644290
Loads Generated: 57315463
Loads sent to L1D: 54671172
Stores Generated: 24630459
Stores sent to L1D: 24630455
Major fault: 0 Minor fault: 4769
Allocated PAGES: 4769

stream: 
stream:times selected: 5055234
stream:pref_filled: 263352
stream:pref_useful: 74260
stream:pref_late: 15158
stream:misses: 24331
stream:misses_by_poll: 0

CS: 
CS:times selected: 478449
CS:pref_filled: 149997
CS:pref_useful: 131721
CS:pref_late: 22695
CS:misses: 41987
CS:misses_by_poll: 11

CPLX: 
CPLX:times selected: 4544903
CPLX:pref_filled: 123086
CPLX:pref_useful: 35913
CPLX:pref_late: 2653
CPLX:misses: 134298
CPLX:misses_by_poll: 47

NL_L1: 
NL:times selected: 29795
NL:pref_filled: 2926
NL:pref_useful: 258
NL:pref_late: 125
NL:misses: 1644
NL:misses_by_poll: 0

total selections: 10108381
total_filled: 421339
total_useful: 182101
total_late: 45274
total_polluted: 58
total_misses_after_warmup: 1688261
conflicts: 8195163
Degree Incremented Times: 246981
Degree Decremented Times: 647482

L1 IP Table Write Accesses: 26645127
L1 IP Table Read Accesses: 18449964
L1 RST Write Accesses: 4047687
L1 RST Read Accesses: 8095374
L1 CSPT Write Accesses: 4047687
L1 CSPT Read Accesses: 7690244
L1 RR Filter Tag Write Accesses: 2599587
L1 RR Filter Tag Read Accesses: 164944203
L1 IP Table Tag Write Accesses: 37863827
L1 IP Table Tag Read Accesses: 37863827
L1 RST Tag Write Accesses: 0
L1 RST Tag Read Accesses: 33329312
L1 RR Filter Write Accesses: 0
L1 RR Filter Read Accesses: 6533735
test: 1015486

DRAM Statistics
 CHANNEL 0
 RQ ROW_BUFFER_HIT:     180310  ROW_BUFFER_MISS:     314694
 DBUS_CONGESTED:        365
 WQ ROW_BUFFER_HIT:      36331  ROW_BUFFER_MISS:     194936  FULL:          0

 AVG_CONGESTED_CYCLE: 4
 All warmup complete: 2
Channel 0 Bank busy for read cycles: 0
Channel 0 Bank busy for write cycles: 0
Channel 0
Rank 0
0banks busy for read cycles: 408470879
0banks busy for write cycles: 93283
1banks busy for read cycles: 24230468
1banks busy for write cycles: 13014081
2banks busy for read cycles: 6072972
2banks busy for write cycles: 3596565
3banks busy for read cycles: 1711442
3banks busy for write cycles: 1307925
4banks busy for read cycles: 511363
4banks busy for write cycles: 590574
5banks busy for read cycles: 253616
5banks busy for write cycles: 310200
6banks busy for read cycles: 227731
6banks busy for write cycles: 207312
7banks busy for read cycles: 265195
7banks busy for write cycles: 224724
8banks busy for read cycles: 1051469
8banks busy for write cycles: 1342687

CPU 0 Branch Prediction Accuracy: 99.7584% MPKI: 0.42388 Average ROB Occupancy at Mispredict: 24.3128
Branch types
NOT_BRANCH: 164908862 82.4544%
BRANCH_DIRECT_JUMP: 2533222 1.26661%
BRANCH_INDIRECT: 13038560 6.51928%
BRANCH_CONDITIONAL: 10894809 5.4474%
BRANCH_DIRECT_CALL: 3018472 1.50924%
BRANCH_INDIRECT_CALL: 1293792 0.646896%
BRANCH_RETURN: 4312192 2.1561%
BRANCH_OTHER: 0 0%

DRAM PAGES: 1048576
Allocated PAGES: 4769
