
*** ChampSim Multicore Out-of-Order Simulator ***

Warmup Instructions: 50000000
Simulation Instructions: 200000000
Number of CPUs: 1
LLC sets: 2048
LLC ways: 16
Off-chip DRAM Size: 4096 MB Channels: 1 Width: 64-bit Data Rate: 6400 MT/s
CPU 0 runs traces/spec2k17/srv_63.champsimtrace.xz
.xz
BTB has LRU replacement policy
ITLB has LRU replacement policy
DTLB has LRU replacement policy
STLB has LRU replacement policy
L1I has LRU replacement policy
IP Table Entries: 1024
CSPT Entries: 128
RR_ENTRIES: 32
RST_ENTRIES: 8
L1D has LRU replacement policy
Initialize SRRIP state for L2C
Initialize DRRIP state for LLC
Heartbeat CPU 0 instructions: 10000000 cycles: 2775332 heartbeat IPC: 3.60317 cumulative IPC: 3.60317 (Simulation time: 0 hr 0 min 49 sec) 
Heartbeat CPU 0 instructions: 20000003 cycles: 5545489 heartbeat IPC: 3.6099 cumulative IPC: 3.60654 (Simulation time: 0 hr 1 min 37 sec) 
Heartbeat CPU 0 instructions: 30000002 cycles: 8315880 heartbeat IPC: 3.6096 cumulative IPC: 3.60756 (Simulation time: 0 hr 2 min 30 sec) 
*** Reached end of trace for Core: 0 Repeating trace: traces/spec2k17/srv_63.champsimtrace.xz
Heartbeat CPU 0 instructions: 40000001 cycles: 11083175 heartbeat IPC: 3.61364 cumulative IPC: 3.60907 (Simulation time: 0 hr 3 min 17 sec) 
Heartbeat CPU 0 instructions: 50000001 cycles: 13852144 heartbeat IPC: 3.61145 cumulative IPC: 3.60955 (Simulation time: 0 hr 4 min 3 sec) 

Warmup complete CPU 0 instructions: 50000001 cycles: 13852144 (Simulation time: 0 hr 4 min 3 sec) 

Heartbeat CPU 0 instructions: 60000000 cycles: 36613957 heartbeat IPC: 0.439332 cumulative IPC: 0.439332 (Simulation time: 0 hr 4 min 55 sec) 
*** Reached end of trace for Core: 0 Repeating trace: traces/spec2k17/srv_63.champsimtrace.xz
Heartbeat CPU 0 instructions: 70000001 cycles: 58719158 heartbeat IPC: 0.452382 cumulative IPC: 0.445762 (Simulation time: 0 hr 5 min 52 sec) 
Heartbeat CPU 0 instructions: 80000001 cycles: 81024219 heartbeat IPC: 0.448329 cumulative IPC: 0.446614 (Simulation time: 0 hr 6 min 46 sec) 
Heartbeat CPU 0 instructions: 90000000 cycles: 103538520 heartbeat IPC: 0.444162 cumulative IPC: 0.445999 (Simulation time: 0 hr 7 min 35 sec) 
*** Reached end of trace for Core: 0 Repeating trace: traces/spec2k17/srv_63.champsimtrace.xz
Heartbeat CPU 0 instructions: 100000002 cycles: 125846572 heartbeat IPC: 0.448269 cumulative IPC: 0.446451 (Simulation time: 0 hr 8 min 28 sec) 
Heartbeat CPU 0 instructions: 110000000 cycles: 147930632 heartbeat IPC: 0.452815 cumulative IPC: 0.447499 (Simulation time: 0 hr 9 min 19 sec) 
Heartbeat CPU 0 instructions: 120000000 cycles: 170216692 heartbeat IPC: 0.448711 cumulative IPC: 0.447672 (Simulation time: 0 hr 10 min 17 sec) 
*** Reached end of trace for Core: 0 Repeating trace: traces/spec2k17/srv_63.champsimtrace.xz
Heartbeat CPU 0 instructions: 130000000 cycles: 192630050 heartbeat IPC: 0.446163 cumulative IPC: 0.447483 (Simulation time: 0 hr 11 min 9 sec) 
Heartbeat CPU 0 instructions: 140000003 cycles: 214780842 heartbeat IPC: 0.451451 cumulative IPC: 0.44792 (Simulation time: 0 hr 12 min 2 sec) 
Heartbeat CPU 0 instructions: 150000003 cycles: 236802069 heartbeat IPC: 0.454107 cumulative IPC: 0.448531 (Simulation time: 0 hr 12 min 55 sec) 
*** Reached end of trace for Core: 0 Repeating trace: traces/spec2k17/srv_63.champsimtrace.xz
Heartbeat CPU 0 instructions: 160000000 cycles: 259494099 heartbeat IPC: 0.440683 cumulative IPC: 0.447806 (Simulation time: 0 hr 13 min 52 sec) 
Heartbeat CPU 0 instructions: 170000003 cycles: 281489402 heartbeat IPC: 0.454643 cumulative IPC: 0.448368 (Simulation time: 0 hr 14 min 47 sec) 
Heartbeat CPU 0 instructions: 180000003 cycles: 303540202 heartbeat IPC: 0.453498 cumulative IPC: 0.448759 (Simulation time: 0 hr 15 min 40 sec) 
*** Reached end of trace for Core: 0 Repeating trace: traces/spec2k17/srv_63.champsimtrace.xz
Heartbeat CPU 0 instructions: 190000000 cycles: 326168509 heartbeat IPC: 0.441924 cumulative IPC: 0.448263 (Simulation time: 0 hr 16 min 32 sec) 
Heartbeat CPU 0 instructions: 200000000 cycles: 348183763 heartbeat IPC: 0.454231 cumulative IPC: 0.448656 (Simulation time: 0 hr 17 min 26 sec) 
Heartbeat CPU 0 instructions: 210000002 cycles: 370097132 heartbeat IPC: 0.456343 cumulative IPC: 0.449129 (Simulation time: 0 hr 18 min 26 sec) 
*** Reached end of trace for Core: 0 Repeating trace: traces/spec2k17/srv_63.champsimtrace.xz
Heartbeat CPU 0 instructions: 220000000 cycles: 392712420 heartbeat IPC: 0.442179 cumulative IPC: 0.448714 (Simulation time: 0 hr 19 min 15 sec) 
Heartbeat CPU 0 instructions: 230000001 cycles: 414642605 heartbeat IPC: 0.455993 cumulative IPC: 0.449112 (Simulation time: 0 hr 20 min 5 sec) 
Heartbeat CPU 0 instructions: 240000002 cycles: 436959832 heartbeat IPC: 0.448084 cumulative IPC: 0.449058 (Simulation time: 0 hr 20 min 58 sec) 
*** Reached end of trace for Core: 0 Repeating trace: traces/spec2k17/srv_63.champsimtrace.xz
Heartbeat CPU 0 instructions: 250000000 cycles: 459190245 heartbeat IPC: 0.449834 cumulative IPC: 0.449097 (Simulation time: 0 hr 21 min 52 sec) 
Finished CPU 0 instructions: 200000001 cycles: 445338102 cumulative IPC: 0.449097 (Simulation time: 0 hr 21 min 52 sec) 

ChampSim completed all CPUs

Region of Interest Statistics

CPU 0 cumulative IPC: 0.449097 instructions: 200000001 cycles: 445338102
ITLB TOTAL     ACCESS:   31325777  HIT:   30545199  MISS:     780578  HIT %:    97.5082  MISS %:    2.49181   MPKI: 3.90289
ITLB LOAD TRANSLATION ACCESS:   31325777  HIT:   30545199  MISS:     780578  HIT %:    97.5082  MISS %:    2.49181   MPKI: 3.90289
ITLB PREFETCH  REQUESTED:          0  ISSUED:          0  USEFUL:          0  USELESS:          0
ITLB USEFUL LOAD PREFETCHES:          0 PREFETCH ISSUED TO LOWER LEVEL:          0  ACCURACY: -nan
ITLB TIMELY PREFETCHES:          0 LATE PREFETCHES: 0 DROPPED PREFETCHES: 0
ITLB PREFETCHES SAME FILL-ORIGIN LEVEL: 0 DIFFERENT FILL-ORIGIN LEVEL: 0
ITLB AVERAGE MISS LATENCY: 13.9855 cycles
ITLB RQ	ACCESS:   38369360	FORWARD:          0	MERGED:    6847864	TO_CACHE:   31521496

DTLB TOTAL     ACCESS:   37153496  HIT:   34543464  MISS:    2610032  HIT %:     92.975  MISS %:      7.025   MPKI: 13.0502
DTLB LOAD TRANSLATION ACCESS:   37153496  HIT:   34543464  MISS:    2610032  HIT %:     92.975  MISS %:      7.025   MPKI: 13.0502
DTLB PREFETCH  REQUESTED:          0  ISSUED:          0  USEFUL:          0  USELESS:          0
DTLB USEFUL LOAD PREFETCHES:          0 PREFETCH ISSUED TO LOWER LEVEL:          0  ACCURACY: -nan
DTLB TIMELY PREFETCHES:          0 LATE PREFETCHES: 0 DROPPED PREFETCHES: 0
DTLB PREFETCHES SAME FILL-ORIGIN LEVEL: 0 DIFFERENT FILL-ORIGIN LEVEL: 0
DTLB AVERAGE MISS LATENCY: 13.9385 cycles
DTLB RQ	ACCESS:   47652298	FORWARD:          0	MERGED:   10350274	TO_CACHE:   37302024

STLB TOTAL     ACCESS:    4340391  HIT:    3985029  MISS:     355362  HIT %:    91.8127  MISS %:    8.18733   MPKI: 1.77681
STLB LOAD TRANSLATION ACCESS:    3390610  HIT:    3035248  MISS:     355362  HIT %:    89.5192  MISS %:    10.4808   MPKI: 1.77681
STLB TRANSLATION FROM L1D PREFETCHER ACCESS:     949781  HIT:     949781  MISS:          0  HIT %:        100  MISS %:          0   MPKI: 0
STLB PREFETCH  REQUESTED:          0  ISSUED:          0  USEFUL:          0  USELESS:          0
STLB USEFUL LOAD PREFETCHES:          0 PREFETCH ISSUED TO LOWER LEVEL:          0  ACCURACY: -nan
STLB TIMELY PREFETCHES:          0 LATE PREFETCHES: 0 DROPPED PREFETCHES: 0
STLB PREFETCHES SAME FILL-ORIGIN LEVEL: 0 DIFFERENT FILL-ORIGIN LEVEL: 0
STLB AVERAGE MISS LATENCY: 46.9886 cycles
STLB RQ	ACCESS:    4611601	FORWARD:          0	MERGED:     271210	TO_CACHE:    4340391

STLB Hit, L1D data hit: 0
STLB Hit, L2C data hit: 0
STLB Hit, LLC data hit: 0
STLB Hit, LLC data miss: 0
STLB STLB hints to L2: 0
L1D TOTAL     ACCESS:   48346909  HIT:   45452305  MISS:    2894604  HIT %:    94.0128  MISS %:    5.98715   MPKI: 14.473
L1D LOAD      ACCESS:   27577580  HIT:   25504907  MISS:    2072673  HIT %:    92.4842  MISS %:    7.51579   MPKI: 10.3634
L1D RFO       ACCESS:   19591351  HIT:   19259627  MISS:     331724  HIT %:    98.3068  MISS %:    1.69322   MPKI: 1.65862
L1D PREFETCH  ACCESS:    1177978  HIT:     687771  MISS:     490207  HIT %:    58.3857  MISS %:    41.6143   MPKI: 2.45103
AGUS PREFETCH L1 MISS: 0
L1D PREFETCH  REQUESTED:    2443341  ISSUED:    2443321  USEFUL:     119347  USELESS:     370915
L1D USEFUL LOAD PREFETCHES:     119347 PREFETCH ISSUED TO LOWER LEVEL:     502756  ACCURACY: 23.7386
L1D TIMELY PREFETCHES:     119347 LATE PREFETCHES: 11889 DROPPED PREFETCHES: 0
L1D PREFETCHES SAME FILL-ORIGIN LEVEL: 502756 DIFFERENT FILL-ORIGIN LEVEL: 0
L1D AVERAGE MISS LATENCY: 1.02608e+06 cycles
L1D RQ	ACCESS:   42149806	FORWARD:          0	MERGED:   14206795	TO_CACHE:   27694003
L1D WQ	ACCESS:   20271818	FORWARD:     250347	MERGED:     313523	TO_CACHE:   19958295
L1D PQ	ACCESS:    1222330	FORWARD:          0	MERGED:          0	TO_CACHE:    1220991

L1D UNIQUE REGIONS ACCESSED: 0
L1D REGIONS CONFLICTS: 0
L1D Cross Page Prefetch Requests: 0
L1D Same Page Prefetch Requests: 1520469
L1D ROI Sum of L1D PQ occupancy: 15788744
L1D PREFETCHES PUSHED FROM L2C: 0
L1I TOTAL     ACCESS:   36572754  HIT:   31428241  MISS:    5144513  HIT %:    85.9335  MISS %:    14.0665   MPKI: 25.7226
L1I LOAD      ACCESS:   36572754  HIT:   31428241  MISS:    5144513  HIT %:    85.9335  MISS %:    14.0665   MPKI: 25.7226
L1I PREFETCH  REQUESTED:          0  ISSUED:          0  USEFUL:          0  USELESS:          0
L1I USEFUL LOAD PREFETCHES:          0 PREFETCH ISSUED TO LOWER LEVEL:          0  ACCURACY: -nan
L1I TIMELY PREFETCHES:          0 LATE PREFETCHES: 0 DROPPED PREFETCHES: 0
L1I PREFETCHES SAME FILL-ORIGIN LEVEL: 0 DIFFERENT FILL-ORIGIN LEVEL: 0
L1I AVERAGE MISS LATENCY: 25.9394 cycles
L1I RQ	ACCESS:   57229176	FORWARD:          0	MERGED:   18859816	TO_CACHE:   38369360

BTB TOTAL     ACCESS:   22132994  HIT:   17703037  MISS:    4429957  HIT %:    79.9848  MISS %:    20.0152   MPKI: 22.1498
BTB BRANCH_DIRECT_JUMP	ACCESS:    1771716  HIT:    1521380  MISS:     250336
BTB BRANCH_INDIRECT	ACCESS:    9488973  HIT:    7332684  MISS:    2156289
BTB BRANCH_CONDITIONAL	ACCESS:    4504476  HIT:    4096603  MISS:     407873
BTB BRANCH_DIRECT_CALL	ACCESS:    2499396  HIT:    2015019  MISS:     484377
BTB BRANCH_INDIRECT_CALL	ACCESS:     683762  HIT:     642808  MISS:      40954
BTB BRANCH_RETURN	ACCESS:    3184671  HIT:    2094543  MISS:    1090128
BTB BRANCH_OTHER ACCESS:          0  HIT:          0  MISS:          0

L2C TOTAL     ACCESS:    9544003  HIT:    5977768  MISS:    3566235  HIT %:    62.6338  MISS %:    37.3662   MPKI: 17.8312
L2C LOAD      ACCESS:    7205193  HIT:    4357741  MISS:    2847452  HIT %:    60.4806  MISS %:    39.5194   MPKI: 14.2373
L2C DATA LOAD MPKI: 4.46638
L2C INSTRUCTION LOAD MPKI: 9.77088
L2C RFO       ACCESS:     331057  HIT:     196076  MISS:     134981  HIT %:    59.2273  MISS %:    40.7727   MPKI: 0.674905
L2C PREFETCH  ACCESS:     502755  HIT:     147004  MISS:     355751  HIT %:    29.2397  MISS %:    70.7603   MPKI: 1.77875
AGUS PREFETCH L1 MISS: 0
L2C DATA PREFETCH MPKI: 1.77875
L2C INSTRUCTION PREFETCH MPKI: 0
L2C WRITEBACK ACCESS:    1039650  HIT:     997583  MISS:      42067  HIT %:    95.9537  MISS %:    4.04627   MPKI: 0.210335
L2C LOAD TRANSLATION ACCESS:     465348  HIT:     279364  MISS:     185984  HIT %:    60.0334  MISS %:    39.9666   MPKI: 0.92992
L2C PREFETCH  REQUESTED:          0  ISSUED:          0  USEFUL:      13781  USELESS:     342088
L2C USEFUL LOAD PREFETCHES:      13781 PREFETCH ISSUED TO LOWER LEVEL:     355751  ACCURACY: 3.87378
L2C TIMELY PREFETCHES:      13781 LATE PREFETCHES: 0 DROPPED PREFETCHES: 0
L2C PREFETCHES SAME FILL-ORIGIN LEVEL: 0 DIFFERENT FILL-ORIGIN LEVEL: 0
L2C AVERAGE MISS LATENCY: 45.2044 cycles
L2C RQ	ACCESS:    8001710	FORWARD:          0	MERGED:          0	TO_CACHE:    8001599
L2C WQ	ACCESS:    1039650	FORWARD:        112	MERGED:          0	TO_CACHE:    1039650
L2C PQ	ACCESS:     502756	FORWARD:          0	MERGED:          0	TO_CACHE:     502755

L2C Instructions Evicting Data 784031
L2C Translations Evicting Data 75920
L2C Data Evicting Data 550018
L2C Instructions Evicting Instructions 1071958
L2C Translations Evicting Instructions 99058
L2C Data Evicting Instructions 759357
L2C Instructions Evicting Translations 98187
L2C Translations Evicting Translations 11006
L2C Data Evicting Translations 74633
L2C Dense regions hint from L2: 0
PSCL5 TOTAL     ACCESS:     355362  HIT:     355362  MISS:          0  HIT %:        100  MISS %:          0   MPKI: 0
PSCL5 LOAD TRANSLATION ACCESS:     355362  HIT:     355362  MISS:          0  HIT %:        100  MISS %:          0   MPKI: 0
PSCL5 PREFETCH  REQUESTED:          0  ISSUED:          0  USEFUL:          0  USELESS:          0
PSCL5 USEFUL LOAD PREFETCHES:          0 PREFETCH ISSUED TO LOWER LEVEL:          0  ACCURACY: -nan
PSCL5 TIMELY PREFETCHES:          0 LATE PREFETCHES: 0 DROPPED PREFETCHES: 0
PSCL5 PREFETCHES SAME FILL-ORIGIN LEVEL: 0 DIFFERENT FILL-ORIGIN LEVEL: 0

PSCL4 TOTAL     ACCESS:     335186  HIT:     334751  MISS:        435  HIT %:    99.8702  MISS %:   0.129779   MPKI: 0.002175
PSCL4 LOAD TRANSLATION ACCESS:     335186  HIT:     334751  MISS:        435  HIT %:    99.8702  MISS %:   0.129779   MPKI: 0.002175
PSCL4 PREFETCH  REQUESTED:          0  ISSUED:          0  USEFUL:          0  USELESS:          0
PSCL4 USEFUL LOAD PREFETCHES:          0 PREFETCH ISSUED TO LOWER LEVEL:          0  ACCURACY: -nan
PSCL4 TIMELY PREFETCHES:          0 LATE PREFETCHES: 0 DROPPED PREFETCHES: 0
PSCL4 PREFETCHES SAME FILL-ORIGIN LEVEL: 0 DIFFERENT FILL-ORIGIN LEVEL: 0

PSCL3 TOTAL     ACCESS:     354403  HIT:     353535  MISS:        868  HIT %:    99.7551  MISS %:   0.244919   MPKI: 0.00434
PSCL3 LOAD TRANSLATION ACCESS:     354403  HIT:     353535  MISS:        868  HIT %:    99.7551  MISS %:   0.244919   MPKI: 0.00434
PSCL3 PREFETCH  REQUESTED:          0  ISSUED:          0  USEFUL:          0  USELESS:          0
PSCL3 USEFUL LOAD PREFETCHES:          0 PREFETCH ISSUED TO LOWER LEVEL:          0  ACCURACY: -nan
PSCL3 TIMELY PREFETCHES:          0 LATE PREFETCHES: 0 DROPPED PREFETCHES: 0
PSCL3 PREFETCHES SAME FILL-ORIGIN LEVEL: 0 DIFFERENT FILL-ORIGIN LEVEL: 0

PSCL2 TOTAL     ACCESS:     355362  HIT:     246679  MISS:     108683  HIT %:    69.4163  MISS %:    30.5837   MPKI: 0.543415
PSCL2 LOAD TRANSLATION ACCESS:     355362  HIT:     246679  MISS:     108683  HIT %:    69.4163  MISS %:    30.5837   MPKI: 0.543415
PSCL2 PREFETCH  REQUESTED:          0  ISSUED:          0  USEFUL:          0  USELESS:          0
PSCL2 USEFUL LOAD PREFETCHES:          0 PREFETCH ISSUED TO LOWER LEVEL:          0  ACCURACY: -nan
PSCL2 TIMELY PREFETCHES:          0 LATE PREFETCHES: 0 DROPPED PREFETCHES: 0
PSCL2 PREFETCHES SAME FILL-ORIGIN LEVEL: 0 DIFFERENT FILL-ORIGIN LEVEL: 0

LLC TOTAL     ACCESS:    3949730  HIT:    3579779  MISS:     369951  HIT %:    90.6335  MISS %:    9.36649   MPKI: 1.84975
LLC LOAD      ACCESS:    2847451  HIT:    2634072  MISS:     213379  HIT %:    92.5063  MISS %:    7.49368   MPKI: 1.06689
LLC RFO       ACCESS:     134980  HIT:      92021  MISS:      42959  HIT %:    68.1738  MISS %:    31.8262   MPKI: 0.214795
LLC PREFETCH  ACCESS:     355751  HIT:     259046  MISS:      96705  HIT %:    72.8167  MISS %:    27.1833   MPKI: 0.483525
AGUS PREFETCH L1 MISS: 0
LLC WRITEBACK ACCESS:     425564  HIT:     422870  MISS:       2694  HIT %:     99.367  MISS %:   0.633042   MPKI: 0.01347
LLC LOAD TRANSLATION ACCESS:     185984  HIT:     171770  MISS:      14214  HIT %:    92.3574  MISS %:    7.64259   MPKI: 0.07107
LLC PREFETCH  REQUESTED:          0  ISSUED:          0  USEFUL:       2888  USELESS:      93846
LLC USEFUL LOAD PREFETCHES:       2888 PREFETCH ISSUED TO LOWER LEVEL:      96705  ACCURACY: 2.9864
LLC TIMELY PREFETCHES:       2888 LATE PREFETCHES: 0 DROPPED PREFETCHES: 0
LLC PREFETCHES SAME FILL-ORIGIN LEVEL: 0 DIFFERENT FILL-ORIGIN LEVEL: 0
LLC AVERAGE MISS LATENCY: 149.973 cycles
LLC RQ	ACCESS:    3168417	FORWARD:          0	MERGED:          0	TO_CACHE:    3168415
LLC WQ	ACCESS:     425564	FORWARD:          2	MERGED:          0	TO_CACHE:     425564
LLC PQ	ACCESS:     355751	FORWARD:          0	MERGED:          0	TO_CACHE:     355751

LLC Dense regions hint to LLC: 0

RAW hits: 2702868
Loads Generated: 44852676
Loads sent to L1D: 42149806
Stores Generated: 20271815
Stores sent to L1D: 20271818
Major fault: 0 Minor fault: 6260
Allocated PAGES: 6260

stream: 
stream:times selected: 2327386
stream:pref_filled: 401015
stream:pref_useful: 102574
stream:pref_late: 10807
stream:misses: 48456
stream:misses_by_poll: 0

CS: 
CS:times selected: 109925
CS:pref_filled: 38993
CS:pref_useful: 22334
CS:pref_late: 483
CS:misses: 2577
CS:misses_by_poll: 0

CPLX: 
CPLX:times selected: 2180603
CPLX:pref_filled: 170657
CPLX:pref_useful: 25889
CPLX:pref_late: 997
CPLX:misses: 188992
CPLX:misses_by_poll: 36

NL_L1: 
NL:times selected: 18165
NL:pref_filled: 5933
NL:pref_useful: 1031
NL:pref_late: 195
NL:misses: 2131
NL:misses_by_poll: 0

total selections: 4636079
total_filled: 490207
total_useful: 119347
total_late: 13118
total_polluted: 36
total_misses_after_warmup: 2189096
conflicts: 6307330
Degree Incremented Times: 0
Degree Decremented Times: 393024

L1 IP Table Write Accesses: 19333500
L1 IP Table Read Accesses: 13026170
L1 RST Write Accesses: 1864176
L1 RST Read Accesses: 3728352
L1 CSPT Write Accesses: 1864176
L1 CSPT Read Accesses: 3611105
L1 RR Filter Tag Write Accesses: 1222350
L1 RR Filter Tag Read Accesses: 71281531
L1 IP Table Tag Write Accesses: 27694003
L1 IP Table Tag Read Accesses: 27694003
L1 RST Tag Write Accesses: 0
L1 RST Tag Read Accesses: 17771660
L1 RR Filter Write Accesses: 0
L1 RR Filter Read Accesses: 2627219
test: 689658

DRAM Statistics
 CHANNEL 0
 RQ ROW_BUFFER_HIT:      80065  ROW_BUFFER_MISS:     287191
 DBUS_CONGESTED:        197
 WQ ROW_BUFFER_HIT:      35771  ROW_BUFFER_MISS:     183787  FULL:          0

 AVG_CONGESTED_CYCLE: 4
 All warmup complete: 2
Channel 0 Bank busy for read cycles: 0
Channel 0 Bank busy for write cycles: 0
Channel 0
Rank 0
0banks busy for read cycles: 386053373
0banks busy for write cycles: 112524
1banks busy for read cycles: 27551749
1banks busy for write cycles: 15613951
2banks busy for read cycles: 5757050
2banks busy for write cycles: 3533441
3banks busy for read cycles: 1449286
3banks busy for write cycles: 1444441
4banks busy for read cycles: 492004
4banks busy for write cycles: 896248
5banks busy for read cycles: 141543
5banks busy for write cycles: 688561
6banks busy for read cycles: 61901
6banks busy for write cycles: 557948
7banks busy for read cycles: 41733
7banks busy for write cycles: 459600
8banks busy for read cycles: 41264
8banks busy for write cycles: 441486

CPU 0 Branch Prediction Accuracy: 99.8245% MPKI: 0.314415 Average ROB Occupancy at Mispredict: 39.9466
Branch types
NOT_BRANCH: 164177127 82.0886%
BRANCH_DIRECT_JUMP: 1771716 0.885858%
BRANCH_INDIRECT: 9488973 4.74449%
BRANCH_CONDITIONAL: 18194015 9.09701%
BRANCH_DIRECT_CALL: 2499396 1.2497%
BRANCH_INDIRECT_CALL: 683762 0.341881%
BRANCH_RETURN: 3184671 1.59234%
BRANCH_OTHER: 0 0%

DRAM PAGES: 1048576
Allocated PAGES: 6260
