
*** ChampSim Multicore Out-of-Order Simulator ***

Warmup Instructions: 50000000
Simulation Instructions: 200000000
Number of CPUs: 1
LLC sets: 2048
LLC ways: 16
Off-chip DRAM Size: 4096 MB Channels: 1 Width: 64-bit Data Rate: 6400 MT/s
CPU 0 runs traces/spec2k17/srv_74.champsimtrace.xz
.xz
BTB has LRU replacement policy
ITLB has LRU replacement policy
DTLB has LRU replacement policy
STLB has LRU replacement policy
L1I has LRU replacement policy
IP Table Entries: 1024
CSPT Entries: 128
RR_ENTRIES: 32
RST_ENTRIES: 8
L1D has LRU replacement policy
Initialize SRRIP state for L2C
Initialize DRRIP state for LLC
Heartbeat CPU 0 instructions: 10000003 cycles: 2827669 heartbeat IPC: 3.53648 cumulative IPC: 3.53648 (Simulation time: 0 hr 0 min 49 sec) 
Heartbeat CPU 0 instructions: 20000003 cycles: 5650342 heartbeat IPC: 3.54274 cumulative IPC: 3.53961 (Simulation time: 0 hr 1 min 35 sec) 
Heartbeat CPU 0 instructions: 30000002 cycles: 8474095 heartbeat IPC: 3.54139 cumulative IPC: 3.5402 (Simulation time: 0 hr 2 min 23 sec) 
*** Reached end of trace for Core: 0 Repeating trace: traces/spec2k17/srv_74.champsimtrace.xz
Heartbeat CPU 0 instructions: 40000002 cycles: 11294638 heartbeat IPC: 3.54542 cumulative IPC: 3.5415 (Simulation time: 0 hr 3 min 8 sec) 
Heartbeat CPU 0 instructions: 50000001 cycles: 14117039 heartbeat IPC: 3.54308 cumulative IPC: 3.54182 (Simulation time: 0 hr 3 min 58 sec) 

Warmup complete CPU 0 instructions: 50000001 cycles: 14117039 (Simulation time: 0 hr 3 min 58 sec) 

Heartbeat CPU 0 instructions: 60000002 cycles: 46570134 heartbeat IPC: 0.308137 cumulative IPC: 0.308137 (Simulation time: 0 hr 5 min 1 sec) 
*** Reached end of trace for Core: 0 Repeating trace: traces/spec2k17/srv_74.champsimtrace.xz
Heartbeat CPU 0 instructions: 70000000 cycles: 78763465 heartbeat IPC: 0.310623 cumulative IPC: 0.309375 (Simulation time: 0 hr 5 min 54 sec) 
Heartbeat CPU 0 instructions: 80000000 cycles: 111261294 heartbeat IPC: 0.307713 cumulative IPC: 0.308819 (Simulation time: 0 hr 6 min 51 sec) 
Heartbeat CPU 0 instructions: 90000001 cycles: 143696789 heartbeat IPC: 0.308304 cumulative IPC: 0.30869 (Simulation time: 0 hr 7 min 53 sec) 
*** Reached end of trace for Core: 0 Repeating trace: traces/spec2k17/srv_74.champsimtrace.xz
Heartbeat CPU 0 instructions: 100000000 cycles: 175826377 heartbeat IPC: 0.31124 cumulative IPC: 0.309197 (Simulation time: 0 hr 8 min 47 sec) 
Heartbeat CPU 0 instructions: 110000000 cycles: 208323949 heartbeat IPC: 0.307715 cumulative IPC: 0.308949 (Simulation time: 0 hr 9 min 40 sec) 
Heartbeat CPU 0 instructions: 120000002 cycles: 240669840 heartbeat IPC: 0.309158 cumulative IPC: 0.308979 (Simulation time: 0 hr 10 min 34 sec) 
*** Reached end of trace for Core: 0 Repeating trace: traces/spec2k17/srv_74.champsimtrace.xz
Heartbeat CPU 0 instructions: 130000001 cycles: 272885503 heartbeat IPC: 0.310408 cumulative IPC: 0.309157 (Simulation time: 0 hr 11 min 26 sec) 
Heartbeat CPU 0 instructions: 140000000 cycles: 305260862 heartbeat IPC: 0.308877 cumulative IPC: 0.309126 (Simulation time: 0 hr 12 min 27 sec) 
Heartbeat CPU 0 instructions: 150000000 cycles: 337717308 heartbeat IPC: 0.308105 cumulative IPC: 0.309023 (Simulation time: 0 hr 13 min 26 sec) 
*** Reached end of trace for Core: 0 Repeating trace: traces/spec2k17/srv_74.champsimtrace.xz
Heartbeat CPU 0 instructions: 160000003 cycles: 369865349 heartbeat IPC: 0.311061 cumulative IPC: 0.309207 (Simulation time: 0 hr 14 min 22 sec) 
Heartbeat CPU 0 instructions: 170000002 cycles: 402261325 heartbeat IPC: 0.30868 cumulative IPC: 0.309163 (Simulation time: 0 hr 15 min 21 sec) 
Heartbeat CPU 0 instructions: 180000000 cycles: 434697256 heartbeat IPC: 0.3083 cumulative IPC: 0.309097 (Simulation time: 0 hr 16 min 12 sec) 
*** Reached end of trace for Core: 0 Repeating trace: traces/spec2k17/srv_74.champsimtrace.xz
Heartbeat CPU 0 instructions: 190000003 cycles: 466891725 heartbeat IPC: 0.310612 cumulative IPC: 0.309205 (Simulation time: 0 hr 17 min 5 sec) 
Heartbeat CPU 0 instructions: 200000000 cycles: 499263992 heartbeat IPC: 0.308906 cumulative IPC: 0.309185 (Simulation time: 0 hr 18 min 6 sec) 
Heartbeat CPU 0 instructions: 210000001 cycles: 531623826 heartbeat IPC: 0.309025 cumulative IPC: 0.309175 (Simulation time: 0 hr 19 min 5 sec) 
*** Reached end of trace for Core: 0 Repeating trace: traces/spec2k17/srv_74.champsimtrace.xz
Heartbeat CPU 0 instructions: 220000000 cycles: 563809791 heartbeat IPC: 0.310694 cumulative IPC: 0.309264 (Simulation time: 0 hr 19 min 59 sec) 
Heartbeat CPU 0 instructions: 230000002 cycles: 596202173 heartbeat IPC: 0.308715 cumulative IPC: 0.309233 (Simulation time: 0 hr 20 min 56 sec) 
Heartbeat CPU 0 instructions: 240000001 cycles: 628535246 heartbeat IPC: 0.309281 cumulative IPC: 0.309236 (Simulation time: 0 hr 21 min 55 sec) 
*** Reached end of trace for Core: 0 Repeating trace: traces/spec2k17/srv_74.champsimtrace.xz
Heartbeat CPU 0 instructions: 250000003 cycles: 660785444 heartbeat IPC: 0.310076 cumulative IPC: 0.309278 (Simulation time: 0 hr 22 min 54 sec) 
Finished CPU 0 instructions: 200000002 cycles: 646668405 cumulative IPC: 0.309278 (Simulation time: 0 hr 22 min 54 sec) 

ChampSim completed all CPUs

Region of Interest Statistics

CPU 0 cumulative IPC: 0.309278 instructions: 200000002 cycles: 646668405
ITLB TOTAL     ACCESS:   34705840  HIT:   32656412  MISS:    2049428  HIT %:    94.0949  MISS %:    5.90514   MPKI: 10.2471
ITLB LOAD TRANSLATION ACCESS:   34705840  HIT:   32656412  MISS:    2049428  HIT %:    94.0949  MISS %:    5.90514   MPKI: 10.2471
ITLB PREFETCH  REQUESTED:          0  ISSUED:          0  USEFUL:          0  USELESS:          0
ITLB USEFUL LOAD PREFETCHES:          0 PREFETCH ISSUED TO LOWER LEVEL:          0  ACCURACY: -nan
ITLB TIMELY PREFETCHES:          0 LATE PREFETCHES: 0 DROPPED PREFETCHES: 0
ITLB PREFETCHES SAME FILL-ORIGIN LEVEL: 0 DIFFERENT FILL-ORIGIN LEVEL: 0
ITLB AVERAGE MISS LATENCY: 9.04728 cycles
ITLB RQ	ACCESS:   40952772	FORWARD:          0	MERGED:    5757841	TO_CACHE:   35194931

DTLB TOTAL     ACCESS:   46509410  HIT:   44664159  MISS:    1845251  HIT %:    96.0325  MISS %:    3.96748   MPKI: 9.22625
DTLB LOAD TRANSLATION ACCESS:   46509410  HIT:   44664159  MISS:    1845251  HIT %:    96.0325  MISS %:    3.96748   MPKI: 9.22625
DTLB PREFETCH  REQUESTED:          0  ISSUED:          0  USEFUL:          0  USELESS:          0
DTLB USEFUL LOAD PREFETCHES:          0 PREFETCH ISSUED TO LOWER LEVEL:          0  ACCURACY: -nan
DTLB TIMELY PREFETCHES:          0 LATE PREFETCHES: 0 DROPPED PREFETCHES: 0
DTLB PREFETCHES SAME FILL-ORIGIN LEVEL: 0 DIFFERENT FILL-ORIGIN LEVEL: 0
DTLB AVERAGE MISS LATENCY: 9.18579 cycles
DTLB RQ	ACCESS:   61182764	FORWARD:          0	MERGED:   14611364	TO_CACHE:   46571400

STLB TOTAL     ACCESS:    5887942  HIT:    5878584  MISS:       9358  HIT %:    99.8411  MISS %:   0.158935   MPKI: 0.04679
STLB LOAD TRANSLATION ACCESS:    3894679  HIT:    3885321  MISS:       9358  HIT %:    99.7597  MISS %:   0.240277   MPKI: 0.04679
STLB TRANSLATION FROM L1D PREFETCHER ACCESS:    1993263  HIT:    1993263  MISS:          0  HIT %:        100  MISS %:          0   MPKI: 0
STLB PREFETCH  REQUESTED:          0  ISSUED:          0  USEFUL:          0  USELESS:          0
STLB USEFUL LOAD PREFETCHES:          0 PREFETCH ISSUED TO LOWER LEVEL:          0  ACCURACY: -nan
STLB TIMELY PREFETCHES:          0 LATE PREFETCHES: 0 DROPPED PREFETCHES: 0
STLB PREFETCHES SAME FILL-ORIGIN LEVEL: 0 DIFFERENT FILL-ORIGIN LEVEL: 0
STLB AVERAGE MISS LATENCY: 44.6325 cycles
STLB RQ	ACCESS:    6432817	FORWARD:          0	MERGED:     544875	TO_CACHE:    5887942

STLB Hit, L1D data hit: 0
STLB Hit, L2C data hit: 0
STLB Hit, LLC data hit: 0
STLB Hit, LLC data miss: 0
STLB STLB hints to L2: 0
L1D TOTAL     ACCESS:   61723936  HIT:   57101720  MISS:    4622216  HIT %:    92.5115  MISS %:    7.48853   MPKI: 23.1111
L1D LOAD      ACCESS:   34262227  HIT:   31461948  MISS:    2800279  HIT %:    91.8269  MISS %:    8.17308   MPKI: 14.0014
L1D RFO       ACCESS:   25090537  HIT:   23965310  MISS:    1125227  HIT %:    95.5153  MISS %:    4.48467   MPKI: 5.62613
L1D PREFETCH  ACCESS:    2371172  HIT:    1674462  MISS:     696710  HIT %:    70.6175  MISS %:    29.3825   MPKI: 3.48355
AGUS PREFETCH L1 MISS: 0
L1D PREFETCH  REQUESTED:    5077675  ISSUED:    5077675  USEFUL:     180215  USELESS:     516493
L1D USEFUL LOAD PREFETCHES:     180215 PREFETCH ISSUED TO LOWER LEVEL:     804332  ACCURACY: 22.4055
L1D TIMELY PREFETCHES:     180215 LATE PREFETCHES: 104844 DROPPED PREFETCHES: 0
L1D PREFETCHES SAME FILL-ORIGIN LEVEL: 804332 DIFFERENT FILL-ORIGIN LEVEL: 0
L1D AVERAGE MISS LATENCY: 7.84486e+06 cycles
L1D RQ	ACCESS:   47456592	FORWARD:          0	MERGED:   12788371	TO_CACHE:   34367535
L1D WQ	ACCESS:   26978308	FORWARD:     302085	MERGED:     163079	TO_CACHE:   26815229
L1D PQ	ACCESS:    2539537	FORWARD:          0	MERGED:          0	TO_CACHE:    2538138

L1D UNIQUE REGIONS ACCESSED: 0
L1D REGIONS CONFLICTS: 0
L1D Cross Page Prefetch Requests: 0
L1D Same Page Prefetch Requests: 3127146
L1D ROI Sum of L1D PQ occupancy: 32418993
L1D PREFETCHES PUSHED FROM L2C: 0
L1I TOTAL     ACCESS:   39419351  HIT:   28747249  MISS:   10672102  HIT %:    72.9267  MISS %:    27.0733   MPKI: 53.3605
L1I LOAD      ACCESS:   39419351  HIT:   28747249  MISS:   10672102  HIT %:    72.9267  MISS %:    27.0733   MPKI: 53.3605
L1I PREFETCH  REQUESTED:          0  ISSUED:          0  USEFUL:          0  USELESS:          0
L1I USEFUL LOAD PREFETCHES:          0 PREFETCH ISSUED TO LOWER LEVEL:          0  ACCURACY: -nan
L1I TIMELY PREFETCHES:          0 LATE PREFETCHES: 0 DROPPED PREFETCHES: 0
L1I PREFETCHES SAME FILL-ORIGIN LEVEL: 0 DIFFERENT FILL-ORIGIN LEVEL: 0
L1I AVERAGE MISS LATENCY: 16.9691 cycles
L1I RQ	ACCESS:   58016276	FORWARD:          0	MERGED:   17063504	TO_CACHE:   40952772

BTB TOTAL     ACCESS:   30033476  HIT:   17281462  MISS:   12752014  HIT %:    57.5407  MISS %:    42.4593   MPKI: 63.7601
BTB BRANCH_DIRECT_JUMP	ACCESS:    2021885  HIT:    1134568  MISS:     887317
BTB BRANCH_INDIRECT	ACCESS:   11920987  HIT:    7083122  MISS:    4837865
BTB BRANCH_CONDITIONAL	ACCESS:    7473548  HIT:    6138948  MISS:    1334600
BTB BRANCH_DIRECT_CALL	ACCESS:    3633788  HIT:    1531063  MISS:    2102725
BTB BRANCH_INDIRECT_CALL	ACCESS:     674713  HIT:     268267  MISS:     406446
BTB BRANCH_RETURN	ACCESS:    4308555  HIT:    1125494  MISS:    3183061
BTB BRANCH_OTHER ACCESS:          0  HIT:          0  MISS:          0

L2C TOTAL     ACCESS:   17357146  HIT:   15468383  MISS:    1888763  HIT %:    89.1182  MISS %:    10.8818   MPKI: 9.44381
L2C LOAD      ACCESS:   13367526  HIT:   12028638  MISS:    1338888  HIT %:     89.984  MISS %:     10.016   MPKI: 6.69444
L2C DATA LOAD MPKI: 1.56541
L2C INSTRUCTION LOAD MPKI: 5.12902
L2C RFO       ACCESS:    1122446  HIT:     908264  MISS:     214182  HIT %:    80.9183  MISS %:    19.0817   MPKI: 1.07091
L2C PREFETCH  ACCESS:     804321  HIT:     558144  MISS:     246177  HIT %:    69.3932  MISS %:    30.6068   MPKI: 1.23088
AGUS PREFETCH L1 MISS: 0
L2C DATA PREFETCH MPKI: 1.23088
L2C INSTRUCTION PREFETCH MPKI: 0
L2C WRITEBACK ACCESS:    2052920  HIT:    1970381  MISS:      82539  HIT %:    95.9794  MISS %:    4.02057   MPKI: 0.412695
L2C LOAD TRANSLATION ACCESS:       9933  HIT:       2956  MISS:       6977  HIT %:    29.7594  MISS %:    70.2406   MPKI: 0.034885
L2C PREFETCH  REQUESTED:          0  ISSUED:          0  USEFUL:       7773  USELESS:     238457
L2C USEFUL LOAD PREFETCHES:       7773 PREFETCH ISSUED TO LOWER LEVEL:     246177  ACCURACY: 3.15748
L2C TIMELY PREFETCHES:       7773 LATE PREFETCHES: 0 DROPPED PREFETCHES: 0
L2C PREFETCHES SAME FILL-ORIGIN LEVEL: 0 DIFFERENT FILL-ORIGIN LEVEL: 0
L2C AVERAGE MISS LATENCY: 30.0675 cycles
L2C RQ	ACCESS:   14499918	FORWARD:          0	MERGED:          0	TO_CACHE:   14499905
L2C WQ	ACCESS:    2052920	FORWARD:         24	MERGED:          0	TO_CACHE:    2052920
L2C PQ	ACCESS:     804332	FORWARD:          0	MERGED:          0	TO_CACHE:     804321

L2C Instructions Evicting Data 414821
L2C Translations Evicting Data 4678
L2C Data Evicting Data 400543
L2C Instructions Evicting Instructions 608845
L2C Translations Evicting Instructions 2160
L2C Data Evicting Instructions 368278
L2C Instructions Evicting Translations 2139
L2C Translations Evicting Translations 139
L2C Data Evicting Translations 4621
L2C Dense regions hint from L2: 0
PSCL5 TOTAL     ACCESS:       9358  HIT:       9358  MISS:          0  HIT %:        100  MISS %:          0   MPKI: 0
PSCL5 LOAD TRANSLATION ACCESS:       9358  HIT:       9358  MISS:          0  HIT %:        100  MISS %:          0   MPKI: 0
PSCL5 PREFETCH  REQUESTED:          0  ISSUED:          0  USEFUL:          0  USELESS:          0
PSCL5 USEFUL LOAD PREFETCHES:          0 PREFETCH ISSUED TO LOWER LEVEL:          0  ACCURACY: -nan
PSCL5 TIMELY PREFETCHES:          0 LATE PREFETCHES: 0 DROPPED PREFETCHES: 0
PSCL5 PREFETCHES SAME FILL-ORIGIN LEVEL: 0 DIFFERENT FILL-ORIGIN LEVEL: 0

PSCL4 TOTAL     ACCESS:       6295  HIT:       6242  MISS:         53  HIT %:    99.1581  MISS %:   0.841938   MPKI: 0.000265
PSCL4 LOAD TRANSLATION ACCESS:       6295  HIT:       6242  MISS:         53  HIT %:    99.1581  MISS %:   0.841938   MPKI: 0.000265
PSCL4 PREFETCH  REQUESTED:          0  ISSUED:          0  USEFUL:          0  USELESS:          0
PSCL4 USEFUL LOAD PREFETCHES:          0 PREFETCH ISSUED TO LOWER LEVEL:          0  ACCURACY: -nan
PSCL4 TIMELY PREFETCHES:          0 LATE PREFETCHES: 0 DROPPED PREFETCHES: 0
PSCL4 PREFETCHES SAME FILL-ORIGIN LEVEL: 0 DIFFERENT FILL-ORIGIN LEVEL: 0

PSCL3 TOTAL     ACCESS:       8402  HIT:       8322  MISS:         80  HIT %:    99.0478  MISS %:   0.952154   MPKI: 0.0004
PSCL3 LOAD TRANSLATION ACCESS:       8402  HIT:       8322  MISS:         80  HIT %:    99.0478  MISS %:   0.952154   MPKI: 0.0004
PSCL3 PREFETCH  REQUESTED:          0  ISSUED:          0  USEFUL:          0  USELESS:          0
PSCL3 USEFUL LOAD PREFETCHES:          0 PREFETCH ISSUED TO LOWER LEVEL:          0  ACCURACY: -nan
PSCL3 TIMELY PREFETCHES:          0 LATE PREFETCHES: 0 DROPPED PREFETCHES: 0
PSCL3 PREFETCHES SAME FILL-ORIGIN LEVEL: 0 DIFFERENT FILL-ORIGIN LEVEL: 0

PSCL2 TOTAL     ACCESS:       9358  HIT:       8916  MISS:        442  HIT %:    95.2768  MISS %:    4.72323   MPKI: 0.00221
PSCL2 LOAD TRANSLATION ACCESS:       9358  HIT:       8916  MISS:        442  HIT %:    95.2768  MISS %:    4.72323   MPKI: 0.00221
PSCL2 PREFETCH  REQUESTED:          0  ISSUED:          0  USEFUL:          0  USELESS:          0
PSCL2 USEFUL LOAD PREFETCHES:          0 PREFETCH ISSUED TO LOWER LEVEL:          0  ACCURACY: -nan
PSCL2 TIMELY PREFETCHES:          0 LATE PREFETCHES: 0 DROPPED PREFETCHES: 0
PSCL2 PREFETCHES SAME FILL-ORIGIN LEVEL: 0 DIFFERENT FILL-ORIGIN LEVEL: 0

LLC TOTAL     ACCESS:    2112512  HIT:    2094872  MISS:      17640  HIT %:     99.165  MISS %:   0.835025   MPKI: 0.0882
LLC LOAD      ACCESS:    1338888  HIT:    1334912  MISS:       3976  HIT %:     99.703  MISS %:   0.296963   MPKI: 0.01988
LLC RFO       ACCESS:     214178  HIT:     208141  MISS:       6037  HIT %:    97.1813  MISS %:    2.81868   MPKI: 0.030185
LLC PREFETCH  ACCESS:     246177  HIT:     238816  MISS:       7361  HIT %:    97.0099  MISS %:    2.99012   MPKI: 0.036805
AGUS PREFETCH L1 MISS: 0
LLC WRITEBACK ACCESS:     306292  HIT:     306164  MISS:        128  HIT %:    99.9582  MISS %:  0.0417902   MPKI: 0.00064
LLC LOAD TRANSLATION ACCESS:       6977  HIT:       6839  MISS:        138  HIT %:    98.0221  MISS %:    1.97793   MPKI: 0.00069
LLC PREFETCH  REQUESTED:          0  ISSUED:          0  USEFUL:       1550  USELESS:       5618
LLC USEFUL LOAD PREFETCHES:       1550 PREFETCH ISSUED TO LOWER LEVEL:       7361  ACCURACY: 21.0569
LLC TIMELY PREFETCHES:       1550 LATE PREFETCHES: 0 DROPPED PREFETCHES: 0
LLC PREFETCHES SAME FILL-ORIGIN LEVEL: 0 DIFFERENT FILL-ORIGIN LEVEL: 0
LLC AVERAGE MISS LATENCY: 147.577 cycles
LLC RQ	ACCESS:    1560047	FORWARD:          0	MERGED:          0	TO_CACHE:    1560043
LLC WQ	ACCESS:     306292	FORWARD:          4	MERGED:          0	TO_CACHE:     306292
LLC PQ	ACCESS:     246177	FORWARD:          0	MERGED:          0	TO_CACHE:     246177

LLC Dense regions hint to LLC: 0

RAW hits: 1442271
Loads Generated: 48898863
Loads sent to L1D: 47456592
Stores Generated: 26978304
Stores sent to L1D: 26978308
Major fault: 0 Minor fault: 1920
Allocated PAGES: 1920

stream: 
stream:times selected: 4842485
stream:pref_filled: 601054
stream:pref_useful: 118651
stream:pref_late: 54512
stream:misses: 35675
stream:misses_by_poll: 0

CS: 
CS:times selected: 487687
CS:pref_filled: 174656
CS:pref_useful: 98618
CS:pref_late: 22451
CS:misses: 74959
CS:misses_by_poll: 75

CPLX: 
CPLX:times selected: 4343244
CPLX:pref_filled: 106901
CPLX:pref_useful: 21272
CPLX:pref_late: 3919
CPLX:misses: 332883
CPLX:misses_by_poll: 9

NL_L1: 
NL:times selected: 23575
NL:pref_filled: 3886
NL:pref_useful: 726
NL:pref_late: 15
NL:misses: 737
NL:misses_by_poll: 0

total selections: 9696991
total_filled: 696710
total_useful: 180215
total_late: 111014
total_polluted: 84
total_misses_after_warmup: 2905587
conflicts: 11735168
Degree Incremented Times: 0
Degree Decremented Times: 518861

L1 IP Table Write Accesses: 21506964
L1 IP Table Read Accesses: 9771796
L1 RST Write Accesses: 3937655
L1 RST Read Accesses: 7875310
L1 CSPT Write Accesses: 3937655
L1 CSPT Read Accesses: 7461443
L1 RR Filter Tag Write Accesses: 2539537
L1 RR Filter Tag Read Accesses: 161384484
L1 IP Table Tag Write Accesses: 34367535
L1 IP Table Tag Read Accesses: 34367535
L1 RST Tag Write Accesses: 0
L1 RST Tag Read Accesses: 33846405
L1 RR Filter Write Accesses: 0
L1 RR Filter Read Accesses: 5914539
test: 901756

DRAM Statistics
 CHANNEL 0
 RQ ROW_BUFFER_HIT:       4206  ROW_BUFFER_MISS:      13294
 DBUS_CONGESTED:         27
 WQ ROW_BUFFER_HIT:        520  ROW_BUFFER_MISS:       6559  FULL:          0

 AVG_CONGESTED_CYCLE: 5
 All warmup complete: 2
Channel 0 Bank busy for read cycles: 0
Channel 0 Bank busy for write cycles: 0
Channel 0
Rank 0
0banks busy for read cycles: 644488671
0banks busy for write cycles: 3749
1banks busy for read cycles: 1126356
1banks busy for write cycles: 483722
2banks busy for read cycles: 195747
2banks busy for write cycles: 85320
3banks busy for read cycles: 86850
3banks busy for write cycles: 40775
4banks busy for read cycles: 44085
4banks busy for write cycles: 24882
5banks busy for read cycles: 23279
5banks busy for write cycles: 16397
6banks busy for read cycles: 11613
6banks busy for write cycles: 13158
7banks busy for read cycles: 5899
7banks busy for write cycles: 8130
8banks busy for read cycles: 2812
8banks busy for write cycles: 6961

CPU 0 Branch Prediction Accuracy: 99.8875% MPKI: 0.19785 Average ROB Occupancy at Mispredict: 32.4392
Branch types
NOT_BRANCH: 164823650 82.4118%
BRANCH_DIRECT_JUMP: 2021885 1.01094%
BRANCH_INDIRECT: 11920987 5.96049%
BRANCH_CONDITIONAL: 12616391 6.3082%
BRANCH_DIRECT_CALL: 3633788 1.81689%
BRANCH_INDIRECT_CALL: 674713 0.337356%
BRANCH_RETURN: 4308555 2.15428%
BRANCH_OTHER: 0 0%

DRAM PAGES: 1048576
Allocated PAGES: 1920
