
*** ChampSim Multicore Out-of-Order Simulator ***

Warmup Instructions: 50000000
Simulation Instructions: 200000000
Number of CPUs: 1
LLC sets: 2048
LLC ways: 16
Off-chip DRAM Size: 4096 MB Channels: 1 Width: 64-bit Data Rate: 6400 MT/s
CPU 0 runs traces/spec2k17/srv_37.champsimtrace.xz
.xz
BTB has LRU replacement policy
ITLB has LRU replacement policy
DTLB has LRU replacement policy
STLB has LRU replacement policy
L1I has LRU replacement policy
IP Table Entries: 1024
CSPT Entries: 128
RR_ENTRIES: 32
RST_ENTRIES: 8
L1D has LRU replacement policy
Initialize SRRIP state for L2C
Initialize DRRIP state for LLC
Heartbeat CPU 0 instructions: 10000003 cycles: 2947332 heartbeat IPC: 3.3929 cumulative IPC: 3.3929 (Simulation time: 0 hr 1 min 1 sec) 
Heartbeat CPU 0 instructions: 20000003 cycles: 5884133 heartbeat IPC: 3.40507 cumulative IPC: 3.39897 (Simulation time: 0 hr 1 min 50 sec) 
Heartbeat CPU 0 instructions: 30000000 cycles: 8827252 heartbeat IPC: 3.39775 cumulative IPC: 3.39857 (Simulation time: 0 hr 2 min 42 sec) 
*** Reached end of trace for Core: 0 Repeating trace: traces/spec2k17/srv_37.champsimtrace.xz
Heartbeat CPU 0 instructions: 40000001 cycles: 11773326 heartbeat IPC: 3.39435 cumulative IPC: 3.39751 (Simulation time: 0 hr 3 min 39 sec) 
Heartbeat CPU 0 instructions: 50000000 cycles: 14710840 heartbeat IPC: 3.40424 cumulative IPC: 3.39885 (Simulation time: 0 hr 4 min 35 sec) 

Warmup complete CPU 0 instructions: 50000004 cycles: 14710841 (Simulation time: 0 hr 4 min 35 sec) 

Heartbeat CPU 0 instructions: 60000002 cycles: 34024876 heartbeat IPC: 0.517758 cumulative IPC: 0.517758 (Simulation time: 0 hr 5 min 36 sec) 
*** Reached end of trace for Core: 0 Repeating trace: traces/spec2k17/srv_37.champsimtrace.xz
Heartbeat CPU 0 instructions: 70000003 cycles: 52816746 heartbeat IPC: 0.532145 cumulative IPC: 0.524853 (Simulation time: 0 hr 6 min 48 sec) 
Heartbeat CPU 0 instructions: 80000000 cycles: 72047930 heartbeat IPC: 0.519989 cumulative IPC: 0.523221 (Simulation time: 0 hr 7 min 56 sec) 
Heartbeat CPU 0 instructions: 90000000 cycles: 91674573 heartbeat IPC: 0.509511 cumulative IPC: 0.519725 (Simulation time: 0 hr 9 min 6 sec) 
*** Reached end of trace for Core: 0 Repeating trace: traces/spec2k17/srv_37.champsimtrace.xz
Heartbeat CPU 0 instructions: 100000001 cycles: 110911468 heartbeat IPC: 0.519834 cumulative IPC: 0.519747 (Simulation time: 0 hr 10 min 6 sec) 
Heartbeat CPU 0 instructions: 110000000 cycles: 130170797 heartbeat IPC: 0.519229 cumulative IPC: 0.519661 (Simulation time: 0 hr 11 min 13 sec) 
Heartbeat CPU 0 instructions: 120000001 cycles: 149592616 heartbeat IPC: 0.514885 cumulative IPC: 0.518973 (Simulation time: 0 hr 12 min 17 sec) 
*** Reached end of trace for Core: 0 Repeating trace: traces/spec2k17/srv_37.champsimtrace.xz
Heartbeat CPU 0 instructions: 130000001 cycles: 169050510 heartbeat IPC: 0.51393 cumulative IPC: 0.518337 (Simulation time: 0 hr 13 min 25 sec) 
Heartbeat CPU 0 instructions: 140000003 cycles: 188188791 heartbeat IPC: 0.522513 cumulative IPC: 0.518798 (Simulation time: 0 hr 14 min 39 sec) 
Heartbeat CPU 0 instructions: 150000001 cycles: 207476550 heartbeat IPC: 0.518463 cumulative IPC: 0.518764 (Simulation time: 0 hr 15 min 42 sec) 
Heartbeat CPU 0 instructions: 160000000 cycles: 227089810 heartbeat IPC: 0.509859 cumulative IPC: 0.517942 (Simulation time: 0 hr 16 min 53 sec) 
*** Reached end of trace for Core: 0 Repeating trace: traces/spec2k17/srv_37.champsimtrace.xz
Heartbeat CPU 0 instructions: 170000003 cycles: 246297709 heartbeat IPC: 0.520619 cumulative IPC: 0.518164 (Simulation time: 0 hr 17 min 55 sec) 
Heartbeat CPU 0 instructions: 180000002 cycles: 265593184 heartbeat IPC: 0.518256 cumulative IPC: 0.518171 (Simulation time: 0 hr 19 min 5 sec) 
Heartbeat CPU 0 instructions: 190000000 cycles: 285167200 heartbeat IPC: 0.510881 cumulative IPC: 0.517644 (Simulation time: 0 hr 20 min 5 sec) 
*** Reached end of trace for Core: 0 Repeating trace: traces/spec2k17/srv_37.champsimtrace.xz
Heartbeat CPU 0 instructions: 200000001 cycles: 304398409 heartbeat IPC: 0.519988 cumulative IPC: 0.517799 (Simulation time: 0 hr 21 min 18 sec) 
Heartbeat CPU 0 instructions: 210000002 cycles: 323606608 heartbeat IPC: 0.520611 cumulative IPC: 0.517974 (Simulation time: 0 hr 22 min 20 sec) 
Heartbeat CPU 0 instructions: 220000000 cycles: 343211420 heartbeat IPC: 0.510079 cumulative IPC: 0.517503 (Simulation time: 0 hr 23 min 31 sec) 
*** Reached end of trace for Core: 0 Repeating trace: traces/spec2k17/srv_37.champsimtrace.xz
Heartbeat CPU 0 instructions: 230000000 cycles: 362433329 heartbeat IPC: 0.52024 cumulative IPC: 0.517654 (Simulation time: 0 hr 24 min 37 sec) 
Heartbeat CPU 0 instructions: 240000001 cycles: 381655965 heartbeat IPC: 0.52022 cumulative IPC: 0.517789 (Simulation time: 0 hr 25 min 48 sec) 
Heartbeat CPU 0 instructions: 250000001 cycles: 401137201 heartbeat IPC: 0.513314 cumulative IPC: 0.517563 (Simulation time: 0 hr 26 min 59 sec) 
Finished CPU 0 instructions: 200000002 cycles: 386426365 cumulative IPC: 0.517563 (Simulation time: 0 hr 26 min 59 sec) 

ChampSim completed all CPUs

Region of Interest Statistics

CPU 0 cumulative IPC: 0.517563 instructions: 200000002 cycles: 386426365
ITLB TOTAL     ACCESS:   33758150  HIT:   32225589  MISS:    1532561  HIT %:    95.4602  MISS %:    4.53983   MPKI: 7.6628
ITLB LOAD TRANSLATION ACCESS:   33758150  HIT:   32225589  MISS:    1532561  HIT %:    95.4602  MISS %:    4.53983   MPKI: 7.6628
ITLB PREFETCH  REQUESTED:          0  ISSUED:          0  USEFUL:          0  USELESS:          0
ITLB USEFUL LOAD PREFETCHES:          0 PREFETCH ISSUED TO LOWER LEVEL:          0  ACCURACY: -nan
ITLB TIMELY PREFETCHES:          0 LATE PREFETCHES: 0 DROPPED PREFETCHES: 0
ITLB PREFETCHES SAME FILL-ORIGIN LEVEL: 0 DIFFERENT FILL-ORIGIN LEVEL: 0
ITLB AVERAGE MISS LATENCY: 9.30673 cycles
ITLB RQ	ACCESS:   40648385	FORWARD:          0	MERGED:    6395525	TO_CACHE:   34252860

DTLB TOTAL     ACCESS:   39973082  HIT:   38439282  MISS:    1533800  HIT %:    96.1629  MISS %:    3.83708   MPKI: 7.669
DTLB LOAD TRANSLATION ACCESS:   39973082  HIT:   38439282  MISS:    1533800  HIT %:    96.1629  MISS %:    3.83708   MPKI: 7.669
DTLB PREFETCH  REQUESTED:          0  ISSUED:          0  USEFUL:          0  USELESS:          0
DTLB USEFUL LOAD PREFETCHES:          0 PREFETCH ISSUED TO LOWER LEVEL:          0  ACCURACY: -nan
DTLB TIMELY PREFETCHES:          0 LATE PREFETCHES: 0 DROPPED PREFETCHES: 0
DTLB PREFETCHES SAME FILL-ORIGIN LEVEL: 0 DIFFERENT FILL-ORIGIN LEVEL: 0
DTLB AVERAGE MISS LATENCY: 15.5104 cycles
DTLB RQ	ACCESS:   60987975	FORWARD:          0	MERGED:   20605732	TO_CACHE:   40382243

STLB TOTAL     ACCESS:    5719267  HIT:    5637729  MISS:      81538  HIT %:    98.5743  MISS %:    1.42567   MPKI: 0.40769
STLB LOAD TRANSLATION ACCESS:    3066360  HIT:    2984822  MISS:      81538  HIT %:    97.3409  MISS %:    2.65911   MPKI: 0.40769
STLB TRANSLATION FROM L1D PREFETCHER ACCESS:    2652907  HIT:    2652907  MISS:          0  HIT %:        100  MISS %:          0   MPKI: 0
STLB PREFETCH  REQUESTED:          0  ISSUED:          0  USEFUL:          0  USELESS:          0
STLB USEFUL LOAD PREFETCHES:          0 PREFETCH ISSUED TO LOWER LEVEL:          0  ACCURACY: -nan
STLB TIMELY PREFETCHES:          0 LATE PREFETCHES: 0 DROPPED PREFETCHES: 0
STLB PREFETCHES SAME FILL-ORIGIN LEVEL: 0 DIFFERENT FILL-ORIGIN LEVEL: 0
STLB AVERAGE MISS LATENCY: 127.948 cycles
STLB RQ	ACCESS:    6980811	FORWARD:          0	MERGED:    1261544	TO_CACHE:    5719267

STLB Hit, L1D data hit: 0
STLB Hit, L2C data hit: 0
STLB Hit, LLC data hit: 0
STLB Hit, LLC data miss: 0
STLB STLB hints to L2: 0
L1D TOTAL     ACCESS:   51850031  HIT:   44357340  MISS:    7492691  HIT %:    85.5493  MISS %:    14.4507   MPKI: 37.4635
L1D LOAD      ACCESS:   26712301  HIT:   24005779  MISS:    2706522  HIT %:    89.8679  MISS %:    10.1321   MPKI: 13.5326
L1D RFO       ACCESS:   22125789  HIT:   18440768  MISS:    3685021  HIT %:    83.3451  MISS %:    16.6549   MPKI: 18.4251
L1D PREFETCH  ACCESS:    3011941  HIT:    1910793  MISS:    1101148  HIT %:    63.4406  MISS %:    36.5594   MPKI: 5.50574
AGUS PREFETCH L1 MISS: 0
L1D PREFETCH  REQUESTED:    7867641  ISSUED:    7829309  USEFUL:     466243  USELESS:     635007
L1D USEFUL LOAD PREFETCHES:     466243 PREFETCH ISSUED TO LOWER LEVEL:    1733220  ACCURACY: 26.9004
L1D TIMELY PREFETCHES:     466243 LATE PREFETCHES: 631053 DROPPED PREFETCHES: 0
L1D PREFETCHES SAME FILL-ORIGIN LEVEL: 1733220 DIFFERENT FILL-ORIGIN LEVEL: 0
L1D AVERAGE MISS LATENCY: 1.7526e+07 cycles
L1D RQ	ACCESS:   45120865	FORWARD:          0	MERGED:   17788382	TO_CACHE:   27053146
L1D WQ	ACCESS:   34134601	FORWARD:     279736	MERGED:     199772	TO_CACHE:   33934829
L1D PQ	ACCESS:    3914858	FORWARD:          0	MERGED:          8	TO_CACHE:    3914451

L1D UNIQUE REGIONS ACCESSED: 0
L1D REGIONS CONFLICTS: 0
L1D Cross Page Prefetch Requests: 0
L1D Same Page Prefetch Requests: 5514867
L1D ROI Sum of L1D PQ occupancy: 59843512
L1D PREFETCHES PUSHED FROM L2C: 0
L1I TOTAL     ACCESS:   38002771  HIT:   28926554  MISS:    9076217  HIT %:     76.117  MISS %:     23.883   MPKI: 45.3811
L1I LOAD      ACCESS:   38002771  HIT:   28926554  MISS:    9076217  HIT %:     76.117  MISS %:     23.883   MPKI: 45.3811
L1I PREFETCH  REQUESTED:          0  ISSUED:          0  USEFUL:          0  USELESS:          0
L1I USEFUL LOAD PREFETCHES:          0 PREFETCH ISSUED TO LOWER LEVEL:          0  ACCURACY: -nan
L1I TIMELY PREFETCHES:          0 LATE PREFETCHES: 0 DROPPED PREFETCHES: 0
L1I PREFETCHES SAME FILL-ORIGIN LEVEL: 0 DIFFERENT FILL-ORIGIN LEVEL: 0
L1I AVERAGE MISS LATENCY: 16.9399 cycles
L1I RQ	ACCESS:   58903956	FORWARD:          0	MERGED:   18255571	TO_CACHE:   40648385

BTB TOTAL     ACCESS:   25792469  HIT:   24215891  MISS:    1576578  HIT %:    93.8874  MISS %:    6.11255   MPKI: 7.88289
BTB BRANCH_DIRECT_JUMP	ACCESS:    1657270  HIT:    1644420  MISS:      12850
BTB BRANCH_INDIRECT	ACCESS:    9945375  HIT:    9419362  MISS:     526013
BTB BRANCH_CONDITIONAL	ACCESS:    7366898  HIT:    7349104  MISS:      17794
BTB BRANCH_DIRECT_CALL	ACCESS:    2818310  HIT:    2778533  MISS:      39777
BTB BRANCH_INDIRECT_CALL	ACCESS:     593130  HIT:     481549  MISS:     111581
BTB BRANCH_RETURN	ACCESS:    3411486  HIT:    2542923  MISS:     868563
BTB BRANCH_OTHER ACCESS:          0  HIT:          0  MISS:          0

L2C TOTAL     ACCESS:   21026149  HIT:   14038376  MISS:    6987773  HIT %:    66.7663  MISS %:    33.2337   MPKI: 34.9389
L2C LOAD      ACCESS:   11151353  HIT:    9214527  MISS:    1936826  HIT %:    82.6315  MISS %:    17.3685   MPKI: 9.68413
L2C DATA LOAD MPKI: 6.77466
L2C INSTRUCTION LOAD MPKI: 2.90946
L2C RFO       ACCESS:    3683987  HIT:     152613  MISS:    3531374  HIT %:     4.1426  MISS %:    95.8574   MPKI: 17.6569
L2C PREFETCH  ACCESS:    1733207  HIT:     385570  MISS:    1347637  HIT %:     22.246  MISS %:     77.754   MPKI: 6.73818
AGUS PREFETCH L1 MISS: 0
L2C DATA PREFETCH MPKI: 6.73818
L2C INSTRUCTION PREFETCH MPKI: 0
L2C WRITEBACK ACCESS:    4362597  HIT:    4236465  MISS:     126132  HIT %:    97.1088  MISS %:    2.89121   MPKI: 0.63066
L2C LOAD TRANSLATION ACCESS:      95005  HIT:      49201  MISS:      45804  HIT %:    51.7878  MISS %:    48.2122   MPKI: 0.22902
L2C PREFETCH  REQUESTED:          0  ISSUED:          0  USEFUL:      28016  USELESS:    1320070
L2C USEFUL LOAD PREFETCHES:      28016 PREFETCH ISSUED TO LOWER LEVEL:    1347637  ACCURACY: 2.0789
L2C TIMELY PREFETCHES:      28016 LATE PREFETCHES: 0 DROPPED PREFETCHES: 0
L2C PREFETCHES SAME FILL-ORIGIN LEVEL: 0 DIFFERENT FILL-ORIGIN LEVEL: 0
L2C AVERAGE MISS LATENCY: 156.286 cycles
L2C RQ	ACCESS:   14930693	FORWARD:          0	MERGED:          0	TO_CACHE:   14930345
L2C WQ	ACCESS:    4362597	FORWARD:        361	MERGED:          0	TO_CACHE:    4362597
L2C PQ	ACCESS:    1733220	FORWARD:          0	MERGED:          0	TO_CACHE:    1733207

L2C Instructions Evicting Data 537006
L2C Translations Evicting Data 42137
L2C Data Evicting Data 5666812
L2C Instructions Evicting Instructions 41345
L2C Translations Evicting Instructions 3372
L2C Data Evicting Instructions 525837
L2C Instructions Evicting Translations 3542
L2C Translations Evicting Translations 295
L2C Data Evicting Translations 41295
L2C Dense regions hint from L2: 0
PSCL5 TOTAL     ACCESS:      81538  HIT:      81538  MISS:          0  HIT %:        100  MISS %:          0   MPKI: 0
PSCL5 LOAD TRANSLATION ACCESS:      81538  HIT:      81538  MISS:          0  HIT %:        100  MISS %:          0   MPKI: 0
PSCL5 PREFETCH  REQUESTED:          0  ISSUED:          0  USEFUL:          0  USELESS:          0
PSCL5 USEFUL LOAD PREFETCHES:          0 PREFETCH ISSUED TO LOWER LEVEL:          0  ACCURACY: -nan
PSCL5 TIMELY PREFETCHES:          0 LATE PREFETCHES: 0 DROPPED PREFETCHES: 0
PSCL5 PREFETCHES SAME FILL-ORIGIN LEVEL: 0 DIFFERENT FILL-ORIGIN LEVEL: 0

PSCL4 TOTAL     ACCESS:      78705  HIT:      78482  MISS:        223  HIT %:    99.7167  MISS %:   0.283337   MPKI: 0.001115
PSCL4 LOAD TRANSLATION ACCESS:      78705  HIT:      78482  MISS:        223  HIT %:    99.7167  MISS %:   0.283337   MPKI: 0.001115
PSCL4 PREFETCH  REQUESTED:          0  ISSUED:          0  USEFUL:          0  USELESS:          0
PSCL4 USEFUL LOAD PREFETCHES:          0 PREFETCH ISSUED TO LOWER LEVEL:          0  ACCURACY: -nan
PSCL4 TIMELY PREFETCHES:          0 LATE PREFETCHES: 0 DROPPED PREFETCHES: 0
PSCL4 PREFETCHES SAME FILL-ORIGIN LEVEL: 0 DIFFERENT FILL-ORIGIN LEVEL: 0

PSCL3 TOTAL     ACCESS:      76490  HIT:      75172  MISS:       1318  HIT %:    98.2769  MISS %:     1.7231   MPKI: 0.00659
PSCL3 LOAD TRANSLATION ACCESS:      76490  HIT:      75172  MISS:       1318  HIT %:    98.2769  MISS %:     1.7231   MPKI: 0.00659
PSCL3 PREFETCH  REQUESTED:          0  ISSUED:          0  USEFUL:          0  USELESS:          0
PSCL3 USEFUL LOAD PREFETCHES:          0 PREFETCH ISSUED TO LOWER LEVEL:          0  ACCURACY: -nan
PSCL3 TIMELY PREFETCHES:          0 LATE PREFETCHES: 0 DROPPED PREFETCHES: 0
PSCL3 PREFETCHES SAME FILL-ORIGIN LEVEL: 0 DIFFERENT FILL-ORIGIN LEVEL: 0

PSCL2 TOTAL     ACCESS:      81538  HIT:      69612  MISS:      11926  HIT %:    85.3737  MISS %:    14.6263   MPKI: 0.05963
PSCL2 LOAD TRANSLATION ACCESS:      81538  HIT:      69612  MISS:      11926  HIT %:    85.3737  MISS %:    14.6263   MPKI: 0.05963
PSCL2 PREFETCH  REQUESTED:          0  ISSUED:          0  USEFUL:          0  USELESS:          0
PSCL2 USEFUL LOAD PREFETCHES:          0 PREFETCH ISSUED TO LOWER LEVEL:          0  ACCURACY: -nan
PSCL2 TIMELY PREFETCHES:          0 LATE PREFETCHES: 0 DROPPED PREFETCHES: 0
PSCL2 PREFETCHES SAME FILL-ORIGIN LEVEL: 0 DIFFERENT FILL-ORIGIN LEVEL: 0

LLC TOTAL     ACCESS:   10904238  HIT:    4442331  MISS:    6461907  HIT %:    40.7395  MISS %:    59.2605   MPKI: 32.3095
LLC LOAD      ACCESS:    1936823  HIT:    1563874  MISS:     372949  HIT %:    80.7443  MISS %:    19.2557   MPKI: 1.86474
LLC RFO       ACCESS:    3531317  HIT:     972952  MISS:    2558365  HIT %:    27.5521  MISS %:    72.4479   MPKI: 12.7918
LLC PREFETCH  ACCESS:    1347637  HIT:     343476  MISS:    1004161  HIT %:    25.4873  MISS %:    74.5127   MPKI: 5.0208
AGUS PREFETCH L1 MISS: 0
LLC WRITEBACK ACCESS:    4042657  HIT:    1551234  MISS:    2491423  HIT %:    38.3716  MISS %:    61.6284   MPKI: 12.4571
LLC LOAD TRANSLATION ACCESS:      45804  HIT:      10795  MISS:      35009  HIT %:    23.5678  MISS %:    76.4322   MPKI: 0.175045
LLC PREFETCH  REQUESTED:          0  ISSUED:          0  USEFUL:       2376  USELESS:    1005680
LLC USEFUL LOAD PREFETCHES:       2376 PREFETCH ISSUED TO LOWER LEVEL:    1004161  ACCURACY: 0.236615
LLC TIMELY PREFETCHES:       2376 LATE PREFETCHES: 0 DROPPED PREFETCHES: 0
LLC PREFETCHES SAME FILL-ORIGIN LEVEL: 0 DIFFERENT FILL-ORIGIN LEVEL: 0
LLC AVERAGE MISS LATENCY: 137.145 cycles
LLC RQ	ACCESS:    5514004	FORWARD:          0	MERGED:          0	TO_CACHE:    5513944
LLC WQ	ACCESS:    4042657	FORWARD:         60	MERGED:          0	TO_CACHE:    4042657
LLC PQ	ACCESS:    1347637	FORWARD:          0	MERGED:          0	TO_CACHE:    1347637

LLC Dense regions hint to LLC: 0

RAW hits: 2472022
Loads Generated: 47592889
Loads sent to L1D: 45120865
Stores Generated: 34134585
Stores sent to L1D: 34134601
Major fault: 0 Minor fault: 9332
Allocated PAGES: 9332

stream: 
stream:times selected: 5990362
stream:pref_filled: 1321357
stream:pref_useful: 442852
stream:pref_late: 90698
stream:misses: 124974
stream:misses_by_poll: 0

CS: 
CS:times selected: 3769748
CS:pref_filled: 384957
CS:pref_useful: 343014
CS:pref_late: 498824
CS:misses: 804329
CS:misses_by_poll: 1301

CPLX: 
CPLX:times selected: 2152705
CPLX:pref_filled: 186389
CPLX:pref_useful: 26094
CPLX:pref_late: 4113
CPLX:misses: 431734
CPLX:misses_by_poll: 236

NL_L1: 
NL:times selected: 9346
NL:pref_filled: 2837
NL:pref_useful: 63
NL:pref_late: 38
NL:misses: 3401
NL:misses_by_poll: 0

total selections: 11922161
total_filled: 1101148
total_useful: 466243
total_late: 637907
total_polluted: 1537
total_misses_after_warmup: 3047366
conflicts: 8598072
Degree Incremented Times: 76558
Degree Decremented Times: 310658

L1 IP Table Write Accesses: 17333362
L1 IP Table Read Accesses: 8735290
L1 RST Write Accesses: 5030269
L1 RST Read Accesses: 10060538
L1 CSPT Write Accesses: 5030269
L1 CSPT Read Accesses: 6792640
L1 RR Filter Tag Write Accesses: 3953190
L1 RR Filter Tag Read Accesses: 540797830
L1 IP Table Tag Write Accesses: 27053145
L1 IP Table Tag Read Accesses: 27053145
L1 RST Tag Write Accesses: 0
L1 RST Tag Read Accesses: 44261311
L1 RR Filter Write Accesses: 0
L1 RR Filter Read Accesses: 17789719
test: 818232

DRAM Statistics
 CHANNEL 0
 RQ ROW_BUFFER_HIT:    1969448  ROW_BUFFER_MISS:    2000626
 DBUS_CONGESTED:       2786
 WQ ROW_BUFFER_HIT:     539826  ROW_BUFFER_MISS:    2091942  FULL:      90661

 AVG_CONGESTED_CYCLE: 3
 All warmup complete: 2
Channel 0 Bank busy for read cycles: 0
Channel 0 Bank busy for write cycles: 0
Channel 0
Rank 0
0banks busy for read cycles: 171735026
0banks busy for write cycles: 259846
1banks busy for read cycles: 35278553
1banks busy for write cycles: 36399534
2banks busy for read cycles: 13373528
2banks busy for write cycles: 13031500
3banks busy for read cycles: 15350205
3banks busy for write cycles: 5952284
4banks busy for read cycles: 5421653
4banks busy for write cycles: 3801998
5banks busy for read cycles: 4749482
5banks busy for write cycles: 3258031
6banks busy for read cycles: 5603229
6banks busy for write cycles: 3390737
7banks busy for read cycles: 8161261
7banks busy for write cycles: 6105137
8banks busy for read cycles: 20261856
8banks busy for write cycles: 34292506

CPU 0 Branch Prediction Accuracy: 99.9446% MPKI: 0.08483 Average ROB Occupancy at Mispredict: 117.86
Branch types
NOT_BRANCH: 169380951 84.6905%
BRANCH_DIRECT_JUMP: 1657270 0.828635%
BRANCH_INDIRECT: 9945375 4.97269%
BRANCH_CONDITIONAL: 12193387 6.09669%
BRANCH_DIRECT_CALL: 2818310 1.40915%
BRANCH_INDIRECT_CALL: 593130 0.296565%
BRANCH_RETURN: 3411486 1.70574%
BRANCH_OTHER: 0 0%

DRAM PAGES: 1048576
Allocated PAGES: 9332
