
*** ChampSim Multicore Out-of-Order Simulator ***

Warmup Instructions: 50000000
Simulation Instructions: 200000000
Number of CPUs: 1
LLC sets: 2048
LLC ways: 16
Off-chip DRAM Size: 4096 MB Channels: 1 Width: 64-bit Data Rate: 6400 MT/s
CPU 0 runs traces/spec2k17/srv_49.champsimtrace.xz
.xz
BTB has LRU replacement policy
ITLB has LRU replacement policy
DTLB has LRU replacement policy
STLB has LRU replacement policy
L1I has LRU replacement policy
IP Table Entries: 1024
CSPT Entries: 128
RR_ENTRIES: 32
RST_ENTRIES: 8
L1D has LRU replacement policy
Initialize SRRIP state for L2C
Initialize DRRIP state for LLC
Heartbeat CPU 0 instructions: 10000002 cycles: 2894839 heartbeat IPC: 3.45442 cumulative IPC: 3.45442 (Simulation time: 0 hr 0 min 51 sec) 
Heartbeat CPU 0 instructions: 20000001 cycles: 5823492 heartbeat IPC: 3.41454 cumulative IPC: 3.43437 (Simulation time: 0 hr 1 min 53 sec) 
Heartbeat CPU 0 instructions: 30000003 cycles: 8737674 heartbeat IPC: 3.4315 cumulative IPC: 3.43341 (Simulation time: 0 hr 2 min 44 sec) 
*** Reached end of trace for Core: 0 Repeating trace: traces/spec2k17/srv_49.champsimtrace.xz
Heartbeat CPU 0 instructions: 40000000 cycles: 11627904 heartbeat IPC: 3.45993 cumulative IPC: 3.44 (Simulation time: 0 hr 3 min 38 sec) 
Heartbeat CPU 0 instructions: 50000001 cycles: 14556434 heartbeat IPC: 3.41468 cumulative IPC: 3.43491 (Simulation time: 0 hr 4 min 34 sec) 

Warmup complete CPU 0 instructions: 50000001 cycles: 14556434 (Simulation time: 0 hr 4 min 34 sec) 

Heartbeat CPU 0 instructions: 60000003 cycles: 35566692 heartbeat IPC: 0.475958 cumulative IPC: 0.475958 (Simulation time: 0 hr 5 min 29 sec) 
*** Reached end of trace for Core: 0 Repeating trace: traces/spec2k17/srv_49.champsimtrace.xz
Heartbeat CPU 0 instructions: 70000001 cycles: 58484613 heartbeat IPC: 0.43634 cumulative IPC: 0.455289 (Simulation time: 0 hr 6 min 22 sec) 
Heartbeat CPU 0 instructions: 80000003 cycles: 81351932 heartbeat IPC: 0.437305 cumulative IPC: 0.449132 (Simulation time: 0 hr 7 min 15 sec) 
Heartbeat CPU 0 instructions: 90000000 cycles: 103883529 heartbeat IPC: 0.443821 cumulative IPC: 0.447792 (Simulation time: 0 hr 8 min 8 sec) 
*** Reached end of trace for Core: 0 Repeating trace: traces/spec2k17/srv_49.champsimtrace.xz
Heartbeat CPU 0 instructions: 100000000 cycles: 127050351 heartbeat IPC: 0.431652 cumulative IPC: 0.444468 (Simulation time: 0 hr 9 min 8 sec) 
Heartbeat CPU 0 instructions: 110000000 cycles: 148783954 heartbeat IPC: 0.460117 cumulative IPC: 0.447002 (Simulation time: 0 hr 9 min 59 sec) 
Heartbeat CPU 0 instructions: 120000003 cycles: 172803246 heartbeat IPC: 0.416332 cumulative IPC: 0.442347 (Simulation time: 0 hr 10 min 52 sec) 
*** Reached end of trace for Core: 0 Repeating trace: traces/spec2k17/srv_49.champsimtrace.xz
Heartbeat CPU 0 instructions: 130000001 cycles: 193748699 heartbeat IPC: 0.47743 cumulative IPC: 0.446448 (Simulation time: 0 hr 11 min 43 sec) 
Heartbeat CPU 0 instructions: 140000002 cycles: 216219343 heartbeat IPC: 0.445025 cumulative IPC: 0.446289 (Simulation time: 0 hr 12 min 40 sec) 
Heartbeat CPU 0 instructions: 150000002 cycles: 240673198 heartbeat IPC: 0.408933 cumulative IPC: 0.442249 (Simulation time: 0 hr 13 min 32 sec) 
*** Reached end of trace for Core: 0 Repeating trace: traces/spec2k17/srv_49.champsimtrace.xz
Heartbeat CPU 0 instructions: 160000003 cycles: 261358132 heartbeat IPC: 0.483444 cumulative IPC: 0.445702 (Simulation time: 0 hr 14 min 26 sec) 
Heartbeat CPU 0 instructions: 170000001 cycles: 284013976 heartbeat IPC: 0.441387 cumulative IPC: 0.445339 (Simulation time: 0 hr 15 min 19 sec) 
Heartbeat CPU 0 instructions: 180000000 cycles: 307907737 heartbeat IPC: 0.418519 cumulative IPC: 0.443155 (Simulation time: 0 hr 16 min 18 sec) 
*** Reached end of trace for Core: 0 Repeating trace: traces/spec2k17/srv_49.champsimtrace.xz
Heartbeat CPU 0 instructions: 190000003 cycles: 329061245 heartbeat IPC: 0.472735 cumulative IPC: 0.445144 (Simulation time: 0 hr 17 min 14 sec) 
Heartbeat CPU 0 instructions: 200000001 cycles: 351341401 heartbeat IPC: 0.44883 cumulative IPC: 0.445388 (Simulation time: 0 hr 18 min 6 sec) 
Heartbeat CPU 0 instructions: 210000000 cycles: 374604203 heartbeat IPC: 0.429871 cumulative IPC: 0.444385 (Simulation time: 0 hr 18 min 58 sec) 
*** Reached end of trace for Core: 0 Repeating trace: traces/spec2k17/srv_49.champsimtrace.xz
Heartbeat CPU 0 instructions: 220000000 cycles: 396697608 heartbeat IPC: 0.452624 cumulative IPC: 0.444862 (Simulation time: 0 hr 19 min 56 sec) 
Heartbeat CPU 0 instructions: 230000003 cycles: 418012328 heartbeat IPC: 0.469159 cumulative IPC: 0.446145 (Simulation time: 0 hr 20 min 48 sec) 
Heartbeat CPU 0 instructions: 240000002 cycles: 441243533 heartbeat IPC: 0.430455 cumulative IPC: 0.445291 (Simulation time: 0 hr 21 min 41 sec) 
*** Reached end of trace for Core: 0 Repeating trace: traces/spec2k17/srv_49.champsimtrace.xz
Heartbeat CPU 0 instructions: 250000002 cycles: 463841750 heartbeat IPC: 0.442513 cumulative IPC: 0.445151 (Simulation time: 0 hr 22 min 33 sec) 
Finished CPU 0 instructions: 200000001 cycles: 449285316 cumulative IPC: 0.445151 (Simulation time: 0 hr 22 min 33 sec) 

ChampSim completed all CPUs

Region of Interest Statistics

CPU 0 cumulative IPC: 0.445151 instructions: 200000001 cycles: 449285316
ITLB TOTAL     ACCESS:   34596418  HIT:   33555330  MISS:    1041088  HIT %:    96.9908  MISS %:    3.00924   MPKI: 5.20544
ITLB LOAD TRANSLATION ACCESS:   34596418  HIT:   33555330  MISS:    1041088  HIT %:    96.9908  MISS %:    3.00924   MPKI: 5.20544
ITLB PREFETCH  REQUESTED:          0  ISSUED:          0  USEFUL:          0  USELESS:          0
ITLB USEFUL LOAD PREFETCHES:          0 PREFETCH ISSUED TO LOWER LEVEL:          0  ACCURACY: -nan
ITLB TIMELY PREFETCHES:          0 LATE PREFETCHES: 0 DROPPED PREFETCHES: 0
ITLB PREFETCHES SAME FILL-ORIGIN LEVEL: 0 DIFFERENT FILL-ORIGIN LEVEL: 0
ITLB AVERAGE MISS LATENCY: 10.1638 cycles
ITLB RQ	ACCESS:   39429360	FORWARD:          0	MERGED:    4539700	TO_CACHE:   34889660

DTLB TOTAL     ACCESS:   43349883  HIT:   42293711  MISS:    1056172  HIT %:    97.5636  MISS %:    2.43639   MPKI: 5.28086
DTLB LOAD TRANSLATION ACCESS:   43349883  HIT:   42293711  MISS:    1056172  HIT %:    97.5636  MISS %:    2.43639   MPKI: 5.28086
DTLB PREFETCH  REQUESTED:          0  ISSUED:          0  USEFUL:          0  USELESS:          0
DTLB USEFUL LOAD PREFETCHES:          0 PREFETCH ISSUED TO LOWER LEVEL:          0  ACCURACY: -nan
DTLB TIMELY PREFETCHES:          0 LATE PREFETCHES: 0 DROPPED PREFETCHES: 0
DTLB PREFETCHES SAME FILL-ORIGIN LEVEL: 0 DIFFERENT FILL-ORIGIN LEVEL: 0
DTLB AVERAGE MISS LATENCY: 15.5073 cycles
DTLB RQ	ACCESS:   58030771	FORWARD:          0	MERGED:   14607322	TO_CACHE:   43423449

STLB TOTAL     ACCESS:    3461337  HIT:    3373328  MISS:      88009  HIT %:    97.4574  MISS %:    2.54263   MPKI: 0.440045
STLB LOAD TRANSLATION ACCESS:    2097260  HIT:    2009376  MISS:      87884  HIT %:    95.8096  MISS %:    4.19042   MPKI: 0.43942
STLB TRANSLATION FROM L1D PREFETCHER ACCESS:    1364077  HIT:    1363952  MISS:        125  HIT %:    99.9908  MISS %: 0.00916371   MPKI: 0.000625
STLB PREFETCH  REQUESTED:          0  ISSUED:          0  USEFUL:        111  USELESS:         14
STLB USEFUL LOAD PREFETCHES:        111 PREFETCH ISSUED TO LOWER LEVEL:          0  ACCURACY: inf
STLB TIMELY PREFETCHES:        111 LATE PREFETCHES: 0 DROPPED PREFETCHES: 0
STLB PREFETCHES SAME FILL-ORIGIN LEVEL: 0 DIFFERENT FILL-ORIGIN LEVEL: 0
STLB AVERAGE MISS LATENCY: 91.7835 cycles
STLB RQ	ACCESS:    4117601	FORWARD:          0	MERGED:     656264	TO_CACHE:    3461337

STLB Hit, L1D data hit: 0
STLB Hit, L2C data hit: 0
STLB Hit, LLC data hit: 0
STLB Hit, LLC data miss: 0
STLB STLB hints to L2: 0
L1D TOTAL     ACCESS:   57997689  HIT:   55453292  MISS:    2544397  HIT %:    95.6129  MISS %:    4.38707   MPKI: 12.722
L1D LOAD      ACCESS:   35106942  HIT:   33699841  MISS:    1407101  HIT %:     95.992  MISS %:    4.00804   MPKI: 7.0355
L1D RFO       ACCESS:   20944388  HIT:   20228774  MISS:     715614  HIT %:    96.5833  MISS %:    3.41673   MPKI: 3.57807
L1D PREFETCH  ACCESS:    1946359  HIT:    1524677  MISS:     421682  HIT %:    78.3348  MISS %:    21.6652   MPKI: 2.10841
AGUS PREFETCH L1 MISS: 0
L1D PREFETCH  REQUESTED:    4042263  ISSUED:    4042162  USEFUL:     161409  USELESS:     260314
L1D USEFUL LOAD PREFETCHES:     161409 PREFETCH ISSUED TO LOWER LEVEL:     448569  ACCURACY: 35.9831
L1D TIMELY PREFETCHES:     161409 LATE PREFETCHES: 24491 DROPPED PREFETCHES: 0
L1D PREFETCHES SAME FILL-ORIGIN LEVEL: 448569 DIFFERENT FILL-ORIGIN LEVEL: 0
L1D AVERAGE MISS LATENCY: 2.53046e+06 cycles
L1D RQ	ACCESS:   50668077	FORWARD:          0	MERGED:   15262868	TO_CACHE:   35198209
L1D WQ	ACCESS:   23216834	FORWARD:     208480	MERGED:     384272	TO_CACHE:   22832562
L1D PQ	ACCESS:    2021821	FORWARD:          0	MERGED:          0	TO_CACHE:    2020341

L1D UNIQUE REGIONS ACCESSED: 0
L1D REGIONS CONFLICTS: 0
L1D Cross Page Prefetch Requests: 0
L1D Same Page Prefetch Requests: 2469195
L1D ROI Sum of L1D PQ occupancy: 26587692
L1D PREFETCHES PUSHED FROM L2C: 0
L1I TOTAL     ACCESS:   38829235  HIT:   34549693  MISS:    4279542  HIT %:    88.9786  MISS %:    11.0214   MPKI: 21.3977
L1I LOAD      ACCESS:   38829235  HIT:   34549693  MISS:    4279542  HIT %:    88.9786  MISS %:    11.0214   MPKI: 21.3977
L1I PREFETCH  REQUESTED:          0  ISSUED:          0  USEFUL:          0  USELESS:          0
L1I USEFUL LOAD PREFETCHES:          0 PREFETCH ISSUED TO LOWER LEVEL:          0  ACCURACY: -nan
L1I TIMELY PREFETCHES:          0 LATE PREFETCHES: 0 DROPPED PREFETCHES: 0
L1I PREFETCHES SAME FILL-ORIGIN LEVEL: 0 DIFFERENT FILL-ORIGIN LEVEL: 0
L1I AVERAGE MISS LATENCY: 22.7097 cycles
L1I RQ	ACCESS:   60370479	FORWARD:          0	MERGED:   20941119	TO_CACHE:   39429360

BTB TOTAL     ACCESS:   31621999  HIT:   25926549  MISS:    5695450  HIT %:     81.989  MISS %:     18.011   MPKI: 28.4772
BTB BRANCH_DIRECT_JUMP	ACCESS:    3058145  HIT:    2682154  MISS:     375991
BTB BRANCH_INDIRECT	ACCESS:   12869399  HIT:   10666785  MISS:    2202614
BTB BRANCH_CONDITIONAL	ACCESS:    8093722  HIT:    7632458  MISS:     461264
BTB BRANCH_DIRECT_CALL	ACCESS:    2838199  HIT:    2154241  MISS:     683958
BTB BRANCH_INDIRECT_CALL	ACCESS:     962232  HIT:     678614  MISS:     283618
BTB BRANCH_RETURN	ACCESS:    3800302  HIT:    2112297  MISS:    1688005
BTB BRANCH_OTHER ACCESS:          0  HIT:          0  MISS:          0

L2C TOTAL     ACCESS:    8095635  HIT:    5711224  MISS:    2384411  HIT %:     70.547  MISS %:     29.453   MPKI: 11.9221
L2C LOAD      ACCESS:    5662104  HIT:    4095085  MISS:    1567019  HIT %:    72.3244  MISS %:    27.6756   MPKI: 7.83509
L2C DATA LOAD MPKI: 2.51115
L2C INSTRUCTION LOAD MPKI: 5.32394
L2C RFO       ACCESS:     713218  HIT:     320787  MISS:     392431  HIT %:    44.9774  MISS %:    55.0226   MPKI: 1.96215
L2C PREFETCH  ACCESS:     448556  HIT:     161586  MISS:     286970  HIT %:    36.0236  MISS %:    63.9764   MPKI: 1.43485
AGUS PREFETCH L1 MISS: 0
L2C DATA PREFETCH MPKI: 1.43485
L2C INSTRUCTION PREFETCH MPKI: 0
L2C WRITEBACK ACCESS:    1143211  HIT:    1079628  MISS:      63583  HIT %:    94.4382  MISS %:    5.56179   MPKI: 0.317915
L2C LOAD TRANSLATION ACCESS:     128374  HIT:      54078  MISS:      74296  HIT %:    42.1254  MISS %:    57.8746   MPKI: 0.37148
L2C TRANSLATION FROM L1D PREFETCHER ACCESS:        172  HIT:         60  MISS:        112  HIT %:    34.8837  MISS %:    65.1163   MPKI: 0.00056
L2C PREFETCH  REQUESTED:          0  ISSUED:          0  USEFUL:      10103  USELESS:     277141
L2C USEFUL LOAD PREFETCHES:      10103 PREFETCH ISSUED TO LOWER LEVEL:     286970  ACCURACY: 3.52058
L2C TIMELY PREFETCHES:      10103 LATE PREFETCHES: 0 DROPPED PREFETCHES: 0
L2C PREFETCHES SAME FILL-ORIGIN LEVEL: 0 DIFFERENT FILL-ORIGIN LEVEL: 0
L2C AVERAGE MISS LATENCY: 70.8976 cycles
L2C RQ	ACCESS:    6503916	FORWARD:          0	MERGED:          0	TO_CACHE:    6503868
L2C WQ	ACCESS:    1143211	FORWARD:         61	MERGED:          0	TO_CACHE:    1143211
L2C PQ	ACCESS:     448569	FORWARD:          0	MERGED:          0	TO_CACHE:     448556

L2C Instructions Evicting Data 534883
L2C Translations Evicting Data 42178
L2C Data Evicting Data 634444
L2C Instructions Evicting Instructions 499311
L2C Translations Evicting Instructions 29801
L2C Data Evicting Instructions 507223
L2C Instructions Evicting Translations 30595
L2C Translations Evicting Translations 2429
L2C Data Evicting Translations 39964
L2C Dense regions hint from L2: 0
PSCL5 TOTAL     ACCESS:      88009  HIT:      88009  MISS:          0  HIT %:        100  MISS %:          0   MPKI: 0
PSCL5 LOAD TRANSLATION ACCESS:      87884  HIT:      87884  MISS:          0  HIT %:        100  MISS %:          0   MPKI: 0
PSCL5 TRANSLATION FROM L1D PREFETCHER ACCESS:        125  HIT:        125  MISS:          0  HIT %:        100  MISS %:          0   MPKI: 0
PSCL5 PREFETCH  REQUESTED:          0  ISSUED:          0  USEFUL:          0  USELESS:          0
PSCL5 USEFUL LOAD PREFETCHES:          0 PREFETCH ISSUED TO LOWER LEVEL:          0  ACCURACY: -nan
PSCL5 TIMELY PREFETCHES:          0 LATE PREFETCHES: 0 DROPPED PREFETCHES: 0
PSCL5 PREFETCHES SAME FILL-ORIGIN LEVEL: 0 DIFFERENT FILL-ORIGIN LEVEL: 0

PSCL4 TOTAL     ACCESS:      86618  HIT:      85990  MISS:        628  HIT %:     99.275  MISS %:   0.725023   MPKI: 0.00314
PSCL4 LOAD TRANSLATION ACCESS:      86509  HIT:      85881  MISS:        628  HIT %:    99.2741  MISS %:   0.725936   MPKI: 0.00314
PSCL4 TRANSLATION FROM L1D PREFETCHER ACCESS:        109  HIT:        109  MISS:          0  HIT %:        100  MISS %:          0   MPKI: 0
PSCL4 PREFETCH  REQUESTED:          0  ISSUED:          0  USEFUL:          0  USELESS:          0
PSCL4 USEFUL LOAD PREFETCHES:          0 PREFETCH ISSUED TO LOWER LEVEL:          0  ACCURACY: -nan
PSCL4 TIMELY PREFETCHES:          0 LATE PREFETCHES: 0 DROPPED PREFETCHES: 0
PSCL4 PREFETCHES SAME FILL-ORIGIN LEVEL: 0 DIFFERENT FILL-ORIGIN LEVEL: 0

PSCL3 TOTAL     ACCESS:      81663  HIT:      71663  MISS:      10000  HIT %:    87.7546  MISS %:    12.2454   MPKI: 0.05
PSCL3 LOAD TRANSLATION ACCESS:      81592  HIT:      71592  MISS:      10000  HIT %:    87.7439  MISS %:    12.2561   MPKI: 0.05
PSCL3 TRANSLATION FROM L1D PREFETCHER ACCESS:         71  HIT:         71  MISS:          0  HIT %:        100  MISS %:          0   MPKI: 0
PSCL3 PREFETCH  REQUESTED:          0  ISSUED:          0  USEFUL:          0  USELESS:          0
PSCL3 USEFUL LOAD PREFETCHES:          0 PREFETCH ISSUED TO LOWER LEVEL:          0  ACCURACY: -nan
PSCL3 TIMELY PREFETCHES:          0 LATE PREFETCHES: 0 DROPPED PREFETCHES: 0
PSCL3 PREFETCHES SAME FILL-ORIGIN LEVEL: 0 DIFFERENT FILL-ORIGIN LEVEL: 0

PSCL2 TOTAL     ACCESS:      88009  HIT:      58100  MISS:      29909  HIT %:     66.016  MISS %:     33.984   MPKI: 0.149545
PSCL2 LOAD TRANSLATION ACCESS:      87919  HIT:      58010  MISS:      29909  HIT %:    65.9812  MISS %:    34.0188   MPKI: 0.149545
PSCL2 TRANSLATION FROM L1D PREFETCHER ACCESS:         90  HIT:         90  MISS:          0  HIT %:        100  MISS %:          0   MPKI: 0
PSCL2 PREFETCH  REQUESTED:          0  ISSUED:          0  USEFUL:          0  USELESS:          0
PSCL2 USEFUL LOAD PREFETCHES:          0 PREFETCH ISSUED TO LOWER LEVEL:          0  ACCURACY: -nan
PSCL2 TIMELY PREFETCHES:          0 LATE PREFETCHES: 0 DROPPED PREFETCHES: 0
PSCL2 PREFETCHES SAME FILL-ORIGIN LEVEL: 0 DIFFERENT FILL-ORIGIN LEVEL: 0

LLC TOTAL     ACCESS:    2883261  HIT:    2264466  MISS:     618795  HIT %:    78.5384  MISS %:    21.4616   MPKI: 3.09397
LLC LOAD      ACCESS:    1567017  HIT:    1361902  MISS:     205115  HIT %:    86.9105  MISS %:    13.0895   MPKI: 1.02557
LLC RFO       ACCESS:     392431  HIT:     181702  MISS:     210729  HIT %:    46.3016  MISS %:    53.6984   MPKI: 1.05364
LLC PREFETCH  ACCESS:     286967  HIT:     108240  MISS:     178727  HIT %:    37.7186  MISS %:    62.2814   MPKI: 0.893635
AGUS PREFETCH L1 MISS: 0
LLC WRITEBACK ACCESS:     562438  HIT:     557379  MISS:       5059  HIT %:    99.1005  MISS %:   0.899477   MPKI: 0.025295
LLC LOAD TRANSLATION ACCESS:      74296  HIT:      55131  MISS:      19165  HIT %:    74.2045  MISS %:    25.7955   MPKI: 0.095825
LLC TRANSLATION FROM L1D PREFETCHER ACCESS:        112  HIT:        112  MISS:          0  HIT %:        100  MISS %:          0   MPKI: 0
LLC PREFETCH  REQUESTED:          0  ISSUED:          0  USEFUL:       5324  USELESS:     173805
LLC USEFUL LOAD PREFETCHES:       5324 PREFETCH ISSUED TO LOWER LEVEL:     178727  ACCURACY: 2.97884
LLC TIMELY PREFETCHES:       5324 LATE PREFETCHES: 0 DROPPED PREFETCHES: 0
LLC PREFETCHES SAME FILL-ORIGIN LEVEL: 0 DIFFERENT FILL-ORIGIN LEVEL: 0
LLC AVERAGE MISS LATENCY: 160.672 cycles
LLC RQ	ACCESS:    2033858	FORWARD:          0	MERGED:          0	TO_CACHE:    2033856
LLC WQ	ACCESS:     562438	FORWARD:          5	MERGED:          0	TO_CACHE:     562438
LLC PQ	ACCESS:     286970	FORWARD:          0	MERGED:          0	TO_CACHE:     286967

LLC Dense regions hint to LLC: 0

RAW hits: 2484370
Loads Generated: 53152447
Loads sent to L1D: 50668077
Stores Generated: 23216828
Stores sent to L1D: 23216834
Major fault: 0 Minor fault: 6099
Allocated PAGES: 6099

stream: 
stream:times selected: 4381231
stream:pref_filled: 271264
stream:pref_useful: 68147
stream:pref_late: 13721
stream:misses: 31659
stream:misses_by_poll: 0

CS: 
CS:times selected: 428148
CS:pref_filled: 122561
CS:pref_useful: 102686
CS:pref_late: 8288
CS:misses: 24476
CS:misses_by_poll: 6

CPLX: 
CPLX:times selected: 3935525
CPLX:pref_filled: 139249
CPLX:pref_useful: 39824
CPLX:pref_late: 2108
CPLX:misses: 140504
CPLX:misses_by_poll: 62

NL_L1: 
NL:times selected: 20699
NL:pref_filled: 2991
NL:pref_useful: 606
NL:pref_late: 163
NL:misses: 1498
NL:misses_by_poll: 0

total selections: 8765603
total_filled: 421682
total_useful: 161409
total_late: 27489
total_polluted: 68
total_misses_after_warmup: 1498368
conflicts: 6895204
Degree Incremented Times: 185359
Degree Decremented Times: 353663

L1 IP Table Write Accesses: 25435665
L1 IP Table Read Accesses: 18540461
L1 RST Write Accesses: 3586831
L1 RST Read Accesses: 7173662
L1 CSPT Write Accesses: 3586831
L1 CSPT Read Accesses: 6818843
L1 RR Filter Tag Write Accesses: 2021922
L1 RR Filter Tag Read Accesses: 145763661
L1 IP Table Tag Write Accesses: 35198209
L1 IP Table Tag Read Accesses: 35198209
L1 RST Tag Write Accesses: 0
L1 RST Tag Read Accesses: 30845392
L1 RR Filter Write Accesses: 0
L1 RR Filter Read Accesses: 6072640
test: 1086395

DRAM Statistics
 CHANNEL 0
 RQ ROW_BUFFER_HIT:     164874  ROW_BUFFER_MISS:     448854
 DBUS_CONGESTED:        383
 WQ ROW_BUFFER_HIT:      50961  ROW_BUFFER_MISS:     254003  FULL:          0

 AVG_CONGESTED_CYCLE: 4
 All warmup complete: 2
Channel 0 Bank busy for read cycles: 0
Channel 0 Bank busy for write cycles: 0
Channel 0
Rank 0
0banks busy for read cycles: 368123005
0banks busy for write cycles: 136309
1banks busy for read cycles: 36092725
1banks busy for write cycles: 18917747
2banks busy for read cycles: 9771573
2banks busy for write cycles: 5847926
3banks busy for read cycles: 2542741
3banks busy for write cycles: 2168254
4banks busy for read cycles: 790732
4banks busy for write cycles: 1057674
5banks busy for read cycles: 364159
5banks busy for write cycles: 595390
6banks busy for read cycles: 254817
6banks busy for write cycles: 404743
7banks busy for read cycles: 230630
7banks busy for write cycles: 387186
8banks busy for read cycles: 550964
8banks busy for write cycles: 1048742

CPU 0 Branch Prediction Accuracy: 99.5147% MPKI: 0.87397 Average ROB Occupancy at Mispredict: 21.2637
Branch types
NOT_BRANCH: 163984830 81.9924%
BRANCH_DIRECT_JUMP: 3058145 1.52907%
BRANCH_INDIRECT: 12869399 6.4347%
BRANCH_CONDITIONAL: 12486555 6.24328%
BRANCH_DIRECT_CALL: 2838199 1.4191%
BRANCH_INDIRECT_CALL: 962232 0.481116%
BRANCH_RETURN: 3800302 1.90015%
BRANCH_OTHER: 0 0%

DRAM PAGES: 1048576
Allocated PAGES: 6099
