
*** ChampSim Multicore Out-of-Order Simulator ***

Warmup Instructions: 50000000
Simulation Instructions: 200000000
Number of CPUs: 1
LLC sets: 2048
LLC ways: 16
Off-chip DRAM Size: 4096 MB Channels: 1 Width: 64-bit Data Rate: 6400 MT/s
CPU 0 runs traces/spec2k17/srv_68.champsimtrace.xz
.xz
BTB has LRU replacement policy
ITLB has LRU replacement policy
DTLB has LRU replacement policy
STLB has LRU replacement policy
L1I has LRU replacement policy
IP Table Entries: 1024
CSPT Entries: 128
RR_ENTRIES: 32
RST_ENTRIES: 8
L1D has LRU replacement policy
Initialize SRRIP state for L2C
Initialize DRRIP state for LLC
Heartbeat CPU 0 instructions: 10000002 cycles: 2769911 heartbeat IPC: 3.61022 cumulative IPC: 3.61022 (Simulation time: 0 hr 0 min 47 sec) 
Heartbeat CPU 0 instructions: 20000003 cycles: 5536198 heartbeat IPC: 3.61495 cumulative IPC: 3.61259 (Simulation time: 0 hr 1 min 36 sec) 
Heartbeat CPU 0 instructions: 30000003 cycles: 8302862 heartbeat IPC: 3.61446 cumulative IPC: 3.61321 (Simulation time: 0 hr 2 min 25 sec) 
*** Reached end of trace for Core: 0 Repeating trace: traces/spec2k17/srv_68.champsimtrace.xz
Heartbeat CPU 0 instructions: 40000001 cycles: 11066447 heartbeat IPC: 3.61849 cumulative IPC: 3.61453 (Simulation time: 0 hr 3 min 12 sec) 
Heartbeat CPU 0 instructions: 50000000 cycles: 13832267 heartbeat IPC: 3.61556 cumulative IPC: 3.61474 (Simulation time: 0 hr 4 min 2 sec) 

Warmup complete CPU 0 instructions: 50000004 cycles: 13832268 (Simulation time: 0 hr 4 min 2 sec) 

Heartbeat CPU 0 instructions: 60000001 cycles: 36433005 heartbeat IPC: 0.442463 cumulative IPC: 0.442463 (Simulation time: 0 hr 4 min 58 sec) 
*** Reached end of trace for Core: 0 Repeating trace: traces/spec2k17/srv_68.champsimtrace.xz
Heartbeat CPU 0 instructions: 70000003 cycles: 58368524 heartbeat IPC: 0.455882 cumulative IPC: 0.449072 (Simulation time: 0 hr 5 min 52 sec) 
Heartbeat CPU 0 instructions: 80000001 cycles: 80470984 heartbeat IPC: 0.452438 cumulative IPC: 0.450189 (Simulation time: 0 hr 6 min 44 sec) 
Heartbeat CPU 0 instructions: 90000000 cycles: 103235515 heartbeat IPC: 0.43928 cumulative IPC: 0.447411 (Simulation time: 0 hr 7 min 37 sec) 
*** Reached end of trace for Core: 0 Repeating trace: traces/spec2k17/srv_68.champsimtrace.xz
Heartbeat CPU 0 instructions: 100000001 cycles: 124722704 heartbeat IPC: 0.465394 cumulative IPC: 0.450895 (Simulation time: 0 hr 8 min 29 sec) 
Heartbeat CPU 0 instructions: 110000000 cycles: 147132089 heartbeat IPC: 0.446242 cumulative IPC: 0.450113 (Simulation time: 0 hr 9 min 21 sec) 
Heartbeat CPU 0 instructions: 120000001 cycles: 169685789 heartbeat IPC: 0.443386 cumulative IPC: 0.44914 (Simulation time: 0 hr 10 min 18 sec) 
*** Reached end of trace for Core: 0 Repeating trace: traces/spec2k17/srv_68.champsimtrace.xz
Heartbeat CPU 0 instructions: 130000001 cycles: 191060086 heartbeat IPC: 0.467852 cumulative IPC: 0.451396 (Simulation time: 0 hr 11 min 9 sec) 
Heartbeat CPU 0 instructions: 140000002 cycles: 213508312 heartbeat IPC: 0.44547 cumulative IPC: 0.45073 (Simulation time: 0 hr 12 min 0 sec) 
Heartbeat CPU 0 instructions: 150000002 cycles: 235995779 heartbeat IPC: 0.444692 cumulative IPC: 0.450119 (Simulation time: 0 hr 12 min 57 sec) 
*** Reached end of trace for Core: 0 Repeating trace: traces/spec2k17/srv_68.champsimtrace.xz
Heartbeat CPU 0 instructions: 160000001 cycles: 257562680 heartbeat IPC: 0.463673 cumulative IPC: 0.451318 (Simulation time: 0 hr 13 min 54 sec) 
Heartbeat CPU 0 instructions: 170000000 cycles: 279914203 heartbeat IPC: 0.447397 cumulative IPC: 0.450989 (Simulation time: 0 hr 14 min 45 sec) 
Heartbeat CPU 0 instructions: 180000001 cycles: 302460363 heartbeat IPC: 0.443535 cumulative IPC: 0.450407 (Simulation time: 0 hr 15 min 39 sec) 
*** Reached end of trace for Core: 0 Repeating trace: traces/spec2k17/srv_68.champsimtrace.xz
Heartbeat CPU 0 instructions: 190000000 cycles: 323999936 heartbeat IPC: 0.464262 cumulative IPC: 0.451369 (Simulation time: 0 hr 16 min 32 sec) 
Heartbeat CPU 0 instructions: 200000000 cycles: 346093982 heartbeat IPC: 0.452611 cumulative IPC: 0.451451 (Simulation time: 0 hr 17 min 29 sec) 
Heartbeat CPU 0 instructions: 210000000 cycles: 368767063 heartbeat IPC: 0.441052 cumulative IPC: 0.450787 (Simulation time: 0 hr 18 min 25 sec) 
*** Reached end of trace for Core: 0 Repeating trace: traces/spec2k17/srv_68.champsimtrace.xz
Heartbeat CPU 0 instructions: 220000000 cycles: 390140335 heartbeat IPC: 0.467874 cumulative IPC: 0.451758 (Simulation time: 0 hr 19 min 17 sec) 
Heartbeat CPU 0 instructions: 230000001 cycles: 412443494 heartbeat IPC: 0.448367 cumulative IPC: 0.451568 (Simulation time: 0 hr 20 min 12 sec) 
Heartbeat CPU 0 instructions: 240000002 cycles: 434989099 heartbeat IPC: 0.443545 cumulative IPC: 0.451138 (Simulation time: 0 hr 21 min 1 sec) 
*** Reached end of trace for Core: 0 Repeating trace: traces/spec2k17/srv_68.champsimtrace.xz
Heartbeat CPU 0 instructions: 250000002 cycles: 456395659 heartbeat IPC: 0.467147 cumulative IPC: 0.451913 (Simulation time: 0 hr 21 min 50 sec) 
Finished CPU 0 instructions: 200000002 cycles: 442563392 cumulative IPC: 0.451913 (Simulation time: 0 hr 21 min 50 sec) 

ChampSim completed all CPUs

Region of Interest Statistics

CPU 0 cumulative IPC: 0.451913 instructions: 200000002 cycles: 442563392
ITLB TOTAL     ACCESS:   31175639  HIT:   30439927  MISS:     735712  HIT %:    97.6401  MISS %:    2.35989   MPKI: 3.67856
ITLB LOAD TRANSLATION ACCESS:   31175639  HIT:   30439927  MISS:     735712  HIT %:    97.6401  MISS %:    2.35989   MPKI: 3.67856
ITLB PREFETCH  REQUESTED:          0  ISSUED:          0  USEFUL:          0  USELESS:          0
ITLB USEFUL LOAD PREFETCHES:          0 PREFETCH ISSUED TO LOWER LEVEL:          0  ACCURACY: -nan
ITLB TIMELY PREFETCHES:          0 LATE PREFETCHES: 0 DROPPED PREFETCHES: 0
ITLB PREFETCHES SAME FILL-ORIGIN LEVEL: 0 DIFFERENT FILL-ORIGIN LEVEL: 0
ITLB AVERAGE MISS LATENCY: 14.7145 cycles
ITLB RQ	ACCESS:   38045118	FORWARD:          0	MERGED:    6689904	TO_CACHE:   31355214

DTLB TOTAL     ACCESS:   36976826  HIT:   34587402  MISS:    2389424  HIT %:    93.5381  MISS %:    6.46195   MPKI: 11.9471
DTLB LOAD TRANSLATION ACCESS:   36976826  HIT:   34587402  MISS:    2389424  HIT %:    93.5381  MISS %:    6.46195   MPKI: 11.9471
DTLB PREFETCH  REQUESTED:          0  ISSUED:          0  USEFUL:          0  USELESS:          0
DTLB USEFUL LOAD PREFETCHES:          0 PREFETCH ISSUED TO LOWER LEVEL:          0  ACCURACY: -nan
DTLB TIMELY PREFETCHES:          0 LATE PREFETCHES: 0 DROPPED PREFETCHES: 0
DTLB PREFETCHES SAME FILL-ORIGIN LEVEL: 0 DIFFERENT FILL-ORIGIN LEVEL: 0
DTLB AVERAGE MISS LATENCY: 14.3339 cycles
DTLB RQ	ACCESS:   47358141	FORWARD:          0	MERGED:   10241043	TO_CACHE:   37117098

STLB TOTAL     ACCESS:    4159310  HIT:    3781808  MISS:     377502  HIT %:    90.9239  MISS %:    9.07607   MPKI: 1.88751
STLB LOAD TRANSLATION ACCESS:    3125136  HIT:    2747634  MISS:     377502  HIT %:    87.9205  MISS %:    12.0795   MPKI: 1.88751
STLB TRANSLATION FROM L1D PREFETCHER ACCESS:    1034174  HIT:    1034174  MISS:          0  HIT %:        100  MISS %:          0   MPKI: 0
STLB PREFETCH  REQUESTED:          0  ISSUED:          0  USEFUL:          0  USELESS:          0
STLB USEFUL LOAD PREFETCHES:          0 PREFETCH ISSUED TO LOWER LEVEL:          0  ACCURACY: -nan
STLB TIMELY PREFETCHES:          0 LATE PREFETCHES: 0 DROPPED PREFETCHES: 0
STLB PREFETCHES SAME FILL-ORIGIN LEVEL: 0 DIFFERENT FILL-ORIGIN LEVEL: 0
STLB AVERAGE MISS LATENCY: 44.6913 cycles
STLB RQ	ACCESS:    4434389	FORWARD:          0	MERGED:     275080	TO_CACHE:    4159309

STLB Hit, L1D data hit: 0
STLB Hit, L2C data hit: 0
STLB Hit, LLC data hit: 0
STLB Hit, LLC data miss: 0
STLB STLB hints to L2: 0
L1D TOTAL     ACCESS:   48150549  HIT:   45355207  MISS:    2795342  HIT %:    94.1946  MISS %:    5.80542   MPKI: 13.9767
L1D LOAD      ACCESS:   27589515  HIT:   25623739  MISS:    1965776  HIT %:    92.8749  MISS %:    7.12508   MPKI: 9.82888
L1D RFO       ACCESS:   19295469  HIT:   18986050  MISS:     309419  HIT %:    98.3964  MISS %:    1.60358   MPKI: 1.54709
L1D PREFETCH  ACCESS:    1265565  HIT:     745418  MISS:     520147  HIT %:       58.9  MISS %:       41.1   MPKI: 2.60073
AGUS PREFETCH L1 MISS: 0
L1D PREFETCH  REQUESTED:    2619403  ISSUED:    2619359  USEFUL:     132772  USELESS:     387382
L1D USEFUL LOAD PREFETCHES:     132772 PREFETCH ISSUED TO LOWER LEVEL:     531885  ACCURACY: 24.9625
L1D TIMELY PREFETCHES:     132772 LATE PREFETCHES: 10459 DROPPED PREFETCHES: 0
L1D PREFETCHES SAME FILL-ORIGIN LEVEL: 531885 DIFFERENT FILL-ORIGIN LEVEL: 0
L1D AVERAGE MISS LATENCY: 984860 cycles
L1D RQ	ACCESS:   42727001	FORWARD:          0	MERGED:   14796331	TO_CACHE:   27701825
L1D WQ	ACCESS:   19969250	FORWARD:     229696	MERGED:     312934	TO_CACHE:   19656316
L1D PQ	ACCESS:    1310105	FORWARD:          0	MERGED:          0	TO_CACHE:    1309254

L1D UNIQUE REGIONS ACCESSED: 0
L1D REGIONS CONFLICTS: 0
L1D Cross Page Prefetch Requests: 0
L1D Same Page Prefetch Requests: 1631875
L1D ROI Sum of L1D PQ occupancy: 16929471
L1D PREFETCHES PUSHED FROM L2C: 0
L1I TOTAL     ACCESS:   36404812  HIT:   31634741  MISS:    4770071  HIT %:    86.8971  MISS %:    13.1029   MPKI: 23.8504
L1I LOAD      ACCESS:   36404812  HIT:   31634741  MISS:    4770071  HIT %:    86.8971  MISS %:    13.1029   MPKI: 23.8504
L1I PREFETCH  REQUESTED:          0  ISSUED:          0  USEFUL:          0  USELESS:          0
L1I USEFUL LOAD PREFETCHES:          0 PREFETCH ISSUED TO LOWER LEVEL:          0  ACCURACY: -nan
L1I TIMELY PREFETCHES:          0 LATE PREFETCHES: 0 DROPPED PREFETCHES: 0
L1I PREFETCHES SAME FILL-ORIGIN LEVEL: 0 DIFFERENT FILL-ORIGIN LEVEL: 0
L1I AVERAGE MISS LATENCY: 27.2964 cycles
L1I RQ	ACCESS:   56547200	FORWARD:          0	MERGED:   18502082	TO_CACHE:   38045118

BTB TOTAL     ACCESS:   21751551  HIT:   17439369  MISS:    4312182  HIT %:    80.1753  MISS %:    19.8247   MPKI: 21.5609
BTB BRANCH_DIRECT_JUMP	ACCESS:    1714565  HIT:    1465961  MISS:     248604
BTB BRANCH_INDIRECT	ACCESS:    9411853  HIT:    7323167  MISS:    2088686
BTB BRANCH_CONDITIONAL	ACCESS:    4498891  HIT:    4091160  MISS:     407731
BTB BRANCH_DIRECT_CALL	ACCESS:    2431594  HIT:    1968834  MISS:     462760
BTB BRANCH_INDIRECT_CALL	ACCESS:     630486  HIT:     593321  MISS:      37165
BTB BRANCH_RETURN	ACCESS:    3064162  HIT:    1996926  MISS:    1067236
BTB BRANCH_OTHER ACCESS:          0  HIT:          0  MISS:          0

L2C TOTAL     ACCESS:    9038482  HIT:    5345477  MISS:    3693005  HIT %:    59.1413  MISS %:    40.8587   MPKI: 18.465
L2C LOAD      ACCESS:    6725359  HIT:    3810446  MISS:    2914913  HIT %:    56.6579  MISS %:    43.3421   MPKI: 14.5746
L2C DATA LOAD MPKI: 4.62111
L2C INSTRUCTION LOAD MPKI: 9.95345
L2C RFO       ACCESS:     308105  HIT:     169571  MISS:     138534  HIT %:    55.0368  MISS %:    44.9632   MPKI: 0.69267
L2C PREFETCH  ACCESS:     531882  HIT:     132186  MISS:     399696  HIT %:    24.8525  MISS %:    75.1475   MPKI: 1.99848
AGUS PREFETCH L1 MISS: 0
L2C DATA PREFETCH MPKI: 1.99848
L2C INSTRUCTION PREFETCH MPKI: 0
L2C WRITEBACK ACCESS:     985401  HIT:     939524  MISS:      45877  HIT %:    95.3443  MISS %:    4.65567   MPKI: 0.229385
L2C LOAD TRANSLATION ACCESS:     487735  HIT:     293750  MISS:     193985  HIT %:    60.2274  MISS %:    39.7726   MPKI: 0.969925
L2C PREFETCH  REQUESTED:          0  ISSUED:          0  USEFUL:      15067  USELESS:     384763
L2C USEFUL LOAD PREFETCHES:      15067 PREFETCH ISSUED TO LOWER LEVEL:     399696  ACCURACY: 3.76961
L2C TIMELY PREFETCHES:      15067 LATE PREFETCHES: 0 DROPPED PREFETCHES: 0
L2C PREFETCHES SAME FILL-ORIGIN LEVEL: 0 DIFFERENT FILL-ORIGIN LEVEL: 0
L2C AVERAGE MISS LATENCY: 45.4551 cycles
L2C RQ	ACCESS:    7521262	FORWARD:          0	MERGED:          0	TO_CACHE:    7521198
L2C WQ	ACCESS:     985401	FORWARD:         67	MERGED:          0	TO_CACHE:     985401
L2C PQ	ACCESS:     531885	FORWARD:          0	MERGED:          0	TO_CACHE:     531882

L2C Instructions Evicting Data 807112
L2C Translations Evicting Data 79728
L2C Data Evicting Data 603257
L2C Instructions Evicting Instructions 1079538
L2C Translations Evicting Instructions 105125
L2C Data Evicting Instructions 780938
L2C Instructions Evicting Translations 104041
L2C Translations Evicting Translations 9132
L2C Data Evicting Translations 78257
L2C Dense regions hint from L2: 0
PSCL5 TOTAL     ACCESS:     377501  HIT:     377501  MISS:          0  HIT %:        100  MISS %:          0   MPKI: 0
PSCL5 LOAD TRANSLATION ACCESS:     377501  HIT:     377501  MISS:          0  HIT %:        100  MISS %:          0   MPKI: 0
PSCL5 PREFETCH  REQUESTED:          0  ISSUED:          0  USEFUL:          0  USELESS:          0
PSCL5 USEFUL LOAD PREFETCHES:          0 PREFETCH ISSUED TO LOWER LEVEL:          0  ACCURACY: -nan
PSCL5 TIMELY PREFETCHES:          0 LATE PREFETCHES: 0 DROPPED PREFETCHES: 0
PSCL5 PREFETCHES SAME FILL-ORIGIN LEVEL: 0 DIFFERENT FILL-ORIGIN LEVEL: 0

PSCL4 TOTAL     ACCESS:     341333  HIT:     340699  MISS:        634  HIT %:    99.8143  MISS %:   0.185742   MPKI: 0.00317
PSCL4 LOAD TRANSLATION ACCESS:     341333  HIT:     340699  MISS:        634  HIT %:    99.8143  MISS %:   0.185742   MPKI: 0.00317
PSCL4 PREFETCH  REQUESTED:          0  ISSUED:          0  USEFUL:          0  USELESS:          0
PSCL4 USEFUL LOAD PREFETCHES:          0 PREFETCH ISSUED TO LOWER LEVEL:          0  ACCURACY: -nan
PSCL4 TIMELY PREFETCHES:          0 LATE PREFETCHES: 0 DROPPED PREFETCHES: 0
PSCL4 PREFETCHES SAME FILL-ORIGIN LEVEL: 0 DIFFERENT FILL-ORIGIN LEVEL: 0

PSCL3 TOTAL     ACCESS:     375599  HIT:     373641  MISS:       1958  HIT %:    99.4787  MISS %:   0.521301   MPKI: 0.00979
PSCL3 LOAD TRANSLATION ACCESS:     375599  HIT:     373641  MISS:       1958  HIT %:    99.4787  MISS %:   0.521301   MPKI: 0.00979
PSCL3 PREFETCH  REQUESTED:          0  ISSUED:          0  USEFUL:          0  USELESS:          0
PSCL3 USEFUL LOAD PREFETCHES:          0 PREFETCH ISSUED TO LOWER LEVEL:          0  ACCURACY: -nan
PSCL3 TIMELY PREFETCHES:          0 LATE PREFETCHES: 0 DROPPED PREFETCHES: 0
PSCL3 PREFETCHES SAME FILL-ORIGIN LEVEL: 0 DIFFERENT FILL-ORIGIN LEVEL: 0

PSCL2 TOTAL     ACCESS:     377501  HIT:     269859  MISS:     107642  HIT %:    71.4856  MISS %:    28.5144   MPKI: 0.53821
PSCL2 LOAD TRANSLATION ACCESS:     377501  HIT:     269859  MISS:     107642  HIT %:    71.4856  MISS %:    28.5144   MPKI: 0.53821
PSCL2 PREFETCH  REQUESTED:          0  ISSUED:          0  USEFUL:          0  USELESS:          0
PSCL2 USEFUL LOAD PREFETCHES:          0 PREFETCH ISSUED TO LOWER LEVEL:          0  ACCURACY: -nan
PSCL2 TIMELY PREFETCHES:          0 LATE PREFETCHES: 0 DROPPED PREFETCHES: 0
PSCL2 PREFETCHES SAME FILL-ORIGIN LEVEL: 0 DIFFERENT FILL-ORIGIN LEVEL: 0

LLC TOTAL     ACCESS:    4102524  HIT:    3723337  MISS:     379187  HIT %:    90.7572  MISS %:    9.24277   MPKI: 1.89593
LLC LOAD      ACCESS:    2914910  HIT:    2695281  MISS:     219629  HIT %:    92.4653  MISS %:    7.53468   MPKI: 1.09814
LLC RFO       ACCESS:     138532  HIT:      92266  MISS:      46266  HIT %:    66.6027  MISS %:    33.3973   MPKI: 0.23133
LLC PREFETCH  ACCESS:     399694  HIT:     301745  MISS:      97949  HIT %:     75.494  MISS %:     24.506   MPKI: 0.489745
AGUS PREFETCH L1 MISS: 0
LLC WRITEBACK ACCESS:     455403  HIT:     452413  MISS:       2990  HIT %:    99.3434  MISS %:   0.656561   MPKI: 0.01495
LLC LOAD TRANSLATION ACCESS:     193985  HIT:     181632  MISS:      12353  HIT %:     93.632  MISS %:    6.36802   MPKI: 0.061765
LLC PREFETCH  REQUESTED:          0  ISSUED:          0  USEFUL:       5845  USELESS:      92266
LLC USEFUL LOAD PREFETCHES:       5845 PREFETCH ISSUED TO LOWER LEVEL:      97949  ACCURACY: 5.96739
LLC TIMELY PREFETCHES:       5845 LATE PREFETCHES: 0 DROPPED PREFETCHES: 0
LLC PREFETCHES SAME FILL-ORIGIN LEVEL: 0 DIFFERENT FILL-ORIGIN LEVEL: 0
LLC AVERAGE MISS LATENCY: 154.146 cycles
LLC RQ	ACCESS:    3247431	FORWARD:          0	MERGED:          0	TO_CACHE:    3247426
LLC WQ	ACCESS:     455403	FORWARD:          7	MERGED:          0	TO_CACHE:     455403
LLC PQ	ACCESS:     399696	FORWARD:          0	MERGED:          0	TO_CACHE:     399694

LLC Dense regions hint to LLC: 0

RAW hits: 3027184
Loads Generated: 45754186
Loads sent to L1D: 42727001
Stores Generated: 19969261
Stores sent to L1D: 19969250
Major fault: 0 Minor fault: 5849
Allocated PAGES: 5849

stream: 
stream:times selected: 2546041
stream:pref_filled: 434978
stream:pref_useful: 118721
stream:pref_late: 9793
stream:misses: 51729
stream:misses_by_poll: 0

CS: 
CS:times selected: 93283
CS:pref_filled: 37431
CS:pref_useful: 20438
CS:pref_late: 554
CS:misses: 2559
CS:misses_by_poll: 0

CPLX: 
CPLX:times selected: 2419731
CPLX:pref_filled: 175212
CPLX:pref_useful: 27920
CPLX:pref_late: 917
CPLX:misses: 211701
CPLX:misses_by_poll: 58

NL_L1: 
NL:times selected: 28059
NL:pref_filled: 6785
NL:pref_useful: 1290
NL:pref_late: 116
NL:misses: 5117
NL:misses_by_poll: 0

total selections: 5087114
total_filled: 520147
total_useful: 132772
total_late: 11989
total_polluted: 58
total_misses_after_warmup: 2078087
conflicts: 6054720
Degree Incremented Times: 0
Degree Decremented Times: 406931

L1 IP Table Write Accesses: 19609060
L1 IP Table Read Accesses: 13554340
L1 RST Write Accesses: 2034144
L1 RST Read Accesses: 4068288
L1 CSPT Write Accesses: 2034144
L1 CSPT Read Accesses: 3970273
L1 RR Filter Tag Write Accesses: 1310149
L1 RR Filter Tag Read Accesses: 75470038
L1 IP Table Tag Write Accesses: 27701826
L1 IP Table Tag Read Accesses: 27701826
L1 RST Tag Write Accesses: 0
L1 RST Tag Read Accesses: 19530714
L1 RR Filter Write Accesses: 0
L1 RR Filter Read Accesses: 2793238
test: 830312

DRAM Statistics
 CHANNEL 0
 RQ ROW_BUFFER_HIT:      80125  ROW_BUFFER_MISS:     296072
 DBUS_CONGESTED:        165
 WQ ROW_BUFFER_HIT:      34782  ROW_BUFFER_MISS:     187326  FULL:          0

 AVG_CONGESTED_CYCLE: 4
 All warmup complete: 2
Channel 0 Bank busy for read cycles: 0
Channel 0 Bank busy for write cycles: 0
Channel 0
Rank 0
0banks busy for read cycles: 379917785
0banks busy for write cycles: 120793
1banks busy for read cycles: 30121229
1banks busy for write cycles: 16921186
2banks busy for read cycles: 5685062
2banks busy for write cycles: 3745471
3banks busy for read cycles: 1204006
3banks busy for write cycles: 1519907
4banks busy for read cycles: 379105
4banks busy for write cycles: 896426
5banks busy for read cycles: 110207
5banks busy for write cycles: 638616
6banks busy for read cycles: 43690
6banks busy for write cycles: 471983
7banks busy for read cycles: 37134
7banks busy for write cycles: 350309
8banks busy for read cycles: 93235
8banks busy for write cycles: 307249

CPU 0 Branch Prediction Accuracy: 99.7946% MPKI: 0.361505 Average ROB Occupancy at Mispredict: 40.9998
Branch types
NOT_BRANCH: 164798107 82.3991%
BRANCH_DIRECT_JUMP: 1714565 0.857282%
BRANCH_INDIRECT: 9411853 4.70593%
BRANCH_CONDITIONAL: 17949372 8.97469%
BRANCH_DIRECT_CALL: 2431594 1.2158%
BRANCH_INDIRECT_CALL: 630486 0.315243%
BRANCH_RETURN: 3064162 1.53208%
BRANCH_OTHER: 0 0%

DRAM PAGES: 1048576
Allocated PAGES: 5849
