
*** ChampSim Multicore Out-of-Order Simulator ***

Warmup Instructions: 50000000
Simulation Instructions: 200000000
Number of CPUs: 1
LLC sets: 2048
LLC ways: 16
Off-chip DRAM Size: 4096 MB Channels: 1 Width: 64-bit Data Rate: 6400 MT/s
CPU 0 runs traces/spec2k17/client_001.champsimtrace.xz
.xz
BTB has LRU replacement policy
ITLB has LRU replacement policy
DTLB has LRU replacement policy
STLB has LRU replacement policy
L1I has LRU replacement policy
CPU 0 L1D IP-based stride prefetcher
L1D has LRU replacement policy
Initialize SRRIP state for L2C
Initialize DRRIP state for LLC
Heartbeat CPU 0 instructions: 10000003 cycles: 2841372 heartbeat IPC: 3.51943 cumulative IPC: 3.51943 (Simulation time: 0 hr 0 min 46 sec) 
Heartbeat CPU 0 instructions: 20000002 cycles: 5746441 heartbeat IPC: 3.44226 cumulative IPC: 3.48042 (Simulation time: 0 hr 1 min 32 sec) 
Heartbeat CPU 0 instructions: 30000003 cycles: 8559617 heartbeat IPC: 3.5547 cumulative IPC: 3.50483 (Simulation time: 0 hr 2 min 16 sec) 
Heartbeat CPU 0 instructions: 40000003 cycles: 11594559 heartbeat IPC: 3.29496 cumulative IPC: 3.44989 (Simulation time: 0 hr 3 min 1 sec) 
Heartbeat CPU 0 instructions: 50000000 cycles: 14378512 heartbeat IPC: 3.59201 cumulative IPC: 3.47741 (Simulation time: 0 hr 3 min 41 sec) 

Warmup complete CPU 0 instructions: 50000004 cycles: 14378513 (Simulation time: 0 hr 3 min 41 sec) 

Heartbeat CPU 0 instructions: 60000001 cycles: 34608247 heartbeat IPC: 0.494322 cumulative IPC: 0.494322 (Simulation time: 0 hr 4 min 37 sec) 
Heartbeat CPU 0 instructions: 70000002 cycles: 49185229 heartbeat IPC: 0.686013 cumulative IPC: 0.574602 (Simulation time: 0 hr 5 min 30 sec) 
Heartbeat CPU 0 instructions: 80000003 cycles: 69193866 heartbeat IPC: 0.499784 cumulative IPC: 0.547292 (Simulation time: 0 hr 6 min 26 sec) 
Heartbeat CPU 0 instructions: 90000000 cycles: 83958757 heartbeat IPC: 0.677282 cumulative IPC: 0.574876 (Simulation time: 0 hr 7 min 14 sec) 
Heartbeat CPU 0 instructions: 100000000 cycles: 106407047 heartbeat IPC: 0.445468 cumulative IPC: 0.54331 (Simulation time: 0 hr 8 min 4 sec) 
*** Reached end of trace for Core: 0 Repeating trace: traces/spec2k17/client_001.champsimtrace.xz
Heartbeat CPU 0 instructions: 110000000 cycles: 124766617 heartbeat IPC: 0.544675 cumulative IPC: 0.543537 (Simulation time: 0 hr 8 min 54 sec) 
Heartbeat CPU 0 instructions: 120000002 cycles: 143162684 heartbeat IPC: 0.543595 cumulative IPC: 0.543545 (Simulation time: 0 hr 9 min 45 sec) 
Heartbeat CPU 0 instructions: 130000000 cycles: 159108604 heartbeat IPC: 0.62712 cumulative IPC: 0.552753 (Simulation time: 0 hr 10 min 42 sec) 
Heartbeat CPU 0 instructions: 140000000 cycles: 181344449 heartbeat IPC: 0.449724 cumulative IPC: 0.539032 (Simulation time: 0 hr 11 min 36 sec) 
Heartbeat CPU 0 instructions: 150000000 cycles: 196178353 heartbeat IPC: 0.674131 cumulative IPC: 0.550055 (Simulation time: 0 hr 12 min 21 sec) 
Heartbeat CPU 0 instructions: 160000000 cycles: 217030813 heartbeat IPC: 0.47956 cumulative IPC: 0.542802 (Simulation time: 0 hr 13 min 17 sec) 
Heartbeat CPU 0 instructions: 170000002 cycles: 232027257 heartbeat IPC: 0.666825 cumulative IPC: 0.551347 (Simulation time: 0 hr 14 min 0 sec) 
Heartbeat CPU 0 instructions: 180000002 cycles: 250548146 heartbeat IPC: 0.539931 cumulative IPC: 0.550452 (Simulation time: 0 hr 15 min 10 sec) 
Heartbeat CPU 0 instructions: 190000000 cycles: 266957019 heartbeat IPC: 0.609426 cumulative IPC: 0.554283 (Simulation time: 0 hr 16 min 0 sec) 
Heartbeat CPU 0 instructions: 200000000 cycles: 288363603 heartbeat IPC: 0.467146 cumulative IPC: 0.547475 (Simulation time: 0 hr 16 min 53 sec) 
*** Reached end of trace for Core: 0 Repeating trace: traces/spec2k17/client_001.champsimtrace.xz
Heartbeat CPU 0 instructions: 210000000 cycles: 306863616 heartbeat IPC: 0.54054 cumulative IPC: 0.547036 (Simulation time: 0 hr 17 min 44 sec) 
Heartbeat CPU 0 instructions: 220000000 cycles: 325828965 heartbeat IPC: 0.527277 cumulative IPC: 0.545833 (Simulation time: 0 hr 18 min 36 sec) 
Heartbeat CPU 0 instructions: 230000001 cycles: 340273378 heartbeat IPC: 0.692309 cumulative IPC: 0.552325 (Simulation time: 0 hr 19 min 26 sec) 
Heartbeat CPU 0 instructions: 240000001 cycles: 362897889 heartbeat IPC: 0.441999 cumulative IPC: 0.545163 (Simulation time: 0 hr 20 min 29 sec) 
Heartbeat CPU 0 instructions: 250000002 cycles: 378638487 heartbeat IPC: 0.6353 cumulative IPC: 0.549058 (Simulation time: 0 hr 21 min 17 sec) 
Finished CPU 0 instructions: 200000002 cycles: 364259975 cumulative IPC: 0.549058 (Simulation time: 0 hr 21 min 17 sec) 

ChampSim completed all CPUs

Region of Interest Statistics

CPU 0 cumulative IPC: 0.549058 instructions: 200000002 cycles: 364259975
ITLB TOTAL     ACCESS:   31522725  HIT:   31283242  MISS:     239483  HIT %:    99.2403  MISS %:   0.759715   MPKI: 1.19741
ITLB LOAD TRANSLATION ACCESS:   31522725  HIT:   31283242  MISS:     239483  HIT %:    99.2403  MISS %:   0.759715   MPKI: 1.19741
ITLB PREFETCH  REQUESTED:          0  ISSUED:          0  USEFUL:          0  USELESS:          0
ITLB USEFUL LOAD PREFETCHES:          0 PREFETCH ISSUED TO LOWER LEVEL:          0  ACCURACY: -nan
ITLB TIMELY PREFETCHES:          0 LATE PREFETCHES: 0 DROPPED PREFETCHES: 0
ITLB PREFETCHES SAME FILL-ORIGIN LEVEL: 0 DIFFERENT FILL-ORIGIN LEVEL: 0
ITLB AVERAGE MISS LATENCY: 10.3878 cycles
ITLB RQ	ACCESS:   37897745	FORWARD:          0	MERGED:    6328789	TO_CACHE:   31568956

DTLB TOTAL     ACCESS:   44010590  HIT:   42872354  MISS:    1138236  HIT %:    97.4137  MISS %:    2.58628   MPKI: 5.69118
DTLB LOAD TRANSLATION ACCESS:   44010590  HIT:   42872354  MISS:    1138236  HIT %:    97.4137  MISS %:    2.58628   MPKI: 5.69118
DTLB PREFETCH  REQUESTED:          0  ISSUED:          0  USEFUL:          0  USELESS:          0
DTLB USEFUL LOAD PREFETCHES:          0 PREFETCH ISSUED TO LOWER LEVEL:          0  ACCURACY: -nan
DTLB TIMELY PREFETCHES:          0 LATE PREFETCHES: 0 DROPPED PREFETCHES: 0
DTLB PREFETCHES SAME FILL-ORIGIN LEVEL: 0 DIFFERENT FILL-ORIGIN LEVEL: 0
DTLB AVERAGE MISS LATENCY: 10.0711 cycles
DTLB RQ	ACCESS:   53336888	FORWARD:          0	MERGED:    9257768	TO_CACHE:   44079120

STLB TOTAL     ACCESS:    1742870  HIT:    1726975  MISS:      15895  HIT %:     99.088  MISS %:   0.912001   MPKI: 0.079475
STLB LOAD TRANSLATION ACCESS:    1377719  HIT:    1361824  MISS:      15895  HIT %:    98.8463  MISS %:    1.15372   MPKI: 0.079475
STLB TRANSLATION FROM L1D PREFETCHER ACCESS:     365151  HIT:     365151  MISS:          0  HIT %:        100  MISS %:          0   MPKI: 0
STLB PREFETCH  REQUESTED:          0  ISSUED:          0  USEFUL:          0  USELESS:          0
STLB USEFUL LOAD PREFETCHES:          0 PREFETCH ISSUED TO LOWER LEVEL:          0  ACCURACY: -nan
STLB TIMELY PREFETCHES:          0 LATE PREFETCHES: 0 DROPPED PREFETCHES: 0
STLB PREFETCHES SAME FILL-ORIGIN LEVEL: 0 DIFFERENT FILL-ORIGIN LEVEL: 0
STLB AVERAGE MISS LATENCY: 96.1719 cycles
STLB RQ	ACCESS:    2444406	FORWARD:          0	MERGED:     701536	TO_CACHE:    1742870

STLB Hit, L1D data hit: 0
STLB Hit, L2C data hit: 0
STLB Hit, LLC data hit: 0
STLB Hit, LLC data miss: 0
STLB STLB hints to L2: 0
L1D TOTAL     ACCESS:   53758910  HIT:   51637543  MISS:    2121367  HIT %:    96.0539  MISS %:    3.94608   MPKI: 10.6068
L1D LOAD      ACCESS:   36478467  HIT:   34755359  MISS:    1723108  HIT %:    95.2764  MISS %:    4.72363   MPKI: 8.61554
L1D RFO       ACCESS:   16236590  HIT:   15995156  MISS:     241434  HIT %:     98.513  MISS %:    1.48697   MPKI: 1.20717
L1D PREFETCH  ACCESS:    1043853  HIT:     887028  MISS:     156825  HIT %:    84.9763  MISS %:    15.0237   MPKI: 0.784125
AGUS PREFETCH L1 MISS: 0
L1D PREFETCH  REQUESTED:    2156104  ISSUED:    2156104  USEFUL:     103380  USELESS:      53445
L1D USEFUL LOAD PREFETCHES:     103380 PREFETCH ISSUED TO LOWER LEVEL:     167216  ACCURACY: 61.8242
L1D TIMELY PREFETCHES:     103380 LATE PREFETCHES: 5223 DROPPED PREFETCHES: 0
L1D PREFETCHES SAME FILL-ORIGIN LEVEL: 164246 DIFFERENT FILL-ORIGIN LEVEL: 2970
L1D AVERAGE MISS LATENCY: 676314 cycles
L1D RQ	ACCESS:   52847892	FORWARD:          0	MERGED:   16010769	TO_CACHE:   36660688
L1D WQ	ACCESS:   16975108	FORWARD:     176600	MERGED:     298908	TO_CACHE:   16676200
L1D PQ	ACCESS:    1089417	FORWARD:          0	MERGED:      22565	TO_CACHE:    1066687

L1D UNIQUE REGIONS ACCESSED: 0
L1D REGIONS CONFLICTS: 0
L1D Cross Page Prefetch Requests: 0
L1D Same Page Prefetch Requests: 1429902
L1D ROI Sum of L1D PQ occupancy: 14271292
L1D PREFETCHES PUSHED FROM L2C: 0
L1I TOTAL     ACCESS:   37379447  HIT:   36183490  MISS:    1195957  HIT %:    96.8005  MISS %:     3.1995   MPKI: 5.97978
L1I LOAD      ACCESS:   37379447  HIT:   36183490  MISS:    1195957  HIT %:    96.8005  MISS %:     3.1995   MPKI: 5.97978
L1I PREFETCH  REQUESTED:          0  ISSUED:          0  USEFUL:          0  USELESS:          0
L1I USEFUL LOAD PREFETCHES:          0 PREFETCH ISSUED TO LOWER LEVEL:          0  ACCURACY: -nan
L1I TIMELY PREFETCHES:          0 LATE PREFETCHES: 0 DROPPED PREFETCHES: 0
L1I PREFETCHES SAME FILL-ORIGIN LEVEL: 0 DIFFERENT FILL-ORIGIN LEVEL: 0
L1I AVERAGE MISS LATENCY: 20.3257 cycles
L1I RQ	ACCESS:   57411694	FORWARD:          0	MERGED:   19513949	TO_CACHE:   37897745

BTB TOTAL     ACCESS:   27458437  HIT:   25555237  MISS:    1903200  HIT %:    93.0688  MISS %:     6.9312   MPKI: 9.516
BTB BRANCH_DIRECT_JUMP	ACCESS:    1694154  HIT:    1685629  MISS:       8525
BTB BRANCH_INDIRECT	ACCESS:    6802149  HIT:    5941476  MISS:     860673
BTB BRANCH_CONDITIONAL	ACCESS:   13299545  HIT:   13284175  MISS:      15370
BTB BRANCH_DIRECT_CALL	ACCESS:    1985283  HIT:    1973782  MISS:      11501
BTB BRANCH_INDIRECT_CALL	ACCESS:     845555  HIT:     614784  MISS:     230771
BTB BRANCH_RETURN	ACCESS:    2831751  HIT:    2055391  MISS:     776360
BTB BRANCH_OTHER ACCESS:          0  HIT:          0  MISS:          0

L2C TOTAL     ACCESS:    3928287  HIT:    2846584  MISS:    1081703  HIT %:    72.4637  MISS %:    27.5363   MPKI: 5.40851
L2C LOAD      ACCESS:    2913829  HIT:    2066801  MISS:     847028  HIT %:    70.9308  MISS %:    29.0692   MPKI: 4.23514
L2C DATA LOAD MPKI: 3.86341
L2C INSTRUCTION LOAD MPKI: 0.371725
L2C RFO       ACCESS:     239236  HIT:      85023  MISS:     154213  HIT %:    35.5394  MISS %:    64.4606   MPKI: 0.771065
L2C PREFETCH  ACCESS:     167108  HIT:     100584  MISS:      66524  HIT %:     60.191  MISS %:     39.809   MPKI: 0.33262
AGUS PREFETCH L1 MISS: 0
L2C DATA PREFETCH MPKI: 0.33262
L2C INSTRUCTION PREFETCH MPKI: 0
L2C WRITEBACK ACCESS:     591363  HIT:     584488  MISS:       6875  HIT %:    98.8374  MISS %:    1.16257   MPKI: 0.034375
L2C LOAD TRANSLATION ACCESS:      16751  HIT:       9688  MISS:       7063  HIT %:    57.8354  MISS %:    42.1646   MPKI: 0.035315
L2C PREFETCH  REQUESTED:          0  ISSUED:          0  USEFUL:       8977  USELESS:      58009
L2C USEFUL LOAD PREFETCHES:       8977 PREFETCH ISSUED TO LOWER LEVEL:      66594  ACCURACY: 13.4802
L2C TIMELY PREFETCHES:       8977 LATE PREFETCHES: 70 DROPPED PREFETCHES: 0
L2C PREFETCHES SAME FILL-ORIGIN LEVEL: 996 DIFFERENT FILL-ORIGIN LEVEL: 0
L2C AVERAGE MISS LATENCY: 105.75 cycles
L2C RQ	ACCESS:    3169829	FORWARD:          0	MERGED:          0	TO_CACHE:    3169816
L2C WQ	ACCESS:     591364	FORWARD:         13	MERGED:          0	TO_CACHE:     591364
L2C PQ	ACCESS:     167216	FORWARD:          0	MERGED:          0	TO_CACHE:     167216

L2C Instructions Evicting Data 65280
L2C Translations Evicting Data 6288
L2C Data Evicting Data 924440
L2C Instructions Evicting Instructions 8298
L2C Translations Evicting Instructions 703
L2C Data Evicting Instructions 62785
L2C Instructions Evicting Translations 767
L2C Translations Evicting Translations 72
L2C Data Evicting Translations 6195
L2C Dense regions hint from L2: 0
PSCL5 TOTAL     ACCESS:      15895  HIT:      15895  MISS:          0  HIT %:        100  MISS %:          0   MPKI: 0
PSCL5 LOAD TRANSLATION ACCESS:      15895  HIT:      15895  MISS:          0  HIT %:        100  MISS %:          0   MPKI: 0
PSCL5 PREFETCH  REQUESTED:          0  ISSUED:          0  USEFUL:          0  USELESS:          0
PSCL5 USEFUL LOAD PREFETCHES:          0 PREFETCH ISSUED TO LOWER LEVEL:          0  ACCURACY: -nan
PSCL5 TIMELY PREFETCHES:          0 LATE PREFETCHES: 0 DROPPED PREFETCHES: 0
PSCL5 PREFETCHES SAME FILL-ORIGIN LEVEL: 0 DIFFERENT FILL-ORIGIN LEVEL: 0

PSCL4 TOTAL     ACCESS:      15761  HIT:      15751  MISS:         10  HIT %:    99.9366  MISS %:  0.0634478   MPKI: 5e-05
PSCL4 LOAD TRANSLATION ACCESS:      15761  HIT:      15751  MISS:         10  HIT %:    99.9366  MISS %:  0.0634478   MPKI: 5e-05
PSCL4 PREFETCH  REQUESTED:          0  ISSUED:          0  USEFUL:          0  USELESS:          0
PSCL4 USEFUL LOAD PREFETCHES:          0 PREFETCH ISSUED TO LOWER LEVEL:          0  ACCURACY: -nan
PSCL4 TIMELY PREFETCHES:          0 LATE PREFETCHES: 0 DROPPED PREFETCHES: 0
PSCL4 PREFETCHES SAME FILL-ORIGIN LEVEL: 0 DIFFERENT FILL-ORIGIN LEVEL: 0

PSCL3 TOTAL     ACCESS:      15669  HIT:      15636  MISS:         33  HIT %:    99.7894  MISS %:   0.210607   MPKI: 0.000165
PSCL3 LOAD TRANSLATION ACCESS:      15669  HIT:      15636  MISS:         33  HIT %:    99.7894  MISS %:   0.210607   MPKI: 0.000165
PSCL3 PREFETCH  REQUESTED:          0  ISSUED:          0  USEFUL:          0  USELESS:          0
PSCL3 USEFUL LOAD PREFETCHES:          0 PREFETCH ISSUED TO LOWER LEVEL:          0  ACCURACY: -nan
PSCL3 TIMELY PREFETCHES:          0 LATE PREFETCHES: 0 DROPPED PREFETCHES: 0
PSCL3 PREFETCHES SAME FILL-ORIGIN LEVEL: 0 DIFFERENT FILL-ORIGIN LEVEL: 0

PSCL2 TOTAL     ACCESS:      15895  HIT:      15077  MISS:        818  HIT %:    94.8537  MISS %:    5.14627   MPKI: 0.00409
PSCL2 LOAD TRANSLATION ACCESS:      15895  HIT:      15077  MISS:        818  HIT %:    94.8537  MISS %:    5.14627   MPKI: 0.00409
PSCL2 PREFETCH  REQUESTED:          0  ISSUED:          0  USEFUL:          0  USELESS:          0
PSCL2 USEFUL LOAD PREFETCHES:          0 PREFETCH ISSUED TO LOWER LEVEL:          0  ACCURACY: -nan
PSCL2 TIMELY PREFETCHES:          0 LATE PREFETCHES: 0 DROPPED PREFETCHES: 0
PSCL2 PREFETCHES SAME FILL-ORIGIN LEVEL: 0 DIFFERENT FILL-ORIGIN LEVEL: 0

LLC TOTAL     ACCESS:    1447997  HIT:     935676  MISS:     512321  HIT %:    64.6186  MISS %:    35.3814   MPKI: 2.5616
LLC LOAD      ACCESS:     846983  HIT:     516696  MISS:     330287  HIT %:    61.0043  MISS %:    38.9957   MPKI: 1.65143
LLC RFO       ACCESS:     154188  HIT:      23103  MISS:     131085  HIT %:    14.9837  MISS %:    85.0163   MPKI: 0.655425
LLC PREFETCH  ACCESS:      66594  HIT:      44579  MISS:      22015  HIT %:    66.9415  MISS %:    33.0585   MPKI: 0.110075
AGUS PREFETCH L1 MISS: 0
LLC WRITEBACK ACCESS:     373169  HIT:     349109  MISS:      24060  HIT %:    93.5525  MISS %:    6.44748   MPKI: 0.1203
LLC LOAD TRANSLATION ACCESS:       7063  HIT:       2189  MISS:       4874  HIT %:    30.9925  MISS %:    69.0075   MPKI: 0.02437
LLC PREFETCH  REQUESTED:          0  ISSUED:          0  USEFUL:       6841  USELESS:      15507
LLC USEFUL LOAD PREFETCHES:       6841 PREFETCH ISSUED TO LOWER LEVEL:      22015  ACCURACY: 31.0743
LLC TIMELY PREFETCHES:       6841 LATE PREFETCHES: 0 DROPPED PREFETCHES: 0
LLC PREFETCHES SAME FILL-ORIGIN LEVEL: 0 DIFFERENT FILL-ORIGIN LEVEL: 0
LLC AVERAGE MISS LATENCY: 160.277 cycles
LLC RQ	ACCESS:    1008234	FORWARD:          0	MERGED:          0	TO_CACHE:    1008234
LLC WQ	ACCESS:     373170	FORWARD:          0	MERGED:          0	TO_CACHE:     373170
LLC PQ	ACCESS:      66594	FORWARD:          0	MERGED:          0	TO_CACHE:      66594

LLC Dense regions hint to LLC: 0

RAW hits: 2593785
Loads Generated: 55441678
Loads sent to L1D: 52847892
Stores Generated: 16975122
Stores sent to L1D: 16975108
Major fault: 0 Minor fault: 3509
Allocated PAGES: 3509
CPU 0 L1D PC-based stride prefetcher final stats
Degree: 3

DRAM Statistics
 CHANNEL 0
 RQ ROW_BUFFER_HIT:     115002  ROW_BUFFER_MISS:     373258
 DBUS_CONGESTED:        176
 WQ ROW_BUFFER_HIT:      50582  ROW_BUFFER_MISS:     243117  FULL:          0

 AVG_CONGESTED_CYCLE: 4
 All warmup complete: 2
Channel 0 Bank busy for read cycles: 0
Channel 0 Bank busy for write cycles: 0
Channel 0
Rank 0
0banks busy for read cycles: 290261040
0banks busy for write cycles: 138417
1banks busy for read cycles: 33495902
1banks busy for write cycles: 19231316
2banks busy for read cycles: 6822084
2banks busy for write cycles: 5712551
3banks busy for read cycles: 1855187
3banks busy for write cycles: 2006704
4banks busy for read cycles: 453154
4banks busy for write cycles: 846053
5banks busy for read cycles: 191846
5banks busy for write cycles: 455041
6banks busy for read cycles: 165546
6banks busy for write cycles: 317612
7banks busy for read cycles: 260132
7banks busy for write cycles: 311716
8banks busy for read cycles: 454955
8banks busy for write cycles: 1280720

CPU 0 Branch Prediction Accuracy: 98.6141% MPKI: 2.42227 Average ROB Occupancy at Mispredict: 26.8092
Branch types
NOT_BRANCH: 165044320 82.5222%
BRANCH_DIRECT_JUMP: 1694154 0.847077%
BRANCH_INDIRECT: 6802149 3.40107%
BRANCH_CONDITIONAL: 20796949 10.3985%
BRANCH_DIRECT_CALL: 1985283 0.992641%
BRANCH_INDIRECT_CALL: 845555 0.422777%
BRANCH_RETURN: 2831751 1.41588%
BRANCH_OTHER: 0 0%

DRAM PAGES: 1048576
Allocated PAGES: 3509
