
*** ChampSim Multicore Out-of-Order Simulator ***

Warmup Instructions: 50000000
Simulation Instructions: 200000000
Number of CPUs: 1
LLC sets: 2048
LLC ways: 16
Off-chip DRAM Size: 4096 MB Channels: 1 Width: 64-bit Data Rate: 6400 MT/s
CPU 0 runs traces/spec2k17/server_027.champsimtrace.xz
.xz
BTB has LRU replacement policy
ITLB has LRU replacement policy
DTLB has LRU replacement policy
STLB has LRU replacement policy
L1I has LRU replacement policy
CPU 0 L1D IP-based stride prefetcher
L1D has LRU replacement policy
Initialize SRRIP state for L2C
Initialize DRRIP state for LLC
Heartbeat CPU 0 instructions: 10000000 cycles: 2818085 heartbeat IPC: 3.54851 cumulative IPC: 3.54851 (Simulation time: 0 hr 0 min 37 sec) 
Heartbeat CPU 0 instructions: 20000003 cycles: 5633900 heartbeat IPC: 3.55137 cumulative IPC: 3.54994 (Simulation time: 0 hr 1 min 16 sec) 
Heartbeat CPU 0 instructions: 30000001 cycles: 8446204 heartbeat IPC: 3.5558 cumulative IPC: 3.55189 (Simulation time: 0 hr 1 min 53 sec) 
Heartbeat CPU 0 instructions: 40000002 cycles: 11258455 heartbeat IPC: 3.55587 cumulative IPC: 3.55289 (Simulation time: 0 hr 2 min 31 sec) 
Heartbeat CPU 0 instructions: 50000002 cycles: 14070732 heartbeat IPC: 3.55584 cumulative IPC: 3.55348 (Simulation time: 0 hr 3 min 6 sec) 

Warmup complete CPU 0 instructions: 50000002 cycles: 14070732 (Simulation time: 0 hr 3 min 6 sec) 

Heartbeat CPU 0 instructions: 60000001 cycles: 46101563 heartbeat IPC: 0.312199 cumulative IPC: 0.312199 (Simulation time: 0 hr 3 min 58 sec) 
Heartbeat CPU 0 instructions: 70000000 cycles: 77962823 heartbeat IPC: 0.313861 cumulative IPC: 0.313028 (Simulation time: 0 hr 4 min 57 sec) 
Heartbeat CPU 0 instructions: 80000001 cycles: 109829671 heartbeat IPC: 0.313806 cumulative IPC: 0.313287 (Simulation time: 0 hr 5 min 50 sec) 
Heartbeat CPU 0 instructions: 90000001 cycles: 141988819 heartbeat IPC: 0.310953 cumulative IPC: 0.3127 (Simulation time: 0 hr 6 min 43 sec) 
Heartbeat CPU 0 instructions: 100000000 cycles: 173876219 heartbeat IPC: 0.313603 cumulative IPC: 0.31288 (Simulation time: 0 hr 7 min 41 sec) 
*** Reached end of trace for Core: 0 Repeating trace: traces/spec2k17/server_027.champsimtrace.xz
Heartbeat CPU 0 instructions: 110000000 cycles: 205726850 heartbeat IPC: 0.313966 cumulative IPC: 0.313061 (Simulation time: 0 hr 8 min 45 sec) 
Heartbeat CPU 0 instructions: 120000001 cycles: 237516932 heartbeat IPC: 0.314564 cumulative IPC: 0.313275 (Simulation time: 0 hr 9 min 37 sec) 
Heartbeat CPU 0 instructions: 130000000 cycles: 269509179 heartbeat IPC: 0.312576 cumulative IPC: 0.313187 (Simulation time: 0 hr 10 min 31 sec) 
Heartbeat CPU 0 instructions: 140000003 cycles: 301410798 heartbeat IPC: 0.313464 cumulative IPC: 0.313218 (Simulation time: 0 hr 11 min 32 sec) 
Heartbeat CPU 0 instructions: 150000001 cycles: 333270011 heartbeat IPC: 0.313881 cumulative IPC: 0.313284 (Simulation time: 0 hr 12 min 27 sec) 
Heartbeat CPU 0 instructions: 160000000 cycles: 365077855 heartbeat IPC: 0.314388 cumulative IPC: 0.313384 (Simulation time: 0 hr 13 min 20 sec) 
Heartbeat CPU 0 instructions: 170000000 cycles: 397059477 heartbeat IPC: 0.31268 cumulative IPC: 0.313325 (Simulation time: 0 hr 14 min 19 sec) 
Heartbeat CPU 0 instructions: 180000000 cycles: 428871291 heartbeat IPC: 0.314349 cumulative IPC: 0.313404 (Simulation time: 0 hr 15 min 14 sec) 
Heartbeat CPU 0 instructions: 190000001 cycles: 460811529 heartbeat IPC: 0.313085 cumulative IPC: 0.313381 (Simulation time: 0 hr 16 min 8 sec) 
Heartbeat CPU 0 instructions: 200000001 cycles: 492873798 heartbeat IPC: 0.311893 cumulative IPC: 0.313281 (Simulation time: 0 hr 17 min 2 sec) 
*** Reached end of trace for Core: 0 Repeating trace: traces/spec2k17/server_027.champsimtrace.xz
Heartbeat CPU 0 instructions: 210000000 cycles: 524623480 heartbeat IPC: 0.314964 cumulative IPC: 0.313386 (Simulation time: 0 hr 18 min 3 sec) 
Heartbeat CPU 0 instructions: 220000000 cycles: 556427737 heartbeat IPC: 0.314423 cumulative IPC: 0.313447 (Simulation time: 0 hr 18 min 55 sec) 
Heartbeat CPU 0 instructions: 230000000 cycles: 588434106 heartbeat IPC: 0.312438 cumulative IPC: 0.31339 (Simulation time: 0 hr 19 min 41 sec) 
Heartbeat CPU 0 instructions: 240000001 cycles: 620244805 heartbeat IPC: 0.31436 cumulative IPC: 0.313441 (Simulation time: 0 hr 20 min 38 sec) 
Heartbeat CPU 0 instructions: 250000000 cycles: 652046394 heartbeat IPC: 0.31445 cumulative IPC: 0.313492 (Simulation time: 0 hr 21 min 36 sec) 
Finished CPU 0 instructions: 200000002 cycles: 637975688 cumulative IPC: 0.313492 (Simulation time: 0 hr 21 min 36 sec) 

ChampSim completed all CPUs

Region of Interest Statistics

CPU 0 cumulative IPC: 0.313492 instructions: 200000002 cycles: 637975688
ITLB TOTAL     ACCESS:   34665181  HIT:   32640236  MISS:    2024945  HIT %:    94.1586  MISS %:    5.84144   MPKI: 10.1247
ITLB LOAD TRANSLATION ACCESS:   34665181  HIT:   32640236  MISS:    2024945  HIT %:    94.1586  MISS %:    5.84144   MPKI: 10.1247
ITLB PREFETCH  REQUESTED:          0  ISSUED:          0  USEFUL:          0  USELESS:          0
ITLB USEFUL LOAD PREFETCHES:          0 PREFETCH ISSUED TO LOWER LEVEL:          0  ACCURACY: -nan
ITLB TIMELY PREFETCHES:          0 LATE PREFETCHES: 0 DROPPED PREFETCHES: 0
ITLB PREFETCHES SAME FILL-ORIGIN LEVEL: 0 DIFFERENT FILL-ORIGIN LEVEL: 0
ITLB AVERAGE MISS LATENCY: 9.03674 cycles
ITLB RQ	ACCESS:   40882239	FORWARD:          0	MERGED:    5733261	TO_CACHE:   35148978

DTLB TOTAL     ACCESS:   46405181  HIT:   44579262  MISS:    1825919  HIT %:    96.0653  MISS %:    3.93473   MPKI: 9.12959
DTLB LOAD TRANSLATION ACCESS:   46405181  HIT:   44579262  MISS:    1825919  HIT %:    96.0653  MISS %:    3.93473   MPKI: 9.12959
DTLB PREFETCH  REQUESTED:          0  ISSUED:          0  USEFUL:          0  USELESS:          0
DTLB USEFUL LOAD PREFETCHES:          0 PREFETCH ISSUED TO LOWER LEVEL:          0  ACCURACY: -nan
DTLB TIMELY PREFETCHES:          0 LATE PREFETCHES: 0 DROPPED PREFETCHES: 0
DTLB PREFETCHES SAME FILL-ORIGIN LEVEL: 0 DIFFERENT FILL-ORIGIN LEVEL: 0
DTLB AVERAGE MISS LATENCY: 9.22723 cycles
DTLB RQ	ACCESS:   61075087	FORWARD:          0	MERGED:   14603410	TO_CACHE:   46471677

STLB TOTAL     ACCESS:    4262285  HIT:    4254112  MISS:       8173  HIT %:    99.8082  MISS %:   0.191752   MPKI: 0.040865
STLB LOAD TRANSLATION ACCESS:    3850864  HIT:    3842691  MISS:       8173  HIT %:    99.7878  MISS %:   0.212238   MPKI: 0.040865
STLB TRANSLATION FROM L1D PREFETCHER ACCESS:     411421  HIT:     411421  MISS:          0  HIT %:        100  MISS %:          0   MPKI: 0
STLB PREFETCH  REQUESTED:          0  ISSUED:          0  USEFUL:          0  USELESS:          0
STLB USEFUL LOAD PREFETCHES:          0 PREFETCH ISSUED TO LOWER LEVEL:          0  ACCURACY: -nan
STLB TIMELY PREFETCHES:          0 LATE PREFETCHES: 0 DROPPED PREFETCHES: 0
STLB PREFETCHES SAME FILL-ORIGIN LEVEL: 0 DIFFERENT FILL-ORIGIN LEVEL: 0
STLB AVERAGE MISS LATENCY: 56.8497 cycles
STLB RQ	ACCESS:    5104459	FORWARD:          0	MERGED:     842174	TO_CACHE:    4262285

STLB Hit, L1D data hit: 0
STLB Hit, L2C data hit: 0
STLB Hit, LLC data hit: 0
STLB Hit, LLC data miss: 0
STLB STLB hints to L2: 0
L1D TOTAL     ACCESS:   60304240  HIT:   56252965  MISS:    4051275  HIT %:    93.2819  MISS %:    6.71806   MPKI: 20.2564
L1D LOAD      ACCESS:   34214256  HIT:   31462383  MISS:    2751873  HIT %:    91.9569  MISS %:    8.04306   MPKI: 13.7594
L1D RFO       ACCESS:   25007193  HIT:   23883193  MISS:    1124000  HIT %:    95.5053  MISS %:    4.49471   MPKI: 5.62
L1D PREFETCH  ACCESS:    1082791  HIT:     907389  MISS:     175402  HIT %:    83.8009  MISS %:    16.1991   MPKI: 0.87701
AGUS PREFETCH L1 MISS: 0
L1D PREFETCH  REQUESTED:    2792867  ISSUED:    2792861  USEFUL:      78814  USELESS:      96588
L1D USEFUL LOAD PREFETCHES:      78814 PREFETCH ISSUED TO LOWER LEVEL:     268751  ACCURACY: 29.326
L1D TIMELY PREFETCHES:      78814 LATE PREFETCHES: 47119 DROPPED PREFETCHES: 0
L1D PREFETCHES SAME FILL-ORIGIN LEVEL: 222521 DIFFERENT FILL-ORIGIN LEVEL: 46230
L1D AVERAGE MISS LATENCY: 3.88662e+06 cycles
L1D RQ	ACCESS:   47477859	FORWARD:          0	MERGED:   12854903	TO_CACHE:   34323894
L1D WQ	ACCESS:   26918036	FORWARD:     299065	MERGED:     166843	TO_CACHE:   26751193
L1D PQ	ACCESS:    1539266	FORWARD:          0	MERGED:     285668	TO_CACHE:    1253595

L1D UNIQUE REGIONS ACCESSED: 0
L1D REGIONS CONFLICTS: 0
L1D Cross Page Prefetch Requests: 0
L1D Same Page Prefetch Requests: 1906325
L1D ROI Sum of L1D PQ occupancy: 16912427
L1D PREFETCHES PUSHED FROM L2C: 0
L1I TOTAL     ACCESS:   39382261  HIT:   28805789  MISS:   10576472  HIT %:    73.1441  MISS %:    26.8559   MPKI: 52.8824
L1I LOAD      ACCESS:   39382261  HIT:   28805789  MISS:   10576472  HIT %:    73.1441  MISS %:    26.8559   MPKI: 52.8824
L1I PREFETCH  REQUESTED:          0  ISSUED:          0  USEFUL:          0  USELESS:          0
L1I USEFUL LOAD PREFETCHES:          0 PREFETCH ISSUED TO LOWER LEVEL:          0  ACCURACY: -nan
L1I TIMELY PREFETCHES:          0 LATE PREFETCHES: 0 DROPPED PREFETCHES: 0
L1I PREFETCHES SAME FILL-ORIGIN LEVEL: 0 DIFFERENT FILL-ORIGIN LEVEL: 0
L1I AVERAGE MISS LATENCY: 16.2211 cycles
L1I RQ	ACCESS:   57935886	FORWARD:          0	MERGED:   17053647	TO_CACHE:   40882239

BTB TOTAL     ACCESS:   30075438  HIT:   17377784  MISS:   12697654  HIT %:    57.7807  MISS %:    42.2193   MPKI: 63.4883
BTB BRANCH_DIRECT_JUMP	ACCESS:    2026968  HIT:    1138640  MISS:     888328
BTB BRANCH_INDIRECT	ACCESS:   11863620  HIT:    7044030  MISS:    4819590
BTB BRANCH_CONDITIONAL	ACCESS:    7648131  HIT:    6314456  MISS:    1333675
BTB BRANCH_DIRECT_CALL	ACCESS:    3599197  HIT:    1507522  MISS:    2091675
BTB BRANCH_INDIRECT_CALL	ACCESS:     669164  HIT:     263401  MISS:     405763
BTB BRANCH_RETURN	ACCESS:    4268358  HIT:    1109735  MISS:    3158623
BTB BRANCH_OTHER ACCESS:          0  HIT:          0  MISS:          0

L2C TOTAL     ACCESS:   16626357  HIT:   15322989  MISS:    1303368  HIT %:    92.1608  MISS %:    7.83917   MPKI: 6.51684
L2C LOAD      ACCESS:   13281226  HIT:   12261633  MISS:    1019593  HIT %:    92.3231  MISS %:    7.67695   MPKI: 5.09796
L2C DATA LOAD MPKI: 1.40444
L2C INSTRUCTION LOAD MPKI: 3.69352
L2C RFO       ACCESS:    1124000  HIT:     957071  MISS:     166929  HIT %:    85.1487  MISS %:    14.8513   MPKI: 0.834645
L2C PREFETCH  ACCESS:     245197  HIT:     177693  MISS:      67504  HIT %:    72.4695  MISS %:    27.5305   MPKI: 0.33752
AGUS PREFETCH L1 MISS: 0
L2C DATA PREFETCH MPKI: 0.33752
L2C INSTRUCTION PREFETCH MPKI: 0
L2C WRITEBACK ACCESS:    1967158  HIT:    1923930  MISS:      43228  HIT %:    97.8025  MISS %:    2.19748   MPKI: 0.21614
L2C LOAD TRANSLATION ACCESS:       8776  HIT:       2662  MISS:       6114  HIT %:    30.3327  MISS %:    69.6673   MPKI: 0.03057
L2C PREFETCH  REQUESTED:          0  ISSUED:          0  USEFUL:       8271  USELESS:      59288
L2C USEFUL LOAD PREFETCHES:       8271 PREFETCH ISSUED TO LOWER LEVEL:      75187  ACCURACY: 11.0006
L2C TIMELY PREFETCHES:       8271 LATE PREFETCHES: 7683 DROPPED PREFETCHES: 0
L2C PREFETCHES SAME FILL-ORIGIN LEVEL: 21450 DIFFERENT FILL-ORIGIN LEVEL: 0
L2C AVERAGE MISS LATENCY: 40.4719 cycles
L2C RQ	ACCESS:   14414002	FORWARD:          0	MERGED:          0	TO_CACHE:   14414002
L2C WQ	ACCESS:    1967158	FORWARD:         15	MERGED:          0	TO_CACHE:    1967158
L2C PQ	ACCESS:     268751	FORWARD:          0	MERGED:          9	TO_CACHE:     268727

L2C Instructions Evicting Data 277543
L2C Translations Evicting Data 4133
L2C Data Evicting Data 259375
L2C Instructions Evicting Instructions 459238
L2C Translations Evicting Instructions 1919
L2C Data Evicting Instructions 251854
L2C Instructions Evicting Translations 1924
L2C Translations Evicting Translations 62
L2C Data Evicting Translations 4092
L2C Dense regions hint from L2: 0
PSCL5 TOTAL     ACCESS:       8173  HIT:       8173  MISS:          0  HIT %:        100  MISS %:          0   MPKI: 0
PSCL5 LOAD TRANSLATION ACCESS:       8173  HIT:       8173  MISS:          0  HIT %:        100  MISS %:          0   MPKI: 0
PSCL5 PREFETCH  REQUESTED:          0  ISSUED:          0  USEFUL:          0  USELESS:          0
PSCL5 USEFUL LOAD PREFETCHES:          0 PREFETCH ISSUED TO LOWER LEVEL:          0  ACCURACY: -nan
PSCL5 TIMELY PREFETCHES:          0 LATE PREFETCHES: 0 DROPPED PREFETCHES: 0
PSCL5 PREFETCHES SAME FILL-ORIGIN LEVEL: 0 DIFFERENT FILL-ORIGIN LEVEL: 0

PSCL4 TOTAL     ACCESS:       7219  HIT:       7154  MISS:         65  HIT %:    99.0996  MISS %:   0.900402   MPKI: 0.000325
PSCL4 LOAD TRANSLATION ACCESS:       7219  HIT:       7154  MISS:         65  HIT %:    99.0996  MISS %:   0.900402   MPKI: 0.000325
PSCL4 PREFETCH  REQUESTED:          0  ISSUED:          0  USEFUL:          0  USELESS:          0
PSCL4 USEFUL LOAD PREFETCHES:          0 PREFETCH ISSUED TO LOWER LEVEL:          0  ACCURACY: -nan
PSCL4 TIMELY PREFETCHES:          0 LATE PREFETCHES: 0 DROPPED PREFETCHES: 0
PSCL4 PREFETCHES SAME FILL-ORIGIN LEVEL: 0 DIFFERENT FILL-ORIGIN LEVEL: 0

PSCL3 TOTAL     ACCESS:       7384  HIT:       7319  MISS:         65  HIT %:    99.1197  MISS %:   0.880282   MPKI: 0.000325
PSCL3 LOAD TRANSLATION ACCESS:       7384  HIT:       7319  MISS:         65  HIT %:    99.1197  MISS %:   0.880282   MPKI: 0.000325
PSCL3 PREFETCH  REQUESTED:          0  ISSUED:          0  USEFUL:          0  USELESS:          0
PSCL3 USEFUL LOAD PREFETCHES:          0 PREFETCH ISSUED TO LOWER LEVEL:          0  ACCURACY: -nan
PSCL3 TIMELY PREFETCHES:          0 LATE PREFETCHES: 0 DROPPED PREFETCHES: 0
PSCL3 PREFETCHES SAME FILL-ORIGIN LEVEL: 0 DIFFERENT FILL-ORIGIN LEVEL: 0

PSCL2 TOTAL     ACCESS:       8173  HIT:       7696  MISS:        477  HIT %:    94.1637  MISS %:    5.83629   MPKI: 0.002385
PSCL2 LOAD TRANSLATION ACCESS:       8173  HIT:       7696  MISS:        477  HIT %:    94.1637  MISS %:    5.83629   MPKI: 0.002385
PSCL2 PREFETCH  REQUESTED:          0  ISSUED:          0  USEFUL:          0  USELESS:          0
PSCL2 USEFUL LOAD PREFETCHES:          0 PREFETCH ISSUED TO LOWER LEVEL:          0  ACCURACY: -nan
PSCL2 TIMELY PREFETCHES:          0 LATE PREFETCHES: 0 DROPPED PREFETCHES: 0
PSCL2 PREFETCHES SAME FILL-ORIGIN LEVEL: 0 DIFFERENT FILL-ORIGIN LEVEL: 0

LLC TOTAL     ACCESS:    1489271  HIT:    1395618  MISS:      93653  HIT %:    93.7115  MISS %:    6.28851   MPKI: 0.468265
LLC LOAD      ACCESS:    1011910  HIT:     991677  MISS:      20233  HIT %:    98.0005  MISS %:    1.99949   MPKI: 0.101165
LLC RFO       ACCESS:     166926  HIT:     118619  MISS:      48307  HIT %:    71.0608  MISS %:    28.9392   MPKI: 0.241535
LLC PREFETCH  ACCESS:      75187  HIT:      51441  MISS:      23746  HIT %:    68.4174  MISS %:    31.5826   MPKI: 0.11873
AGUS PREFETCH L1 MISS: 0
LLC WRITEBACK ACCESS:     229134  HIT:     228161  MISS:        973  HIT %:    99.5754  MISS %:   0.424642   MPKI: 0.004865
LLC LOAD TRANSLATION ACCESS:       6114  HIT:       5720  MISS:        394  HIT %:    93.5558  MISS %:    6.44423   MPKI: 0.00197
LLC PREFETCH  REQUESTED:          0  ISSUED:          0  USEFUL:       2227  USELESS:      22052
LLC USEFUL LOAD PREFETCHES:       2227 PREFETCH ISSUED TO LOWER LEVEL:      23746  ACCURACY: 9.37842
LLC TIMELY PREFETCHES:       2227 LATE PREFETCHES: 0 DROPPED PREFETCHES: 0
LLC PREFETCHES SAME FILL-ORIGIN LEVEL: 0 DIFFERENT FILL-ORIGIN LEVEL: 0
LLC AVERAGE MISS LATENCY: 162.133 cycles
LLC RQ	ACCESS:    1184953	FORWARD:          0	MERGED:          0	TO_CACHE:    1184950
LLC WQ	ACCESS:     229134	FORWARD:          3	MERGED:          0	TO_CACHE:     229134
LLC PQ	ACCESS:      75187	FORWARD:          0	MERGED:          0	TO_CACHE:      75187

LLC Dense regions hint to LLC: 0

RAW hits: 1432947
Loads Generated: 48910806
Loads sent to L1D: 47477859
Stores Generated: 26918028
Stores sent to L1D: 26918036
Major fault: 0 Minor fault: 2582
Allocated PAGES: 2582
CPU 0 L1D PC-based stride prefetcher final stats
Degree: 3

DRAM Statistics
 CHANNEL 0
 RQ ROW_BUFFER_HIT:      38170  ROW_BUFFER_MISS:      54499
 DBUS_CONGESTED:         36
 WQ ROW_BUFFER_HIT:       4577  ROW_BUFFER_MISS:      47183  FULL:          0

 AVG_CONGESTED_CYCLE: 5
 All warmup complete: 2
Channel 0 Bank busy for read cycles: 0
Channel 0 Bank busy for write cycles: 0
Channel 0
Rank 0
0banks busy for read cycles: 630946724
0banks busy for write cycles: 12323
1banks busy for read cycles: 2383856
1banks busy for write cycles: 1484619
2banks busy for read cycles: 487548
2banks busy for write cycles: 370761
3banks busy for read cycles: 329423
3banks busy for write cycles: 180892
4banks busy for read cycles: 176179
4banks busy for write cycles: 134181
5banks busy for read cycles: 133762
5banks busy for write cycles: 121069
6banks busy for read cycles: 131219
6banks busy for write cycles: 123758
7banks busy for read cycles: 146178
7banks busy for write cycles: 150866
8banks busy for read cycles: 323854
8banks busy for write cycles: 338477

CPU 0 Branch Prediction Accuracy: 99.8608% MPKI: 0.244675 Average ROB Occupancy at Mispredict: 30.7463
Branch types
NOT_BRANCH: 164851252 82.4256%
BRANCH_DIRECT_JUMP: 2026968 1.01348%
BRANCH_INDIRECT: 11863620 5.93181%
BRANCH_CONDITIONAL: 12721079 6.36054%
BRANCH_DIRECT_CALL: 3599197 1.7996%
BRANCH_INDIRECT_CALL: 669164 0.334582%
BRANCH_RETURN: 4268358 2.13418%
BRANCH_OTHER: 0 0%

DRAM PAGES: 1048576
Allocated PAGES: 2582
