
*** ChampSim Multicore Out-of-Order Simulator ***

Warmup Instructions: 50000000
Simulation Instructions: 200000000
Number of CPUs: 1
LLC sets: 2048
LLC ways: 16
Off-chip DRAM Size: 4096 MB Channels: 1 Width: 64-bit Data Rate: 6400 MT/s
CPU 0 runs traces/spec2k17/server_036.champsimtrace.xz
.xz
BTB has LRU replacement policy
ITLB has LRU replacement policy
DTLB has LRU replacement policy
STLB has LRU replacement policy
L1I has LRU replacement policy
CPU 0 L1D IP-based stride prefetcher
L1D has LRU replacement policy
Initialize SRRIP state for L2C
Initialize DRRIP state for LLC
Heartbeat CPU 0 instructions: 10000000 cycles: 2724879 heartbeat IPC: 3.66989 cumulative IPC: 3.66989 (Simulation time: 0 hr 0 min 33 sec) 
Heartbeat CPU 0 instructions: 20000002 cycles: 5448476 heartbeat IPC: 3.67162 cumulative IPC: 3.67075 (Simulation time: 0 hr 1 min 6 sec) 
Heartbeat CPU 0 instructions: 30000002 cycles: 8173154 heartbeat IPC: 3.67016 cumulative IPC: 3.67055 (Simulation time: 0 hr 1 min 33 sec) 
Heartbeat CPU 0 instructions: 40000000 cycles: 10922753 heartbeat IPC: 3.63689 cumulative IPC: 3.66208 (Simulation time: 0 hr 2 min 7 sec) 
Heartbeat CPU 0 instructions: 50000001 cycles: 13645507 heartbeat IPC: 3.67275 cumulative IPC: 3.66421 (Simulation time: 0 hr 2 min 41 sec) 

Warmup complete CPU 0 instructions: 50000001 cycles: 13645507 (Simulation time: 0 hr 2 min 41 sec) 

Heartbeat CPU 0 instructions: 60000003 cycles: 31303630 heartbeat IPC: 0.566312 cumulative IPC: 0.566312 (Simulation time: 0 hr 3 min 29 sec) 
Heartbeat CPU 0 instructions: 70000000 cycles: 48818014 heartbeat IPC: 0.570959 cumulative IPC: 0.568626 (Simulation time: 0 hr 4 min 13 sec) 
Heartbeat CPU 0 instructions: 80000002 cycles: 66333392 heartbeat IPC: 0.570927 cumulative IPC: 0.569391 (Simulation time: 0 hr 4 min 59 sec) 
Heartbeat CPU 0 instructions: 90000000 cycles: 83883577 heartbeat IPC: 0.569794 cumulative IPC: 0.569492 (Simulation time: 0 hr 5 min 46 sec) 
Heartbeat CPU 0 instructions: 100000002 cycles: 101406792 heartbeat IPC: 0.570672 cumulative IPC: 0.569727 (Simulation time: 0 hr 6 min 35 sec) 
Heartbeat CPU 0 instructions: 110000000 cycles: 118926402 heartbeat IPC: 0.570789 cumulative IPC: 0.569904 (Simulation time: 0 hr 7 min 27 sec) 
Heartbeat CPU 0 instructions: 120000000 cycles: 136455572 heartbeat IPC: 0.570478 cumulative IPC: 0.569986 (Simulation time: 0 hr 8 min 16 sec) 
*** Reached end of trace for Core: 0 Repeating trace: traces/spec2k17/server_036.champsimtrace.xz
Heartbeat CPU 0 instructions: 130000003 cycles: 154232509 heartbeat IPC: 0.562527 cumulative IPC: 0.569043 (Simulation time: 0 hr 9 min 5 sec) 
Heartbeat CPU 0 instructions: 140000000 cycles: 171697053 heartbeat IPC: 0.572589 cumulative IPC: 0.569434 (Simulation time: 0 hr 9 min 56 sec) 
Heartbeat CPU 0 instructions: 150000000 cycles: 189170028 heartbeat IPC: 0.572312 cumulative IPC: 0.569721 (Simulation time: 0 hr 10 min 50 sec) 
Heartbeat CPU 0 instructions: 160000001 cycles: 208343958 heartbeat IPC: 0.521542 cumulative IPC: 0.564976 (Simulation time: 0 hr 11 min 40 sec) 
Heartbeat CPU 0 instructions: 170000000 cycles: 225857808 heartbeat IPC: 0.570977 cumulative IPC: 0.565471 (Simulation time: 0 hr 12 min 26 sec) 
Heartbeat CPU 0 instructions: 180000000 cycles: 243467202 heartbeat IPC: 0.567879 cumulative IPC: 0.565656 (Simulation time: 0 hr 13 min 13 sec) 
Heartbeat CPU 0 instructions: 190000003 cycles: 260978860 heartbeat IPC: 0.571048 cumulative IPC: 0.566038 (Simulation time: 0 hr 14 min 0 sec) 
Heartbeat CPU 0 instructions: 200000001 cycles: 278493897 heartbeat IPC: 0.570938 cumulative IPC: 0.566362 (Simulation time: 0 hr 14 min 48 sec) 
Heartbeat CPU 0 instructions: 210000003 cycles: 296036507 heartbeat IPC: 0.570041 cumulative IPC: 0.56659 (Simulation time: 0 hr 15 min 37 sec) 
Heartbeat CPU 0 instructions: 220000000 cycles: 313559646 heartbeat IPC: 0.570674 cumulative IPC: 0.566829 (Simulation time: 0 hr 16 min 25 sec) 
Heartbeat CPU 0 instructions: 230000001 cycles: 331081009 heartbeat IPC: 0.570732 cumulative IPC: 0.567044 (Simulation time: 0 hr 17 min 9 sec) 
Heartbeat CPU 0 instructions: 240000001 cycles: 348609826 heartbeat IPC: 0.570489 cumulative IPC: 0.567225 (Simulation time: 0 hr 17 min 59 sec) 
*** Reached end of trace for Core: 0 Repeating trace: traces/spec2k17/server_036.champsimtrace.xz
Heartbeat CPU 0 instructions: 250000000 cycles: 366360755 heartbeat IPC: 0.563351 cumulative IPC: 0.56703 (Simulation time: 0 hr 18 min 47 sec) 
Finished CPU 0 instructions: 200000000 cycles: 352715251 cumulative IPC: 0.56703 (Simulation time: 0 hr 18 min 47 sec) 

ChampSim completed all CPUs

Region of Interest Statistics

CPU 0 cumulative IPC: 0.56703 instructions: 200000000 cycles: 352715251
ITLB TOTAL     ACCESS:   35602346  HIT:   33754743  MISS:    1847603  HIT %:    94.8104  MISS %:    5.18955   MPKI: 9.23802
ITLB LOAD TRANSLATION ACCESS:   35602346  HIT:   33754743  MISS:    1847603  HIT %:    94.8104  MISS %:    5.18955   MPKI: 9.23802
ITLB PREFETCH  REQUESTED:          0  ISSUED:          0  USEFUL:          0  USELESS:          0
ITLB USEFUL LOAD PREFETCHES:          0 PREFETCH ISSUED TO LOWER LEVEL:          0  ACCURACY: -nan
ITLB TIMELY PREFETCHES:          0 LATE PREFETCHES: 0 DROPPED PREFETCHES: 0
ITLB PREFETCHES SAME FILL-ORIGIN LEVEL: 0 DIFFERENT FILL-ORIGIN LEVEL: 0
ITLB AVERAGE MISS LATENCY: 9.02543 cycles
ITLB RQ	ACCESS:   40700109	FORWARD:          0	MERGED:    4730722	TO_CACHE:   35969387

DTLB TOTAL     ACCESS:   40386642  HIT:   39471650  MISS:     914992  HIT %:    97.7344  MISS %:    2.26558   MPKI: 4.57496
DTLB LOAD TRANSLATION ACCESS:   40386642  HIT:   39471650  MISS:     914992  HIT %:    97.7344  MISS %:    2.26558   MPKI: 4.57496
DTLB PREFETCH  REQUESTED:          0  ISSUED:          0  USEFUL:          0  USELESS:          0
DTLB USEFUL LOAD PREFETCHES:          0 PREFETCH ISSUED TO LOWER LEVEL:          0  ACCURACY: -nan
DTLB TIMELY PREFETCHES:          0 LATE PREFETCHES: 0 DROPPED PREFETCHES: 0
DTLB PREFETCHES SAME FILL-ORIGIN LEVEL: 0 DIFFERENT FILL-ORIGIN LEVEL: 0
DTLB AVERAGE MISS LATENCY: 9.16723 cycles
DTLB RQ	ACCESS:   58669711	FORWARD:          0	MERGED:   18210629	TO_CACHE:   40459082

STLB TOTAL     ACCESS:    3443140  HIT:    3441673  MISS:       1467  HIT %:    99.9574  MISS %:  0.0426065   MPKI: 0.007335
STLB LOAD TRANSLATION ACCESS:    2762595  HIT:    2761128  MISS:       1467  HIT %:    99.9469  MISS %:  0.0531022   MPKI: 0.007335
STLB TRANSLATION FROM L1D PREFETCHER ACCESS:     680545  HIT:     680545  MISS:          0  HIT %:        100  MISS %:          0   MPKI: 0
STLB PREFETCH  REQUESTED:          0  ISSUED:          0  USEFUL:          0  USELESS:          0
STLB USEFUL LOAD PREFETCHES:          0 PREFETCH ISSUED TO LOWER LEVEL:          0  ACCURACY: -nan
STLB TIMELY PREFETCHES:          0 LATE PREFETCHES: 0 DROPPED PREFETCHES: 0
STLB PREFETCHES SAME FILL-ORIGIN LEVEL: 0 DIFFERENT FILL-ORIGIN LEVEL: 0
STLB AVERAGE MISS LATENCY: 111.767 cycles
STLB RQ	ACCESS:    4705397	FORWARD:          0	MERGED:    1262257	TO_CACHE:    3443140

STLB Hit, L1D data hit: 0
STLB Hit, L2C data hit: 0
STLB Hit, LLC data hit: 0
STLB Hit, LLC data miss: 0
STLB STLB hints to L2: 0
L1D TOTAL     ACCESS:   60532729  HIT:   60459223  MISS:      73506  HIT %:    99.8786  MISS %:   0.121432   MPKI: 0.36753
L1D LOAD      ACCESS:   30315403  HIT:   30285740  MISS:      29663  HIT %:    99.9022  MISS %:  0.0978479   MPKI: 0.148315
L1D RFO       ACCESS:   28292918  HIT:   28250684  MISS:      42234  HIT %:    99.8507  MISS %:   0.149274   MPKI: 0.21117
L1D PREFETCH  ACCESS:    1924408  HIT:    1922799  MISS:       1609  HIT %:    99.9164  MISS %:  0.0836101   MPKI: 0.008045
AGUS PREFETCH L1 MISS: 0
L1D PREFETCH  REQUESTED:    5254082  ISSUED:    5254056  USEFUL:       1352  USELESS:        269
L1D USEFUL LOAD PREFETCHES:       1352 PREFETCH ISSUED TO LOWER LEVEL:      11596  ACCURACY: 11.6592
L1D TIMELY PREFETCHES:       1352 LATE PREFETCHES: 1160 DROPPED PREFETCHES: 0
L1D PREFETCHES SAME FILL-ORIGIN LEVEL: 2769 DIFFERENT FILL-ORIGIN LEVEL: 8827
L1D AVERAGE MISS LATENCY: 3.08027e+06 cycles
L1D RQ	ACCESS:   47354441	FORWARD:          0	MERGED:   16693134	TO_CACHE:   30317273
L1D WQ	ACCESS:   28475378	FORWARD:     344034	MERGED:     122940	TO_CACHE:   28352438
L1D PQ	ACCESS:    3311254	FORWARD:          0	MERGED:    1368452	TO_CACHE:    1942802

L1D UNIQUE REGIONS ACCESSED: 0
L1D REGIONS CONFLICTS: 0
L1D Cross Page Prefetch Requests: 0
L1D Same Page Prefetch Requests: 3895100
L1D ROI Sum of L1D PQ occupancy: 26759278
L1D PREFETCHES PUSHED FROM L2C: 0
L1I TOTAL     ACCESS:   36329599  HIT:   21994170  MISS:   14335429  HIT %:    60.5406  MISS %:    39.4594   MPKI: 71.6771
L1I LOAD      ACCESS:   36329599  HIT:   21994170  MISS:   14335429  HIT %:    60.5406  MISS %:    39.4594   MPKI: 71.6771
L1I PREFETCH  REQUESTED:          0  ISSUED:          0  USEFUL:          0  USELESS:          0
L1I USEFUL LOAD PREFETCHES:          0 PREFETCH ISSUED TO LOWER LEVEL:          0  ACCURACY: -nan
L1I TIMELY PREFETCHES:          0 LATE PREFETCHES: 0 DROPPED PREFETCHES: 0
L1I PREFETCHES SAME FILL-ORIGIN LEVEL: 0 DIFFERENT FILL-ORIGIN LEVEL: 0
L1I AVERAGE MISS LATENCY: 14.1318 cycles
L1I RQ	ACCESS:   60650351	FORWARD:          0	MERGED:   19950242	TO_CACHE:   40700109

BTB TOTAL     ACCESS:   25908287  HIT:   23514246  MISS:    2394041  HIT %:    90.7596  MISS %:    9.24044   MPKI: 11.9702
BTB BRANCH_DIRECT_JUMP	ACCESS:    1774351  HIT:    1739635  MISS:      34716
BTB BRANCH_INDIRECT	ACCESS:   11507662  HIT:   10680986  MISS:     826676
BTB BRANCH_CONDITIONAL	ACCESS:    4376081  HIT:    4361317  MISS:      14764
BTB BRANCH_DIRECT_CALL	ACCESS:    3347214  HIT:    3281604  MISS:      65610
BTB BRANCH_INDIRECT_CALL	ACCESS:     777882  HIT:     612337  MISS:     165545
BTB BRANCH_RETURN	ACCESS:    4125097  HIT:    2838367  MISS:    1286730
BTB BRANCH_OTHER ACCESS:          0  HIT:          0  MISS:          0

L2C TOTAL     ACCESS:   14463931  HIT:   14391593  MISS:      72338  HIT %:    99.4999  MISS %:   0.500127   MPKI: 0.36169
L2C LOAD      ACCESS:   14363932  HIT:   14332284  MISS:      31648  HIT %:    99.7797  MISS %:    0.22033   MPKI: 0.15824
L2C DATA LOAD MPKI: 0.095025
L2C INSTRUCTION LOAD MPKI: 0.063215
L2C RFO       ACCESS:      42234  HIT:       8960  MISS:      33274  HIT %:    21.2151  MISS %:    78.7849   MPKI: 0.16637
L2C PREFETCH  ACCESS:       6747  HIT:       1740  MISS:       5007  HIT %:    25.7892  MISS %:    74.2108   MPKI: 0.025035
AGUS PREFETCH L1 MISS: 0
L2C DATA PREFETCH MPKI: 0.025035
L2C INSTRUCTION PREFETCH MPKI: 0
L2C WRITEBACK ACCESS:      49353  HIT:      47757  MISS:       1596  HIT %:    96.7662  MISS %:    3.23385   MPKI: 0.00798
L2C LOAD TRANSLATION ACCESS:       1665  HIT:        852  MISS:        813  HIT %:    51.1712  MISS %:    48.8288   MPKI: 0.004065
L2C PREFETCH  REQUESTED:          0  ISSUED:          0  USEFUL:       2734  USELESS:       2579
L2C USEFUL LOAD PREFETCHES:       2734 PREFETCH ISSUED TO LOWER LEVEL:       8404  ACCURACY: 32.5321
L2C TIMELY PREFETCHES:       2734 LATE PREFETCHES: 3397 DROPPED PREFETCHES: 0
L2C PREFETCHES SAME FILL-ORIGIN LEVEL: 6627 DIFFERENT FILL-ORIGIN LEVEL: 0
L2C AVERAGE MISS LATENCY: 173.602 cycles
L2C RQ	ACCESS:   14407831	FORWARD:          0	MERGED:          0	TO_CACHE:   14407831
L2C WQ	ACCESS:      49353	FORWARD:          0	MERGED:          0	TO_CACHE:      49353
L2C PQ	ACCESS:      11596	FORWARD:          0	MERGED:         14	TO_CACHE:      11582

L2C Instructions Evicting Data 10436
L2C Translations Evicting Data 662
L2C Data Evicting Data 46722
L2C Instructions Evicting Instructions 2042
L2C Translations Evicting Instructions 137
L2C Data Evicting Instructions 9951
L2C Instructions Evicting Translations 165
L2C Translations Evicting Translations 14
L2C Data Evicting Translations 613
L2C Dense regions hint from L2: 0
PSCL5 TOTAL     ACCESS:       1467  HIT:       1467  MISS:          0  HIT %:        100  MISS %:          0   MPKI: 0
PSCL5 LOAD TRANSLATION ACCESS:       1467  HIT:       1467  MISS:          0  HIT %:        100  MISS %:          0   MPKI: 0
PSCL5 PREFETCH  REQUESTED:          0  ISSUED:          0  USEFUL:          0  USELESS:          0
PSCL5 USEFUL LOAD PREFETCHES:          0 PREFETCH ISSUED TO LOWER LEVEL:          0  ACCURACY: -nan
PSCL5 TIMELY PREFETCHES:          0 LATE PREFETCHES: 0 DROPPED PREFETCHES: 0
PSCL5 PREFETCHES SAME FILL-ORIGIN LEVEL: 0 DIFFERENT FILL-ORIGIN LEVEL: 0

PSCL4 TOTAL     ACCESS:       1212  HIT:       1201  MISS:         11  HIT %:    99.0924  MISS %:   0.907591   MPKI: 5.5e-05
PSCL4 LOAD TRANSLATION ACCESS:       1212  HIT:       1201  MISS:         11  HIT %:    99.0924  MISS %:   0.907591   MPKI: 5.5e-05
PSCL4 PREFETCH  REQUESTED:          0  ISSUED:          0  USEFUL:          0  USELESS:          0
PSCL4 USEFUL LOAD PREFETCHES:          0 PREFETCH ISSUED TO LOWER LEVEL:          0  ACCURACY: -nan
PSCL4 TIMELY PREFETCHES:          0 LATE PREFETCHES: 0 DROPPED PREFETCHES: 0
PSCL4 PREFETCHES SAME FILL-ORIGIN LEVEL: 0 DIFFERENT FILL-ORIGIN LEVEL: 0

PSCL3 TOTAL     ACCESS:       1362  HIT:       1351  MISS:         11  HIT %:    99.1924  MISS %:   0.807636   MPKI: 5.5e-05
PSCL3 LOAD TRANSLATION ACCESS:       1362  HIT:       1351  MISS:         11  HIT %:    99.1924  MISS %:   0.807636   MPKI: 5.5e-05
PSCL3 PREFETCH  REQUESTED:          0  ISSUED:          0  USEFUL:          0  USELESS:          0
PSCL3 USEFUL LOAD PREFETCHES:          0 PREFETCH ISSUED TO LOWER LEVEL:          0  ACCURACY: -nan
PSCL3 TIMELY PREFETCHES:          0 LATE PREFETCHES: 0 DROPPED PREFETCHES: 0
PSCL3 PREFETCHES SAME FILL-ORIGIN LEVEL: 0 DIFFERENT FILL-ORIGIN LEVEL: 0

PSCL2 TOTAL     ACCESS:       1467  HIT:       1291  MISS:        176  HIT %:    88.0027  MISS %:    11.9973   MPKI: 0.00088
PSCL2 LOAD TRANSLATION ACCESS:       1467  HIT:       1291  MISS:        176  HIT %:    88.0027  MISS %:    11.9973   MPKI: 0.00088
PSCL2 PREFETCH  REQUESTED:          0  ISSUED:          0  USEFUL:          0  USELESS:          0
PSCL2 USEFUL LOAD PREFETCHES:          0 PREFETCH ISSUED TO LOWER LEVEL:          0  ACCURACY: -nan
PSCL2 TIMELY PREFETCHES:          0 LATE PREFETCHES: 0 DROPPED PREFETCHES: 0
PSCL2 PREFETCHES SAME FILL-ORIGIN LEVEL: 0 DIFFERENT FILL-ORIGIN LEVEL: 0

LLC TOTAL     ACCESS:     108967  HIT:      64404  MISS:      44563  HIT %:    59.1041  MISS %:    40.8959   MPKI: 0.222815
LLC LOAD      ACCESS:      28251  HIT:      11165  MISS:      17086  HIT %:    39.5207  MISS %:    60.4793   MPKI: 0.08543
LLC RFO       ACCESS:      33274  HIT:      12719  MISS:      20555  HIT %:     38.225  MISS %:     61.775   MPKI: 0.102775
LLC PREFETCH  ACCESS:       8404  HIT:       2317  MISS:       6087  HIT %:    27.5702  MISS %:    72.4298   MPKI: 0.030435
AGUS PREFETCH L1 MISS: 0
LLC WRITEBACK ACCESS:      38225  HIT:      37905  MISS:        320  HIT %:    99.1629  MISS %:   0.837148   MPKI: 0.0016
LLC LOAD TRANSLATION ACCESS:        813  HIT:        298  MISS:        515  HIT %:    36.6544  MISS %:    63.3456   MPKI: 0.002575
LLC PREFETCH  REQUESTED:          0  ISSUED:          0  USEFUL:        420  USELESS:       7468
LLC USEFUL LOAD PREFETCHES:        420 PREFETCH ISSUED TO LOWER LEVEL:       6087  ACCURACY: 6.89995
LLC TIMELY PREFETCHES:        420 LATE PREFETCHES: 0 DROPPED PREFETCHES: 0
LLC PREFETCHES SAME FILL-ORIGIN LEVEL: 0 DIFFERENT FILL-ORIGIN LEVEL: 0
LLC AVERAGE MISS LATENCY: 241.86 cycles
LLC RQ	ACCESS:      62338	FORWARD:          0	MERGED:          0	TO_CACHE:      62338
LLC WQ	ACCESS:      38225	FORWARD:          0	MERGED:          0	TO_CACHE:      38225
LLC PQ	ACCESS:       8404	FORWARD:          0	MERGED:          0	TO_CACHE:       8404

LLC Dense regions hint to LLC: 0

RAW hits: 2184784
Loads Generated: 49539227
Loads sent to L1D: 47354441
Stores Generated: 28475376
Stores sent to L1D: 28475378
Major fault: 0 Minor fault: 2050
Allocated PAGES: 2050
CPU 0 L1D PC-based stride prefetcher final stats
Degree: 3

DRAM Statistics
 CHANNEL 0
 RQ ROW_BUFFER_HIT:      17513  ROW_BUFFER_MISS:      26730
 DBUS_CONGESTED:          5
 WQ ROW_BUFFER_HIT:       6414  ROW_BUFFER_MISS:      18461  FULL:          0

 AVG_CONGESTED_CYCLE: 5
 All warmup complete: 2
Channel 0 Bank busy for read cycles: 0
Channel 0 Bank busy for write cycles: 0
Channel 0
Rank 0
0banks busy for read cycles: 348356345
0banks busy for write cycles: 5831
1banks busy for read cycles: 1787043
1banks busy for write cycles: 936299
2banks busy for read cycles: 346635
2banks busy for write cycles: 317129
3banks busy for read cycles: 98122
3banks busy for write cycles: 153908
4banks busy for read cycles: 30994
4banks busy for write cycles: 71239
5banks busy for read cycles: 31647
5banks busy for write cycles: 32495
6banks busy for read cycles: 41518
6banks busy for write cycles: 27488
7banks busy for read cycles: 62268
7banks busy for write cycles: 44327
8banks busy for read cycles: 155764
8banks busy for write cycles: 216200

CPU 0 Branch Prediction Accuracy: 99.9274% MPKI: 0.113335 Average ROB Occupancy at Mispredict: 10.4289
Branch types
NOT_BRANCH: 168787543 84.3938%
BRANCH_DIRECT_JUMP: 1774351 0.887176%
BRANCH_INDIRECT: 11507662 5.75383%
BRANCH_CONDITIONAL: 9680226 4.84011%
BRANCH_DIRECT_CALL: 3347214 1.67361%
BRANCH_INDIRECT_CALL: 777882 0.388941%
BRANCH_RETURN: 4125097 2.06255%
BRANCH_OTHER: 0 0%

DRAM PAGES: 1048576
Allocated PAGES: 2050
