
*** ChampSim Multicore Out-of-Order Simulator ***

Warmup Instructions: 50000000
Simulation Instructions: 200000000
Number of CPUs: 1
LLC sets: 2048
LLC ways: 16
Off-chip DRAM Size: 4096 MB Channels: 1 Width: 64-bit Data Rate: 6400 MT/s
CPU 0 runs traces/spec2k17/server_026.champsimtrace.xz
.xz
BTB has LRU replacement policy
ITLB has LRU replacement policy
DTLB has LRU replacement policy
STLB has LRU replacement policy
L1I has LRU replacement policy
CPU 0 L1D IP-based stride prefetcher
L1D has LRU replacement policy
Initialize SRRIP state for L2C
Initialize DRRIP state for LLC
Heartbeat CPU 0 instructions: 10000003 cycles: 2823582 heartbeat IPC: 3.5416 cumulative IPC: 3.5416 (Simulation time: 0 hr 0 min 42 sec) 
Heartbeat CPU 0 instructions: 20000001 cycles: 5642251 heartbeat IPC: 3.54777 cumulative IPC: 3.54468 (Simulation time: 0 hr 1 min 21 sec) 
Heartbeat CPU 0 instructions: 30000002 cycles: 8459262 heartbeat IPC: 3.54986 cumulative IPC: 3.54641 (Simulation time: 0 hr 2 min 3 sec) 
Heartbeat CPU 0 instructions: 40000001 cycles: 11277498 heartbeat IPC: 3.54832 cumulative IPC: 3.54689 (Simulation time: 0 hr 2 min 43 sec) 
Heartbeat CPU 0 instructions: 50000000 cycles: 14093781 heartbeat IPC: 3.55078 cumulative IPC: 3.54766 (Simulation time: 0 hr 3 min 18 sec) 

Warmup complete CPU 0 instructions: 50000004 cycles: 14093782 (Simulation time: 0 hr 3 min 18 sec) 

Heartbeat CPU 0 instructions: 60000001 cycles: 46257052 heartbeat IPC: 0.310914 cumulative IPC: 0.310914 (Simulation time: 0 hr 4 min 15 sec) 
*** Reached end of trace for Core: 0 Repeating trace: traces/spec2k17/server_026.champsimtrace.xz
Heartbeat CPU 0 instructions: 70000000 cycles: 78269610 heartbeat IPC: 0.312377 cumulative IPC: 0.311644 (Simulation time: 0 hr 5 min 11 sec) 
Heartbeat CPU 0 instructions: 80000000 cycles: 110200410 heartbeat IPC: 0.313177 cumulative IPC: 0.312153 (Simulation time: 0 hr 6 min 10 sec) 
Heartbeat CPU 0 instructions: 90000003 cycles: 142180866 heartbeat IPC: 0.312691 cumulative IPC: 0.312288 (Simulation time: 0 hr 7 min 13 sec) 
Heartbeat CPU 0 instructions: 100000000 cycles: 174235870 heartbeat IPC: 0.311964 cumulative IPC: 0.312223 (Simulation time: 0 hr 8 min 7 sec) 
Heartbeat CPU 0 instructions: 110000000 cycles: 206170055 heartbeat IPC: 0.313144 cumulative IPC: 0.312376 (Simulation time: 0 hr 9 min 2 sec) 
Heartbeat CPU 0 instructions: 120000002 cycles: 238268094 heartbeat IPC: 0.311546 cumulative IPC: 0.312257 (Simulation time: 0 hr 10 min 0 sec) 
*** Reached end of trace for Core: 0 Repeating trace: traces/spec2k17/server_026.champsimtrace.xz
Heartbeat CPU 0 instructions: 130000002 cycles: 270210636 heartbeat IPC: 0.313062 cumulative IPC: 0.312357 (Simulation time: 0 hr 10 min 58 sec) 
Heartbeat CPU 0 instructions: 140000002 cycles: 302152749 heartbeat IPC: 0.313066 cumulative IPC: 0.312436 (Simulation time: 0 hr 11 min 51 sec) 
Heartbeat CPU 0 instructions: 150000001 cycles: 334104330 heartbeat IPC: 0.312974 cumulative IPC: 0.31249 (Simulation time: 0 hr 12 min 40 sec) 
Heartbeat CPU 0 instructions: 160000001 cycles: 366074566 heartbeat IPC: 0.312791 cumulative IPC: 0.312517 (Simulation time: 0 hr 13 min 42 sec) 
Heartbeat CPU 0 instructions: 170000000 cycles: 398106254 heartbeat IPC: 0.312191 cumulative IPC: 0.31249 (Simulation time: 0 hr 14 min 41 sec) 
Heartbeat CPU 0 instructions: 180000003 cycles: 430097834 heartbeat IPC: 0.312582 cumulative IPC: 0.312497 (Simulation time: 0 hr 15 min 31 sec) 
*** Reached end of trace for Core: 0 Repeating trace: traces/spec2k17/server_026.champsimtrace.xz
Heartbeat CPU 0 instructions: 190000000 cycles: 462067323 heartbeat IPC: 0.312798 cumulative IPC: 0.312518 (Simulation time: 0 hr 16 min 27 sec) 
Heartbeat CPU 0 instructions: 200000003 cycles: 493968740 heartbeat IPC: 0.313466 cumulative IPC: 0.312581 (Simulation time: 0 hr 17 min 26 sec) 
Heartbeat CPU 0 instructions: 210000000 cycles: 525912996 heartbeat IPC: 0.313045 cumulative IPC: 0.31261 (Simulation time: 0 hr 18 min 16 sec) 
Heartbeat CPU 0 instructions: 220000000 cycles: 557865328 heartbeat IPC: 0.312966 cumulative IPC: 0.312631 (Simulation time: 0 hr 19 min 11 sec) 
Heartbeat CPU 0 instructions: 230000000 cycles: 589892417 heartbeat IPC: 0.312236 cumulative IPC: 0.312609 (Simulation time: 0 hr 20 min 13 sec) 
Heartbeat CPU 0 instructions: 240000000 cycles: 621826527 heartbeat IPC: 0.313145 cumulative IPC: 0.312637 (Simulation time: 0 hr 21 min 11 sec) 
*** Reached end of trace for Core: 0 Repeating trace: traces/spec2k17/server_026.champsimtrace.xz
Heartbeat CPU 0 instructions: 250000003 cycles: 653839050 heartbeat IPC: 0.312378 cumulative IPC: 0.312624 (Simulation time: 0 hr 22 min 8 sec) 
Finished CPU 0 instructions: 200000003 cycles: 639745269 cumulative IPC: 0.312624 (Simulation time: 0 hr 22 min 8 sec) 

ChampSim completed all CPUs

Region of Interest Statistics

CPU 0 cumulative IPC: 0.312624 instructions: 200000003 cycles: 639745269
ITLB TOTAL     ACCESS:   34751811  HIT:   32740599  MISS:    2011212  HIT %:    94.2126  MISS %:    5.78736   MPKI: 10.0561
ITLB LOAD TRANSLATION ACCESS:   34751811  HIT:   32740599  MISS:    2011212  HIT %:    94.2126  MISS %:    5.78736   MPKI: 10.0561
ITLB PREFETCH  REQUESTED:          0  ISSUED:          0  USEFUL:          0  USELESS:          0
ITLB USEFUL LOAD PREFETCHES:          0 PREFETCH ISSUED TO LOWER LEVEL:          0  ACCURACY: -nan
ITLB TIMELY PREFETCHES:          0 LATE PREFETCHES: 0 DROPPED PREFETCHES: 0
ITLB PREFETCHES SAME FILL-ORIGIN LEVEL: 0 DIFFERENT FILL-ORIGIN LEVEL: 0
ITLB AVERAGE MISS LATENCY: 9.03148 cycles
ITLB RQ	ACCESS:   40933414	FORWARD:          0	MERGED:    5700340	TO_CACHE:   35233074

DTLB TOTAL     ACCESS:   46246279  HIT:   44409826  MISS:    1836453  HIT %:     96.029  MISS %:    3.97103   MPKI: 9.18226
DTLB LOAD TRANSLATION ACCESS:   46246279  HIT:   44409826  MISS:    1836453  HIT %:     96.029  MISS %:    3.97103   MPKI: 9.18226
DTLB PREFETCH  REQUESTED:          0  ISSUED:          0  USEFUL:          0  USELESS:          0
DTLB USEFUL LOAD PREFETCHES:          0 PREFETCH ISSUED TO LOWER LEVEL:          0  ACCURACY: -nan
DTLB TIMELY PREFETCHES:          0 LATE PREFETCHES: 0 DROPPED PREFETCHES: 0
DTLB PREFETCHES SAME FILL-ORIGIN LEVEL: 0 DIFFERENT FILL-ORIGIN LEVEL: 0
DTLB AVERAGE MISS LATENCY: 9.19251 cycles
DTLB RQ	ACCESS:   60863278	FORWARD:          0	MERGED:   14550546	TO_CACHE:   46312732

STLB TOTAL     ACCESS:    4298118  HIT:    4290198  MISS:       7920  HIT %:    99.8157  MISS %:   0.184267   MPKI: 0.0396
STLB LOAD TRANSLATION ACCESS:    3847665  HIT:    3839745  MISS:       7920  HIT %:    99.7942  MISS %:   0.205839   MPKI: 0.0396
STLB TRANSLATION FROM L1D PREFETCHER ACCESS:     450453  HIT:     450453  MISS:          0  HIT %:        100  MISS %:          0   MPKI: 0
STLB PREFETCH  REQUESTED:          0  ISSUED:          0  USEFUL:          0  USELESS:          0
STLB USEFUL LOAD PREFETCHES:          0 PREFETCH ISSUED TO LOWER LEVEL:          0  ACCURACY: -nan
STLB TIMELY PREFETCHES:          0 LATE PREFETCHES: 0 DROPPED PREFETCHES: 0
STLB PREFETCHES SAME FILL-ORIGIN LEVEL: 0 DIFFERENT FILL-ORIGIN LEVEL: 0
STLB AVERAGE MISS LATENCY: 49.4706 cycles
STLB RQ	ACCESS:    5213798	FORWARD:          0	MERGED:     915680	TO_CACHE:    4298118

STLB Hit, L1D data hit: 0
STLB Hit, L2C data hit: 0
STLB Hit, LLC data hit: 0
STLB Hit, LLC data miss: 0
STLB STLB hints to L2: 0
L1D TOTAL     ACCESS:   60165301  HIT:   55945578  MISS:    4219723  HIT %:    92.9865  MISS %:    7.01355   MPKI: 21.0986
L1D LOAD      ACCESS:   34165651  HIT:   31302944  MISS:    2862707  HIT %:    91.6211  MISS %:     8.3789   MPKI: 14.3135
L1D RFO       ACCESS:   24818721  HIT:   23682662  MISS:    1136059  HIT %:    95.4226  MISS %:    4.57743   MPKI: 5.68029
L1D PREFETCH  ACCESS:    1180929  HIT:     959972  MISS:     220957  HIT %:    81.2896  MISS %:    18.7104   MPKI: 1.10478
AGUS PREFETCH L1 MISS: 0
L1D PREFETCH  REQUESTED:    3027442  ISSUED:    3027442  USEFUL:     124104  USELESS:      96856
L1D USEFUL LOAD PREFETCHES:     124104 PREFETCH ISSUED TO LOWER LEVEL:     314147  ACCURACY: 39.5051
L1D TIMELY PREFETCHES:     124104 LATE PREFETCHES: 54603 DROPPED PREFETCHES: 0
L1D PREFETCHES SAME FILL-ORIGIN LEVEL: 275561 DIFFERENT FILL-ORIGIN LEVEL: 38586
L1D AVERAGE MISS LATENCY: 4.31479e+06 cycles
L1D RQ	ACCESS:   47411916	FORWARD:          0	MERGED:   12849051	TO_CACHE:   34266313
L1D WQ	ACCESS:   26764780	FORWARD:     296553	MERGED:     167815	TO_CACHE:   26596965
L1D PQ	ACCESS:    1661309	FORWARD:          0	MERGED:     295175	TO_CACHE:    1366133

L1D UNIQUE REGIONS ACCESSED: 0
L1D REGIONS CONFLICTS: 0
L1D Cross Page Prefetch Requests: 0
L1D Same Page Prefetch Requests: 2030384
L1D ROI Sum of L1D PQ occupancy: 18186865
L1D PREFETCHES PUSHED FROM L2C: 0
L1I TOTAL     ACCESS:   39436141  HIT:   28908401  MISS:   10527740  HIT %:    73.3043  MISS %:    26.6957   MPKI: 52.6387
L1I LOAD      ACCESS:   39436141  HIT:   28908401  MISS:   10527740  HIT %:    73.3043  MISS %:    26.6957   MPKI: 52.6387
L1I PREFETCH  REQUESTED:          0  ISSUED:          0  USEFUL:          0  USELESS:          0
L1I USEFUL LOAD PREFETCHES:          0 PREFETCH ISSUED TO LOWER LEVEL:          0  ACCURACY: -nan
L1I TIMELY PREFETCHES:          0 LATE PREFETCHES: 0 DROPPED PREFETCHES: 0
L1I PREFETCHES SAME FILL-ORIGIN LEVEL: 0 DIFFERENT FILL-ORIGIN LEVEL: 0
L1I AVERAGE MISS LATENCY: 16.5874 cycles
L1I RQ	ACCESS:   57885834	FORWARD:          0	MERGED:   16952420	TO_CACHE:   40933414

BTB TOTAL     ACCESS:   29988874  HIT:   17348498  MISS:   12640376  HIT %:    57.8498  MISS %:    42.1502   MPKI: 63.2019
BTB BRANCH_DIRECT_JUMP	ACCESS:    2009045  HIT:    1127352  MISS:     881693
BTB BRANCH_INDIRECT	ACCESS:   11800645  HIT:    6994352  MISS:    4806293
BTB BRANCH_CONDITIONAL	ACCESS:    7683211  HIT:    6358422  MISS:    1324789
BTB BRANCH_DIRECT_CALL	ACCESS:    3580652  HIT:    1498236  MISS:    2082416
BTB BRANCH_INDIRECT_CALL	ACCESS:     667350  HIT:     263513  MISS:     403837
BTB BRANCH_RETURN	ACCESS:    4247971  HIT:    1106623  MISS:    3141348
BTB BRANCH_OTHER ACCESS:          0  HIT:          0  MISS:          0

L2C TOTAL     ACCESS:   16765190  HIT:   15220408  MISS:    1544782  HIT %:    90.7858  MISS %:    9.21422   MPKI: 7.72391
L2C LOAD      ACCESS:   13335844  HIT:   12149595  MISS:    1186249  HIT %:    91.1048  MISS %:    8.89519   MPKI: 5.93124
L2C DATA LOAD MPKI: 1.57107
L2C INSTRUCTION LOAD MPKI: 4.36017
L2C RFO       ACCESS:    1136053  HIT:     933197  MISS:     202856  HIT %:    82.1438  MISS %:    17.8562   MPKI: 1.01428
L2C PREFETCH  ACCESS:     295724  HIT:     200876  MISS:      94848  HIT %:    67.9269  MISS %:    32.0731   MPKI: 0.47424
AGUS PREFETCH L1 MISS: 0
L2C DATA PREFETCH MPKI: 0.47424
L2C INSTRUCTION PREFETCH MPKI: 0
L2C WRITEBACK ACCESS:    1989219  HIT:    1934095  MISS:      55124  HIT %:    97.2289  MISS %:    2.77114   MPKI: 0.27562
L2C LOAD TRANSLATION ACCESS:       8350  HIT:       2645  MISS:       5705  HIT %:    31.6766  MISS %:    68.3234   MPKI: 0.028525
L2C PREFETCH  REQUESTED:          0  ISSUED:          0  USEFUL:       8028  USELESS:      86837
L2C USEFUL LOAD PREFETCHES:       8028 PREFETCH ISSUED TO LOWER LEVEL:     100322  ACCURACY: 8.00223
L2C TIMELY PREFETCHES:       8028 LATE PREFETCHES: 5474 DROPPED PREFETCHES: 0
L2C PREFETCHES SAME FILL-ORIGIN LEVEL: 18690 DIFFERENT FILL-ORIGIN LEVEL: 0
L2C AVERAGE MISS LATENCY: 36.2226 cycles
L2C RQ	ACCESS:   14480252	FORWARD:          0	MERGED:          0	TO_CACHE:   14480247
L2C WQ	ACCESS:    1989219	FORWARD:          6	MERGED:          0	TO_CACHE:    1989219
L2C PQ	ACCESS:     314147	FORWARD:          0	MERGED:          7	TO_CACHE:     314139

L2C Instructions Evicting Data 331449
L2C Translations Evicting Data 4099
L2C Data Evicting Data 308263
L2C Instructions Evicting Instructions 539106
L2C Translations Evicting Instructions 1366
L2C Data Evicting Instructions 299735
L2C Instructions Evicting Translations 1480
L2C Translations Evicting Translations 240
L2C Data Evicting Translations 3920
L2C Dense regions hint from L2: 0
PSCL5 TOTAL     ACCESS:       7920  HIT:       7920  MISS:          0  HIT %:        100  MISS %:          0   MPKI: 0
PSCL5 LOAD TRANSLATION ACCESS:       7920  HIT:       7920  MISS:          0  HIT %:        100  MISS %:          0   MPKI: 0
PSCL5 PREFETCH  REQUESTED:          0  ISSUED:          0  USEFUL:          0  USELESS:          0
PSCL5 USEFUL LOAD PREFETCHES:          0 PREFETCH ISSUED TO LOWER LEVEL:          0  ACCURACY: -nan
PSCL5 TIMELY PREFETCHES:          0 LATE PREFETCHES: 0 DROPPED PREFETCHES: 0
PSCL5 PREFETCHES SAME FILL-ORIGIN LEVEL: 0 DIFFERENT FILL-ORIGIN LEVEL: 0

PSCL4 TOTAL     ACCESS:       7668  HIT:       7648  MISS:         20  HIT %:    99.7392  MISS %:   0.260824   MPKI: 0.0001
PSCL4 LOAD TRANSLATION ACCESS:       7668  HIT:       7648  MISS:         20  HIT %:    99.7392  MISS %:   0.260824   MPKI: 0.0001
PSCL4 PREFETCH  REQUESTED:          0  ISSUED:          0  USEFUL:          0  USELESS:          0
PSCL4 USEFUL LOAD PREFETCHES:          0 PREFETCH ISSUED TO LOWER LEVEL:          0  ACCURACY: -nan
PSCL4 TIMELY PREFETCHES:          0 LATE PREFETCHES: 0 DROPPED PREFETCHES: 0
PSCL4 PREFETCHES SAME FILL-ORIGIN LEVEL: 0 DIFFERENT FILL-ORIGIN LEVEL: 0

PSCL3 TOTAL     ACCESS:       7797  HIT:       7777  MISS:         20  HIT %:    99.7435  MISS %:   0.256509   MPKI: 0.0001
PSCL3 LOAD TRANSLATION ACCESS:       7797  HIT:       7777  MISS:         20  HIT %:    99.7435  MISS %:   0.256509   MPKI: 0.0001
PSCL3 PREFETCH  REQUESTED:          0  ISSUED:          0  USEFUL:          0  USELESS:          0
PSCL3 USEFUL LOAD PREFETCHES:          0 PREFETCH ISSUED TO LOWER LEVEL:          0  ACCURACY: -nan
PSCL3 TIMELY PREFETCHES:          0 LATE PREFETCHES: 0 DROPPED PREFETCHES: 0
PSCL3 PREFETCHES SAME FILL-ORIGIN LEVEL: 0 DIFFERENT FILL-ORIGIN LEVEL: 0

PSCL2 TOTAL     ACCESS:       7920  HIT:       7529  MISS:        391  HIT %:    95.0631  MISS %:    4.93687   MPKI: 0.001955
PSCL2 LOAD TRANSLATION ACCESS:       7920  HIT:       7529  MISS:        391  HIT %:    95.0631  MISS %:    4.93687   MPKI: 0.001955
PSCL2 PREFETCH  REQUESTED:          0  ISSUED:          0  USEFUL:          0  USELESS:          0
PSCL2 USEFUL LOAD PREFETCHES:          0 PREFETCH ISSUED TO LOWER LEVEL:          0  ACCURACY: -nan
PSCL2 TIMELY PREFETCHES:          0 LATE PREFETCHES: 0 DROPPED PREFETCHES: 0
PSCL2 PREFETCHES SAME FILL-ORIGIN LEVEL: 0 DIFFERENT FILL-ORIGIN LEVEL: 0

LLC TOTAL     ACCESS:    1755574  HIT:    1686008  MISS:      69566  HIT %:    96.0374  MISS %:    3.96258   MPKI: 0.34783
LLC LOAD      ACCESS:    1180775  HIT:    1165027  MISS:      15748  HIT %:    98.6663  MISS %:     1.3337   MPKI: 0.07874
LLC RFO       ACCESS:     202856  HIT:     169896  MISS:      32960  HIT %:     83.752  MISS %:     16.248   MPKI: 0.1648
LLC PREFETCH  ACCESS:     100322  HIT:      80339  MISS:      19983  HIT %:    80.0811  MISS %:    19.9189   MPKI: 0.099915
AGUS PREFETCH L1 MISS: 0
LLC WRITEBACK ACCESS:     265916  HIT:     265319  MISS:        597  HIT %:    99.7755  MISS %:   0.224507   MPKI: 0.002985
LLC LOAD TRANSLATION ACCESS:       5705  HIT:       5427  MISS:        278  HIT %:    95.1271  MISS %:    4.87292   MPKI: 0.00139
LLC PREFETCH  REQUESTED:          0  ISSUED:          0  USEFUL:       1854  USELESS:      19001
LLC USEFUL LOAD PREFETCHES:       1854 PREFETCH ISSUED TO LOWER LEVEL:      19983  ACCURACY: 9.27789
LLC TIMELY PREFETCHES:       1854 LATE PREFETCHES: 0 DROPPED PREFETCHES: 0
LLC PREFETCHES SAME FILL-ORIGIN LEVEL: 0 DIFFERENT FILL-ORIGIN LEVEL: 0
LLC AVERAGE MISS LATENCY: 164.488 cycles
LLC RQ	ACCESS:    1389336	FORWARD:          0	MERGED:          0	TO_CACHE:    1389336
LLC WQ	ACCESS:     265916	FORWARD:          0	MERGED:          0	TO_CACHE:     265916
LLC PQ	ACCESS:     100322	FORWARD:          0	MERGED:          0	TO_CACHE:     100322

LLC Dense regions hint to LLC: 0

RAW hits: 1418705
Loads Generated: 48830621
Loads sent to L1D: 47411916
Stores Generated: 26764752
Stores sent to L1D: 26764780
Major fault: 0 Minor fault: 2264
Allocated PAGES: 2264
CPU 0 L1D PC-based stride prefetcher final stats
Degree: 3

DRAM Statistics
 CHANNEL 0
 RQ ROW_BUFFER_HIT:      26149  ROW_BUFFER_MISS:      42790
 DBUS_CONGESTED:         45
 WQ ROW_BUFFER_HIT:       3354  ROW_BUFFER_MISS:      31636  FULL:          0

 AVG_CONGESTED_CYCLE: 5
 All warmup complete: 2
Channel 0 Bank busy for read cycles: 0
Channel 0 Bank busy for write cycles: 0
Channel 0
Rank 0
0banks busy for read cycles: 634232434
0banks busy for write cycles: 9542
1banks busy for read cycles: 1980666
1banks busy for write cycles: 1144487
2banks busy for read cycles: 459238
2banks busy for write cycles: 278471
3banks busy for read cycles: 280181
3banks busy for write cycles: 129447
4banks busy for read cycles: 152080
4banks busy for write cycles: 94100
5banks busy for read cycles: 114826
5banks busy for write cycles: 78874
6banks busy for read cycles: 109525
6banks busy for write cycles: 70862
7banks busy for read cycles: 110855
7banks busy for write cycles: 82616
8banks busy for read cycles: 177573
8banks busy for write cycles: 239493

CPU 0 Branch Prediction Accuracy: 99.8683% MPKI: 0.231785 Average ROB Occupancy at Mispredict: 31.987
Branch types
NOT_BRANCH: 164806485 82.4032%
BRANCH_DIRECT_JUMP: 2009045 1.00452%
BRANCH_INDIRECT: 11800645 5.90032%
BRANCH_CONDITIONAL: 12887718 6.44386%
BRANCH_DIRECT_CALL: 3580652 1.79033%
BRANCH_INDIRECT_CALL: 667350 0.333675%
BRANCH_RETURN: 4247971 2.12399%
BRANCH_OTHER: 0 0%

DRAM PAGES: 1048576
Allocated PAGES: 2264
