
*** ChampSim Multicore Out-of-Order Simulator ***

Warmup Instructions: 50000000
Simulation Instructions: 200000000
Number of CPUs: 1
LLC sets: 2048
LLC ways: 16
Off-chip DRAM Size: 4096 MB Channels: 1 Width: 64-bit Data Rate: 6400 MT/s
CPU 0 runs traces/spec2k17/server_030.champsimtrace.xz
.xz
BTB has LRU replacement policy
ITLB has LRU replacement policy
DTLB has LRU replacement policy
STLB has LRU replacement policy
L1I has LRU replacement policy
CPU 0 L1D IP-based stride prefetcher
L1D has LRU replacement policy
Initialize SRRIP state for L2C
Initialize DRRIP state for LLC
Heartbeat CPU 0 instructions: 10000003 cycles: 2857142 heartbeat IPC: 3.5 cumulative IPC: 3.5 (Simulation time: 0 hr 0 min 34 sec) 
Heartbeat CPU 0 instructions: 20000001 cycles: 5704008 heartbeat IPC: 3.51263 cumulative IPC: 3.50631 (Simulation time: 0 hr 1 min 9 sec) 
Heartbeat CPU 0 instructions: 30000002 cycles: 8552069 heartbeat IPC: 3.51116 cumulative IPC: 3.50792 (Simulation time: 0 hr 1 min 36 sec) 
Heartbeat CPU 0 instructions: 40000002 cycles: 11399810 heartbeat IPC: 3.51156 cumulative IPC: 3.50883 (Simulation time: 0 hr 2 min 10 sec) 
Heartbeat CPU 0 instructions: 50000000 cycles: 14248082 heartbeat IPC: 3.5109 cumulative IPC: 3.50924 (Simulation time: 0 hr 2 min 45 sec) 

Warmup complete CPU 0 instructions: 50000004 cycles: 14248083 (Simulation time: 0 hr 2 min 45 sec) 

Heartbeat CPU 0 instructions: 60000001 cycles: 47043214 heartbeat IPC: 0.304923 cumulative IPC: 0.304923 (Simulation time: 0 hr 3 min 37 sec) 
Heartbeat CPU 0 instructions: 70000000 cycles: 79676829 heartbeat IPC: 0.306432 cumulative IPC: 0.305676 (Simulation time: 0 hr 4 min 31 sec) 
Heartbeat CPU 0 instructions: 80000000 cycles: 112396986 heartbeat IPC: 0.305622 cumulative IPC: 0.305658 (Simulation time: 0 hr 5 min 30 sec) 
*** Reached end of trace for Core: 0 Repeating trace: traces/spec2k17/server_030.champsimtrace.xz
Heartbeat CPU 0 instructions: 90000000 cycles: 145014174 heartbeat IPC: 0.306587 cumulative IPC: 0.30589 (Simulation time: 0 hr 6 min 26 sec) 
Heartbeat CPU 0 instructions: 100000003 cycles: 177779609 heartbeat IPC: 0.3052 cumulative IPC: 0.305751 (Simulation time: 0 hr 7 min 18 sec) 
Heartbeat CPU 0 instructions: 110000000 cycles: 210410047 heartbeat IPC: 0.306462 cumulative IPC: 0.30587 (Simulation time: 0 hr 8 min 13 sec) 
Heartbeat CPU 0 instructions: 120000002 cycles: 243153857 heartbeat IPC: 0.305401 cumulative IPC: 0.305803 (Simulation time: 0 hr 9 min 10 sec) 
Heartbeat CPU 0 instructions: 130000003 cycles: 275859841 heartbeat IPC: 0.305754 cumulative IPC: 0.305797 (Simulation time: 0 hr 10 min 3 sec) 
Heartbeat CPU 0 instructions: 140000002 cycles: 308595594 heartbeat IPC: 0.305476 cumulative IPC: 0.305761 (Simulation time: 0 hr 10 min 57 sec) 
Heartbeat CPU 0 instructions: 150000002 cycles: 341269150 heartbeat IPC: 0.306058 cumulative IPC: 0.305791 (Simulation time: 0 hr 11 min 49 sec) 
Heartbeat CPU 0 instructions: 160000000 cycles: 373843327 heartbeat IPC: 0.306992 cumulative IPC: 0.305899 (Simulation time: 0 hr 12 min 48 sec) 
Heartbeat CPU 0 instructions: 170000000 cycles: 406463516 heartbeat IPC: 0.306559 cumulative IPC: 0.305954 (Simulation time: 0 hr 13 min 42 sec) 
*** Reached end of trace for Core: 0 Repeating trace: traces/spec2k17/server_030.champsimtrace.xz
Heartbeat CPU 0 instructions: 180000003 cycles: 439008473 heartbeat IPC: 0.307267 cumulative IPC: 0.306055 (Simulation time: 0 hr 14 min 35 sec) 
Heartbeat CPU 0 instructions: 190000002 cycles: 471765767 heartbeat IPC: 0.305275 cumulative IPC: 0.305999 (Simulation time: 0 hr 15 min 35 sec) 
Heartbeat CPU 0 instructions: 200000000 cycles: 504369168 heartbeat IPC: 0.306716 cumulative IPC: 0.306047 (Simulation time: 0 hr 16 min 30 sec) 
Heartbeat CPU 0 instructions: 210000000 cycles: 537070520 heartbeat IPC: 0.305798 cumulative IPC: 0.306031 (Simulation time: 0 hr 17 min 23 sec) 
Heartbeat CPU 0 instructions: 220000000 cycles: 569768369 heartbeat IPC: 0.305831 cumulative IPC: 0.306019 (Simulation time: 0 hr 18 min 23 sec) 
Heartbeat CPU 0 instructions: 230000000 cycles: 602468444 heartbeat IPC: 0.30581 cumulative IPC: 0.306008 (Simulation time: 0 hr 19 min 23 sec) 
Heartbeat CPU 0 instructions: 240000002 cycles: 635099721 heartbeat IPC: 0.306455 cumulative IPC: 0.306031 (Simulation time: 0 hr 20 min 15 sec) 
Heartbeat CPU 0 instructions: 250000000 cycles: 667650108 heartbeat IPC: 0.307216 cumulative IPC: 0.30609 (Simulation time: 0 hr 21 min 13 sec) 
Finished CPU 0 instructions: 200000000 cycles: 653402026 cumulative IPC: 0.30609 (Simulation time: 0 hr 21 min 13 sec) 

ChampSim completed all CPUs

Region of Interest Statistics

CPU 0 cumulative IPC: 0.30609 instructions: 200000000 cycles: 653402026
ITLB TOTAL     ACCESS:   35745284  HIT:   33517558  MISS:    2227726  HIT %:    93.7678  MISS %:    6.23222   MPKI: 11.1386
ITLB LOAD TRANSLATION ACCESS:   35745284  HIT:   33517558  MISS:    2227726  HIT %:    93.7678  MISS %:    6.23222   MPKI: 11.1386
ITLB PREFETCH  REQUESTED:          0  ISSUED:          0  USEFUL:          0  USELESS:          0
ITLB USEFUL LOAD PREFETCHES:          0 PREFETCH ISSUED TO LOWER LEVEL:          0  ACCURACY: -nan
ITLB TIMELY PREFETCHES:          0 LATE PREFETCHES: 0 DROPPED PREFETCHES: 0
ITLB PREFETCHES SAME FILL-ORIGIN LEVEL: 0 DIFFERENT FILL-ORIGIN LEVEL: 0
ITLB AVERAGE MISS LATENCY: 9.14779 cycles
ITLB RQ	ACCESS:   41987808	FORWARD:          0	MERGED:    5718004	TO_CACHE:   36269804

DTLB TOTAL     ACCESS:   45638061  HIT:   43610921  MISS:    2027140  HIT %:    95.5582  MISS %:    4.44178   MPKI: 10.1357
DTLB LOAD TRANSLATION ACCESS:   45638061  HIT:   43610921  MISS:    2027140  HIT %:    95.5582  MISS %:    4.44178   MPKI: 10.1357
DTLB PREFETCH  REQUESTED:          0  ISSUED:          0  USEFUL:          0  USELESS:          0
DTLB USEFUL LOAD PREFETCHES:          0 PREFETCH ISSUED TO LOWER LEVEL:          0  ACCURACY: -nan
DTLB TIMELY PREFETCHES:          0 LATE PREFETCHES: 0 DROPPED PREFETCHES: 0
DTLB PREFETCHES SAME FILL-ORIGIN LEVEL: 0 DIFFERENT FILL-ORIGIN LEVEL: 0
DTLB AVERAGE MISS LATENCY: 9.25116 cycles
DTLB RQ	ACCESS:   60372092	FORWARD:          0	MERGED:   14670101	TO_CACHE:   45701991

STLB TOTAL     ACCESS:    4851522  HIT:    4822509  MISS:      29013  HIT %:     99.402  MISS %:   0.598019   MPKI: 0.145065
STLB LOAD TRANSLATION ACCESS:    4254866  HIT:    4225853  MISS:      29013  HIT %:    99.3181  MISS %:   0.681878   MPKI: 0.145065
STLB TRANSLATION FROM L1D PREFETCHER ACCESS:     596656  HIT:     596656  MISS:          0  HIT %:        100  MISS %:          0   MPKI: 0
STLB PREFETCH  REQUESTED:          0  ISSUED:          0  USEFUL:          0  USELESS:          0
STLB USEFUL LOAD PREFETCHES:          0 PREFETCH ISSUED TO LOWER LEVEL:          0  ACCURACY: -nan
STLB TIMELY PREFETCHES:          0 LATE PREFETCHES: 0 DROPPED PREFETCHES: 0
STLB PREFETCHES SAME FILL-ORIGIN LEVEL: 0 DIFFERENT FILL-ORIGIN LEVEL: 0
STLB AVERAGE MISS LATENCY: 27.906 cycles
STLB RQ	ACCESS:    6038661	FORWARD:          0	MERGED:    1187139	TO_CACHE:    4851522

STLB Hit, L1D data hit: 0
STLB Hit, L2C data hit: 0
STLB Hit, LLC data hit: 0
STLB Hit, LLC data miss: 0
STLB STLB hints to L2: 0
L1D TOTAL     ACCESS:   60073720  HIT:   54318705  MISS:    5755015  HIT %:    90.4201  MISS %:    9.57992   MPKI: 28.7751
L1D LOAD      ACCESS:   33955761  HIT:   29882795  MISS:    4072966  HIT %:    88.0051  MISS %:    11.9949   MPKI: 20.3648
L1D RFO       ACCESS:   24534287  HIT:   23331556  MISS:    1202731  HIT %:    95.0978  MISS %:    4.90225   MPKI: 6.01365
L1D PREFETCH  ACCESS:    1583672  HIT:    1104354  MISS:     479318  HIT %:    69.7338  MISS %:    30.2662   MPKI: 2.39659
AGUS PREFETCH L1 MISS: 0
L1D PREFETCH  REQUESTED:    3836365  ISSUED:    3836365  USEFUL:     385602  USELESS:      93683
L1D USEFUL LOAD PREFETCHES:     385602 PREFETCH ISSUED TO LOWER LEVEL:     565433  ACCURACY: 68.1959
L1D TIMELY PREFETCHES:     385602 LATE PREFETCHES: 74599 DROPPED PREFETCHES: 0
L1D PREFETCHES SAME FILL-ORIGIN LEVEL: 553917 DIFFERENT FILL-ORIGIN LEVEL: 11516
L1D AVERAGE MISS LATENCY: 4.47543e+06 cycles
L1D RQ	ACCESS:   46397037	FORWARD:          0	MERGED:   12016315	TO_CACHE:   34067455
L1D WQ	ACCESS:   26448215	FORWARD:     313268	MERGED:     143578	TO_CACHE:   26304637
L1D PQ	ACCESS:    2052570	FORWARD:          0	MERGED:     268774	TO_CACHE:    1783795

L1D UNIQUE REGIONS ACCESSED: 0
L1D REGIONS CONFLICTS: 0
L1D Cross Page Prefetch Requests: 0
L1D Same Page Prefetch Requests: 2319509
L1D ROI Sum of L1D PQ occupancy: 23621055
L1D PREFETCHES PUSHED FROM L2C: 0
L1I TOTAL     ACCESS:   40329342  HIT:   29008727  MISS:   11320615  HIT %:    71.9296  MISS %:    28.0704   MPKI: 56.6031
L1I LOAD      ACCESS:   40329342  HIT:   29008727  MISS:   11320615  HIT %:    71.9296  MISS %:    28.0704   MPKI: 56.6031
L1I PREFETCH  REQUESTED:          0  ISSUED:          0  USEFUL:          0  USELESS:          0
L1I USEFUL LOAD PREFETCHES:          0 PREFETCH ISSUED TO LOWER LEVEL:          0  ACCURACY: -nan
L1I TIMELY PREFETCHES:          0 LATE PREFETCHES: 0 DROPPED PREFETCHES: 0
L1I PREFETCHES SAME FILL-ORIGIN LEVEL: 0 DIFFERENT FILL-ORIGIN LEVEL: 0
L1I AVERAGE MISS LATENCY: 15.9883 cycles
L1I RQ	ACCESS:   58184241	FORWARD:          0	MERGED:   16196433	TO_CACHE:   41987808

BTB TOTAL     ACCESS:   30343388  HIT:   17609551  MISS:   12733837  HIT %:    58.0342  MISS %:    41.9658   MPKI: 63.6692
BTB BRANCH_DIRECT_JUMP	ACCESS:    1883728  HIT:    1042713  MISS:     841015
BTB BRANCH_INDIRECT	ACCESS:   11966225  HIT:    7097112  MISS:    4869113
BTB BRANCH_CONDITIONAL	ACCESS:    7323945  HIT:    6018928  MISS:    1305017
BTB BRANCH_DIRECT_CALL	ACCESS:    3854734  HIT:    1768910  MISS:    2085824
BTB BRANCH_INDIRECT_CALL	ACCESS:     730020  HIT:     347975  MISS:     382045
BTB BRANCH_RETURN	ACCESS:    4584736  HIT:    1333913  MISS:    3250823
BTB BRANCH_OTHER ACCESS:          0  HIT:          0  MISS:          0

L2C TOTAL     ACCESS:   19419814  HIT:   18232092  MISS:    1187722  HIT %:     93.884  MISS %:    6.11603   MPKI: 5.93861
L2C LOAD      ACCESS:   15318979  HIT:   14342802  MISS:     976177  HIT %:    93.6277  MISS %:    6.37234   MPKI: 4.88089
L2C DATA LOAD MPKI: 1.28475
L2C INSTRUCTION LOAD MPKI: 3.59614
L2C RFO       ACCESS:    1202731  HIT:    1115390  MISS:      87341  HIT %:    92.7381  MISS %:    7.26189   MPKI: 0.436705
L2C PREFETCH  ACCESS:     556967  HIT:     472385  MISS:      84582  HIT %:    84.8138  MISS %:    15.1862   MPKI: 0.42291
AGUS PREFETCH L1 MISS: 0
L2C DATA PREFETCH MPKI: 0.42291
L2C INSTRUCTION PREFETCH MPKI: 0
L2C WRITEBACK ACCESS:    2311002  HIT:    2278605  MISS:      32397  HIT %:    98.5981  MISS %:    1.40186   MPKI: 0.161985
L2C LOAD TRANSLATION ACCESS:      30135  HIT:      22910  MISS:       7225  HIT %:    76.0246  MISS %:    23.9754   MPKI: 0.036125
L2C PREFETCH  REQUESTED:          0  ISSUED:          0  USEFUL:       1888  USELESS:      82616
L2C USEFUL LOAD PREFETCHES:       1888 PREFETCH ISSUED TO LOWER LEVEL:      86416  ACCURACY: 2.18478
L2C TIMELY PREFETCHES:       1888 LATE PREFETCHES: 1834 DROPPED PREFETCHES: 0
L2C PREFETCHES SAME FILL-ORIGIN LEVEL: 5267 DIFFERENT FILL-ORIGIN LEVEL: 0
L2C AVERAGE MISS LATENCY: 31.7594 cycles
L2C RQ	ACCESS:   16551847	FORWARD:          0	MERGED:          0	TO_CACHE:   16551845
L2C WQ	ACCESS:    2311002	FORWARD:       1178	MERGED:          0	TO_CACHE:    2311002
L2C PQ	ACCESS:     565433	FORWARD:          0	MERGED:          1	TO_CACHE:     564256

L2C Instructions Evicting Data 253649
L2C Translations Evicting Data 4443
L2C Data Evicting Data 193234
L2C Instructions Evicting Instructions 462782
L2C Translations Evicting Instructions 2567
L2C Data Evicting Instructions 231535
L2C Instructions Evicting Translations 2797
L2C Translations Evicting Translations 215
L2C Data Evicting Translations 4103
L2C Dense regions hint from L2: 0
PSCL5 TOTAL     ACCESS:      29013  HIT:      29013  MISS:          0  HIT %:        100  MISS %:          0   MPKI: 0
PSCL5 LOAD TRANSLATION ACCESS:      29013  HIT:      29013  MISS:          0  HIT %:        100  MISS %:          0   MPKI: 0
PSCL5 PREFETCH  REQUESTED:          0  ISSUED:          0  USEFUL:          0  USELESS:          0
PSCL5 USEFUL LOAD PREFETCHES:          0 PREFETCH ISSUED TO LOWER LEVEL:          0  ACCURACY: -nan
PSCL5 TIMELY PREFETCHES:          0 LATE PREFETCHES: 0 DROPPED PREFETCHES: 0
PSCL5 PREFETCHES SAME FILL-ORIGIN LEVEL: 0 DIFFERENT FILL-ORIGIN LEVEL: 0

PSCL4 TOTAL     ACCESS:      21933  HIT:      21878  MISS:         55  HIT %:    99.7492  MISS %:   0.250764   MPKI: 0.000275
PSCL4 LOAD TRANSLATION ACCESS:      21933  HIT:      21878  MISS:         55  HIT %:    99.7492  MISS %:   0.250764   MPKI: 0.000275
PSCL4 PREFETCH  REQUESTED:          0  ISSUED:          0  USEFUL:          0  USELESS:          0
PSCL4 USEFUL LOAD PREFETCHES:          0 PREFETCH ISSUED TO LOWER LEVEL:          0  ACCURACY: -nan
PSCL4 TIMELY PREFETCHES:          0 LATE PREFETCHES: 0 DROPPED PREFETCHES: 0
PSCL4 PREFETCHES SAME FILL-ORIGIN LEVEL: 0 DIFFERENT FILL-ORIGIN LEVEL: 0

PSCL3 TOTAL     ACCESS:      28114  HIT:      28041  MISS:         73  HIT %:    99.7403  MISS %:   0.259657   MPKI: 0.000365
PSCL3 LOAD TRANSLATION ACCESS:      28114  HIT:      28041  MISS:         73  HIT %:    99.7403  MISS %:   0.259657   MPKI: 0.000365
PSCL3 PREFETCH  REQUESTED:          0  ISSUED:          0  USEFUL:          0  USELESS:          0
PSCL3 USEFUL LOAD PREFETCHES:          0 PREFETCH ISSUED TO LOWER LEVEL:          0  ACCURACY: -nan
PSCL3 TIMELY PREFETCHES:          0 LATE PREFETCHES: 0 DROPPED PREFETCHES: 0
PSCL3 PREFETCHES SAME FILL-ORIGIN LEVEL: 0 DIFFERENT FILL-ORIGIN LEVEL: 0

PSCL2 TOTAL     ACCESS:      29013  HIT:      28019  MISS:        994  HIT %:    96.5739  MISS %:    3.42605   MPKI: 0.00497
PSCL2 LOAD TRANSLATION ACCESS:      29013  HIT:      28019  MISS:        994  HIT %:    96.5739  MISS %:    3.42605   MPKI: 0.00497
PSCL2 PREFETCH  REQUESTED:          0  ISSUED:          0  USEFUL:          0  USELESS:          0
PSCL2 USEFUL LOAD PREFETCHES:          0 PREFETCH ISSUED TO LOWER LEVEL:          0  ACCURACY: -nan
PSCL2 TIMELY PREFETCHES:          0 LATE PREFETCHES: 0 DROPPED PREFETCHES: 0
PSCL2 PREFETCHES SAME FILL-ORIGIN LEVEL: 0 DIFFERENT FILL-ORIGIN LEVEL: 0

LLC TOTAL     ACCESS:    1277562  HIT:    1254953  MISS:      22609  HIT %:    98.2303  MISS %:     1.7697   MPKI: 0.113045
LLC LOAD      ACCESS:     974343  HIT:     965268  MISS:       9075  HIT %:    99.0686  MISS %:   0.931397   MPKI: 0.045375
LLC RFO       ACCESS:      87337  HIT:      83002  MISS:       4335  HIT %:    95.0365  MISS %:    4.96353   MPKI: 0.021675
LLC PREFETCH  ACCESS:      86416  HIT:      77432  MISS:       8984  HIT %:    89.6038  MISS %:    10.3962   MPKI: 0.04492
AGUS PREFETCH L1 MISS: 0
LLC WRITEBACK ACCESS:     122241  HIT:     122087  MISS:        154  HIT %:     99.874  MISS %:   0.125981   MPKI: 0.00077
LLC LOAD TRANSLATION ACCESS:       7225  HIT:       7164  MISS:         61  HIT %:    99.1557  MISS %:   0.844291   MPKI: 0.000305
LLC PREFETCH  REQUESTED:          0  ISSUED:          0  USEFUL:       1823  USELESS:       6516
LLC USEFUL LOAD PREFETCHES:       1823 PREFETCH ISSUED TO LOWER LEVEL:       8984  ACCURACY: 20.2916
LLC TIMELY PREFETCHES:       1823 LATE PREFETCHES: 0 DROPPED PREFETCHES: 0
LLC PREFETCHES SAME FILL-ORIGIN LEVEL: 0 DIFFERENT FILL-ORIGIN LEVEL: 0
LLC AVERAGE MISS LATENCY: 138.915 cycles
LLC RQ	ACCESS:    1068909	FORWARD:          0	MERGED:          0	TO_CACHE:    1068905
LLC WQ	ACCESS:     122241	FORWARD:          4	MERGED:          0	TO_CACHE:     122241
LLC PQ	ACCESS:      86416	FORWARD:          0	MERGED:          0	TO_CACHE:      86416

LLC Dense regions hint to LLC: 0

RAW hits: 1449218
Loads Generated: 47846257
Loads sent to L1D: 46397037
Stores Generated: 26448220
Stores sent to L1D: 26448215
Major fault: 0 Minor fault: 2136
Allocated PAGES: 2136
CPU 0 L1D PC-based stride prefetcher final stats
Degree: 3

DRAM Statistics
 CHANNEL 0
 RQ ROW_BUFFER_HIT:       8914  ROW_BUFFER_MISS:      13541
 DBUS_CONGESTED:         14
 WQ ROW_BUFFER_HIT:        336  ROW_BUFFER_MISS:       3723  FULL:          0

 AVG_CONGESTED_CYCLE: 4
 All warmup complete: 2
Channel 0 Bank busy for read cycles: 0
Channel 0 Bank busy for write cycles: 0
Channel 0
Rank 0
0banks busy for read cycles: 651686101
0banks busy for write cycles: 2076
1banks busy for read cycles: 935874
1banks busy for write cycles: 256887
2banks busy for read cycles: 146781
2banks busy for write cycles: 51322
3banks busy for read cycles: 85075
3banks busy for write cycles: 25105
4banks busy for read cycles: 49004
4banks busy for write cycles: 17848
5banks busy for read cycles: 30578
5banks busy for write cycles: 9615
6banks busy for read cycles: 27958
6banks busy for write cycles: 6916
7banks busy for read cycles: 29750
7banks busy for write cycles: 3432
8banks busy for read cycles: 33606
8banks busy for write cycles: 4099

CPU 0 Branch Prediction Accuracy: 99.878% MPKI: 0.219635 Average ROB Occupancy at Mispredict: 30.1911
Branch types
NOT_BRANCH: 164000669 82.0003%
BRANCH_DIRECT_JUMP: 1883728 0.941864%
BRANCH_INDIRECT: 11966225 5.98311%
BRANCH_CONDITIONAL: 12979996 6.49%
BRANCH_DIRECT_CALL: 3854734 1.92737%
BRANCH_INDIRECT_CALL: 730020 0.36501%
BRANCH_RETURN: 4584736 2.29237%
BRANCH_OTHER: 0 0%

DRAM PAGES: 1048576
Allocated PAGES: 2136
