
*** ChampSim Multicore Out-of-Order Simulator ***

Warmup Instructions: 50000000
Simulation Instructions: 200000000
Number of CPUs: 1
LLC sets: 2048
LLC ways: 16
Off-chip DRAM Size: 4096 MB Channels: 1 Width: 64-bit Data Rate: 6400 MT/s
CPU 0 runs traces/spec2k17/srv_59.champsimtrace.xz
.xz
BTB has LRU replacement policy
ITLB has LRU replacement policy
DTLB has LRU replacement policy
STLB has LRU replacement policy
L1I has LRU replacement policy
CPU 0 L1D IP-based stride prefetcher
L1D has LRU replacement policy
Initialize SRRIP state for L2C
Initialize DRRIP state for LLC
Heartbeat CPU 0 instructions: 10000001 cycles: 2963770 heartbeat IPC: 3.37408 cumulative IPC: 3.37408 (Simulation time: 0 hr 0 min 44 sec) 
Heartbeat CPU 0 instructions: 20000003 cycles: 5795456 heartbeat IPC: 3.53147 cumulative IPC: 3.45098 (Simulation time: 0 hr 1 min 30 sec) 
Heartbeat CPU 0 instructions: 30000002 cycles: 8584690 heartbeat IPC: 3.58521 cumulative IPC: 3.49459 (Simulation time: 0 hr 2 min 11 sec) 
*** Reached end of trace for Core: 0 Repeating trace: traces/spec2k17/srv_59.champsimtrace.xz
Heartbeat CPU 0 instructions: 40000000 cycles: 11524477 heartbeat IPC: 3.40161 cumulative IPC: 3.47087 (Simulation time: 0 hr 2 min 58 sec) 
Heartbeat CPU 0 instructions: 50000003 cycles: 14383716 heartbeat IPC: 3.49744 cumulative IPC: 3.47615 (Simulation time: 0 hr 3 min 41 sec) 

Warmup complete CPU 0 instructions: 50000003 cycles: 14383716 (Simulation time: 0 hr 3 min 41 sec) 

Heartbeat CPU 0 instructions: 60000001 cycles: 33148473 heartbeat IPC: 0.532914 cumulative IPC: 0.532914 (Simulation time: 0 hr 4 min 29 sec) 
*** Reached end of trace for Core: 0 Repeating trace: traces/spec2k17/srv_59.champsimtrace.xz
Heartbeat CPU 0 instructions: 70000002 cycles: 46986612 heartbeat IPC: 0.722641 cumulative IPC: 0.613442 (Simulation time: 0 hr 5 min 14 sec) 
Heartbeat CPU 0 instructions: 80000001 cycles: 62826280 heartbeat IPC: 0.631326 cumulative IPC: 0.61929 (Simulation time: 0 hr 6 min 9 sec) 
Heartbeat CPU 0 instructions: 90000000 cycles: 81341500 heartbeat IPC: 0.540096 cumulative IPC: 0.597391 (Simulation time: 0 hr 7 min 3 sec) 
*** Reached end of trace for Core: 0 Repeating trace: traces/spec2k17/srv_59.champsimtrace.xz
Heartbeat CPU 0 instructions: 100000001 cycles: 96279158 heartbeat IPC: 0.669449 cumulative IPC: 0.610535 (Simulation time: 0 hr 7 min 53 sec) 
Heartbeat CPU 0 instructions: 110000000 cycles: 111091177 heartbeat IPC: 0.675127 cumulative IPC: 0.620428 (Simulation time: 0 hr 8 min 43 sec) 
Heartbeat CPU 0 instructions: 120000000 cycles: 129840014 heartbeat IPC: 0.533366 cumulative IPC: 0.60629 (Simulation time: 0 hr 9 min 33 sec) 
*** Reached end of trace for Core: 0 Repeating trace: traces/spec2k17/srv_59.champsimtrace.xz
Heartbeat CPU 0 instructions: 130000001 cycles: 145577867 heartbeat IPC: 0.635411 cumulative IPC: 0.609783 (Simulation time: 0 hr 10 min 23 sec) 
Heartbeat CPU 0 instructions: 140000003 cycles: 159527775 heartbeat IPC: 0.716851 cumulative IPC: 0.620074 (Simulation time: 0 hr 11 min 13 sec) 
Heartbeat CPU 0 instructions: 150000003 cycles: 178078386 heartbeat IPC: 0.539066 cumulative IPC: 0.610893 (Simulation time: 0 hr 12 min 4 sec) 
*** Reached end of trace for Core: 0 Repeating trace: traces/spec2k17/srv_59.champsimtrace.xz
Heartbeat CPU 0 instructions: 160000000 cycles: 194865224 heartbeat IPC: 0.595705 cumulative IPC: 0.609481 (Simulation time: 0 hr 12 min 54 sec) 
Heartbeat CPU 0 instructions: 170000000 cycles: 207712317 heartbeat IPC: 0.778386 cumulative IPC: 0.620705 (Simulation time: 0 hr 13 min 43 sec) 
Heartbeat CPU 0 instructions: 180000000 cycles: 226405050 heartbeat IPC: 0.534967 cumulative IPC: 0.613146 (Simulation time: 0 hr 14 min 33 sec) 
*** Reached end of trace for Core: 0 Repeating trace: traces/spec2k17/srv_59.champsimtrace.xz
Heartbeat CPU 0 instructions: 190000000 cycles: 244145441 heartbeat IPC: 0.563685 cumulative IPC: 0.609327 (Simulation time: 0 hr 15 min 26 sec) 
Heartbeat CPU 0 instructions: 200000000 cycles: 255968537 heartbeat IPC: 0.845802 cumulative IPC: 0.6209 (Simulation time: 0 hr 16 min 15 sec) 
Heartbeat CPU 0 instructions: 210000002 cycles: 274695545 heartbeat IPC: 0.533988 cumulative IPC: 0.614647 (Simulation time: 0 hr 17 min 1 sec) 
*** Reached end of trace for Core: 0 Repeating trace: traces/spec2k17/srv_59.champsimtrace.xz
Heartbeat CPU 0 instructions: 220000000 cycles: 293248028 heartbeat IPC: 0.539011 cumulative IPC: 0.609615 (Simulation time: 0 hr 17 min 52 sec) 
Heartbeat CPU 0 instructions: 230000003 cycles: 304333550 heartbeat IPC: 0.902078 cumulative IPC: 0.620797 (Simulation time: 0 hr 18 min 43 sec) 
Heartbeat CPU 0 instructions: 240000000 cycles: 322942759 heartbeat IPC: 0.537368 cumulative IPC: 0.615765 (Simulation time: 0 hr 19 min 38 sec) 
*** Reached end of trace for Core: 0 Repeating trace: traces/spec2k17/srv_59.champsimtrace.xz
Heartbeat CPU 0 instructions: 250000001 cycles: 341440195 heartbeat IPC: 0.540615 cumulative IPC: 0.611515 (Simulation time: 0 hr 20 min 29 sec) 
Finished CPU 0 instructions: 200000000 cycles: 327056480 cumulative IPC: 0.611515 (Simulation time: 0 hr 20 min 29 sec) 

ChampSim completed all CPUs

Region of Interest Statistics

CPU 0 cumulative IPC: 0.611515 instructions: 200000000 cycles: 327056480
ITLB TOTAL     ACCESS:   36234891  HIT:   35633473  MISS:     601418  HIT %:    98.3402  MISS %:    1.65978   MPKI: 3.00709
ITLB LOAD TRANSLATION ACCESS:   36234891  HIT:   35633473  MISS:     601418  HIT %:    98.3402  MISS %:    1.65978   MPKI: 3.00709
ITLB PREFETCH  REQUESTED:          0  ISSUED:          0  USEFUL:          0  USELESS:          0
ITLB USEFUL LOAD PREFETCHES:          0 PREFETCH ISSUED TO LOWER LEVEL:          0  ACCURACY: -nan
ITLB TIMELY PREFETCHES:          0 LATE PREFETCHES: 0 DROPPED PREFETCHES: 0
ITLB PREFETCHES SAME FILL-ORIGIN LEVEL: 0 DIFFERENT FILL-ORIGIN LEVEL: 0
ITLB AVERAGE MISS LATENCY: 9.02611 cycles
ITLB RQ	ACCESS:   40782748	FORWARD:          0	MERGED:    4357180	TO_CACHE:   36425568

DTLB TOTAL     ACCESS:   42638455  HIT:   41933147  MISS:     705308  HIT %:    98.3458  MISS %:    1.65416   MPKI: 3.52654
DTLB LOAD TRANSLATION ACCESS:   42638455  HIT:   41933147  MISS:     705308  HIT %:    98.3458  MISS %:    1.65416   MPKI: 3.52654
DTLB PREFETCH  REQUESTED:          0  ISSUED:          0  USEFUL:          0  USELESS:          0
DTLB USEFUL LOAD PREFETCHES:          0 PREFETCH ISSUED TO LOWER LEVEL:          0  ACCURACY: -nan
DTLB TIMELY PREFETCHES:          0 LATE PREFETCHES: 0 DROPPED PREFETCHES: 0
DTLB PREFETCHES SAME FILL-ORIGIN LEVEL: 0 DIFFERENT FILL-ORIGIN LEVEL: 0
DTLB AVERAGE MISS LATENCY: 9.05422 cycles
DTLB RQ	ACCESS:   58408489	FORWARD:          0	MERGED:   15739000	TO_CACHE:   42669489

STLB TOTAL     ACCESS:    1445658  HIT:    1444923  MISS:        735  HIT %:    99.9492  MISS %:  0.0508419   MPKI: 0.003675
STLB LOAD TRANSLATION ACCESS:    1306725  HIT:    1305990  MISS:        735  HIT %:    99.9438  MISS %:  0.0562475   MPKI: 0.003675
STLB TRANSLATION FROM L1D PREFETCHER ACCESS:     138933  HIT:     138933  MISS:          0  HIT %:        100  MISS %:          0   MPKI: 0
STLB PREFETCH  REQUESTED:          0  ISSUED:          0  USEFUL:          0  USELESS:          0
STLB USEFUL LOAD PREFETCHES:          0 PREFETCH ISSUED TO LOWER LEVEL:          0  ACCURACY: -nan
STLB TIMELY PREFETCHES:          0 LATE PREFETCHES: 0 DROPPED PREFETCHES: 0
STLB PREFETCHES SAME FILL-ORIGIN LEVEL: 0 DIFFERENT FILL-ORIGIN LEVEL: 0
STLB AVERAGE MISS LATENCY: 65.6857 cycles
STLB RQ	ACCESS:    1737714	FORWARD:          0	MERGED:     292056	TO_CACHE:    1445658

STLB Hit, L1D data hit: 0
STLB Hit, L2C data hit: 0
STLB Hit, LLC data hit: 0
STLB Hit, LLC data miss: 0
STLB STLB hints to L2: 0
L1D TOTAL     ACCESS:   58403803  HIT:   57313768  MISS:    1090035  HIT %:    98.1336  MISS %:    1.86638   MPKI: 5.45017
L1D LOAD      ACCESS:   37320999  HIT:   36576657  MISS:     744342  HIT %:    98.0056  MISS %:    1.99443   MPKI: 3.72171
L1D RFO       ACCESS:   20670736  HIT:   20365650  MISS:     305086  HIT %:    98.5241  MISS %:    1.47593   MPKI: 1.52543
L1D PREFETCH  ACCESS:     412068  HIT:     371461  MISS:      40607  HIT %:    90.1456  MISS %:    9.85444   MPKI: 0.203035
AGUS PREFETCH L1 MISS: 0
L1D PREFETCH  REQUESTED:     917759  ISSUED:     917759  USEFUL:      14077  USELESS:      26521
L1D USEFUL LOAD PREFETCHES:      14077 PREFETCH ISSUED TO LOWER LEVEL:      49768  ACCURACY: 28.2852
L1D TIMELY PREFETCHES:      14077 LATE PREFETCHES: 7601 DROPPED PREFETCHES: 0
L1D PREFETCHES SAME FILL-ORIGIN LEVEL: 48223 DIFFERENT FILL-ORIGIN LEVEL: 1545
L1D AVERAGE MISS LATENCY: 1.25536e+06 cycles
L1D RQ	ACCESS:   52186495	FORWARD:          0	MERGED:   14615366	TO_CACHE:   37351215
L1D WQ	ACCESS:   21284228	FORWARD:     219914	MERGED:     226954	TO_CACHE:   21057274
L1D PQ	ACCESS:     486770	FORWARD:          0	MERGED:      55781	TO_CACHE:     430989

L1D UNIQUE REGIONS ACCESSED: 0
L1D REGIONS CONFLICTS: 0
L1D Cross Page Prefetch Requests: 0
L1D Same Page Prefetch Requests: 980706
L1D ROI Sum of L1D PQ occupancy: 5724412
L1D PREFETCHES PUSHED FROM L2C: 0
L1I TOTAL     ACCESS:   40387971  HIT:   38145848  MISS:    2242123  HIT %:    94.4485  MISS %:    5.55146   MPKI: 11.2106
L1I LOAD      ACCESS:   40387971  HIT:   38145848  MISS:    2242123  HIT %:    94.4485  MISS %:    5.55146   MPKI: 11.2106
L1I PREFETCH  REQUESTED:          0  ISSUED:          0  USEFUL:          0  USELESS:          0
L1I USEFUL LOAD PREFETCHES:          0 PREFETCH ISSUED TO LOWER LEVEL:          0  ACCURACY: -nan
L1I TIMELY PREFETCHES:          0 LATE PREFETCHES: 0 DROPPED PREFETCHES: 0
L1I PREFETCHES SAME FILL-ORIGIN LEVEL: 0 DIFFERENT FILL-ORIGIN LEVEL: 0
L1I AVERAGE MISS LATENCY: 18.0459 cycles
L1I RQ	ACCESS:   63566920	FORWARD:          0	MERGED:   22784172	TO_CACHE:   40782748

BTB TOTAL     ACCESS:   34458797  HIT:   30772865  MISS:    3685932  HIT %:    89.3034  MISS %:    10.6966   MPKI: 18.4297
BTB BRANCH_DIRECT_JUMP	ACCESS:    3454568  HIT:    3286605  MISS:     167963
BTB BRANCH_INDIRECT	ACCESS:   13788068  HIT:   12683447  MISS:    1104621
BTB BRANCH_CONDITIONAL	ACCESS:    7883609  HIT:    7670722  MISS:     212887
BTB BRANCH_DIRECT_CALL	ACCESS:    2450862  HIT:    2153289  MISS:     297573
BTB BRANCH_INDIRECT_CALL	ACCESS:    2215440  HIT:    1977201  MISS:     238239
BTB BRANCH_RETURN	ACCESS:    4666250  HIT:    3001601  MISS:    1664649
BTB BRANCH_OTHER ACCESS:          0  HIT:          0  MISS:          0

L2C TOTAL     ACCESS:    3830877  HIT:    3303100  MISS:     527777  HIT %:    86.2231  MISS %:    13.7769   MPKI: 2.63889
L2C LOAD      ACCESS:    2978864  HIT:    2548517  MISS:     430347  HIT %:    85.5533  MISS %:    14.4467   MPKI: 2.15173
L2C DATA LOAD MPKI: 0.66158
L2C INSTRUCTION LOAD MPKI: 1.49015
L2C RFO       ACCESS:     305071  HIT:     236001  MISS:      69070  HIT %:    77.3594  MISS %:    22.6406   MPKI: 0.34535
L2C PREFETCH  ACCESS:      49435  HIT:      35458  MISS:      13977  HIT %:    71.7265  MISS %:    28.2735   MPKI: 0.069885
AGUS PREFETCH L1 MISS: 0
L2C DATA PREFETCH MPKI: 0.069885
L2C INSTRUCTION PREFETCH MPKI: 0
L2C WRITEBACK ACCESS:     496414  HIT:     482979  MISS:      13435  HIT %:    97.2936  MISS %:    2.70641   MPKI: 0.067175
L2C LOAD TRANSLATION ACCESS:       1093  HIT:        145  MISS:        948  HIT %:    13.2662  MISS %:    86.7338   MPKI: 0.00474
L2C PREFETCH  REQUESTED:          0  ISSUED:          0  USEFUL:       2392  USELESS:      11691
L2C USEFUL LOAD PREFETCHES:       2392 PREFETCH ISSUED TO LOWER LEVEL:      14209  ACCURACY: 16.8344
L2C TIMELY PREFETCHES:       2392 LATE PREFETCHES: 232 DROPPED PREFETCHES: 0
L2C PREFETCHES SAME FILL-ORIGIN LEVEL: 1082 DIFFERENT FILL-ORIGIN LEVEL: 0
L2C AVERAGE MISS LATENCY: 29.3471 cycles
L2C RQ	ACCESS:    3285028	FORWARD:          0	MERGED:          0	TO_CACHE:    3285028
L2C WQ	ACCESS:     496414	FORWARD:          0	MERGED:          0	TO_CACHE:     496414
L2C PQ	ACCESS:      49768	FORWARD:          0	MERGED:          0	TO_CACHE:      49768

L2C Instructions Evicting Data 114190
L2C Translations Evicting Data 614
L2C Data Evicting Data 106912
L2C Instructions Evicting Instructions 183487
L2C Translations Evicting Instructions 312
L2C Data Evicting Instructions 107888
L2C Instructions Evicting Translations 354
L2C Translations Evicting Translations 22
L2C Data Evicting Translations 563
L2C Dense regions hint from L2: 0
PSCL5 TOTAL     ACCESS:        735  HIT:        735  MISS:          0  HIT %:        100  MISS %:          0   MPKI: 0
PSCL5 LOAD TRANSLATION ACCESS:        735  HIT:        735  MISS:          0  HIT %:        100  MISS %:          0   MPKI: 0
PSCL5 PREFETCH  REQUESTED:          0  ISSUED:          0  USEFUL:          0  USELESS:          0
PSCL5 USEFUL LOAD PREFETCHES:          0 PREFETCH ISSUED TO LOWER LEVEL:          0  ACCURACY: -nan
PSCL5 TIMELY PREFETCHES:          0 LATE PREFETCHES: 0 DROPPED PREFETCHES: 0
PSCL5 PREFETCHES SAME FILL-ORIGIN LEVEL: 0 DIFFERENT FILL-ORIGIN LEVEL: 0

PSCL4 TOTAL     ACCESS:        735  HIT:        735  MISS:          0  HIT %:        100  MISS %:          0   MPKI: 0
PSCL4 LOAD TRANSLATION ACCESS:        735  HIT:        735  MISS:          0  HIT %:        100  MISS %:          0   MPKI: 0
PSCL4 PREFETCH  REQUESTED:          0  ISSUED:          0  USEFUL:          0  USELESS:          0
PSCL4 USEFUL LOAD PREFETCHES:          0 PREFETCH ISSUED TO LOWER LEVEL:          0  ACCURACY: -nan
PSCL4 TIMELY PREFETCHES:          0 LATE PREFETCHES: 0 DROPPED PREFETCHES: 0
PSCL4 PREFETCHES SAME FILL-ORIGIN LEVEL: 0 DIFFERENT FILL-ORIGIN LEVEL: 0

PSCL3 TOTAL     ACCESS:        603  HIT:        481  MISS:        122  HIT %:    79.7678  MISS %:    20.2322   MPKI: 0.00061
PSCL3 LOAD TRANSLATION ACCESS:        603  HIT:        481  MISS:        122  HIT %:    79.7678  MISS %:    20.2322   MPKI: 0.00061
PSCL3 PREFETCH  REQUESTED:          0  ISSUED:          0  USEFUL:          0  USELESS:          0
PSCL3 USEFUL LOAD PREFETCHES:          0 PREFETCH ISSUED TO LOWER LEVEL:          0  ACCURACY: -nan
PSCL3 TIMELY PREFETCHES:          0 LATE PREFETCHES: 0 DROPPED PREFETCHES: 0
PSCL3 PREFETCHES SAME FILL-ORIGIN LEVEL: 0 DIFFERENT FILL-ORIGIN LEVEL: 0

PSCL2 TOTAL     ACCESS:        735  HIT:        499  MISS:        236  HIT %:    67.8912  MISS %:    32.1088   MPKI: 0.00118
PSCL2 LOAD TRANSLATION ACCESS:        735  HIT:        499  MISS:        236  HIT %:    67.8912  MISS %:    32.1088   MPKI: 0.00118
PSCL2 PREFETCH  REQUESTED:          0  ISSUED:          0  USEFUL:          0  USELESS:          0
PSCL2 USEFUL LOAD PREFETCHES:          0 PREFETCH ISSUED TO LOWER LEVEL:          0  ACCURACY: -nan
PSCL2 TIMELY PREFETCHES:          0 LATE PREFETCHES: 0 DROPPED PREFETCHES: 0
PSCL2 PREFETCHES SAME FILL-ORIGIN LEVEL: 0 DIFFERENT FILL-ORIGIN LEVEL: 0

LLC TOTAL     ACCESS:     607597  HIT:     607205  MISS:        392  HIT %:    99.9355  MISS %:  0.0645164   MPKI: 0.00196
LLC LOAD      ACCESS:     430115  HIT:     429798  MISS:        317  HIT %:    99.9263  MISS %:  0.0737012   MPKI: 0.001585
LLC RFO       ACCESS:      69070  HIT:      69070  MISS:          0  HIT %:        100  MISS %:          0   MPKI: 0
LLC PREFETCH  ACCESS:      14206  HIT:      14140  MISS:         66  HIT %:    99.5354  MISS %:   0.464592   MPKI: 0.00033
AGUS PREFETCH L1 MISS: 0
LLC WRITEBACK ACCESS:      93258  HIT:      93258  MISS:          0  HIT %:        100  MISS %:          0   MPKI: 0
LLC LOAD TRANSLATION ACCESS:        948  HIT:        939  MISS:          9  HIT %:    99.0506  MISS %:   0.949367   MPKI: 4.5e-05
LLC PREFETCH  REQUESTED:          0  ISSUED:          0  USEFUL:       1761  USELESS:         37
LLC USEFUL LOAD PREFETCHES:       1761 PREFETCH ISSUED TO LOWER LEVEL:         66  ACCURACY: 2668.18
LLC TIMELY PREFETCHES:       1761 LATE PREFETCHES: 0 DROPPED PREFETCHES: 0
LLC PREFETCHES SAME FILL-ORIGIN LEVEL: 0 DIFFERENT FILL-ORIGIN LEVEL: 0
LLC AVERAGE MISS LATENCY: 150.401 cycles
LLC RQ	ACCESS:     500133	FORWARD:          0	MERGED:          0	TO_CACHE:     500133
LLC WQ	ACCESS:      93258	FORWARD:          3	MERGED:          0	TO_CACHE:      93258
LLC PQ	ACCESS:      14209	FORWARD:          0	MERGED:          0	TO_CACHE:      14206

LLC Dense regions hint to LLC: 0

RAW hits: 3081687
Loads Generated: 55268185
Loads sent to L1D: 52186495
Stores Generated: 21284217
Stores sent to L1D: 21284228
Major fault: 0 Minor fault: 1240
Allocated PAGES: 1240
CPU 0 L1D PC-based stride prefetcher final stats
Degree: 3

DRAM Statistics
 CHANNEL 0
 RQ ROW_BUFFER_HIT:         78  ROW_BUFFER_MISS:        314
 DBUS_CONGESTED:          0
 WQ ROW_BUFFER_HIT:          0  ROW_BUFFER_MISS:          0  FULL:          0

 AVG_CONGESTED_CYCLE: -
 All warmup complete: 2
Channel 0 Bank busy for read cycles: 0
Channel 0 Bank busy for write cycles: 0
Channel 0
Rank 0
0banks busy for read cycles: 327006242
0banks busy for write cycles: 0
1banks busy for read cycles: 49478
1banks busy for write cycles: 0
2banks busy for read cycles: 761
2banks busy for write cycles: 0
3banks busy for read cycles: 0
3banks busy for write cycles: 0
4banks busy for read cycles: 0
4banks busy for write cycles: 0
5banks busy for read cycles: 0
5banks busy for write cycles: 0
6banks busy for read cycles: 0
6banks busy for write cycles: 0
7banks busy for read cycles: 0
7banks busy for write cycles: 0
8banks busy for read cycles: 0
8banks busy for write cycles: 0

CPU 0 Branch Prediction Accuracy: 99.8703% MPKI: 0.256795 Average ROB Occupancy at Mispredict: 41.3889
Branch types
NOT_BRANCH: 160404645 80.2023%
BRANCH_DIRECT_JUMP: 3454568 1.72728%
BRANCH_INDIRECT: 13788068 6.89403%
BRANCH_CONDITIONAL: 13020070 6.51004%
BRANCH_DIRECT_CALL: 2450862 1.22543%
BRANCH_INDIRECT_CALL: 2215440 1.10772%
BRANCH_RETURN: 4666250 2.33312%
BRANCH_OTHER: 0 0%

DRAM PAGES: 1048576
Allocated PAGES: 1240
