
*** ChampSim Multicore Out-of-Order Simulator ***

Warmup Instructions: 50000000
Simulation Instructions: 200000000
Number of CPUs: 1
LLC sets: 2048
LLC ways: 16
Off-chip DRAM Size: 4096 MB Channels: 1 Width: 64-bit Data Rate: 6400 MT/s
CPU 0 runs traces/spec2k17/srv_27.champsimtrace.xz
.xz
BTB has LRU replacement policy
ITLB has LRU replacement policy
DTLB has LRU replacement policy
STLB has LRU replacement policy
L1I has LRU replacement policy
CPU 0 L1D IP-based stride prefetcher
L1D has LRU replacement policy
Initialize SRRIP state for L2C
Initialize DRRIP state for LLC
Heartbeat CPU 0 instructions: 10000001 cycles: 2808715 heartbeat IPC: 3.56035 cumulative IPC: 3.56035 (Simulation time: 0 hr 0 min 44 sec) 
Heartbeat CPU 0 instructions: 20000002 cycles: 5613792 heartbeat IPC: 3.56496 cumulative IPC: 3.56265 (Simulation time: 0 hr 1 min 25 sec) 
Heartbeat CPU 0 instructions: 30000001 cycles: 8420473 heartbeat IPC: 3.56293 cumulative IPC: 3.56275 (Simulation time: 0 hr 2 min 4 sec) 
*** Reached end of trace for Core: 0 Repeating trace: traces/spec2k17/srv_27.champsimtrace.xz
Heartbeat CPU 0 instructions: 40000001 cycles: 11224845 heartbeat IPC: 3.56586 cumulative IPC: 3.56352 (Simulation time: 0 hr 2 min 47 sec) 
Heartbeat CPU 0 instructions: 50000000 cycles: 14029482 heartbeat IPC: 3.56552 cumulative IPC: 3.56392 (Simulation time: 0 hr 3 min 32 sec) 

Warmup complete CPU 0 instructions: 50000004 cycles: 14029483 (Simulation time: 0 hr 3 min 32 sec) 

Heartbeat CPU 0 instructions: 60000002 cycles: 27868454 heartbeat IPC: 0.722597 cumulative IPC: 0.722597 (Simulation time: 0 hr 4 min 19 sec) 
*** Reached end of trace for Core: 0 Repeating trace: traces/spec2k17/srv_27.champsimtrace.xz
Heartbeat CPU 0 instructions: 70000003 cycles: 41848944 heartbeat IPC: 0.715283 cumulative IPC: 0.718921 (Simulation time: 0 hr 5 min 4 sec) 
Heartbeat CPU 0 instructions: 80000000 cycles: 55748193 heartbeat IPC: 0.719463 cumulative IPC: 0.719102 (Simulation time: 0 hr 5 min 51 sec) 
Heartbeat CPU 0 instructions: 90000000 cycles: 69505693 heartbeat IPC: 0.726876 cumulative IPC: 0.72103 (Simulation time: 0 hr 6 min 42 sec) 
*** Reached end of trace for Core: 0 Repeating trace: traces/spec2k17/srv_27.champsimtrace.xz
Heartbeat CPU 0 instructions: 100000000 cycles: 83501467 heartbeat IPC: 0.714501 cumulative IPC: 0.719715 (Simulation time: 0 hr 7 min 29 sec) 
Heartbeat CPU 0 instructions: 110000000 cycles: 97318227 heartbeat IPC: 0.723759 cumulative IPC: 0.720385 (Simulation time: 0 hr 8 min 16 sec) 
Heartbeat CPU 0 instructions: 120000000 cycles: 111098703 heartbeat IPC: 0.725664 cumulative IPC: 0.721135 (Simulation time: 0 hr 9 min 3 sec) 
*** Reached end of trace for Core: 0 Repeating trace: traces/spec2k17/srv_27.champsimtrace.xz
Heartbeat CPU 0 instructions: 130000001 cycles: 125121967 heartbeat IPC: 0.713101 cumulative IPC: 0.720121 (Simulation time: 0 hr 9 min 49 sec) 
Heartbeat CPU 0 instructions: 140000001 cycles: 138650675 heartbeat IPC: 0.739169 cumulative IPC: 0.722189 (Simulation time: 0 hr 10 min 36 sec) 
Heartbeat CPU 0 instructions: 150000001 cycles: 152658708 heartbeat IPC: 0.713876 cumulative IPC: 0.721349 (Simulation time: 0 hr 11 min 26 sec) 
*** Reached end of trace for Core: 0 Repeating trace: traces/spec2k17/srv_27.champsimtrace.xz
Heartbeat CPU 0 instructions: 160000002 cycles: 166604113 heartbeat IPC: 0.717082 cumulative IPC: 0.720959 (Simulation time: 0 hr 12 min 16 sec) 
Heartbeat CPU 0 instructions: 170000001 cycles: 180236050 heartbeat IPC: 0.733571 cumulative IPC: 0.721993 (Simulation time: 0 hr 13 min 5 sec) 
Heartbeat CPU 0 instructions: 180000001 cycles: 194215158 heartbeat IPC: 0.715353 cumulative IPC: 0.721478 (Simulation time: 0 hr 13 min 52 sec) 
Heartbeat CPU 0 instructions: 190000002 cycles: 208152850 heartbeat IPC: 0.717479 cumulative IPC: 0.721191 (Simulation time: 0 hr 14 min 39 sec) 
*** Reached end of trace for Core: 0 Repeating trace: traces/spec2k17/srv_27.champsimtrace.xz
Heartbeat CPU 0 instructions: 200000003 cycles: 221796612 heartbeat IPC: 0.732936 cumulative IPC: 0.721962 (Simulation time: 0 hr 15 min 21 sec) 
Heartbeat CPU 0 instructions: 210000002 cycles: 235754788 heartbeat IPC: 0.716426 cumulative IPC: 0.721614 (Simulation time: 0 hr 16 min 9 sec) 
Heartbeat CPU 0 instructions: 220000000 cycles: 249373059 heartbeat IPC: 0.734307 cumulative IPC: 0.722348 (Simulation time: 0 hr 16 min 57 sec) 
*** Reached end of trace for Core: 0 Repeating trace: traces/spec2k17/srv_27.champsimtrace.xz
Heartbeat CPU 0 instructions: 230000001 cycles: 263292948 heartbeat IPC: 0.718397 cumulative IPC: 0.722127 (Simulation time: 0 hr 17 min 46 sec) 
Heartbeat CPU 0 instructions: 240000003 cycles: 277028347 heartbeat IPC: 0.728046 cumulative IPC: 0.722437 (Simulation time: 0 hr 18 min 36 sec) 
Heartbeat CPU 0 instructions: 250000000 cycles: 290287628 heartbeat IPC: 0.754188 cumulative IPC: 0.723961 (Simulation time: 0 hr 19 min 19 sec) 
Finished CPU 0 instructions: 200000002 cycles: 276258165 cumulative IPC: 0.72396 (Simulation time: 0 hr 19 min 19 sec) 

ChampSim completed all CPUs

Region of Interest Statistics

CPU 0 cumulative IPC: 0.72396 instructions: 200000002 cycles: 276258165
ITLB TOTAL     ACCESS:   32430708  HIT:   32328414  MISS:     102294  HIT %:    99.6846  MISS %:   0.315423   MPKI: 0.51147
ITLB LOAD TRANSLATION ACCESS:   32430708  HIT:   32328414  MISS:     102294  HIT %:    99.6846  MISS %:   0.315423   MPKI: 0.51147
ITLB PREFETCH  REQUESTED:          0  ISSUED:          0  USEFUL:          0  USELESS:          0
ITLB USEFUL LOAD PREFETCHES:          0 PREFETCH ISSUED TO LOWER LEVEL:          0  ACCURACY: -nan
ITLB TIMELY PREFETCHES:          0 LATE PREFETCHES: 0 DROPPED PREFETCHES: 0
ITLB PREFETCHES SAME FILL-ORIGIN LEVEL: 0 DIFFERENT FILL-ORIGIN LEVEL: 0
ITLB AVERAGE MISS LATENCY: 10.6125 cycles
ITLB RQ	ACCESS:   38228157	FORWARD:          0	MERGED:    5763925	TO_CACHE:   32464232

DTLB TOTAL     ACCESS:   40743153  HIT:   38963316  MISS:    1779837  HIT %:    95.6316  MISS %:    4.36843   MPKI: 8.89918
DTLB LOAD TRANSLATION ACCESS:   40743153  HIT:   38963316  MISS:    1779837  HIT %:    95.6316  MISS %:    4.36843   MPKI: 8.89918
DTLB PREFETCH  REQUESTED:          0  ISSUED:          0  USEFUL:          0  USELESS:          0
DTLB USEFUL LOAD PREFETCHES:          0 PREFETCH ISSUED TO LOWER LEVEL:          0  ACCURACY: -nan
DTLB TIMELY PREFETCHES:          0 LATE PREFETCHES: 0 DROPPED PREFETCHES: 0
DTLB PREFETCHES SAME FILL-ORIGIN LEVEL: 0 DIFFERENT FILL-ORIGIN LEVEL: 0
DTLB AVERAGE MISS LATENCY: 10.6622 cycles
DTLB RQ	ACCESS:   54700769	FORWARD:          0	MERGED:   13757163	TO_CACHE:   40943606

STLB TOTAL     ACCESS:    3405935  HIT:    3320240  MISS:      85695  HIT %:     97.484  MISS %:    2.51605   MPKI: 0.428475
STLB LOAD TRANSLATION ACCESS:    1882131  HIT:    1796437  MISS:      85694  HIT %:     95.447  MISS %:    4.55303   MPKI: 0.42847
STLB TRANSLATION FROM L1D PREFETCHER ACCESS:    1523804  HIT:    1523803  MISS:          1  HIT %:    99.9999  MISS %: 6.56252e-05   MPKI: 5e-06
STLB PREFETCH  REQUESTED:          0  ISSUED:          0  USEFUL:          1  USELESS:          0
STLB USEFUL LOAD PREFETCHES:          1 PREFETCH ISSUED TO LOWER LEVEL:          0  ACCURACY: inf
STLB TIMELY PREFETCHES:          1 LATE PREFETCHES: 0 DROPPED PREFETCHES: 0
STLB PREFETCHES SAME FILL-ORIGIN LEVEL: 0 DIFFERENT FILL-ORIGIN LEVEL: 0
STLB AVERAGE MISS LATENCY: 36.3926 cycles
STLB RQ	ACCESS:    7684079	FORWARD:          0	MERGED:    4278144	TO_CACHE:    3405935

STLB Hit, L1D data hit: 0
STLB Hit, L2C data hit: 0
STLB Hit, LLC data hit: 0
STLB Hit, LLC data miss: 0
STLB STLB hints to L2: 0
L1D TOTAL     ACCESS:   59839134  HIT:   59366823  MISS:     472311  HIT %:    99.2107  MISS %:   0.789301   MPKI: 2.36155
L1D LOAD      ACCESS:   30723976  HIT:   30395237  MISS:     328739  HIT %:      98.93  MISS %:    1.06998   MPKI: 1.64369
L1D RFO       ACCESS:   23407265  HIT:   23296593  MISS:     110672  HIT %:    99.5272  MISS %:    0.47281   MPKI: 0.55336
L1D PREFETCH  ACCESS:    5707893  HIT:    5674993  MISS:      32900  HIT %:    99.4236  MISS %:   0.576395   MPKI: 0.1645
AGUS PREFETCH L1 MISS: 0
L1D PREFETCH  REQUESTED:   14419938  ISSUED:   14419938  USEFUL:      28439  USELESS:       4465
L1D USEFUL LOAD PREFETCHES:      28439 PREFETCH ISSUED TO LOWER LEVEL:      80156  ACCURACY: 35.4796
L1D TIMELY PREFETCHES:      28439 LATE PREFETCHES: 16664 DROPPED PREFETCHES: 0
L1D PREFETCHES SAME FILL-ORIGIN LEVEL: 49564 DIFFERENT FILL-ORIGIN LEVEL: 30592
L1D AVERAGE MISS LATENCY: 5.46324e+06 cycles
L1D RQ	ACCESS:   49482401	FORWARD:          0	MERGED:   18527247	TO_CACHE:   30833096
L1D WQ	ACCESS:   24124410	FORWARD:     122058	MERGED:     256737	TO_CACHE:   23867673
L1D PQ	ACCESS:    8617990	FORWARD:          0	MERGED:    2816042	TO_CACHE:    5801948

L1D UNIQUE REGIONS ACCESSED: 0
L1D REGIONS CONFLICTS: 0
L1D Cross Page Prefetch Requests: 0
L1D Same Page Prefetch Requests: 11059599
L1D ROI Sum of L1D PQ occupancy: 75519600
L1D PREFETCHES PUSHED FROM L2C: 0
L1I TOTAL     ACCESS:   38044008  HIT:   37436547  MISS:     607461  HIT %:    98.4033  MISS %:    1.59673   MPKI: 3.0373
L1I LOAD      ACCESS:   38044008  HIT:   37436547  MISS:     607461  HIT %:    98.4033  MISS %:    1.59673   MPKI: 3.0373
L1I PREFETCH  REQUESTED:          0  ISSUED:          0  USEFUL:          0  USELESS:          0
L1I USEFUL LOAD PREFETCHES:          0 PREFETCH ISSUED TO LOWER LEVEL:          0  ACCURACY: -nan
L1I TIMELY PREFETCHES:          0 LATE PREFETCHES: 0 DROPPED PREFETCHES: 0
L1I PREFETCHES SAME FILL-ORIGIN LEVEL: 0 DIFFERENT FILL-ORIGIN LEVEL: 0
L1I AVERAGE MISS LATENCY: 16.4537 cycles
L1I RQ	ACCESS:   60441755	FORWARD:          0	MERGED:   22213598	TO_CACHE:   38228157

BTB TOTAL     ACCESS:   29347733  HIT:   27692669  MISS:    1655064  HIT %:    94.3605  MISS %:     5.6395   MPKI: 8.27532
BTB BRANCH_DIRECT_JUMP	ACCESS:    2290071  HIT:    2288950  MISS:       1121
BTB BRANCH_INDIRECT	ACCESS:   12563222  HIT:   12018859  MISS:     544363
BTB BRANCH_CONDITIONAL	ACCESS:    6926945  HIT:    6925297  MISS:       1648
BTB BRANCH_DIRECT_CALL	ACCESS:    3333321  HIT:    3330170  MISS:       3151
BTB BRANCH_INDIRECT_CALL	ACCESS:     450445  HIT:     256847  MISS:     193598
BTB BRANCH_RETURN	ACCESS:    3783729  HIT:    2872546  MISS:     911183
BTB BRANCH_OTHER ACCESS:          0  HIT:          0  MISS:          0

L2C TOTAL     ACCESS:    1367065  HIT:     889443  MISS:     477622  HIT %:    65.0622  MISS %:    34.9378   MPKI: 2.38811
L2C LOAD      ACCESS:     919423  HIT:     620007  MISS:     299416  HIT %:    67.4344  MISS %:    32.5656   MPKI: 1.49708
L2C DATA LOAD MPKI: 1.3286
L2C INSTRUCTION LOAD MPKI: 0.16848
L2C RFO       ACCESS:     110672  HIT:       5980  MISS:     104692  HIT %:    5.40335  MISS %:    94.5966   MPKI: 0.52346
L2C PREFETCH  ACCESS:      60993  HIT:      18134  MISS:      42859  HIT %:    29.7313  MISS %:    70.2687   MPKI: 0.214295
AGUS PREFETCH L1 MISS: 0
L2C DATA PREFETCH MPKI: 0.214295
L2C INSTRUCTION PREFETCH MPKI: 0
L2C WRITEBACK ACCESS:     152675  HIT:     146892  MISS:       5783  HIT %:    96.2122  MISS %:    3.78778   MPKI: 0.028915
L2C LOAD TRANSLATION ACCESS:     123300  HIT:      98430  MISS:      24870  HIT %:    79.8297  MISS %:    20.1703   MPKI: 0.12435
L2C TRANSLATION FROM L1D PREFETCHER ACCESS:          2  HIT:          0  MISS:          2  HIT %:          0  MISS %:        100   MPKI: 1e-05
L2C PREFETCH  REQUESTED:          0  ISSUED:          0  USEFUL:       7130  USELESS:      35893
L2C USEFUL LOAD PREFETCHES:       7130 PREFETCH ISSUED TO LOWER LEVEL:      53502  ACCURACY: 13.3266
L2C TIMELY PREFETCHES:       7130 LATE PREFETCHES: 10643 DROPPED PREFETCHES: 0
L2C PREFETCHES SAME FILL-ORIGIN LEVEL: 22423 DIFFERENT FILL-ORIGIN LEVEL: 0
L2C AVERAGE MISS LATENCY: 104.814 cycles
L2C RQ	ACCESS:    1153510	FORWARD:          0	MERGED:          0	TO_CACHE:    1153397
L2C WQ	ACCESS:     152675	FORWARD:        113	MERGED:          0	TO_CACHE:     152675
L2C PQ	ACCESS:      80156	FORWARD:          0	MERGED:          3	TO_CACHE:      80153

L2C Instructions Evicting Data 30158
L2C Translations Evicting Data 21489
L2C Data Evicting Data 362003
L2C Instructions Evicting Instructions 1919
L2C Translations Evicting Instructions 1873
L2C Data Evicting Instructions 30172
L2C Instructions Evicting Translations 1619
L2C Translations Evicting Translations 1510
L2C Data Evicting Translations 21096
L2C Dense regions hint from L2: 0
PSCL5 TOTAL     ACCESS:      85695  HIT:      85695  MISS:          0  HIT %:        100  MISS %:          0   MPKI: 0
PSCL5 LOAD TRANSLATION ACCESS:      85694  HIT:      85694  MISS:          0  HIT %:        100  MISS %:          0   MPKI: 0
PSCL5 TRANSLATION FROM L1D PREFETCHER ACCESS:          1  HIT:          1  MISS:          0  HIT %:        100  MISS %:          0   MPKI: 0
PSCL5 PREFETCH  REQUESTED:          0  ISSUED:          0  USEFUL:          0  USELESS:          0
PSCL5 USEFUL LOAD PREFETCHES:          0 PREFETCH ISSUED TO LOWER LEVEL:          0  ACCURACY: -nan
PSCL5 TIMELY PREFETCHES:          0 LATE PREFETCHES: 0 DROPPED PREFETCHES: 0
PSCL5 PREFETCHES SAME FILL-ORIGIN LEVEL: 0 DIFFERENT FILL-ORIGIN LEVEL: 0

PSCL4 TOTAL     ACCESS:      82996  HIT:      82855  MISS:        141  HIT %:    99.8301  MISS %:   0.169888   MPKI: 0.000705
PSCL4 LOAD TRANSLATION ACCESS:      82995  HIT:      82854  MISS:        141  HIT %:    99.8301  MISS %:    0.16989   MPKI: 0.000705
PSCL4 TRANSLATION FROM L1D PREFETCHER ACCESS:          1  HIT:          1  MISS:          0  HIT %:        100  MISS %:          0   MPKI: 0
PSCL4 PREFETCH  REQUESTED:          0  ISSUED:          0  USEFUL:          0  USELESS:          0
PSCL4 USEFUL LOAD PREFETCHES:          0 PREFETCH ISSUED TO LOWER LEVEL:          0  ACCURACY: -nan
PSCL4 TIMELY PREFETCHES:          0 LATE PREFETCHES: 0 DROPPED PREFETCHES: 0
PSCL4 PREFETCHES SAME FILL-ORIGIN LEVEL: 0 DIFFERENT FILL-ORIGIN LEVEL: 0

PSCL3 TOTAL     ACCESS:      85257  HIT:      84775  MISS:        482  HIT %:    99.4347  MISS %:   0.565349   MPKI: 0.00241
PSCL3 LOAD TRANSLATION ACCESS:      85256  HIT:      84774  MISS:        482  HIT %:    99.4346  MISS %:   0.565356   MPKI: 0.00241
PSCL3 TRANSLATION FROM L1D PREFETCHER ACCESS:          1  HIT:          1  MISS:          0  HIT %:        100  MISS %:          0   MPKI: 0
PSCL3 PREFETCH  REQUESTED:          0  ISSUED:          0  USEFUL:          0  USELESS:          0
PSCL3 USEFUL LOAD PREFETCHES:          0 PREFETCH ISSUED TO LOWER LEVEL:          0  ACCURACY: -nan
PSCL3 TIMELY PREFETCHES:          0 LATE PREFETCHES: 0 DROPPED PREFETCHES: 0
PSCL3 PREFETCHES SAME FILL-ORIGIN LEVEL: 0 DIFFERENT FILL-ORIGIN LEVEL: 0

PSCL2 TOTAL     ACCESS:      85695  HIT:      48711  MISS:      36984  HIT %:    56.8423  MISS %:    43.1577   MPKI: 0.18492
PSCL2 LOAD TRANSLATION ACCESS:      85695  HIT:      48711  MISS:      36984  HIT %:    56.8423  MISS %:    43.1577   MPKI: 0.18492
PSCL2 PREFETCH  REQUESTED:          0  ISSUED:          0  USEFUL:          0  USELESS:          0
PSCL2 USEFUL LOAD PREFETCHES:          0 PREFETCH ISSUED TO LOWER LEVEL:          0  ACCURACY: -nan
PSCL2 TIMELY PREFETCHES:          0 LATE PREFETCHES: 0 DROPPED PREFETCHES: 0
PSCL2 PREFETCHES SAME FILL-ORIGIN LEVEL: 0 DIFFERENT FILL-ORIGIN LEVEL: 0

LLC TOTAL     ACCESS:     610734  HIT:     373679  MISS:     237055  HIT %:    61.1852  MISS %:    38.8148   MPKI: 1.18527
LLC LOAD      ACCESS:     288773  HIT:     115551  MISS:     173222  HIT %:    40.0145  MISS %:    59.9855   MPKI: 0.86611
LLC RFO       ACCESS:     104692  HIT:      75564  MISS:      29128  HIT %:    72.1774  MISS %:    27.8226   MPKI: 0.14564
LLC PREFETCH  ACCESS:      53502  HIT:      22705  MISS:      30797  HIT %:    42.4377  MISS %:    57.5623   MPKI: 0.153985
AGUS PREFETCH L1 MISS: 0
LLC WRITEBACK ACCESS:     138895  HIT:     136746  MISS:       2149  HIT %:    98.4528  MISS %:    1.54721   MPKI: 0.010745
LLC LOAD TRANSLATION ACCESS:      24870  HIT:      23111  MISS:       1759  HIT %:    92.9272  MISS %:    7.07278   MPKI: 0.008795
LLC TRANSLATION FROM L1D PREFETCHER ACCESS:          2  HIT:          2  MISS:          0  HIT %:        100  MISS %:          0   MPKI: 0
LLC PREFETCH  REQUESTED:          0  ISSUED:          0  USEFUL:        887  USELESS:      31305
LLC USEFUL LOAD PREFETCHES:        887 PREFETCH ISSUED TO LOWER LEVEL:      30797  ACCURACY: 2.88015
LLC TIMELY PREFETCHES:        887 LATE PREFETCHES: 0 DROPPED PREFETCHES: 0
LLC PREFETCHES SAME FILL-ORIGIN LEVEL: 0 DIFFERENT FILL-ORIGIN LEVEL: 0
LLC AVERAGE MISS LATENCY: 153.732 cycles
LLC RQ	ACCESS:     418337	FORWARD:          0	MERGED:          0	TO_CACHE:     418337
LLC WQ	ACCESS:     138895	FORWARD:          0	MERGED:          0	TO_CACHE:     138895
LLC PQ	ACCESS:      53502	FORWARD:          0	MERGED:          0	TO_CACHE:      53502

LLC Dense regions hint to LLC: 0

RAW hits: 2380551
Loads Generated: 51862954
Loads sent to L1D: 49482401
Stores Generated: 24124397
Stores sent to L1D: 24124410
Major fault: 0 Minor fault: 6082
Allocated PAGES: 6082
CPU 0 L1D PC-based stride prefetcher final stats
Degree: 3

DRAM Statistics
 CHANNEL 0
 RQ ROW_BUFFER_HIT:      53127  ROW_BUFFER_MISS:     181742
 DBUS_CONGESTED:        156
 WQ ROW_BUFFER_HIT:       7269  ROW_BUFFER_MISS:      30459  FULL:          0

 AVG_CONGESTED_CYCLE: 5
 All warmup complete: 2
Channel 0 Bank busy for read cycles: 0
Channel 0 Bank busy for write cycles: 0
Channel 0
Rank 0
0banks busy for read cycles: 247822342
0banks busy for write cycles: 22820
1banks busy for read cycles: 21064182
1banks busy for write cycles: 4044495
2banks busy for read cycles: 1093444
2banks busy for write cycles: 441480
3banks busy for read cycles: 369198
3banks busy for write cycles: 114486
4banks busy for read cycles: 231637
4banks busy for write cycles: 77768
5banks busy for read cycles: 180882
5banks busy for write cycles: 62865
6banks busy for read cycles: 170059
6banks busy for write cycles: 67864
7banks busy for read cycles: 161861
7banks busy for write cycles: 62537
8banks busy for read cycles: 197009
8banks busy for write cycles: 73237

CPU 0 Branch Prediction Accuracy: 99.7868% MPKI: 0.389745 Average ROB Occupancy at Mispredict: 19.559
Branch types
NOT_BRANCH: 163431817 81.7159%
BRANCH_DIRECT_JUMP: 2290071 1.14504%
BRANCH_INDIRECT: 12563222 6.28161%
BRANCH_CONDITIONAL: 14147089 7.07354%
BRANCH_DIRECT_CALL: 3333321 1.66666%
BRANCH_INDIRECT_CALL: 450445 0.225222%
BRANCH_RETURN: 3783729 1.89186%
BRANCH_OTHER: 0 0%

DRAM PAGES: 1048576
Allocated PAGES: 6082
