
*** ChampSim Multicore Out-of-Order Simulator ***

Warmup Instructions: 50000000
Simulation Instructions: 200000000
Number of CPUs: 1
LLC sets: 2048
LLC ways: 16
Off-chip DRAM Size: 4096 MB Channels: 1 Width: 64-bit Data Rate: 6400 MT/s
CPU 0 runs traces/spec2k17/srv_46.champsimtrace.xz
.xz
BTB has LRU replacement policy
ITLB has LRU replacement policy
DTLB has LRU replacement policy
STLB has LRU replacement policy
L1I has LRU replacement policy
CPU 0 L1D IP-based stride prefetcher
L1D has LRU replacement policy
Initialize SRRIP state for L2C
Initialize DRRIP state for LLC
Heartbeat CPU 0 instructions: 10000003 cycles: 2962538 heartbeat IPC: 3.37549 cumulative IPC: 3.37549 (Simulation time: 0 hr 0 min 45 sec) 
Heartbeat CPU 0 instructions: 20000002 cycles: 5930031 heartbeat IPC: 3.36985 cumulative IPC: 3.37266 (Simulation time: 0 hr 1 min 31 sec) 
Heartbeat CPU 0 instructions: 30000003 cycles: 8872499 heartbeat IPC: 3.39851 cumulative IPC: 3.38123 (Simulation time: 0 hr 2 min 16 sec) 
*** Reached end of trace for Core: 0 Repeating trace: traces/spec2k17/srv_46.champsimtrace.xz
Heartbeat CPU 0 instructions: 40000000 cycles: 11836456 heartbeat IPC: 3.37387 cumulative IPC: 3.37939 (Simulation time: 0 hr 2 min 58 sec) 
Heartbeat CPU 0 instructions: 50000000 cycles: 14791941 heartbeat IPC: 3.38354 cumulative IPC: 3.38022 (Simulation time: 0 hr 3 min 39 sec) 

Warmup complete CPU 0 instructions: 50000004 cycles: 14791942 (Simulation time: 0 hr 3 min 39 sec) 

Heartbeat CPU 0 instructions: 60000001 cycles: 39116701 heartbeat IPC: 0.411104 cumulative IPC: 0.411104 (Simulation time: 0 hr 4 min 38 sec) 
*** Reached end of trace for Core: 0 Repeating trace: traces/spec2k17/srv_46.champsimtrace.xz
Heartbeat CPU 0 instructions: 70000000 cycles: 62766562 heartbeat IPC: 0.422835 cumulative IPC: 0.416887 (Simulation time: 0 hr 5 min 31 sec) 
Heartbeat CPU 0 instructions: 80000000 cycles: 84998414 heartbeat IPC: 0.449805 cumulative IPC: 0.427311 (Simulation time: 0 hr 6 min 20 sec) 
Heartbeat CPU 0 instructions: 90000003 cycles: 108803851 heartbeat IPC: 0.420072 cumulative IPC: 0.425478 (Simulation time: 0 hr 7 min 18 sec) 
*** Reached end of trace for Core: 0 Repeating trace: traces/spec2k17/srv_46.champsimtrace.xz
Heartbeat CPU 0 instructions: 100000000 cycles: 132020455 heartbeat IPC: 0.430726 cumulative IPC: 0.426517 (Simulation time: 0 hr 8 min 11 sec) 
Heartbeat CPU 0 instructions: 110000000 cycles: 155281501 heartbeat IPC: 0.429903 cumulative IPC: 0.427078 (Simulation time: 0 hr 9 min 3 sec) 
Heartbeat CPU 0 instructions: 120000000 cycles: 177659385 heartbeat IPC: 0.44687 cumulative IPC: 0.429797 (Simulation time: 0 hr 10 min 1 sec) 
*** Reached end of trace for Core: 0 Repeating trace: traces/spec2k17/srv_46.champsimtrace.xz
Heartbeat CPU 0 instructions: 130000001 cycles: 201023240 heartbeat IPC: 0.428012 cumulative IPC: 0.429573 (Simulation time: 0 hr 10 min 56 sec) 
Heartbeat CPU 0 instructions: 140000002 cycles: 225004590 heartbeat IPC: 0.416991 cumulative IPC: 0.428138 (Simulation time: 0 hr 11 min 51 sec) 
Heartbeat CPU 0 instructions: 150000002 cycles: 247649061 heartbeat IPC: 0.441609 cumulative IPC: 0.429448 (Simulation time: 0 hr 12 min 51 sec) 
*** Reached end of trace for Core: 0 Repeating trace: traces/spec2k17/srv_46.champsimtrace.xz
Heartbeat CPU 0 instructions: 160000002 cycles: 269992005 heartbeat IPC: 0.447569 cumulative IPC: 0.431034 (Simulation time: 0 hr 13 min 43 sec) 
Heartbeat CPU 0 instructions: 170000003 cycles: 294614926 heartbeat IPC: 0.406126 cumulative IPC: 0.428843 (Simulation time: 0 hr 14 min 36 sec) 
Heartbeat CPU 0 instructions: 180000000 cycles: 317613099 heartbeat IPC: 0.434817 cumulative IPC: 0.429296 (Simulation time: 0 hr 15 min 22 sec) 
*** Reached end of trace for Core: 0 Repeating trace: traces/spec2k17/srv_46.champsimtrace.xz
Heartbeat CPU 0 instructions: 190000000 cycles: 339977760 heartbeat IPC: 0.447134 cumulative IPC: 0.430523 (Simulation time: 0 hr 16 min 9 sec) 
Heartbeat CPU 0 instructions: 200000003 cycles: 363618799 heartbeat IPC: 0.422993 cumulative IPC: 0.430013 (Simulation time: 0 hr 17 min 5 sec) 
Heartbeat CPU 0 instructions: 210000002 cycles: 387462254 heartbeat IPC: 0.419402 cumulative IPC: 0.429334 (Simulation time: 0 hr 18 min 2 sec) 
*** Reached end of trace for Core: 0 Repeating trace: traces/spec2k17/srv_46.champsimtrace.xz
Heartbeat CPU 0 instructions: 220000000 cycles: 410209889 heartbeat IPC: 0.439606 cumulative IPC: 0.429925 (Simulation time: 0 hr 18 min 52 sec) 
Heartbeat CPU 0 instructions: 230000002 cycles: 432229742 heartbeat IPC: 0.454136 cumulative IPC: 0.431202 (Simulation time: 0 hr 19 min 41 sec) 
Heartbeat CPU 0 instructions: 240000000 cycles: 456620034 heartbeat IPC: 0.409999 cumulative IPC: 0.430032 (Simulation time: 0 hr 20 min 43 sec) 
*** Reached end of trace for Core: 0 Repeating trace: traces/spec2k17/srv_46.champsimtrace.xz
Heartbeat CPU 0 instructions: 250000003 cycles: 480168544 heartbeat IPC: 0.424655 cumulative IPC: 0.429759 (Simulation time: 0 hr 21 min 41 sec) 
Finished CPU 0 instructions: 200000003 cycles: 465376603 cumulative IPC: 0.429759 (Simulation time: 0 hr 21 min 41 sec) 

ChampSim completed all CPUs

Region of Interest Statistics

CPU 0 cumulative IPC: 0.429759 instructions: 200000003 cycles: 465376603
ITLB TOTAL     ACCESS:   34871569  HIT:   33554736  MISS:    1316833  HIT %:    96.2238  MISS %:    3.77624   MPKI: 6.58416
ITLB LOAD TRANSLATION ACCESS:   34871569  HIT:   33554736  MISS:    1316833  HIT %:    96.2238  MISS %:    3.77624   MPKI: 6.58416
ITLB PREFETCH  REQUESTED:          0  ISSUED:          0  USEFUL:          0  USELESS:          0
ITLB USEFUL LOAD PREFETCHES:          0 PREFETCH ISSUED TO LOWER LEVEL:          0  ACCURACY: -nan
ITLB TIMELY PREFETCHES:          0 LATE PREFETCHES: 0 DROPPED PREFETCHES: 0
ITLB PREFETCHES SAME FILL-ORIGIN LEVEL: 0 DIFFERENT FILL-ORIGIN LEVEL: 0
ITLB AVERAGE MISS LATENCY: 9.45161 cycles
ITLB RQ	ACCESS:   40092714	FORWARD:          0	MERGED:    4844065	TO_CACHE:   35248649

DTLB TOTAL     ACCESS:   45176188  HIT:   43939005  MISS:    1237183  HIT %:    97.2614  MISS %:    2.73857   MPKI: 6.18591
DTLB LOAD TRANSLATION ACCESS:   45176188  HIT:   43939005  MISS:    1237183  HIT %:    97.2614  MISS %:    2.73857   MPKI: 6.18591
DTLB PREFETCH  REQUESTED:          0  ISSUED:          0  USEFUL:          0  USELESS:          0
DTLB USEFUL LOAD PREFETCHES:          0 PREFETCH ISSUED TO LOWER LEVEL:          0  ACCURACY: -nan
DTLB TIMELY PREFETCHES:          0 LATE PREFETCHES: 0 DROPPED PREFETCHES: 0
DTLB PREFETCHES SAME FILL-ORIGIN LEVEL: 0 DIFFERENT FILL-ORIGIN LEVEL: 0
DTLB AVERAGE MISS LATENCY: 12.1845 cycles
DTLB RQ	ACCESS:   61838670	FORWARD:          0	MERGED:   16571613	TO_CACHE:   45267057

STLB TOTAL     ACCESS:    2777469  HIT:    2725372  MISS:      52097  HIT %:    98.1243  MISS %:     1.8757   MPKI: 0.260485
STLB LOAD TRANSLATION ACCESS:    2554016  HIT:    2501919  MISS:      52097  HIT %:    97.9602  MISS %:    2.03981   MPKI: 0.260485
STLB TRANSLATION FROM L1D PREFETCHER ACCESS:     223453  HIT:     223453  MISS:          0  HIT %:        100  MISS %:          0   MPKI: 0
STLB PREFETCH  REQUESTED:          0  ISSUED:          0  USEFUL:          0  USELESS:          0
STLB USEFUL LOAD PREFETCHES:          0 PREFETCH ISSUED TO LOWER LEVEL:          0  ACCURACY: -nan
STLB TIMELY PREFETCHES:          0 LATE PREFETCHES: 0 DROPPED PREFETCHES: 0
STLB PREFETCHES SAME FILL-ORIGIN LEVEL: 0 DIFFERENT FILL-ORIGIN LEVEL: 0
STLB AVERAGE MISS LATENCY: 86.7045 cycles
STLB RQ	ACCESS:    3168822	FORWARD:          0	MERGED:     391353	TO_CACHE:    2777469

STLB Hit, L1D data hit: 0
STLB Hit, L2C data hit: 0
STLB Hit, LLC data hit: 0
STLB Hit, LLC data miss: 0
STLB STLB hints to L2: 0
L1D TOTAL     ACCESS:   60113037  HIT:   57488058  MISS:    2624979  HIT %:    95.6333  MISS %:    4.36674   MPKI: 13.1249
L1D LOAD      ACCESS:   37539064  HIT:   35856106  MISS:    1682958  HIT %:    95.5168  MISS %:    4.48322   MPKI: 8.41479
L1D RFO       ACCESS:   22063919  HIT:   21185091  MISS:     878828  HIT %:    96.0169  MISS %:     3.9831   MPKI: 4.39414
L1D PREFETCH  ACCESS:     510054  HIT:     446861  MISS:      63193  HIT %:    87.6105  MISS %:    12.3895   MPKI: 0.315965
AGUS PREFETCH L1 MISS: 0
L1D PREFETCH  REQUESTED:    1380103  ISSUED:    1380103  USEFUL:      43940  USELESS:      19255
L1D USEFUL LOAD PREFETCHES:      43940 PREFETCH ISSUED TO LOWER LEVEL:     133083  ACCURACY: 33.017
L1D TIMELY PREFETCHES:      43940 LATE PREFETCHES: 18582 DROPPED PREFETCHES: 0
L1D PREFETCHES SAME FILL-ORIGIN LEVEL: 81803 DIFFERENT FILL-ORIGIN LEVEL: 51280
L1D AVERAGE MISS LATENCY: 1.72464e+06 cycles
L1D RQ	ACCESS:   54604442	FORWARD:          0	MERGED:   16816362	TO_CACHE:   37645744
L1D WQ	ACCESS:   24630455	FORWARD:     142372	MERGED:     437529	TO_CACHE:   24192926
L1D PQ	ACCESS:     765297	FORWARD:          0	MERGED:     150455	TO_CACHE:     614806

L1D UNIQUE REGIONS ACCESSED: 0
L1D REGIONS CONFLICTS: 0
L1D Cross Page Prefetch Requests: 0
L1D Same Page Prefetch Requests: 986019
L1D ROI Sum of L1D PQ occupancy: 8450435
L1D PREFETCHES PUSHED FROM L2C: 0
L1I TOTAL     ACCESS:   39405305  HIT:   34414926  MISS:    4990379  HIT %:    87.3358  MISS %:    12.6642   MPKI: 24.9519
L1I LOAD      ACCESS:   39405305  HIT:   34414926  MISS:    4990379  HIT %:    87.3358  MISS %:    12.6642   MPKI: 24.9519
L1I PREFETCH  REQUESTED:          0  ISSUED:          0  USEFUL:          0  USELESS:          0
L1I USEFUL LOAD PREFETCHES:          0 PREFETCH ISSUED TO LOWER LEVEL:          0  ACCURACY: -nan
L1I TIMELY PREFETCHES:          0 LATE PREFETCHES: 0 DROPPED PREFETCHES: 0
L1I PREFETCHES SAME FILL-ORIGIN LEVEL: 0 DIFFERENT FILL-ORIGIN LEVEL: 0
L1I AVERAGE MISS LATENCY: 19.6578 cycles
L1I RQ	ACCESS:   60426327	FORWARD:          0	MERGED:   20333613	TO_CACHE:   40092714

BTB TOTAL     ACCESS:   31255800  HIT:   24838532  MISS:    6417268  HIT %:    79.4686  MISS %:    20.5314   MPKI: 32.0863
BTB BRANCH_DIRECT_JUMP	ACCESS:    2533222  HIT:    2107885  MISS:     425337
BTB BRANCH_INDIRECT	ACCESS:   13038560  HIT:   10544316  MISS:    2494244
BTB BRANCH_CONDITIONAL	ACCESS:    7059562  HIT:    6546706  MISS:     512856
BTB BRANCH_DIRECT_CALL	ACCESS:    3018472  HIT:    2245364  MISS:     773108
BTB BRANCH_INDIRECT_CALL	ACCESS:    1293792  HIT:     937788  MISS:     356004
BTB BRANCH_RETURN	ACCESS:    4312192  HIT:    2456473  MISS:    1855719
BTB BRANCH_OTHER ACCESS:          0  HIT:          0  MISS:          0

L2C TOTAL     ACCESS:    9004959  HIT:    6935589  MISS:    2069370  HIT %:    77.0197  MISS %:    22.9803   MPKI: 10.3468
L2C LOAD      ACCESS:    6654728  HIT:    5212882  MISS:    1441846  HIT %:    78.3335  MISS %:    21.6665   MPKI: 7.20923
L2C DATA LOAD MPKI: 2.69613
L2C INSTRUCTION LOAD MPKI: 4.5131
L2C RFO       ACCESS:     878792  HIT:     413222  MISS:     465570  HIT %:    47.0216  MISS %:    52.9784   MPKI: 2.32785
L2C PREFETCH  ACCESS:     117382  HIT:      77968  MISS:      39414  HIT %:    66.4224  MISS %:    33.5776   MPKI: 0.19707
AGUS PREFETCH L1 MISS: 0
L2C DATA PREFETCH MPKI: 0.19707
L2C INSTRUCTION PREFETCH MPKI: 0
L2C WRITEBACK ACCESS:    1273376  HIT:    1197080  MISS:      76296  HIT %:    94.0084  MISS %:    5.99163   MPKI: 0.38148
L2C LOAD TRANSLATION ACCESS:      80681  HIT:      34437  MISS:      46244  HIT %:    42.6829  MISS %:    57.3171   MPKI: 0.23122
L2C PREFETCH  REQUESTED:          0  ISSUED:          0  USEFUL:       6509  USELESS:      32907
L2C USEFUL LOAD PREFETCHES:       6509 PREFETCH ISSUED TO LOWER LEVEL:      49025  ACCURACY: 13.2769
L2C TIMELY PREFETCHES:       6509 LATE PREFETCHES: 9611 DROPPED PREFETCHES: 0
L2C PREFETCHES SAME FILL-ORIGIN LEVEL: 19131 DIFFERENT FILL-ORIGIN LEVEL: 0
L2C AVERAGE MISS LATENCY: 65.4235 cycles
L2C RQ	ACCESS:    7614235	FORWARD:          0	MERGED:          0	TO_CACHE:    7614200
L2C WQ	ACCESS:    1273376	FORWARD:         95	MERGED:          0	TO_CACHE:    1273376
L2C PQ	ACCESS:     133083	FORWARD:          0	MERGED:          1	TO_CACHE:     133022

L2C Instructions Evicting Data 448421
L2C Translations Evicting Data 29061
L2C Data Evicting Data 602342
L2C Instructions Evicting Instructions 438165
L2C Translations Evicting Instructions 15877
L2C Data Evicting Instructions 414179
L2C Instructions Evicting Translations 16034
L2C Translations Evicting Translations 1306
L2C Data Evicting Translations 27689
L2C Dense regions hint from L2: 0
PSCL5 TOTAL     ACCESS:      52097  HIT:      52097  MISS:          0  HIT %:        100  MISS %:          0   MPKI: 0
PSCL5 LOAD TRANSLATION ACCESS:      52097  HIT:      52097  MISS:          0  HIT %:        100  MISS %:          0   MPKI: 0
PSCL5 PREFETCH  REQUESTED:          0  ISSUED:          0  USEFUL:          0  USELESS:          0
PSCL5 USEFUL LOAD PREFETCHES:          0 PREFETCH ISSUED TO LOWER LEVEL:          0  ACCURACY: -nan
PSCL5 TIMELY PREFETCHES:          0 LATE PREFETCHES: 0 DROPPED PREFETCHES: 0
PSCL5 PREFETCHES SAME FILL-ORIGIN LEVEL: 0 DIFFERENT FILL-ORIGIN LEVEL: 0

PSCL4 TOTAL     ACCESS:      50778  HIT:      50333  MISS:        445  HIT %:    99.1236  MISS %:   0.876364   MPKI: 0.002225
PSCL4 LOAD TRANSLATION ACCESS:      50778  HIT:      50333  MISS:        445  HIT %:    99.1236  MISS %:   0.876364   MPKI: 0.002225
PSCL4 PREFETCH  REQUESTED:          0  ISSUED:          0  USEFUL:          0  USELESS:          0
PSCL4 USEFUL LOAD PREFETCHES:          0 PREFETCH ISSUED TO LOWER LEVEL:          0  ACCURACY: -nan
PSCL4 TIMELY PREFETCHES:          0 LATE PREFETCHES: 0 DROPPED PREFETCHES: 0
PSCL4 PREFETCHES SAME FILL-ORIGIN LEVEL: 0 DIFFERENT FILL-ORIGIN LEVEL: 0

PSCL3 TOTAL     ACCESS:      48324  HIT:      40859  MISS:       7465  HIT %:    84.5522  MISS %:    15.4478   MPKI: 0.037325
PSCL3 LOAD TRANSLATION ACCESS:      48324  HIT:      40859  MISS:       7465  HIT %:    84.5522  MISS %:    15.4478   MPKI: 0.037325
PSCL3 PREFETCH  REQUESTED:          0  ISSUED:          0  USEFUL:          0  USELESS:          0
PSCL3 USEFUL LOAD PREFETCHES:          0 PREFETCH ISSUED TO LOWER LEVEL:          0  ACCURACY: -nan
PSCL3 TIMELY PREFETCHES:          0 LATE PREFETCHES: 0 DROPPED PREFETCHES: 0
PSCL3 PREFETCHES SAME FILL-ORIGIN LEVEL: 0 DIFFERENT FILL-ORIGIN LEVEL: 0

PSCL2 TOTAL     ACCESS:      52097  HIT:      31423  MISS:      20674  HIT %:    60.3163  MISS %:    39.6837   MPKI: 0.10337
PSCL2 LOAD TRANSLATION ACCESS:      52097  HIT:      31423  MISS:      20674  HIT %:    60.3163  MISS %:    39.6837   MPKI: 0.10337
PSCL2 PREFETCH  REQUESTED:          0  ISSUED:          0  USEFUL:          0  USELESS:          0
PSCL2 USEFUL LOAD PREFETCHES:          0 PREFETCH ISSUED TO LOWER LEVEL:          0  ACCURACY: -nan
PSCL2 TIMELY PREFETCHES:          0 LATE PREFETCHES: 0 DROPPED PREFETCHES: 0
PSCL2 PREFETCHES SAME FILL-ORIGIN LEVEL: 0 DIFFERENT FILL-ORIGIN LEVEL: 0

LLC TOTAL     ACCESS:    2573853  HIT:    2159801  MISS:     414052  HIT %:    83.9131  MISS %:    16.0869   MPKI: 2.07026
LLC LOAD      ACCESS:    1432232  HIT:    1242933  MISS:     189299  HIT %:    86.7829  MISS %:    13.2171   MPKI: 0.946495
LLC RFO       ACCESS:     465570  HIT:     291305  MISS:     174265  HIT %:    62.5695  MISS %:    37.4305   MPKI: 0.871325
LLC PREFETCH  ACCESS:      49025  HIT:      16095  MISS:      32930  HIT %:    32.8302  MISS %:    67.1698   MPKI: 0.16465
AGUS PREFETCH L1 MISS: 0
LLC WRITEBACK ACCESS:     580782  HIT:     572934  MISS:       7848  HIT %:    98.6487  MISS %:    1.35128   MPKI: 0.03924
LLC LOAD TRANSLATION ACCESS:      46244  HIT:      36534  MISS:       9710  HIT %:    79.0027  MISS %:    20.9973   MPKI: 0.04855
LLC PREFETCH  REQUESTED:          0  ISSUED:          0  USEFUL:        833  USELESS:      33458
LLC USEFUL LOAD PREFETCHES:        833 PREFETCH ISSUED TO LOWER LEVEL:      32930  ACCURACY: 2.52961
LLC TIMELY PREFETCHES:        833 LATE PREFETCHES: 0 DROPPED PREFETCHES: 0
LLC PREFETCHES SAME FILL-ORIGIN LEVEL: 0 DIFFERENT FILL-ORIGIN LEVEL: 0
LLC AVERAGE MISS LATENCY: 184.764 cycles
LLC RQ	ACCESS:    1944048	FORWARD:          0	MERGED:          0	TO_CACHE:    1944045
LLC WQ	ACCESS:     580782	FORWARD:          3	MERGED:          0	TO_CACHE:     580782
LLC PQ	ACCESS:      49025	FORWARD:          0	MERGED:          0	TO_CACHE:      49025

LLC Dense regions hint to LLC: 0

RAW hits: 2711028
Loads Generated: 57315464
Loads sent to L1D: 54604442
Stores Generated: 24630459
Stores sent to L1D: 24630455
Major fault: 0 Minor fault: 4769
Allocated PAGES: 4769
CPU 0 L1D PC-based stride prefetcher final stats
Degree: 3

DRAM Statistics
 CHANNEL 0
 RQ ROW_BUFFER_HIT:     147457  ROW_BUFFER_MISS:     258747
 DBUS_CONGESTED:        176
 WQ ROW_BUFFER_HIT:      40261  ROW_BUFFER_MISS:     173304  FULL:          0

 AVG_CONGESTED_CYCLE: 5
 All warmup complete: 2
Channel 0 Bank busy for read cycles: 0
Channel 0 Bank busy for write cycles: 0
Channel 0
Rank 0
0banks busy for read cycles: 418450383
0banks busy for write cycles: 83759
1banks busy for read cycles: 20296155
1banks busy for write cycles: 11982357
2banks busy for read cycles: 5097706
2banks busy for write cycles: 3325099
3banks busy for read cycles: 870128
3banks busy for write cycles: 917926
4banks busy for read cycles: 247104
4banks busy for write cycles: 396679
5banks busy for read cycles: 195160
5banks busy for write cycles: 212515
6banks busy for read cycles: 183481
6banks busy for write cycles: 143343
7banks busy for read cycles: 239106
7banks busy for write cycles: 195211
8banks busy for read cycles: 1076166
8banks busy for write cycles: 1464326

CPU 0 Branch Prediction Accuracy: 99.7584% MPKI: 0.42388 Average ROB Occupancy at Mispredict: 26.3313
Branch types
NOT_BRANCH: 164908862 82.4544%
BRANCH_DIRECT_JUMP: 2533222 1.26661%
BRANCH_INDIRECT: 13038560 6.51928%
BRANCH_CONDITIONAL: 10894809 5.4474%
BRANCH_DIRECT_CALL: 3018472 1.50924%
BRANCH_INDIRECT_CALL: 1293792 0.646896%
BRANCH_RETURN: 4312192 2.1561%
BRANCH_OTHER: 0 0%

DRAM PAGES: 1048576
Allocated PAGES: 4769
