
*** ChampSim Multicore Out-of-Order Simulator ***

Warmup Instructions: 50000000
Simulation Instructions: 200000000
Number of CPUs: 1
LLC sets: 2048
LLC ways: 16
Off-chip DRAM Size: 4096 MB Channels: 1 Width: 64-bit Data Rate: 6400 MT/s
CPU 0 runs traces/spec2k17/srv_33.champsimtrace.xz
.xz
BTB has LRU replacement policy
ITLB has LRU replacement policy
DTLB has LRU replacement policy
STLB has LRU replacement policy
L1I has LRU replacement policy
CPU 0 L1D IP-based stride prefetcher
L1D has LRU replacement policy
Initialize SRRIP state for L2C
Initialize DRRIP state for LLC
Heartbeat CPU 0 instructions: 10000001 cycles: 2938173 heartbeat IPC: 3.40348 cumulative IPC: 3.40348 (Simulation time: 0 hr 0 min 40 sec) 
Heartbeat CPU 0 instructions: 20000003 cycles: 5879636 heartbeat IPC: 3.39967 cumulative IPC: 3.40157 (Simulation time: 0 hr 1 min 20 sec) 
Heartbeat CPU 0 instructions: 30000000 cycles: 8815406 heartbeat IPC: 3.40626 cumulative IPC: 3.40313 (Simulation time: 0 hr 2 min 3 sec) 
*** Reached end of trace for Core: 0 Repeating trace: traces/spec2k17/srv_33.champsimtrace.xz
Heartbeat CPU 0 instructions: 40000002 cycles: 11751671 heartbeat IPC: 3.40569 cumulative IPC: 3.40377 (Simulation time: 0 hr 2 min 46 sec) 
Heartbeat CPU 0 instructions: 50000002 cycles: 14695300 heartbeat IPC: 3.39717 cumulative IPC: 3.40245 (Simulation time: 0 hr 3 min 27 sec) 

Warmup complete CPU 0 instructions: 50000002 cycles: 14695300 (Simulation time: 0 hr 3 min 27 sec) 

Heartbeat CPU 0 instructions: 60000000 cycles: 33919239 heartbeat IPC: 0.520185 cumulative IPC: 0.520185 (Simulation time: 0 hr 4 min 38 sec) 
*** Reached end of trace for Core: 0 Repeating trace: traces/spec2k17/srv_33.champsimtrace.xz
Heartbeat CPU 0 instructions: 70000000 cycles: 53062606 heartbeat IPC: 0.522374 cumulative IPC: 0.521277 (Simulation time: 0 hr 5 min 41 sec) 
Heartbeat CPU 0 instructions: 80000000 cycles: 72155901 heartbeat IPC: 0.523744 cumulative IPC: 0.522097 (Simulation time: 0 hr 6 min 54 sec) 
Heartbeat CPU 0 instructions: 90000001 cycles: 91264366 heartbeat IPC: 0.523328 cumulative IPC: 0.522404 (Simulation time: 0 hr 7 min 49 sec) 
*** Reached end of trace for Core: 0 Repeating trace: traces/spec2k17/srv_33.champsimtrace.xz
Heartbeat CPU 0 instructions: 100000000 cycles: 110372947 heartbeat IPC: 0.523325 cumulative IPC: 0.522588 (Simulation time: 0 hr 8 min 46 sec) 
Heartbeat CPU 0 instructions: 110000000 cycles: 129407977 heartbeat IPC: 0.525347 cumulative IPC: 0.523046 (Simulation time: 0 hr 9 min 56 sec) 
Heartbeat CPU 0 instructions: 120000000 cycles: 148553265 heartbeat IPC: 0.522322 cumulative IPC: 0.522942 (Simulation time: 0 hr 11 min 4 sec) 
*** Reached end of trace for Core: 0 Repeating trace: traces/spec2k17/srv_33.champsimtrace.xz
Heartbeat CPU 0 instructions: 130000002 cycles: 167640107 heartbeat IPC: 0.523921 cumulative IPC: 0.523064 (Simulation time: 0 hr 12 min 11 sec) 
Heartbeat CPU 0 instructions: 140000000 cycles: 186627025 heartbeat IPC: 0.526678 cumulative IPC: 0.523464 (Simulation time: 0 hr 13 min 12 sec) 
Heartbeat CPU 0 instructions: 150000001 cycles: 205679466 heartbeat IPC: 0.524867 cumulative IPC: 0.523604 (Simulation time: 0 hr 14 min 9 sec) 
Heartbeat CPU 0 instructions: 160000001 cycles: 224763519 heartbeat IPC: 0.523998 cumulative IPC: 0.523639 (Simulation time: 0 hr 15 min 13 sec) 
*** Reached end of trace for Core: 0 Repeating trace: traces/spec2k17/srv_33.champsimtrace.xz
Heartbeat CPU 0 instructions: 170000001 cycles: 243764008 heartbeat IPC: 0.526302 cumulative IPC: 0.52386 (Simulation time: 0 hr 16 min 22 sec) 
Heartbeat CPU 0 instructions: 180000003 cycles: 262893231 heartbeat IPC: 0.522761 cumulative IPC: 0.523776 (Simulation time: 0 hr 17 min 23 sec) 
Heartbeat CPU 0 instructions: 190000002 cycles: 281930985 heartbeat IPC: 0.525272 cumulative IPC: 0.523882 (Simulation time: 0 hr 18 min 33 sec) 
*** Reached end of trace for Core: 0 Repeating trace: traces/spec2k17/srv_33.champsimtrace.xz
Heartbeat CPU 0 instructions: 200000000 cycles: 300963644 heartbeat IPC: 0.525413 cumulative IPC: 0.523984 (Simulation time: 0 hr 19 min 36 sec) 
Heartbeat CPU 0 instructions: 210000001 cycles: 320052803 heartbeat IPC: 0.523858 cumulative IPC: 0.523976 (Simulation time: 0 hr 20 min 47 sec) 
Heartbeat CPU 0 instructions: 220000000 cycles: 339026823 heartbeat IPC: 0.527036 cumulative IPC: 0.524155 (Simulation time: 0 hr 21 min 55 sec) 
*** Reached end of trace for Core: 0 Repeating trace: traces/spec2k17/srv_33.champsimtrace.xz
Heartbeat CPU 0 instructions: 230000000 cycles: 358084868 heartbeat IPC: 0.524713 cumulative IPC: 0.524186 (Simulation time: 0 hr 23 min 1 sec) 
Heartbeat CPU 0 instructions: 240000001 cycles: 377181155 heartbeat IPC: 0.523662 cumulative IPC: 0.524158 (Simulation time: 0 hr 24 min 10 sec) 
Heartbeat CPU 0 instructions: 250000002 cycles: 396212465 heartbeat IPC: 0.52545 cumulative IPC: 0.524223 (Simulation time: 0 hr 25 min 16 sec) 
Finished CPU 0 instructions: 200000000 cycles: 381517165 cumulative IPC: 0.524223 (Simulation time: 0 hr 25 min 16 sec) 

ChampSim completed all CPUs

Region of Interest Statistics

CPU 0 cumulative IPC: 0.524223 instructions: 200000000 cycles: 381517165
ITLB TOTAL     ACCESS:   33759782  HIT:   32216884  MISS:    1542898  HIT %:    95.4298  MISS %:    4.57023   MPKI: 7.71449
ITLB LOAD TRANSLATION ACCESS:   33759782  HIT:   32216884  MISS:    1542898  HIT %:    95.4298  MISS %:    4.57023   MPKI: 7.71449
ITLB PREFETCH  REQUESTED:          0  ISSUED:          0  USEFUL:          0  USELESS:          0
ITLB USEFUL LOAD PREFETCHES:          0 PREFETCH ISSUED TO LOWER LEVEL:          0  ACCURACY: -nan
ITLB TIMELY PREFETCHES:          0 LATE PREFETCHES: 0 DROPPED PREFETCHES: 0
ITLB PREFETCHES SAME FILL-ORIGIN LEVEL: 0 DIFFERENT FILL-ORIGIN LEVEL: 0
ITLB AVERAGE MISS LATENCY: 9.23231 cycles
ITLB RQ	ACCESS:   40667873	FORWARD:          0	MERGED:    6411874	TO_CACHE:   34255999

DTLB TOTAL     ACCESS:   40051903  HIT:   38535654  MISS:    1516249  HIT %:    96.2143  MISS %:    3.78571   MPKI: 7.58125
DTLB LOAD TRANSLATION ACCESS:   40051903  HIT:   38535654  MISS:    1516249  HIT %:    96.2143  MISS %:    3.78571   MPKI: 7.58125
DTLB PREFETCH  REQUESTED:          0  ISSUED:          0  USEFUL:          0  USELESS:          0
DTLB USEFUL LOAD PREFETCHES:          0 PREFETCH ISSUED TO LOWER LEVEL:          0  ACCURACY: -nan
DTLB TIMELY PREFETCHES:          0 LATE PREFETCHES: 0 DROPPED PREFETCHES: 0
DTLB PREFETCHES SAME FILL-ORIGIN LEVEL: 0 DIFFERENT FILL-ORIGIN LEVEL: 0
DTLB AVERAGE MISS LATENCY: 14.4041 cycles
DTLB RQ	ACCESS:   61179015	FORWARD:          0	MERGED:   20721143	TO_CACHE:   40457872

STLB TOTAL     ACCESS:    4891070  HIT:    4817513  MISS:      73557  HIT %:    98.4961  MISS %:     1.5039   MPKI: 0.367785
STLB LOAD TRANSLATION ACCESS:    3059147  HIT:    2985590  MISS:      73557  HIT %:    97.5955  MISS %:    2.40449   MPKI: 0.367785
STLB TRANSLATION FROM L1D PREFETCHER ACCESS:    1831923  HIT:    1831923  MISS:          0  HIT %:        100  MISS %:          0   MPKI: 0
STLB PREFETCH  REQUESTED:          0  ISSUED:          0  USEFUL:          0  USELESS:          0
STLB USEFUL LOAD PREFETCHES:          0 PREFETCH ISSUED TO LOWER LEVEL:          0  ACCURACY: -nan
STLB TIMELY PREFETCHES:          0 LATE PREFETCHES: 0 DROPPED PREFETCHES: 0
STLB PREFETCHES SAME FILL-ORIGIN LEVEL: 0 DIFFERENT FILL-ORIGIN LEVEL: 0
STLB AVERAGE MISS LATENCY: 115.926 cycles
STLB RQ	ACCESS:    8924096	FORWARD:          0	MERGED:    4033026	TO_CACHE:    4891070

STLB Hit, L1D data hit: 0
STLB Hit, L2C data hit: 0
STLB Hit, LLC data hit: 0
STLB Hit, LLC data miss: 0
STLB STLB hints to L2: 0
L1D TOTAL     ACCESS:   53070988  HIT:   46284530  MISS:    6786458  HIT %:    87.2125  MISS %:    12.7875   MPKI: 33.9323
L1D LOAD      ACCESS:   26743686  HIT:   23903437  MISS:    2840249  HIT %:    89.3797  MISS %:    10.6203   MPKI: 14.2012
L1D RFO       ACCESS:   22234946  HIT:   18529456  MISS:    3705490  HIT %:    83.3348  MISS %:    16.6652   MPKI: 18.5275
L1D PREFETCH  ACCESS:    4092356  HIT:    3851637  MISS:     240719  HIT %:    94.1178  MISS %:    5.88216   MPKI: 1.20359
AGUS PREFETCH L1 MISS: 0
L1D PREFETCH  REQUESTED:   15090085  ISSUED:   15090082  USEFUL:     216254  USELESS:      24473
L1D USEFUL LOAD PREFETCHES:     216254 PREFETCH ISSUED TO LOWER LEVEL:    1325870  ACCURACY: 16.3103
L1D TIMELY PREFETCHES:     216254 LATE PREFETCHES: 509624 DROPPED PREFETCHES: 0
L1D PREFETCHES SAME FILL-ORIGIN LEVEL: 750343 DIFFERENT FILL-ORIGIN LEVEL: 575527
L1D AVERAGE MISS LATENCY: 1.54474e+07 cycles
L1D RQ	ACCESS:   45267637	FORWARD:          0	MERGED:   17849072	TO_CACHE:   27133516
L1D WQ	ACCESS:   34247148	FORWARD:     285049	MERGED:     201649	TO_CACHE:   34045499
L1D PQ	ACCESS:    9225133	FORWARD:          0	MERGED:    3360184	TO_CACHE:    5864949

L1D UNIQUE REGIONS ACCESSED: 0
L1D REGIONS CONFLICTS: 0
L1D Cross Page Prefetch Requests: 0
L1D Same Page Prefetch Requests: 10865368
L1D ROI Sum of L1D PQ occupancy: 79593945
L1D PREFETCHES PUSHED FROM L2C: 0
L1I TOTAL     ACCESS:   38008359  HIT:   28890224  MISS:    9118135  HIT %:    76.0102  MISS %:    23.9898   MPKI: 45.5907
L1I LOAD      ACCESS:   38008359  HIT:   28890224  MISS:    9118135  HIT %:    76.0102  MISS %:    23.9898   MPKI: 45.5907
L1I PREFETCH  REQUESTED:          0  ISSUED:          0  USEFUL:          0  USELESS:          0
L1I USEFUL LOAD PREFETCHES:          0 PREFETCH ISSUED TO LOWER LEVEL:          0  ACCURACY: -nan
L1I TIMELY PREFETCHES:          0 LATE PREFETCHES: 0 DROPPED PREFETCHES: 0
L1I PREFETCHES SAME FILL-ORIGIN LEVEL: 0 DIFFERENT FILL-ORIGIN LEVEL: 0
L1I AVERAGE MISS LATENCY: 16.5258 cycles
L1I RQ	ACCESS:   58937759	FORWARD:          0	MERGED:   18269886	TO_CACHE:   40667873

BTB TOTAL     ACCESS:   25663217  HIT:   24125509  MISS:    1537708  HIT %:    94.0081  MISS %:    5.99188   MPKI: 7.68854
BTB BRANCH_DIRECT_JUMP	ACCESS:    1661208  HIT:    1651586  MISS:       9622
BTB BRANCH_INDIRECT	ACCESS:    9967593  HIT:    9459764  MISS:     507829
BTB BRANCH_CONDITIONAL	ACCESS:    7198622  HIT:    7185146  MISS:      13476
BTB BRANCH_DIRECT_CALL	ACCESS:    2825210  HIT:    2791882  MISS:      33328
BTB BRANCH_INDIRECT_CALL	ACCESS:     592633  HIT:     481147  MISS:     111486
BTB BRANCH_RETURN	ACCESS:    3417951  HIT:    2555984  MISS:     861967
BTB BRANCH_OTHER ACCESS:          0  HIT:          0  MISS:          0

L2C TOTAL     ACCESS:   20701741  HIT:   14046529  MISS:    6655212  HIT %:    67.8519  MISS %:    32.1481   MPKI: 33.2761
L2C LOAD      ACCESS:   11448628  HIT:    9342555  MISS:    2106073  HIT %:    81.6041  MISS %:    18.3959   MPKI: 10.5304
L2C DATA LOAD MPKI: 7.71058
L2C INSTRUCTION LOAD MPKI: 2.81978
L2C RFO       ACCESS:    3705490  HIT:     166868  MISS:    3538622  HIT %:    4.50326  MISS %:    95.4967   MPKI: 17.6931
L2C PREFETCH  ACCESS:    1112419  HIT:     290435  MISS:     821984  HIT %:    26.1084  MISS %:    73.8916   MPKI: 4.10992
AGUS PREFETCH L1 MISS: 0
L2C DATA PREFETCH MPKI: 4.10992
L2C INSTRUCTION PREFETCH MPKI: 0
L2C WRITEBACK ACCESS:    4353575  HIT:    4201544  MISS:     152031  HIT %:    96.5079  MISS %:     3.4921   MPKI: 0.760155
L2C LOAD TRANSLATION ACCESS:      81629  HIT:      45127  MISS:      36502  HIT %:     55.283  MISS %:     44.717   MPKI: 0.18251
L2C PREFETCH  REQUESTED:          0  ISSUED:          0  USEFUL:     144484  USELESS:     677641
L2C USEFUL LOAD PREFETCHES:     144484 PREFETCH ISSUED TO LOWER LEVEL:     933261  ACCURACY: 15.4816
L2C TIMELY PREFETCHES:     144484 LATE PREFETCHES: 111274 DROPPED PREFETCHES: 0
L2C PREFETCHES SAME FILL-ORIGIN LEVEL: 377419 DIFFERENT FILL-ORIGIN LEVEL: 0
L2C AVERAGE MISS LATENCY: 159.763 cycles
L2C RQ	ACCESS:   15235879	FORWARD:          0	MERGED:          0	TO_CACHE:   15235748
L2C WQ	ACCESS:    4353575	FORWARD:        131	MERGED:          0	TO_CACHE:    4353575
L2C PQ	ACCESS:    1325870	FORWARD:          0	MERGED:         37	TO_CACHE:    1325833

L2C Instructions Evicting Data 516903
L2C Translations Evicting Data 33289
L2C Data Evicting Data 5368186
L2C Instructions Evicting Instructions 44198
L2C Translations Evicting Instructions 3072
L2C Data Evicting Instructions 501603
L2C Instructions Evicting Translations 2856
L2C Translations Evicting Translations 141
L2C Data Evicting Translations 32933
L2C Dense regions hint from L2: 0
PSCL5 TOTAL     ACCESS:      73557  HIT:      73557  MISS:          0  HIT %:        100  MISS %:          0   MPKI: 0
PSCL5 LOAD TRANSLATION ACCESS:      73557  HIT:      73557  MISS:          0  HIT %:        100  MISS %:          0   MPKI: 0
PSCL5 PREFETCH  REQUESTED:          0  ISSUED:          0  USEFUL:          0  USELESS:          0
PSCL5 USEFUL LOAD PREFETCHES:          0 PREFETCH ISSUED TO LOWER LEVEL:          0  ACCURACY: -nan
PSCL5 TIMELY PREFETCHES:          0 LATE PREFETCHES: 0 DROPPED PREFETCHES: 0
PSCL5 PREFETCHES SAME FILL-ORIGIN LEVEL: 0 DIFFERENT FILL-ORIGIN LEVEL: 0

PSCL4 TOTAL     ACCESS:      63813  HIT:      63719  MISS:         94  HIT %:    99.8527  MISS %:   0.147305   MPKI: 0.00047
PSCL4 LOAD TRANSLATION ACCESS:      63813  HIT:      63719  MISS:         94  HIT %:    99.8527  MISS %:   0.147305   MPKI: 0.00047
PSCL4 PREFETCH  REQUESTED:          0  ISSUED:          0  USEFUL:          0  USELESS:          0
PSCL4 USEFUL LOAD PREFETCHES:          0 PREFETCH ISSUED TO LOWER LEVEL:          0  ACCURACY: -nan
PSCL4 TIMELY PREFETCHES:          0 LATE PREFETCHES: 0 DROPPED PREFETCHES: 0
PSCL4 PREFETCHES SAME FILL-ORIGIN LEVEL: 0 DIFFERENT FILL-ORIGIN LEVEL: 0

PSCL3 TOTAL     ACCESS:      73539  HIT:      73354  MISS:        185  HIT %:    99.7484  MISS %:   0.251567   MPKI: 0.000925
PSCL3 LOAD TRANSLATION ACCESS:      73539  HIT:      73354  MISS:        185  HIT %:    99.7484  MISS %:   0.251567   MPKI: 0.000925
PSCL3 PREFETCH  REQUESTED:          0  ISSUED:          0  USEFUL:          0  USELESS:          0
PSCL3 USEFUL LOAD PREFETCHES:          0 PREFETCH ISSUED TO LOWER LEVEL:          0  ACCURACY: -nan
PSCL3 TIMELY PREFETCHES:          0 LATE PREFETCHES: 0 DROPPED PREFETCHES: 0
PSCL3 PREFETCHES SAME FILL-ORIGIN LEVEL: 0 DIFFERENT FILL-ORIGIN LEVEL: 0

PSCL2 TOTAL     ACCESS:      73557  HIT:      65764  MISS:       7793  HIT %:    89.4055  MISS %:    10.5945   MPKI: 0.038965
PSCL2 LOAD TRANSLATION ACCESS:      73557  HIT:      65764  MISS:       7793  HIT %:    89.4055  MISS %:    10.5945   MPKI: 0.038965
PSCL2 PREFETCH  REQUESTED:          0  ISSUED:          0  USEFUL:          0  USELESS:          0
PSCL2 USEFUL LOAD PREFETCHES:          0 PREFETCH ISSUED TO LOWER LEVEL:          0  ACCURACY: -nan
PSCL2 TIMELY PREFETCHES:          0 LATE PREFETCHES: 0 DROPPED PREFETCHES: 0
PSCL2 PREFETCHES SAME FILL-ORIGIN LEVEL: 0 DIFFERENT FILL-ORIGIN LEVEL: 0

LLC TOTAL     ACCESS:   10541672  HIT:    4208733  MISS:    6332939  HIT %:    39.9247  MISS %:    60.0753   MPKI: 31.6647
LLC LOAD      ACCESS:    1994795  HIT:    1625509  MISS:     369286  HIT %:    81.4875  MISS %:    18.5125   MPKI: 1.84643
LLC RFO       ACCESS:    3538598  HIT:     969144  MISS:    2569454  HIT %:    27.3878  MISS %:    72.6122   MPKI: 12.8473
LLC PREFETCH  ACCESS:     933257  HIT:      64830  MISS:     868427  HIT %:    6.94664  MISS %:    93.0534   MPKI: 4.34213
AGUS PREFETCH L1 MISS: 0
LLC WRITEBACK ACCESS:    4038520  HIT:    1538950  MISS:    2499570  HIT %:    38.1068  MISS %:    61.8932   MPKI: 12.4978
LLC LOAD TRANSLATION ACCESS:      36502  HIT:      10300  MISS:      26202  HIT %:    28.2176  MISS %:    71.7824   MPKI: 0.13101
LLC PREFETCH  REQUESTED:          0  ISSUED:          0  USEFUL:       1793  USELESS:     867126
LLC USEFUL LOAD PREFETCHES:       1793 PREFETCH ISSUED TO LOWER LEVEL:     868431  ACCURACY: 0.206464
LLC TIMELY PREFETCHES:       1793 LATE PREFETCHES: 0 DROPPED PREFETCHES: 0
LLC PREFETCHES SAME FILL-ORIGIN LEVEL: 0 DIFFERENT FILL-ORIGIN LEVEL: 0
LLC AVERAGE MISS LATENCY: 138.312 cycles
LLC RQ	ACCESS:    5569924	FORWARD:          0	MERGED:          0	TO_CACHE:    5569895
LLC WQ	ACCESS:    4038521	FORWARD:         29	MERGED:          0	TO_CACHE:    4038521
LLC PQ	ACCESS:     933261	FORWARD:          0	MERGED:          0	TO_CACHE:     933261

LLC Dense regions hint to LLC: 0

RAW hits: 2460306
Loads Generated: 47727944
Loads sent to L1D: 45267637
Stores Generated: 34247174
Stores sent to L1D: 34247148
Major fault: 0 Minor fault: 8597
Allocated PAGES: 8597
CPU 0 L1D PC-based stride prefetcher final stats
Degree: 3

DRAM Statistics
 CHANNEL 0
 RQ ROW_BUFFER_HIT:    1905567  ROW_BUFFER_MISS:    1927320
 DBUS_CONGESTED:       2287
 WQ ROW_BUFFER_HIT:     527648  ROW_BUFFER_MISS:    2108146  FULL:      66760

 AVG_CONGESTED_CYCLE: 3
 All warmup complete: 2
Channel 0 Bank busy for read cycles: 0
Channel 0 Bank busy for write cycles: 0
Channel 0
Rank 0
0banks busy for read cycles: 177981246
0banks busy for write cycles: 271866
1banks busy for read cycles: 27370458
1banks busy for write cycles: 38228758
2banks busy for read cycles: 11120181
2banks busy for write cycles: 13161681
3banks busy for read cycles: 14280482
3banks busy for write cycles: 5526840
4banks busy for read cycles: 5434308
4banks busy for write cycles: 3403887
5banks busy for read cycles: 4512368
5banks busy for write cycles: 2986500
6banks busy for read cycles: 5321124
6banks busy for write cycles: 3008782
7banks busy for read cycles: 7709918
7banks busy for write cycles: 5526147
8banks busy for read cycles: 21154867
8banks busy for write cycles: 34517753

CPU 0 Branch Prediction Accuracy: 99.9491% MPKI: 0.0777 Average ROB Occupancy at Mispredict: 121.873
Branch types
NOT_BRANCH: 169471465 84.7357%
BRANCH_DIRECT_JUMP: 1661208 0.830604%
BRANCH_INDIRECT: 9967593 4.9838%
BRANCH_CONDITIONAL: 12063902 6.03195%
BRANCH_DIRECT_CALL: 2825210 1.41261%
BRANCH_INDIRECT_CALL: 592633 0.296316%
BRANCH_RETURN: 3417951 1.70898%
BRANCH_OTHER: 0 0%

DRAM PAGES: 1048576
Allocated PAGES: 8597
