
*** ChampSim Multicore Out-of-Order Simulator ***

Warmup Instructions: 50000000
Simulation Instructions: 200000000
Number of CPUs: 1
LLC sets: 2048
LLC ways: 16
Off-chip DRAM Size: 4096 MB Channels: 1 Width: 64-bit Data Rate: 6400 MT/s
CPU 0 runs traces/spec2k17/srv_29.champsimtrace.xz
.xz
BTB has LRU replacement policy
ITLB has LRU replacement policy
DTLB has LRU replacement policy
STLB has LRU replacement policy
L1I has LRU replacement policy
CPU 0 L1D IP-based stride prefetcher
L1D has LRU replacement policy
Initialize SRRIP state for L2C
Initialize DRRIP state for LLC
Heartbeat CPU 0 instructions: 10000000 cycles: 2808499 heartbeat IPC: 3.56062 cumulative IPC: 3.56062 (Simulation time: 0 hr 0 min 39 sec) 
Heartbeat CPU 0 instructions: 20000000 cycles: 5612721 heartbeat IPC: 3.56605 cumulative IPC: 3.56333 (Simulation time: 0 hr 1 min 21 sec) 
Heartbeat CPU 0 instructions: 30000003 cycles: 8419379 heartbeat IPC: 3.56296 cumulative IPC: 3.56321 (Simulation time: 0 hr 2 min 7 sec) 
*** Reached end of trace for Core: 0 Repeating trace: traces/spec2k17/srv_29.champsimtrace.xz
Heartbeat CPU 0 instructions: 40000000 cycles: 11224790 heartbeat IPC: 3.56454 cumulative IPC: 3.56354 (Simulation time: 0 hr 2 min 48 sec) 
Heartbeat CPU 0 instructions: 50000000 cycles: 14029439 heartbeat IPC: 3.56551 cumulative IPC: 3.56393 (Simulation time: 0 hr 3 min 30 sec) 

Warmup complete CPU 0 instructions: 50000004 cycles: 14029440 (Simulation time: 0 hr 3 min 30 sec) 

Heartbeat CPU 0 instructions: 60000001 cycles: 28050942 heartbeat IPC: 0.71319 cumulative IPC: 0.71319 (Simulation time: 0 hr 4 min 16 sec) 
*** Reached end of trace for Core: 0 Repeating trace: traces/spec2k17/srv_29.champsimtrace.xz
Heartbeat CPU 0 instructions: 70000000 cycles: 42156673 heartbeat IPC: 0.708932 cumulative IPC: 0.711055 (Simulation time: 0 hr 5 min 4 sec) 
Heartbeat CPU 0 instructions: 80000000 cycles: 56099032 heartbeat IPC: 0.717239 cumulative IPC: 0.713104 (Simulation time: 0 hr 5 min 55 sec) 
Heartbeat CPU 0 instructions: 90000000 cycles: 70038008 heartbeat IPC: 0.717413 cumulative IPC: 0.714176 (Simulation time: 0 hr 6 min 47 sec) 
*** Reached end of trace for Core: 0 Repeating trace: traces/spec2k17/srv_29.champsimtrace.xz
Heartbeat CPU 0 instructions: 100000001 cycles: 84056100 heartbeat IPC: 0.713364 cumulative IPC: 0.714014 (Simulation time: 0 hr 7 min 33 sec) 
Heartbeat CPU 0 instructions: 110000000 cycles: 97743660 heartbeat IPC: 0.73059 cumulative IPC: 0.716724 (Simulation time: 0 hr 8 min 20 sec) 
Heartbeat CPU 0 instructions: 120000002 cycles: 111965464 heartbeat IPC: 0.703146 cumulative IPC: 0.714752 (Simulation time: 0 hr 9 min 5 sec) 
*** Reached end of trace for Core: 0 Repeating trace: traces/spec2k17/srv_29.champsimtrace.xz
Heartbeat CPU 0 instructions: 130000002 cycles: 125892715 heartbeat IPC: 0.718017 cumulative IPC: 0.715159 (Simulation time: 0 hr 9 min 52 sec) 
Heartbeat CPU 0 instructions: 140000001 cycles: 139676871 heartbeat IPC: 0.725471 cumulative IPC: 0.71629 (Simulation time: 0 hr 10 min 39 sec) 
Heartbeat CPU 0 instructions: 150000001 cycles: 153887370 heartbeat IPC: 0.703705 cumulative IPC: 0.715011 (Simulation time: 0 hr 11 min 32 sec) 
*** Reached end of trace for Core: 0 Repeating trace: traces/spec2k17/srv_29.champsimtrace.xz
Heartbeat CPU 0 instructions: 160000001 cycles: 167859534 heartbeat IPC: 0.715709 cumulative IPC: 0.715075 (Simulation time: 0 hr 12 min 20 sec) 
Heartbeat CPU 0 instructions: 170000001 cycles: 181605487 heartbeat IPC: 0.727487 cumulative IPC: 0.716093 (Simulation time: 0 hr 13 min 6 sec) 
Heartbeat CPU 0 instructions: 180000001 cycles: 195573563 heartbeat IPC: 0.715918 cumulative IPC: 0.716079 (Simulation time: 0 hr 13 min 54 sec) 
Heartbeat CPU 0 instructions: 190000000 cycles: 209459331 heartbeat IPC: 0.720162 cumulative IPC: 0.716369 (Simulation time: 0 hr 14 min 43 sec) 
*** Reached end of trace for Core: 0 Repeating trace: traces/spec2k17/srv_29.champsimtrace.xz
Heartbeat CPU 0 instructions: 200000003 cycles: 223521046 heartbeat IPC: 0.711151 cumulative IPC: 0.716019 (Simulation time: 0 hr 15 min 31 sec) 
Heartbeat CPU 0 instructions: 210000003 cycles: 237452437 heartbeat IPC: 0.717803 cumulative IPC: 0.71613 (Simulation time: 0 hr 16 min 20 sec) 
Heartbeat CPU 0 instructions: 220000000 cycles: 251352195 heartbeat IPC: 0.719437 cumulative IPC: 0.716324 (Simulation time: 0 hr 17 min 7 sec) 
*** Reached end of trace for Core: 0 Repeating trace: traces/spec2k17/srv_29.champsimtrace.xz
Heartbeat CPU 0 instructions: 230000002 cycles: 265409936 heartbeat IPC: 0.711352 cumulative IPC: 0.716046 (Simulation time: 0 hr 17 min 50 sec) 
Heartbeat CPU 0 instructions: 240000001 cycles: 279327755 heartbeat IPC: 0.718503 cumulative IPC: 0.716175 (Simulation time: 0 hr 18 min 36 sec) 
Heartbeat CPU 0 instructions: 250000002 cycles: 293236249 heartbeat IPC: 0.718985 cumulative IPC: 0.716315 (Simulation time: 0 hr 19 min 23 sec) 
Finished CPU 0 instructions: 200000002 cycles: 279206810 cumulative IPC: 0.716315 (Simulation time: 0 hr 19 min 23 sec) 

ChampSim completed all CPUs

Region of Interest Statistics

CPU 0 cumulative IPC: 0.716315 instructions: 200000002 cycles: 279206810
ITLB TOTAL     ACCESS:   32454364  HIT:   32344907  MISS:     109457  HIT %:    99.6627  MISS %:   0.337264   MPKI: 0.547285
ITLB LOAD TRANSLATION ACCESS:   32454364  HIT:   32344907  MISS:     109457  HIT %:    99.6627  MISS %:   0.337264   MPKI: 0.547285
ITLB PREFETCH  REQUESTED:          0  ISSUED:          0  USEFUL:          0  USELESS:          0
ITLB USEFUL LOAD PREFETCHES:          0 PREFETCH ISSUED TO LOWER LEVEL:          0  ACCURACY: -nan
ITLB TIMELY PREFETCHES:          0 LATE PREFETCHES: 0 DROPPED PREFETCHES: 0
ITLB PREFETCHES SAME FILL-ORIGIN LEVEL: 0 DIFFERENT FILL-ORIGIN LEVEL: 0
ITLB AVERAGE MISS LATENCY: 10.5809 cycles
ITLB RQ	ACCESS:   38255544	FORWARD:          0	MERGED:    5765498	TO_CACHE:   32490046

DTLB TOTAL     ACCESS:   40742571  HIT:   38934248  MISS:    1808323  HIT %:    95.5616  MISS %:    4.43841   MPKI: 9.04161
DTLB LOAD TRANSLATION ACCESS:   40742571  HIT:   38934248  MISS:    1808323  HIT %:    95.5616  MISS %:    4.43841   MPKI: 9.04161
DTLB PREFETCH  REQUESTED:          0  ISSUED:          0  USEFUL:          0  USELESS:          0
DTLB USEFUL LOAD PREFETCHES:          0 PREFETCH ISSUED TO LOWER LEVEL:          0  ACCURACY: -nan
DTLB TIMELY PREFETCHES:          0 LATE PREFETCHES: 0 DROPPED PREFETCHES: 0
DTLB PREFETCHES SAME FILL-ORIGIN LEVEL: 0 DIFFERENT FILL-ORIGIN LEVEL: 0
DTLB AVERAGE MISS LATENCY: 10.7589 cycles
DTLB RQ	ACCESS:   54739548	FORWARD:          0	MERGED:   13794396	TO_CACHE:   40945152

STLB TOTAL     ACCESS:    3454916  HIT:    3367472  MISS:      87444  HIT %:     97.469  MISS %:      2.531   MPKI: 0.43722
STLB LOAD TRANSLATION ACCESS:    1917780  HIT:    1830346  MISS:      87434  HIT %:    95.4409  MISS %:    4.55913   MPKI: 0.43717
STLB TRANSLATION FROM L1D PREFETCHER ACCESS:    1537136  HIT:    1537126  MISS:         10  HIT %:    99.9993  MISS %: 0.000650561   MPKI: 5e-05
STLB PREFETCH  REQUESTED:          0  ISSUED:          0  USEFUL:         10  USELESS:          0
STLB USEFUL LOAD PREFETCHES:         10 PREFETCH ISSUED TO LOWER LEVEL:          0  ACCURACY: inf
STLB TIMELY PREFETCHES:         10 LATE PREFETCHES: 0 DROPPED PREFETCHES: 0
STLB PREFETCHES SAME FILL-ORIGIN LEVEL: 0 DIFFERENT FILL-ORIGIN LEVEL: 0
STLB AVERAGE MISS LATENCY: 38.3076 cycles
STLB RQ	ACCESS:    7748621	FORWARD:          0	MERGED:    4293706	TO_CACHE:    3454915

STLB Hit, L1D data hit: 0
STLB Hit, L2C data hit: 0
STLB Hit, LLC data hit: 0
STLB Hit, LLC data miss: 0
STLB STLB hints to L2: 0
L1D TOTAL     ACCESS:   59775686  HIT:   59233828  MISS:     541858  HIT %:    99.0935  MISS %:   0.906486   MPKI: 2.70929
L1D LOAD      ACCESS:   30673776  HIT:   30316690  MISS:     357086  HIT %:    98.8359  MISS %:    1.16414   MPKI: 1.78543
L1D RFO       ACCESS:   23393911  HIT:   23249787  MISS:     144124  HIT %:    99.3839  MISS %:   0.616075   MPKI: 0.72062
L1D PREFETCH  ACCESS:    5707999  HIT:    5667351  MISS:      40648  HIT %:    99.2879  MISS %:   0.712123   MPKI: 0.20324
AGUS PREFETCH L1 MISS: 0
L1D PREFETCH  REQUESTED:   14507602  ISSUED:   14507602  USEFUL:      36204  USELESS:       4449
L1D USEFUL LOAD PREFETCHES:      36204 PREFETCH ISSUED TO LOWER LEVEL:     106315  ACCURACY: 34.0535
L1D TIMELY PREFETCHES:      36204 LATE PREFETCHES: 19183 DROPPED PREFETCHES: 0
L1D PREFETCHES SAME FILL-ORIGIN LEVEL: 59831 DIFFERENT FILL-ORIGIN LEVEL: 46484
L1D AVERAGE MISS LATENCY: 5.41149e+06 cycles
L1D RQ	ACCESS:   49526566	FORWARD:          0	MERGED:   18613220	TO_CACHE:   30790207
L1D WQ	ACCESS:   24205930	FORWARD:     123139	MERGED:     256589	TO_CACHE:   23949341
L1D PQ	ACCESS:    8676761	FORWARD:          0	MERGED:    2845920	TO_CACHE:    5830841

L1D UNIQUE REGIONS ACCESSED: 0
L1D REGIONS CONFLICTS: 0
L1D Cross Page Prefetch Requests: 0
L1D Same Page Prefetch Requests: 11135613
L1D ROI Sum of L1D PQ occupancy: 76030070
L1D PREFETCHES PUSHED FROM L2C: 0
L1I TOTAL     ACCESS:   38056844  HIT:   37399380  MISS:     657464  HIT %:    98.2724  MISS %:    1.72758   MPKI: 3.28732
L1I LOAD      ACCESS:   38056844  HIT:   37399380  MISS:     657464  HIT %:    98.2724  MISS %:    1.72758   MPKI: 3.28732
L1I PREFETCH  REQUESTED:          0  ISSUED:          0  USEFUL:          0  USELESS:          0
L1I USEFUL LOAD PREFETCHES:          0 PREFETCH ISSUED TO LOWER LEVEL:          0  ACCURACY: -nan
L1I TIMELY PREFETCHES:          0 LATE PREFETCHES: 0 DROPPED PREFETCHES: 0
L1I PREFETCHES SAME FILL-ORIGIN LEVEL: 0 DIFFERENT FILL-ORIGIN LEVEL: 0
L1I AVERAGE MISS LATENCY: 16.7988 cycles
L1I RQ	ACCESS:   60427992	FORWARD:          0	MERGED:   22172448	TO_CACHE:   38255544

BTB TOTAL     ACCESS:   29558552  HIT:   27898491  MISS:    1660061  HIT %:    94.3838  MISS %:    5.61618   MPKI: 8.3003
BTB BRANCH_DIRECT_JUMP	ACCESS:    2284609  HIT:    2283159  MISS:       1450
BTB BRANCH_INDIRECT	ACCESS:   12524838  HIT:   11977687  MISS:     547151
BTB BRANCH_CONDITIONAL	ACCESS:    7193896  HIT:    7191833  MISS:       2063
BTB BRANCH_DIRECT_CALL	ACCESS:    3327862  HIT:    3324183  MISS:       3679
BTB BRANCH_INDIRECT_CALL	ACCESS:     449728  HIT:     256600  MISS:     193128
BTB BRANCH_RETURN	ACCESS:    3777619  HIT:    2865029  MISS:     912590
BTB BRANCH_OTHER ACCESS:          0  HIT:          0  MISS:          0

L2C TOTAL     ACCESS:    1532766  HIT:     988495  MISS:     544271  HIT %:    64.4909  MISS %:    35.5091   MPKI: 2.72135
L2C LOAD      ACCESS:     995226  HIT:     669712  MISS:     325514  HIT %:    67.2925  MISS %:    32.7075   MPKI: 1.62757
L2C DATA LOAD MPKI: 1.41853
L2C INSTRUCTION LOAD MPKI: 0.20904
L2C RFO       ACCESS:     144118  HIT:      10509  MISS:     133609  HIT %:    7.29194  MISS %:    92.7081   MPKI: 0.668045
L2C PREFETCH  ACCESS:      77226  HIT:      27425  MISS:      49801  HIT %:    35.5127  MISS %:    64.4873   MPKI: 0.249005
AGUS PREFETCH L1 MISS: 0
L2C DATA PREFETCH MPKI: 0.249005
L2C INSTRUCTION PREFETCH MPKI: 0
L2C WRITEBACK ACCESS:     190888  HIT:     184128  MISS:       6760  HIT %:    96.4587  MISS %:    3.54134   MPKI: 0.0338
L2C LOAD TRANSLATION ACCESS:     125288  HIT:      96716  MISS:      28572  HIT %:    77.1949  MISS %:    22.8051   MPKI: 0.14286
L2C TRANSLATION FROM L1D PREFETCHER ACCESS:         20  HIT:          5  MISS:         15  HIT %:         25  MISS %:         75   MPKI: 7.5e-05
L2C PREFETCH  REQUESTED:          0  ISSUED:          0  USEFUL:       9783  USELESS:      40399
L2C USEFUL LOAD PREFETCHES:       9783 PREFETCH ISSUED TO LOWER LEVEL:      65522  ACCURACY: 14.9309
L2C TIMELY PREFETCHES:       9783 LATE PREFETCHES: 15721 DROPPED PREFETCHES: 0
L2C PREFETCHES SAME FILL-ORIGIN LEVEL: 32037 DIFFERENT FILL-ORIGIN LEVEL: 0
L2C AVERAGE MISS LATENCY: 113.248 cycles
L2C RQ	ACCESS:    1264799	FORWARD:          0	MERGED:          0	TO_CACHE:    1264652
L2C WQ	ACCESS:     190888	FORWARD:        147	MERGED:          0	TO_CACHE:     190888
L2C PQ	ACCESS:     106315	FORWARD:          0	MERGED:          1	TO_CACHE:     106314

L2C Instructions Evicting Data 36651
L2C Translations Evicting Data 24656
L2C Data Evicting Data 406506
L2C Instructions Evicting Instructions 2764
L2C Translations Evicting Instructions 2681
L2C Data Evicting Instructions 36414
L2C Instructions Evicting Translations 2393
L2C Translations Evicting Translations 1250
L2C Data Evicting Translations 24196
L2C Dense regions hint from L2: 0
PSCL5 TOTAL     ACCESS:      87444  HIT:      87444  MISS:          0  HIT %:        100  MISS %:          0   MPKI: 0
PSCL5 LOAD TRANSLATION ACCESS:      87434  HIT:      87434  MISS:          0  HIT %:        100  MISS %:          0   MPKI: 0
PSCL5 TRANSLATION FROM L1D PREFETCHER ACCESS:         10  HIT:         10  MISS:          0  HIT %:        100  MISS %:          0   MPKI: 0
PSCL5 PREFETCH  REQUESTED:          0  ISSUED:          0  USEFUL:          0  USELESS:          0
PSCL5 USEFUL LOAD PREFETCHES:          0 PREFETCH ISSUED TO LOWER LEVEL:          0  ACCURACY: -nan
PSCL5 TIMELY PREFETCHES:          0 LATE PREFETCHES: 0 DROPPED PREFETCHES: 0
PSCL5 PREFETCHES SAME FILL-ORIGIN LEVEL: 0 DIFFERENT FILL-ORIGIN LEVEL: 0

PSCL4 TOTAL     ACCESS:      83846  HIT:      83698  MISS:        148  HIT %:    99.8235  MISS %:   0.176514   MPKI: 0.00074
PSCL4 LOAD TRANSLATION ACCESS:      83836  HIT:      83688  MISS:        148  HIT %:    99.8235  MISS %:   0.176535   MPKI: 0.00074
PSCL4 TRANSLATION FROM L1D PREFETCHER ACCESS:         10  HIT:         10  MISS:          0  HIT %:        100  MISS %:          0   MPKI: 0
PSCL4 PREFETCH  REQUESTED:          0  ISSUED:          0  USEFUL:          0  USELESS:          0
PSCL4 USEFUL LOAD PREFETCHES:          0 PREFETCH ISSUED TO LOWER LEVEL:          0  ACCURACY: -nan
PSCL4 TIMELY PREFETCHES:          0 LATE PREFETCHES: 0 DROPPED PREFETCHES: 0
PSCL4 PREFETCHES SAME FILL-ORIGIN LEVEL: 0 DIFFERENT FILL-ORIGIN LEVEL: 0

PSCL3 TOTAL     ACCESS:      87191  HIT:      86764  MISS:        427  HIT %:    99.5103  MISS %:   0.489729   MPKI: 0.002135
PSCL3 LOAD TRANSLATION ACCESS:      87183  HIT:      86756  MISS:        427  HIT %:    99.5102  MISS %:   0.489774   MPKI: 0.002135
PSCL3 TRANSLATION FROM L1D PREFETCHER ACCESS:          8  HIT:          8  MISS:          0  HIT %:        100  MISS %:          0   MPKI: 0
PSCL3 PREFETCH  REQUESTED:          0  ISSUED:          0  USEFUL:          0  USELESS:          0
PSCL3 USEFUL LOAD PREFETCHES:          0 PREFETCH ISSUED TO LOWER LEVEL:          0  ACCURACY: -nan
PSCL3 TIMELY PREFETCHES:          0 LATE PREFETCHES: 0 DROPPED PREFETCHES: 0
PSCL3 PREFETCHES SAME FILL-ORIGIN LEVEL: 0 DIFFERENT FILL-ORIGIN LEVEL: 0

PSCL2 TOTAL     ACCESS:      87444  HIT:      50155  MISS:      37289  HIT %:    57.3567  MISS %:    42.6433   MPKI: 0.186445
PSCL2 LOAD TRANSLATION ACCESS:      87442  HIT:      50153  MISS:      37289  HIT %:    57.3557  MISS %:    42.6443   MPKI: 0.186445
PSCL2 TRANSLATION FROM L1D PREFETCHER ACCESS:          2  HIT:          2  MISS:          0  HIT %:        100  MISS %:          0   MPKI: 0
PSCL2 PREFETCH  REQUESTED:          0  ISSUED:          0  USEFUL:          0  USELESS:          0
PSCL2 USEFUL LOAD PREFETCHES:          0 PREFETCH ISSUED TO LOWER LEVEL:          0  ACCURACY: -nan
PSCL2 TIMELY PREFETCHES:          0 LATE PREFETCHES: 0 DROPPED PREFETCHES: 0
PSCL2 PREFETCHES SAME FILL-ORIGIN LEVEL: 0 DIFFERENT FILL-ORIGIN LEVEL: 0

LLC TOTAL     ACCESS:     708621  HIT:     408302  MISS:     300319  HIT %:    57.6192  MISS %:    42.3808   MPKI: 1.50159
LLC LOAD      ACCESS:     309792  HIT:     113977  MISS:     195815  HIT %:    36.7915  MISS %:    63.2085   MPKI: 0.979075
LLC RFO       ACCESS:     133609  HIT:      77885  MISS:      55724  HIT %:    58.2932  MISS %:    41.7068   MPKI: 0.27862
LLC PREFETCH  ACCESS:      65522  HIT:      20666  MISS:      44856  HIT %:    31.5406  MISS %:    68.4594   MPKI: 0.22428
AGUS PREFETCH L1 MISS: 0
LLC WRITEBACK ACCESS:     171111  HIT:     169494  MISS:       1617  HIT %:     99.055  MISS %:   0.945001   MPKI: 0.008085
LLC LOAD TRANSLATION ACCESS:      28572  HIT:      26265  MISS:       2307  HIT %:    91.9257  MISS %:    8.07434   MPKI: 0.011535
LLC TRANSLATION FROM L1D PREFETCHER ACCESS:         15  HIT:         15  MISS:          0  HIT %:        100  MISS %:          0   MPKI: 0
LLC PREFETCH  REQUESTED:          0  ISSUED:          0  USEFUL:       1343  USELESS:      44740
LLC USEFUL LOAD PREFETCHES:       1343 PREFETCH ISSUED TO LOWER LEVEL:      44856  ACCURACY: 2.99403
LLC TIMELY PREFETCHES:       1343 LATE PREFETCHES: 0 DROPPED PREFETCHES: 0
LLC PREFETCHES SAME FILL-ORIGIN LEVEL: 0 DIFFERENT FILL-ORIGIN LEVEL: 0
LLC AVERAGE MISS LATENCY: 154.506 cycles
LLC RQ	ACCESS:     471989	FORWARD:          0	MERGED:          0	TO_CACHE:     471988
LLC WQ	ACCESS:     171111	FORWARD:          1	MERGED:          0	TO_CACHE:     171111
LLC PQ	ACCESS:      65522	FORWARD:          0	MERGED:          0	TO_CACHE:      65522

LLC Dense regions hint to LLC: 0

RAW hits: 2388829
Loads Generated: 51915376
Loads sent to L1D: 49526566
Stores Generated: 24205900
Stores sent to L1D: 24205930
Major fault: 0 Minor fault: 6265
Allocated PAGES: 6265
CPU 0 L1D PC-based stride prefetcher final stats
Degree: 3

DRAM Statistics
 CHANNEL 0
 RQ ROW_BUFFER_HIT:      78084  ROW_BUFFER_MISS:     220577
 DBUS_CONGESTED:        342
 WQ ROW_BUFFER_HIT:      13874  ROW_BUFFER_MISS:      56673  FULL:          0

 AVG_CONGESTED_CYCLE: 5
 All warmup complete: 2
Channel 0 Bank busy for read cycles: 0
Channel 0 Bank busy for write cycles: 0
Channel 0
Rank 0
0banks busy for read cycles: 244769673
0banks busy for write cycles: 35513
1banks busy for read cycles: 22760554
1banks busy for write cycles: 6257695
2banks busy for read cycles: 1464770
2banks busy for write cycles: 808320
3banks busy for read cycles: 537735
3banks busy for write cycles: 188700
4banks busy for read cycles: 369506
4banks busy for write cycles: 131690
5banks busy for read cycles: 295672
5banks busy for write cycles: 112606
6banks busy for read cycles: 280082
6banks busy for write cycles: 124358
7banks busy for read cycles: 275809
7banks busy for write cycles: 151575
8banks busy for read cycles: 391118
8banks busy for write cycles: 251435

CPU 0 Branch Prediction Accuracy: 99.7822% MPKI: 0.397295 Average ROB Occupancy at Mispredict: 20.1224
Branch types
NOT_BRANCH: 163510874 81.7554%
BRANCH_DIRECT_JUMP: 2284609 1.1423%
BRANCH_INDIRECT: 12524838 6.26242%
BRANCH_CONDITIONAL: 14124222 7.06211%
BRANCH_DIRECT_CALL: 3327862 1.66393%
BRANCH_INDIRECT_CALL: 449728 0.224864%
BRANCH_RETURN: 3777619 1.88881%
BRANCH_OTHER: 0 0%

DRAM PAGES: 1048576
Allocated PAGES: 6265
