
*** ChampSim Multicore Out-of-Order Simulator ***

Warmup Instructions: 50000000
Simulation Instructions: 200000000
Number of CPUs: 1
LLC sets: 2048
LLC ways: 16
Off-chip DRAM Size: 4096 MB Channels: 1 Width: 64-bit Data Rate: 6400 MT/s
CPU 0 runs traces/spec2k17/srv_13.champsimtrace.xz
.xz
BTB has LRU replacement policy
ITLB has LRU replacement policy
DTLB has LRU replacement policy
STLB has LRU replacement policy
L1I has LRU replacement policy
CPU 0 L1D IP-based stride prefetcher
L1D has LRU replacement policy
Initialize SRRIP state for L2C
Initialize DRRIP state for LLC
Heartbeat CPU 0 instructions: 10000002 cycles: 2807916 heartbeat IPC: 3.56136 cumulative IPC: 3.56136 (Simulation time: 0 hr 0 min 40 sec) 
Heartbeat CPU 0 instructions: 20000000 cycles: 5612667 heartbeat IPC: 3.56538 cumulative IPC: 3.56337 (Simulation time: 0 hr 1 min 22 sec) 
Heartbeat CPU 0 instructions: 30000003 cycles: 8419795 heartbeat IPC: 3.56236 cumulative IPC: 3.56303 (Simulation time: 0 hr 2 min 3 sec) 
*** Reached end of trace for Core: 0 Repeating trace: traces/spec2k17/srv_13.champsimtrace.xz
Heartbeat CPU 0 instructions: 40000001 cycles: 11218845 heartbeat IPC: 3.57264 cumulative IPC: 3.56543 (Simulation time: 0 hr 2 min 43 sec) 
Heartbeat CPU 0 instructions: 50000003 cycles: 14024551 heartbeat IPC: 3.56417 cumulative IPC: 3.56518 (Simulation time: 0 hr 3 min 16 sec) 

Warmup complete CPU 0 instructions: 50000003 cycles: 14024551 (Simulation time: 0 hr 3 min 16 sec) 

Heartbeat CPU 0 instructions: 60000000 cycles: 44256401 heartbeat IPC: 0.330777 cumulative IPC: 0.330777 (Simulation time: 0 hr 4 min 14 sec) 
*** Reached end of trace for Core: 0 Repeating trace: traces/spec2k17/srv_13.champsimtrace.xz
Heartbeat CPU 0 instructions: 70000001 cycles: 73266736 heartbeat IPC: 0.344705 cumulative IPC: 0.337597 (Simulation time: 0 hr 5 min 2 sec) 
Heartbeat CPU 0 instructions: 80000003 cycles: 103143611 heartbeat IPC: 0.334707 cumulative IPC: 0.336628 (Simulation time: 0 hr 5 min 58 sec) 
Heartbeat CPU 0 instructions: 90000001 cycles: 133446509 heartbeat IPC: 0.330001 cumulative IPC: 0.334947 (Simulation time: 0 hr 6 min 58 sec) 
*** Reached end of trace for Core: 0 Repeating trace: traces/spec2k17/srv_13.champsimtrace.xz
Heartbeat CPU 0 instructions: 100000000 cycles: 162712854 heartbeat IPC: 0.341689 cumulative IPC: 0.336274 (Simulation time: 0 hr 7 min 53 sec) 
Heartbeat CPU 0 instructions: 110000000 cycles: 192262157 heartbeat IPC: 0.338417 cumulative IPC: 0.336629 (Simulation time: 0 hr 8 min 42 sec) 
Heartbeat CPU 0 instructions: 120000002 cycles: 222612393 heartbeat IPC: 0.329487 cumulative IPC: 0.33559 (Simulation time: 0 hr 9 min 43 sec) 
*** Reached end of trace for Core: 0 Repeating trace: traces/spec2k17/srv_13.champsimtrace.xz
Heartbeat CPU 0 instructions: 130000001 cycles: 251766572 heartbeat IPC: 0.343004 cumulative IPC: 0.336499 (Simulation time: 0 hr 10 min 36 sec) 
Heartbeat CPU 0 instructions: 140000002 cycles: 281495591 heartbeat IPC: 0.336372 cumulative IPC: 0.336485 (Simulation time: 0 hr 11 min 32 sec) 
Heartbeat CPU 0 instructions: 150000002 cycles: 311657543 heartbeat IPC: 0.331544 cumulative IPC: 0.335984 (Simulation time: 0 hr 12 min 31 sec) 
*** Reached end of trace for Core: 0 Repeating trace: traces/spec2k17/srv_13.champsimtrace.xz
Heartbeat CPU 0 instructions: 160000002 cycles: 340791044 heartbeat IPC: 0.343247 cumulative IPC: 0.336632 (Simulation time: 0 hr 13 min 29 sec) 
Heartbeat CPU 0 instructions: 170000000 cycles: 370612568 heartbeat IPC: 0.335328 cumulative IPC: 0.336523 (Simulation time: 0 hr 14 min 23 sec) 
Heartbeat CPU 0 instructions: 180000003 cycles: 400722948 heartbeat IPC: 0.332111 cumulative IPC: 0.336179 (Simulation time: 0 hr 15 min 16 sec) 
*** Reached end of trace for Core: 0 Repeating trace: traces/spec2k17/srv_13.champsimtrace.xz
Heartbeat CPU 0 instructions: 190000000 cycles: 430000635 heartbeat IPC: 0.341557 cumulative IPC: 0.336558 (Simulation time: 0 hr 16 min 16 sec) 
Heartbeat CPU 0 instructions: 200000001 cycles: 459724037 heartbeat IPC: 0.336435 cumulative IPC: 0.33655 (Simulation time: 0 hr 17 min 6 sec) 
Heartbeat CPU 0 instructions: 210000000 cycles: 489577541 heartbeat IPC: 0.334969 cumulative IPC: 0.33645 (Simulation time: 0 hr 17 min 57 sec) 
*** Reached end of trace for Core: 0 Repeating trace: traces/spec2k17/srv_13.champsimtrace.xz
Heartbeat CPU 0 instructions: 220000000 cycles: 519100727 heartbeat IPC: 0.338717 cumulative IPC: 0.336583 (Simulation time: 0 hr 18 min 55 sec) 
Heartbeat CPU 0 instructions: 230000001 cycles: 548677369 heartbeat IPC: 0.338105 cumulative IPC: 0.336667 (Simulation time: 0 hr 19 min 51 sec) 
Heartbeat CPU 0 instructions: 240000000 cycles: 578553161 heartbeat IPC: 0.334719 cumulative IPC: 0.336564 (Simulation time: 0 hr 20 min 46 sec) 
*** Reached end of trace for Core: 0 Repeating trace: traces/spec2k17/srv_13.champsimtrace.xz
Heartbeat CPU 0 instructions: 250000000 cycles: 608425754 heartbeat IPC: 0.334755 cumulative IPC: 0.336473 (Simulation time: 0 hr 21 min 40 sec) 
Finished CPU 0 instructions: 200000003 cycles: 594401205 cumulative IPC: 0.336473 (Simulation time: 0 hr 21 min 40 sec) 

ChampSim completed all CPUs

Region of Interest Statistics

CPU 0 cumulative IPC: 0.336473 instructions: 200000003 cycles: 594401205
ITLB TOTAL     ACCESS:   34413262  HIT:   32575137  MISS:    1838125  HIT %:    94.6587  MISS %:    5.34133   MPKI: 9.19062
ITLB LOAD TRANSLATION ACCESS:   34413262  HIT:   32575137  MISS:    1838125  HIT %:    94.6587  MISS %:    5.34133   MPKI: 9.19062
ITLB PREFETCH  REQUESTED:          0  ISSUED:          0  USEFUL:          0  USELESS:          0
ITLB USEFUL LOAD PREFETCHES:          0 PREFETCH ISSUED TO LOWER LEVEL:          0  ACCURACY: -nan
ITLB TIMELY PREFETCHES:          0 LATE PREFETCHES: 0 DROPPED PREFETCHES: 0
ITLB PREFETCHES SAME FILL-ORIGIN LEVEL: 0 DIFFERENT FILL-ORIGIN LEVEL: 0
ITLB AVERAGE MISS LATENCY: 9.03964 cycles
ITLB RQ	ACCESS:   40214620	FORWARD:          0	MERGED:    5358356	TO_CACHE:   34856264

DTLB TOTAL     ACCESS:   45339561  HIT:   43545960  MISS:    1793601  HIT %:    96.0441  MISS %:    3.95593   MPKI: 8.968
DTLB LOAD TRANSLATION ACCESS:   45339561  HIT:   43545960  MISS:    1793601  HIT %:    96.0441  MISS %:    3.95593   MPKI: 8.968
DTLB PREFETCH  REQUESTED:          0  ISSUED:          0  USEFUL:          0  USELESS:          0
DTLB USEFUL LOAD PREFETCHES:          0 PREFETCH ISSUED TO LOWER LEVEL:          0  ACCURACY: -nan
DTLB TIMELY PREFETCHES:          0 LATE PREFETCHES: 0 DROPPED PREFETCHES: 0
DTLB PREFETCHES SAME FILL-ORIGIN LEVEL: 0 DIFFERENT FILL-ORIGIN LEVEL: 0
DTLB AVERAGE MISS LATENCY: 9.20718 cycles
DTLB RQ	ACCESS:   59715399	FORWARD:          0	MERGED:   14309811	TO_CACHE:   45405588

STLB TOTAL     ACCESS:    4152958  HIT:    4143607  MISS:       9351  HIT %:    99.7748  MISS %:   0.225165   MPKI: 0.046755
STLB LOAD TRANSLATION ACCESS:    3631726  HIT:    3622375  MISS:       9351  HIT %:    99.7425  MISS %:   0.257481   MPKI: 0.046755
STLB TRANSLATION FROM L1D PREFETCHER ACCESS:     521232  HIT:     521232  MISS:          0  HIT %:        100  MISS %:          0   MPKI: 0
STLB PREFETCH  REQUESTED:          0  ISSUED:          0  USEFUL:          0  USELESS:          0
STLB USEFUL LOAD PREFETCHES:          0 PREFETCH ISSUED TO LOWER LEVEL:          0  ACCURACY: -nan
STLB TIMELY PREFETCHES:          0 LATE PREFETCHES: 0 DROPPED PREFETCHES: 0
STLB PREFETCHES SAME FILL-ORIGIN LEVEL: 0 DIFFERENT FILL-ORIGIN LEVEL: 0
STLB AVERAGE MISS LATENCY: 44.9448 cycles
STLB RQ	ACCESS:    5203305	FORWARD:          0	MERGED:    1050347	TO_CACHE:    4152958

STLB Hit, L1D data hit: 0
STLB Hit, L2C data hit: 0
STLB Hit, LLC data hit: 0
STLB Hit, LLC data miss: 0
STLB STLB hints to L2: 0
L1D TOTAL     ACCESS:   59297822  HIT:   55354626  MISS:    3943196  HIT %:    93.3502  MISS %:    6.64982   MPKI: 19.716
L1D LOAD      ACCESS:   33481863  HIT:   30861500  MISS:    2620363  HIT %:    92.1738  MISS %:    7.82622   MPKI: 13.1018
L1D RFO       ACCESS:   24453445  HIT:   23375075  MISS:    1078370  HIT %:    95.5901  MISS %:    4.40989   MPKI: 5.39185
L1D PREFETCH  ACCESS:    1362514  HIT:    1118051  MISS:     244463  HIT %:    82.0579  MISS %:    17.9421   MPKI: 1.22231
AGUS PREFETCH L1 MISS: 0
L1D PREFETCH  REQUESTED:    3464532  ISSUED:    3464532  USEFUL:     155265  USELESS:      89185
L1D USEFUL LOAD PREFETCHES:     155265 PREFETCH ISSUED TO LOWER LEVEL:     331852  ACCURACY: 46.7874
L1D TIMELY PREFETCHES:     155265 LATE PREFETCHES: 63791 DROPPED PREFETCHES: 0
L1D PREFETCHES SAME FILL-ORIGIN LEVEL: 308254 DIFFERENT FILL-ORIGIN LEVEL: 23598
L1D AVERAGE MISS LATENCY: 5.0227e+06 cycles
L1D RQ	ACCESS:   46949431	FORWARD:          0	MERGED:   13076739	TO_CACHE:   33577378
L1D WQ	ACCESS:   26311887	FORWARD:     295317	MERGED:     173866	TO_CACHE:   26138021
L1D PQ	ACCESS:    1892953	FORWARD:          0	MERGED:     321371	TO_CACHE:    1571579

L1D UNIQUE REGIONS ACCESSED: 0
L1D REGIONS CONFLICTS: 0
L1D Cross Page Prefetch Requests: 0
L1D Same Page Prefetch Requests: 2305614
L1D ROI Sum of L1D PQ occupancy: 20765797
L1D PREFETCHES PUSHED FROM L2C: 0
L1I TOTAL     ACCESS:   38813712  HIT:   29172873  MISS:    9640839  HIT %:    75.1613  MISS %:    24.8387   MPKI: 48.2042
L1I LOAD      ACCESS:   38813712  HIT:   29172873  MISS:    9640839  HIT %:    75.1613  MISS %:    24.8387   MPKI: 48.2042
L1I PREFETCH  REQUESTED:          0  ISSUED:          0  USEFUL:          0  USELESS:          0
L1I USEFUL LOAD PREFETCHES:          0 PREFETCH ISSUED TO LOWER LEVEL:          0  ACCURACY: -nan
L1I TIMELY PREFETCHES:          0 LATE PREFETCHES: 0 DROPPED PREFETCHES: 0
L1I PREFETCHES SAME FILL-ORIGIN LEVEL: 0 DIFFERENT FILL-ORIGIN LEVEL: 0
L1I AVERAGE MISS LATENCY: 16.517 cycles
L1I RQ	ACCESS:   57777445	FORWARD:          0	MERGED:   17562825	TO_CACHE:   40214620

BTB TOTAL     ACCESS:   30281760  HIT:   18910009  MISS:   11371751  HIT %:    62.4469  MISS %:    37.5531   MPKI: 56.8588
BTB BRANCH_DIRECT_JUMP	ACCESS:    2184471  HIT:    1385849  MISS:     798622
BTB BRANCH_INDIRECT	ACCESS:   11367631  HIT:    7108083  MISS:    4259548
BTB BRANCH_CONDITIONAL	ACCESS:    8713184  HIT:    7563917  MISS:    1149267
BTB BRANCH_DIRECT_CALL	ACCESS:    3386061  HIT:    1522950  MISS:    1863111
BTB BRANCH_INDIRECT_CALL	ACCESS:     622186  HIT:     244573  MISS:     377613
BTB BRANCH_RETURN	ACCESS:    4008227  HIT:    1084637  MISS:    2923590
BTB BRANCH_OTHER ACCESS:          0  HIT:          0  MISS:          0

L2C TOTAL     ACCESS:   15417757  HIT:   13923891  MISS:    1493866  HIT %:    90.3107  MISS %:    9.68926   MPKI: 7.46933
L2C LOAD      ACCESS:   12197377  HIT:   11085114  MISS:    1112263  HIT %:    90.8811  MISS %:    9.11887   MPKI: 5.56131
L2C DATA LOAD MPKI: 1.66221
L2C INSTRUCTION LOAD MPKI: 3.8991
L2C RFO       ACCESS:    1078366  HIT:     866591  MISS:     211775  HIT %:    80.3615  MISS %:    19.6385   MPKI: 1.05887
L2C PREFETCH  ACCESS:     320033  HIT:     207328  MISS:     112705  HIT %:    64.7833  MISS %:    35.2167   MPKI: 0.563525
AGUS PREFETCH L1 MISS: 0
L2C DATA PREFETCH MPKI: 0.563525
L2C INSTRUCTION PREFETCH MPKI: 0
L2C WRITEBACK ACCESS:    1811670  HIT:    1761425  MISS:      50245  HIT %:    97.2266  MISS %:    2.77341   MPKI: 0.251225
L2C LOAD TRANSLATION ACCESS:      10311  HIT:       3433  MISS:       6878  HIT %:    33.2945  MISS %:    66.7055   MPKI: 0.03439
L2C PREFETCH  REQUESTED:          0  ISSUED:          0  USEFUL:       4652  USELESS:     108005
L2C USEFUL LOAD PREFETCHES:       4652 PREFETCH ISSUED TO LOWER LEVEL:     115678  ACCURACY: 4.02151
L2C TIMELY PREFETCHES:       4652 LATE PREFETCHES: 2973 DROPPED PREFETCHES: 0
L2C PREFETCHES SAME FILL-ORIGIN LEVEL: 12377 DIFFERENT FILL-ORIGIN LEVEL: 0
L2C AVERAGE MISS LATENCY: 33.8415 cycles
L2C RQ	ACCESS:   13286094	FORWARD:          0	MERGED:          0	TO_CACHE:   13286056
L2C WQ	ACCESS:    1811670	FORWARD:         38	MERGED:          0	TO_CACHE:    1811670
L2C PQ	ACCESS:     331852	FORWARD:          0	MERGED:          1	TO_CACHE:     331851

L2C Instructions Evicting Data 320888
L2C Translations Evicting Data 4969
L2C Data Evicting Data 359500
L2C Instructions Evicting Instructions 457256
L2C Translations Evicting Instructions 1791
L2C Data Evicting Instructions 292469
L2C Instructions Evicting Translations 1677
L2C Translations Evicting Translations 118
L2C Data Evicting Translations 4953
L2C Dense regions hint from L2: 0
PSCL5 TOTAL     ACCESS:       9351  HIT:       9351  MISS:          0  HIT %:        100  MISS %:          0   MPKI: 0
PSCL5 LOAD TRANSLATION ACCESS:       9351  HIT:       9351  MISS:          0  HIT %:        100  MISS %:          0   MPKI: 0
PSCL5 PREFETCH  REQUESTED:          0  ISSUED:          0  USEFUL:          0  USELESS:          0
PSCL5 USEFUL LOAD PREFETCHES:          0 PREFETCH ISSUED TO LOWER LEVEL:          0  ACCURACY: -nan
PSCL5 TIMELY PREFETCHES:          0 LATE PREFETCHES: 0 DROPPED PREFETCHES: 0
PSCL5 PREFETCHES SAME FILL-ORIGIN LEVEL: 0 DIFFERENT FILL-ORIGIN LEVEL: 0

PSCL4 TOTAL     ACCESS:       8729  HIT:       8698  MISS:         31  HIT %:    99.6449  MISS %:   0.355138   MPKI: 0.000155
PSCL4 LOAD TRANSLATION ACCESS:       8729  HIT:       8698  MISS:         31  HIT %:    99.6449  MISS %:   0.355138   MPKI: 0.000155
PSCL4 PREFETCH  REQUESTED:          0  ISSUED:          0  USEFUL:          0  USELESS:          0
PSCL4 USEFUL LOAD PREFETCHES:          0 PREFETCH ISSUED TO LOWER LEVEL:          0  ACCURACY: -nan
PSCL4 TIMELY PREFETCHES:          0 LATE PREFETCHES: 0 DROPPED PREFETCHES: 0
PSCL4 PREFETCHES SAME FILL-ORIGIN LEVEL: 0 DIFFERENT FILL-ORIGIN LEVEL: 0

PSCL3 TOTAL     ACCESS:       9255  HIT:       9224  MISS:         31  HIT %:     99.665  MISS %:   0.334954   MPKI: 0.000155
PSCL3 LOAD TRANSLATION ACCESS:       9255  HIT:       9224  MISS:         31  HIT %:     99.665  MISS %:   0.334954   MPKI: 0.000155
PSCL3 PREFETCH  REQUESTED:          0  ISSUED:          0  USEFUL:          0  USELESS:          0
PSCL3 USEFUL LOAD PREFETCHES:          0 PREFETCH ISSUED TO LOWER LEVEL:          0  ACCURACY: -nan
PSCL3 TIMELY PREFETCHES:          0 LATE PREFETCHES: 0 DROPPED PREFETCHES: 0
PSCL3 PREFETCHES SAME FILL-ORIGIN LEVEL: 0 DIFFERENT FILL-ORIGIN LEVEL: 0

PSCL2 TOTAL     ACCESS:       9351  HIT:       8453  MISS:        898  HIT %:    90.3967  MISS %:    9.60325   MPKI: 0.00449
PSCL2 LOAD TRANSLATION ACCESS:       9351  HIT:       8453  MISS:        898  HIT %:    90.3967  MISS %:    9.60325   MPKI: 0.00449
PSCL2 PREFETCH  REQUESTED:          0  ISSUED:          0  USEFUL:          0  USELESS:          0
PSCL2 USEFUL LOAD PREFETCHES:          0 PREFETCH ISSUED TO LOWER LEVEL:          0  ACCURACY: -nan
PSCL2 TIMELY PREFETCHES:          0 LATE PREFETCHES: 0 DROPPED PREFETCHES: 0
PSCL2 PREFETCHES SAME FILL-ORIGIN LEVEL: 0 DIFFERENT FILL-ORIGIN LEVEL: 0

LLC TOTAL     ACCESS:    1733779  HIT:    1683465  MISS:      50314  HIT %:     97.098  MISS %:    2.90198   MPKI: 0.25157
LLC LOAD      ACCESS:    1109290  HIT:    1096743  MISS:      12547  HIT %:    98.8689  MISS %:    1.13108   MPKI: 0.062735
LLC RFO       ACCESS:     211770  HIT:     191552  MISS:      20218  HIT %:    90.4528  MISS %:    9.54715   MPKI: 0.10109
LLC PREFETCH  ACCESS:     115678  HIT:      98403  MISS:      17275  HIT %:    85.0663  MISS %:    14.9337   MPKI: 0.086375
AGUS PREFETCH L1 MISS: 0
LLC WRITEBACK ACCESS:     290163  HIT:     290025  MISS:        138  HIT %:    99.9524  MISS %:  0.0475595   MPKI: 0.00069
LLC LOAD TRANSLATION ACCESS:       6878  HIT:       6742  MISS:        136  HIT %:    98.0227  MISS %:    1.97732   MPKI: 0.00068
LLC PREFETCH  REQUESTED:          0  ISSUED:          0  USEFUL:       1943  USELESS:      16427
LLC USEFUL LOAD PREFETCHES:       1943 PREFETCH ISSUED TO LOWER LEVEL:      17275  ACCURACY: 11.2475
LLC TIMELY PREFETCHES:       1943 LATE PREFETCHES: 0 DROPPED PREFETCHES: 0
LLC PREFETCHES SAME FILL-ORIGIN LEVEL: 0 DIFFERENT FILL-ORIGIN LEVEL: 0
LLC AVERAGE MISS LATENCY: 146.065 cycles
LLC RQ	ACCESS:    1327943	FORWARD:          0	MERGED:          0	TO_CACHE:    1327938
LLC WQ	ACCESS:     290163	FORWARD:          5	MERGED:          0	TO_CACHE:     290163
LLC PQ	ACCESS:     115678	FORWARD:          0	MERGED:          0	TO_CACHE:     115678

LLC Dense regions hint to LLC: 0

RAW hits: 1392934
Loads Generated: 48342365
Loads sent to L1D: 46949431
Stores Generated: 26311868
Stores sent to L1D: 26311887
Major fault: 0 Minor fault: 1910
Allocated PAGES: 1910
CPU 0 L1D PC-based stride prefetcher final stats
Degree: 3

DRAM Statistics
 CHANNEL 0
 RQ ROW_BUFFER_HIT:      17828  ROW_BUFFER_MISS:      32330
 DBUS_CONGESTED:         76
 WQ ROW_BUFFER_HIT:       2556  ROW_BUFFER_MISS:      20576  FULL:          0

 AVG_CONGESTED_CYCLE: 5
 All warmup complete: 2
Channel 0 Bank busy for read cycles: 0
Channel 0 Bank busy for write cycles: 0
Channel 0
Rank 0
0banks busy for read cycles: 589890307
0banks busy for write cycles: 7598
1banks busy for read cycles: 1769706
1banks busy for write cycles: 907120
2banks busy for read cycles: 452422
2banks busy for write cycles: 223174
3banks busy for read cycles: 256020
3banks busy for write cycles: 114058
4banks busy for read cycles: 142907
4banks busy for write cycles: 77034
5banks busy for read cycles: 97212
5banks busy for write cycles: 64037
6banks busy for read cycles: 76824
6banks busy for write cycles: 52336
7banks busy for read cycles: 57324
7banks busy for write cycles: 54228
8banks busy for read cycles: 48100
8banks busy for write cycles: 110799

CPU 0 Branch Prediction Accuracy: 99.8429% MPKI: 0.27698 Average ROB Occupancy at Mispredict: 52.8911
Branch types
NOT_BRANCH: 164736751 82.3684%
BRANCH_DIRECT_JUMP: 2184471 1.09224%
BRANCH_INDIRECT: 11367631 5.68382%
BRANCH_CONDITIONAL: 13694607 6.8473%
BRANCH_DIRECT_CALL: 3386061 1.69303%
BRANCH_INDIRECT_CALL: 622186 0.311093%
BRANCH_RETURN: 4008227 2.00411%
BRANCH_OTHER: 0 0%

DRAM PAGES: 1048576
Allocated PAGES: 1910
