
*** ChampSim Multicore Out-of-Order Simulator ***

Warmup Instructions: 50000000
Simulation Instructions: 200000000
Number of CPUs: 1
LLC sets: 2048
LLC ways: 16
Off-chip DRAM Size: 4096 MB Channels: 1 Width: 64-bit Data Rate: 6400 MT/s
CPU 0 runs traces/spec2k17/srv_63.champsimtrace.xz
.xz
BTB has LRU replacement policy
ITLB has LRU replacement policy
DTLB has LRU replacement policy
STLB has LRU replacement policy
L1I has LRU replacement policy
CPU 0 L1D IP-based stride prefetcher
L1D has LRU replacement policy
Initialize SRRIP state for L2C
Initialize DRRIP state for LLC
Heartbeat CPU 0 instructions: 10000000 cycles: 2772748 heartbeat IPC: 3.60653 cumulative IPC: 3.60653 (Simulation time: 0 hr 0 min 38 sec) 
Heartbeat CPU 0 instructions: 20000003 cycles: 5539843 heartbeat IPC: 3.6139 cumulative IPC: 3.61021 (Simulation time: 0 hr 1 min 17 sec) 
Heartbeat CPU 0 instructions: 30000003 cycles: 8306696 heartbeat IPC: 3.61421 cumulative IPC: 3.61154 (Simulation time: 0 hr 1 min 52 sec) 
*** Reached end of trace for Core: 0 Repeating trace: traces/spec2k17/srv_63.champsimtrace.xz
Heartbeat CPU 0 instructions: 40000001 cycles: 11071172 heartbeat IPC: 3.61732 cumulative IPC: 3.61299 (Simulation time: 0 hr 2 min 20 sec) 
Heartbeat CPU 0 instructions: 50000001 cycles: 13836608 heartbeat IPC: 3.61607 cumulative IPC: 3.6136 (Simulation time: 0 hr 2 min 59 sec) 

Warmup complete CPU 0 instructions: 50000001 cycles: 13836608 (Simulation time: 0 hr 2 min 59 sec) 

Heartbeat CPU 0 instructions: 60000000 cycles: 36439085 heartbeat IPC: 0.442429 cumulative IPC: 0.442429 (Simulation time: 0 hr 3 min 56 sec) 
*** Reached end of trace for Core: 0 Repeating trace: traces/spec2k17/srv_63.champsimtrace.xz
Heartbeat CPU 0 instructions: 70000001 cycles: 58419920 heartbeat IPC: 0.454942 cumulative IPC: 0.448598 (Simulation time: 0 hr 4 min 49 sec) 
Heartbeat CPU 0 instructions: 80000001 cycles: 80575719 heartbeat IPC: 0.451349 cumulative IPC: 0.449512 (Simulation time: 0 hr 5 min 35 sec) 
Heartbeat CPU 0 instructions: 90000000 cycles: 102934271 heartbeat IPC: 0.447256 cumulative IPC: 0.448946 (Simulation time: 0 hr 6 min 22 sec) 
*** Reached end of trace for Core: 0 Repeating trace: traces/spec2k17/srv_63.champsimtrace.xz
Heartbeat CPU 0 instructions: 100000002 cycles: 125107338 heartbeat IPC: 0.450998 cumulative IPC: 0.449354 (Simulation time: 0 hr 7 min 13 sec) 
Heartbeat CPU 0 instructions: 110000000 cycles: 147051461 heartbeat IPC: 0.455703 cumulative IPC: 0.4504 (Simulation time: 0 hr 8 min 3 sec) 
Heartbeat CPU 0 instructions: 120000000 cycles: 169184924 heartbeat IPC: 0.451805 cumulative IPC: 0.4506 (Simulation time: 0 hr 9 min 1 sec) 
*** Reached end of trace for Core: 0 Repeating trace: traces/spec2k17/srv_63.champsimtrace.xz
Heartbeat CPU 0 instructions: 130000000 cycles: 191491371 heartbeat IPC: 0.448301 cumulative IPC: 0.450312 (Simulation time: 0 hr 9 min 53 sec) 
Heartbeat CPU 0 instructions: 140000003 cycles: 213507096 heartbeat IPC: 0.454221 cumulative IPC: 0.450743 (Simulation time: 0 hr 10 min 44 sec) 
Heartbeat CPU 0 instructions: 150000003 cycles: 235376227 heartbeat IPC: 0.457266 cumulative IPC: 0.451387 (Simulation time: 0 hr 11 min 31 sec) 
*** Reached end of trace for Core: 0 Repeating trace: traces/spec2k17/srv_63.champsimtrace.xz
Heartbeat CPU 0 instructions: 160000000 cycles: 257950104 heartbeat IPC: 0.44299 cumulative IPC: 0.45061 (Simulation time: 0 hr 12 min 15 sec) 
Heartbeat CPU 0 instructions: 170000003 cycles: 279807272 heartbeat IPC: 0.457516 cumulative IPC: 0.451178 (Simulation time: 0 hr 13 min 11 sec) 
Heartbeat CPU 0 instructions: 180000003 cycles: 301738511 heartbeat IPC: 0.455971 cumulative IPC: 0.451543 (Simulation time: 0 hr 13 min 57 sec) 
*** Reached end of trace for Core: 0 Repeating trace: traces/spec2k17/srv_63.champsimtrace.xz
Heartbeat CPU 0 instructions: 190000000 cycles: 324227510 heartbeat IPC: 0.444662 cumulative IPC: 0.451044 (Simulation time: 0 hr 14 min 40 sec) 
Heartbeat CPU 0 instructions: 200000000 cycles: 346103763 heartbeat IPC: 0.457117 cumulative IPC: 0.451444 (Simulation time: 0 hr 15 min 31 sec) 
Heartbeat CPU 0 instructions: 210000002 cycles: 367890003 heartbeat IPC: 0.459005 cumulative IPC: 0.451909 (Simulation time: 0 hr 16 min 23 sec) 
*** Reached end of trace for Core: 0 Repeating trace: traces/spec2k17/srv_63.champsimtrace.xz
Heartbeat CPU 0 instructions: 220000000 cycles: 390349513 heartbeat IPC: 0.445246 cumulative IPC: 0.451512 (Simulation time: 0 hr 17 min 16 sec) 
Heartbeat CPU 0 instructions: 230000001 cycles: 412152506 heartbeat IPC: 0.458653 cumulative IPC: 0.451903 (Simulation time: 0 hr 18 min 12 sec) 
Heartbeat CPU 0 instructions: 240000002 cycles: 434342480 heartbeat IPC: 0.450654 cumulative IPC: 0.451837 (Simulation time: 0 hr 19 min 4 sec) 
*** Reached end of trace for Core: 0 Repeating trace: traces/spec2k17/srv_63.champsimtrace.xz
Heartbeat CPU 0 instructions: 250000000 cycles: 456418939 heartbeat IPC: 0.452971 cumulative IPC: 0.451893 (Simulation time: 0 hr 19 min 55 sec) 
Finished CPU 0 instructions: 200000001 cycles: 442582332 cumulative IPC: 0.451893 (Simulation time: 0 hr 19 min 55 sec) 

ChampSim completed all CPUs

Region of Interest Statistics

CPU 0 cumulative IPC: 0.451893 instructions: 200000001 cycles: 442582332
ITLB TOTAL     ACCESS:   31325834  HIT:   30545256  MISS:     780578  HIT %:    97.5082  MISS %:     2.4918   MPKI: 3.90289
ITLB LOAD TRANSLATION ACCESS:   31325834  HIT:   30545256  MISS:     780578  HIT %:    97.5082  MISS %:     2.4918   MPKI: 3.90289
ITLB PREFETCH  REQUESTED:          0  ISSUED:          0  USEFUL:          0  USELESS:          0
ITLB USEFUL LOAD PREFETCHES:          0 PREFETCH ISSUED TO LOWER LEVEL:          0  ACCURACY: -nan
ITLB TIMELY PREFETCHES:          0 LATE PREFETCHES: 0 DROPPED PREFETCHES: 0
ITLB PREFETCHES SAME FILL-ORIGIN LEVEL: 0 DIFFERENT FILL-ORIGIN LEVEL: 0
ITLB AVERAGE MISS LATENCY: 13.8401 cycles
ITLB RQ	ACCESS:   38369703	FORWARD:          0	MERGED:    6848179	TO_CACHE:   31521524

DTLB TOTAL     ACCESS:   37032777  HIT:   34422838  MISS:    2609939  HIT %:    92.9524  MISS %:    7.04765   MPKI: 13.0497
DTLB LOAD TRANSLATION ACCESS:   37032777  HIT:   34422838  MISS:    2609939  HIT %:    92.9524  MISS %:    7.04765   MPKI: 13.0497
DTLB PREFETCH  REQUESTED:          0  ISSUED:          0  USEFUL:          0  USELESS:          0
DTLB USEFUL LOAD PREFETCHES:          0 PREFETCH ISSUED TO LOWER LEVEL:          0  ACCURACY: -nan
DTLB TIMELY PREFETCHES:          0 LATE PREFETCHES: 0 DROPPED PREFETCHES: 0
DTLB PREFETCHES SAME FILL-ORIGIN LEVEL: 0 DIFFERENT FILL-ORIGIN LEVEL: 0
DTLB AVERAGE MISS LATENCY: 13.7115 cycles
DTLB RQ	ACCESS:   47559246	FORWARD:          0	MERGED:   10376324	TO_CACHE:   37182922

STLB TOTAL     ACCESS:    3455171  HIT:    3099565  MISS:     355606  HIT %:     89.708  MISS %:     10.292   MPKI: 1.77803
STLB LOAD TRANSLATION ACCESS:    3390517  HIT:    3034911  MISS:     355606  HIT %:    89.5117  MISS %:    10.4883   MPKI: 1.77803
STLB TRANSLATION FROM L1D PREFETCHER ACCESS:      64654  HIT:      64654  MISS:          0  HIT %:        100  MISS %:          0   MPKI: 0
STLB PREFETCH  REQUESTED:          0  ISSUED:          0  USEFUL:          0  USELESS:          0
STLB USEFUL LOAD PREFETCHES:          0 PREFETCH ISSUED TO LOWER LEVEL:          0  ACCURACY: -nan
STLB TIMELY PREFETCHES:          0 LATE PREFETCHES: 0 DROPPED PREFETCHES: 0
STLB PREFETCHES SAME FILL-ORIGIN LEVEL: 0 DIFFERENT FILL-ORIGIN LEVEL: 0
STLB AVERAGE MISS LATENCY: 44.9678 cycles
STLB RQ	ACCESS:    3596446	FORWARD:          0	MERGED:     141275	TO_CACHE:    3455171

STLB Hit, L1D data hit: 0
STLB Hit, L2C data hit: 0
STLB Hit, LLC data hit: 0
STLB Hit, LLC data miss: 0
STLB STLB hints to L2: 0
L1D TOTAL     ACCESS:   47234948  HIT:   44742931  MISS:    2492017  HIT %:    94.7242  MISS %:    5.27579   MPKI: 12.4601
L1D LOAD      ACCESS:   27479024  HIT:   25371866  MISS:    2107158  HIT %:    92.3318  MISS %:    7.66824   MPKI: 10.5358
L1D RFO       ACCESS:   19554669  HIT:   19218162  MISS:     336507  HIT %:    98.2791  MISS %:    1.72085   MPKI: 1.68253
L1D PREFETCH  ACCESS:     201255  HIT:     152903  MISS:      48352  HIT %:    75.9748  MISS %:    24.0252   MPKI: 0.24176
AGUS PREFETCH L1 MISS: 0
L1D PREFETCH  REQUESTED:     448312  ISSUED:     448277  USEFUL:       9181  USELESS:      39191
L1D USEFUL LOAD PREFETCHES:       9181 PREFETCH ISSUED TO LOWER LEVEL:      49225  ACCURACY: 18.6511
L1D TIMELY PREFETCHES:       9181 LATE PREFETCHES: 860 DROPPED PREFETCHES: 0
L1D PREFETCHES SAME FILL-ORIGIN LEVEL: 49219 DIFFERENT FILL-ORIGIN LEVEL: 6
L1D AVERAGE MISS LATENCY: 81323.6 cycles
L1D RQ	ACCESS:   42077672	FORWARD:          0	MERGED:   14215061	TO_CACHE:   27609872
L1D WQ	ACCESS:   20271818	FORWARD:     252928	MERGED:     322444	TO_CACHE:   19949374
L1D PQ	ACCESS:     242348	FORWARD:          0	MERGED:      36230	TO_CACHE:     205929

L1D UNIQUE REGIONS ACCESSED: 0
L1D REGIONS CONFLICTS: 0
L1D Cross Page Prefetch Requests: 0
L1D Same Page Prefetch Requests: 308875
L1D ROI Sum of L1D PQ occupancy: 2730715
L1D PREFETCHES PUSHED FROM L2C: 0
L1I TOTAL     ACCESS:   36572284  HIT:   31427766  MISS:    5144518  HIT %:    85.9333  MISS %:    14.0667   MPKI: 25.7226
L1I LOAD      ACCESS:   36572284  HIT:   31427766  MISS:    5144518  HIT %:    85.9333  MISS %:    14.0667   MPKI: 25.7226
L1I PREFETCH  REQUESTED:          0  ISSUED:          0  USEFUL:          0  USELESS:          0
L1I USEFUL LOAD PREFETCHES:          0 PREFETCH ISSUED TO LOWER LEVEL:          0  ACCURACY: -nan
L1I TIMELY PREFETCHES:          0 LATE PREFETCHES: 0 DROPPED PREFETCHES: 0
L1I PREFETCHES SAME FILL-ORIGIN LEVEL: 0 DIFFERENT FILL-ORIGIN LEVEL: 0
L1I AVERAGE MISS LATENCY: 25.1565 cycles
L1I RQ	ACCESS:   57230255	FORWARD:          0	MERGED:   18860552	TO_CACHE:   38369703

BTB TOTAL     ACCESS:   22132994  HIT:   17703037  MISS:    4429957  HIT %:    79.9848  MISS %:    20.0152   MPKI: 22.1498
BTB BRANCH_DIRECT_JUMP	ACCESS:    1771716  HIT:    1521380  MISS:     250336
BTB BRANCH_INDIRECT	ACCESS:    9488973  HIT:    7332684  MISS:    2156289
BTB BRANCH_CONDITIONAL	ACCESS:    4504476  HIT:    4096603  MISS:     407873
BTB BRANCH_DIRECT_CALL	ACCESS:    2499396  HIT:    2015019  MISS:     484377
BTB BRANCH_INDIRECT_CALL	ACCESS:     683762  HIT:     642808  MISS:      40954
BTB BRANCH_RETURN	ACCESS:    3184671  HIT:    2094543  MISS:    1090128
BTB BRANCH_OTHER ACCESS:          0  HIT:          0  MISS:          0

L2C TOTAL     ACCESS:    9119606  HIT:    5949274  MISS:    3170332  HIT %:    65.2361  MISS %:    34.7639   MPKI: 15.8517
L2C LOAD      ACCESS:    7250788  HIT:    4472236  MISS:    2778552  HIT %:    61.6793  MISS %:    38.3207   MPKI: 13.8928
L2C DATA LOAD MPKI: 4.65381
L2C INSTRUCTION LOAD MPKI: 9.23895
L2C RFO       ACCESS:     336500  HIT:     198633  MISS:     137867  HIT %:    59.0291  MISS %:    40.9709   MPKI: 0.689335
L2C PREFETCH  ACCESS:      49225  HIT:      21626  MISS:      27599  HIT %:     43.933  MISS %:     56.067   MPKI: 0.137995
AGUS PREFETCH L1 MISS: 0
L2C DATA PREFETCH MPKI: 0.137995
L2C INSTRUCTION PREFETCH MPKI: 0
L2C WRITEBACK ACCESS:    1017406  HIT:     970622  MISS:      46784  HIT %:    95.4016  MISS %:    4.59836   MPKI: 0.23392
L2C LOAD TRANSLATION ACCESS:     465687  HIT:     286157  MISS:     179530  HIT %:    61.4484  MISS %:    38.5516   MPKI: 0.89765
L2C PREFETCH  REQUESTED:          0  ISSUED:          0  USEFUL:        639  USELESS:      26986
L2C USEFUL LOAD PREFETCHES:        639 PREFETCH ISSUED TO LOWER LEVEL:      27599  ACCURACY: 2.3153
L2C TIMELY PREFETCHES:        639 LATE PREFETCHES: 0 DROPPED PREFETCHES: 0
L2C PREFETCHES SAME FILL-ORIGIN LEVEL: 6 DIFFERENT FILL-ORIGIN LEVEL: 0
L2C AVERAGE MISS LATENCY: 43.9668 cycles
L2C RQ	ACCESS:    8053004	FORWARD:          0	MERGED:          0	TO_CACHE:    8052976
L2C WQ	ACCESS:    1017406	FORWARD:         28	MERGED:          0	TO_CACHE:    1017406
L2C PQ	ACCESS:      49225	FORWARD:          0	MERGED:          0	TO_CACHE:      49225

L2C Instructions Evicting Data 667412
L2C Translations Evicting Data 66373
L2C Data Evicting Data 392672
L2C Instructions Evicting Instructions 1077786
L2C Translations Evicting Instructions 101711
L2C Data Evicting Instructions 640581
L2C Instructions Evicting Translations 102592
L2C Translations Evicting Translations 11446
L2C Data Evicting Translations 62975
L2C Dense regions hint from L2: 0
PSCL5 TOTAL     ACCESS:     355606  HIT:     355606  MISS:          0  HIT %:        100  MISS %:          0   MPKI: 0
PSCL5 LOAD TRANSLATION ACCESS:     355606  HIT:     355606  MISS:          0  HIT %:        100  MISS %:          0   MPKI: 0
PSCL5 PREFETCH  REQUESTED:          0  ISSUED:          0  USEFUL:          0  USELESS:          0
PSCL5 USEFUL LOAD PREFETCHES:          0 PREFETCH ISSUED TO LOWER LEVEL:          0  ACCURACY: -nan
PSCL5 TIMELY PREFETCHES:          0 LATE PREFETCHES: 0 DROPPED PREFETCHES: 0
PSCL5 PREFETCHES SAME FILL-ORIGIN LEVEL: 0 DIFFERENT FILL-ORIGIN LEVEL: 0

PSCL4 TOTAL     ACCESS:     335428  HIT:     334993  MISS:        435  HIT %:    99.8703  MISS %:   0.129685   MPKI: 0.002175
PSCL4 LOAD TRANSLATION ACCESS:     335428  HIT:     334993  MISS:        435  HIT %:    99.8703  MISS %:   0.129685   MPKI: 0.002175
PSCL4 PREFETCH  REQUESTED:          0  ISSUED:          0  USEFUL:          0  USELESS:          0
PSCL4 USEFUL LOAD PREFETCHES:          0 PREFETCH ISSUED TO LOWER LEVEL:          0  ACCURACY: -nan
PSCL4 TIMELY PREFETCHES:          0 LATE PREFETCHES: 0 DROPPED PREFETCHES: 0
PSCL4 PREFETCHES SAME FILL-ORIGIN LEVEL: 0 DIFFERENT FILL-ORIGIN LEVEL: 0

PSCL3 TOTAL     ACCESS:     354641  HIT:     353773  MISS:        868  HIT %:    99.7552  MISS %:   0.244755   MPKI: 0.00434
PSCL3 LOAD TRANSLATION ACCESS:     354641  HIT:     353773  MISS:        868  HIT %:    99.7552  MISS %:   0.244755   MPKI: 0.00434
PSCL3 PREFETCH  REQUESTED:          0  ISSUED:          0  USEFUL:          0  USELESS:          0
PSCL3 USEFUL LOAD PREFETCHES:          0 PREFETCH ISSUED TO LOWER LEVEL:          0  ACCURACY: -nan
PSCL3 TIMELY PREFETCHES:          0 LATE PREFETCHES: 0 DROPPED PREFETCHES: 0
PSCL3 PREFETCHES SAME FILL-ORIGIN LEVEL: 0 DIFFERENT FILL-ORIGIN LEVEL: 0

PSCL2 TOTAL     ACCESS:     355606  HIT:     246828  MISS:     108778  HIT %:    69.4105  MISS %:    30.5895   MPKI: 0.54389
PSCL2 LOAD TRANSLATION ACCESS:     355606  HIT:     246828  MISS:     108778  HIT %:    69.4105  MISS %:    30.5895   MPKI: 0.54389
PSCL2 PREFETCH  REQUESTED:          0  ISSUED:          0  USEFUL:          0  USELESS:          0
PSCL2 USEFUL LOAD PREFETCHES:          0 PREFETCH ISSUED TO LOWER LEVEL:          0  ACCURACY: -nan
PSCL2 TIMELY PREFETCHES:          0 LATE PREFETCHES: 0 DROPPED PREFETCHES: 0
PSCL2 PREFETCHES SAME FILL-ORIGIN LEVEL: 0 DIFFERENT FILL-ORIGIN LEVEL: 0

LLC TOTAL     ACCESS:    3536864  HIT:    3236614  MISS:     300250  HIT %:    91.5108  MISS %:    8.48916   MPKI: 1.50125
LLC LOAD      ACCESS:    2778552  HIT:    2543964  MISS:     234588  HIT %:    91.5572  MISS %:    8.44281   MPKI: 1.17294
LLC RFO       ACCESS:     137859  HIT:      91632  MISS:      46227  HIT %:    66.4679  MISS %:    33.5321   MPKI: 0.231135
LLC PREFETCH  ACCESS:      27599  HIT:      21899  MISS:       5700  HIT %:    79.3471  MISS %:    20.6529   MPKI: 0.0285
AGUS PREFETCH L1 MISS: 0
LLC WRITEBACK ACCESS:     413324  HIT:     411242  MISS:       2082  HIT %:    99.4963  MISS %:   0.503721   MPKI: 0.01041
LLC LOAD TRANSLATION ACCESS:     179530  HIT:     167877  MISS:      11653  HIT %:    93.5092  MISS %:    6.49084   MPKI: 0.058265
LLC PREFETCH  REQUESTED:          0  ISSUED:          0  USEFUL:        433  USELESS:       5269
LLC USEFUL LOAD PREFETCHES:        433 PREFETCH ISSUED TO LOWER LEVEL:       5700  ACCURACY: 7.59649
LLC TIMELY PREFETCHES:        433 LATE PREFETCHES: 0 DROPPED PREFETCHES: 0
LLC PREFETCHES SAME FILL-ORIGIN LEVEL: 0 DIFFERENT FILL-ORIGIN LEVEL: 0
LLC AVERAGE MISS LATENCY: 152.145 cycles
LLC RQ	ACCESS:    3095949	FORWARD:          0	MERGED:          0	TO_CACHE:    3095941
LLC WQ	ACCESS:     413324	FORWARD:          8	MERGED:          0	TO_CACHE:     413324
LLC PQ	ACCESS:      27599	FORWARD:          0	MERGED:          0	TO_CACHE:      27599

LLC Dense regions hint to LLC: 0

RAW hits: 2775002
Loads Generated: 44852676
Loads sent to L1D: 42077672
Stores Generated: 20271815
Stores sent to L1D: 20271818
Major fault: 0 Minor fault: 6260
Allocated PAGES: 6260
CPU 0 L1D PC-based stride prefetcher final stats
Degree: 3

DRAM Statistics
 CHANNEL 0
 RQ ROW_BUFFER_HIT:      56265  ROW_BUFFER_MISS:     241903
 DBUS_CONGESTED:        181
 WQ ROW_BUFFER_HIT:      29740  ROW_BUFFER_MISS:     184575  FULL:          0

 AVG_CONGESTED_CYCLE: 4
 All warmup complete: 2
Channel 0 Bank busy for read cycles: 0
Channel 0 Bank busy for write cycles: 0
Channel 0
Rank 0
0banks busy for read cycles: 386080265
0banks busy for write cycles: 120143
1banks busy for read cycles: 27427845
1banks busy for write cycles: 16797577
2banks busy for read cycles: 3715587
2banks busy for write cycles: 4075486
3banks busy for read cycles: 528571
3banks busy for write cycles: 1363248
4banks busy for read cycles: 254744
4banks busy for write cycles: 723413
5banks busy for read cycles: 89736
5banks busy for write cycles: 405562
6banks busy for read cycles: 72351
6banks busy for write cycles: 287767
7banks busy for read cycles: 45025
7banks busy for write cycles: 256192
8banks busy for read cycles: 54742
8banks busy for write cycles: 284079

CPU 0 Branch Prediction Accuracy: 99.8245% MPKI: 0.314415 Average ROB Occupancy at Mispredict: 43.2087
Branch types
NOT_BRANCH: 164177126 82.0886%
BRANCH_DIRECT_JUMP: 1771716 0.885858%
BRANCH_INDIRECT: 9488973 4.74449%
BRANCH_CONDITIONAL: 18194015 9.09701%
BRANCH_DIRECT_CALL: 2499396 1.2497%
BRANCH_INDIRECT_CALL: 683762 0.341881%
BRANCH_RETURN: 3184671 1.59234%
BRANCH_OTHER: 0 0%

DRAM PAGES: 1048576
Allocated PAGES: 6260
