
*** ChampSim Multicore Out-of-Order Simulator ***

Warmup Instructions: 50000000
Simulation Instructions: 200000000
Number of CPUs: 1
LLC sets: 2048
LLC ways: 16
Off-chip DRAM Size: 4096 MB Channels: 1 Width: 64-bit Data Rate: 6400 MT/s
CPU 0 runs traces/spec2k17/client_006.champsimtrace.xz
.xz
BTB has LRU replacement policy
ITLB has LRU replacement policy
DTLB has LRU replacement policy
STLB has LRU replacement policy
L1I has LRU replacement policy
History Sets: 8
History Ways: 16
BERTI Size: 16
BERTI Stride Size: 16
L1D has LRU replacement policy
Initialize SRRIP state for L2C
Initialize DRRIP state for LLC
Heartbeat CPU 0 instructions: 10000000 cycles: 3268399 heartbeat IPC: 3.0596 cumulative IPC: 3.0596 (Simulation time: 0 hr 0 min 42 sec) 
Heartbeat CPU 0 instructions: 20000002 cycles: 6462090 heartbeat IPC: 3.13117 cumulative IPC: 3.09497 (Simulation time: 0 hr 1 min 23 sec) 
Heartbeat CPU 0 instructions: 30000000 cycles: 9245066 heartbeat IPC: 3.59328 cumulative IPC: 3.24497 (Simulation time: 0 hr 1 min 58 sec) 
Heartbeat CPU 0 instructions: 40000001 cycles: 12125625 heartbeat IPC: 3.47155 cumulative IPC: 3.2988 (Simulation time: 0 hr 2 min 43 sec) 
Heartbeat CPU 0 instructions: 50000001 cycles: 15288857 heartbeat IPC: 3.16132 cumulative IPC: 3.27036 (Simulation time: 0 hr 3 min 29 sec) 

Warmup complete CPU 0 instructions: 50000001 cycles: 15288857 (Simulation time: 0 hr 3 min 29 sec) 

Heartbeat CPU 0 instructions: 60000000 cycles: 34169932 heartbeat IPC: 0.529631 cumulative IPC: 0.529631 (Simulation time: 0 hr 4 min 33 sec) 
Heartbeat CPU 0 instructions: 70000000 cycles: 58061988 heartbeat IPC: 0.418549 cumulative IPC: 0.467583 (Simulation time: 0 hr 5 min 27 sec) 
Heartbeat CPU 0 instructions: 80000000 cycles: 76402934 heartbeat IPC: 0.545228 cumulative IPC: 0.490885 (Simulation time: 0 hr 6 min 19 sec) 
Heartbeat CPU 0 instructions: 90000000 cycles: 97629140 heartbeat IPC: 0.471116 cumulative IPC: 0.485789 (Simulation time: 0 hr 7 min 7 sec) 
Heartbeat CPU 0 instructions: 100000000 cycles: 116158644 heartbeat IPC: 0.53968 cumulative IPC: 0.495689 (Simulation time: 0 hr 7 min 58 sec) 
*** Reached end of trace for Core: 0 Repeating trace: traces/spec2k17/client_006.champsimtrace.xz
Heartbeat CPU 0 instructions: 110000000 cycles: 133280623 heartbeat IPC: 0.584045 cumulative IPC: 0.50851 (Simulation time: 0 hr 9 min 2 sec) 
Heartbeat CPU 0 instructions: 120000003 cycles: 150616863 heartbeat IPC: 0.576827 cumulative IPC: 0.517262 (Simulation time: 0 hr 9 min 59 sec) 
Heartbeat CPU 0 instructions: 130000002 cycles: 168065981 heartbeat IPC: 0.573095 cumulative IPC: 0.523639 (Simulation time: 0 hr 10 min 47 sec) 
Heartbeat CPU 0 instructions: 140000001 cycles: 184878056 heartbeat IPC: 0.594811 cumulative IPC: 0.530694 (Simulation time: 0 hr 11 min 43 sec) 
Heartbeat CPU 0 instructions: 150000001 cycles: 205558209 heartbeat IPC: 0.483555 cumulative IPC: 0.525571 (Simulation time: 0 hr 12 min 49 sec) 
Heartbeat CPU 0 instructions: 160000000 cycles: 223212983 heartbeat IPC: 0.566419 cumulative IPC: 0.529039 (Simulation time: 0 hr 13 min 38 sec) 
Heartbeat CPU 0 instructions: 170000000 cycles: 247586307 heartbeat IPC: 0.410285 cumulative IPC: 0.516579 (Simulation time: 0 hr 14 min 29 sec) 
Heartbeat CPU 0 instructions: 180000003 cycles: 266290996 heartbeat IPC: 0.534625 cumulative IPC: 0.517924 (Simulation time: 0 hr 15 min 25 sec) 
Heartbeat CPU 0 instructions: 190000000 cycles: 287122933 heartbeat IPC: 0.480032 cumulative IPC: 0.51502 (Simulation time: 0 hr 16 min 14 sec) 
Heartbeat CPU 0 instructions: 200000000 cycles: 305534844 heartbeat IPC: 0.543127 cumulative IPC: 0.516803 (Simulation time: 0 hr 17 min 8 sec) 
*** Reached end of trace for Core: 0 Repeating trace: traces/spec2k17/client_006.champsimtrace.xz
Heartbeat CPU 0 instructions: 210000003 cycles: 322829301 heartbeat IPC: 0.57822 cumulative IPC: 0.520257 (Simulation time: 0 hr 18 min 7 sec) 
Heartbeat CPU 0 instructions: 220000000 cycles: 340253517 heartbeat IPC: 0.573914 cumulative IPC: 0.523134 (Simulation time: 0 hr 19 min 15 sec) 
Heartbeat CPU 0 instructions: 230000000 cycles: 356823939 heartbeat IPC: 0.603485 cumulative IPC: 0.527032 (Simulation time: 0 hr 20 min 9 sec) 
Heartbeat CPU 0 instructions: 240000002 cycles: 374240935 heartbeat IPC: 0.574152 cumulative IPC: 0.529319 (Simulation time: 0 hr 21 min 0 sec) 
Heartbeat CPU 0 instructions: 250000000 cycles: 394149883 heartbeat IPC: 0.502287 cumulative IPC: 0.527898 (Simulation time: 0 hr 22 min 4 sec) 
Finished CPU 0 instructions: 200000003 cycles: 378861034 cumulative IPC: 0.527898 (Simulation time: 0 hr 22 min 4 sec) 

ChampSim completed all CPUs

Region of Interest Statistics

CPU 0 cumulative IPC: 0.527898 instructions: 200000003 cycles: 378861034
ITLB TOTAL     ACCESS:   31676122  HIT:   31181076  MISS:     495046  HIT %:    98.4372  MISS %:    1.56284   MPKI: 2.47523
ITLB LOAD TRANSLATION ACCESS:   31676122  HIT:   31181076  MISS:     495046  HIT %:    98.4372  MISS %:    1.56284   MPKI: 2.47523
ITLB PREFETCH  REQUESTED:          0  ISSUED:          0  USEFUL:          0  USELESS:          0
ITLB USEFUL LOAD PREFETCHES:          0 PREFETCH ISSUED TO LOWER LEVEL:          0  ACCURACY: -nan
ITLB TIMELY PREFETCHES:          0 LATE PREFETCHES: 0 DROPPED PREFETCHES: 0
ITLB PREFETCHES SAME FILL-ORIGIN LEVEL: 0 DIFFERENT FILL-ORIGIN LEVEL: 0
ITLB AVERAGE MISS LATENCY: 11.1198 cycles
ITLB RQ	ACCESS:   37626881	FORWARD:          0	MERGED:    5895915	TO_CACHE:   31730966

DTLB TOTAL     ACCESS:   41196743  HIT:   39950148  MISS:    1246595  HIT %:     96.974  MISS %:    3.02596   MPKI: 6.23297
DTLB LOAD TRANSLATION ACCESS:   41196743  HIT:   39950148  MISS:    1246595  HIT %:     96.974  MISS %:    3.02596   MPKI: 6.23297
DTLB PREFETCH  REQUESTED:          0  ISSUED:          0  USEFUL:          0  USELESS:          0
DTLB USEFUL LOAD PREFETCHES:          0 PREFETCH ISSUED TO LOWER LEVEL:          0  ACCURACY: -nan
DTLB TIMELY PREFETCHES:          0 LATE PREFETCHES: 0 DROPPED PREFETCHES: 0
DTLB PREFETCHES SAME FILL-ORIGIN LEVEL: 0 DIFFERENT FILL-ORIGIN LEVEL: 0
DTLB AVERAGE MISS LATENCY: 14.9289 cycles
DTLB RQ	ACCESS:   50853513	FORWARD:          0	MERGED:    9602726	TO_CACHE:   41250787

STLB TOTAL     ACCESS:    3563512  HIT:    3472361  MISS:      91151  HIT %:    97.4421  MISS %:     2.5579   MPKI: 0.455755
STLB LOAD TRANSLATION ACCESS:    1741641  HIT:    1655829  MISS:      85812  HIT %:    95.0729  MISS %:    4.92708   MPKI: 0.42906
STLB TRANSLATION FROM L1D PREFETCHER ACCESS:    1821871  HIT:    1816532  MISS:       5339  HIT %:    99.7069  MISS %:    0.29305   MPKI: 0.026695
STLB PREFETCH  REQUESTED:          0  ISSUED:          0  USEFUL:       5286  USELESS:         51
STLB USEFUL LOAD PREFETCHES:       5286 PREFETCH ISSUED TO LOWER LEVEL:          0  ACCURACY: inf
STLB TIMELY PREFETCHES:       5286 LATE PREFETCHES: 223 DROPPED PREFETCHES: 10558
STLB PREFETCHES SAME FILL-ORIGIN LEVEL: 0 DIFFERENT FILL-ORIGIN LEVEL: 0
STLB AVERAGE MISS LATENCY: 94.2924 cycles
STLB RQ	ACCESS:   10352170	FORWARD:          0	MERGED:    6770251	TO_CACHE:    3581919

STLB Hit, L1D data hit: 0
STLB Hit, L2C data hit: 0
STLB Hit, LLC data hit: 0
STLB Hit, LLC data miss: 0
STLB STLB hints to L2: 0
L1D TOTAL     ACCESS:   56485581  HIT:   53664383  MISS:    2821198  HIT %:    95.0055  MISS %:    4.99455   MPKI: 14.106
L1D LOAD      ACCESS:   33889993  HIT:   32224486  MISS:    1665507  HIT %:    95.0855  MISS %:    4.91445   MPKI: 8.32753
L1D RFO       ACCESS:   16204298  HIT:   15946855  MISS:     257443  HIT %:    98.4113  MISS %:    1.58873   MPKI: 1.28721
L1D PREFETCH  ACCESS:    6391290  HIT:    5493042  MISS:     898248  HIT %:    85.9457  MISS %:    14.0543   MPKI: 4.49124
L1D PREFETCH  REQUESTED:   19992458  ISSUED:   19411314  USEFUL:     803574  USELESS:      94674
L1D USEFUL LOAD PREFETCHES:     803574 PREFETCH ISSUED TO LOWER LEVEL:    2892047  ACCURACY: 27.7856
L1D TIMELY PREFETCHES:     803574 LATE PREFETCHES: 27485 DROPPED PREFETCHES: 18681
L1D PREFETCHES SAME FILL-ORIGIN LEVEL: 925847 DIFFERENT FILL-ORIGIN LEVEL: 1966200
L1D AVERAGE MISS LATENCY: 74.0531 cycles
L1D RQ	ACCESS:   49621604	FORWARD:          0	MERGED:   15338764	TO_CACHE:   34082643
L1D WQ	ACCESS:   17096511	FORWARD:     200201	MERGED:     325641	TO_CACHE:   16770870
L1D PQ	ACCESS:   10800785	FORWARD:          0	MERGED:    2190252	TO_CACHE:    8610529

L1D UNIQUE REGIONS ACCESSED: 0
L1D REGIONS CONFLICTS: 0
L1D Cross Page Prefetch Requests: 2222832
L1D Same Page Prefetch Requests: 12234996
L1D ROI Sum of L1D PQ occupancy: 133051228
L1D PREFETCHES PUSHED FROM L2C: 0
L1I TOTAL     ACCESS:   36757014  HIT:   34309194  MISS:    2447820  HIT %:    93.3405  MISS %:    6.65946   MPKI: 12.2391
L1I LOAD      ACCESS:   36757014  HIT:   34309194  MISS:    2447820  HIT %:    93.3405  MISS %:    6.65946   MPKI: 12.2391
L1I PREFETCH  REQUESTED:          0  ISSUED:          0  USEFUL:          0  USELESS:          0
L1I USEFUL LOAD PREFETCHES:          0 PREFETCH ISSUED TO LOWER LEVEL:          0  ACCURACY: -nan
L1I TIMELY PREFETCHES:          0 LATE PREFETCHES: 0 DROPPED PREFETCHES: 0
L1I PREFETCHES SAME FILL-ORIGIN LEVEL: 0 DIFFERENT FILL-ORIGIN LEVEL: 0
L1I AVERAGE MISS LATENCY: 19.8854 cycles
L1I RQ	ACCESS:   57361575	FORWARD:          0	MERGED:   19734694	TO_CACHE:   37626881

BTB TOTAL     ACCESS:   25851423  HIT:   24123555  MISS:    1727868  HIT %:    93.3162  MISS %:    6.68384   MPKI: 8.63934
BTB BRANCH_DIRECT_JUMP	ACCESS:    1806110  HIT:    1783873  MISS:      22237
BTB BRANCH_INDIRECT	ACCESS:    7197239  HIT:    6432275  MISS:     764964
BTB BRANCH_CONDITIONAL	ACCESS:   11207262  HIT:   11165232  MISS:      42030
BTB BRANCH_DIRECT_CALL	ACCESS:    1904338  HIT:    1877545  MISS:      26793
BTB BRANCH_INDIRECT_CALL	ACCESS:     912580  HIT:     722486  MISS:     190094
BTB BRANCH_RETURN	ACCESS:    2823894  HIT:    2142144  MISS:     681750
BTB BRANCH_OTHER ACCESS:          0  HIT:          0  MISS:          0

L2C TOTAL     ACCESS:    7950679  HIT:    6170487  MISS:    1780192  HIT %:    77.6096  MISS %:    22.3904   MPKI: 8.90096
L2C LOAD      ACCESS:    4085760  HIT:    3202336  MISS:     883424  HIT %:     78.378  MISS %:     21.622   MPKI: 4.41712
L2C DATA LOAD MPKI: 3.76692
L2C INSTRUCTION LOAD MPKI: 0.650195
L2C RFO       ACCESS:     257413  HIT:      92326  MISS:     165087  HIT %:    35.8669  MISS %:    64.1331   MPKI: 0.825435
L2C PREFETCH  ACCESS:    2678332  HIT:    2009466  MISS:     668866  HIT %:    75.0268  MISS %:    24.9732   MPKI: 3.34433
L2C DATA PREFETCH MPKI: 3.34433
L2C INSTRUCTION PREFETCH MPKI: 0
L2C WRITEBACK ACCESS:     816713  HIT:     802168  MISS:      14545  HIT %:    98.2191  MISS %:    1.78092   MPKI: 0.072725
L2C LOAD TRANSLATION ACCESS:      95852  HIT:      48827  MISS:      47025  HIT %:      50.94  MISS %:      49.06   MPKI: 0.235125
L2C TRANSLATION FROM L1D PREFETCHER ACCESS:      16609  HIT:      15364  MISS:       1245  HIT %:    92.5041  MISS %:    7.49594   MPKI: 0.006225
L2C PREFETCH  REQUESTED:          0  ISSUED:          0  USEFUL:      61493  USELESS:     608656
L2C USEFUL LOAD PREFETCHES:      61493 PREFETCH ISSUED TO LOWER LEVEL:     699142  ACCURACY: 8.7955
L2C TIMELY PREFETCHES:      61493 LATE PREFETCHES: 30276 DROPPED PREFETCHES: 0
L2C PREFETCHES SAME FILL-ORIGIN LEVEL: 180352 DIFFERENT FILL-ORIGIN LEVEL: 0
L2C AVERAGE MISS LATENCY: 123.336 cycles
L2C RQ	ACCESS:    4455716	FORWARD:          0	MERGED:          0	TO_CACHE:    4455634
L2C WQ	ACCESS:     816713	FORWARD:         83	MERGED:          0	TO_CACHE:     816713
L2C PQ	ACCESS:    2879734	FORWARD:          0	MERGED:       4194	TO_CACHE:    2875539

L2C Instructions Evicting Data 109448
L2C Translations Evicting Data 41940
L2C Data Evicting Data 1436379
L2C Instructions Evicting Instructions 16162
L2C Translations Evicting Instructions 4815
L2C Data Evicting Instructions 108778
L2C Instructions Evicting Translations 4429
L2C Translations Evicting Translations 1515
L2C Data Evicting Translations 42181
L2C Dense regions hint from L2: 0
PSCL5 TOTAL     ACCESS:     101728  HIT:     101728  MISS:          0  HIT %:        100  MISS %:          0   MPKI: 0
PSCL5 LOAD TRANSLATION ACCESS:      85608  HIT:      85608  MISS:          0  HIT %:        100  MISS %:          0   MPKI: 0
PSCL5 TRANSLATION FROM L1D PREFETCHER ACCESS:      16120  HIT:      16120  MISS:          0  HIT %:        100  MISS %:          0   MPKI: 0
PSCL5 PREFETCH  REQUESTED:          0  ISSUED:          0  USEFUL:          0  USELESS:          0
PSCL5 USEFUL LOAD PREFETCHES:          0 PREFETCH ISSUED TO LOWER LEVEL:          0  ACCURACY: -nan
PSCL5 TIMELY PREFETCHES:          0 LATE PREFETCHES: 0 DROPPED PREFETCHES: 0
PSCL5 PREFETCHES SAME FILL-ORIGIN LEVEL: 0 DIFFERENT FILL-ORIGIN LEVEL: 0

PSCL4 TOTAL     ACCESS:      94576  HIT:      94466  MISS:        110  HIT %:    99.8837  MISS %:   0.116309   MPKI: 0.00055
PSCL4 LOAD TRANSLATION ACCESS:      78707  HIT:      78597  MISS:        110  HIT %:    99.8602  MISS %:   0.139759   MPKI: 0.00055
PSCL4 TRANSLATION FROM L1D PREFETCHER ACCESS:      15869  HIT:      15869  MISS:          0  HIT %:        100  MISS %:          0   MPKI: 0
PSCL4 PREFETCH  REQUESTED:          0  ISSUED:          0  USEFUL:          0  USELESS:          0
PSCL4 USEFUL LOAD PREFETCHES:          0 PREFETCH ISSUED TO LOWER LEVEL:          0  ACCURACY: -nan
PSCL4 TIMELY PREFETCHES:          0 LATE PREFETCHES: 0 DROPPED PREFETCHES: 0
PSCL4 PREFETCHES SAME FILL-ORIGIN LEVEL: 0 DIFFERENT FILL-ORIGIN LEVEL: 0

PSCL3 TOTAL     ACCESS:     101518  HIT:     101229  MISS:        289  HIT %:    99.7153  MISS %:   0.284679   MPKI: 0.001445
PSCL3 LOAD TRANSLATION ACCESS:      85421  HIT:      85132  MISS:        289  HIT %:    99.6617  MISS %:   0.338324   MPKI: 0.001445
PSCL3 TRANSLATION FROM L1D PREFETCHER ACCESS:      16097  HIT:      16097  MISS:          0  HIT %:        100  MISS %:          0   MPKI: 0
PSCL3 PREFETCH  REQUESTED:          0  ISSUED:          0  USEFUL:          0  USELESS:          0
PSCL3 USEFUL LOAD PREFETCHES:          0 PREFETCH ISSUED TO LOWER LEVEL:          0  ACCURACY: -nan
PSCL3 TIMELY PREFETCHES:          0 LATE PREFETCHES: 0 DROPPED PREFETCHES: 0
PSCL3 PREFETCHES SAME FILL-ORIGIN LEVEL: 0 DIFFERENT FILL-ORIGIN LEVEL: 0

PSCL2 TOTAL     ACCESS:     101304  HIT:      91368  MISS:       9936  HIT %:    90.1919  MISS %:     9.8081   MPKI: 0.04968
PSCL2 LOAD TRANSLATION ACCESS:      85674  HIT:      75738  MISS:       9936  HIT %:    88.4025  MISS %:    11.5975   MPKI: 0.04968
PSCL2 TRANSLATION FROM L1D PREFETCHER ACCESS:      15630  HIT:      15630  MISS:          0  HIT %:        100  MISS %:          0   MPKI: 0
PSCL2 PREFETCH  REQUESTED:          0  ISSUED:          0  USEFUL:          0  USELESS:          0
PSCL2 USEFUL LOAD PREFETCHES:          0 PREFETCH ISSUED TO LOWER LEVEL:          0  ACCURACY: -nan
PSCL2 TIMELY PREFETCHES:          0 LATE PREFETCHES: 0 DROPPED PREFETCHES: 0
PSCL2 PREFETCHES SAME FILL-ORIGIN LEVEL: 0 DIFFERENT FILL-ORIGIN LEVEL: 0

LLC TOTAL     ACCESS:    2260580  HIT:    1271314  MISS:     989266  HIT %:    56.2384  MISS %:    43.7616   MPKI: 4.94633
LLC LOAD      ACCESS:     853431  HIT:     231515  MISS:     621916  HIT %:    27.1276  MISS %:    72.8724   MPKI: 3.10958
LLC RFO       ACCESS:     164804  HIT:      22609  MISS:     142195  HIT %:    13.7187  MISS %:    86.2813   MPKI: 0.710975
LLC PREFETCH  ACCESS:     699142  HIT:     523595  MISS:     175547  HIT %:    74.8911  MISS %:    25.1089   MPKI: 0.877735
LLC WRITEBACK ACCESS:     494933  HIT:     470278  MISS:      24655  HIT %:    95.0185  MISS %:    4.98148   MPKI: 0.123275
LLC LOAD TRANSLATION ACCESS:      47025  HIT:      22569  MISS:      24456  HIT %:    47.9936  MISS %:    52.0064   MPKI: 0.12228
LLC TRANSLATION FROM L1D PREFETCHER ACCESS:       1245  HIT:        748  MISS:        497  HIT %:    60.0803  MISS %:    39.9197   MPKI: 0.002485
LLC PREFETCH  REQUESTED:          0  ISSUED:          0  USEFUL:       7983  USELESS:     165157
LLC USEFUL LOAD PREFETCHES:       7983 PREFETCH ISSUED TO LOWER LEVEL:     175547  ACCURACY: 4.5475
LLC TIMELY PREFETCHES:       7983 LATE PREFETCHES: 0 DROPPED PREFETCHES: 0
LLC PREFETCHES SAME FILL-ORIGIN LEVEL: 0 DIFFERENT FILL-ORIGIN LEVEL: 0
LLC AVERAGE MISS LATENCY: 171.856 cycles
LLC RQ	ACCESS:    1066505	FORWARD:          0	MERGED:          0	TO_CACHE:    1066505
LLC WQ	ACCESS:     494933	FORWARD:          0	MERGED:          0	TO_CACHE:     494933
LLC PQ	ACCESS:     699142	FORWARD:          0	MERGED:          0	TO_CACHE:     699142

LLC Dense regions hint to LLC: 0

RAW hits: 2410875
Loads Generated: 52032481
Loads sent to L1D: 49621604
Stores Generated: 17096501
Stores sent to L1D: 17096511
Major fault: 0 Minor fault: 10830
Allocated PAGES: 10830

DRAM Statistics
 CHANNEL 0
 RQ ROW_BUFFER_HIT:     235000  ROW_BUFFER_MISS:     729590
 DBUS_CONGESTED:        469
 WQ ROW_BUFFER_HIT:     105553  ROW_BUFFER_MISS:     334598  FULL:          0

 AVG_CONGESTED_CYCLE: 4
 All warmup complete: 2
Channel 0 Bank busy for read cycles: 0
Channel 0 Bank busy for write cycles: 0
Channel 0
Rank 0
0banks busy for read cycles: 251095420
0banks busy for write cycles: 174890
1banks busy for read cycles: 60493183
1banks busy for write cycles: 26166475
2banks busy for read cycles: 13426421
2banks busy for write cycles: 9063172
3banks busy for read cycles: 4500135
3banks busy for write cycles: 4132101
4banks busy for read cycles: 1366494
4banks busy for write cycles: 2055185
5banks busy for read cycles: 568463
5banks busy for write cycles: 1085809
6banks busy for read cycles: 373008
6banks busy for write cycles: 601024
7banks busy for read cycles: 350136
7banks busy for write cycles: 506671
8banks busy for read cycles: 990372
8banks busy for write cycles: 1912076

CPU 0 Branch Prediction Accuracy: 99.0203% MPKI: 1.6776 Average ROB Occupancy at Mispredict: 38.5781
Branch types
NOT_BRANCH: 165753023 82.8765%
BRANCH_DIRECT_JUMP: 1806110 0.903055%
BRANCH_INDIRECT: 7197239 3.59862%
BRANCH_CONDITIONAL: 19602510 9.80125%
BRANCH_DIRECT_CALL: 1904338 0.952169%
BRANCH_INDIRECT_CALL: 912580 0.45629%
BRANCH_RETURN: 2823894 1.41195%
BRANCH_OTHER: 0 0%

DRAM PAGES: 1048576
Allocated PAGES: 10830
