
*** ChampSim Multicore Out-of-Order Simulator ***

Warmup Instructions: 50000000
Simulation Instructions: 200000000
Number of CPUs: 1
LLC sets: 2048
LLC ways: 16
Off-chip DRAM Size: 4096 MB Channels: 1 Width: 64-bit Data Rate: 6400 MT/s
CPU 0 runs traces/spec2k17/client_008.champsimtrace.xz
.xz
BTB has LRU replacement policy
ITLB has LRU replacement policy
DTLB has LRU replacement policy
STLB has LRU replacement policy
L1I has LRU replacement policy
History Sets: 8
History Ways: 16
BERTI Size: 16
BERTI Stride Size: 16
L1D has LRU replacement policy
Initialize SRRIP state for L2C
Initialize DRRIP state for LLC
Heartbeat CPU 0 instructions: 10000000 cycles: 2911882 heartbeat IPC: 3.43421 cumulative IPC: 3.43421 (Simulation time: 0 hr 0 min 39 sec) 
Heartbeat CPU 0 instructions: 20000000 cycles: 5843878 heartbeat IPC: 3.41065 cumulative IPC: 3.42238 (Simulation time: 0 hr 1 min 21 sec) 
Heartbeat CPU 0 instructions: 30000001 cycles: 8751515 heartbeat IPC: 3.43922 cumulative IPC: 3.42798 (Simulation time: 0 hr 2 min 5 sec) 
Heartbeat CPU 0 instructions: 40000003 cycles: 11685609 heartbeat IPC: 3.40821 cumulative IPC: 3.42301 (Simulation time: 0 hr 2 min 58 sec) 
Heartbeat CPU 0 instructions: 50000002 cycles: 14616071 heartbeat IPC: 3.41243 cumulative IPC: 3.42089 (Simulation time: 0 hr 3 min 49 sec) 

Warmup complete CPU 0 instructions: 50000002 cycles: 14616071 (Simulation time: 0 hr 3 min 49 sec) 

Heartbeat CPU 0 instructions: 60000000 cycles: 35345795 heartbeat IPC: 0.482399 cumulative IPC: 0.482399 (Simulation time: 0 hr 4 min 43 sec) 
Heartbeat CPU 0 instructions: 70000000 cycles: 55900383 heartbeat IPC: 0.486509 cumulative IPC: 0.484445 (Simulation time: 0 hr 5 min 39 sec) 
Heartbeat CPU 0 instructions: 80000000 cycles: 77183246 heartbeat IPC: 0.469862 cumulative IPC: 0.479485 (Simulation time: 0 hr 6 min 38 sec) 
Heartbeat CPU 0 instructions: 90000003 cycles: 106715699 heartbeat IPC: 0.338611 cumulative IPC: 0.434312 (Simulation time: 0 hr 7 min 31 sec) 
Heartbeat CPU 0 instructions: 100000001 cycles: 122910583 heartbeat IPC: 0.617479 cumulative IPC: 0.461704 (Simulation time: 0 hr 8 min 25 sec) 
*** Reached end of trace for Core: 0 Repeating trace: traces/spec2k17/client_008.champsimtrace.xz
Heartbeat CPU 0 instructions: 110000000 cycles: 144104740 heartbeat IPC: 0.471828 cumulative IPC: 0.463361 (Simulation time: 0 hr 9 min 19 sec) 
Heartbeat CPU 0 instructions: 120000001 cycles: 166043243 heartbeat IPC: 0.45582 cumulative IPC: 0.462268 (Simulation time: 0 hr 10 min 17 sec) 
Heartbeat CPU 0 instructions: 130000000 cycles: 189185059 heartbeat IPC: 0.432118 cumulative IPC: 0.458272 (Simulation time: 0 hr 11 min 9 sec) 
Heartbeat CPU 0 instructions: 140000002 cycles: 211020925 heartbeat IPC: 0.457962 cumulative IPC: 0.458237 (Simulation time: 0 hr 11 min 56 sec) 
Heartbeat CPU 0 instructions: 150000001 cycles: 233845914 heartbeat IPC: 0.438116 cumulative IPC: 0.456142 (Simulation time: 0 hr 12 min 48 sec) 
Heartbeat CPU 0 instructions: 160000000 cycles: 255267196 heartbeat IPC: 0.466825 cumulative IPC: 0.457093 (Simulation time: 0 hr 13 min 40 sec) 
Heartbeat CPU 0 instructions: 170000000 cycles: 275631381 heartbeat IPC: 0.491058 cumulative IPC: 0.459743 (Simulation time: 0 hr 14 min 33 sec) 
Heartbeat CPU 0 instructions: 180000000 cycles: 294816749 heartbeat IPC: 0.521231 cumulative IPC: 0.463953 (Simulation time: 0 hr 15 min 27 sec) 
Heartbeat CPU 0 instructions: 190000001 cycles: 324989246 heartbeat IPC: 0.331428 cumulative IPC: 0.45107 (Simulation time: 0 hr 16 min 21 sec) 
Heartbeat CPU 0 instructions: 200000000 cycles: 344289700 heartbeat IPC: 0.518122 cumulative IPC: 0.454995 (Simulation time: 0 hr 17 min 11 sec) 
*** Reached end of trace for Core: 0 Repeating trace: traces/spec2k17/client_008.champsimtrace.xz
Heartbeat CPU 0 instructions: 210000001 cycles: 362456674 heartbeat IPC: 0.550449 cumulative IPC: 0.459981 (Simulation time: 0 hr 18 min 5 sec) 
Heartbeat CPU 0 instructions: 220000000 cycles: 384953289 heartbeat IPC: 0.444511 cumulative IPC: 0.459041 (Simulation time: 0 hr 19 min 2 sec) 
Heartbeat CPU 0 instructions: 230000003 cycles: 407456974 heartbeat IPC: 0.444372 cumulative IPC: 0.458201 (Simulation time: 0 hr 20 min 0 sec) 
Heartbeat CPU 0 instructions: 240000002 cycles: 429679233 heartbeat IPC: 0.449999 cumulative IPC: 0.457762 (Simulation time: 0 hr 20 min 52 sec) 
Heartbeat CPU 0 instructions: 250000002 cycles: 452178375 heartbeat IPC: 0.444461 cumulative IPC: 0.457078 (Simulation time: 0 hr 21 min 42 sec) 
Finished CPU 0 instructions: 200000000 cycles: 437562304 cumulative IPC: 0.457078 (Simulation time: 0 hr 21 min 42 sec) 

ChampSim completed all CPUs

Region of Interest Statistics

CPU 0 cumulative IPC: 0.457078 instructions: 200000000 cycles: 437562304
ITLB TOTAL     ACCESS:   33949087  HIT:   32949805  MISS:     999282  HIT %:    97.0565  MISS %:    2.94347   MPKI: 4.99641
ITLB LOAD TRANSLATION ACCESS:   33949087  HIT:   32949805  MISS:     999282  HIT %:    97.0565  MISS %:    2.94347   MPKI: 4.99641
ITLB PREFETCH  REQUESTED:          0  ISSUED:          0  USEFUL:          0  USELESS:          0
ITLB USEFUL LOAD PREFETCHES:          0 PREFETCH ISSUED TO LOWER LEVEL:          0  ACCURACY: -nan
ITLB TIMELY PREFETCHES:          0 LATE PREFETCHES: 0 DROPPED PREFETCHES: 0
ITLB PREFETCHES SAME FILL-ORIGIN LEVEL: 0 DIFFERENT FILL-ORIGIN LEVEL: 0
ITLB AVERAGE MISS LATENCY: 9.49743 cycles
ITLB RQ	ACCESS:   38131650	FORWARD:          0	MERGED:    3933711	TO_CACHE:   34197939

DTLB TOTAL     ACCESS:   44555215  HIT:   41508091  MISS:    3047124  HIT %:     93.161  MISS %:    6.83898   MPKI: 15.2356
DTLB LOAD TRANSLATION ACCESS:   44555215  HIT:   41508091  MISS:    3047124  HIT %:     93.161  MISS %:    6.83898   MPKI: 15.2356
DTLB PREFETCH  REQUESTED:          0  ISSUED:          0  USEFUL:          0  USELESS:          0
DTLB USEFUL LOAD PREFETCHES:          0 PREFETCH ISSUED TO LOWER LEVEL:          0  ACCURACY: -nan
DTLB TIMELY PREFETCHES:          0 LATE PREFETCHES: 0 DROPPED PREFETCHES: 0
DTLB PREFETCHES SAME FILL-ORIGIN LEVEL: 0 DIFFERENT FILL-ORIGIN LEVEL: 0
DTLB AVERAGE MISS LATENCY: 9.46807 cycles
DTLB RQ	ACCESS:   54725193	FORWARD:          0	MERGED:   10079396	TO_CACHE:   44645797

STLB TOTAL     ACCESS:    4859891  HIT:    4828356  MISS:      31535  HIT %:    99.3511  MISS %:   0.648883   MPKI: 0.157675
STLB LOAD TRANSLATION ACCESS:    4046406  HIT:    4015909  MISS:      30497  HIT %:    99.2463  MISS %:   0.753681   MPKI: 0.152485
STLB TRANSLATION FROM L1D PREFETCHER ACCESS:     813485  HIT:     812447  MISS:       1038  HIT %:    99.8724  MISS %:   0.127599   MPKI: 0.00519
STLB PREFETCH  REQUESTED:          0  ISSUED:          0  USEFUL:        957  USELESS:         79
STLB USEFUL LOAD PREFETCHES:        957 PREFETCH ISSUED TO LOWER LEVEL:          0  ACCURACY: inf
STLB TIMELY PREFETCHES:        957 LATE PREFETCHES: 33 DROPPED PREFETCHES: 4715
STLB PREFETCHES SAME FILL-ORIGIN LEVEL: 0 DIFFERENT FILL-ORIGIN LEVEL: 0
STLB AVERAGE MISS LATENCY: 59.8429 cycles
STLB RQ	ACCESS:    7302004	FORWARD:          0	MERGED:    2437195	TO_CACHE:    4864809

STLB Hit, L1D data hit: 0
STLB Hit, L2C data hit: 0
STLB Hit, LLC data hit: 0
STLB Hit, LLC data miss: 0
STLB STLB hints to L2: 0
L1D TOTAL     ACCESS:   55253948  HIT:   51517857  MISS:    3736091  HIT %:    93.2383  MISS %:    6.76167   MPKI: 18.6805
L1D LOAD      ACCESS:   37856094  HIT:   34561666  MISS:    3294428  HIT %:    91.2975  MISS %:     8.7025   MPKI: 16.4721
L1D RFO       ACCESS:   15579073  HIT:   15236370  MISS:     342703  HIT %:    97.8002  MISS %:    2.19977   MPKI: 1.71351
L1D PREFETCH  ACCESS:    1818781  HIT:    1719821  MISS:      98960  HIT %:     94.559  MISS %:    5.44101   MPKI: 0.4948
L1D PREFETCH  REQUESTED:    6871721  ISSUED:    6798268  USEFUL:      74826  USELESS:      24134
L1D USEFUL LOAD PREFETCHES:      74826 PREFETCH ISSUED TO LOWER LEVEL:    1501331  ACCURACY: 4.98398
L1D TIMELY PREFETCHES:      74826 LATE PREFETCHES: 926 DROPPED PREFETCHES: 9303
L1D PREFETCHES SAME FILL-ORIGIN LEVEL: 99915 DIFFERENT FILL-ORIGIN LEVEL: 1401416
L1D AVERAGE MISS LATENCY: 34.9819 cycles
L1D RQ	ACCESS:   56729691	FORWARD:          0	MERGED:   18401473	TO_CACHE:   38073541
L1D WQ	ACCESS:   17136260	FORWARD:     254841	MERGED:     484608	TO_CACHE:   16651652
L1D PQ	ACCESS:    3542670	FORWARD:          0	MERGED:     286908	TO_CACHE:    3255598

L1D UNIQUE REGIONS ACCESSED: 0
L1D REGIONS CONFLICTS: 0
L1D Cross Page Prefetch Requests: 504595
L1D Same Page Prefetch Requests: 3696754
L1D ROI Sum of L1D PQ occupancy: 46946694
L1D PREFETCHES PUSHED FROM L2C: 0
L1I TOTAL     ACCESS:   37098665  HIT:   32800791  MISS:    4297874  HIT %:     88.415  MISS %:     11.585   MPKI: 21.4894
L1I LOAD      ACCESS:   37098665  HIT:   32800791  MISS:    4297874  HIT %:     88.415  MISS %:     11.585   MPKI: 21.4894
L1I PREFETCH  REQUESTED:          0  ISSUED:          0  USEFUL:          0  USELESS:          0
L1I USEFUL LOAD PREFETCHES:          0 PREFETCH ISSUED TO LOWER LEVEL:          0  ACCURACY: -nan
L1I TIMELY PREFETCHES:          0 LATE PREFETCHES: 0 DROPPED PREFETCHES: 0
L1I PREFETCHES SAME FILL-ORIGIN LEVEL: 0 DIFFERENT FILL-ORIGIN LEVEL: 0
L1I AVERAGE MISS LATENCY: 17.794 cycles
L1I RQ	ACCESS:   62287613	FORWARD:          0	MERGED:   24155963	TO_CACHE:   38131650

BTB TOTAL     ACCESS:   36528429  HIT:   31583049  MISS:    4945380  HIT %:    86.4616  MISS %:    13.5384   MPKI: 24.7269
BTB BRANCH_DIRECT_JUMP	ACCESS:    2061309  HIT:    1966278  MISS:      95031
BTB BRANCH_INDIRECT	ACCESS:   13234606  HIT:   11716494  MISS:    1518112
BTB BRANCH_CONDITIONAL	ACCESS:   12402841  HIT:   12111408  MISS:     291433
BTB BRANCH_DIRECT_CALL	ACCESS:    1759418  HIT:    1715408  MISS:      44010
BTB BRANCH_INDIRECT_CALL	ACCESS:    2655183  HIT:    2016702  MISS:     638481
BTB BRANCH_RETURN	ACCESS:    4415072  HIT:    2056759  MISS:    2358313
BTB BRANCH_OTHER ACCESS:          0  HIT:          0  MISS:          0

L2C TOTAL     ACCESS:    9911063  HIT:    8609020  MISS:    1302043  HIT %:    86.8627  MISS %:    13.1373   MPKI: 6.51021
L2C LOAD      ACCESS:    7591367  HIT:    6826512  MISS:     764855  HIT %:    89.9247  MISS %:    10.0753   MPKI: 3.82428
L2C DATA LOAD MPKI: 2.49609
L2C INSTRUCTION LOAD MPKI: 1.32818
L2C RFO       ACCESS:     342682  HIT:      88250  MISS:     254432  HIT %:    25.7527  MISS %:    74.2473   MPKI: 1.27216
L2C PREFETCH  ACCESS:    1446717  HIT:    1186663  MISS:     260054  HIT %:    82.0245  MISS %:    17.9755   MPKI: 1.30027
L2C DATA PREFETCH MPKI: 1.30027
L2C INSTRUCTION PREFETCH MPKI: 0
L2C WRITEBACK ACCESS:     492196  HIT:     482512  MISS:       9684  HIT %:    98.0325  MISS %:    1.96751   MPKI: 0.04842
L2C LOAD TRANSLATION ACCESS:      32071  HIT:      19431  MISS:      12640  HIT %:    60.5874  MISS %:    39.4126   MPKI: 0.0632
L2C TRANSLATION FROM L1D PREFETCHER ACCESS:       6030  HIT:       5652  MISS:        378  HIT %:    93.7313  MISS %:    6.26866   MPKI: 0.00189
L2C PREFETCH  REQUESTED:          0  ISSUED:          0  USEFUL:      97936  USELESS:     162698
L2C USEFUL LOAD PREFETCHES:      97936 PREFETCH ISSUED TO LOWER LEVEL:     266007  ACCURACY: 36.8171
L2C TIMELY PREFETCHES:      97936 LATE PREFETCHES: 5953 DROPPED PREFETCHES: 0
L2C PREFETCHES SAME FILL-ORIGIN LEVEL: 242225 DIFFERENT FILL-ORIGIN LEVEL: 0
L2C AVERAGE MISS LATENCY: 86.1564 cycles
L2C RQ	ACCESS:    7972172	FORWARD:          0	MERGED:          0	TO_CACHE:    7972151
L2C WQ	ACCESS:     492196	FORWARD:         21	MERGED:          0	TO_CACHE:     492196
L2C PQ	ACCESS:    1501178	FORWARD:          0	MERGED:        356	TO_CACHE:    1500822

L2C Instructions Evicting Data 167352
L2C Translations Evicting Data 8620
L2C Data Evicting Data 840063
L2C Instructions Evicting Instructions 93966
L2C Translations Evicting Instructions 4154
L2C Data Evicting Instructions 165281
L2C Instructions Evicting Translations 4318
L2C Translations Evicting Translations 244
L2C Data Evicting Translations 8361
L2C Dense regions hint from L2: 0
PSCL5 TOTAL     ACCESS:      36274  HIT:      36274  MISS:          0  HIT %:        100  MISS %:          0   MPKI: 0
PSCL5 LOAD TRANSLATION ACCESS:      30488  HIT:      30488  MISS:          0  HIT %:        100  MISS %:          0   MPKI: 0
PSCL5 TRANSLATION FROM L1D PREFETCHER ACCESS:       5786  HIT:       5786  MISS:          0  HIT %:        100  MISS %:          0   MPKI: 0
PSCL5 PREFETCH  REQUESTED:          0  ISSUED:          0  USEFUL:          0  USELESS:          0
PSCL5 USEFUL LOAD PREFETCHES:          0 PREFETCH ISSUED TO LOWER LEVEL:          0  ACCURACY: -nan
PSCL5 TIMELY PREFETCHES:          0 LATE PREFETCHES: 0 DROPPED PREFETCHES: 0
PSCL5 PREFETCHES SAME FILL-ORIGIN LEVEL: 0 DIFFERENT FILL-ORIGIN LEVEL: 0

PSCL4 TOTAL     ACCESS:      36271  HIT:      36271  MISS:          0  HIT %:        100  MISS %:          0   MPKI: 0
PSCL4 LOAD TRANSLATION ACCESS:      30488  HIT:      30488  MISS:          0  HIT %:        100  MISS %:          0   MPKI: 0
PSCL4 TRANSLATION FROM L1D PREFETCHER ACCESS:       5783  HIT:       5783  MISS:          0  HIT %:        100  MISS %:          0   MPKI: 0
PSCL4 PREFETCH  REQUESTED:          0  ISSUED:          0  USEFUL:          0  USELESS:          0
PSCL4 USEFUL LOAD PREFETCHES:          0 PREFETCH ISSUED TO LOWER LEVEL:          0  ACCURACY: -nan
PSCL4 TIMELY PREFETCHES:          0 LATE PREFETCHES: 0 DROPPED PREFETCHES: 0
PSCL4 PREFETCHES SAME FILL-ORIGIN LEVEL: 0 DIFFERENT FILL-ORIGIN LEVEL: 0

PSCL3 TOTAL     ACCESS:      36174  HIT:      36134  MISS:         40  HIT %:    99.8894  MISS %:   0.110577   MPKI: 0.0002
PSCL3 LOAD TRANSLATION ACCESS:      30392  HIT:      30352  MISS:         40  HIT %:    99.8684  MISS %:   0.131614   MPKI: 0.0002
PSCL3 TRANSLATION FROM L1D PREFETCHER ACCESS:       5782  HIT:       5782  MISS:          0  HIT %:        100  MISS %:          0   MPKI: 0
PSCL3 PREFETCH  REQUESTED:          0  ISSUED:          0  USEFUL:          0  USELESS:          0
PSCL3 USEFUL LOAD PREFETCHES:          0 PREFETCH ISSUED TO LOWER LEVEL:          0  ACCURACY: -nan
PSCL3 TIMELY PREFETCHES:          0 LATE PREFETCHES: 0 DROPPED PREFETCHES: 0
PSCL3 PREFETCHES SAME FILL-ORIGIN LEVEL: 0 DIFFERENT FILL-ORIGIN LEVEL: 0

PSCL2 TOTAL     ACCESS:      36009  HIT:      34452  MISS:       1557  HIT %:    95.6761  MISS %:    4.32392   MPKI: 0.007785
PSCL2 LOAD TRANSLATION ACCESS:      30495  HIT:      28938  MISS:       1557  HIT %:    94.8942  MISS %:    5.10576   MPKI: 0.007785
PSCL2 TRANSLATION FROM L1D PREFETCHER ACCESS:       5514  HIT:       5514  MISS:          0  HIT %:        100  MISS %:          0   MPKI: 0
PSCL2 PREFETCH  REQUESTED:          0  ISSUED:          0  USEFUL:          0  USELESS:          0
PSCL2 USEFUL LOAD PREFETCHES:          0 PREFETCH ISSUED TO LOWER LEVEL:          0  ACCURACY: -nan
PSCL2 TIMELY PREFETCHES:          0 LATE PREFETCHES: 0 DROPPED PREFETCHES: 0
PSCL2 PREFETCHES SAME FILL-ORIGIN LEVEL: 0 DIFFERENT FILL-ORIGIN LEVEL: 0

LLC TOTAL     ACCESS:    1625207  HIT:    1108257  MISS:     516950  HIT %:    68.1917  MISS %:    31.8083   MPKI: 2.58475
LLC LOAD      ACCESS:     758978  HIT:     599532  MISS:     159446  HIT %:     78.992  MISS %:     21.008   MPKI: 0.79723
LLC RFO       ACCESS:     254355  HIT:      17288  MISS:     237067  HIT %:     6.7968  MISS %:    93.2032   MPKI: 1.18534
LLC PREFETCH  ACCESS:     266007  HIT:     159349  MISS:     106658  HIT %:    59.9041  MISS %:    40.0959   MPKI: 0.53329
LLC WRITEBACK ACCESS:     332849  HIT:     322790  MISS:      10059  HIT %:    96.9779  MISS %:    3.02209   MPKI: 0.050295
LLC LOAD TRANSLATION ACCESS:      12640  HIT:       9067  MISS:       3573  HIT %:    71.7326  MISS %:    28.2674   MPKI: 0.017865
LLC TRANSLATION FROM L1D PREFETCHER ACCESS:        378  HIT:        231  MISS:        147  HIT %:    61.1111  MISS %:    38.8889   MPKI: 0.000735
LLC PREFETCH  REQUESTED:          0  ISSUED:          0  USEFUL:       9016  USELESS:      97893
LLC USEFUL LOAD PREFETCHES:       9016 PREFETCH ISSUED TO LOWER LEVEL:     106658  ACCURACY: 8.45319
LLC TIMELY PREFETCHES:       9016 LATE PREFETCHES: 0 DROPPED PREFETCHES: 0
LLC PREFETCHES SAME FILL-ORIGIN LEVEL: 0 DIFFERENT FILL-ORIGIN LEVEL: 0
LLC AVERAGE MISS LATENCY: 142.609 cycles
LLC RQ	ACCESS:    1026352	FORWARD:          0	MERGED:          0	TO_CACHE:    1026351
LLC WQ	ACCESS:     332849	FORWARD:          1	MERGED:          0	TO_CACHE:     332849
LLC PQ	ACCESS:     266007	FORWARD:          0	MERGED:          0	TO_CACHE:     266007

LLC Dense regions hint to LLC: 0

RAW hits: 3363857
Loads Generated: 60093550
Loads sent to L1D: 56729691
Stores Generated: 17136254
Stores sent to L1D: 17136260
Major fault: 0 Minor fault: 5379
Allocated PAGES: 5379

DRAM Statistics
 CHANNEL 0
 RQ ROW_BUFFER_HIT:     153600  ROW_BUFFER_MISS:     353279
 DBUS_CONGESTED:        471
 WQ ROW_BUFFER_HIT:      46832  ROW_BUFFER_MISS:     223459  FULL:          0

 AVG_CONGESTED_CYCLE: 5
 All warmup complete: 2
Channel 0 Bank busy for read cycles: 0
Channel 0 Bank busy for write cycles: 0
Channel 0
Rank 0
0banks busy for read cycles: 365340428
0banks busy for write cycles: 126335
1banks busy for read cycles: 35135873
1banks busy for write cycles: 17668885
2banks busy for read cycles: 6774689
2banks busy for write cycles: 4978294
3banks busy for read cycles: 1470233
3banks busy for write cycles: 1897328
4banks busy for read cycles: 527704
4banks busy for write cycles: 915829
5banks busy for read cycles: 288265
5banks busy for write cycles: 521872
6banks busy for read cycles: 191894
6banks busy for write cycles: 348822
7banks busy for read cycles: 148558
7banks busy for write cycles: 309292
8banks busy for read cycles: 232705
8banks busy for write cycles: 685299

CPU 0 Branch Prediction Accuracy: 99.1917% MPKI: 1.85351 Average ROB Occupancy at Mispredict: 20.9229
Branch types
NOT_BRANCH: 154137311 77.0687%
BRANCH_DIRECT_JUMP: 2061309 1.03065%
BRANCH_INDIRECT: 13234606 6.6173%
BRANCH_CONDITIONAL: 21736759 10.8684%
BRANCH_DIRECT_CALL: 1759418 0.879709%
BRANCH_INDIRECT_CALL: 2655183 1.32759%
BRANCH_RETURN: 4415072 2.20754%
BRANCH_OTHER: 0 0%

DRAM PAGES: 1048576
Allocated PAGES: 5379
