
*** ChampSim Multicore Out-of-Order Simulator ***

Warmup Instructions: 50000000
Simulation Instructions: 200000000
Number of CPUs: 1
LLC sets: 2048
LLC ways: 16
Off-chip DRAM Size: 4096 MB Channels: 1 Width: 64-bit Data Rate: 6400 MT/s
CPU 0 runs traces/spec2k17/server_028.champsimtrace.xz
.xz
BTB has LRU replacement policy
ITLB has LRU replacement policy
DTLB has LRU replacement policy
STLB has LRU replacement policy
L1I has LRU replacement policy
History Sets: 8
History Ways: 16
BERTI Size: 16
BERTI Stride Size: 16
L1D has LRU replacement policy
Initialize SRRIP state for L2C
Initialize DRRIP state for LLC
Heartbeat CPU 0 instructions: 10000001 cycles: 2847209 heartbeat IPC: 3.51221 cumulative IPC: 3.51221 (Simulation time: 0 hr 0 min 38 sec) 
Heartbeat CPU 0 instructions: 20000002 cycles: 5683607 heartbeat IPC: 3.5256 cumulative IPC: 3.51889 (Simulation time: 0 hr 1 min 19 sec) 
Heartbeat CPU 0 instructions: 30000002 cycles: 8519832 heartbeat IPC: 3.52581 cumulative IPC: 3.5212 (Simulation time: 0 hr 1 min 59 sec) 
Heartbeat CPU 0 instructions: 40000001 cycles: 11356840 heartbeat IPC: 3.52484 cumulative IPC: 3.52211 (Simulation time: 0 hr 2 min 41 sec) 
Heartbeat CPU 0 instructions: 50000003 cycles: 14195491 heartbeat IPC: 3.5228 cumulative IPC: 3.52225 (Simulation time: 0 hr 3 min 17 sec) 

Warmup complete CPU 0 instructions: 50000003 cycles: 14195491 (Simulation time: 0 hr 3 min 17 sec) 

Heartbeat CPU 0 instructions: 60000000 cycles: 46602761 heartbeat IPC: 0.308573 cumulative IPC: 0.308573 (Simulation time: 0 hr 4 min 12 sec) 
Heartbeat CPU 0 instructions: 70000000 cycles: 79107470 heartbeat IPC: 0.307648 cumulative IPC: 0.308109 (Simulation time: 0 hr 5 min 11 sec) 
Heartbeat CPU 0 instructions: 80000000 cycles: 111644765 heartbeat IPC: 0.30734 cumulative IPC: 0.307852 (Simulation time: 0 hr 6 min 17 sec) 
*** Reached end of trace for Core: 0 Repeating trace: traces/spec2k17/server_028.champsimtrace.xz
Heartbeat CPU 0 instructions: 90000001 cycles: 143898792 heartbeat IPC: 0.310039 cumulative IPC: 0.308396 (Simulation time: 0 hr 7 min 16 sec) 
Heartbeat CPU 0 instructions: 100000001 cycles: 176069425 heartbeat IPC: 0.310843 cumulative IPC: 0.308882 (Simulation time: 0 hr 8 min 14 sec) 
Heartbeat CPU 0 instructions: 110000000 cycles: 208585991 heartbeat IPC: 0.307536 cumulative IPC: 0.308657 (Simulation time: 0 hr 9 min 18 sec) 
Heartbeat CPU 0 instructions: 120000003 cycles: 240869821 heartbeat IPC: 0.309753 cumulative IPC: 0.308813 (Simulation time: 0 hr 10 min 18 sec) 
Heartbeat CPU 0 instructions: 130000001 cycles: 273364779 heartbeat IPC: 0.30774 cumulative IPC: 0.308679 (Simulation time: 0 hr 11 min 24 sec) 
Heartbeat CPU 0 instructions: 140000001 cycles: 305769558 heartbeat IPC: 0.308596 cumulative IPC: 0.308669 (Simulation time: 0 hr 12 min 22 sec) 
Heartbeat CPU 0 instructions: 150000002 cycles: 338054679 heartbeat IPC: 0.30974 cumulative IPC: 0.308776 (Simulation time: 0 hr 13 min 19 sec) 
Heartbeat CPU 0 instructions: 160000000 cycles: 370461934 heartbeat IPC: 0.308573 cumulative IPC: 0.308758 (Simulation time: 0 hr 14 min 23 sec) 
Heartbeat CPU 0 instructions: 170000001 cycles: 402556212 heartbeat IPC: 0.311582 cumulative IPC: 0.308991 (Simulation time: 0 hr 15 min 20 sec) 
*** Reached end of trace for Core: 0 Repeating trace: traces/spec2k17/server_028.champsimtrace.xz
Heartbeat CPU 0 instructions: 180000002 cycles: 434882267 heartbeat IPC: 0.309348 cumulative IPC: 0.309018 (Simulation time: 0 hr 16 min 26 sec) 
Heartbeat CPU 0 instructions: 190000000 cycles: 467165327 heartbeat IPC: 0.30976 cumulative IPC: 0.309071 (Simulation time: 0 hr 17 min 26 sec) 
Heartbeat CPU 0 instructions: 200000001 cycles: 499463118 heartbeat IPC: 0.309619 cumulative IPC: 0.309108 (Simulation time: 0 hr 18 min 32 sec) 
Heartbeat CPU 0 instructions: 210000002 cycles: 531884149 heartbeat IPC: 0.308442 cumulative IPC: 0.309066 (Simulation time: 0 hr 19 min 31 sec) 
Heartbeat CPU 0 instructions: 220000000 cycles: 564329996 heartbeat IPC: 0.308206 cumulative IPC: 0.309015 (Simulation time: 0 hr 20 min 31 sec) 
Heartbeat CPU 0 instructions: 230000000 cycles: 596558878 heartbeat IPC: 0.310281 cumulative IPC: 0.309085 (Simulation time: 0 hr 21 min 36 sec) 
Heartbeat CPU 0 instructions: 240000000 cycles: 628835844 heartbeat IPC: 0.309818 cumulative IPC: 0.309124 (Simulation time: 0 hr 22 min 29 sec) 
Heartbeat CPU 0 instructions: 250000000 cycles: 661249361 heartbeat IPC: 0.308513 cumulative IPC: 0.309093 (Simulation time: 0 hr 23 min 21 sec) 
Finished CPU 0 instructions: 200000003 cycles: 647053881 cumulative IPC: 0.309093 (Simulation time: 0 hr 23 min 21 sec) 

ChampSim completed all CPUs

Region of Interest Statistics

CPU 0 cumulative IPC: 0.309093 instructions: 200000003 cycles: 647053881
ITLB TOTAL     ACCESS:   35611763  HIT:   33422556  MISS:    2189207  HIT %:    93.8526  MISS %:    6.14743   MPKI: 10.946
ITLB LOAD TRANSLATION ACCESS:   35611763  HIT:   33422556  MISS:    2189207  HIT %:    93.8526  MISS %:    6.14743   MPKI: 10.946
ITLB PREFETCH  REQUESTED:          0  ISSUED:          0  USEFUL:          0  USELESS:          0
ITLB USEFUL LOAD PREFETCHES:          0 PREFETCH ISSUED TO LOWER LEVEL:          0  ACCURACY: -nan
ITLB TIMELY PREFETCHES:          0 LATE PREFETCHES: 0 DROPPED PREFETCHES: 0
ITLB PREFETCHES SAME FILL-ORIGIN LEVEL: 0 DIFFERENT FILL-ORIGIN LEVEL: 0
ITLB AVERAGE MISS LATENCY: 9.26451 cycles
ITLB RQ	ACCESS:   41786881	FORWARD:          0	MERGED:    5650694	TO_CACHE:   36136187

DTLB TOTAL     ACCESS:   45099509  HIT:   43017322  MISS:    2082187  HIT %:    95.3831  MISS %:    4.61687   MPKI: 10.4109
DTLB LOAD TRANSLATION ACCESS:   45099509  HIT:   43017322  MISS:    2082187  HIT %:    95.3831  MISS %:    4.61687   MPKI: 10.4109
DTLB PREFETCH  REQUESTED:          0  ISSUED:          0  USEFUL:          0  USELESS:          0
DTLB USEFUL LOAD PREFETCHES:          0 PREFETCH ISSUED TO LOWER LEVEL:          0  ACCURACY: -nan
DTLB TIMELY PREFETCHES:          0 LATE PREFETCHES: 0 DROPPED PREFETCHES: 0
DTLB PREFETCHES SAME FILL-ORIGIN LEVEL: 0 DIFFERENT FILL-ORIGIN LEVEL: 0
DTLB AVERAGE MISS LATENCY: 10.4658 cycles
DTLB RQ	ACCESS:   59691964	FORWARD:          0	MERGED:   14539919	TO_CACHE:   45152045

STLB TOTAL     ACCESS:    5353944  HIT:    5276992  MISS:      76952  HIT %:    98.5627  MISS %:     1.4373   MPKI: 0.38476
STLB LOAD TRANSLATION ACCESS:    4271394  HIT:    4197174  MISS:      74220  HIT %:    98.2624  MISS %:    1.73761   MPKI: 0.3711
STLB TRANSLATION FROM L1D PREFETCHER ACCESS:    1082550  HIT:    1079818  MISS:       2732  HIT %:    99.7476  MISS %:   0.252367   MPKI: 0.01366
STLB PREFETCH  REQUESTED:          0  ISSUED:          0  USEFUL:       2699  USELESS:         32
STLB USEFUL LOAD PREFETCHES:       2699 PREFETCH ISSUED TO LOWER LEVEL:          0  ACCURACY: inf
STLB TIMELY PREFETCHES:       2699 LATE PREFETCHES: 0 DROPPED PREFETCHES: 3957
STLB PREFETCHES SAME FILL-ORIGIN LEVEL: 0 DIFFERENT FILL-ORIGIN LEVEL: 0
STLB AVERAGE MISS LATENCY: 47.6343 cycles
STLB RQ	ACCESS:   13009270	FORWARD:          0	MERGED:    7651333	TO_CACHE:    5357937

STLB Hit, L1D data hit: 0
STLB Hit, L2C data hit: 0
STLB Hit, LLC data hit: 0
STLB Hit, LLC data miss: 0
STLB STLB hints to L2: 0
L1D TOTAL     ACCESS:   65325992  HIT:   59585088  MISS:    5740904  HIT %:    91.2119  MISS %:    8.78809   MPKI: 28.7045
L1D LOAD      ACCESS:   33472481  HIT:   29987691  MISS:    3484790  HIT %:    89.5891  MISS %:    10.4109   MPKI: 17.4239
L1D RFO       ACCESS:   24307981  HIT:   23107492  MISS:    1200489  HIT %:    95.0613  MISS %:    4.93866   MPKI: 6.00244
L1D PREFETCH  ACCESS:    7545530  HIT:    6489905  MISS:    1055625  HIT %:    86.0099  MISS %:    13.9901   MPKI: 5.27812
L1D PREFETCH  REQUESTED:   19319624  ISSUED:   19031168  USEFUL:     918436  USELESS:     137169
L1D USEFUL LOAD PREFETCHES:     918436 PREFETCH ISSUED TO LOWER LEVEL:    2225121  ACCURACY: 41.2758
L1D TIMELY PREFETCHES:     918436 LATE PREFETCHES: 8125 DROPPED PREFETCHES: 5715
L1D PREFETCHES SAME FILL-ORIGIN LEVEL: 1063750 DIFFERENT FILL-ORIGIN LEVEL: 1161371
L1D AVERAGE MISS LATENCY: 19.6619 cycles
L1D RQ	ACCESS:   46056145	FORWARD:          0	MERGED:   12127673	TO_CACHE:   33616148
L1D WQ	ACCESS:   26217180	FORWARD:     312324	MERGED:     141364	TO_CACHE:   26075816
L1D PQ	ACCESS:   10293292	FORWARD:          0	MERGED:    1555416	TO_CACHE:    8737876

L1D UNIQUE REGIONS ACCESSED: 0
L1D REGIONS CONFLICTS: 0
L1D Cross Page Prefetch Requests: 1836528
L1D Same Page Prefetch Requests: 11158649
L1D ROI Sum of L1D PQ occupancy: 128745505
L1D PREFETCHES PUSHED FROM L2C: 0
L1I TOTAL     ACCESS:   40148119  HIT:   29064419  MISS:   11083700  HIT %:     72.393  MISS %:     27.607   MPKI: 55.4185
L1I LOAD      ACCESS:   40148119  HIT:   29064419  MISS:   11083700  HIT %:     72.393  MISS %:     27.607   MPKI: 55.4185
L1I PREFETCH  REQUESTED:          0  ISSUED:          0  USEFUL:          0  USELESS:          0
L1I USEFUL LOAD PREFETCHES:          0 PREFETCH ISSUED TO LOWER LEVEL:          0  ACCURACY: -nan
L1I TIMELY PREFETCHES:          0 LATE PREFETCHES: 0 DROPPED PREFETCHES: 0
L1I PREFETCHES SAME FILL-ORIGIN LEVEL: 0 DIFFERENT FILL-ORIGIN LEVEL: 0
L1I AVERAGE MISS LATENCY: 15.6767 cycles
L1I RQ	ACCESS:   58383047	FORWARD:          0	MERGED:   16596166	TO_CACHE:   41786881

BTB TOTAL     ACCESS:   30542458  HIT:   18336623  MISS:   12205835  HIT %:    60.0365  MISS %:    39.9635   MPKI: 61.0292
BTB BRANCH_DIRECT_JUMP	ACCESS:    2010403  HIT:    1225655  MISS:     784748
BTB BRANCH_INDIRECT	ACCESS:   11931802  HIT:    7220486  MISS:    4711316
BTB BRANCH_CONDITIONAL	ACCESS:    7548039  HIT:    6326083  MISS:    1221956
BTB BRANCH_DIRECT_CALL	ACCESS:    3806012  HIT:    1828717  MISS:    1977295
BTB BRANCH_INDIRECT_CALL	ACCESS:     720088  HIT:     358904  MISS:     361184
BTB BRANCH_RETURN	ACCESS:    4526114  HIT:    1376778  MISS:    3149336
BTB BRANCH_OTHER ACCESS:          0  HIT:          0  MISS:          0

L2C TOTAL     ACCESS:   20385915  HIT:   19296095  MISS:    1089820  HIT %:    94.6541  MISS %:    5.34595   MPKI: 5.4491
L2C LOAD      ACCESS:   14560364  HIT:   13662880  MISS:     897484  HIT %:    93.8361  MISS %:    6.16388   MPKI: 4.48742
L2C DATA LOAD MPKI: 1.56783
L2C INSTRUCTION LOAD MPKI: 2.91959
L2C RFO       ACCESS:    1200489  HIT:    1132407  MISS:      68082  HIT %:    94.3288  MISS %:    5.67119   MPKI: 0.34041
L2C PREFETCH  ACCESS:    2221616  HIT:    2159223  MISS:      62393  HIT %:    97.1915  MISS %:    2.80845   MPKI: 0.311965
L2C DATA PREFETCH MPKI: 0.311965
L2C INSTRUCTION PREFETCH MPKI: 0
L2C WRITEBACK ACCESS:    2284889  HIT:    2264010  MISS:      20879  HIT %:    99.0862  MISS %:   0.913786   MPKI: 0.104395
L2C LOAD TRANSLATION ACCESS:     107549  HIT:      67897  MISS:      39652  HIT %:    63.1312  MISS %:    36.8688   MPKI: 0.19826
L2C TRANSLATION FROM L1D PREFETCHER ACCESS:      11008  HIT:       9678  MISS:       1330  HIT %:    87.9179  MISS %:    12.0821   MPKI: 0.00665
L2C PREFETCH  REQUESTED:          0  ISSUED:          0  USEFUL:       2883  USELESS:      60895
L2C USEFUL LOAD PREFETCHES:       2883 PREFETCH ISSUED TO LOWER LEVEL:      62815  ACCURACY: 4.58967
L2C TIMELY PREFETCHES:       2883 LATE PREFETCHES: 422 DROPPED PREFETCHES: 0
L2C PREFETCHES SAME FILL-ORIGIN LEVEL: 21739 DIFFERENT FILL-ORIGIN LEVEL: 0
L2C AVERAGE MISS LATENCY: 43.0963 cycles
L2C RQ	ACCESS:   15879410	FORWARD:          0	MERGED:          0	TO_CACHE:   15879410
L2C WQ	ACCESS:    2284889	FORWARD:          0	MERGED:          0	TO_CACHE:    2284889
L2C PQ	ACCESS:    2225121	FORWARD:          0	MERGED:        235	TO_CACHE:    2224886

L2C Instructions Evicting Data 191857
L2C Translations Evicting Data 26650
L2C Data Evicting Data 238546
L2C Instructions Evicting Instructions 381727
L2C Translations Evicting Instructions 10516
L2C Data Evicting Instructions 178883
L2C Instructions Evicting Translations 10334
L2C Translations Evicting Translations 3816
L2C Data Evicting Translations 26612
L2C Dense regions hint from L2: 0
PSCL5 TOTAL     ACCESS:      80909  HIT:      80909  MISS:          0  HIT %:        100  MISS %:          0   MPKI: 0
PSCL5 LOAD TRANSLATION ACCESS:      74220  HIT:      74220  MISS:          0  HIT %:        100  MISS %:          0   MPKI: 0
PSCL5 TRANSLATION FROM L1D PREFETCHER ACCESS:       6689  HIT:       6689  MISS:          0  HIT %:        100  MISS %:          0   MPKI: 0
PSCL5 PREFETCH  REQUESTED:          0  ISSUED:          0  USEFUL:          0  USELESS:          0
PSCL5 USEFUL LOAD PREFETCHES:          0 PREFETCH ISSUED TO LOWER LEVEL:          0  ACCURACY: -nan
PSCL5 TIMELY PREFETCHES:          0 LATE PREFETCHES: 0 DROPPED PREFETCHES: 0
PSCL5 PREFETCHES SAME FILL-ORIGIN LEVEL: 0 DIFFERENT FILL-ORIGIN LEVEL: 0

PSCL4 TOTAL     ACCESS:      78978  HIT:      78250  MISS:        728  HIT %:    99.0782  MISS %:   0.921776   MPKI: 0.00364
PSCL4 LOAD TRANSLATION ACCESS:      72416  HIT:      71688  MISS:        728  HIT %:    98.9947  MISS %:     1.0053   MPKI: 0.00364
PSCL4 TRANSLATION FROM L1D PREFETCHER ACCESS:       6562  HIT:       6562  MISS:          0  HIT %:        100  MISS %:          0   MPKI: 0
PSCL4 PREFETCH  REQUESTED:          0  ISSUED:          0  USEFUL:          0  USELESS:          0
PSCL4 USEFUL LOAD PREFETCHES:          0 PREFETCH ISSUED TO LOWER LEVEL:          0  ACCURACY: -nan
PSCL4 TIMELY PREFETCHES:          0 LATE PREFETCHES: 0 DROPPED PREFETCHES: 0
PSCL4 PREFETCHES SAME FILL-ORIGIN LEVEL: 0 DIFFERENT FILL-ORIGIN LEVEL: 0

PSCL3 TOTAL     ACCESS:      80573  HIT:      79845  MISS:        728  HIT %:    99.0965  MISS %:   0.903528   MPKI: 0.00364
PSCL3 LOAD TRANSLATION ACCESS:      73947  HIT:      73219  MISS:        728  HIT %:    99.0155  MISS %:   0.984489   MPKI: 0.00364
PSCL3 TRANSLATION FROM L1D PREFETCHER ACCESS:       6626  HIT:       6626  MISS:          0  HIT %:        100  MISS %:          0   MPKI: 0
PSCL3 PREFETCH  REQUESTED:          0  ISSUED:          0  USEFUL:          0  USELESS:          0
PSCL3 USEFUL LOAD PREFETCHES:          0 PREFETCH ISSUED TO LOWER LEVEL:          0  ACCURACY: -nan
PSCL3 TIMELY PREFETCHES:          0 LATE PREFETCHES: 0 DROPPED PREFETCHES: 0
PSCL3 PREFETCHES SAME FILL-ORIGIN LEVEL: 0 DIFFERENT FILL-ORIGIN LEVEL: 0

PSCL2 TOTAL     ACCESS:      77486  HIT:      44833  MISS:      32653  HIT %:    57.8595  MISS %:    42.1405   MPKI: 0.163265
PSCL2 LOAD TRANSLATION ACCESS:      74998  HIT:      42345  MISS:      32653  HIT %:    56.4615  MISS %:    43.5385   MPKI: 0.163265
PSCL2 TRANSLATION FROM L1D PREFETCHER ACCESS:       2488  HIT:       2488  MISS:          0  HIT %:        100  MISS %:          0   MPKI: 0
PSCL2 PREFETCH  REQUESTED:          0  ISSUED:          0  USEFUL:          0  USELESS:          0
PSCL2 USEFUL LOAD PREFETCHES:          0 PREFETCH ISSUED TO LOWER LEVEL:          0  ACCURACY: -nan
PSCL2 TIMELY PREFETCHES:          0 LATE PREFETCHES: 0 DROPPED PREFETCHES: 0
PSCL2 PREFETCHES SAME FILL-ORIGIN LEVEL: 0 DIFFERENT FILL-ORIGIN LEVEL: 0

LLC TOTAL     ACCESS:    1160380  HIT:    1049903  MISS:     110477  HIT %:    90.4792  MISS %:    9.52076   MPKI: 0.552385
LLC LOAD      ACCESS:     897064  HIT:     800819  MISS:      96245  HIT %:    89.2711  MISS %:    10.7289   MPKI: 0.481225
LLC RFO       ACCESS:      68080  HIT:      60020  MISS:       8060  HIT %:     88.161  MISS %:     11.839   MPKI: 0.0403
LLC PREFETCH  ACCESS:      62815  HIT:      60094  MISS:       2721  HIT %:    95.6682  MISS %:    4.33177   MPKI: 0.013605
LLC WRITEBACK ACCESS:      91439  HIT:      91071  MISS:        368  HIT %:    99.5975  MISS %:   0.402454   MPKI: 0.00184
LLC LOAD TRANSLATION ACCESS:      39652  HIT:      36618  MISS:       3034  HIT %:    92.3484  MISS %:    7.65157   MPKI: 0.01517
LLC TRANSLATION FROM L1D PREFETCHER ACCESS:       1330  HIT:       1281  MISS:         49  HIT %:    96.3158  MISS %:    3.68421   MPKI: 0.000245
LLC PREFETCH  REQUESTED:          0  ISSUED:          0  USEFUL:        182  USELESS:       5110
LLC USEFUL LOAD PREFETCHES:        182 PREFETCH ISSUED TO LOWER LEVEL:       2721  ACCURACY: 6.68872
LLC TIMELY PREFETCHES:        182 LATE PREFETCHES: 0 DROPPED PREFETCHES: 0
LLC PREFETCHES SAME FILL-ORIGIN LEVEL: 0 DIFFERENT FILL-ORIGIN LEVEL: 0
LLC AVERAGE MISS LATENCY: 134.86 cycles
LLC RQ	ACCESS:    1006126	FORWARD:          0	MERGED:          0	TO_CACHE:    1006126
LLC WQ	ACCESS:      91439	FORWARD:          0	MERGED:          0	TO_CACHE:      91439
LLC PQ	ACCESS:      62815	FORWARD:          0	MERGED:          0	TO_CACHE:      62815

LLC Dense regions hint to LLC: 0

RAW hits: 1428119
Loads Generated: 47484266
Loads sent to L1D: 46056145
Stores Generated: 26217178
Stores sent to L1D: 26217180
Major fault: 0 Minor fault: 6256
Allocated PAGES: 6256

DRAM Statistics
 CHANNEL 0
 RQ ROW_BUFFER_HIT:      41775  ROW_BUFFER_MISS:      68334
 DBUS_CONGESTED:         26
 WQ ROW_BUFFER_HIT:       1487  ROW_BUFFER_MISS:       7901  FULL:          0

 AVG_CONGESTED_CYCLE: 3
 All warmup complete: 2
Channel 0 Bank busy for read cycles: 0
Channel 0 Bank busy for write cycles: 0
Channel 0
Rank 0
0banks busy for read cycles: 637447257
0banks busy for write cycles: 6436
1banks busy for read cycles: 6597733
1banks busy for write cycles: 1030589
2banks busy for read cycles: 869260
2banks busy for write cycles: 166116
3banks busy for read cycles: 281400
3banks busy for write cycles: 64449
4banks busy for read cycles: 149727
4banks busy for write cycles: 29940
5banks busy for read cycles: 109826
5banks busy for write cycles: 9514
6banks busy for read cycles: 97001
6banks busy for write cycles: 2565
7banks busy for read cycles: 91554
7banks busy for write cycles: 1401
8banks busy for read cycles: 98486
8banks busy for write cycles: 628

CPU 0 Branch Prediction Accuracy: 99.7758% MPKI: 0.40526 Average ROB Occupancy at Mispredict: 43.7266
Branch types
NOT_BRANCH: 163841120 81.9206%
BRANCH_DIRECT_JUMP: 2010403 1.0052%
BRANCH_INDIRECT: 11931802 5.9659%
BRANCH_CONDITIONAL: 13164452 6.58223%
BRANCH_DIRECT_CALL: 3806012 1.90301%
BRANCH_INDIRECT_CALL: 720088 0.360044%
BRANCH_RETURN: 4526114 2.26306%
BRANCH_OTHER: 0 0%

DRAM PAGES: 1048576
Allocated PAGES: 6256
