
*** ChampSim Multicore Out-of-Order Simulator ***

Warmup Instructions: 50000000
Simulation Instructions: 200000000
Number of CPUs: 1
LLC sets: 2048
LLC ways: 16
Off-chip DRAM Size: 4096 MB Channels: 1 Width: 64-bit Data Rate: 6400 MT/s
CPU 0 runs traces/spec2k17/server_026.champsimtrace.xz
.xz
BTB has LRU replacement policy
ITLB has LRU replacement policy
DTLB has LRU replacement policy
STLB has LRU replacement policy
L1I has LRU replacement policy
History Sets: 8
History Ways: 16
BERTI Size: 16
BERTI Stride Size: 16
L1D has LRU replacement policy
Initialize SRRIP state for L2C
Initialize DRRIP state for LLC
Heartbeat CPU 0 instructions: 10000003 cycles: 2824246 heartbeat IPC: 3.54077 cumulative IPC: 3.54077 (Simulation time: 0 hr 0 min 36 sec) 
Heartbeat CPU 0 instructions: 20000001 cycles: 5643410 heartbeat IPC: 3.54715 cumulative IPC: 3.54396 (Simulation time: 0 hr 1 min 14 sec) 
Heartbeat CPU 0 instructions: 30000002 cycles: 8460784 heartbeat IPC: 3.5494 cumulative IPC: 3.54577 (Simulation time: 0 hr 1 min 52 sec) 
Heartbeat CPU 0 instructions: 40000001 cycles: 11279673 heartbeat IPC: 3.5475 cumulative IPC: 3.5462 (Simulation time: 0 hr 2 min 35 sec) 
Heartbeat CPU 0 instructions: 50000000 cycles: 14096612 heartbeat IPC: 3.54995 cumulative IPC: 3.54695 (Simulation time: 0 hr 3 min 17 sec) 

Warmup complete CPU 0 instructions: 50000004 cycles: 14096613 (Simulation time: 0 hr 3 min 17 sec) 

Heartbeat CPU 0 instructions: 60000001 cycles: 46307703 heartbeat IPC: 0.310452 cumulative IPC: 0.310452 (Simulation time: 0 hr 4 min 11 sec) 
*** Reached end of trace for Core: 0 Repeating trace: traces/spec2k17/server_026.champsimtrace.xz
Heartbeat CPU 0 instructions: 70000000 cycles: 78345514 heartbeat IPC: 0.312131 cumulative IPC: 0.311289 (Simulation time: 0 hr 5 min 5 sec) 
Heartbeat CPU 0 instructions: 80000000 cycles: 110329212 heartbeat IPC: 0.312659 cumulative IPC: 0.311745 (Simulation time: 0 hr 6 min 8 sec) 
Heartbeat CPU 0 instructions: 90000003 cycles: 142331878 heartbeat IPC: 0.312474 cumulative IPC: 0.311927 (Simulation time: 0 hr 7 min 3 sec) 
Heartbeat CPU 0 instructions: 100000000 cycles: 174428044 heartbeat IPC: 0.311564 cumulative IPC: 0.311854 (Simulation time: 0 hr 7 min 58 sec) 
Heartbeat CPU 0 instructions: 110000000 cycles: 206404449 heartbeat IPC: 0.312731 cumulative IPC: 0.312 (Simulation time: 0 hr 8 min 48 sec) 
Heartbeat CPU 0 instructions: 120000002 cycles: 238557605 heartbeat IPC: 0.311012 cumulative IPC: 0.311858 (Simulation time: 0 hr 9 min 36 sec) 
*** Reached end of trace for Core: 0 Repeating trace: traces/spec2k17/server_026.champsimtrace.xz
Heartbeat CPU 0 instructions: 130000002 cycles: 270532551 heartbeat IPC: 0.312745 cumulative IPC: 0.311969 (Simulation time: 0 hr 10 min 39 sec) 
Heartbeat CPU 0 instructions: 140000002 cycles: 302511547 heartbeat IPC: 0.312705 cumulative IPC: 0.31205 (Simulation time: 0 hr 11 min 37 sec) 
Heartbeat CPU 0 instructions: 150000001 cycles: 334487202 heartbeat IPC: 0.312738 cumulative IPC: 0.312119 (Simulation time: 0 hr 12 min 34 sec) 
Heartbeat CPU 0 instructions: 160000001 cycles: 366487485 heartbeat IPC: 0.312497 cumulative IPC: 0.312153 (Simulation time: 0 hr 13 min 34 sec) 
Heartbeat CPU 0 instructions: 170000000 cycles: 398549784 heartbeat IPC: 0.311893 cumulative IPC: 0.312132 (Simulation time: 0 hr 14 min 33 sec) 
Heartbeat CPU 0 instructions: 180000003 cycles: 430582483 heartbeat IPC: 0.312181 cumulative IPC: 0.312135 (Simulation time: 0 hr 15 min 29 sec) 
*** Reached end of trace for Core: 0 Repeating trace: traces/spec2k17/server_026.champsimtrace.xz
Heartbeat CPU 0 instructions: 190000000 cycles: 462583597 heartbeat IPC: 0.312489 cumulative IPC: 0.312161 (Simulation time: 0 hr 16 min 30 sec) 
Heartbeat CPU 0 instructions: 200000003 cycles: 494529729 heartbeat IPC: 0.313027 cumulative IPC: 0.312218 (Simulation time: 0 hr 17 min 31 sec) 
Heartbeat CPU 0 instructions: 210000000 cycles: 526500228 heartbeat IPC: 0.312788 cumulative IPC: 0.312254 (Simulation time: 0 hr 18 min 28 sec) 
Heartbeat CPU 0 instructions: 220000000 cycles: 558489749 heartbeat IPC: 0.312602 cumulative IPC: 0.312274 (Simulation time: 0 hr 19 min 36 sec) 
Heartbeat CPU 0 instructions: 230000000 cycles: 590554592 heartbeat IPC: 0.311868 cumulative IPC: 0.312252 (Simulation time: 0 hr 20 min 32 sec) 
Heartbeat CPU 0 instructions: 240000000 cycles: 622530202 heartbeat IPC: 0.312738 cumulative IPC: 0.312277 (Simulation time: 0 hr 21 min 30 sec) 
*** Reached end of trace for Core: 0 Repeating trace: traces/spec2k17/server_026.champsimtrace.xz
Heartbeat CPU 0 instructions: 250000003 cycles: 654570675 heartbeat IPC: 0.312105 cumulative IPC: 0.312269 (Simulation time: 0 hr 22 min 36 sec) 
Finished CPU 0 instructions: 200000003 cycles: 640474063 cumulative IPC: 0.312269 (Simulation time: 0 hr 22 min 36 sec) 

ChampSim completed all CPUs

Region of Interest Statistics

CPU 0 cumulative IPC: 0.312269 instructions: 200000003 cycles: 640474063
ITLB TOTAL     ACCESS:   34750944  HIT:   32739732  MISS:    2011212  HIT %:    94.2125  MISS %:     5.7875   MPKI: 10.0561
ITLB LOAD TRANSLATION ACCESS:   34750944  HIT:   32739732  MISS:    2011212  HIT %:    94.2125  MISS %:     5.7875   MPKI: 10.0561
ITLB PREFETCH  REQUESTED:          0  ISSUED:          0  USEFUL:          0  USELESS:          0
ITLB USEFUL LOAD PREFETCHES:          0 PREFETCH ISSUED TO LOWER LEVEL:          0  ACCURACY: -nan
ITLB TIMELY PREFETCHES:          0 LATE PREFETCHES: 0 DROPPED PREFETCHES: 0
ITLB PREFETCHES SAME FILL-ORIGIN LEVEL: 0 DIFFERENT FILL-ORIGIN LEVEL: 0
ITLB AVERAGE MISS LATENCY: 9.0339 cycles
ITLB RQ	ACCESS:   40933424	FORWARD:          0	MERGED:    5701257	TO_CACHE:   35232167

DTLB TOTAL     ACCESS:   46276879  HIT:   44440422  MISS:    1836457  HIT %:    96.0316  MISS %:    3.96841   MPKI: 9.18228
DTLB LOAD TRANSLATION ACCESS:   46276879  HIT:   44440422  MISS:    1836457  HIT %:    96.0316  MISS %:    3.96841   MPKI: 9.18228
DTLB PREFETCH  REQUESTED:          0  ISSUED:          0  USEFUL:          0  USELESS:          0
DTLB USEFUL LOAD PREFETCHES:          0 PREFETCH ISSUED TO LOWER LEVEL:          0  ACCURACY: -nan
DTLB TIMELY PREFETCHES:          0 LATE PREFETCHES: 0 DROPPED PREFETCHES: 0
DTLB PREFETCHES SAME FILL-ORIGIN LEVEL: 0 DIFFERENT FILL-ORIGIN LEVEL: 0
DTLB AVERAGE MISS LATENCY: 9.18958 cycles
DTLB RQ	ACCESS:   60872803	FORWARD:          0	MERGED:   14529486	TO_CACHE:   46343317

STLB TOTAL     ACCESS:    4186996  HIT:    4178961  MISS:       8035  HIT %:    99.8081  MISS %:   0.191904   MPKI: 0.040175
STLB LOAD TRANSLATION ACCESS:    3847669  HIT:    3839870  MISS:       7799  HIT %:    99.7973  MISS %:   0.202694   MPKI: 0.038995
STLB TRANSLATION FROM L1D PREFETCHER ACCESS:     339327  HIT:     339091  MISS:        236  HIT %:    99.9305  MISS %:  0.0695494   MPKI: 0.00118
STLB PREFETCH  REQUESTED:          0  ISSUED:          0  USEFUL:        193  USELESS:         40
STLB USEFUL LOAD PREFETCHES:        193 PREFETCH ISSUED TO LOWER LEVEL:          0  ACCURACY: inf
STLB TIMELY PREFETCHES:        193 LATE PREFETCHES: 1 DROPPED PREFETCHES: 2636
STLB PREFETCHES SAME FILL-ORIGIN LEVEL: 0 DIFFERENT FILL-ORIGIN LEVEL: 0
STLB AVERAGE MISS LATENCY: 49.7823 cycles
STLB RQ	ACCESS:    6289457	FORWARD:          0	MERGED:    2099557	TO_CACHE:    4189900

STLB Hit, L1D data hit: 0
STLB Hit, L2C data hit: 0
STLB Hit, LLC data hit: 0
STLB Hit, LLC data miss: 0
STLB STLB hints to L2: 0
L1D TOTAL     ACCESS:   60672647  HIT:   56452732  MISS:    4219915  HIT %:    93.0448  MISS %:    6.95522   MPKI: 21.0996
L1D LOAD      ACCESS:   34161370  HIT:   31378904  MISS:    2782466  HIT %:    91.8549  MISS %:    8.14507   MPKI: 13.9123
L1D RFO       ACCESS:   24811511  HIT:   23670707  MISS:    1140804  HIT %:    95.4021  MISS %:    4.59788   MPKI: 5.70402
L1D PREFETCH  ACCESS:    1699766  HIT:    1403121  MISS:     296645  HIT %:    82.5479  MISS %:    17.4521   MPKI: 1.48322
L1D PREFETCH  REQUESTED:    5374935  ISSUED:    5307979  USEFUL:     202490  USELESS:      94154
L1D USEFUL LOAD PREFETCHES:     202490 PREFETCH ISSUED TO LOWER LEVEL:    1014202  ACCURACY: 19.9655
L1D TIMELY PREFETCHES:     202490 LATE PREFETCHES: 9311 DROPPED PREFETCHES: 4271
L1D PREFETCHES SAME FILL-ORIGIN LEVEL: 305956 DIFFERENT FILL-ORIGIN LEVEL: 708246
L1D AVERAGE MISS LATENCY: 21.5217 cycles
L1D RQ	ACCESS:   47415019	FORWARD:          0	MERGED:   12841960	TO_CACHE:   34277082
L1D WQ	ACCESS:   26764780	FORWARD:     295977	MERGED:     169059	TO_CACHE:   26595721
L1D PQ	ACCESS:    2866191	FORWARD:          0	MERGED:     424403	TO_CACHE:    2441788

L1D UNIQUE REGIONS ACCESSED: 0
L1D REGIONS CONFLICTS: 0
L1D Cross Page Prefetch Requests: 409816
L1D Same Page Prefetch Requests: 3139211
L1D ROI Sum of L1D PQ occupancy: 37011172
L1D PREFETCHES PUSHED FROM L2C: 0
L1I TOTAL     ACCESS:   39434433  HIT:   28906692  MISS:   10527741  HIT %:    73.3032  MISS %:    26.6968   MPKI: 52.6387
L1I LOAD      ACCESS:   39434433  HIT:   28906692  MISS:   10527741  HIT %:    73.3032  MISS %:    26.6968   MPKI: 52.6387
L1I PREFETCH  REQUESTED:          0  ISSUED:          0  USEFUL:          0  USELESS:          0
L1I USEFUL LOAD PREFETCHES:          0 PREFETCH ISSUED TO LOWER LEVEL:          0  ACCURACY: -nan
L1I TIMELY PREFETCHES:          0 LATE PREFETCHES: 0 DROPPED PREFETCHES: 0
L1I PREFETCHES SAME FILL-ORIGIN LEVEL: 0 DIFFERENT FILL-ORIGIN LEVEL: 0
L1I AVERAGE MISS LATENCY: 16.6393 cycles
L1I RQ	ACCESS:   57885734	FORWARD:          0	MERGED:   16952310	TO_CACHE:   40933424

BTB TOTAL     ACCESS:   29988879  HIT:   17348500  MISS:   12640379  HIT %:    57.8498  MISS %:    42.1502   MPKI: 63.2019
BTB BRANCH_DIRECT_JUMP	ACCESS:    2009046  HIT:    1127352  MISS:     881694
BTB BRANCH_INDIRECT	ACCESS:   11800646  HIT:    6994353  MISS:    4806293
BTB BRANCH_CONDITIONAL	ACCESS:    7683211  HIT:    6358422  MISS:    1324789
BTB BRANCH_DIRECT_CALL	ACCESS:    3580654  HIT:    1498237  MISS:    2082417
BTB BRANCH_INDIRECT_CALL	ACCESS:     667350  HIT:     263513  MISS:     403837
BTB BRANCH_RETURN	ACCESS:    4247972  HIT:    1106623  MISS:    3141349
BTB BRANCH_OTHER ACCESS:          0  HIT:          0  MISS:          0

L2C TOTAL     ACCESS:   17433926  HIT:   15848650  MISS:    1585276  HIT %:    90.9069  MISS %:    9.09305   MPKI: 7.92638
L2C LOAD      ACCESS:   13300865  HIT:   12100802  MISS:    1200063  HIT %:    90.9776  MISS %:    9.02244   MPKI: 6.00031
L2C DATA LOAD MPKI: 1.55062
L2C INSTRUCTION LOAD MPKI: 4.44969
L2C RFO       ACCESS:    1140799  HIT:     930046  MISS:     210753  HIT %:    81.5258  MISS %:    18.4742   MPKI: 1.05376
L2C PREFETCH  ACCESS:     991676  HIT:     886014  MISS:     105662  HIT %:    89.3451  MISS %:    10.6549   MPKI: 0.52831
L2C DATA PREFETCH MPKI: 0.52831
L2C INSTRUCTION PREFETCH MPKI: 0
L2C WRITEBACK ACCESS:    1987507  HIT:    1924936  MISS:      62571  HIT %:    96.8518  MISS %:    3.14822   MPKI: 0.312855
L2C LOAD TRANSLATION ACCESS:       8222  HIT:       2539  MISS:       5683  HIT %:    30.8806  MISS %:    69.1194   MPKI: 0.028415
L2C TRANSLATION FROM L1D PREFETCHER ACCESS:       4857  HIT:       4313  MISS:        544  HIT %:    88.7997  MISS %:    11.2003   MPKI: 0.00272
L2C PREFETCH  REQUESTED:          0  ISSUED:          0  USEFUL:       7370  USELESS:      98839
L2C USEFUL LOAD PREFETCHES:       7370 PREFETCH ISSUED TO LOWER LEVEL:     106418  ACCURACY: 6.92552
L2C TIMELY PREFETCHES:       7370 LATE PREFETCHES: 756 DROPPED PREFETCHES: 0
L2C PREFETCHES SAME FILL-ORIGIN LEVEL: 69285 DIFFERENT FILL-ORIGIN LEVEL: 0
L2C AVERAGE MISS LATENCY: 36.9419 cycles
L2C RQ	ACCESS:   14454778	FORWARD:          0	MERGED:          0	TO_CACHE:   14454743
L2C WQ	ACCESS:    1987507	FORWARD:         35	MERGED:          0	TO_CACHE:    1987507
L2C PQ	ACCESS:    1014202	FORWARD:          0	MERGED:        591	TO_CACHE:    1013611

L2C Instructions Evicting Data 340733
L2C Translations Evicting Data 4486
L2C Data Evicting Data 318568
L2C Instructions Evicting Instructions 547416
L2C Translations Evicting Instructions 1533
L2C Data Evicting Instructions 303830
L2C Instructions Evicting Translations 1790
L2C Translations Evicting Translations 208
L2C Data Evicting Translations 4141
L2C Dense regions hint from L2: 0
PSCL5 TOTAL     ACCESS:      10671  HIT:      10671  MISS:          0  HIT %:        100  MISS %:          0   MPKI: 0
PSCL5 LOAD TRANSLATION ACCESS:       7798  HIT:       7798  MISS:          0  HIT %:        100  MISS %:          0   MPKI: 0
PSCL5 TRANSLATION FROM L1D PREFETCHER ACCESS:       2873  HIT:       2873  MISS:          0  HIT %:        100  MISS %:          0   MPKI: 0
PSCL5 PREFETCH  REQUESTED:          0  ISSUED:          0  USEFUL:          0  USELESS:          0
PSCL5 USEFUL LOAD PREFETCHES:          0 PREFETCH ISSUED TO LOWER LEVEL:          0  ACCURACY: -nan
PSCL5 TIMELY PREFETCHES:          0 LATE PREFETCHES: 0 DROPPED PREFETCHES: 0
PSCL5 PREFETCHES SAME FILL-ORIGIN LEVEL: 0 DIFFERENT FILL-ORIGIN LEVEL: 0

PSCL4 TOTAL     ACCESS:      10354  HIT:      10334  MISS:         20  HIT %:    99.8068  MISS %:   0.193162   MPKI: 0.0001
PSCL4 LOAD TRANSLATION ACCESS:       7574  HIT:       7554  MISS:         20  HIT %:    99.7359  MISS %:   0.264061   MPKI: 0.0001
PSCL4 TRANSLATION FROM L1D PREFETCHER ACCESS:       2780  HIT:       2780  MISS:          0  HIT %:        100  MISS %:          0   MPKI: 0
PSCL4 PREFETCH  REQUESTED:          0  ISSUED:          0  USEFUL:          0  USELESS:          0
PSCL4 USEFUL LOAD PREFETCHES:          0 PREFETCH ISSUED TO LOWER LEVEL:          0  ACCURACY: -nan
PSCL4 TIMELY PREFETCHES:          0 LATE PREFETCHES: 0 DROPPED PREFETCHES: 0
PSCL4 PREFETCHES SAME FILL-ORIGIN LEVEL: 0 DIFFERENT FILL-ORIGIN LEVEL: 0

PSCL3 TOTAL     ACCESS:      10489  HIT:      10469  MISS:         20  HIT %:    99.8093  MISS %:   0.190676   MPKI: 0.0001
PSCL3 LOAD TRANSLATION ACCESS:       7709  HIT:       7689  MISS:         20  HIT %:    99.7406  MISS %:   0.259437   MPKI: 0.0001
PSCL3 TRANSLATION FROM L1D PREFETCHER ACCESS:       2780  HIT:       2780  MISS:          0  HIT %:        100  MISS %:          0   MPKI: 0
PSCL3 PREFETCH  REQUESTED:          0  ISSUED:          0  USEFUL:          0  USELESS:          0
PSCL3 USEFUL LOAD PREFETCHES:          0 PREFETCH ISSUED TO LOWER LEVEL:          0  ACCURACY: -nan
PSCL3 TIMELY PREFETCHES:          0 LATE PREFETCHES: 0 DROPPED PREFETCHES: 0
PSCL3 PREFETCHES SAME FILL-ORIGIN LEVEL: 0 DIFFERENT FILL-ORIGIN LEVEL: 0

PSCL2 TOTAL     ACCESS:       8800  HIT:       8412  MISS:        388  HIT %:    95.5909  MISS %:    4.40909   MPKI: 0.00194
PSCL2 LOAD TRANSLATION ACCESS:       7799  HIT:       7411  MISS:        388  HIT %:     95.025  MISS %:      4.975   MPKI: 0.00194
PSCL2 TRANSLATION FROM L1D PREFETCHER ACCESS:       1001  HIT:       1001  MISS:          0  HIT %:        100  MISS %:          0   MPKI: 0
PSCL2 PREFETCH  REQUESTED:          0  ISSUED:          0  USEFUL:          0  USELESS:          0
PSCL2 USEFUL LOAD PREFETCHES:          0 PREFETCH ISSUED TO LOWER LEVEL:          0  ACCURACY: -nan
PSCL2 TIMELY PREFETCHES:          0 LATE PREFETCHES: 0 DROPPED PREFETCHES: 0
PSCL2 PREFETCHES SAME FILL-ORIGIN LEVEL: 0 DIFFERENT FILL-ORIGIN LEVEL: 0

LLC TOTAL     ACCESS:    1800385  HIT:    1730060  MISS:      70325  HIT %:    96.0939  MISS %:    3.90611   MPKI: 0.351625
LLC LOAD      ACCESS:    1199347  HIT:    1174239  MISS:      25108  HIT %:    97.9065  MISS %:    2.09347   MPKI: 0.12554
LLC RFO       ACCESS:     210710  HIT:     176768  MISS:      33942  HIT %:    83.8916  MISS %:    16.1084   MPKI: 0.16971
LLC PREFETCH  ACCESS:     106418  HIT:      96068  MISS:      10350  HIT %:    90.2742  MISS %:     9.7258   MPKI: 0.05175
LLC WRITEBACK ACCESS:     277683  HIT:     277062  MISS:        621  HIT %:    99.7764  MISS %:   0.223636   MPKI: 0.003105
LLC LOAD TRANSLATION ACCESS:       5683  HIT:       5385  MISS:        298  HIT %:    94.7563  MISS %:    5.24371   MPKI: 0.00149
LLC TRANSLATION FROM L1D PREFETCHER ACCESS:        544  HIT:        538  MISS:          6  HIT %:    98.8971  MISS %:    1.10294   MPKI: 3e-05
LLC PREFETCH  REQUESTED:          0  ISSUED:          0  USEFUL:        896  USELESS:      10347
LLC USEFUL LOAD PREFETCHES:        896 PREFETCH ISSUED TO LOWER LEVEL:      10350  ACCURACY: 8.657
LLC TIMELY PREFETCHES:        896 LATE PREFETCHES: 0 DROPPED PREFETCHES: 0
LLC PREFETCHES SAME FILL-ORIGIN LEVEL: 0 DIFFERENT FILL-ORIGIN LEVEL: 0
LLC AVERAGE MISS LATENCY: 184.988 cycles
LLC RQ	ACCESS:    1416287	FORWARD:          0	MERGED:          0	TO_CACHE:    1416284
LLC WQ	ACCESS:     277683	FORWARD:          3	MERGED:          0	TO_CACHE:     277683
LLC PQ	ACCESS:     106418	FORWARD:          0	MERGED:          0	TO_CACHE:     106418

LLC Dense regions hint to LLC: 0

RAW hits: 1415608
Loads Generated: 48830627
Loads sent to L1D: 47415019
Stores Generated: 26764754
Stores sent to L1D: 26764780
Major fault: 0 Minor fault: 2264
Allocated PAGES: 2264

DRAM Statistics
 CHANNEL 0
 RQ ROW_BUFFER_HIT:      25414  ROW_BUFFER_MISS:      44262
 DBUS_CONGESTED:         38
 WQ ROW_BUFFER_HIT:       3368  ROW_BUFFER_MISS:      32170  FULL:          0

 AVG_CONGESTED_CYCLE: 4
 All warmup complete: 2
Channel 0 Bank busy for read cycles: 0
Channel 0 Bank busy for write cycles: 0
Channel 0
Rank 0
0banks busy for read cycles: 635206637
0banks busy for write cycles: 8655
1banks busy for read cycles: 1815213
1banks busy for write cycles: 1021905
2banks busy for read cycles: 405008
2banks busy for write cycles: 243364
3banks busy for read cycles: 255322
3banks busy for write cycles: 142485
4banks busy for read cycles: 187239
4banks busy for write cycles: 104252
5banks busy for read cycles: 148545
5banks busy for write cycles: 92391
6banks busy for read cycles: 125739
6banks busy for write cycles: 77014
7banks busy for read cycles: 122156
7banks busy for write cycles: 85049
8banks busy for read cycles: 189508
8banks busy for write cycles: 243582

CPU 0 Branch Prediction Accuracy: 99.8683% MPKI: 0.231785 Average ROB Occupancy at Mispredict: 30.9485
Branch types
NOT_BRANCH: 164806522 82.4033%
BRANCH_DIRECT_JUMP: 2009046 1.00452%
BRANCH_INDIRECT: 11800646 5.90032%
BRANCH_CONDITIONAL: 12887721 6.44386%
BRANCH_DIRECT_CALL: 3580654 1.79033%
BRANCH_INDIRECT_CALL: 667350 0.333675%
BRANCH_RETURN: 4247972 2.12399%
BRANCH_OTHER: 0 0%

DRAM PAGES: 1048576
Allocated PAGES: 2264
