
*** ChampSim Multicore Out-of-Order Simulator ***

Warmup Instructions: 50000000
Simulation Instructions: 200000000
Number of CPUs: 1
LLC sets: 2048
LLC ways: 16
Off-chip DRAM Size: 4096 MB Channels: 1 Width: 64-bit Data Rate: 6400 MT/s
CPU 0 runs traces/spec2k17/server_035.champsimtrace.xz
.xz
BTB has LRU replacement policy
ITLB has LRU replacement policy
DTLB has LRU replacement policy
STLB has LRU replacement policy
L1I has LRU replacement policy
History Sets: 8
History Ways: 16
BERTI Size: 16
BERTI Stride Size: 16
L1D has LRU replacement policy
Initialize SRRIP state for L2C
Initialize DRRIP state for LLC
Heartbeat CPU 0 instructions: 10000003 cycles: 2814870 heartbeat IPC: 3.55256 cumulative IPC: 3.55256 (Simulation time: 0 hr 0 min 34 sec) 
Heartbeat CPU 0 instructions: 20000000 cycles: 5628354 heartbeat IPC: 3.55431 cumulative IPC: 3.55344 (Simulation time: 0 hr 1 min 7 sec) 
Heartbeat CPU 0 instructions: 30000002 cycles: 8440013 heartbeat IPC: 3.55662 cumulative IPC: 3.5545 (Simulation time: 0 hr 1 min 33 sec) 
Heartbeat CPU 0 instructions: 40000003 cycles: 11254611 heartbeat IPC: 3.55291 cumulative IPC: 3.5541 (Simulation time: 0 hr 2 min 4 sec) 
Heartbeat CPU 0 instructions: 50000000 cycles: 14066690 heartbeat IPC: 3.55609 cumulative IPC: 3.5545 (Simulation time: 0 hr 2 min 33 sec) 

Warmup complete CPU 0 instructions: 50000004 cycles: 14066691 (Simulation time: 0 hr 2 min 33 sec) 

Heartbeat CPU 0 instructions: 60000000 cycles: 42462300 heartbeat IPC: 0.352167 cumulative IPC: 0.352167 (Simulation time: 0 hr 3 min 26 sec) 
Heartbeat CPU 0 instructions: 70000001 cycles: 71181810 heartbeat IPC: 0.348195 cumulative IPC: 0.35017 (Simulation time: 0 hr 4 min 14 sec) 
Heartbeat CPU 0 instructions: 80000000 cycles: 99606692 heartbeat IPC: 0.351804 cumulative IPC: 0.350713 (Simulation time: 0 hr 5 min 6 sec) 
Heartbeat CPU 0 instructions: 90000000 cycles: 128578185 heartbeat IPC: 0.345167 cumulative IPC: 0.34931 (Simulation time: 0 hr 6 min 2 sec) 
Heartbeat CPU 0 instructions: 100000000 cycles: 157009638 heartbeat IPC: 0.351723 cumulative IPC: 0.34979 (Simulation time: 0 hr 6 min 52 sec) 
*** Reached end of trace for Core: 0 Repeating trace: traces/spec2k17/server_035.champsimtrace.xz
Heartbeat CPU 0 instructions: 110000000 cycles: 185265945 heartbeat IPC: 0.353903 cumulative IPC: 0.350469 (Simulation time: 0 hr 7 min 47 sec) 
Heartbeat CPU 0 instructions: 120000002 cycles: 213592957 heartbeat IPC: 0.35302 cumulative IPC: 0.350831 (Simulation time: 0 hr 8 min 35 sec) 
Heartbeat CPU 0 instructions: 130000001 cycles: 242357281 heartbeat IPC: 0.347653 cumulative IPC: 0.350431 (Simulation time: 0 hr 9 min 32 sec) 
Heartbeat CPU 0 instructions: 140000000 cycles: 271325584 heartbeat IPC: 0.345205 cumulative IPC: 0.349842 (Simulation time: 0 hr 10 min 20 sec) 
Heartbeat CPU 0 instructions: 150000001 cycles: 299655969 heartbeat IPC: 0.352978 cumulative IPC: 0.350153 (Simulation time: 0 hr 11 min 6 sec) 
Heartbeat CPU 0 instructions: 160000000 cycles: 328399957 heartbeat IPC: 0.347899 cumulative IPC: 0.349947 (Simulation time: 0 hr 11 min 53 sec) 
Heartbeat CPU 0 instructions: 170000000 cycles: 356716564 heartbeat IPC: 0.35315 cumulative IPC: 0.350212 (Simulation time: 0 hr 12 min 51 sec) 
Heartbeat CPU 0 instructions: 180000000 cycles: 385008566 heartbeat IPC: 0.353457 cumulative IPC: 0.350459 (Simulation time: 0 hr 13 min 43 sec) 
Heartbeat CPU 0 instructions: 190000000 cycles: 413882053 heartbeat IPC: 0.346338 cumulative IPC: 0.350162 (Simulation time: 0 hr 14 min 31 sec) 
Heartbeat CPU 0 instructions: 200000000 cycles: 442409924 heartbeat IPC: 0.350534 cumulative IPC: 0.350186 (Simulation time: 0 hr 15 min 23 sec) 
*** Reached end of trace for Core: 0 Repeating trace: traces/spec2k17/server_035.champsimtrace.xz
Heartbeat CPU 0 instructions: 210000000 cycles: 471212269 heartbeat IPC: 0.347194 cumulative IPC: 0.349998 (Simulation time: 0 hr 16 min 20 sec) 
Heartbeat CPU 0 instructions: 220000000 cycles: 499027971 heartbeat IPC: 0.359509 cumulative IPC: 0.350543 (Simulation time: 0 hr 17 min 10 sec) 
Heartbeat CPU 0 instructions: 230000000 cycles: 527858461 heartbeat IPC: 0.346855 cumulative IPC: 0.350336 (Simulation time: 0 hr 18 min 2 sec) 
Heartbeat CPU 0 instructions: 240000002 cycles: 556201862 heartbeat IPC: 0.352816 cumulative IPC: 0.350466 (Simulation time: 0 hr 18 min 52 sec) 
Heartbeat CPU 0 instructions: 250000000 cycles: 585085137 heartbeat IPC: 0.346221 cumulative IPC: 0.350251 (Simulation time: 0 hr 19 min 45 sec) 
Finished CPU 0 instructions: 200000002 cycles: 571018496 cumulative IPC: 0.350251 (Simulation time: 0 hr 19 min 45 sec) 

ChampSim completed all CPUs

Region of Interest Statistics

CPU 0 cumulative IPC: 0.350251 instructions: 200000002 cycles: 571018496
ITLB TOTAL     ACCESS:   35612609  HIT:   33568347  MISS:    2044262  HIT %:    94.2597  MISS %:    5.74028   MPKI: 10.2213
ITLB LOAD TRANSLATION ACCESS:   35612609  HIT:   33568347  MISS:    2044262  HIT %:    94.2597  MISS %:    5.74028   MPKI: 10.2213
ITLB PREFETCH  REQUESTED:          0  ISSUED:          0  USEFUL:          0  USELESS:          0
ITLB USEFUL LOAD PREFETCHES:          0 PREFETCH ISSUED TO LOWER LEVEL:          0  ACCURACY: -nan
ITLB TIMELY PREFETCHES:          0 LATE PREFETCHES: 0 DROPPED PREFETCHES: 0
ITLB PREFETCHES SAME FILL-ORIGIN LEVEL: 0 DIFFERENT FILL-ORIGIN LEVEL: 0
ITLB AVERAGE MISS LATENCY: 9.11333 cycles
ITLB RQ	ACCESS:   41305440	FORWARD:          0	MERGED:    5236378	TO_CACHE:   36069062

DTLB TOTAL     ACCESS:   39270040  HIT:   37547359  MISS:    1722681  HIT %:    95.6132  MISS %:    4.38676   MPKI: 8.6134
DTLB LOAD TRANSLATION ACCESS:   39270040  HIT:   37547359  MISS:    1722681  HIT %:    95.6132  MISS %:    4.38676   MPKI: 8.6134
DTLB PREFETCH  REQUESTED:          0  ISSUED:          0  USEFUL:          0  USELESS:          0
DTLB USEFUL LOAD PREFETCHES:          0 PREFETCH ISSUED TO LOWER LEVEL:          0  ACCURACY: -nan
DTLB TIMELY PREFETCHES:          0 LATE PREFETCHES: 0 DROPPED PREFETCHES: 0
DTLB PREFETCHES SAME FILL-ORIGIN LEVEL: 0 DIFFERENT FILL-ORIGIN LEVEL: 0
DTLB AVERAGE MISS LATENCY: 9.94025 cycles
DTLB RQ	ACCESS:   54912789	FORWARD:          0	MERGED:   15573795	TO_CACHE:   39338994

STLB TOTAL     ACCESS:    3864897  HIT:    3826614  MISS:      38283  HIT %:    99.0095  MISS %:   0.990531   MPKI: 0.191415
STLB LOAD TRANSLATION ACCESS:    3766943  HIT:    3737670  MISS:      29273  HIT %:    99.2229  MISS %:   0.777102   MPKI: 0.146365
STLB TRANSLATION FROM L1D PREFETCHER ACCESS:      97954  HIT:      88944  MISS:       9010  HIT %:    90.8018  MISS %:     9.1982   MPKI: 0.04505
STLB PREFETCH  REQUESTED:          0  ISSUED:          0  USEFUL:       8187  USELESS:        800
STLB USEFUL LOAD PREFETCHES:       8187 PREFETCH ISSUED TO LOWER LEVEL:          0  ACCURACY: inf
STLB TIMELY PREFETCHES:       8187 LATE PREFETCHES: 5 DROPPED PREFETCHES: 12888
STLB PREFETCHES SAME FILL-ORIGIN LEVEL: 0 DIFFERENT FILL-ORIGIN LEVEL: 0
STLB AVERAGE MISS LATENCY: 67.226 cycles
STLB RQ	ACCESS:    4051160	FORWARD:          0	MERGED:     172818	TO_CACHE:    3878342

STLB Hit, L1D data hit: 0
STLB Hit, L2C data hit: 0
STLB Hit, LLC data hit: 0
STLB Hit, LLC data miss: 0
STLB STLB hints to L2: 0
L1D TOTAL     ACCESS:   54593811  HIT:   52135590  MISS:    2458221  HIT %:    95.4973  MISS %:    4.50275   MPKI: 12.2911
L1D LOAD      ACCESS:   30126836  HIT:   28089164  MISS:    2037672  HIT %:    93.2364  MISS %:    6.76364   MPKI: 10.1884
L1D RFO       ACCESS:   24336755  HIT:   23965950  MISS:     370805  HIT %:    98.4764  MISS %:    1.52364   MPKI: 1.85402
L1D PREFETCH  ACCESS:     130220  HIT:      80476  MISS:      49744  HIT %:       61.8  MISS %:       38.2   MPKI: 0.24872
L1D PREFETCH  REQUESTED:     695545  ISSUED:     568551  USEFUL:      33975  USELESS:      15769
L1D USEFUL LOAD PREFETCHES:      33975 PREFETCH ISSUED TO LOWER LEVEL:     189870  ACCURACY: 17.8938
L1D TIMELY PREFETCHES:      33975 LATE PREFETCHES: 712 DROPPED PREFETCHES: 17723
L1D PREFETCHES SAME FILL-ORIGIN LEVEL: 50472 DIFFERENT FILL-ORIGIN LEVEL: 139398
L1D AVERAGE MISS LATENCY: 63.6135 cycles
L1D RQ	ACCESS:   43315726	FORWARD:          0	MERGED:   12765665	TO_CACHE:   30213309
L1D WQ	ACCESS:   24970645	FORWARD:     336773	MERGED:     271165	TO_CACHE:   24699480
L1D PQ	ACCESS:     284334	FORWARD:          0	MERGED:         96	TO_CACHE:     284217

L1D UNIQUE REGIONS ACCESSED: 0
L1D REGIONS CONFLICTS: 0
L1D Cross Page Prefetch Requests: 180467
L1D Same Page Prefetch Requests: 119104
L1D ROI Sum of L1D PQ occupancy: 11551900
L1D PREFETCHES PUSHED FROM L2C: 0
L1I TOTAL     ACCESS:   38652898  HIT:   25866481  MISS:   12786417  HIT %:    66.9199  MISS %:    33.0801   MPKI: 63.9321
L1I LOAD      ACCESS:   38652898  HIT:   25866481  MISS:   12786417  HIT %:    66.9199  MISS %:    33.0801   MPKI: 63.9321
L1I PREFETCH  REQUESTED:          0  ISSUED:          0  USEFUL:          0  USELESS:          0
L1I USEFUL LOAD PREFETCHES:          0 PREFETCH ISSUED TO LOWER LEVEL:          0  ACCURACY: -nan
L1I TIMELY PREFETCHES:          0 LATE PREFETCHES: 0 DROPPED PREFETCHES: 0
L1I PREFETCHES SAME FILL-ORIGIN LEVEL: 0 DIFFERENT FILL-ORIGIN LEVEL: 0
L1I AVERAGE MISS LATENCY: 14.4663 cycles
L1I RQ	ACCESS:   60990438	FORWARD:          0	MERGED:   19684998	TO_CACHE:   41305440

BTB TOTAL     ACCESS:   31158244  HIT:   22772674  MISS:    8385570  HIT %:    73.0872  MISS %:    26.9128   MPKI: 41.9278
BTB BRANCH_DIRECT_JUMP	ACCESS:    2947352  HIT:    2315063  MISS:     632289
BTB BRANCH_INDIRECT	ACCESS:   13078896  HIT:    9492312  MISS:    3586584
BTB BRANCH_CONDITIONAL	ACCESS:    5413260  HIT:    4750581  MISS:     662679
BTB BRANCH_DIRECT_CALL	ACCESS:    4056169  HIT:    3104099  MISS:     952070
BTB BRANCH_INDIRECT_CALL	ACCESS:     803174  HIT:     456636  MISS:     346538
BTB BRANCH_RETURN	ACCESS:    4859393  HIT:    2653983  MISS:    2205410
BTB BRANCH_OTHER ACCESS:          0  HIT:          0  MISS:          0

L2C TOTAL     ACCESS:   16316404  HIT:   15486041  MISS:     830363  HIT %:    94.9109  MISS %:    5.08913   MPKI: 4.15181
L2C LOAD      ACCESS:   14823345  HIT:   14218137  MISS:     605208  HIT %:    95.9172  MISS %:     4.0828   MPKI: 3.02604
L2C DATA LOAD MPKI: 2.76518
L2C INSTRUCTION LOAD MPKI: 0.26086
L2C RFO       ACCESS:     370803  HIT:     272476  MISS:      98327  HIT %:    73.4827  MISS %:    26.5173   MPKI: 0.491635
L2C PREFETCH  ACCESS:     176272  HIT:      80783  MISS:      95489  HIT %:    45.8286  MISS %:    54.1714   MPKI: 0.477445
L2C DATA PREFETCH MPKI: 0.477445
L2C INSTRUCTION PREFETCH MPKI: 0
L2C WRITEBACK ACCESS:     885475  HIT:     872280  MISS:      13195  HIT %:    98.5098  MISS %:    1.49016   MPKI: 0.065975
L2C LOAD TRANSLATION ACCESS:      31905  HIT:      17227  MISS:      14678  HIT %:    53.9947  MISS %:    46.0053   MPKI: 0.07339
L2C TRANSLATION FROM L1D PREFETCHER ACCESS:      28604  HIT:      25138  MISS:       3466  HIT %:    87.8828  MISS %:    12.1172   MPKI: 0.01733
L2C PREFETCH  REQUESTED:          0  ISSUED:          0  USEFUL:      27485  USELESS:      71435
L2C USEFUL LOAD PREFETCHES:      27485 PREFETCH ISSUED TO LOWER LEVEL:      96209  ACCURACY: 28.568
L2C TIMELY PREFETCHES:      27485 LATE PREFETCHES: 720 DROPPED PREFETCHES: 0
L2C PREFETCHES SAME FILL-ORIGIN LEVEL: 68934 DIFFERENT FILL-ORIGIN LEVEL: 0
L2C AVERAGE MISS LATENCY: 186.989 cycles
L2C RQ	ACCESS:   15254691	FORWARD:          0	MERGED:          0	TO_CACHE:   15254659
L2C WQ	ACCESS:     885475	FORWARD:         32	MERGED:          0	TO_CACHE:     885475
L2C PQ	ACCESS:     182780	FORWARD:          0	MERGED:          2	TO_CACHE:     182778

L2C Instructions Evicting Data 39387
L2C Translations Evicting Data 16903
L2C Data Evicting Data 692165
L2C Instructions Evicting Instructions 12039
L2C Translations Evicting Instructions 839
L2C Data Evicting Instructions 38025
L2C Instructions Evicting Translations 746
L2C Translations Evicting Translations 402
L2C Data Evicting Translations 16662
L2C Dense regions hint from L2: 0
PSCL5 TOTAL     ACCESS:      50223  HIT:      50223  MISS:          0  HIT %:        100  MISS %:          0   MPKI: 0
PSCL5 LOAD TRANSLATION ACCESS:      29270  HIT:      29270  MISS:          0  HIT %:        100  MISS %:          0   MPKI: 0
PSCL5 TRANSLATION FROM L1D PREFETCHER ACCESS:      20953  HIT:      20953  MISS:          0  HIT %:        100  MISS %:          0   MPKI: 0
PSCL5 PREFETCH  REQUESTED:          0  ISSUED:          0  USEFUL:          0  USELESS:          0
PSCL5 USEFUL LOAD PREFETCHES:          0 PREFETCH ISSUED TO LOWER LEVEL:          0  ACCURACY: -nan
PSCL5 TIMELY PREFETCHES:          0 LATE PREFETCHES: 0 DROPPED PREFETCHES: 0
PSCL5 PREFETCHES SAME FILL-ORIGIN LEVEL: 0 DIFFERENT FILL-ORIGIN LEVEL: 0

PSCL4 TOTAL     ACCESS:      46137  HIT:      46065  MISS:         72  HIT %:    99.8439  MISS %:   0.156057   MPKI: 0.00036
PSCL4 LOAD TRANSLATION ACCESS:      27686  HIT:      27614  MISS:         72  HIT %:    99.7399  MISS %:   0.260059   MPKI: 0.00036
PSCL4 TRANSLATION FROM L1D PREFETCHER ACCESS:      18451  HIT:      18451  MISS:          0  HIT %:        100  MISS %:          0   MPKI: 0
PSCL4 PREFETCH  REQUESTED:          0  ISSUED:          0  USEFUL:          0  USELESS:          0
PSCL4 USEFUL LOAD PREFETCHES:          0 PREFETCH ISSUED TO LOWER LEVEL:          0  ACCURACY: -nan
PSCL4 TIMELY PREFETCHES:          0 LATE PREFETCHES: 0 DROPPED PREFETCHES: 0
PSCL4 PREFETCHES SAME FILL-ORIGIN LEVEL: 0 DIFFERENT FILL-ORIGIN LEVEL: 0

PSCL3 TOTAL     ACCESS:      48646  HIT:      48501  MISS:        145  HIT %:    99.7019  MISS %:   0.298072   MPKI: 0.000725
PSCL3 LOAD TRANSLATION ACCESS:      28452  HIT:      28307  MISS:        145  HIT %:    99.4904  MISS %:    0.50963   MPKI: 0.000725
PSCL3 TRANSLATION FROM L1D PREFETCHER ACCESS:      20194  HIT:      20194  MISS:          0  HIT %:        100  MISS %:          0   MPKI: 0
PSCL3 PREFETCH  REQUESTED:          0  ISSUED:          0  USEFUL:          0  USELESS:          0
PSCL3 USEFUL LOAD PREFETCHES:          0 PREFETCH ISSUED TO LOWER LEVEL:          0  ACCURACY: -nan
PSCL3 TIMELY PREFETCHES:          0 LATE PREFETCHES: 0 DROPPED PREFETCHES: 0
PSCL3 PREFETCHES SAME FILL-ORIGIN LEVEL: 0 DIFFERENT FILL-ORIGIN LEVEL: 0

PSCL2 TOTAL     ACCESS:      44065  HIT:      41575  MISS:       2490  HIT %:    94.3493  MISS %:    5.65074   MPKI: 0.01245
PSCL2 LOAD TRANSLATION ACCESS:      29332  HIT:      26842  MISS:       2490  HIT %:     91.511  MISS %:    8.48902   MPKI: 0.01245
PSCL2 TRANSLATION FROM L1D PREFETCHER ACCESS:      14733  HIT:      14733  MISS:          0  HIT %:        100  MISS %:          0   MPKI: 0
PSCL2 PREFETCH  REQUESTED:          0  ISSUED:          0  USEFUL:          0  USELESS:          0
PSCL2 USEFUL LOAD PREFETCHES:          0 PREFETCH ISSUED TO LOWER LEVEL:          0  ACCURACY: -nan
PSCL2 TIMELY PREFETCHES:          0 LATE PREFETCHES: 0 DROPPED PREFETCHES: 0
PSCL2 PREFETCHES SAME FILL-ORIGIN LEVEL: 0 DIFFERENT FILL-ORIGIN LEVEL: 0

LLC TOTAL     ACCESS:    1175675  HIT:     530151  MISS:     645524  HIT %:    45.0933  MISS %:    54.9067   MPKI: 3.22762
LLC LOAD      ACCESS:     604564  HIT:     114710  MISS:     489854  HIT %:     18.974  MISS %:     81.026   MPKI: 2.44927
LLC RFO       ACCESS:      98251  HIT:      32070  MISS:      66181  HIT %:    32.6409  MISS %:    67.3591   MPKI: 0.330905
LLC PREFETCH  ACCESS:      96209  HIT:      17017  MISS:      79192  HIT %:    17.6875  MISS %:    82.3125   MPKI: 0.39596
LLC WRITEBACK ACCESS:     358507  HIT:     352783  MISS:       5724  HIT %:    98.4034  MISS %:    1.59662   MPKI: 0.02862
LLC LOAD TRANSLATION ACCESS:      14678  HIT:      11132  MISS:       3546  HIT %:    75.8414  MISS %:    24.1586   MPKI: 0.01773
LLC TRANSLATION FROM L1D PREFETCHER ACCESS:       3466  HIT:       2439  MISS:       1027  HIT %:    70.3693  MISS %:    29.6307   MPKI: 0.005135
LLC PREFETCH  REQUESTED:          0  ISSUED:          0  USEFUL:      13183  USELESS:      63308
LLC USEFUL LOAD PREFETCHES:      13183 PREFETCH ISSUED TO LOWER LEVEL:      79192  ACCURACY: 16.6469
LLC TIMELY PREFETCHES:      13183 LATE PREFETCHES: 0 DROPPED PREFETCHES: 0
LLC PREFETCHES SAME FILL-ORIGIN LEVEL: 0 DIFFERENT FILL-ORIGIN LEVEL: 0
LLC AVERAGE MISS LATENCY: 202.991 cycles
LLC RQ	ACCESS:     720959	FORWARD:          0	MERGED:          0	TO_CACHE:     720959
LLC WQ	ACCESS:     358507	FORWARD:          0	MERGED:          0	TO_CACHE:     358507
LLC PQ	ACCESS:      96209	FORWARD:          0	MERGED:          0	TO_CACHE:      96209

LLC Dense regions hint to LLC: 0

RAW hits: 2851355
Loads Generated: 46167081
Loads sent to L1D: 43315726
Stores Generated: 24970633
Stores sent to L1D: 24970645
Major fault: 0 Minor fault: 5644
Allocated PAGES: 5644

DRAM Statistics
 CHANNEL 0
 RQ ROW_BUFFER_HIT:     133746  ROW_BUFFER_MISS:     506028
 DBUS_CONGESTED:        157
 WQ ROW_BUFFER_HIT:      55371  ROW_BUFFER_MISS:     247136  FULL:          0

 AVG_CONGESTED_CYCLE: 6
 All warmup complete: 2
Channel 0 Bank busy for read cycles: 0
Channel 0 Bank busy for write cycles: 0
Channel 0
Rank 0
0banks busy for read cycles: 478455408
0banks busy for write cycles: 149114
1banks busy for read cycles: 45078081
1banks busy for write cycles: 22452850
2banks busy for read cycles: 8534300
2banks busy for write cycles: 6221691
3banks busy for read cycles: 3143879
3banks busy for write cycles: 1948667
4banks busy for read cycles: 818896
4banks busy for write cycles: 843856
5banks busy for read cycles: 429024
5banks busy for write cycles: 501897
6banks busy for read cycles: 398008
6banks busy for write cycles: 505476
7banks busy for read cycles: 366298
7banks busy for write cycles: 548075
8banks busy for read cycles: 203912
8banks busy for write cycles: 419065

CPU 0 Branch Prediction Accuracy: 99.9574% MPKI: 0.07907 Average ROB Occupancy at Mispredict: 23.7187
Branch types
NOT_BRANCH: 162853515 81.4268%
BRANCH_DIRECT_JUMP: 2947352 1.47368%
BRANCH_INDIRECT: 13078896 6.53945%
BRANCH_CONDITIONAL: 11401390 5.70069%
BRANCH_DIRECT_CALL: 4056169 2.02808%
BRANCH_INDIRECT_CALL: 803174 0.401587%
BRANCH_RETURN: 4859393 2.4297%
BRANCH_OTHER: 0 0%

DRAM PAGES: 1048576
Allocated PAGES: 5644
