
*** ChampSim Multicore Out-of-Order Simulator ***

Warmup Instructions: 50000000
Simulation Instructions: 200000000
Number of CPUs: 1
LLC sets: 2048
LLC ways: 16
Off-chip DRAM Size: 4096 MB Channels: 1 Width: 64-bit Data Rate: 6400 MT/s
CPU 0 runs traces/spec2k17/server_025.champsimtrace.xz
.xz
BTB has LRU replacement policy
ITLB has LRU replacement policy
DTLB has LRU replacement policy
STLB has LRU replacement policy
L1I has LRU replacement policy
History Sets: 8
History Ways: 16
BERTI Size: 16
BERTI Stride Size: 16
L1D has LRU replacement policy
Initialize SRRIP state for L2C
Initialize DRRIP state for LLC
Heartbeat CPU 0 instructions: 10000003 cycles: 2820647 heartbeat IPC: 3.54529 cumulative IPC: 3.54529 (Simulation time: 0 hr 0 min 40 sec) 
Heartbeat CPU 0 instructions: 20000000 cycles: 5638039 heartbeat IPC: 3.54938 cumulative IPC: 3.54733 (Simulation time: 0 hr 1 min 15 sec) 
Heartbeat CPU 0 instructions: 30000002 cycles: 8454181 heartbeat IPC: 3.55096 cumulative IPC: 3.54854 (Simulation time: 0 hr 1 min 53 sec) 
Heartbeat CPU 0 instructions: 40000001 cycles: 11270194 heartbeat IPC: 3.55112 cumulative IPC: 3.54918 (Simulation time: 0 hr 2 min 31 sec) 
Heartbeat CPU 0 instructions: 50000001 cycles: 14088574 heartbeat IPC: 3.54814 cumulative IPC: 3.54898 (Simulation time: 0 hr 3 min 14 sec) 

Warmup complete CPU 0 instructions: 50000001 cycles: 14088574 (Simulation time: 0 hr 3 min 14 sec) 

Heartbeat CPU 0 instructions: 60000000 cycles: 46237850 heartbeat IPC: 0.311049 cumulative IPC: 0.311049 (Simulation time: 0 hr 4 min 4 sec) 
Heartbeat CPU 0 instructions: 70000003 cycles: 78493980 heartbeat IPC: 0.310019 cumulative IPC: 0.310533 (Simulation time: 0 hr 4 min 58 sec) 
Heartbeat CPU 0 instructions: 80000000 cycles: 110888830 heartbeat IPC: 0.308691 cumulative IPC: 0.309917 (Simulation time: 0 hr 5 min 59 sec) 
Heartbeat CPU 0 instructions: 90000000 cycles: 143236473 heartbeat IPC: 0.309142 cumulative IPC: 0.309722 (Simulation time: 0 hr 6 min 56 sec) 
Heartbeat CPU 0 instructions: 100000000 cycles: 163097717 heartbeat IPC: 0.503493 cumulative IPC: 0.33555 (Simulation time: 0 hr 7 min 48 sec) 
*** Reached end of trace for Core: 0 Repeating trace: traces/spec2k17/server_025.champsimtrace.xz
Heartbeat CPU 0 instructions: 110000000 cycles: 195201191 heartbeat IPC: 0.311493 cumulative IPC: 0.331286 (Simulation time: 0 hr 8 min 41 sec) 
Heartbeat CPU 0 instructions: 120000000 cycles: 227208729 heartbeat IPC: 0.312426 cumulative IPC: 0.328453 (Simulation time: 0 hr 9 min 37 sec) 
Heartbeat CPU 0 instructions: 130000001 cycles: 259445639 heartbeat IPC: 0.310203 cumulative IPC: 0.326055 (Simulation time: 0 hr 10 min 40 sec) 
Heartbeat CPU 0 instructions: 140000002 cycles: 291493152 heartbeat IPC: 0.312037 cumulative IPC: 0.324436 (Simulation time: 0 hr 11 min 34 sec) 
Heartbeat CPU 0 instructions: 150000000 cycles: 323598674 heartbeat IPC: 0.311473 cumulative IPC: 0.323091 (Simulation time: 0 hr 12 min 29 sec) 
Heartbeat CPU 0 instructions: 160000000 cycles: 355855642 heartbeat IPC: 0.310011 cumulative IPC: 0.321857 (Simulation time: 0 hr 13 min 25 sec) 
Heartbeat CPU 0 instructions: 170000000 cycles: 387808763 heartbeat IPC: 0.312958 cumulative IPC: 0.321096 (Simulation time: 0 hr 14 min 19 sec) 
Heartbeat CPU 0 instructions: 180000001 cycles: 420223885 heartbeat IPC: 0.308498 cumulative IPC: 0.32009 (Simulation time: 0 hr 15 min 15 sec) 
Heartbeat CPU 0 instructions: 190000001 cycles: 452496718 heartbeat IPC: 0.309858 cumulative IPC: 0.319337 (Simulation time: 0 hr 16 min 12 sec) 
Heartbeat CPU 0 instructions: 200000003 cycles: 476645052 heartbeat IPC: 0.414107 cumulative IPC: 0.324285 (Simulation time: 0 hr 17 min 8 sec) 
*** Reached end of trace for Core: 0 Repeating trace: traces/spec2k17/server_025.champsimtrace.xz
Heartbeat CPU 0 instructions: 210000000 cycles: 504526431 heartbeat IPC: 0.358662 cumulative IPC: 0.326239 (Simulation time: 0 hr 18 min 10 sec) 
Heartbeat CPU 0 instructions: 220000000 cycles: 536559742 heartbeat IPC: 0.312175 cumulative IPC: 0.325377 (Simulation time: 0 hr 19 min 6 sec) 
Heartbeat CPU 0 instructions: 230000000 cycles: 568743441 heartbeat IPC: 0.310716 cumulative IPC: 0.324526 (Simulation time: 0 hr 20 min 8 sec) 
Heartbeat CPU 0 instructions: 240000002 cycles: 600671287 heartbeat IPC: 0.313206 cumulative IPC: 0.32391 (Simulation time: 0 hr 21 min 10 sec) 
Heartbeat CPU 0 instructions: 250000003 cycles: 632877911 heartbeat IPC: 0.310495 cumulative IPC: 0.323212 (Simulation time: 0 hr 22 min 8 sec) 
Finished CPU 0 instructions: 200000002 cycles: 618789337 cumulative IPC: 0.323212 (Simulation time: 0 hr 22 min 8 sec) 

ChampSim completed all CPUs

Region of Interest Statistics

CPU 0 cumulative IPC: 0.323212 instructions: 200000002 cycles: 618789337
ITLB TOTAL     ACCESS:   34737311  HIT:   32826981  MISS:    1910330  HIT %:    94.5006  MISS %:    5.49936   MPKI: 9.55165
ITLB LOAD TRANSLATION ACCESS:   34737311  HIT:   32826981  MISS:    1910330  HIT %:    94.5006  MISS %:    5.49936   MPKI: 9.55165
ITLB PREFETCH  REQUESTED:          0  ISSUED:          0  USEFUL:          0  USELESS:          0
ITLB USEFUL LOAD PREFETCHES:          0 PREFETCH ISSUED TO LOWER LEVEL:          0  ACCURACY: -nan
ITLB TIMELY PREFETCHES:          0 LATE PREFETCHES: 0 DROPPED PREFETCHES: 0
ITLB PREFETCHES SAME FILL-ORIGIN LEVEL: 0 DIFFERENT FILL-ORIGIN LEVEL: 0
ITLB AVERAGE MISS LATENCY: 9.05628 cycles
ITLB RQ	ACCESS:   40853768	FORWARD:          0	MERGED:    5660837	TO_CACHE:   35192931

DTLB TOTAL     ACCESS:   46014248  HIT:   44245744  MISS:    1768504  HIT %:    96.1566  MISS %:    3.84338   MPKI: 8.84252
DTLB LOAD TRANSLATION ACCESS:   46014248  HIT:   44245744  MISS:    1768504  HIT %:    96.1566  MISS %:    3.84338   MPKI: 8.84252
DTLB PREFETCH  REQUESTED:          0  ISSUED:          0  USEFUL:          0  USELESS:          0
DTLB USEFUL LOAD PREFETCHES:          0 PREFETCH ISSUED TO LOWER LEVEL:          0  ACCURACY: -nan
DTLB TIMELY PREFETCHES:          0 LATE PREFETCHES: 0 DROPPED PREFETCHES: 0
DTLB PREFETCHES SAME FILL-ORIGIN LEVEL: 0 DIFFERENT FILL-ORIGIN LEVEL: 0
DTLB AVERAGE MISS LATENCY: 9.22246 cycles
DTLB RQ	ACCESS:   60863592	FORWARD:          0	MERGED:   14786915	TO_CACHE:   46076677

STLB TOTAL     ACCESS:    3830470  HIT:    3821505  MISS:       8965  HIT %:     99.766  MISS %:   0.234044   MPKI: 0.044825
STLB LOAD TRANSLATION ACCESS:    3678834  HIT:    3670072  MISS:       8762  HIT %:    99.7618  MISS %:   0.238173   MPKI: 0.04381
STLB TRANSLATION FROM L1D PREFETCHER ACCESS:     151636  HIT:     151433  MISS:        203  HIT %:    99.8661  MISS %:   0.133873   MPKI: 0.001015
STLB PREFETCH  REQUESTED:          0  ISSUED:          0  USEFUL:        148  USELESS:         53
STLB USEFUL LOAD PREFETCHES:        148 PREFETCH ISSUED TO LOWER LEVEL:          0  ACCURACY: inf
STLB TIMELY PREFETCHES:        148 LATE PREFETCHES: 1 DROPPED PREFETCHES: 6271
STLB PREFETCHES SAME FILL-ORIGIN LEVEL: 0 DIFFERENT FILL-ORIGIN LEVEL: 0
STLB AVERAGE MISS LATENCY: 54.4118 cycles
STLB RQ	ACCESS:    4569825	FORWARD:          0	MERGED:     729991	TO_CACHE:    3839834

STLB Hit, L1D data hit: 0
STLB Hit, L2C data hit: 0
STLB Hit, LLC data hit: 0
STLB Hit, LLC data miss: 0
STLB STLB hints to L2: 0
L1D TOTAL     ACCESS:   59518882  HIT:   55771016  MISS:    3747866  HIT %:    93.7031  MISS %:    6.29694   MPKI: 18.7393
L1D LOAD      ACCESS:   33968875  HIT:   31351557  MISS:    2617318  HIT %:     92.295  MISS %:    7.70505   MPKI: 13.0866
L1D RFO       ACCESS:   25138796  HIT:   24088801  MISS:    1049995  HIT %:    95.8232  MISS %:    4.17679   MPKI: 5.24997
L1D PREFETCH  ACCESS:     411211  HIT:     330658  MISS:      80553  HIT %:    80.4108  MISS %:    19.5892   MPKI: 0.402765
L1D PREFETCH  REQUESTED:    2039582  ISSUED:    1989202  USEFUL:      46593  USELESS:      33970
L1D USEFUL LOAD PREFETCHES:      46593 PREFETCH ISSUED TO LOWER LEVEL:     522688  ACCURACY: 8.91411
L1D TIMELY PREFETCHES:      46593 LATE PREFETCHES: 6040 DROPPED PREFETCHES: 21025
L1D PREFETCHES SAME FILL-ORIGIN LEVEL: 86593 DIFFERENT FILL-ORIGIN LEVEL: 436095
L1D AVERAGE MISS LATENCY: 22.1335 cycles
L1D RQ	ACCESS:   47228440	FORWARD:          0	MERGED:   12831567	TO_CACHE:   34082802
L1D WQ	ACCESS:   26938645	FORWARD:     314071	MERGED:     157855	TO_CACHE:   26780790
L1D PQ	ACCESS:    1098211	FORWARD:          0	MERGED:     207220	TO_CACHE:     890991

L1D UNIQUE REGIONS ACCESSED: 0
L1D REGIONS CONFLICTS: 0
L1D Cross Page Prefetch Requests: 67052
L1D Same Page Prefetch Requests: 1360966
L1D ROI Sum of L1D PQ occupancy: 16453381
L1D PREFETCHES PUSHED FROM L2C: 0
L1I TOTAL     ACCESS:   39434770  HIT:   29482514  MISS:    9952256  HIT %:    74.7627  MISS %:    25.2373   MPKI: 49.7613
L1I LOAD      ACCESS:   39434770  HIT:   29482514  MISS:    9952256  HIT %:    74.7627  MISS %:    25.2373   MPKI: 49.7613
L1I PREFETCH  REQUESTED:          0  ISSUED:          0  USEFUL:          0  USELESS:          0
L1I USEFUL LOAD PREFETCHES:          0 PREFETCH ISSUED TO LOWER LEVEL:          0  ACCURACY: -nan
L1I TIMELY PREFETCHES:          0 LATE PREFETCHES: 0 DROPPED PREFETCHES: 0
L1I PREFETCHES SAME FILL-ORIGIN LEVEL: 0 DIFFERENT FILL-ORIGIN LEVEL: 0
L1I AVERAGE MISS LATENCY: 16.4775 cycles
L1I RQ	ACCESS:   58629220	FORWARD:          0	MERGED:   17775452	TO_CACHE:   40853768

BTB TOTAL     ACCESS:   30413089  HIT:   18271054  MISS:   12142035  HIT %:    60.0763  MISS %:    39.9237   MPKI: 60.7102
BTB BRANCH_DIRECT_JUMP	ACCESS:    2033451  HIT:    1204611  MISS:     828840
BTB BRANCH_INDIRECT	ACCESS:   12129859  HIT:    7449972  MISS:    4679887
BTB BRANCH_CONDITIONAL	ACCESS:    7365128  HIT:    6117133  MISS:    1247995
BTB BRANCH_DIRECT_CALL	ACCESS:    3753650  HIT:    1796881  MISS:    1956769
BTB BRANCH_INDIRECT_CALL	ACCESS:     688651  HIT:     311222  MISS:     377429
BTB BRANCH_RETURN	ACCESS:    4442350  HIT:    1391235  MISS:    3051115
BTB BRANCH_OTHER ACCESS:          0  HIT:          0  MISS:          0

L2C TOTAL     ACCESS:   15997827  HIT:   14629522  MISS:    1368305  HIT %:    91.4469  MISS %:    8.55307   MPKI: 6.84152
L2C LOAD      ACCESS:   12563533  HIT:   11505967  MISS:    1057566  HIT %:    91.5823  MISS %:    8.41774   MPKI: 5.28783
L2C DATA LOAD MPKI: 1.39022
L2C INSTRUCTION LOAD MPKI: 3.8976
L2C RFO       ACCESS:    1049994  HIT:     864668  MISS:     185326  HIT %:    82.3498  MISS %:    17.6502   MPKI: 0.92663
L2C PREFETCH  ACCESS:     502086  HIT:     444255  MISS:      57831  HIT %:    88.4819  MISS %:    11.5181   MPKI: 0.289155
L2C DATA PREFETCH MPKI: 0.289155
L2C INSTRUCTION PREFETCH MPKI: 0
L2C WRITEBACK ACCESS:    1859298  HIT:    1798666  MISS:      60632  HIT %:     96.739  MISS %:    3.26102   MPKI: 0.30316
L2C LOAD TRANSLATION ACCESS:       9426  HIT:       2730  MISS:       6696  HIT %:    28.9624  MISS %:    71.0376   MPKI: 0.03348
L2C TRANSLATION FROM L1D PREFETCHER ACCESS:      13490  HIT:      13236  MISS:        254  HIT %:    98.1171  MISS %:    1.88288   MPKI: 0.00127
L2C PREFETCH  REQUESTED:          0  ISSUED:          0  USEFUL:       8104  USELESS:      49885
L2C USEFUL LOAD PREFETCHES:       8104 PREFETCH ISSUED TO LOWER LEVEL:      59088  ACCURACY: 13.7151
L2C TIMELY PREFETCHES:       8104 LATE PREFETCHES: 1257 DROPPED PREFETCHES: 0
L2C PREFETCHES SAME FILL-ORIGIN LEVEL: 52313 DIFFERENT FILL-ORIGIN LEVEL: 0
L2C AVERAGE MISS LATENCY: 39.3896 cycles
L2C RQ	ACCESS:   13636444	FORWARD:          0	MERGED:          0	TO_CACHE:   13636443
L2C WQ	ACCESS:    1859298	FORWARD:          1	MERGED:          0	TO_CACHE:    1859298
L2C PQ	ACCESS:     522688	FORWARD:          0	MERGED:        480	TO_CACHE:     522208

L2C Instructions Evicting Data 292548
L2C Translations Evicting Data 3956
L2C Data Evicting Data 260257
L2C Instructions Evicting Instructions 484037
L2C Translations Evicting Instructions 2920
L2C Data Evicting Instructions 257135
L2C Instructions Evicting Translations 2936
L2C Translations Evicting Translations 74
L2C Data Evicting Translations 3810
L2C Dense regions hint from L2: 0
PSCL5 TOTAL     ACCESS:      15237  HIT:      15237  MISS:          0  HIT %:        100  MISS %:          0   MPKI: 0
PSCL5 LOAD TRANSLATION ACCESS:       8762  HIT:       8762  MISS:          0  HIT %:        100  MISS %:          0   MPKI: 0
PSCL5 TRANSLATION FROM L1D PREFETCHER ACCESS:       6475  HIT:       6475  MISS:          0  HIT %:        100  MISS %:          0   MPKI: 0
PSCL5 PREFETCH  REQUESTED:          0  ISSUED:          0  USEFUL:          0  USELESS:          0
PSCL5 USEFUL LOAD PREFETCHES:          0 PREFETCH ISSUED TO LOWER LEVEL:          0  ACCURACY: -nan
PSCL5 TIMELY PREFETCHES:          0 LATE PREFETCHES: 0 DROPPED PREFETCHES: 0
PSCL5 PREFETCHES SAME FILL-ORIGIN LEVEL: 0 DIFFERENT FILL-ORIGIN LEVEL: 0

PSCL4 TOTAL     ACCESS:      10052  HIT:      10001  MISS:         51  HIT %:    99.4926  MISS %:   0.507362   MPKI: 0.000255
PSCL4 LOAD TRANSLATION ACCESS:       5805  HIT:       5754  MISS:         51  HIT %:    99.1214  MISS %:   0.878553   MPKI: 0.000255
PSCL4 TRANSLATION FROM L1D PREFETCHER ACCESS:       4247  HIT:       4247  MISS:          0  HIT %:        100  MISS %:          0   MPKI: 0
PSCL4 PREFETCH  REQUESTED:          0  ISSUED:          0  USEFUL:          0  USELESS:          0
PSCL4 USEFUL LOAD PREFETCHES:          0 PREFETCH ISSUED TO LOWER LEVEL:          0  ACCURACY: -nan
PSCL4 TIMELY PREFETCHES:          0 LATE PREFETCHES: 0 DROPPED PREFETCHES: 0
PSCL4 PREFETCHES SAME FILL-ORIGIN LEVEL: 0 DIFFERENT FILL-ORIGIN LEVEL: 0

PSCL3 TOTAL     ACCESS:      13616  HIT:      13527  MISS:         89  HIT %:    99.3464  MISS %:   0.653643   MPKI: 0.000445
PSCL3 LOAD TRANSLATION ACCESS:       7698  HIT:       7609  MISS:         89  HIT %:    98.8439  MISS %:    1.15614   MPKI: 0.000445
PSCL3 TRANSLATION FROM L1D PREFETCHER ACCESS:       5918  HIT:       5918  MISS:          0  HIT %:        100  MISS %:          0   MPKI: 0
PSCL3 PREFETCH  REQUESTED:          0  ISSUED:          0  USEFUL:          0  USELESS:          0
PSCL3 USEFUL LOAD PREFETCHES:          0 PREFETCH ISSUED TO LOWER LEVEL:          0  ACCURACY: -nan
PSCL3 TIMELY PREFETCHES:          0 LATE PREFETCHES: 0 DROPPED PREFETCHES: 0
PSCL3 PREFETCHES SAME FILL-ORIGIN LEVEL: 0 DIFFERENT FILL-ORIGIN LEVEL: 0

PSCL2 TOTAL     ACCESS:       9096  HIT:       8566  MISS:        530  HIT %:    94.1733  MISS %:    5.82674   MPKI: 0.00265
PSCL2 LOAD TRANSLATION ACCESS:       8764  HIT:       8234  MISS:        530  HIT %:    93.9525  MISS %:    6.04747   MPKI: 0.00265
PSCL2 TRANSLATION FROM L1D PREFETCHER ACCESS:        332  HIT:        332  MISS:          0  HIT %:        100  MISS %:          0   MPKI: 0
PSCL2 PREFETCH  REQUESTED:          0  ISSUED:          0  USEFUL:          0  USELESS:          0
PSCL2 USEFUL LOAD PREFETCHES:          0 PREFETCH ISSUED TO LOWER LEVEL:          0  ACCURACY: -nan
PSCL2 TIMELY PREFETCHES:          0 LATE PREFETCHES: 0 DROPPED PREFETCHES: 0
PSCL2 PREFETCHES SAME FILL-ORIGIN LEVEL: 0 DIFFERENT FILL-ORIGIN LEVEL: 0

LLC TOTAL     ACCESS:    1560407  HIT:    1475490  MISS:      84917  HIT %:     94.558  MISS %:    5.44198   MPKI: 0.424585
LLC LOAD      ACCESS:    1056309  HIT:    1024384  MISS:      31925  HIT %:    96.9777  MISS %:    3.02232   MPKI: 0.159625
LLC RFO       ACCESS:     185324  HIT:     143479  MISS:      41845  HIT %:    77.4206  MISS %:    22.5794   MPKI: 0.209225
LLC PREFETCH  ACCESS:      59087  HIT:      49163  MISS:       9924  HIT %:    83.2044  MISS %:    16.7956   MPKI: 0.04962
LLC WRITEBACK ACCESS:     252737  HIT:     251864  MISS:        873  HIT %:    99.6546  MISS %:   0.345418   MPKI: 0.004365
LLC LOAD TRANSLATION ACCESS:       6696  HIT:       6356  MISS:        340  HIT %:    94.9223  MISS %:    5.07766   MPKI: 0.0017
LLC TRANSLATION FROM L1D PREFETCHER ACCESS:        254  HIT:        244  MISS:         10  HIT %:     96.063  MISS %:    3.93701   MPKI: 5e-05
LLC PREFETCH  REQUESTED:          0  ISSUED:          0  USEFUL:        978  USELESS:       9713
LLC USEFUL LOAD PREFETCHES:        978 PREFETCH ISSUED TO LOWER LEVEL:       9924  ACCURACY: 9.8549
LLC TIMELY PREFETCHES:        978 LATE PREFETCHES: 0 DROPPED PREFETCHES: 0
LLC PREFETCHES SAME FILL-ORIGIN LEVEL: 0 DIFFERENT FILL-ORIGIN LEVEL: 0
LLC AVERAGE MISS LATENCY: 173.404 cycles
LLC RQ	ACCESS:    1248585	FORWARD:          0	MERGED:          0	TO_CACHE:    1248583
LLC WQ	ACCESS:     252737	FORWARD:          3	MERGED:          0	TO_CACHE:     252737
LLC PQ	ACCESS:      59088	FORWARD:          0	MERGED:          0	TO_CACHE:      59087

LLC Dense regions hint to LLC: 0

RAW hits: 1814546
Loads Generated: 49042988
Loads sent to L1D: 47228440
Stores Generated: 26938645
Stores sent to L1D: 26938645
Major fault: 0 Minor fault: 2563
Allocated PAGES: 2563

DRAM Statistics
 CHANNEL 0
 RQ ROW_BUFFER_HIT:      32214  ROW_BUFFER_MISS:      51791
 DBUS_CONGESTED:         27
 WQ ROW_BUFFER_HIT:       4097  ROW_BUFFER_MISS:      40015  FULL:          0

 AVG_CONGESTED_CYCLE: 4
 All warmup complete: 2
Channel 0 Bank busy for read cycles: 0
Channel 0 Bank busy for write cycles: 0
Channel 0
Rank 0
0banks busy for read cycles: 612650528
0banks busy for write cycles: 9963
1banks busy for read cycles: 2095070
1banks busy for write cycles: 1204890
2banks busy for read cycles: 388966
2banks busy for write cycles: 284687
3banks busy for read cycles: 254226
3banks busy for write cycles: 167433
4banks busy for read cycles: 203956
4banks busy for write cycles: 140617
5banks busy for read cycles: 166098
5banks busy for write cycles: 124165
6banks busy for read cycles: 150746
6banks busy for write cycles: 119177
7banks busy for read cycles: 151956
7banks busy for write cycles: 128508
8banks busy for read cycles: 276277
8banks busy for write cycles: 272075

CPU 0 Branch Prediction Accuracy: 99.8625% MPKI: 0.24407 Average ROB Occupancy at Mispredict: 29.8346
Branch types
NOT_BRANCH: 164508663 82.2543%
BRANCH_DIRECT_JUMP: 2033451 1.01673%
BRANCH_INDIRECT: 12129859 6.06493%
BRANCH_CONDITIONAL: 12443472 6.22174%
BRANCH_DIRECT_CALL: 3753650 1.87682%
BRANCH_INDIRECT_CALL: 688651 0.344325%
BRANCH_RETURN: 4442350 2.22117%
BRANCH_OTHER: 0 0%

DRAM PAGES: 1048576
Allocated PAGES: 2563
