
*** ChampSim Multicore Out-of-Order Simulator ***

Warmup Instructions: 50000000
Simulation Instructions: 200000000
Number of CPUs: 1
LLC sets: 2048
LLC ways: 16
Off-chip DRAM Size: 4096 MB Channels: 1 Width: 64-bit Data Rate: 6400 MT/s
CPU 0 runs traces/spec2k17/server_027.champsimtrace.xz
.xz
BTB has LRU replacement policy
ITLB has LRU replacement policy
DTLB has LRU replacement policy
STLB has LRU replacement policy
L1I has LRU replacement policy
History Sets: 8
History Ways: 16
BERTI Size: 16
BERTI Stride Size: 16
L1D has LRU replacement policy
Initialize SRRIP state for L2C
Initialize DRRIP state for LLC
Heartbeat CPU 0 instructions: 10000000 cycles: 2818237 heartbeat IPC: 3.54832 cumulative IPC: 3.54832 (Simulation time: 0 hr 0 min 42 sec) 
Heartbeat CPU 0 instructions: 20000003 cycles: 5634010 heartbeat IPC: 3.55142 cumulative IPC: 3.54987 (Simulation time: 0 hr 1 min 23 sec) 
Heartbeat CPU 0 instructions: 30000001 cycles: 8447122 heartbeat IPC: 3.55478 cumulative IPC: 3.55151 (Simulation time: 0 hr 2 min 2 sec) 
Heartbeat CPU 0 instructions: 40000002 cycles: 11259720 heartbeat IPC: 3.55543 cumulative IPC: 3.55249 (Simulation time: 0 hr 2 min 44 sec) 
Heartbeat CPU 0 instructions: 50000002 cycles: 14072397 heartbeat IPC: 3.55533 cumulative IPC: 3.55306 (Simulation time: 0 hr 3 min 25 sec) 

Warmup complete CPU 0 instructions: 50000002 cycles: 14072397 (Simulation time: 0 hr 3 min 25 sec) 

Heartbeat CPU 0 instructions: 60000001 cycles: 46180974 heartbeat IPC: 0.311443 cumulative IPC: 0.311443 (Simulation time: 0 hr 4 min 26 sec) 
Heartbeat CPU 0 instructions: 70000000 cycles: 78095456 heartbeat IPC: 0.313337 cumulative IPC: 0.312387 (Simulation time: 0 hr 5 min 22 sec) 
Heartbeat CPU 0 instructions: 80000001 cycles: 110026346 heartbeat IPC: 0.313176 cumulative IPC: 0.31265 (Simulation time: 0 hr 6 min 21 sec) 
Heartbeat CPU 0 instructions: 90000001 cycles: 142237342 heartbeat IPC: 0.310453 cumulative IPC: 0.312098 (Simulation time: 0 hr 7 min 27 sec) 
Heartbeat CPU 0 instructions: 100000000 cycles: 174168461 heartbeat IPC: 0.313174 cumulative IPC: 0.312312 (Simulation time: 0 hr 8 min 26 sec) 
*** Reached end of trace for Core: 0 Repeating trace: traces/spec2k17/server_027.champsimtrace.xz
Heartbeat CPU 0 instructions: 110000000 cycles: 206066788 heartbeat IPC: 0.313496 cumulative IPC: 0.312509 (Simulation time: 0 hr 9 min 29 sec) 
Heartbeat CPU 0 instructions: 120000001 cycles: 237899153 heartbeat IPC: 0.314146 cumulative IPC: 0.312742 (Simulation time: 0 hr 10 min 32 sec) 
Heartbeat CPU 0 instructions: 130000000 cycles: 269957409 heartbeat IPC: 0.311932 cumulative IPC: 0.31264 (Simulation time: 0 hr 11 min 34 sec) 
Heartbeat CPU 0 instructions: 140000003 cycles: 301921673 heartbeat IPC: 0.312849 cumulative IPC: 0.312664 (Simulation time: 0 hr 12 min 37 sec) 
Heartbeat CPU 0 instructions: 150000001 cycles: 333848777 heartbeat IPC: 0.313213 cumulative IPC: 0.312719 (Simulation time: 0 hr 13 min 33 sec) 
Heartbeat CPU 0 instructions: 160000000 cycles: 365725304 heartbeat IPC: 0.31371 cumulative IPC: 0.312808 (Simulation time: 0 hr 14 min 38 sec) 
Heartbeat CPU 0 instructions: 170000000 cycles: 397778993 heartbeat IPC: 0.311977 cumulative IPC: 0.312739 (Simulation time: 0 hr 15 min 35 sec) 
Heartbeat CPU 0 instructions: 180000000 cycles: 429640919 heartbeat IPC: 0.313854 cumulative IPC: 0.312824 (Simulation time: 0 hr 16 min 40 sec) 
Heartbeat CPU 0 instructions: 190000001 cycles: 461631330 heartbeat IPC: 0.312594 cumulative IPC: 0.312808 (Simulation time: 0 hr 17 min 41 sec) 
Heartbeat CPU 0 instructions: 200000001 cycles: 493735391 heartbeat IPC: 0.311487 cumulative IPC: 0.31272 (Simulation time: 0 hr 18 min 44 sec) 
*** Reached end of trace for Core: 0 Repeating trace: traces/spec2k17/server_027.champsimtrace.xz
Heartbeat CPU 0 instructions: 210000000 cycles: 525521966 heartbeat IPC: 0.314598 cumulative IPC: 0.312836 (Simulation time: 0 hr 19 min 46 sec) 
Heartbeat CPU 0 instructions: 220000000 cycles: 557359790 heartbeat IPC: 0.314092 cumulative IPC: 0.31291 (Simulation time: 0 hr 20 min 45 sec) 
Heartbeat CPU 0 instructions: 230000000 cycles: 589431364 heartbeat IPC: 0.311803 cumulative IPC: 0.312848 (Simulation time: 0 hr 21 min 47 sec) 
Heartbeat CPU 0 instructions: 240000001 cycles: 621300241 heartbeat IPC: 0.313786 cumulative IPC: 0.312897 (Simulation time: 0 hr 22 min 44 sec) 
Heartbeat CPU 0 instructions: 250000000 cycles: 653171545 heartbeat IPC: 0.313762 cumulative IPC: 0.31294 (Simulation time: 0 hr 23 min 36 sec) 
Finished CPU 0 instructions: 200000002 cycles: 639099174 cumulative IPC: 0.31294 (Simulation time: 0 hr 23 min 36 sec) 

ChampSim completed all CPUs

Region of Interest Statistics

CPU 0 cumulative IPC: 0.31294 instructions: 200000002 cycles: 639099174
ITLB TOTAL     ACCESS:   34667629  HIT:   32642684  MISS:    2024945  HIT %:     94.159  MISS %:    5.84103   MPKI: 10.1247
ITLB LOAD TRANSLATION ACCESS:   34667629  HIT:   32642684  MISS:    2024945  HIT %:     94.159  MISS %:    5.84103   MPKI: 10.1247
ITLB PREFETCH  REQUESTED:          0  ISSUED:          0  USEFUL:          0  USELESS:          0
ITLB USEFUL LOAD PREFETCHES:          0 PREFETCH ISSUED TO LOWER LEVEL:          0  ACCURACY: -nan
ITLB TIMELY PREFETCHES:          0 LATE PREFETCHES: 0 DROPPED PREFETCHES: 0
ITLB PREFETCHES SAME FILL-ORIGIN LEVEL: 0 DIFFERENT FILL-ORIGIN LEVEL: 0
ITLB AVERAGE MISS LATENCY: 9.03907 cycles
ITLB RQ	ACCESS:   40885586	FORWARD:          0	MERGED:    5734172	TO_CACHE:   35151414

DTLB TOTAL     ACCESS:   46423786  HIT:   44597889  MISS:    1825897  HIT %:    96.0669  MISS %:    3.93311   MPKI: 9.12948
DTLB LOAD TRANSLATION ACCESS:   46423786  HIT:   44597889  MISS:    1825897  HIT %:    96.0669  MISS %:    3.93311   MPKI: 9.12948
DTLB PREFETCH  REQUESTED:          0  ISSUED:          0  USEFUL:          0  USELESS:          0
DTLB USEFUL LOAD PREFETCHES:          0 PREFETCH ISSUED TO LOWER LEVEL:          0  ACCURACY: -nan
DTLB TIMELY PREFETCHES:          0 LATE PREFETCHES: 0 DROPPED PREFETCHES: 0
DTLB PREFETCHES SAME FILL-ORIGIN LEVEL: 0 DIFFERENT FILL-ORIGIN LEVEL: 0
DTLB AVERAGE MISS LATENCY: 9.2254 cycles
DTLB RQ	ACCESS:   61078088	FORWARD:          0	MERGED:   14587612	TO_CACHE:   46490476

STLB TOTAL     ACCESS:    4052958  HIT:    4044614  MISS:       8344  HIT %:    99.7941  MISS %:   0.205874   MPKI: 0.04172
STLB LOAD TRANSLATION ACCESS:    3850842  HIT:    3842710  MISS:       8132  HIT %:    99.7888  MISS %:   0.211175   MPKI: 0.04066
STLB TRANSLATION FROM L1D PREFETCHER ACCESS:     202116  HIT:     201904  MISS:        212  HIT %:    99.8951  MISS %:    0.10489   MPKI: 0.00106
STLB PREFETCH  REQUESTED:          0  ISSUED:          0  USEFUL:        177  USELESS:         33
STLB USEFUL LOAD PREFETCHES:        177 PREFETCH ISSUED TO LOWER LEVEL:          0  ACCURACY: inf
STLB TIMELY PREFETCHES:        177 LATE PREFETCHES: 2 DROPPED PREFETCHES: 368
STLB PREFETCHES SAME FILL-ORIGIN LEVEL: 0 DIFFERENT FILL-ORIGIN LEVEL: 0
STLB AVERAGE MISS LATENCY: 56.8425 cycles
STLB RQ	ACCESS:    5101491	FORWARD:          0	MERGED:    1047855	TO_CACHE:    4053636

STLB Hit, L1D data hit: 0
STLB Hit, L2C data hit: 0
STLB Hit, LLC data hit: 0
STLB Hit, LLC data miss: 0
STLB STLB hints to L2: 0
L1D TOTAL     ACCESS:   59852915  HIT:   55856583  MISS:    3996332  HIT %:    93.3231  MISS %:    6.67692   MPKI: 19.9817
L1D LOAD      ACCESS:   34204695  HIT:   31448380  MISS:    2756315  HIT %:    91.9417  MISS %:    8.05829   MPKI: 13.7816
L1D RFO       ACCESS:   25016603  HIT:   23895819  MISS:    1120784  HIT %:    95.5198  MISS %:    4.48016   MPKI: 5.60392
L1D PREFETCH  ACCESS:     631617  HIT:     512384  MISS:     119233  HIT %:    81.1226  MISS %:    18.8774   MPKI: 0.596165
L1D PREFETCH  REQUESTED:    2765133  ISSUED:    2743613  USEFUL:      63425  USELESS:      55811
L1D USEFUL LOAD PREFETCHES:      63425 PREFETCH ISSUED TO LOWER LEVEL:     720425  ACCURACY: 8.80383
L1D TIMELY PREFETCHES:      63425 LATE PREFETCHES: 9255 DROPPED PREFETCHES: 857
L1D PREFETCHES SAME FILL-ORIGIN LEVEL: 128488 DIFFERENT FILL-ORIGIN LEVEL: 591937
L1D AVERAGE MISS LATENCY: 22.1771 cycles
L1D RQ	ACCESS:   47477465	FORWARD:          0	MERGED:   12851116	TO_CACHE:   34327837
L1D WQ	ACCESS:   26918036	FORWARD:     298512	MERGED:     167785	TO_CACHE:   26750251
L1D PQ	ACCESS:    1492964	FORWARD:          0	MERGED:     242315	TO_CACHE:    1250649

L1D UNIQUE REGIONS ACCESSED: 0
L1D REGIONS CONFLICTS: 0
L1D Cross Page Prefetch Requests: 177301
L1D Same Page Prefetch Requests: 1695055
L1D ROI Sum of L1D PQ occupancy: 20366336
L1D PREFETCHES PUSHED FROM L2C: 0
L1I TOTAL     ACCESS:   39381983  HIT:   28805511  MISS:   10576472  HIT %:    73.1439  MISS %:    26.8561   MPKI: 52.8824
L1I LOAD      ACCESS:   39381983  HIT:   28805511  MISS:   10576472  HIT %:    73.1439  MISS %:    26.8561   MPKI: 52.8824
L1I PREFETCH  REQUESTED:          0  ISSUED:          0  USEFUL:          0  USELESS:          0
L1I USEFUL LOAD PREFETCHES:          0 PREFETCH ISSUED TO LOWER LEVEL:          0  ACCURACY: -nan
L1I TIMELY PREFETCHES:          0 LATE PREFETCHES: 0 DROPPED PREFETCHES: 0
L1I PREFETCHES SAME FILL-ORIGIN LEVEL: 0 DIFFERENT FILL-ORIGIN LEVEL: 0
L1I AVERAGE MISS LATENCY: 16.3073 cycles
L1I RQ	ACCESS:   57940373	FORWARD:          0	MERGED:   17054787	TO_CACHE:   40885586

BTB TOTAL     ACCESS:   30075438  HIT:   17377784  MISS:   12697654  HIT %:    57.7807  MISS %:    42.2193   MPKI: 63.4883
BTB BRANCH_DIRECT_JUMP	ACCESS:    2026968  HIT:    1138640  MISS:     888328
BTB BRANCH_INDIRECT	ACCESS:   11863620  HIT:    7044030  MISS:    4819590
BTB BRANCH_CONDITIONAL	ACCESS:    7648131  HIT:    6314456  MISS:    1333675
BTB BRANCH_DIRECT_CALL	ACCESS:    3599197  HIT:    1507522  MISS:    2091675
BTB BRANCH_INDIRECT_CALL	ACCESS:     669164  HIT:     263401  MISS:     405763
BTB BRANCH_RETURN	ACCESS:    4268358  HIT:    1109735  MISS:    3158623
BTB BRANCH_OTHER ACCESS:          0  HIT:          0  MISS:          0

L2C TOTAL     ACCESS:   17105965  HIT:   15739864  MISS:    1366101  HIT %:    92.0139  MISS %:    7.98611   MPKI: 6.8305
L2C LOAD      ACCESS:   13323532  HIT:   12251818  MISS:    1071714  HIT %:    91.9562  MISS %:    8.04377   MPKI: 5.35857
L2C DATA LOAD MPKI: 1.51973
L2C INSTRUCTION LOAD MPKI: 3.83884
L2C RFO       ACCESS:    1120784  HIT:     951570  MISS:     169214  HIT %:    84.9022  MISS %:    15.0978   MPKI: 0.84607
L2C PREFETCH  ACCESS:     694969  HIT:     621577  MISS:      73392  HIT %:    89.4395  MISS %:    10.5605   MPKI: 0.36696
L2C DATA PREFETCH MPKI: 0.36696
L2C INSTRUCTION PREFETCH MPKI: 0
L2C WRITEBACK ACCESS:    1957156  HIT:    1911803  MISS:      45353  HIT %:    97.6827  MISS %:    2.31729   MPKI: 0.226765
L2C LOAD TRANSLATION ACCESS:       8736  HIT:       2644  MISS:       6092  HIT %:    30.2656  MISS %:    69.7344   MPKI: 0.03046
L2C TRANSLATION FROM L1D PREFETCHER ACCESS:        788  HIT:        452  MISS:        336  HIT %:    57.3604  MISS %:    42.6396   MPKI: 0.00168
L2C PREFETCH  REQUESTED:          0  ISSUED:          0  USEFUL:       9660  USELESS:      64067
L2C USEFUL LOAD PREFETCHES:       9660 PREFETCH ISSUED TO LOWER LEVEL:      75579  ACCURACY: 12.7813
L2C TIMELY PREFETCHES:       9660 LATE PREFETCHES: 2187 DROPPED PREFETCHES: 0
L2C PREFETCHES SAME FILL-ORIGIN LEVEL: 63022 DIFFERENT FILL-ORIGIN LEVEL: 0
L2C AVERAGE MISS LATENCY: 41.0494 cycles
L2C RQ	ACCESS:   14453840	FORWARD:          0	MERGED:          0	TO_CACHE:   14453840
L2C WQ	ACCESS:    1957156	FORWARD:          0	MERGED:          0	TO_CACHE:    1957156
L2C PQ	ACCESS:     720425	FORWARD:          0	MERGED:        882	TO_CACHE:     719543

L2C Instructions Evicting Data 293022
L2C Translations Evicting Data 4278
L2C Data Evicting Data 276191
L2C Instructions Evicting Instructions 472776
L2C Translations Evicting Instructions 2049
L2C Data Evicting Instructions 266061
L2C Instructions Evicting Translations 1970
L2C Translations Evicting Translations 101
L2C Data Evicting Translations 4300
L2C Dense regions hint from L2: 0
PSCL5 TOTAL     ACCESS:       8712  HIT:       8712  MISS:          0  HIT %:        100  MISS %:          0   MPKI: 0
PSCL5 LOAD TRANSLATION ACCESS:       8130  HIT:       8130  MISS:          0  HIT %:        100  MISS %:          0   MPKI: 0
PSCL5 TRANSLATION FROM L1D PREFETCHER ACCESS:        582  HIT:        582  MISS:          0  HIT %:        100  MISS %:          0   MPKI: 0
PSCL5 PREFETCH  REQUESTED:          0  ISSUED:          0  USEFUL:          0  USELESS:          0
PSCL5 USEFUL LOAD PREFETCHES:          0 PREFETCH ISSUED TO LOWER LEVEL:          0  ACCURACY: -nan
PSCL5 TIMELY PREFETCHES:          0 LATE PREFETCHES: 0 DROPPED PREFETCHES: 0
PSCL5 PREFETCHES SAME FILL-ORIGIN LEVEL: 0 DIFFERENT FILL-ORIGIN LEVEL: 0

PSCL4 TOTAL     ACCESS:       7397  HIT:       7332  MISS:         65  HIT %:    99.1213  MISS %:   0.878735   MPKI: 0.000325
PSCL4 LOAD TRANSLATION ACCESS:       6887  HIT:       6822  MISS:         65  HIT %:    99.0562  MISS %:   0.943807   MPKI: 0.000325
PSCL4 TRANSLATION FROM L1D PREFETCHER ACCESS:        510  HIT:        510  MISS:          0  HIT %:        100  MISS %:          0   MPKI: 0
PSCL4 PREFETCH  REQUESTED:          0  ISSUED:          0  USEFUL:          0  USELESS:          0
PSCL4 USEFUL LOAD PREFETCHES:          0 PREFETCH ISSUED TO LOWER LEVEL:          0  ACCURACY: -nan
PSCL4 TIMELY PREFETCHES:          0 LATE PREFETCHES: 0 DROPPED PREFETCHES: 0
PSCL4 PREFETCHES SAME FILL-ORIGIN LEVEL: 0 DIFFERENT FILL-ORIGIN LEVEL: 0

PSCL3 TOTAL     ACCESS:       7558  HIT:       7493  MISS:         65  HIT %:      99.14  MISS %:   0.860016   MPKI: 0.000325
PSCL3 LOAD TRANSLATION ACCESS:       7029  HIT:       6964  MISS:         65  HIT %:    99.0753  MISS %:    0.92474   MPKI: 0.000325
PSCL3 TRANSLATION FROM L1D PREFETCHER ACCESS:        529  HIT:        529  MISS:          0  HIT %:        100  MISS %:          0   MPKI: 0
PSCL3 PREFETCH  REQUESTED:          0  ISSUED:          0  USEFUL:          0  USELESS:          0
PSCL3 USEFUL LOAD PREFETCHES:          0 PREFETCH ISSUED TO LOWER LEVEL:          0  ACCURACY: -nan
PSCL3 TIMELY PREFETCHES:          0 LATE PREFETCHES: 0 DROPPED PREFETCHES: 0
PSCL3 PREFETCHES SAME FILL-ORIGIN LEVEL: 0 DIFFERENT FILL-ORIGIN LEVEL: 0

PSCL2 TOTAL     ACCESS:       8530  HIT:       8050  MISS:        480  HIT %:    94.3728  MISS %:     5.6272   MPKI: 0.0024
PSCL2 LOAD TRANSLATION ACCESS:       8130  HIT:       7650  MISS:        480  HIT %:    94.0959  MISS %:    5.90406   MPKI: 0.0024
PSCL2 TRANSLATION FROM L1D PREFETCHER ACCESS:        400  HIT:        400  MISS:          0  HIT %:        100  MISS %:          0   MPKI: 0
PSCL2 PREFETCH  REQUESTED:          0  ISSUED:          0  USEFUL:          0  USELESS:          0
PSCL2 USEFUL LOAD PREFETCHES:          0 PREFETCH ISSUED TO LOWER LEVEL:          0  ACCURACY: -nan
PSCL2 TIMELY PREFETCHES:          0 LATE PREFETCHES: 0 DROPPED PREFETCHES: 0
PSCL2 PREFETCHES SAME FILL-ORIGIN LEVEL: 0 DIFFERENT FILL-ORIGIN LEVEL: 0

LLC TOTAL     ACCESS:    1554450  HIT:    1460466  MISS:      93984  HIT %:    93.9539  MISS %:    6.04613   MPKI: 0.46992
LLC LOAD      ACCESS:    1069527  HIT:    1037319  MISS:      32208  HIT %:    96.9886  MISS %:    3.01142   MPKI: 0.16104
LLC RFO       ACCESS:     169214  HIT:     120043  MISS:      49171  HIT %:    70.9415  MISS %:    29.0585   MPKI: 0.245855
LLC PREFETCH  ACCESS:      75579  HIT:      64367  MISS:      11212  HIT %:    85.1652  MISS %:    14.8348   MPKI: 0.05606
LLC WRITEBACK ACCESS:     233702  HIT:     232725  MISS:        977  HIT %:    99.5819  MISS %:   0.418054   MPKI: 0.004885
LLC LOAD TRANSLATION ACCESS:       6092  HIT:       5688  MISS:        404  HIT %:    93.3684  MISS %:    6.63165   MPKI: 0.00202
LLC TRANSLATION FROM L1D PREFETCHER ACCESS:        336  HIT:        324  MISS:         12  HIT %:    96.4286  MISS %:    3.57143   MPKI: 6e-05
LLC PREFETCH  REQUESTED:          0  ISSUED:          0  USEFUL:       1188  USELESS:      11061
LLC USEFUL LOAD PREFETCHES:       1188 PREFETCH ISSUED TO LOWER LEVEL:      11212  ACCURACY: 10.5958
LLC TIMELY PREFETCHES:       1188 LATE PREFETCHES: 0 DROPPED PREFETCHES: 0
LLC PREFETCHES SAME FILL-ORIGIN LEVEL: 0 DIFFERENT FILL-ORIGIN LEVEL: 0
LLC AVERAGE MISS LATENCY: 175.832 cycles
LLC RQ	ACCESS:    1245169	FORWARD:          0	MERGED:          0	TO_CACHE:    1245169
LLC WQ	ACCESS:     233702	FORWARD:          0	MERGED:          0	TO_CACHE:     233702
LLC PQ	ACCESS:      75579	FORWARD:          0	MERGED:          0	TO_CACHE:      75579

LLC Dense regions hint to LLC: 0

RAW hits: 1433341
Loads Generated: 48910806
Loads sent to L1D: 47477465
Stores Generated: 26918028
Stores sent to L1D: 26918036
Major fault: 0 Minor fault: 2582
Allocated PAGES: 2582

DRAM Statistics
 CHANNEL 0
 RQ ROW_BUFFER_HIT:      35603  ROW_BUFFER_MISS:      57391
 DBUS_CONGESTED:         25
 WQ ROW_BUFFER_HIT:       4572  ROW_BUFFER_MISS:      47416  FULL:          0

 AVG_CONGESTED_CYCLE: 5
 All warmup complete: 2
Channel 0 Bank busy for read cycles: 0
Channel 0 Bank busy for write cycles: 0
Channel 0
Rank 0
0banks busy for read cycles: 632373125
0banks busy for write cycles: 11051
1banks busy for read cycles: 2215314
1banks busy for write cycles: 1326302
2banks busy for read cycles: 410501
2banks busy for write cycles: 306361
3banks busy for read cycles: 271617
3banks busy for write cycles: 191634
4banks busy for read cycles: 216591
4banks busy for write cycles: 151396
5banks busy for read cycles: 175328
5banks busy for write cycles: 138382
6banks busy for read cycles: 169936
6banks busy for write cycles: 144080
7banks busy for read cycles: 172164
7banks busy for write cycles: 156537
8banks busy for read cycles: 330654
8banks busy for write cycles: 338202

CPU 0 Branch Prediction Accuracy: 99.8608% MPKI: 0.244675 Average ROB Occupancy at Mispredict: 30.9001
Branch types
NOT_BRANCH: 164851252 82.4256%
BRANCH_DIRECT_JUMP: 2026968 1.01348%
BRANCH_INDIRECT: 11863620 5.93181%
BRANCH_CONDITIONAL: 12721079 6.36054%
BRANCH_DIRECT_CALL: 3599197 1.7996%
BRANCH_INDIRECT_CALL: 669164 0.334582%
BRANCH_RETURN: 4268358 2.13418%
BRANCH_OTHER: 0 0%

DRAM PAGES: 1048576
Allocated PAGES: 2582
