
*** ChampSim Multicore Out-of-Order Simulator ***

Warmup Instructions: 50000000
Simulation Instructions: 200000000
Number of CPUs: 1
LLC sets: 2048
LLC ways: 16
Off-chip DRAM Size: 4096 MB Channels: 1 Width: 64-bit Data Rate: 6400 MT/s
CPU 0 runs traces/spec2k17/server_003.champsimtrace.xz
.xz
BTB has LRU replacement policy
ITLB has LRU replacement policy
DTLB has LRU replacement policy
STLB has LRU replacement policy
L1I has LRU replacement policy
History Sets: 8
History Ways: 16
BERTI Size: 16
BERTI Stride Size: 16
L1D has LRU replacement policy
Initialize SRRIP state for L2C
Initialize DRRIP state for LLC
Heartbeat CPU 0 instructions: 10000001 cycles: 2786016 heartbeat IPC: 3.58936 cumulative IPC: 3.58936 (Simulation time: 0 hr 0 min 39 sec) 
Heartbeat CPU 0 instructions: 20000000 cycles: 5598427 heartbeat IPC: 3.55567 cumulative IPC: 3.57243 (Simulation time: 0 hr 1 min 21 sec) 
Heartbeat CPU 0 instructions: 30000000 cycles: 8376716 heartbeat IPC: 3.59934 cumulative IPC: 3.58136 (Simulation time: 0 hr 2 min 3 sec) 
Heartbeat CPU 0 instructions: 40000001 cycles: 11187041 heartbeat IPC: 3.55831 cumulative IPC: 3.57557 (Simulation time: 0 hr 2 min 47 sec) 
Heartbeat CPU 0 instructions: 50000002 cycles: 14132702 heartbeat IPC: 3.39482 cumulative IPC: 3.53789 (Simulation time: 0 hr 3 min 34 sec) 

Warmup complete CPU 0 instructions: 50000002 cycles: 14132702 (Simulation time: 0 hr 3 min 34 sec) 

Heartbeat CPU 0 instructions: 60000000 cycles: 44538309 heartbeat IPC: 0.328887 cumulative IPC: 0.328887 (Simulation time: 0 hr 4 min 39 sec) 
Heartbeat CPU 0 instructions: 70000001 cycles: 70537057 heartbeat IPC: 0.384634 cumulative IPC: 0.354583 (Simulation time: 0 hr 5 min 34 sec) 
Heartbeat CPU 0 instructions: 80000003 cycles: 98662126 heartbeat IPC: 0.355555 cumulative IPC: 0.354906 (Simulation time: 0 hr 6 min 28 sec) 
Heartbeat CPU 0 instructions: 90000000 cycles: 125812151 heartbeat IPC: 0.368324 cumulative IPC: 0.358168 (Simulation time: 0 hr 7 min 24 sec) 
Heartbeat CPU 0 instructions: 100000000 cycles: 153117979 heartbeat IPC: 0.366222 cumulative IPC: 0.35975 (Simulation time: 0 hr 8 min 20 sec) 
*** Reached end of trace for Core: 0 Repeating trace: traces/spec2k17/server_003.champsimtrace.xz
Heartbeat CPU 0 instructions: 110000000 cycles: 178452537 heartbeat IPC: 0.394718 cumulative IPC: 0.365142 (Simulation time: 0 hr 9 min 17 sec) 
Heartbeat CPU 0 instructions: 120000002 cycles: 207770658 heartbeat IPC: 0.341086 cumulative IPC: 0.361499 (Simulation time: 0 hr 10 min 12 sec) 
Heartbeat CPU 0 instructions: 130000001 cycles: 232317867 heartbeat IPC: 0.407378 cumulative IPC: 0.366661 (Simulation time: 0 hr 11 min 3 sec) 
Heartbeat CPU 0 instructions: 140000000 cycles: 258815089 heartbeat IPC: 0.377398 cumulative IPC: 0.367824 (Simulation time: 0 hr 12 min 0 sec) 
Heartbeat CPU 0 instructions: 150000002 cycles: 286070228 heartbeat IPC: 0.366903 cumulative IPC: 0.367732 (Simulation time: 0 hr 13 min 4 sec) 
Heartbeat CPU 0 instructions: 160000001 cycles: 316162908 heartbeat IPC: 0.332307 cumulative IPC: 0.364202 (Simulation time: 0 hr 14 min 1 sec) 
Heartbeat CPU 0 instructions: 170000001 cycles: 341846670 heartbeat IPC: 0.389351 cumulative IPC: 0.366173 (Simulation time: 0 hr 15 min 15 sec) 
Heartbeat CPU 0 instructions: 180000000 cycles: 370495141 heartbeat IPC: 0.349059 cumulative IPC: 0.364797 (Simulation time: 0 hr 16 min 12 sec) 
Heartbeat CPU 0 instructions: 190000002 cycles: 397409751 heartbeat IPC: 0.371545 cumulative IPC: 0.365271 (Simulation time: 0 hr 17 min 8 sec) 
Heartbeat CPU 0 instructions: 200000003 cycles: 424630416 heartbeat IPC: 0.367368 cumulative IPC: 0.36541 (Simulation time: 0 hr 17 min 59 sec) 
*** Reached end of trace for Core: 0 Repeating trace: traces/spec2k17/server_003.champsimtrace.xz
Heartbeat CPU 0 instructions: 210000003 cycles: 450383097 heartbeat IPC: 0.388309 cumulative IPC: 0.366762 (Simulation time: 0 hr 18 min 50 sec) 
Heartbeat CPU 0 instructions: 220000000 cycles: 477479401 heartbeat IPC: 0.369054 cumulative IPC: 0.366896 (Simulation time: 0 hr 19 min 48 sec) 
Heartbeat CPU 0 instructions: 230000001 cycles: 504187661 heartbeat IPC: 0.374416 cumulative IPC: 0.367306 (Simulation time: 0 hr 20 min 40 sec) 
Heartbeat CPU 0 instructions: 240000002 cycles: 528623684 heartbeat IPC: 0.409232 cumulative IPC: 0.369297 (Simulation time: 0 hr 21 min 31 sec) 
Heartbeat CPU 0 instructions: 250000002 cycles: 557696721 heartbeat IPC: 0.343961 cumulative IPC: 0.367942 (Simulation time: 0 hr 22 min 29 sec) 
Finished CPU 0 instructions: 200000000 cycles: 543564019 cumulative IPC: 0.367942 (Simulation time: 0 hr 22 min 29 sec) 

ChampSim completed all CPUs

Region of Interest Statistics

CPU 0 cumulative IPC: 0.367942 instructions: 200000000 cycles: 543564019
ITLB TOTAL     ACCESS:   33481301  HIT:   32856328  MISS:     624973  HIT %:    98.1334  MISS %:    1.86663   MPKI: 3.12486
ITLB LOAD TRANSLATION ACCESS:   33481301  HIT:   32856328  MISS:     624973  HIT %:    98.1334  MISS %:    1.86663   MPKI: 3.12486
ITLB PREFETCH  REQUESTED:          0  ISSUED:          0  USEFUL:          0  USELESS:          0
ITLB USEFUL LOAD PREFETCHES:          0 PREFETCH ISSUED TO LOWER LEVEL:          0  ACCURACY: -nan
ITLB TIMELY PREFETCHES:          0 LATE PREFETCHES: 0 DROPPED PREFETCHES: 0
ITLB PREFETCHES SAME FILL-ORIGIN LEVEL: 0 DIFFERENT FILL-ORIGIN LEVEL: 0
ITLB AVERAGE MISS LATENCY: 15.6341 cycles
ITLB RQ	ACCESS:   39700673	FORWARD:          0	MERGED:    6066729	TO_CACHE:   33633944

DTLB TOTAL     ACCESS:   41799865  HIT:   39934783  MISS:    1865082  HIT %:    95.5381  MISS %:    4.46193   MPKI: 9.32541
DTLB LOAD TRANSLATION ACCESS:   41799865  HIT:   39934783  MISS:    1865082  HIT %:    95.5381  MISS %:    4.46193   MPKI: 9.32541
DTLB PREFETCH  REQUESTED:          0  ISSUED:          0  USEFUL:          0  USELESS:          0
DTLB USEFUL LOAD PREFETCHES:          0 PREFETCH ISSUED TO LOWER LEVEL:          0  ACCURACY: -nan
DTLB TIMELY PREFETCHES:          0 LATE PREFETCHES: 0 DROPPED PREFETCHES: 0
DTLB PREFETCHES SAME FILL-ORIGIN LEVEL: 0 DIFFERENT FILL-ORIGIN LEVEL: 0
DTLB AVERAGE MISS LATENCY: 14.6488 cycles
DTLB RQ	ACCESS:   52548533	FORWARD:          0	MERGED:   10640841	TO_CACHE:   41907692

STLB TOTAL     ACCESS:    2906019  HIT:    2576324  MISS:     329695  HIT %:    88.6548  MISS %:    11.3452   MPKI: 1.64847
STLB LOAD TRANSLATION ACCESS:    2490055  HIT:    2161508  MISS:     328547  HIT %:    86.8056  MISS %:    13.1944   MPKI: 1.64274
STLB TRANSLATION FROM L1D PREFETCHER ACCESS:     415964  HIT:     414816  MISS:       1148  HIT %:     99.724  MISS %:   0.275985   MPKI: 0.00574
STLB PREFETCH  REQUESTED:          0  ISSUED:          0  USEFUL:       1053  USELESS:         93
STLB USEFUL LOAD PREFETCHES:       1053 PREFETCH ISSUED TO LOWER LEVEL:          0  ACCURACY: inf
STLB TIMELY PREFETCHES:       1053 LATE PREFETCHES: 4 DROPPED PREFETCHES: 8235
STLB PREFETCHES SAME FILL-ORIGIN LEVEL: 0 DIFFERENT FILL-ORIGIN LEVEL: 0
STLB AVERAGE MISS LATENCY: 44.4819 cycles
STLB RQ	ACCESS:    3737412	FORWARD:          0	MERGED:     822508	TO_CACHE:    2914904

STLB Hit, L1D data hit: 0
STLB Hit, L2C data hit: 0
STLB Hit, LLC data hit: 0
STLB Hit, LLC data miss: 0
STLB STLB hints to L2: 0
L1D TOTAL     ACCESS:   52451905  HIT:   49687425  MISS:    2764480  HIT %:    94.7295  MISS %:     5.2705   MPKI: 13.8224
L1D LOAD      ACCESS:   33196199  HIT:   30960910  MISS:    2235289  HIT %:    93.2664  MISS %:    6.73357   MPKI: 11.1764
L1D RFO       ACCESS:   18532669  HIT:   18060741  MISS:     471928  HIT %:    97.4535  MISS %:    2.54647   MPKI: 2.35964
L1D PREFETCH  ACCESS:     723037  HIT:     665774  MISS:      57263  HIT %:    92.0802  MISS %:    7.91979   MPKI: 0.286315
L1D PREFETCH  REQUESTED:    2770465  ISSUED:    2736961  USEFUL:      49747  USELESS:       7516
L1D USEFUL LOAD PREFETCHES:      49747 PREFETCH ISSUED TO LOWER LEVEL:     545373  ACCURACY: 9.12165
L1D TIMELY PREFETCHES:      49747 LATE PREFETCHES: 1185 DROPPED PREFETCHES: 14647
L1D PREFETCHES SAME FILL-ORIGIN LEVEL: 58452 DIFFERENT FILL-ORIGIN LEVEL: 486921
L1D AVERAGE MISS LATENCY: 54.1811 cycles
L1D RQ	ACCESS:   48958381	FORWARD:          0	MERGED:   15365161	TO_CACHE:   33363397
L1D WQ	ACCESS:   19494845	FORWARD:     229954	MERGED:     309709	TO_CACHE:   19185136
L1D PQ	ACCESS:    1489604	FORWARD:          0	MERGED:     242116	TO_CACHE:    1247357

L1D UNIQUE REGIONS ACCESSED: 0
L1D REGIONS CONFLICTS: 0
L1D Cross Page Prefetch Requests: 229659
L1D Same Page Prefetch Requests: 1718811
L1D ROI Sum of L1D PQ occupancy: 18419940
L1D PREFETCHES PUSHED FROM L2C: 0
L1I TOTAL     ACCESS:   38641263  HIT:   34799936  MISS:    3841327  HIT %:     90.059  MISS %:      9.941   MPKI: 19.2066
L1I LOAD      ACCESS:   38641263  HIT:   34799936  MISS:    3841327  HIT %:     90.059  MISS %:      9.941   MPKI: 19.2066
L1I PREFETCH  REQUESTED:          0  ISSUED:          0  USEFUL:          0  USELESS:          0
L1I USEFUL LOAD PREFETCHES:          0 PREFETCH ISSUED TO LOWER LEVEL:          0  ACCURACY: -nan
L1I TIMELY PREFETCHES:          0 LATE PREFETCHES: 0 DROPPED PREFETCHES: 0
L1I PREFETCHES SAME FILL-ORIGIN LEVEL: 0 DIFFERENT FILL-ORIGIN LEVEL: 0
L1I AVERAGE MISS LATENCY: 31.7496 cycles
L1I RQ	ACCESS:   59618722	FORWARD:          0	MERGED:   19918049	TO_CACHE:   39700673

BTB TOTAL     ACCESS:   28423782  HIT:   23262114  MISS:    5161668  HIT %:    81.8403  MISS %:    18.1597   MPKI: 25.8083
BTB BRANCH_DIRECT_JUMP	ACCESS:    1949370  HIT:    1719105  MISS:     230265
BTB BRANCH_INDIRECT	ACCESS:   10330683  HIT:    8220220  MISS:    2110463
BTB BRANCH_CONDITIONAL	ACCESS:    8250334  HIT:    7882121  MISS:     368213
BTB BRANCH_DIRECT_CALL	ACCESS:    2536633  HIT:    2099013  MISS:     437620
BTB BRANCH_INDIRECT_CALL	ACCESS:    1403932  HIT:     934159  MISS:     469773
BTB BRANCH_RETURN	ACCESS:    3952830  HIT:    2407496  MISS:    1545334
BTB BRANCH_OTHER ACCESS:          0  HIT:          0  MISS:          0

L2C TOTAL     ACCESS:    8487447  HIT:    5329890  MISS:    3157557  HIT %:    62.7973  MISS %:    37.2027   MPKI: 15.7878
L2C LOAD      ACCESS:    6075399  HIT:    3506492  MISS:    2568907  HIT %:    57.7162  MISS %:    42.2838   MPKI: 12.8445
L2C DATA LOAD MPKI: 4.90977
L2C INSTRUCTION LOAD MPKI: 7.93476
L2C RFO       ACCESS:     471912  HIT:     185969  MISS:     285943  HIT %:    39.4076  MISS %:    60.5924   MPKI: 1.42972
L2C PREFETCH  ACCESS:     519747  HIT:     415255  MISS:     104492  HIT %:    79.8956  MISS %:    20.1044   MPKI: 0.52246
L2C DATA PREFETCH MPKI: 0.52246
L2C INSTRUCTION PREFETCH MPKI: 0
L2C WRITEBACK ACCESS:     999937  HIT:     956481  MISS:      43456  HIT %:    95.6541  MISS %:    4.34587   MPKI: 0.21728
L2C LOAD TRANSLATION ACCESS:     410011  HIT:     255778  MISS:     154233  HIT %:    62.3832  MISS %:    37.6168   MPKI: 0.771165
L2C TRANSLATION FROM L1D PREFETCHER ACCESS:      10441  HIT:       9915  MISS:        526  HIT %:    94.9622  MISS %:    5.03783   MPKI: 0.00263
L2C PREFETCH  REQUESTED:          0  ISSUED:          0  USEFUL:      32604  USELESS:      72525
L2C USEFUL LOAD PREFETCHES:      32604 PREFETCH ISSUED TO LOWER LEVEL:     106327  ACCURACY: 30.6639
L2C TIMELY PREFETCHES:      32604 LATE PREFETCHES: 1835 DROPPED PREFETCHES: 0
L2C PREFETCHES SAME FILL-ORIGIN LEVEL: 95495 DIFFERENT FILL-ORIGIN LEVEL: 0
L2C AVERAGE MISS LATENCY: 60.2159 cycles
L2C RQ	ACCESS:    6967808	FORWARD:          0	MERGED:          0	TO_CACHE:    6967764
L2C WQ	ACCESS:     999937	FORWARD:         52	MERGED:          0	TO_CACHE:     999937
L2C PQ	ACCESS:     545371	FORWARD:          0	MERGED:        373	TO_CACHE:     544990

L2C Instructions Evicting Data 675327
L2C Translations Evicting Data 67407
L2C Data Evicting Data 652452
L2C Instructions Evicting Instructions 831584
L2C Translations Evicting Instructions 79843
L2C Data Evicting Instructions 654840
L2C Instructions Evicting Translations 80041
L2C Translations Evicting Translations 7509
L2C Data Evicting Translations 65098
L2C Dense regions hint from L2: 0
PSCL5 TOTAL     ACCESS:     337930  HIT:     337930  MISS:          0  HIT %:        100  MISS %:          0   MPKI: 0
PSCL5 LOAD TRANSLATION ACCESS:     328543  HIT:     328543  MISS:          0  HIT %:        100  MISS %:          0   MPKI: 0
PSCL5 TRANSLATION FROM L1D PREFETCHER ACCESS:       9387  HIT:       9387  MISS:          0  HIT %:        100  MISS %:          0   MPKI: 0
PSCL5 PREFETCH  REQUESTED:          0  ISSUED:          0  USEFUL:          0  USELESS:          0
PSCL5 USEFUL LOAD PREFETCHES:          0 PREFETCH ISSUED TO LOWER LEVEL:          0  ACCURACY: -nan
PSCL5 TIMELY PREFETCHES:          0 LATE PREFETCHES: 0 DROPPED PREFETCHES: 0
PSCL5 PREFETCHES SAME FILL-ORIGIN LEVEL: 0 DIFFERENT FILL-ORIGIN LEVEL: 0

PSCL4 TOTAL     ACCESS:     328306  HIT:     327541  MISS:        765  HIT %:     99.767  MISS %:   0.233014   MPKI: 0.003825
PSCL4 LOAD TRANSLATION ACCESS:     318946  HIT:     318181  MISS:        765  HIT %:    99.7601  MISS %:   0.239853   MPKI: 0.003825
PSCL4 TRANSLATION FROM L1D PREFETCHER ACCESS:       9360  HIT:       9360  MISS:          0  HIT %:        100  MISS %:          0   MPKI: 0
PSCL4 PREFETCH  REQUESTED:          0  ISSUED:          0  USEFUL:          0  USELESS:          0
PSCL4 USEFUL LOAD PREFETCHES:          0 PREFETCH ISSUED TO LOWER LEVEL:          0  ACCURACY: -nan
PSCL4 TIMELY PREFETCHES:          0 LATE PREFETCHES: 0 DROPPED PREFETCHES: 0
PSCL4 PREFETCHES SAME FILL-ORIGIN LEVEL: 0 DIFFERENT FILL-ORIGIN LEVEL: 0

PSCL3 TOTAL     ACCESS:     336075  HIT:     333874  MISS:       2201  HIT %:    99.3451  MISS %:   0.654913   MPKI: 0.011005
PSCL3 LOAD TRANSLATION ACCESS:     326690  HIT:     324489  MISS:       2201  HIT %:    99.3263  MISS %:   0.673727   MPKI: 0.011005
PSCL3 TRANSLATION FROM L1D PREFETCHER ACCESS:       9385  HIT:       9385  MISS:          0  HIT %:        100  MISS %:          0   MPKI: 0
PSCL3 PREFETCH  REQUESTED:          0  ISSUED:          0  USEFUL:          0  USELESS:          0
PSCL3 USEFUL LOAD PREFETCHES:          0 PREFETCH ISSUED TO LOWER LEVEL:          0  ACCURACY: -nan
PSCL3 TIMELY PREFETCHES:          0 LATE PREFETCHES: 0 DROPPED PREFETCHES: 0
PSCL3 PREFETCHES SAME FILL-ORIGIN LEVEL: 0 DIFFERENT FILL-ORIGIN LEVEL: 0

PSCL2 TOTAL     ACCESS:     336891  HIT:     258310  MISS:      78581  HIT %:    76.6747  MISS %:    23.3253   MPKI: 0.392905
PSCL2 LOAD TRANSLATION ACCESS:     328601  HIT:     250020  MISS:      78581  HIT %:    76.0862  MISS %:    23.9138   MPKI: 0.392905
PSCL2 TRANSLATION FROM L1D PREFETCHER ACCESS:       8290  HIT:       8290  MISS:          0  HIT %:        100  MISS %:          0   MPKI: 0
PSCL2 PREFETCH  REQUESTED:          0  ISSUED:          0  USEFUL:          0  USELESS:          0
PSCL2 USEFUL LOAD PREFETCHES:          0 PREFETCH ISSUED TO LOWER LEVEL:          0  ACCURACY: -nan
PSCL2 TIMELY PREFETCHES:          0 LATE PREFETCHES: 0 DROPPED PREFETCHES: 0
PSCL2 PREFETCHES SAME FILL-ORIGIN LEVEL: 0 DIFFERENT FILL-ORIGIN LEVEL: 0

LLC TOTAL     ACCESS:    3636954  HIT:    3051133  MISS:     585821  HIT %:    83.8925  MISS %:    16.1075   MPKI: 2.9291
LLC LOAD      ACCESS:    2567089  HIT:    2217965  MISS:     349124  HIT %:       86.4  MISS %:       13.6   MPKI: 1.74562
LLC RFO       ACCESS:     285925  HIT:     108895  MISS:     177030  HIT %:    38.0852  MISS %:    61.9148   MPKI: 0.88515
LLC PREFETCH  ACCESS:     106327  HIT:      76196  MISS:      30131  HIT %:    71.6619  MISS %:    28.3381   MPKI: 0.150655
LLC WRITEBACK ACCESS:     522854  HIT:     505959  MISS:      16895  HIT %:    96.7687  MISS %:     3.2313   MPKI: 0.084475
LLC LOAD TRANSLATION ACCESS:     154233  HIT:     141816  MISS:      12417  HIT %:    91.9492  MISS %:    8.05081   MPKI: 0.062085
LLC TRANSLATION FROM L1D PREFETCHER ACCESS:        526  HIT:        302  MISS:        224  HIT %:    57.4144  MISS %:    42.5856   MPKI: 0.00112
LLC PREFETCH  REQUESTED:          0  ISSUED:          0  USEFUL:       4260  USELESS:      26138
LLC USEFUL LOAD PREFETCHES:       4260 PREFETCH ISSUED TO LOWER LEVEL:      30131  ACCURACY: 14.1383
LLC TIMELY PREFETCHES:       4260 LATE PREFETCHES: 0 DROPPED PREFETCHES: 0
LLC PREFETCHES SAME FILL-ORIGIN LEVEL: 0 DIFFERENT FILL-ORIGIN LEVEL: 0
LLC AVERAGE MISS LATENCY: 165.124 cycles
LLC RQ	ACCESS:    3007775	FORWARD:          0	MERGED:          0	TO_CACHE:    3007774
LLC WQ	ACCESS:     522854	FORWARD:          1	MERGED:          0	TO_CACHE:     522854
LLC PQ	ACCESS:     106327	FORWARD:          0	MERGED:          0	TO_CACHE:     106327

LLC Dense regions hint to LLC: 0

RAW hits: 2658596
Loads Generated: 51616979
Loads sent to L1D: 48958381
Stores Generated: 19494838
Stores sent to L1D: 19494845
Major fault: 0 Minor fault: 8068
Allocated PAGES: 8068

DRAM Statistics
 CHANNEL 0
 RQ ROW_BUFFER_HIT:     132970  ROW_BUFFER_MISS:     435950
 DBUS_CONGESTED:        225
 WQ ROW_BUFFER_HIT:      63191  ROW_BUFFER_MISS:     241177  FULL:          0

 AVG_CONGESTED_CYCLE: 5
 All warmup complete: 2
Channel 0 Bank busy for read cycles: 0
Channel 0 Bank busy for write cycles: 0
Channel 0
Rank 0
0banks busy for read cycles: 452683537
0banks busy for write cycles: 152046
1banks busy for read cycles: 47804069
1banks busy for write cycles: 23138242
2banks busy for read cycles: 6472220
2banks busy for write cycles: 6052907
3banks busy for read cycles: 961733
3banks busy for write cycles: 2120377
4banks busy for read cycles: 369933
4banks busy for write cycles: 948388
5banks busy for read cycles: 180510
5banks busy for write cycles: 472160
6banks busy for read cycles: 163995
6banks busy for write cycles: 269534
7banks busy for read cycles: 188572
7banks busy for write cycles: 264574
8banks busy for read cycles: 492536
8banks busy for write cycles: 828687

CPU 0 Branch Prediction Accuracy: 97.3038% MPKI: 5.17532 Average ROB Occupancy at Mispredict: 13.1514
Branch types
NOT_BRANCH: 161610441 80.8052%
BRANCH_DIRECT_JUMP: 1949370 0.974685%
BRANCH_INDIRECT: 10330683 5.16534%
BRANCH_CONDITIONAL: 18215850 9.10792%
BRANCH_DIRECT_CALL: 2536633 1.26832%
BRANCH_INDIRECT_CALL: 1403932 0.701966%
BRANCH_RETURN: 3952830 1.97642%
BRANCH_OTHER: 0 0%

DRAM PAGES: 1048576
Allocated PAGES: 8068
