
*** ChampSim Multicore Out-of-Order Simulator ***

Warmup Instructions: 50000000
Simulation Instructions: 200000000
Number of CPUs: 1
LLC sets: 2048
LLC ways: 16
Off-chip DRAM Size: 4096 MB Channels: 1 Width: 64-bit Data Rate: 6400 MT/s
CPU 0 runs traces/spec2k17/server_029.champsimtrace.xz
.xz
BTB has LRU replacement policy
ITLB has LRU replacement policy
DTLB has LRU replacement policy
STLB has LRU replacement policy
L1I has LRU replacement policy
History Sets: 8
History Ways: 16
BERTI Size: 16
BERTI Stride Size: 16
L1D has LRU replacement policy
Initialize SRRIP state for L2C
Initialize DRRIP state for LLC
Heartbeat CPU 0 instructions: 10000002 cycles: 2846610 heartbeat IPC: 3.51295 cumulative IPC: 3.51295 (Simulation time: 0 hr 0 min 40 sec) 
Heartbeat CPU 0 instructions: 20000001 cycles: 5686666 heartbeat IPC: 3.52106 cumulative IPC: 3.517 (Simulation time: 0 hr 1 min 18 sec) 
Heartbeat CPU 0 instructions: 30000000 cycles: 8528207 heartbeat IPC: 3.51922 cumulative IPC: 3.51774 (Simulation time: 0 hr 1 min 54 sec) 
Heartbeat CPU 0 instructions: 40000001 cycles: 11368899 heartbeat IPC: 3.52027 cumulative IPC: 3.51837 (Simulation time: 0 hr 2 min 33 sec) 
Heartbeat CPU 0 instructions: 50000000 cycles: 14210409 heartbeat IPC: 3.51926 cumulative IPC: 3.51855 (Simulation time: 0 hr 3 min 10 sec) 

Warmup complete CPU 0 instructions: 50000004 cycles: 14210410 (Simulation time: 0 hr 3 min 10 sec) 

Heartbeat CPU 0 instructions: 60000002 cycles: 47413542 heartbeat IPC: 0.301176 cumulative IPC: 0.301176 (Simulation time: 0 hr 4 min 16 sec) 
Heartbeat CPU 0 instructions: 70000001 cycles: 80796474 heartbeat IPC: 0.299554 cumulative IPC: 0.300363 (Simulation time: 0 hr 5 min 16 sec) 
Heartbeat CPU 0 instructions: 80000002 cycles: 113816794 heartbeat IPC: 0.302844 cumulative IPC: 0.301185 (Simulation time: 0 hr 6 min 9 sec) 
*** Reached end of trace for Core: 0 Repeating trace: traces/spec2k17/server_029.champsimtrace.xz
Heartbeat CPU 0 instructions: 90000000 cycles: 146761436 heartbeat IPC: 0.303539 cumulative IPC: 0.301771 (Simulation time: 0 hr 7 min 2 sec) 
Heartbeat CPU 0 instructions: 100000003 cycles: 179295004 heartbeat IPC: 0.307375 cumulative IPC: 0.302875 (Simulation time: 0 hr 8 min 8 sec) 
Heartbeat CPU 0 instructions: 110000000 cycles: 211721510 heartbeat IPC: 0.30839 cumulative IPC: 0.30378 (Simulation time: 0 hr 9 min 4 sec) 
Heartbeat CPU 0 instructions: 120000002 cycles: 244525953 heartbeat IPC: 0.304837 cumulative IPC: 0.303931 (Simulation time: 0 hr 10 min 15 sec) 
Heartbeat CPU 0 instructions: 130000000 cycles: 277492870 heartbeat IPC: 0.303334 cumulative IPC: 0.303856 (Simulation time: 0 hr 11 min 13 sec) 
Heartbeat CPU 0 instructions: 140000002 cycles: 310452070 heartbeat IPC: 0.303405 cumulative IPC: 0.303806 (Simulation time: 0 hr 12 min 14 sec) 
Heartbeat CPU 0 instructions: 150000000 cycles: 343485535 heartbeat IPC: 0.302723 cumulative IPC: 0.303697 (Simulation time: 0 hr 13 min 17 sec) 
Heartbeat CPU 0 instructions: 160000001 cycles: 376629421 heartbeat IPC: 0.301715 cumulative IPC: 0.303516 (Simulation time: 0 hr 14 min 16 sec) 
Heartbeat CPU 0 instructions: 170000002 cycles: 409654581 heartbeat IPC: 0.302799 cumulative IPC: 0.303456 (Simulation time: 0 hr 15 min 23 sec) 
*** Reached end of trace for Core: 0 Repeating trace: traces/spec2k17/server_029.champsimtrace.xz
Heartbeat CPU 0 instructions: 180000002 cycles: 442256809 heartbeat IPC: 0.306727 cumulative IPC: 0.303705 (Simulation time: 0 hr 16 min 24 sec) 
Heartbeat CPU 0 instructions: 190000000 cycles: 474643523 heartbeat IPC: 0.308769 cumulative IPC: 0.304062 (Simulation time: 0 hr 17 min 29 sec) 
Heartbeat CPU 0 instructions: 200000002 cycles: 507278902 heartbeat IPC: 0.306416 cumulative IPC: 0.304217 (Simulation time: 0 hr 18 min 29 sec) 
Heartbeat CPU 0 instructions: 210000003 cycles: 540056276 heartbeat IPC: 0.305089 cumulative IPC: 0.304272 (Simulation time: 0 hr 19 min 35 sec) 
Heartbeat CPU 0 instructions: 220000000 cycles: 572854896 heartbeat IPC: 0.304891 cumulative IPC: 0.304308 (Simulation time: 0 hr 20 min 33 sec) 
Heartbeat CPU 0 instructions: 230000003 cycles: 605832832 heartbeat IPC: 0.303233 cumulative IPC: 0.304248 (Simulation time: 0 hr 21 min 30 sec) 
Heartbeat CPU 0 instructions: 240000003 cycles: 638947629 heartbeat IPC: 0.30198 cumulative IPC: 0.304128 (Simulation time: 0 hr 22 min 31 sec) 
Heartbeat CPU 0 instructions: 250000000 cycles: 672025347 heartbeat IPC: 0.302318 cumulative IPC: 0.304037 (Simulation time: 0 hr 23 min 28 sec) 
Finished CPU 0 instructions: 200000000 cycles: 657814944 cumulative IPC: 0.304037 (Simulation time: 0 hr 23 min 28 sec) 

ChampSim completed all CPUs

Region of Interest Statistics

CPU 0 cumulative IPC: 0.304037 instructions: 200000000 cycles: 657814944
ITLB TOTAL     ACCESS:   35647385  HIT:   33446366  MISS:    2201019  HIT %:    93.8256  MISS %:    6.17442   MPKI: 11.0051
ITLB LOAD TRANSLATION ACCESS:   35647385  HIT:   33446366  MISS:    2201019  HIT %:    93.8256  MISS %:    6.17442   MPKI: 11.0051
ITLB PREFETCH  REQUESTED:          0  ISSUED:          0  USEFUL:          0  USELESS:          0
ITLB USEFUL LOAD PREFETCHES:          0 PREFETCH ISSUED TO LOWER LEVEL:          0  ACCURACY: -nan
ITLB TIMELY PREFETCHES:          0 LATE PREFETCHES: 0 DROPPED PREFETCHES: 0
ITLB PREFETCHES SAME FILL-ORIGIN LEVEL: 0 DIFFERENT FILL-ORIGIN LEVEL: 0
ITLB AVERAGE MISS LATENCY: 9.1533 cycles
ITLB RQ	ACCESS:   41830976	FORWARD:          0	MERGED:    5661974	TO_CACHE:   36169002

DTLB TOTAL     ACCESS:   45225659  HIT:   43130845  MISS:    2094814  HIT %:    95.3681  MISS %:    4.63191   MPKI: 10.4741
DTLB LOAD TRANSLATION ACCESS:   45225659  HIT:   43130845  MISS:    2094814  HIT %:    95.3681  MISS %:    4.63191   MPKI: 10.4741
DTLB PREFETCH  REQUESTED:          0  ISSUED:          0  USEFUL:          0  USELESS:          0
DTLB USEFUL LOAD PREFETCHES:          0 PREFETCH ISSUED TO LOWER LEVEL:          0  ACCURACY: -nan
DTLB TIMELY PREFETCHES:          0 LATE PREFETCHES: 0 DROPPED PREFETCHES: 0
DTLB PREFETCHES SAME FILL-ORIGIN LEVEL: 0 DIFFERENT FILL-ORIGIN LEVEL: 0
DTLB AVERAGE MISS LATENCY: 10.401 cycles
DTLB RQ	ACCESS:   59839703	FORWARD:          0	MERGED:   14558735	TO_CACHE:   45280968

STLB TOTAL     ACCESS:    5409226  HIT:    5355053  MISS:      54173  HIT %:    98.9985  MISS %:    1.00149   MPKI: 0.270865
STLB LOAD TRANSLATION ACCESS:    4295833  HIT:    4242154  MISS:      53679  HIT %:    98.7504  MISS %:    1.24956   MPKI: 0.268395
STLB TRANSLATION FROM L1D PREFETCHER ACCESS:    1113393  HIT:    1112899  MISS:        494  HIT %:    99.9556  MISS %:  0.0443689   MPKI: 0.00247
STLB PREFETCH  REQUESTED:          0  ISSUED:          0  USEFUL:        473  USELESS:         20
STLB USEFUL LOAD PREFETCHES:        473 PREFETCH ISSUED TO LOWER LEVEL:          0  ACCURACY: inf
STLB TIMELY PREFETCHES:        473 LATE PREFETCHES: 13 DROPPED PREFETCHES: 4150
STLB PREFETCHES SAME FILL-ORIGIN LEVEL: 0 DIFFERENT FILL-ORIGIN LEVEL: 0
STLB AVERAGE MISS LATENCY: 60.1778 cycles
STLB RQ	ACCESS:   13259551	FORWARD:          0	MERGED:    7846049	TO_CACHE:    5413502

STLB Hit, L1D data hit: 0
STLB Hit, L2C data hit: 0
STLB Hit, LLC data hit: 0
STLB Hit, LLC data miss: 0
STLB STLB hints to L2: 0
L1D TOTAL     ACCESS:   65666869  HIT:   59852956  MISS:    5813913  HIT %:    91.1464  MISS %:    8.85365   MPKI: 29.0696
L1D LOAD      ACCESS:   33584777  HIT:   30051639  MISS:    3533138  HIT %:    89.4799  MISS %:    10.5201   MPKI: 17.6657
L1D RFO       ACCESS:   24342170  HIT:   23131007  MISS:    1211163  HIT %:    95.0244  MISS %:    4.97558   MPKI: 6.05581
L1D PREFETCH  ACCESS:    7739922  HIT:    6670310  MISS:    1069612  HIT %:    86.1806  MISS %:    13.8194   MPKI: 5.34806
L1D PREFETCH  REQUESTED:   19818337  ISSUED:   19518132  USEFUL:     931160  USELESS:     138451
L1D USEFUL LOAD PREFETCHES:     931160 PREFETCH ISSUED TO LOWER LEVEL:    2270530  ACCURACY: 41.0107
L1D TIMELY PREFETCHES:     931160 LATE PREFETCHES: 7945 DROPPED PREFETCHES: 6288
L1D PREFETCHES SAME FILL-ORIGIN LEVEL: 1077557 DIFFERENT FILL-ORIGIN LEVEL: 1192973
L1D AVERAGE MISS LATENCY: 20.3001 cycles
L1D RQ	ACCESS:   46135394	FORWARD:          0	MERGED:   12100202	TO_CACHE:   33723932
L1D WQ	ACCESS:   26256733	FORWARD:     311260	MERGED:     140962	TO_CACHE:   26115771
L1D PQ	ACCESS:   10554414	FORWARD:          0	MERGED:    1590696	TO_CACHE:    8963718

L1D UNIQUE REGIONS ACCESSED: 0
L1D REGIONS CONFLICTS: 0
L1D Cross Page Prefetch Requests: 1844121
L1D Same Page Prefetch Requests: 11440618
L1D ROI Sum of L1D PQ occupancy: 131938796
L1D PREFETCHES PUSHED FROM L2C: 0
L1I TOTAL     ACCESS:   40201406  HIT:   29022679  MISS:   11178727  HIT %:    72.1932  MISS %:    27.8068   MPKI: 55.8936
L1I LOAD      ACCESS:   40201406  HIT:   29022679  MISS:   11178727  HIT %:    72.1932  MISS %:    27.8068   MPKI: 55.8936
L1I PREFETCH  REQUESTED:          0  ISSUED:          0  USEFUL:          0  USELESS:          0
L1I USEFUL LOAD PREFETCHES:          0 PREFETCH ISSUED TO LOWER LEVEL:          0  ACCURACY: -nan
L1I TIMELY PREFETCHES:          0 LATE PREFETCHES: 0 DROPPED PREFETCHES: 0
L1I PREFETCHES SAME FILL-ORIGIN LEVEL: 0 DIFFERENT FILL-ORIGIN LEVEL: 0
L1I AVERAGE MISS LATENCY: 16.038 cycles
L1I RQ	ACCESS:   58314472	FORWARD:          0	MERGED:   16483496	TO_CACHE:   41830976

BTB TOTAL     ACCESS:   30539919  HIT:   18140103  MISS:   12399816  HIT %:     59.398  MISS %:     40.602   MPKI: 61.9991
BTB BRANCH_DIRECT_JUMP	ACCESS:    2018954  HIT:    1218809  MISS:     800145
BTB BRANCH_INDIRECT	ACCESS:   11947792  HIT:    7156444  MISS:    4791348
BTB BRANCH_CONDITIONAL	ACCESS:    7548510  HIT:    6291453  MISS:    1257057
BTB BRANCH_DIRECT_CALL	ACCESS:    3801012  HIT:    1784913  MISS:    2016099
BTB BRANCH_INDIRECT_CALL	ACCESS:     711313  HIT:     347925  MISS:     363388
BTB BRANCH_RETURN	ACCESS:    4512338  HIT:    1340559  MISS:    3171779
BTB BRANCH_OTHER ACCESS:          0  HIT:          0  MISS:          0

L2C TOTAL     ACCESS:   20573025  HIT:   19250911  MISS:    1322114  HIT %:    93.5736  MISS %:    6.42644   MPKI: 6.61057
L2C LOAD      ACCESS:   14703920  HIT:   13631839  MISS:    1072081  HIT %:    92.7089  MISS %:    7.29112   MPKI: 5.36041
L2C DATA LOAD MPKI: 1.79103
L2C INSTRUCTION LOAD MPKI: 3.56937
L2C RFO       ACCESS:    1211163  HIT:    1119554  MISS:      91609  HIT %:    92.4363  MISS %:    7.56372   MPKI: 0.458045
L2C PREFETCH  ACCESS:    2259965  HIT:    2176102  MISS:      83863  HIT %:    96.2892  MISS %:    3.71081   MPKI: 0.419315
L2C DATA PREFETCH MPKI: 0.419315
L2C INSTRUCTION PREFETCH MPKI: 0
L2C WRITEBACK ACCESS:    2308704  HIT:    2276231  MISS:      32473  HIT %:    98.5935  MISS %:    1.40655   MPKI: 0.162365
L2C LOAD TRANSLATION ACCESS:      80554  HIT:      38743  MISS:      41811  HIT %:    48.0957  MISS %:    51.9043   MPKI: 0.209055
L2C TRANSLATION FROM L1D PREFETCHER ACCESS:       8719  HIT:       8442  MISS:        277  HIT %:     96.823  MISS %:    3.17697   MPKI: 0.001385
L2C PREFETCH  REQUESTED:          0  ISSUED:          0  USEFUL:       3207  USELESS:      80992
L2C USEFUL LOAD PREFETCHES:       3207 PREFETCH ISSUED TO LOWER LEVEL:      85411  ACCURACY: 3.75479
L2C TIMELY PREFETCHES:       3207 LATE PREFETCHES: 1548 DROPPED PREFETCHES: 0
L2C PREFETCHES SAME FILL-ORIGIN LEVEL: 37358 DIFFERENT FILL-ORIGIN LEVEL: 0
L2C AVERAGE MISS LATENCY: 42.6105 cycles
L2C RQ	ACCESS:   16004356	FORWARD:          0	MERGED:          0	TO_CACHE:   16004356
L2C WQ	ACCESS:    2308704	FORWARD:          0	MERGED:          0	TO_CACHE:    2308704
L2C PQ	ACCESS:    2270530	FORWARD:          0	MERGED:       1066	TO_CACHE:    2269464

L2C Instructions Evicting Data 251491
L2C Translations Evicting Data 27379
L2C Data Evicting Data 274317
L2C Instructions Evicting Instructions 450717
L2C Translations Evicting Instructions 10984
L2C Data Evicting Instructions 233083
L2C Instructions Evicting Translations 11667
L2C Translations Evicting Translations 3725
L2C Data Evicting Translations 26278
L2C Dense regions hint from L2: 0
PSCL5 TOTAL     ACCESS:      58336  HIT:      58336  MISS:          0  HIT %:        100  MISS %:          0   MPKI: 0
PSCL5 LOAD TRANSLATION ACCESS:      53679  HIT:      53679  MISS:          0  HIT %:        100  MISS %:          0   MPKI: 0
PSCL5 TRANSLATION FROM L1D PREFETCHER ACCESS:       4657  HIT:       4657  MISS:          0  HIT %:        100  MISS %:          0   MPKI: 0
PSCL5 PREFETCH  REQUESTED:          0  ISSUED:          0  USEFUL:          0  USELESS:          0
PSCL5 USEFUL LOAD PREFETCHES:          0 PREFETCH ISSUED TO LOWER LEVEL:          0  ACCURACY: -nan
PSCL5 TIMELY PREFETCHES:          0 LATE PREFETCHES: 0 DROPPED PREFETCHES: 0
PSCL5 PREFETCHES SAME FILL-ORIGIN LEVEL: 0 DIFFERENT FILL-ORIGIN LEVEL: 0

PSCL4 TOTAL     ACCESS:      56338  HIT:      55668  MISS:        670  HIT %:    98.8107  MISS %:    1.18925   MPKI: 0.00335
PSCL4 LOAD TRANSLATION ACCESS:      52122  HIT:      51452  MISS:        670  HIT %:    98.7146  MISS %:    1.28545   MPKI: 0.00335
PSCL4 TRANSLATION FROM L1D PREFETCHER ACCESS:       4216  HIT:       4216  MISS:          0  HIT %:        100  MISS %:          0   MPKI: 0
PSCL4 PREFETCH  REQUESTED:          0  ISSUED:          0  USEFUL:          0  USELESS:          0
PSCL4 USEFUL LOAD PREFETCHES:          0 PREFETCH ISSUED TO LOWER LEVEL:          0  ACCURACY: -nan
PSCL4 TIMELY PREFETCHES:          0 LATE PREFETCHES: 0 DROPPED PREFETCHES: 0
PSCL4 PREFETCHES SAME FILL-ORIGIN LEVEL: 0 DIFFERENT FILL-ORIGIN LEVEL: 0

PSCL3 TOTAL     ACCESS:      58119  HIT:      57448  MISS:        671  HIT %:    98.8455  MISS %:    1.15453   MPKI: 0.003355
PSCL3 LOAD TRANSLATION ACCESS:      53580  HIT:      52909  MISS:        671  HIT %:    98.7477  MISS %:    1.25233   MPKI: 0.003355
PSCL3 TRANSLATION FROM L1D PREFETCHER ACCESS:       4539  HIT:       4539  MISS:          0  HIT %:        100  MISS %:          0   MPKI: 0
PSCL3 PREFETCH  REQUESTED:          0  ISSUED:          0  USEFUL:          0  USELESS:          0
PSCL3 USEFUL LOAD PREFETCHES:          0 PREFETCH ISSUED TO LOWER LEVEL:          0  ACCURACY: -nan
PSCL3 TIMELY PREFETCHES:          0 LATE PREFETCHES: 0 DROPPED PREFETCHES: 0
PSCL3 PREFETCHES SAME FILL-ORIGIN LEVEL: 0 DIFFERENT FILL-ORIGIN LEVEL: 0

PSCL2 TOTAL     ACCESS:      54786  HIT:      28927  MISS:      25859  HIT %:       52.8  MISS %:       47.2   MPKI: 0.129295
PSCL2 LOAD TRANSLATION ACCESS:      53979  HIT:      28120  MISS:      25859  HIT %:    52.0943  MISS %:    47.9057   MPKI: 0.129295
PSCL2 TRANSLATION FROM L1D PREFETCHER ACCESS:        807  HIT:        807  MISS:          0  HIT %:        100  MISS %:          0   MPKI: 0
PSCL2 PREFETCH  REQUESTED:          0  ISSUED:          0  USEFUL:          0  USELESS:          0
PSCL2 USEFUL LOAD PREFETCHES:          0 PREFETCH ISSUED TO LOWER LEVEL:          0  ACCURACY: -nan
PSCL2 TIMELY PREFETCHES:          0 LATE PREFETCHES: 0 DROPPED PREFETCHES: 0
PSCL2 PREFETCHES SAME FILL-ORIGIN LEVEL: 0 DIFFERENT FILL-ORIGIN LEVEL: 0

LLC TOTAL     ACCESS:    1415826  HIT:    1289741  MISS:     126085  HIT %:    91.0946  MISS %:     8.9054   MPKI: 0.630425
LLC LOAD      ACCESS:    1070533  HIT:     968833  MISS:     101700  HIT %:    90.5001  MISS %:    9.49994   MPKI: 0.5085
LLC RFO       ACCESS:      91607  HIT:      79109  MISS:      12498  HIT %:    86.3569  MISS %:    13.6431   MPKI: 0.06249
LLC PREFETCH  ACCESS:      85411  HIT:      77569  MISS:       7842  HIT %:    90.8185  MISS %:    9.18149   MPKI: 0.03921
LLC WRITEBACK ACCESS:     126187  HIT:     125505  MISS:        682  HIT %:    99.4595  MISS %:   0.540468   MPKI: 0.00341
LLC LOAD TRANSLATION ACCESS:      41811  HIT:      38535  MISS:       3276  HIT %:    92.1647  MISS %:    7.83526   MPKI: 0.01638
LLC TRANSLATION FROM L1D PREFETCHER ACCESS:        277  HIT:        190  MISS:         87  HIT %:    68.5921  MISS %:    31.4079   MPKI: 0.000435
LLC PREFETCH  REQUESTED:          0  ISSUED:          0  USEFUL:        559  USELESS:       8559
LLC USEFUL LOAD PREFETCHES:        559 PREFETCH ISSUED TO LOWER LEVEL:       7842  ACCURACY: 7.12828
LLC TIMELY PREFETCHES:        559 LATE PREFETCHES: 0 DROPPED PREFETCHES: 0
LLC PREFETCHES SAME FILL-ORIGIN LEVEL: 0 DIFFERENT FILL-ORIGIN LEVEL: 0
LLC AVERAGE MISS LATENCY: 140.402 cycles
LLC RQ	ACCESS:    1204230	FORWARD:          0	MERGED:          0	TO_CACHE:    1204228
LLC WQ	ACCESS:     126187	FORWARD:          2	MERGED:          0	TO_CACHE:     126187
LLC PQ	ACCESS:      85411	FORWARD:          0	MERGED:          0	TO_CACHE:      85411

LLC Dense regions hint to LLC: 0

RAW hits: 1426904
Loads Generated: 47562298
Loads sent to L1D: 46135394
Stores Generated: 26256735
Stores sent to L1D: 26256733
Major fault: 0 Minor fault: 6134
Allocated PAGES: 6134

DRAM Statistics
 CHANNEL 0
 RQ ROW_BUFFER_HIT:      49019  ROW_BUFFER_MISS:      76333
 DBUS_CONGESTED:         83
 WQ ROW_BUFFER_HIT:       2005  ROW_BUFFER_MISS:      11136  FULL:          0

 AVG_CONGESTED_CYCLE: 4
 All warmup complete: 2
Channel 0 Bank busy for read cycles: 0
Channel 0 Bank busy for write cycles: 0
Channel 0
Rank 0
0banks busy for read cycles: 647169705
0banks busy for write cycles: 7915
1banks busy for read cycles: 7050174
1banks busy for write cycles: 1257090
2banks busy for read cycles: 960486
2banks busy for write cycles: 218057
3banks busy for read cycles: 266779
3banks busy for write cycles: 85178
4banks busy for read cycles: 189637
4banks busy for write cycles: 40980
5banks busy for read cycles: 128446
5banks busy for write cycles: 19009
6banks busy for read cycles: 119530
6banks busy for write cycles: 7181
7banks busy for read cycles: 118564
7banks busy for write cycles: 7045
8banks busy for read cycles: 150242
8banks busy for write cycles: 18927

CPU 0 Branch Prediction Accuracy: 99.7832% MPKI: 0.392085 Average ROB Occupancy at Mispredict: 44.3667
Branch types
NOT_BRANCH: 163831453 81.9157%
BRANCH_DIRECT_JUMP: 2018954 1.00948%
BRANCH_INDIRECT: 11947792 5.9739%
BRANCH_CONDITIONAL: 13177116 6.58856%
BRANCH_DIRECT_CALL: 3801012 1.90051%
BRANCH_INDIRECT_CALL: 711313 0.355656%
BRANCH_RETURN: 4512338 2.25617%
BRANCH_OTHER: 0 0%

DRAM PAGES: 1048576
Allocated PAGES: 6134
