
*** ChampSim Multicore Out-of-Order Simulator ***

Warmup Instructions: 50000000
Simulation Instructions: 200000000
Number of CPUs: 1
LLC sets: 2048
LLC ways: 16
Off-chip DRAM Size: 4096 MB Channels: 1 Width: 64-bit Data Rate: 6400 MT/s
CPU 0 runs traces/spec2k17/server_036.champsimtrace.xz
.xz
BTB has LRU replacement policy
ITLB has LRU replacement policy
DTLB has LRU replacement policy
STLB has LRU replacement policy
L1I has LRU replacement policy
History Sets: 8
History Ways: 16
BERTI Size: 16
BERTI Stride Size: 16
L1D has LRU replacement policy
Initialize SRRIP state for L2C
Initialize DRRIP state for LLC
Heartbeat CPU 0 instructions: 10000000 cycles: 2725478 heartbeat IPC: 3.66908 cumulative IPC: 3.66908 (Simulation time: 0 hr 0 min 33 sec) 
Heartbeat CPU 0 instructions: 20000002 cycles: 5449818 heartbeat IPC: 3.67061 cumulative IPC: 3.66985 (Simulation time: 0 hr 1 min 0 sec) 
Heartbeat CPU 0 instructions: 30000002 cycles: 8175008 heartbeat IPC: 3.66947 cumulative IPC: 3.66972 (Simulation time: 0 hr 1 min 34 sec) 
Heartbeat CPU 0 instructions: 40000000 cycles: 10925014 heartbeat IPC: 3.63635 cumulative IPC: 3.66132 (Simulation time: 0 hr 2 min 7 sec) 
Heartbeat CPU 0 instructions: 50000001 cycles: 13648216 heartbeat IPC: 3.67215 cumulative IPC: 3.66348 (Simulation time: 0 hr 2 min 41 sec) 

Warmup complete CPU 0 instructions: 50000001 cycles: 13648216 (Simulation time: 0 hr 2 min 41 sec) 

Heartbeat CPU 0 instructions: 60000003 cycles: 31306615 heartbeat IPC: 0.566303 cumulative IPC: 0.566303 (Simulation time: 0 hr 3 min 25 sec) 
Heartbeat CPU 0 instructions: 70000000 cycles: 48820999 heartbeat IPC: 0.570959 cumulative IPC: 0.568621 (Simulation time: 0 hr 4 min 13 sec) 
Heartbeat CPU 0 instructions: 80000002 cycles: 66336384 heartbeat IPC: 0.570927 cumulative IPC: 0.569388 (Simulation time: 0 hr 5 min 2 sec) 
Heartbeat CPU 0 instructions: 90000000 cycles: 83887147 heartbeat IPC: 0.569776 cumulative IPC: 0.569485 (Simulation time: 0 hr 5 min 46 sec) 
Heartbeat CPU 0 instructions: 100000002 cycles: 101410362 heartbeat IPC: 0.570672 cumulative IPC: 0.569722 (Simulation time: 0 hr 6 min 36 sec) 
Heartbeat CPU 0 instructions: 110000000 cycles: 118929972 heartbeat IPC: 0.570789 cumulative IPC: 0.569899 (Simulation time: 0 hr 7 min 20 sec) 
Heartbeat CPU 0 instructions: 120000000 cycles: 136459306 heartbeat IPC: 0.570472 cumulative IPC: 0.569981 (Simulation time: 0 hr 8 min 12 sec) 
*** Reached end of trace for Core: 0 Repeating trace: traces/spec2k17/server_036.champsimtrace.xz
Heartbeat CPU 0 instructions: 130000003 cycles: 154235372 heartbeat IPC: 0.562554 cumulative IPC: 0.569042 (Simulation time: 0 hr 8 min 59 sec) 
Heartbeat CPU 0 instructions: 140000000 cycles: 171699916 heartbeat IPC: 0.572589 cumulative IPC: 0.569434 (Simulation time: 0 hr 9 min 43 sec) 
Heartbeat CPU 0 instructions: 150000000 cycles: 189172861 heartbeat IPC: 0.572313 cumulative IPC: 0.569721 (Simulation time: 0 hr 10 min 30 sec) 
Heartbeat CPU 0 instructions: 160000001 cycles: 208321197 heartbeat IPC: 0.522239 cumulative IPC: 0.56505 (Simulation time: 0 hr 11 min 19 sec) 
Heartbeat CPU 0 instructions: 170000000 cycles: 225835047 heartbeat IPC: 0.570977 cumulative IPC: 0.565539 (Simulation time: 0 hr 12 min 8 sec) 
Heartbeat CPU 0 instructions: 180000000 cycles: 243446232 heartbeat IPC: 0.567821 cumulative IPC: 0.565714 (Simulation time: 0 hr 12 min 57 sec) 
Heartbeat CPU 0 instructions: 190000003 cycles: 260957890 heartbeat IPC: 0.571048 cumulative IPC: 0.566092 (Simulation time: 0 hr 13 min 44 sec) 
Heartbeat CPU 0 instructions: 200000001 cycles: 278472927 heartbeat IPC: 0.570938 cumulative IPC: 0.566412 (Simulation time: 0 hr 14 min 30 sec) 
Heartbeat CPU 0 instructions: 210000003 cycles: 296015175 heartbeat IPC: 0.570053 cumulative IPC: 0.566639 (Simulation time: 0 hr 15 min 14 sec) 
Heartbeat CPU 0 instructions: 220000000 cycles: 313538314 heartbeat IPC: 0.570674 cumulative IPC: 0.566874 (Simulation time: 0 hr 16 min 1 sec) 
Heartbeat CPU 0 instructions: 230000001 cycles: 331059677 heartbeat IPC: 0.570732 cumulative IPC: 0.567087 (Simulation time: 0 hr 16 min 48 sec) 
Heartbeat CPU 0 instructions: 240000001 cycles: 348588513 heartbeat IPC: 0.570489 cumulative IPC: 0.567265 (Simulation time: 0 hr 17 min 34 sec) 
*** Reached end of trace for Core: 0 Repeating trace: traces/spec2k17/server_036.champsimtrace.xz
Heartbeat CPU 0 instructions: 250000000 cycles: 366343579 heartbeat IPC: 0.563219 cumulative IPC: 0.567062 (Simulation time: 0 hr 18 min 18 sec) 
Finished CPU 0 instructions: 200000000 cycles: 352695366 cumulative IPC: 0.567062 (Simulation time: 0 hr 18 min 18 sec) 

ChampSim completed all CPUs

Region of Interest Statistics

CPU 0 cumulative IPC: 0.567062 instructions: 200000000 cycles: 352695366
ITLB TOTAL     ACCESS:   35601959  HIT:   33754356  MISS:    1847603  HIT %:    94.8104  MISS %:    5.18961   MPKI: 9.23802
ITLB LOAD TRANSLATION ACCESS:   35601959  HIT:   33754356  MISS:    1847603  HIT %:    94.8104  MISS %:    5.18961   MPKI: 9.23802
ITLB PREFETCH  REQUESTED:          0  ISSUED:          0  USEFUL:          0  USELESS:          0
ITLB USEFUL LOAD PREFETCHES:          0 PREFETCH ISSUED TO LOWER LEVEL:          0  ACCURACY: -nan
ITLB TIMELY PREFETCHES:          0 LATE PREFETCHES: 0 DROPPED PREFETCHES: 0
ITLB PREFETCHES SAME FILL-ORIGIN LEVEL: 0 DIFFERENT FILL-ORIGIN LEVEL: 0
ITLB AVERAGE MISS LATENCY: 9.02548 cycles
ITLB RQ	ACCESS:   40699546	FORWARD:          0	MERGED:    4730548	TO_CACHE:   35968998

DTLB TOTAL     ACCESS:   40386791  HIT:   39471795  MISS:     914996  HIT %:    97.7344  MISS %:    2.26558   MPKI: 4.57498
DTLB LOAD TRANSLATION ACCESS:   40386791  HIT:   39471795  MISS:     914996  HIT %:    97.7344  MISS %:    2.26558   MPKI: 4.57498
DTLB PREFETCH  REQUESTED:          0  ISSUED:          0  USEFUL:          0  USELESS:          0
DTLB USEFUL LOAD PREFETCHES:          0 PREFETCH ISSUED TO LOWER LEVEL:          0  ACCURACY: -nan
DTLB TIMELY PREFETCHES:          0 LATE PREFETCHES: 0 DROPPED PREFETCHES: 0
DTLB PREFETCHES SAME FILL-ORIGIN LEVEL: 0 DIFFERENT FILL-ORIGIN LEVEL: 0
DTLB AVERAGE MISS LATENCY: 9.15269 cycles
DTLB RQ	ACCESS:   58669473	FORWARD:          0	MERGED:   18210578	TO_CACHE:   40458895

STLB TOTAL     ACCESS:    2912045  HIT:    2910577  MISS:       1468  HIT %:    99.9496  MISS %:  0.0504113   MPKI: 0.00734
STLB LOAD TRANSLATION ACCESS:    2762599  HIT:    2761321  MISS:       1278  HIT %:    99.9537  MISS %:  0.0462608   MPKI: 0.00639
STLB TRANSLATION FROM L1D PREFETCHER ACCESS:     149446  HIT:     149256  MISS:        190  HIT %:    99.8729  MISS %:   0.127136   MPKI: 0.00095
STLB PREFETCH  REQUESTED:          0  ISSUED:          0  USEFUL:        190  USELESS:          0
STLB USEFUL LOAD PREFETCHES:        190 PREFETCH ISSUED TO LOWER LEVEL:          0  ACCURACY: inf
STLB TIMELY PREFETCHES:        190 LATE PREFETCHES: 55 DROPPED PREFETCHES: 23490
STLB PREFETCHES SAME FILL-ORIGIN LEVEL: 0 DIFFERENT FILL-ORIGIN LEVEL: 0
STLB AVERAGE MISS LATENCY: 113.211 cycles
STLB RQ	ACCESS:    3389009	FORWARD:          0	MERGED:     453347	TO_CACHE:    2935662

STLB Hit, L1D data hit: 0
STLB Hit, L2C data hit: 0
STLB Hit, LLC data hit: 0
STLB Hit, LLC data miss: 0
STLB STLB hints to L2: 0
L1D TOTAL     ACCESS:   59109685  HIT:   59036173  MISS:      73512  HIT %:    99.8756  MISS %:   0.124365   MPKI: 0.36756
L1D LOAD      ACCESS:   30315221  HIT:   30287120  MISS:      28101  HIT %:    99.9073  MISS %:   0.092696   MPKI: 0.140505
L1D RFO       ACCESS:   28292740  HIT:   28250495  MISS:      42245  HIT %:    99.8507  MISS %:   0.149314   MPKI: 0.211225
L1D PREFETCH  ACCESS:     501724  HIT:     498558  MISS:       3166  HIT %:     99.369  MISS %:   0.631024   MPKI: 0.01583
L1D PREFETCH  REQUESTED:    1351071  ISSUED:    1270179  USEFUL:       2913  USELESS:        266
L1D USEFUL LOAD PREFETCHES:       2913 PREFETCH ISSUED TO LOWER LEVEL:      71233  ACCURACY: 4.0894
L1D TIMELY PREFETCHES:       2913 LATE PREFETCHES: 1586 DROPPED PREFETCHES: 52134
L1D PREFETCHES SAME FILL-ORIGIN LEVEL: 4752 DIFFERENT FILL-ORIGIN LEVEL: 66481
L1D AVERAGE MISS LATENCY: 149.348 cycles
L1D RQ	ACCESS:   47354246	FORWARD:          0	MERGED:   16693308	TO_CACHE:   30316954
L1D WQ	ACCESS:   28475378	FORWARD:     343985	MERGED:     122859	TO_CACHE:   28352519
L1D PQ	ACCESS:     643769	FORWARD:          0	MERGED:      17358	TO_CACHE:     626410

L1D UNIQUE REGIONS ACCESSED: 0
L1D REGIONS CONFLICTS: 0
L1D Cross Page Prefetch Requests: 170018
L1D Same Page Prefetch Requests: 1511942
L1D ROI Sum of L1D PQ occupancy: 12745956
L1D PREFETCHES PUSHED FROM L2C: 0
L1I TOTAL     ACCESS:   36329030  HIT:   21993601  MISS:   14335429  HIT %:      60.54  MISS %:      39.46   MPKI: 71.6771
L1I LOAD      ACCESS:   36329030  HIT:   21993601  MISS:   14335429  HIT %:      60.54  MISS %:      39.46   MPKI: 71.6771
L1I PREFETCH  REQUESTED:          0  ISSUED:          0  USEFUL:          0  USELESS:          0
L1I USEFUL LOAD PREFETCHES:          0 PREFETCH ISSUED TO LOWER LEVEL:          0  ACCURACY: -nan
L1I TIMELY PREFETCHES:          0 LATE PREFETCHES: 0 DROPPED PREFETCHES: 0
L1I PREFETCHES SAME FILL-ORIGIN LEVEL: 0 DIFFERENT FILL-ORIGIN LEVEL: 0
L1I AVERAGE MISS LATENCY: 14.1323 cycles
L1I RQ	ACCESS:   60650057	FORWARD:          0	MERGED:   19950511	TO_CACHE:   40699546

BTB TOTAL     ACCESS:   25908287  HIT:   23514246  MISS:    2394041  HIT %:    90.7596  MISS %:    9.24044   MPKI: 11.9702
BTB BRANCH_DIRECT_JUMP	ACCESS:    1774351  HIT:    1739635  MISS:      34716
BTB BRANCH_INDIRECT	ACCESS:   11507662  HIT:   10680986  MISS:     826676
BTB BRANCH_CONDITIONAL	ACCESS:    4376081  HIT:    4361317  MISS:      14764
BTB BRANCH_DIRECT_CALL	ACCESS:    3347214  HIT:    3281604  MISS:      65610
BTB BRANCH_INDIRECT_CALL	ACCESS:     777882  HIT:     612337  MISS:     165545
BTB BRANCH_RETURN	ACCESS:    4125097  HIT:    2838367  MISS:    1286730
BTB BRANCH_OTHER ACCESS:          0  HIT:          0  MISS:          0

L2C TOTAL     ACCESS:   14543374  HIT:   14470077  MISS:      73297  HIT %:     99.496  MISS %:   0.503989   MPKI: 0.366485
L2C LOAD      ACCESS:   14361943  HIT:   14334067  MISS:      27876  HIT %:    99.8059  MISS %:   0.194096   MPKI: 0.13938
L2C DATA LOAD MPKI: 0.07559
L2C INSTRUCTION LOAD MPKI: 0.06379
L2C RFO       ACCESS:      42245  HIT:       8897  MISS:      33348  HIT %:    21.0605  MISS %:    78.9395   MPKI: 0.16674
L2C PREFETCH  ACCESS:      64617  HIT:      55081  MISS:       9536  HIT %:    85.2423  MISS %:    14.7577   MPKI: 0.04768
L2C DATA PREFETCH MPKI: 0.04768
L2C INSTRUCTION PREFETCH MPKI: 0
L2C WRITEBACK ACCESS:      49375  HIT:      47678  MISS:       1697  HIT %:     96.563  MISS %:    3.43696   MPKI: 0.008485
L2C LOAD TRANSLATION ACCESS:       1415  HIT:        683  MISS:        732  HIT %:    48.2686  MISS %:    51.7314   MPKI: 0.00366
L2C TRANSLATION FROM L1D PREFETCHER ACCESS:      23779  HIT:      23671  MISS:        108  HIT %:    99.5458  MISS %:   0.454182   MPKI: 0.00054
L2C PREFETCH  REQUESTED:          0  ISSUED:          0  USEFUL:       4966  USELESS:       5051
L2C USEFUL LOAD PREFETCHES:       4966 PREFETCH ISSUED TO LOWER LEVEL:      11512  ACCURACY: 43.1376
L2C TIMELY PREFETCHES:       4966 LATE PREFETCHES: 1976 DROPPED PREFETCHES: 0
L2C PREFETCHES SAME FILL-ORIGIN LEVEL: 9523 DIFFERENT FILL-ORIGIN LEVEL: 0
L2C AVERAGE MISS LATENCY: 187.867 cycles
L2C RQ	ACCESS:   14429383	FORWARD:          0	MERGED:          0	TO_CACHE:   14429382
L2C WQ	ACCESS:      49375	FORWARD:          1	MERGED:          0	TO_CACHE:      49375
L2C PQ	ACCESS:      70699	FORWARD:          0	MERGED:        168	TO_CACHE:      70531

L2C Instructions Evicting Data 10518
L2C Translations Evicting Data 679
L2C Data Evicting Data 47372
L2C Instructions Evicting Instructions 2071
L2C Translations Evicting Instructions 148
L2C Data Evicting Instructions 10001
L2C Instructions Evicting Translations 169
L2C Translations Evicting Translations 13
L2C Data Evicting Translations 629
L2C Dense regions hint from L2: 0
PSCL5 TOTAL     ACCESS:      24958  HIT:      24958  MISS:          0  HIT %:        100  MISS %:          0   MPKI: 0
PSCL5 LOAD TRANSLATION ACCESS:       1223  HIT:       1223  MISS:          0  HIT %:        100  MISS %:          0   MPKI: 0
PSCL5 TRANSLATION FROM L1D PREFETCHER ACCESS:      23735  HIT:      23735  MISS:          0  HIT %:        100  MISS %:          0   MPKI: 0
PSCL5 PREFETCH  REQUESTED:          0  ISSUED:          0  USEFUL:          0  USELESS:          0
PSCL5 USEFUL LOAD PREFETCHES:          0 PREFETCH ISSUED TO LOWER LEVEL:          0  ACCURACY: -nan
PSCL5 TIMELY PREFETCHES:          0 LATE PREFETCHES: 0 DROPPED PREFETCHES: 0
PSCL5 PREFETCHES SAME FILL-ORIGIN LEVEL: 0 DIFFERENT FILL-ORIGIN LEVEL: 0

PSCL4 TOTAL     ACCESS:      24677  HIT:      24666  MISS:         11  HIT %:    99.9554  MISS %:  0.0445759   MPKI: 5.5e-05
PSCL4 LOAD TRANSLATION ACCESS:       1081  HIT:       1070  MISS:         11  HIT %:    98.9824  MISS %:    1.01758   MPKI: 5.5e-05
PSCL4 TRANSLATION FROM L1D PREFETCHER ACCESS:      23596  HIT:      23596  MISS:          0  HIT %:        100  MISS %:          0   MPKI: 0
PSCL4 PREFETCH  REQUESTED:          0  ISSUED:          0  USEFUL:          0  USELESS:          0
PSCL4 USEFUL LOAD PREFETCHES:          0 PREFETCH ISSUED TO LOWER LEVEL:          0  ACCURACY: -nan
PSCL4 TIMELY PREFETCHES:          0 LATE PREFETCHES: 0 DROPPED PREFETCHES: 0
PSCL4 PREFETCHES SAME FILL-ORIGIN LEVEL: 0 DIFFERENT FILL-ORIGIN LEVEL: 0

PSCL3 TOTAL     ACCESS:      24850  HIT:      24839  MISS:         11  HIT %:    99.9557  MISS %:  0.0442656   MPKI: 5.5e-05
PSCL3 LOAD TRANSLATION ACCESS:       1121  HIT:       1110  MISS:         11  HIT %:    99.0187  MISS %:   0.981267   MPKI: 5.5e-05
PSCL3 TRANSLATION FROM L1D PREFETCHER ACCESS:      23729  HIT:      23729  MISS:          0  HIT %:        100  MISS %:          0   MPKI: 0
PSCL3 PREFETCH  REQUESTED:          0  ISSUED:          0  USEFUL:          0  USELESS:          0
PSCL3 USEFUL LOAD PREFETCHES:          0 PREFETCH ISSUED TO LOWER LEVEL:          0  ACCURACY: -nan
PSCL3 TIMELY PREFETCHES:          0 LATE PREFETCHES: 0 DROPPED PREFETCHES: 0
PSCL3 PREFETCHES SAME FILL-ORIGIN LEVEL: 0 DIFFERENT FILL-ORIGIN LEVEL: 0

PSCL2 TOTAL     ACCESS:      24926  HIT:      24750  MISS:        176  HIT %:    99.2939  MISS %:    0.70609   MPKI: 0.00088
PSCL2 LOAD TRANSLATION ACCESS:       1229  HIT:       1053  MISS:        176  HIT %:    85.6794  MISS %:    14.3206   MPKI: 0.00088
PSCL2 TRANSLATION FROM L1D PREFETCHER ACCESS:      23697  HIT:      23697  MISS:          0  HIT %:        100  MISS %:          0   MPKI: 0
PSCL2 PREFETCH  REQUESTED:          0  ISSUED:          0  USEFUL:          0  USELESS:          0
PSCL2 USEFUL LOAD PREFETCHES:          0 PREFETCH ISSUED TO LOWER LEVEL:          0  ACCURACY: -nan
PSCL2 TIMELY PREFETCHES:          0 LATE PREFETCHES: 0 DROPPED PREFETCHES: 0
PSCL2 PREFETCHES SAME FILL-ORIGIN LEVEL: 0 DIFFERENT FILL-ORIGIN LEVEL: 0

LLC TOTAL     ACCESS:     109929  HIT:      64719  MISS:      45210  HIT %:    58.8735  MISS %:    41.1265   MPKI: 0.22605
LLC LOAD      ACCESS:      25901  HIT:      10615  MISS:      15286  HIT %:     40.983  MISS %:     59.017   MPKI: 0.07643
LLC RFO       ACCESS:      33347  HIT:      12604  MISS:      20743  HIT %:    37.7965  MISS %:    62.2035   MPKI: 0.103715
LLC PREFETCH  ACCESS:      11511  HIT:       3161  MISS:       8350  HIT %:    27.4607  MISS %:    72.5393   MPKI: 0.04175
LLC WRITEBACK ACCESS:      38330  HIT:      38041  MISS:        289  HIT %:     99.246  MISS %:   0.753979   MPKI: 0.001445
LLC LOAD TRANSLATION ACCESS:        732  HIT:        290  MISS:        442  HIT %:    39.6175  MISS %:    60.3825   MPKI: 0.00221
LLC TRANSLATION FROM L1D PREFETCHER ACCESS:        108  HIT:          8  MISS:        100  HIT %:    7.40741  MISS %:    92.5926   MPKI: 0.0005
LLC PREFETCH  REQUESTED:          0  ISSUED:          0  USEFUL:        668  USELESS:       9073
LLC USEFUL LOAD PREFETCHES:        668 PREFETCH ISSUED TO LOWER LEVEL:       8350  ACCURACY: 8
LLC TIMELY PREFETCHES:        668 LATE PREFETCHES: 0 DROPPED PREFETCHES: 0
LLC PREFETCHES SAME FILL-ORIGIN LEVEL: 0 DIFFERENT FILL-ORIGIN LEVEL: 0
LLC AVERAGE MISS LATENCY: 266.575 cycles
LLC RQ	ACCESS:      60088	FORWARD:          0	MERGED:          0	TO_CACHE:      60088
LLC WQ	ACCESS:      38330	FORWARD:          1	MERGED:          0	TO_CACHE:      38330
LLC PQ	ACCESS:      11512	FORWARD:          0	MERGED:          0	TO_CACHE:      11511

LLC Dense regions hint to LLC: 0

RAW hits: 2184979
Loads Generated: 49539227
Loads sent to L1D: 47354246
Stores Generated: 28475376
Stores sent to L1D: 28475378
Major fault: 0 Minor fault: 2050
Allocated PAGES: 2050

DRAM Statistics
 CHANNEL 0
 RQ ROW_BUFFER_HIT:      18180  ROW_BUFFER_MISS:      26741
 DBUS_CONGESTED:          8
 WQ ROW_BUFFER_HIT:       6636  ROW_BUFFER_MISS:      18557  FULL:          0

 AVG_CONGESTED_CYCLE: 6
 All warmup complete: 2
Channel 0 Bank busy for read cycles: 0
Channel 0 Bank busy for write cycles: 0
Channel 0
Rank 0
0banks busy for read cycles: 348326597
0banks busy for write cycles: 5797
1banks busy for read cycles: 1788629
1banks busy for write cycles: 923432
2banks busy for read cycles: 347414
2banks busy for write cycles: 327029
3banks busy for read cycles: 93772
3banks busy for write cycles: 153009
4banks busy for read cycles: 32257
4banks busy for write cycles: 69859
5banks busy for read cycles: 31561
5banks busy for write cycles: 39947
6banks busy for read cycles: 43583
6banks busy for write cycles: 28224
7banks busy for read cycles: 65159
7banks busy for write cycles: 45119
8banks busy for read cycles: 159696
8banks busy for write cycles: 214283

CPU 0 Branch Prediction Accuracy: 99.9274% MPKI: 0.113335 Average ROB Occupancy at Mispredict: 10.448
Branch types
NOT_BRANCH: 168787543 84.3938%
BRANCH_DIRECT_JUMP: 1774351 0.887176%
BRANCH_INDIRECT: 11507662 5.75383%
BRANCH_CONDITIONAL: 9680226 4.84011%
BRANCH_DIRECT_CALL: 3347214 1.67361%
BRANCH_INDIRECT_CALL: 777882 0.388941%
BRANCH_RETURN: 4125097 2.06255%
BRANCH_OTHER: 0 0%

DRAM PAGES: 1048576
Allocated PAGES: 2050
