
*** ChampSim Multicore Out-of-Order Simulator ***

Warmup Instructions: 50000000
Simulation Instructions: 200000000
Number of CPUs: 1
LLC sets: 2048
LLC ways: 16
Off-chip DRAM Size: 4096 MB Channels: 1 Width: 64-bit Data Rate: 6400 MT/s
CPU 0 runs traces/spec2k17/srv_43.champsimtrace.xz
.xz
BTB has LRU replacement policy
ITLB has LRU replacement policy
DTLB has LRU replacement policy
STLB has LRU replacement policy
L1I has LRU replacement policy
History Sets: 8
History Ways: 16
BERTI Size: 16
BERTI Stride Size: 16
L1D has LRU replacement policy
Initialize SRRIP state for L2C
Initialize DRRIP state for LLC
Heartbeat CPU 0 instructions: 10000003 cycles: 2929374 heartbeat IPC: 3.4137 cumulative IPC: 3.4137 (Simulation time: 0 hr 0 min 42 sec) 
Heartbeat CPU 0 instructions: 20000000 cycles: 5852019 heartbeat IPC: 3.42156 cumulative IPC: 3.41762 (Simulation time: 0 hr 1 min 21 sec) 
Heartbeat CPU 0 instructions: 30000001 cycles: 8774340 heartbeat IPC: 3.42194 cumulative IPC: 3.41906 (Simulation time: 0 hr 2 min 5 sec) 
*** Reached end of trace for Core: 0 Repeating trace: traces/spec2k17/srv_43.champsimtrace.xz
Heartbeat CPU 0 instructions: 40000001 cycles: 11694808 heartbeat IPC: 3.42411 cumulative IPC: 3.42032 (Simulation time: 0 hr 2 min 46 sec) 
Heartbeat CPU 0 instructions: 50000003 cycles: 14616280 heartbeat IPC: 3.42293 cumulative IPC: 3.42084 (Simulation time: 0 hr 3 min 28 sec) 

Warmup complete CPU 0 instructions: 50000003 cycles: 14616280 (Simulation time: 0 hr 3 min 28 sec) 

Heartbeat CPU 0 instructions: 60000000 cycles: 44338985 heartbeat IPC: 0.336443 cumulative IPC: 0.336443 (Simulation time: 0 hr 4 min 27 sec) 
*** Reached end of trace for Core: 0 Repeating trace: traces/spec2k17/srv_43.champsimtrace.xz
Heartbeat CPU 0 instructions: 70000000 cycles: 73965912 heartbeat IPC: 0.337531 cumulative IPC: 0.336986 (Simulation time: 0 hr 5 min 19 sec) 
Heartbeat CPU 0 instructions: 80000003 cycles: 103694299 heartbeat IPC: 0.336379 cumulative IPC: 0.336783 (Simulation time: 0 hr 6 min 16 sec) 
Heartbeat CPU 0 instructions: 90000003 cycles: 133387080 heartbeat IPC: 0.336782 cumulative IPC: 0.336783 (Simulation time: 0 hr 7 min 16 sec) 
*** Reached end of trace for Core: 0 Repeating trace: traces/spec2k17/srv_43.champsimtrace.xz
Heartbeat CPU 0 instructions: 100000003 cycles: 162957800 heartbeat IPC: 0.338172 cumulative IPC: 0.33706 (Simulation time: 0 hr 8 min 8 sec) 
Heartbeat CPU 0 instructions: 110000000 cycles: 192574359 heartbeat IPC: 0.337649 cumulative IPC: 0.337158 (Simulation time: 0 hr 9 min 3 sec) 
Heartbeat CPU 0 instructions: 120000003 cycles: 222243148 heartbeat IPC: 0.337055 cumulative IPC: 0.337143 (Simulation time: 0 hr 10 min 3 sec) 
*** Reached end of trace for Core: 0 Repeating trace: traces/spec2k17/srv_43.champsimtrace.xz
Heartbeat CPU 0 instructions: 130000002 cycles: 251787798 heartbeat IPC: 0.338471 cumulative IPC: 0.337309 (Simulation time: 0 hr 10 min 58 sec) 
Heartbeat CPU 0 instructions: 140000002 cycles: 281507014 heartbeat IPC: 0.336483 cumulative IPC: 0.337217 (Simulation time: 0 hr 11 min 53 sec) 
Heartbeat CPU 0 instructions: 150000003 cycles: 311037232 heartbeat IPC: 0.338636 cumulative IPC: 0.337358 (Simulation time: 0 hr 12 min 53 sec) 
*** Reached end of trace for Core: 0 Repeating trace: traces/spec2k17/srv_43.champsimtrace.xz
Heartbeat CPU 0 instructions: 160000000 cycles: 340667662 heartbeat IPC: 0.337491 cumulative IPC: 0.33737 (Simulation time: 0 hr 13 min 45 sec) 
Heartbeat CPU 0 instructions: 170000000 cycles: 370313550 heartbeat IPC: 0.337315 cumulative IPC: 0.337366 (Simulation time: 0 hr 14 min 37 sec) 
Heartbeat CPU 0 instructions: 180000000 cycles: 399890685 heartbeat IPC: 0.338099 cumulative IPC: 0.337422 (Simulation time: 0 hr 15 min 34 sec) 
*** Reached end of trace for Core: 0 Repeating trace: traces/spec2k17/srv_43.champsimtrace.xz
Heartbeat CPU 0 instructions: 190000002 cycles: 429462370 heartbeat IPC: 0.338161 cumulative IPC: 0.337475 (Simulation time: 0 hr 16 min 32 sec) 
Heartbeat CPU 0 instructions: 200000001 cycles: 459088310 heartbeat IPC: 0.337542 cumulative IPC: 0.337479 (Simulation time: 0 hr 17 min 24 sec) 
Heartbeat CPU 0 instructions: 210000002 cycles: 488660485 heartbeat IPC: 0.338156 cumulative IPC: 0.337521 (Simulation time: 0 hr 18 min 18 sec) 
*** Reached end of trace for Core: 0 Repeating trace: traces/spec2k17/srv_43.champsimtrace.xz
Heartbeat CPU 0 instructions: 220000000 cycles: 518277252 heartbeat IPC: 0.337647 cumulative IPC: 0.337529 (Simulation time: 0 hr 19 min 17 sec) 
Heartbeat CPU 0 instructions: 230000003 cycles: 547909136 heartbeat IPC: 0.337474 cumulative IPC: 0.337526 (Simulation time: 0 hr 20 min 10 sec) 
Heartbeat CPU 0 instructions: 240000000 cycles: 577444433 heartbeat IPC: 0.338578 cumulative IPC: 0.337581 (Simulation time: 0 hr 21 min 4 sec) 
*** Reached end of trace for Core: 0 Repeating trace: traces/spec2k17/srv_43.champsimtrace.xz
Heartbeat CPU 0 instructions: 250000002 cycles: 607064116 heartbeat IPC: 0.337613 cumulative IPC: 0.337582 (Simulation time: 0 hr 22 min 3 sec) 
Finished CPU 0 instructions: 200000001 cycles: 592447838 cumulative IPC: 0.337582 (Simulation time: 0 hr 22 min 3 sec) 

ChampSim completed all CPUs

Region of Interest Statistics

CPU 0 cumulative IPC: 0.337582 instructions: 200000001 cycles: 592447838
ITLB TOTAL     ACCESS:   34760551  HIT:   33114950  MISS:    1645601  HIT %:    95.2659  MISS %:    4.73411   MPKI: 8.228
ITLB LOAD TRANSLATION ACCESS:   34760551  HIT:   33114950  MISS:    1645601  HIT %:    95.2659  MISS %:    4.73411   MPKI: 8.228
ITLB PREFETCH  REQUESTED:          0  ISSUED:          0  USEFUL:          0  USELESS:          0
ITLB USEFUL LOAD PREFETCHES:          0 PREFETCH ISSUED TO LOWER LEVEL:          0  ACCURACY: -nan
ITLB TIMELY PREFETCHES:          0 LATE PREFETCHES: 0 DROPPED PREFETCHES: 0
ITLB PREFETCHES SAME FILL-ORIGIN LEVEL: 0 DIFFERENT FILL-ORIGIN LEVEL: 0
ITLB AVERAGE MISS LATENCY: 9.64388 cycles
ITLB RQ	ACCESS:   40674544	FORWARD:          0	MERGED:    5423253	TO_CACHE:   35251291

DTLB TOTAL     ACCESS:   45835747  HIT:   44023967  MISS:    1811780  HIT %:    96.0472  MISS %:    3.95277   MPKI: 9.0589
DTLB LOAD TRANSLATION ACCESS:   45835747  HIT:   44023967  MISS:    1811780  HIT %:    96.0472  MISS %:    3.95277   MPKI: 9.0589
DTLB PREFETCH  REQUESTED:          0  ISSUED:          0  USEFUL:          0  USELESS:          0
DTLB USEFUL LOAD PREFETCHES:          0 PREFETCH ISSUED TO LOWER LEVEL:          0  ACCURACY: -nan
DTLB TIMELY PREFETCHES:          0 LATE PREFETCHES: 0 DROPPED PREFETCHES: 0
DTLB PREFETCHES SAME FILL-ORIGIN LEVEL: 0 DIFFERENT FILL-ORIGIN LEVEL: 0
DTLB AVERAGE MISS LATENCY: 11.9893 cycles
DTLB RQ	ACCESS:   61024955	FORWARD:          0	MERGED:   15072765	TO_CACHE:   45952190

STLB TOTAL     ACCESS:    3568153  HIT:    3449731  MISS:     118422  HIT %:    96.6811  MISS %:    3.31886   MPKI: 0.59211
STLB LOAD TRANSLATION ACCESS:    3457381  HIT:    3339245  MISS:     118136  HIT %:    96.5831  MISS %:    3.41692   MPKI: 0.59068
STLB TRANSLATION FROM L1D PREFETCHER ACCESS:     110772  HIT:     110486  MISS:        286  HIT %:    99.7418  MISS %:   0.258188   MPKI: 0.00143
STLB PREFETCH  REQUESTED:          0  ISSUED:          0  USEFUL:        269  USELESS:         17
STLB USEFUL LOAD PREFETCHES:        269 PREFETCH ISSUED TO LOWER LEVEL:          0  ACCURACY: inf
STLB TIMELY PREFETCHES:        269 LATE PREFETCHES: 28 DROPPED PREFETCHES: 1159
STLB PREFETCHES SAME FILL-ORIGIN LEVEL: 0 DIFFERENT FILL-ORIGIN LEVEL: 0
STLB AVERAGE MISS LATENCY: 54.4488 cycles
STLB RQ	ACCESS:    3664340	FORWARD:          0	MERGED:      94851	TO_CACHE:    3569489

STLB Hit, L1D data hit: 0
STLB Hit, L2C data hit: 0
STLB Hit, LLC data hit: 0
STLB Hit, LLC data miss: 0
STLB STLB hints to L2: 0
L1D TOTAL     ACCESS:   59021704  HIT:   54531401  MISS:    4490303  HIT %:    92.3921  MISS %:    7.60788   MPKI: 22.4515
L1D LOAD      ACCESS:   35345783  HIT:   32151544  MISS:    3194239  HIT %:    90.9629  MISS %:    9.03711   MPKI: 15.9712
L1D RFO       ACCESS:   23588842  HIT:   22300267  MISS:    1288575  HIT %:    94.5374  MISS %:    5.46265   MPKI: 6.44287
L1D PREFETCH  ACCESS:      87079  HIT:      79590  MISS:       7489  HIT %:    91.3998  MISS %:    8.60024   MPKI: 0.037445
L1D PREFETCH  REQUESTED:     524708  ISSUED:     471109  USEFUL:       6000  USELESS:       1489
L1D USEFUL LOAD PREFETCHES:       6000 PREFETCH ISSUED TO LOWER LEVEL:     114080  ACCURACY: 5.25947
L1D TIMELY PREFETCHES:       6000 LATE PREFETCHES: 3576 DROPPED PREFETCHES: 2504
L1D PREFETCHES SAME FILL-ORIGIN LEVEL: 11065 DIFFERENT FILL-ORIGIN LEVEL: 103015
L1D AVERAGE MISS LATENCY: 27.4089 cycles
L1D RQ	ACCESS:   46597009	FORWARD:          0	MERGED:   10891581	TO_CACHE:   35491021
L1D WQ	ACCESS:   25869328	FORWARD:     214407	MERGED:     335394	TO_CACHE:   25533934
L1D PQ	ACCESS:     264150	FORWARD:          0	MERGED:      57191	TO_CACHE:     206959

L1D UNIQUE REGIONS ACCESSED: 0
L1D REGIONS CONFLICTS: 0
L1D Cross Page Prefetch Requests: 43446
L1D Same Page Prefetch Requests: 299314
L1D ROI Sum of L1D PQ occupancy: 3234822
L1D PREFETCHES PUSHED FROM L2C: 0
L1I TOTAL     ACCESS:   39393268  HIT:   30954820  MISS:    8438448  HIT %:     78.579  MISS %:     21.421   MPKI: 42.1922
L1I LOAD      ACCESS:   39393268  HIT:   30954820  MISS:    8438448  HIT %:     78.579  MISS %:     21.421   MPKI: 42.1922
L1I PREFETCH  REQUESTED:          0  ISSUED:          0  USEFUL:          0  USELESS:          0
L1I USEFUL LOAD PREFETCHES:          0 PREFETCH ISSUED TO LOWER LEVEL:          0  ACCURACY: -nan
L1I TIMELY PREFETCHES:          0 LATE PREFETCHES: 0 DROPPED PREFETCHES: 0
L1I PREFETCHES SAME FILL-ORIGIN LEVEL: 0 DIFFERENT FILL-ORIGIN LEVEL: 0
L1I AVERAGE MISS LATENCY: 19.1489 cycles
L1I RQ	ACCESS:   59997090	FORWARD:          0	MERGED:   19322546	TO_CACHE:   40674544

BTB TOTAL     ACCESS:   29897603  HIT:   19967868  MISS:    9929735  HIT %:    66.7875  MISS %:    33.2125   MPKI: 49.6487
BTB BRANCH_DIRECT_JUMP	ACCESS:    2615827  HIT:    1794124  MISS:     821703
BTB BRANCH_INDIRECT	ACCESS:   12513602  HIT:    8361778  MISS:    4151824
BTB BRANCH_CONDITIONAL	ACCESS:    6697250  HIT:    5806240  MISS:     891010
BTB BRANCH_DIRECT_CALL	ACCESS:    3083799  HIT:    1615768  MISS:    1468031
BTB BRANCH_INDIRECT_CALL	ACCESS:     951675  HIT:     669300  MISS:     282375
BTB BRANCH_RETURN	ACCESS:    4035450  HIT:    1720658  MISS:    2314792
BTB BRANCH_OTHER ACCESS:          0  HIT:          0  MISS:          0

L2C TOTAL     ACCESS:   15279274  HIT:   12163243  MISS:    3116031  HIT %:    79.6062  MISS %:    20.3938   MPKI: 15.5802
L2C LOAD      ACCESS:   11629088  HIT:    9262765  MISS:    2366323  HIT %:    79.6517  MISS %:    20.3483   MPKI: 11.8316
L2C DATA LOAD MPKI: 4.75677
L2C INSTRUCTION LOAD MPKI: 7.07484
L2C RFO       ACCESS:    1288575  HIT:     762466  MISS:     526109  HIT %:    59.1713  MISS %:    40.8287   MPKI: 2.63054
L2C PREFETCH  ACCESS:     103143  HIT:      73537  MISS:      29606  HIT %:    71.2962  MISS %:    28.7038   MPKI: 0.14803
L2C DATA PREFETCH MPKI: 0.14803
L2C INSTRUCTION PREFETCH MPKI: 0
L2C WRITEBACK ACCESS:    2048932  HIT:    1945619  MISS:     103313  HIT %:    94.9577  MISS %:    5.04229   MPKI: 0.516565
L2C LOAD TRANSLATION ACCESS:     207721  HIT:     117566  MISS:      90155  HIT %:     56.598  MISS %:     43.402   MPKI: 0.450775
L2C TRANSLATION FROM L1D PREFETCHER ACCESS:       1815  HIT:       1290  MISS:        525  HIT %:    71.0744  MISS %:    28.9256   MPKI: 0.002625
L2C PREFETCH  REQUESTED:          0  ISSUED:          0  USEFUL:       6164  USELESS:      23978
L2C USEFUL LOAD PREFETCHES:       6164 PREFETCH ISSUED TO LOWER LEVEL:      32275  ACCURACY: 19.0984
L2C TIMELY PREFETCHES:       6164 LATE PREFETCHES: 2669 DROPPED PREFETCHES: 0
L2C PREFETCHES SAME FILL-ORIGIN LEVEL: 26525 DIFFERENT FILL-ORIGIN LEVEL: 0
L2C AVERAGE MISS LATENCY: 33.1288 cycles
L2C RQ	ACCESS:   13127222	FORWARD:          0	MERGED:          0	TO_CACHE:   13127199
L2C WQ	ACCESS:    2048932	FORWARD:         23	MERGED:          0	TO_CACHE:    2048932
L2C PQ	ACCESS:     114080	FORWARD:          0	MERGED:        310	TO_CACHE:     113770

L2C Instructions Evicting Data 591729
L2C Translations Evicting Data 61675
L2C Data Evicting Data 896962
L2C Instructions Evicting Instructions 796667
L2C Translations Evicting Instructions 25549
L2C Data Evicting Instructions 552311
L2C Instructions Evicting Translations 26573
L2C Translations Evicting Translations 3456
L2C Data Evicting Translations 57796
L2C Dense regions hint from L2: 0
PSCL5 TOTAL     ACCESS:     119581  HIT:     119581  MISS:          0  HIT %:        100  MISS %:          0   MPKI: 0
PSCL5 LOAD TRANSLATION ACCESS:     118108  HIT:     118108  MISS:          0  HIT %:        100  MISS %:          0   MPKI: 0
PSCL5 TRANSLATION FROM L1D PREFETCHER ACCESS:       1473  HIT:       1473  MISS:          0  HIT %:        100  MISS %:          0   MPKI: 0
PSCL5 PREFETCH  REQUESTED:          0  ISSUED:          0  USEFUL:          0  USELESS:          0
PSCL5 USEFUL LOAD PREFETCHES:          0 PREFETCH ISSUED TO LOWER LEVEL:          0  ACCURACY: -nan
PSCL5 TIMELY PREFETCHES:          0 LATE PREFETCHES: 0 DROPPED PREFETCHES: 0
PSCL5 PREFETCHES SAME FILL-ORIGIN LEVEL: 0 DIFFERENT FILL-ORIGIN LEVEL: 0

PSCL4 TOTAL     ACCESS:     112796  HIT:     109464  MISS:       3332  HIT %:     97.046  MISS %:    2.95401   MPKI: 0.01666
PSCL4 LOAD TRANSLATION ACCESS:     111323  HIT:     107991  MISS:       3332  HIT %:    97.0069  MISS %:    2.99309   MPKI: 0.01666
PSCL4 TRANSLATION FROM L1D PREFETCHER ACCESS:       1473  HIT:       1473  MISS:          0  HIT %:        100  MISS %:          0   MPKI: 0
PSCL4 PREFETCH  REQUESTED:          0  ISSUED:          0  USEFUL:          0  USELESS:          0
PSCL4 USEFUL LOAD PREFETCHES:          0 PREFETCH ISSUED TO LOWER LEVEL:          0  ACCURACY: -nan
PSCL4 TIMELY PREFETCHES:          0 LATE PREFETCHES: 0 DROPPED PREFETCHES: 0
PSCL4 PREFETCHES SAME FILL-ORIGIN LEVEL: 0 DIFFERENT FILL-ORIGIN LEVEL: 0

PSCL3 TOTAL     ACCESS:     112733  HIT:      89210  MISS:      23523  HIT %:    79.1339  MISS %:    20.8661   MPKI: 0.117615
PSCL3 LOAD TRANSLATION ACCESS:     111427  HIT:      87904  MISS:      23523  HIT %:    78.8893  MISS %:    21.1107   MPKI: 0.117615
PSCL3 TRANSLATION FROM L1D PREFETCHER ACCESS:       1306  HIT:       1306  MISS:          0  HIT %:        100  MISS %:          0   MPKI: 0
PSCL3 PREFETCH  REQUESTED:          0  ISSUED:          0  USEFUL:          0  USELESS:          0
PSCL3 USEFUL LOAD PREFETCHES:          0 PREFETCH ISSUED TO LOWER LEVEL:          0  ACCURACY: -nan
PSCL3 TIMELY PREFETCHES:          0 LATE PREFETCHES: 0 DROPPED PREFETCHES: 0
PSCL3 PREFETCHES SAME FILL-ORIGIN LEVEL: 0 DIFFERENT FILL-ORIGIN LEVEL: 0

PSCL2 TOTAL     ACCESS:     119320  HIT:      56532  MISS:      62788  HIT %:    47.3785  MISS %:    52.6215   MPKI: 0.31394
PSCL2 LOAD TRANSLATION ACCESS:     118132  HIT:      55344  MISS:      62788  HIT %:    46.8493  MISS %:    53.1507   MPKI: 0.31394
PSCL2 TRANSLATION FROM L1D PREFETCHER ACCESS:       1188  HIT:       1188  MISS:          0  HIT %:        100  MISS %:          0   MPKI: 0
PSCL2 PREFETCH  REQUESTED:          0  ISSUED:          0  USEFUL:          0  USELESS:          0
PSCL2 USEFUL LOAD PREFETCHES:          0 PREFETCH ISSUED TO LOWER LEVEL:          0  ACCURACY: -nan
PSCL2 TIMELY PREFETCHES:          0 LATE PREFETCHES: 0 DROPPED PREFETCHES: 0
PSCL2 PREFETCHES SAME FILL-ORIGIN LEVEL: 0 DIFFERENT FILL-ORIGIN LEVEL: 0

LLC TOTAL     ACCESS:    3780528  HIT:    3702225  MISS:      78303  HIT %:    97.9288  MISS %:    2.07122   MPKI: 0.391515
LLC LOAD      ACCESS:    2363660  HIT:    2312425  MISS:      51235  HIT %:    97.8324  MISS %:    2.16761   MPKI: 0.256175
LLC RFO       ACCESS:     526103  HIT:     507400  MISS:      18703  HIT %:     96.445  MISS %:    3.55501   MPKI: 0.093515
LLC PREFETCH  ACCESS:      32275  HIT:      26788  MISS:       5487  HIT %:    82.9992  MISS %:    17.0008   MPKI: 0.027435
LLC WRITEBACK ACCESS:     767810  HIT:     767690  MISS:        120  HIT %:    99.9844  MISS %:  0.0156289   MPKI: 0.0006
LLC LOAD TRANSLATION ACCESS:      90155  HIT:      87432  MISS:       2723  HIT %:    96.9796  MISS %:    3.02035   MPKI: 0.013615
LLC TRANSLATION FROM L1D PREFETCHER ACCESS:        525  HIT:        490  MISS:         35  HIT %:    93.3333  MISS %:    6.66667   MPKI: 0.000175
LLC PREFETCH  REQUESTED:          0  ISSUED:          0  USEFUL:        358  USELESS:       5623
LLC USEFUL LOAD PREFETCHES:        358 PREFETCH ISSUED TO LOWER LEVEL:       5487  ACCURACY: 6.52451
LLC TIMELY PREFETCHES:        358 LATE PREFETCHES: 0 DROPPED PREFETCHES: 0
LLC PREFETCHES SAME FILL-ORIGIN LEVEL: 0 DIFFERENT FILL-ORIGIN LEVEL: 0
LLC AVERAGE MISS LATENCY: 166.48 cycles
LLC RQ	ACCESS:    2980443	FORWARD:          0	MERGED:          0	TO_CACHE:    2980443
LLC WQ	ACCESS:     767810	FORWARD:          0	MERGED:          0	TO_CACHE:     767810
LLC PQ	ACCESS:      32275	FORWARD:          0	MERGED:          0	TO_CACHE:      32275

LLC Dense regions hint to LLC: 0

RAW hits: 3186505
Loads Generated: 49783514
Loads sent to L1D: 46597009
Stores Generated: 25869307
Stores sent to L1D: 25869328
Major fault: 0 Minor fault: 4436
Allocated PAGES: 4436

DRAM Statistics
 CHANNEL 0
 RQ ROW_BUFFER_HIT:      16584  ROW_BUFFER_MISS:      61594
 DBUS_CONGESTED:         66
 WQ ROW_BUFFER_HIT:       3979  ROW_BUFFER_MISS:      36376  FULL:          0

 AVG_CONGESTED_CYCLE: 5
 All warmup complete: 2
Channel 0 Bank busy for read cycles: 0
Channel 0 Bank busy for write cycles: 0
Channel 0
Rank 0
0banks busy for read cycles: 579498193
0banks busy for write cycles: 25768
1banks busy for read cycles: 6860867
1banks busy for write cycles: 3796836
2banks busy for read cycles: 832189
2banks busy for write cycles: 694389
3banks busy for read cycles: 186617
3banks busy for write cycles: 172934
4banks busy for read cycles: 45868
4banks busy for write cycles: 43148
5banks busy for read cycles: 27963
5banks busy for write cycles: 16974
6banks busy for read cycles: 25425
6banks busy for write cycles: 15055
7banks busy for read cycles: 25623
7banks busy for write cycles: 23987
8banks busy for read cycles: 43267
8banks busy for write cycles: 112736

CPU 0 Branch Prediction Accuracy: 99.8237% MPKI: 0.313695 Average ROB Occupancy at Mispredict: 38.4779
Branch types
NOT_BRANCH: 164410969 82.2055%
BRANCH_DIRECT_JUMP: 2615827 1.30791%
BRANCH_INDIRECT: 12513602 6.2568%
BRANCH_CONDITIONAL: 12388308 6.19415%
BRANCH_DIRECT_CALL: 3083799 1.5419%
BRANCH_INDIRECT_CALL: 951675 0.475837%
BRANCH_RETURN: 4035450 2.01772%
BRANCH_OTHER: 0 0%

DRAM PAGES: 1048576
Allocated PAGES: 4436
