
*** ChampSim Multicore Out-of-Order Simulator ***

Warmup Instructions: 50000000
Simulation Instructions: 200000000
Number of CPUs: 1
LLC sets: 2048
LLC ways: 16
Off-chip DRAM Size: 4096 MB Channels: 1 Width: 64-bit Data Rate: 6400 MT/s
CPU 0 runs traces/spec2k17/srv_0.champsimtrace.xz
.xz
BTB has LRU replacement policy
ITLB has LRU replacement policy
DTLB has LRU replacement policy
STLB has LRU replacement policy
L1I has LRU replacement policy
History Sets: 8
History Ways: 16
BERTI Size: 16
BERTI Stride Size: 16
L1D has LRU replacement policy
Initialize SRRIP state for L2C
Initialize DRRIP state for LLC
Heartbeat CPU 0 instructions: 10000003 cycles: 2781556 heartbeat IPC: 3.59511 cumulative IPC: 3.59511 (Simulation time: 0 hr 0 min 36 sec) 
Heartbeat CPU 0 instructions: 20000000 cycles: 5554563 heartbeat IPC: 3.60619 cumulative IPC: 3.60064 (Simulation time: 0 hr 1 min 9 sec) 
Heartbeat CPU 0 instructions: 30000001 cycles: 8327723 heartbeat IPC: 3.60599 cumulative IPC: 3.60243 (Simulation time: 0 hr 1 min 47 sec) 
*** Reached end of trace for Core: 0 Repeating trace: traces/spec2k17/srv_0.champsimtrace.xz
Heartbeat CPU 0 instructions: 40000002 cycles: 11103094 heartbeat IPC: 3.60312 cumulative IPC: 3.6026 (Simulation time: 0 hr 2 min 25 sec) 
Heartbeat CPU 0 instructions: 50000000 cycles: 13876087 heartbeat IPC: 3.60621 cumulative IPC: 3.60332 (Simulation time: 0 hr 3 min 3 sec) 

Warmup complete CPU 0 instructions: 50000004 cycles: 13876088 (Simulation time: 0 hr 3 min 3 sec) 

Heartbeat CPU 0 instructions: 60000000 cycles: 37432050 heartbeat IPC: 0.424521 cumulative IPC: 0.424521 (Simulation time: 0 hr 3 min 58 sec) 
*** Reached end of trace for Core: 0 Repeating trace: traces/spec2k17/srv_0.champsimtrace.xz
Heartbeat CPU 0 instructions: 70000001 cycles: 61318027 heartbeat IPC: 0.418656 cumulative IPC: 0.421568 (Simulation time: 0 hr 4 min 50 sec) 
Heartbeat CPU 0 instructions: 80000001 cycles: 84873032 heartbeat IPC: 0.424538 cumulative IPC: 0.422553 (Simulation time: 0 hr 5 min 40 sec) 
Heartbeat CPU 0 instructions: 90000002 cycles: 108228816 heartbeat IPC: 0.42816 cumulative IPC: 0.423941 (Simulation time: 0 hr 6 min 26 sec) 
*** Reached end of trace for Core: 0 Repeating trace: traces/spec2k17/srv_0.champsimtrace.xz
Heartbeat CPU 0 instructions: 100000000 cycles: 132092907 heartbeat IPC: 0.41904 cumulative IPC: 0.422952 (Simulation time: 0 hr 7 min 19 sec) 
Heartbeat CPU 0 instructions: 110000000 cycles: 155756088 heartbeat IPC: 0.422597 cumulative IPC: 0.422893 (Simulation time: 0 hr 8 min 15 sec) 
Heartbeat CPU 0 instructions: 120000002 cycles: 179292486 heartbeat IPC: 0.424874 cumulative IPC: 0.423174 (Simulation time: 0 hr 9 min 6 sec) 
*** Reached end of trace for Core: 0 Repeating trace: traces/spec2k17/srv_0.champsimtrace.xz
Heartbeat CPU 0 instructions: 130000000 cycles: 203054579 heartbeat IPC: 0.420838 cumulative IPC: 0.422881 (Simulation time: 0 hr 9 min 56 sec) 
Heartbeat CPU 0 instructions: 140000003 cycles: 226600814 heartbeat IPC: 0.424696 cumulative IPC: 0.423082 (Simulation time: 0 hr 10 min 45 sec) 
Heartbeat CPU 0 instructions: 150000000 cycles: 250077324 heartbeat IPC: 0.425958 cumulative IPC: 0.423368 (Simulation time: 0 hr 11 min 35 sec) 
*** Reached end of trace for Core: 0 Repeating trace: traces/spec2k17/srv_0.champsimtrace.xz
Heartbeat CPU 0 instructions: 160000002 cycles: 273503335 heartbeat IPC: 0.426876 cumulative IPC: 0.423684 (Simulation time: 0 hr 12 min 28 sec) 
Heartbeat CPU 0 instructions: 170000001 cycles: 297225454 heartbeat IPC: 0.421547 cumulative IPC: 0.423505 (Simulation time: 0 hr 13 min 20 sec) 
Heartbeat CPU 0 instructions: 180000001 cycles: 320706549 heartbeat IPC: 0.425875 cumulative IPC: 0.423687 (Simulation time: 0 hr 14 min 10 sec) 
*** Reached end of trace for Core: 0 Repeating trace: traces/spec2k17/srv_0.champsimtrace.xz
Heartbeat CPU 0 instructions: 190000000 cycles: 344055203 heartbeat IPC: 0.42829 cumulative IPC: 0.424012 (Simulation time: 0 hr 15 min 4 sec) 
Heartbeat CPU 0 instructions: 200000001 cycles: 367981318 heartbeat IPC: 0.417953 cumulative IPC: 0.423603 (Simulation time: 0 hr 16 min 1 sec) 
Heartbeat CPU 0 instructions: 210000000 cycles: 391335306 heartbeat IPC: 0.428192 cumulative IPC: 0.423887 (Simulation time: 0 hr 16 min 51 sec) 
*** Reached end of trace for Core: 0 Repeating trace: traces/spec2k17/srv_0.champsimtrace.xz
Heartbeat CPU 0 instructions: 220000000 cycles: 414832335 heartbeat IPC: 0.425586 cumulative IPC: 0.423986 (Simulation time: 0 hr 17 min 38 sec) 
Heartbeat CPU 0 instructions: 230000003 cycles: 438768176 heartbeat IPC: 0.417784 cumulative IPC: 0.423637 (Simulation time: 0 hr 18 min 27 sec) 
Heartbeat CPU 0 instructions: 240000003 cycles: 461749889 heartbeat IPC: 0.435129 cumulative IPC: 0.424227 (Simulation time: 0 hr 19 min 23 sec) 
*** Reached end of trace for Core: 0 Repeating trace: traces/spec2k17/srv_0.champsimtrace.xz
Heartbeat CPU 0 instructions: 250000003 cycles: 485269883 heartbeat IPC: 0.42517 cumulative IPC: 0.424274 (Simulation time: 0 hr 20 min 13 sec) 
Finished CPU 0 instructions: 200000003 cycles: 471393796 cumulative IPC: 0.424274 (Simulation time: 0 hr 20 min 13 sec) 

ChampSim completed all CPUs

Region of Interest Statistics

CPU 0 cumulative IPC: 0.424274 instructions: 200000003 cycles: 471393796
ITLB TOTAL     ACCESS:   31490414  HIT:   30686574  MISS:     803840  HIT %:    97.4474  MISS %:    2.55265   MPKI: 4.0192
ITLB LOAD TRANSLATION ACCESS:   31490414  HIT:   30686574  MISS:     803840  HIT %:    97.4474  MISS %:    2.55265   MPKI: 4.0192
ITLB PREFETCH  REQUESTED:          0  ISSUED:          0  USEFUL:          0  USELESS:          0
ITLB USEFUL LOAD PREFETCHES:          0 PREFETCH ISSUED TO LOWER LEVEL:          0  ACCURACY: -nan
ITLB TIMELY PREFETCHES:          0 LATE PREFETCHES: 0 DROPPED PREFETCHES: 0
ITLB PREFETCHES SAME FILL-ORIGIN LEVEL: 0 DIFFERENT FILL-ORIGIN LEVEL: 0
ITLB AVERAGE MISS LATENCY: 15.6392 cycles
ITLB RQ	ACCESS:   38370205	FORWARD:          0	MERGED:    6685270	TO_CACHE:   31684935

DTLB TOTAL     ACCESS:   37417952  HIT:   34867538  MISS:    2550414  HIT %:     93.184  MISS %:    6.81602   MPKI: 12.7521
DTLB LOAD TRANSLATION ACCESS:   37417952  HIT:   34867538  MISS:    2550414  HIT %:     93.184  MISS %:    6.81602   MPKI: 12.7521
DTLB PREFETCH  REQUESTED:          0  ISSUED:          0  USEFUL:          0  USELESS:          0
DTLB USEFUL LOAD PREFETCHES:          0 PREFETCH ISSUED TO LOWER LEVEL:          0  ACCURACY: -nan
DTLB TIMELY PREFETCHES:          0 LATE PREFETCHES: 0 DROPPED PREFETCHES: 0
DTLB PREFETCHES SAME FILL-ORIGIN LEVEL: 0 DIFFERENT FILL-ORIGIN LEVEL: 0
DTLB AVERAGE MISS LATENCY: 14.0149 cycles
DTLB RQ	ACCESS:   47819186	FORWARD:          0	MERGED:   10248607	TO_CACHE:   37570579

STLB TOTAL     ACCESS:    3446840  HIT:    2991304  MISS:     455536  HIT %:     86.784  MISS %:     13.216   MPKI: 2.27768
STLB LOAD TRANSLATION ACCESS:    3354254  HIT:    2899799  MISS:     454455  HIT %:    86.4514  MISS %:    13.5486   MPKI: 2.27227
STLB TRANSLATION FROM L1D PREFETCHER ACCESS:      92586  HIT:      91505  MISS:       1081  HIT %:    98.8324  MISS %:    1.16756   MPKI: 0.005405
STLB PREFETCH  REQUESTED:          0  ISSUED:          0  USEFUL:       1035  USELESS:         46
STLB USEFUL LOAD PREFETCHES:       1035 PREFETCH ISSUED TO LOWER LEVEL:          0  ACCURACY: inf
STLB TIMELY PREFETCHES:       1035 LATE PREFETCHES: 2 DROPPED PREFETCHES: 1054
STLB PREFETCHES SAME FILL-ORIGIN LEVEL: 0 DIFFERENT FILL-ORIGIN LEVEL: 0
STLB AVERAGE MISS LATENCY: 39.6734 cycles
STLB RQ	ACCESS:    3743892	FORWARD:          0	MERGED:     295788	TO_CACHE:    3448104

STLB Hit, L1D data hit: 0
STLB Hit, L2C data hit: 0
STLB Hit, LLC data hit: 0
STLB Hit, LLC data miss: 0
STLB STLB hints to L2: 0
L1D TOTAL     ACCESS:   47483991  HIT:   44977785  MISS:    2506206  HIT %:     94.722  MISS %:      5.278   MPKI: 12.531
L1D LOAD      ACCESS:   27847631  HIT:   25738873  MISS:    2108758  HIT %:    92.4275  MISS %:    7.57249   MPKI: 10.5438
L1D RFO       ACCESS:   19427065  HIT:   19076885  MISS:     350180  HIT %:    98.1975  MISS %:    1.80254   MPKI: 1.7509
L1D PREFETCH  ACCESS:     209295  HIT:     162027  MISS:      47268  HIT %:    77.4156  MISS %:    22.5844   MPKI: 0.23634
L1D PREFETCH  REQUESTED:    1005580  ISSUED:     988102  USEFUL:      42361  USELESS:       4907
L1D USEFUL LOAD PREFETCHES:      42361 PREFETCH ISSUED TO LOWER LEVEL:     202541  ACCURACY: 20.9148
L1D TIMELY PREFETCHES:      42361 LATE PREFETCHES: 719 DROPPED PREFETCHES: 1366
L1D PREFETCHES SAME FILL-ORIGIN LEVEL: 47987 DIFFERENT FILL-ORIGIN LEVEL: 154554
L1D AVERAGE MISS LATENCY: 44.6944 cycles
L1D RQ	ACCESS:   42083093	FORWARD:          0	MERGED:   13900731	TO_CACHE:   27981871
L1D WQ	ACCESS:   20137758	FORWARD:     200492	MERGED:     300443	TO_CACHE:   19837315
L1D PQ	ACCESS:     598464	FORWARD:          0	MERGED:     208825	TO_CACHE:     389638

L1D UNIQUE REGIONS ACCESSED: 0
L1D REGIONS CONFLICTS: 0
L1D Cross Page Prefetch Requests: 89111
L1D Same Page Prefetch Requests: 689331
L1D ROI Sum of L1D PQ occupancy: 5778745
L1D PREFETCHES PUSHED FROM L2C: 0
L1I TOTAL     ACCESS:   36683263  HIT:   31518487  MISS:    5164776  HIT %:    85.9206  MISS %:    14.0794   MPKI: 25.8239
L1I LOAD      ACCESS:   36683263  HIT:   31518487  MISS:    5164776  HIT %:    85.9206  MISS %:    14.0794   MPKI: 25.8239
L1I PREFETCH  REQUESTED:          0  ISSUED:          0  USEFUL:          0  USELESS:          0
L1I USEFUL LOAD PREFETCHES:          0 PREFETCH ISSUED TO LOWER LEVEL:          0  ACCURACY: -nan
L1I TIMELY PREFETCHES:          0 LATE PREFETCHES: 0 DROPPED PREFETCHES: 0
L1I PREFETCHES SAME FILL-ORIGIN LEVEL: 0 DIFFERENT FILL-ORIGIN LEVEL: 0
L1I AVERAGE MISS LATENCY: 27.7967 cycles
L1I RQ	ACCESS:   57147369	FORWARD:          0	MERGED:   18777164	TO_CACHE:   38370205

BTB TOTAL     ACCESS:   22550836  HIT:   17495671  MISS:    5055165  HIT %:    77.5832  MISS %:    22.4168   MPKI: 25.2758
BTB BRANCH_DIRECT_JUMP	ACCESS:    1746702  HIT:    1443261  MISS:     303441
BTB BRANCH_INDIRECT	ACCESS:    9682796  HIT:    7307546  MISS:    2375250
BTB BRANCH_CONDITIONAL	ACCESS:    4538075  HIT:    4055500  MISS:     482575
BTB BRANCH_DIRECT_CALL	ACCESS:    2563120  HIT:    1968742  MISS:     594378
BTB BRANCH_INDIRECT_CALL	ACCESS:     725676  HIT:     668377  MISS:      57299
BTB BRANCH_RETURN	ACCESS:    3294467  HIT:    2052245  MISS:    1242222
BTB BRANCH_OTHER ACCESS:          0  HIT:          0  MISS:          0

L2C TOTAL     ACCESS:    9383863  HIT:    5458393  MISS:    3925470  HIT %:    58.1679  MISS %:    41.8321   MPKI: 19.6273
L2C LOAD      ACCESS:    7272779  HIT:    3882657  MISS:    3390122  HIT %:    53.3862  MISS %:    46.6138   MPKI: 16.9506
L2C DATA LOAD MPKI: 5.41604
L2C INSTRUCTION LOAD MPKI: 11.5346
L2C RFO       ACCESS:     350180  HIT:     171687  MISS:     178493  HIT %:    49.0282  MISS %:    50.9718   MPKI: 0.892465
L2C PREFETCH  ACCESS:     182665  HIT:     101543  MISS:      81122  HIT %:    55.5897  MISS %:    44.4103   MPKI: 0.40561
L2C DATA PREFETCH MPKI: 0.40561
L2C INSTRUCTION PREFETCH MPKI: 0
L2C WRITEBACK ACCESS:     998979  HIT:     939569  MISS:      59410  HIT %:    94.0529  MISS %:    5.94707   MPKI: 0.29705
L2C LOAD TRANSLATION ACCESS:     576971  HIT:     360817  MISS:     216154  HIT %:    62.5364  MISS %:    37.4636   MPKI: 1.08077
L2C TRANSLATION FROM L1D PREFETCHER ACCESS:       2289  HIT:       2120  MISS:        169  HIT %:    92.6169  MISS %:    7.38314   MPKI: 0.000845
L2C PREFETCH  REQUESTED:          0  ISSUED:          0  USEFUL:      18569  USELESS:      62680
L2C USEFUL LOAD PREFETCHES:      18569 PREFETCH ISSUED TO LOWER LEVEL:      82152  ACCURACY: 22.6032
L2C TIMELY PREFETCHES:      18569 LATE PREFETCHES: 1030 DROPPED PREFETCHES: 0
L2C PREFETCHES SAME FILL-ORIGIN LEVEL: 70472 DIFFERENT FILL-ORIGIN LEVEL: 0
L2C AVERAGE MISS LATENCY: 39.7155 cycles
L2C RQ	ACCESS:    8202255	FORWARD:          0	MERGED:          0	TO_CACHE:    8202219
L2C WQ	ACCESS:     998979	FORWARD:         36	MERGED:          0	TO_CACHE:     998979
L2C PQ	ACCESS:     202541	FORWARD:          0	MERGED:        391	TO_CACHE:     202150

L2C Instructions Evicting Data 820704
L2C Translations Evicting Data 77203
L2C Data Evicting Data 481231
L2C Instructions Evicting Instructions 1359017
L2C Translations Evicting Instructions 126697
L2C Data Evicting Instructions 788296
L2C Instructions Evicting Translations 127193
L2C Translations Evicting Translations 12423
L2C Data Evicting Translations 73296
L2C Dense regions hint from L2: 0
PSCL5 TOTAL     ACCESS:     456590  HIT:     456590  MISS:          0  HIT %:        100  MISS %:          0   MPKI: 0
PSCL5 LOAD TRANSLATION ACCESS:     454453  HIT:     454453  MISS:          0  HIT %:        100  MISS %:          0   MPKI: 0
PSCL5 TRANSLATION FROM L1D PREFETCHER ACCESS:       2137  HIT:       2137  MISS:          0  HIT %:        100  MISS %:          0   MPKI: 0
PSCL5 PREFETCH  REQUESTED:          0  ISSUED:          0  USEFUL:          0  USELESS:          0
PSCL5 USEFUL LOAD PREFETCHES:          0 PREFETCH ISSUED TO LOWER LEVEL:          0  ACCURACY: -nan
PSCL5 TIMELY PREFETCHES:          0 LATE PREFETCHES: 0 DROPPED PREFETCHES: 0
PSCL5 PREFETCHES SAME FILL-ORIGIN LEVEL: 0 DIFFERENT FILL-ORIGIN LEVEL: 0

PSCL4 TOTAL     ACCESS:     439068  HIT:     438128  MISS:        940  HIT %:    99.7859  MISS %:    0.21409   MPKI: 0.0047
PSCL4 LOAD TRANSLATION ACCESS:     437097  HIT:     436157  MISS:        940  HIT %:    99.7849  MISS %:   0.215055   MPKI: 0.0047
PSCL4 TRANSLATION FROM L1D PREFETCHER ACCESS:       1971  HIT:       1971  MISS:          0  HIT %:        100  MISS %:          0   MPKI: 0
PSCL4 PREFETCH  REQUESTED:          0  ISSUED:          0  USEFUL:          0  USELESS:          0
PSCL4 USEFUL LOAD PREFETCHES:          0 PREFETCH ISSUED TO LOWER LEVEL:          0  ACCURACY: -nan
PSCL4 TIMELY PREFETCHES:          0 LATE PREFETCHES: 0 DROPPED PREFETCHES: 0
PSCL4 PREFETCHES SAME FILL-ORIGIN LEVEL: 0 DIFFERENT FILL-ORIGIN LEVEL: 0

PSCL3 TOTAL     ACCESS:     453203  HIT:     449669  MISS:       3534  HIT %:    99.2202  MISS %:   0.779783   MPKI: 0.01767
PSCL3 LOAD TRANSLATION ACCESS:     451066  HIT:     447532  MISS:       3534  HIT %:    99.2165  MISS %:   0.783477   MPKI: 0.01767
PSCL3 TRANSLATION FROM L1D PREFETCHER ACCESS:       2137  HIT:       2137  MISS:          0  HIT %:        100  MISS %:          0   MPKI: 0
PSCL3 PREFETCH  REQUESTED:          0  ISSUED:          0  USEFUL:          0  USELESS:          0
PSCL3 USEFUL LOAD PREFETCHES:          0 PREFETCH ISSUED TO LOWER LEVEL:          0  ACCURACY: -nan
PSCL3 TIMELY PREFETCHES:          0 LATE PREFETCHES: 0 DROPPED PREFETCHES: 0
PSCL3 PREFETCHES SAME FILL-ORIGIN LEVEL: 0 DIFFERENT FILL-ORIGIN LEVEL: 0

PSCL2 TOTAL     ACCESS:     456535  HIT:     338394  MISS:     118141  HIT %:    74.1222  MISS %:    25.8778   MPKI: 0.590705
PSCL2 LOAD TRANSLATION ACCESS:     454550  HIT:     336409  MISS:     118141  HIT %:    74.0092  MISS %:    25.9908   MPKI: 0.590705
PSCL2 TRANSLATION FROM L1D PREFETCHER ACCESS:       1985  HIT:       1985  MISS:          0  HIT %:        100  MISS %:          0   MPKI: 0
PSCL2 PREFETCH  REQUESTED:          0  ISSUED:          0  USEFUL:          0  USELESS:          0
PSCL2 USEFUL LOAD PREFETCHES:          0 PREFETCH ISSUED TO LOWER LEVEL:          0  ACCURACY: -nan
PSCL2 TIMELY PREFETCHES:          0 LATE PREFETCHES: 0 DROPPED PREFETCHES: 0
PSCL2 PREFETCHES SAME FILL-ORIGIN LEVEL: 0 DIFFERENT FILL-ORIGIN LEVEL: 0

LLC TOTAL     ACCESS:    4356543  HIT:    4101515  MISS:     255028  HIT %:    94.1461  MISS %:    5.85391   MPKI: 1.27514
LLC LOAD      ACCESS:    3389086  HIT:    3189432  MISS:     199654  HIT %:    94.1089  MISS %:    5.89109   MPKI: 0.99827
LLC RFO       ACCESS:     178493  HIT:     138335  MISS:      40158  HIT %:    77.5016  MISS %:    22.4984   MPKI: 0.20079
LLC PREFETCH  ACCESS:      82152  HIT:      72317  MISS:       9835  HIT %:    88.0283  MISS %:    11.9717   MPKI: 0.049175
LLC WRITEBACK ACCESS:     490489  HIT:     488719  MISS:       1770  HIT %:    99.6391  MISS %:   0.360864   MPKI: 0.00885
LLC LOAD TRANSLATION ACCESS:     216154  HIT:     212567  MISS:       3587  HIT %:    98.3405  MISS %:    1.65947   MPKI: 0.017935
LLC TRANSLATION FROM L1D PREFETCHER ACCESS:        169  HIT:        145  MISS:         24  HIT %:    85.7988  MISS %:    14.2012   MPKI: 0.00012
LLC PREFETCH  REQUESTED:          0  ISSUED:          0  USEFUL:        904  USELESS:       8701
LLC USEFUL LOAD PREFETCHES:        904 PREFETCH ISSUED TO LOWER LEVEL:       9835  ACCURACY: 9.19166
LLC TIMELY PREFETCHES:        904 LATE PREFETCHES: 0 DROPPED PREFETCHES: 0
LLC PREFETCHES SAME FILL-ORIGIN LEVEL: 0 DIFFERENT FILL-ORIGIN LEVEL: 0
LLC AVERAGE MISS LATENCY: 156.56 cycles
LLC RQ	ACCESS:    3783908	FORWARD:          0	MERGED:          0	TO_CACHE:    3783902
LLC WQ	ACCESS:     490489	FORWARD:          6	MERGED:          0	TO_CACHE:     490489
LLC PQ	ACCESS:      82152	FORWARD:          0	MERGED:          0	TO_CACHE:      82152

LLC Dense regions hint to LLC: 0

RAW hits: 2722294
Loads Generated: 44805389
Loads sent to L1D: 42083093
Stores Generated: 20137757
Stores sent to L1D: 20137758
Major fault: 0 Minor fault: 4255
Allocated PAGES: 4255

DRAM Statistics
 CHANNEL 0
 RQ ROW_BUFFER_HIT:      35786  ROW_BUFFER_MISS:     217472
 DBUS_CONGESTED:         82
 WQ ROW_BUFFER_HIT:      20416  ROW_BUFFER_MISS:     182537  FULL:          0

 AVG_CONGESTED_CYCLE: 4
 All warmup complete: 2
Channel 0 Bank busy for read cycles: 0
Channel 0 Bank busy for write cycles: 0
Channel 0
Rank 0
0banks busy for read cycles: 419907646
0banks busy for write cycles: 122961
1banks busy for read cycles: 24427752
1banks busy for write cycles: 16948561
2banks busy for read cycles: 2986482
2banks busy for write cycles: 3553032
3banks busy for read cycles: 500857
3banks busy for write cycles: 1095864
4banks busy for read cycles: 271194
4banks busy for write cycles: 495075
5banks busy for read cycles: 116544
5banks busy for write cycles: 271798
6banks busy for read cycles: 61813
6banks busy for write cycles: 161801
7banks busy for read cycles: 30619
7banks busy for write cycles: 180516
8banks busy for read cycles: 31820
8banks busy for write cycles: 229462

CPU 0 Branch Prediction Accuracy: 99.8263% MPKI: 0.313815 Average ROB Occupancy at Mispredict: 35.4728
Branch types
NOT_BRANCH: 163866778 81.9334%
BRANCH_DIRECT_JUMP: 1746702 0.873351%
BRANCH_INDIRECT: 9682796 4.8414%
BRANCH_CONDITIONAL: 18120126 9.06006%
BRANCH_DIRECT_CALL: 2563120 1.28156%
BRANCH_INDIRECT_CALL: 725676 0.362838%
BRANCH_RETURN: 3294467 1.64723%
BRANCH_OTHER: 0 0%

DRAM PAGES: 1048576
Allocated PAGES: 4255
