
*** ChampSim Multicore Out-of-Order Simulator ***

Warmup Instructions: 50000000
Simulation Instructions: 200000000
Number of CPUs: 1
LLC sets: 2048
LLC ways: 16
Off-chip DRAM Size: 4096 MB Channels: 1 Width: 64-bit Data Rate: 6400 MT/s
CPU 0 runs traces/spec2k17/srv_50.champsimtrace.xz
.xz
BTB has LRU replacement policy
ITLB has LRU replacement policy
DTLB has LRU replacement policy
STLB has LRU replacement policy
L1I has LRU replacement policy
History Sets: 8
History Ways: 16
BERTI Size: 16
BERTI Stride Size: 16
L1D has LRU replacement policy
Initialize SRRIP state for L2C
Initialize DRRIP state for LLC
Heartbeat CPU 0 instructions: 10000001 cycles: 2877335 heartbeat IPC: 3.47544 cumulative IPC: 3.47544 (Simulation time: 0 hr 0 min 38 sec) 
Heartbeat CPU 0 instructions: 20000002 cycles: 5737574 heartbeat IPC: 3.49621 cumulative IPC: 3.48579 (Simulation time: 0 hr 1 min 10 sec) 
Heartbeat CPU 0 instructions: 30000003 cycles: 8567804 heartbeat IPC: 3.53328 cumulative IPC: 3.50148 (Simulation time: 0 hr 1 min 49 sec) 
*** Reached end of trace for Core: 0 Repeating trace: traces/spec2k17/srv_50.champsimtrace.xz
Heartbeat CPU 0 instructions: 40000000 cycles: 11429545 heartbeat IPC: 3.49438 cumulative IPC: 3.4997 (Simulation time: 0 hr 2 min 30 sec) 
Heartbeat CPU 0 instructions: 50000001 cycles: 14292267 heartbeat IPC: 3.49318 cumulative IPC: 3.4984 (Simulation time: 0 hr 3 min 13 sec) 

Warmup complete CPU 0 instructions: 50000001 cycles: 14292267 (Simulation time: 0 hr 3 min 13 sec) 

Heartbeat CPU 0 instructions: 60000002 cycles: 38211423 heartbeat IPC: 0.418075 cumulative IPC: 0.418075 (Simulation time: 0 hr 4 min 10 sec) 
*** Reached end of trace for Core: 0 Repeating trace: traces/spec2k17/srv_50.champsimtrace.xz
Heartbeat CPU 0 instructions: 70000002 cycles: 62797710 heartbeat IPC: 0.406731 cumulative IPC: 0.412325 (Simulation time: 0 hr 4 min 59 sec) 
Heartbeat CPU 0 instructions: 80000000 cycles: 89144482 heartbeat IPC: 0.379553 cumulative IPC: 0.40079 (Simulation time: 0 hr 5 min 49 sec) 
Heartbeat CPU 0 instructions: 90000001 cycles: 113382168 heartbeat IPC: 0.412581 cumulative IPC: 0.403674 (Simulation time: 0 hr 6 min 42 sec) 
*** Reached end of trace for Core: 0 Repeating trace: traces/spec2k17/srv_50.champsimtrace.xz
Heartbeat CPU 0 instructions: 100000002 cycles: 137409932 heartbeat IPC: 0.416185 cumulative IPC: 0.406116 (Simulation time: 0 hr 7 min 32 sec) 
Heartbeat CPU 0 instructions: 110000000 cycles: 163824574 heartbeat IPC: 0.378578 cumulative IPC: 0.401251 (Simulation time: 0 hr 8 min 28 sec) 
Heartbeat CPU 0 instructions: 120000001 cycles: 187935255 heartbeat IPC: 0.414754 cumulative IPC: 0.403126 (Simulation time: 0 hr 9 min 15 sec) 
*** Reached end of trace for Core: 0 Repeating trace: traces/spec2k17/srv_50.champsimtrace.xz
Heartbeat CPU 0 instructions: 130000000 cycles: 211887495 heartbeat IPC: 0.417497 cumulative IPC: 0.404868 (Simulation time: 0 hr 10 min 3 sec) 
Heartbeat CPU 0 instructions: 140000001 cycles: 237232622 heartbeat IPC: 0.394553 cumulative IPC: 0.403695 (Simulation time: 0 hr 10 min 54 sec) 
Heartbeat CPU 0 instructions: 150000003 cycles: 262507648 heartbeat IPC: 0.395648 cumulative IPC: 0.402876 (Simulation time: 0 hr 11 min 51 sec) 
*** Reached end of trace for Core: 0 Repeating trace: traces/spec2k17/srv_50.champsimtrace.xz
Heartbeat CPU 0 instructions: 160000000 cycles: 286386203 heartbeat IPC: 0.418786 cumulative IPC: 0.404272 (Simulation time: 0 hr 12 min 44 sec) 
Heartbeat CPU 0 instructions: 170000002 cycles: 311289193 heartbeat IPC: 0.401558 cumulative IPC: 0.404045 (Simulation time: 0 hr 13 min 37 sec) 
Heartbeat CPU 0 instructions: 180000003 cycles: 336966131 heartbeat IPC: 0.389455 cumulative IPC: 0.402884 (Simulation time: 0 hr 14 min 28 sec) 
*** Reached end of trace for Core: 0 Repeating trace: traces/spec2k17/srv_50.champsimtrace.xz
Heartbeat CPU 0 instructions: 190000001 cycles: 361026188 heartbeat IPC: 0.415627 cumulative IPC: 0.403768 (Simulation time: 0 hr 15 min 24 sec) 
Heartbeat CPU 0 instructions: 200000002 cycles: 386458550 heartbeat IPC: 0.3932 cumulative IPC: 0.403046 (Simulation time: 0 hr 16 min 20 sec) 
Heartbeat CPU 0 instructions: 210000002 cycles: 410638786 heartbeat IPC: 0.413561 cumulative IPC: 0.403687 (Simulation time: 0 hr 17 min 12 sec) 
*** Reached end of trace for Core: 0 Repeating trace: traces/spec2k17/srv_50.champsimtrace.xz
Heartbeat CPU 0 instructions: 220000000 cycles: 434459518 heartbeat IPC: 0.419802 cumulative IPC: 0.404601 (Simulation time: 0 hr 18 min 5 sec) 
Heartbeat CPU 0 instructions: 230000000 cycles: 461037448 heartbeat IPC: 0.376252 cumulative IPC: 0.402914 (Simulation time: 0 hr 18 min 58 sec) 
Heartbeat CPU 0 instructions: 240000000 cycles: 485736222 heartbeat IPC: 0.404878 cumulative IPC: 0.403017 (Simulation time: 0 hr 19 min 54 sec) 
*** Reached end of trace for Core: 0 Repeating trace: traces/spec2k17/srv_50.champsimtrace.xz
Heartbeat CPU 0 instructions: 250000000 cycles: 509055794 heartbeat IPC: 0.428824 cumulative IPC: 0.404234 (Simulation time: 0 hr 20 min 45 sec) 
Finished CPU 0 instructions: 200000003 cycles: 494763528 cumulative IPC: 0.404234 (Simulation time: 0 hr 20 min 45 sec) 

ChampSim completed all CPUs

Region of Interest Statistics

CPU 0 cumulative IPC: 0.404234 instructions: 200000003 cycles: 494763528
ITLB TOTAL     ACCESS:   34006819  HIT:   33047311  MISS:     959508  HIT %:    97.1785  MISS %:    2.82152   MPKI: 4.79754
ITLB LOAD TRANSLATION ACCESS:   34006819  HIT:   33047311  MISS:     959508  HIT %:    97.1785  MISS %:    2.82152   MPKI: 4.79754
ITLB PREFETCH  REQUESTED:          0  ISSUED:          0  USEFUL:          0  USELESS:          0
ITLB USEFUL LOAD PREFETCHES:          0 PREFETCH ISSUED TO LOWER LEVEL:          0  ACCURACY: -nan
ITLB TIMELY PREFETCHES:          0 LATE PREFETCHES: 0 DROPPED PREFETCHES: 0
ITLB PREFETCHES SAME FILL-ORIGIN LEVEL: 0 DIFFERENT FILL-ORIGIN LEVEL: 0
ITLB AVERAGE MISS LATENCY: 10.0883 cycles
ITLB RQ	ACCESS:   39256162	FORWARD:          0	MERGED:    4989703	TO_CACHE:   34266459

DTLB TOTAL     ACCESS:   41739010  HIT:   40734112  MISS:    1004898  HIT %:    97.5924  MISS %:    2.40758   MPKI: 5.02449
DTLB LOAD TRANSLATION ACCESS:   41739010  HIT:   40734112  MISS:    1004898  HIT %:    97.5924  MISS %:    2.40758   MPKI: 5.02449
DTLB PREFETCH  REQUESTED:          0  ISSUED:          0  USEFUL:          0  USELESS:          0
DTLB USEFUL LOAD PREFETCHES:          0 PREFETCH ISSUED TO LOWER LEVEL:          0  ACCURACY: -nan
DTLB TIMELY PREFETCHES:          0 LATE PREFETCHES: 0 DROPPED PREFETCHES: 0
DTLB PREFETCHES SAME FILL-ORIGIN LEVEL: 0 DIFFERENT FILL-ORIGIN LEVEL: 0
DTLB AVERAGE MISS LATENCY: 15.1065 cycles
DTLB RQ	ACCESS:   54594445	FORWARD:          0	MERGED:   12780908	TO_CACHE:   41813537

STLB TOTAL     ACCESS:    2541408  HIT:    2454649  MISS:      86759  HIT %:    96.5862  MISS %:    3.41382   MPKI: 0.433795
STLB LOAD TRANSLATION ACCESS:    1964406  HIT:    1878597  MISS:      85809  HIT %:    95.6318  MISS %:    4.36819   MPKI: 0.429045
STLB TRANSLATION FROM L1D PREFETCHER ACCESS:     577002  HIT:     576052  MISS:        950  HIT %:    99.8354  MISS %:   0.164644   MPKI: 0.00475
STLB PREFETCH  REQUESTED:          0  ISSUED:          0  USEFUL:        839  USELESS:        111
STLB USEFUL LOAD PREFETCHES:        839 PREFETCH ISSUED TO LOWER LEVEL:          0  ACCURACY: inf
STLB TIMELY PREFETCHES:        839 LATE PREFETCHES: 1 DROPPED PREFETCHES: 22586
STLB PREFETCHES SAME FILL-ORIGIN LEVEL: 0 DIFFERENT FILL-ORIGIN LEVEL: 0
STLB AVERAGE MISS LATENCY: 83.0226 cycles
STLB RQ	ACCESS:    3803298	FORWARD:          0	MERGED:    1237418	TO_CACHE:    2565880

STLB Hit, L1D data hit: 0
STLB Hit, L2C data hit: 0
STLB Hit, LLC data hit: 0
STLB Hit, LLC data miss: 0
STLB STLB hints to L2: 0
L1D TOTAL     ACCESS:   54392586  HIT:   51729144  MISS:    2663442  HIT %:    95.1033  MISS %:     4.8967   MPKI: 13.3172
L1D LOAD      ACCESS:   34749967  HIT:   32986939  MISS:    1763028  HIT %:    94.9265  MISS %:    5.07347   MPKI: 8.81514
L1D RFO       ACCESS:   18648003  HIT:   17818484  MISS:     829519  HIT %:    95.5517  MISS %:     4.4483   MPKI: 4.14759
L1D PREFETCH  ACCESS:     994616  HIT:     923721  MISS:      70895  HIT %:    92.8721  MISS %:    7.12788   MPKI: 0.354475
L1D PREFETCH  REQUESTED:    4196895  ISSUED:    3991762  USEFUL:      58461  USELESS:      12426
L1D USEFUL LOAD PREFETCHES:      58461 PREFETCH ISSUED TO LOWER LEVEL:     815365  ACCURACY: 7.16992
L1D TIMELY PREFETCHES:      58461 LATE PREFETCHES: 10686 DROPPED PREFETCHES: 59176
L1D PREFETCHES SAME FILL-ORIGIN LEVEL: 81588 DIFFERENT FILL-ORIGIN LEVEL: 733777
L1D AVERAGE MISS LATENCY: 62.076 cycles
L1D RQ	ACCESS:   46287541	FORWARD:          0	MERGED:   11102084	TO_CACHE:   34862346
L1D WQ	ACCESS:   20039997	FORWARD:     323112	MERGED:     307898	TO_CACHE:   19732099
L1D PQ	ACCESS:    2152871	FORWARD:          0	MERGED:     313979	TO_CACHE:    1838891

L1D UNIQUE REGIONS ACCESSED: 0
L1D REGIONS CONFLICTS: 0
L1D Cross Page Prefetch Requests: 514861
L1D Same Page Prefetch Requests: 2502672
L1D ROI Sum of L1D PQ occupancy: 38859891
L1D PREFETCHES PUSHED FROM L2C: 0
L1I TOTAL     ACCESS:   38478857  HIT:   33371039  MISS:    5107818  HIT %:    86.7257  MISS %:    13.2743   MPKI: 25.5391
L1I LOAD      ACCESS:   38478857  HIT:   33371039  MISS:    5107818  HIT %:    86.7257  MISS %:    13.2743   MPKI: 25.5391
L1I PREFETCH  REQUESTED:          0  ISSUED:          0  USEFUL:          0  USELESS:          0
L1I USEFUL LOAD PREFETCHES:          0 PREFETCH ISSUED TO LOWER LEVEL:          0  ACCURACY: -nan
L1I TIMELY PREFETCHES:          0 LATE PREFETCHES: 0 DROPPED PREFETCHES: 0
L1I PREFETCHES SAME FILL-ORIGIN LEVEL: 0 DIFFERENT FILL-ORIGIN LEVEL: 0
L1I AVERAGE MISS LATENCY: 24.03 cycles
L1I RQ	ACCESS:   58579278	FORWARD:          0	MERGED:   19323116	TO_CACHE:   39256162

BTB TOTAL     ACCESS:   30370697  HIT:   23500645  MISS:    6870052  HIT %:    77.3793  MISS %:    22.6207   MPKI: 34.3503
BTB BRANCH_DIRECT_JUMP	ACCESS:    3828094  HIT:    3320175  MISS:     507919
BTB BRANCH_INDIRECT	ACCESS:   11538875  HIT:    8901928  MISS:    2636947
BTB BRANCH_CONDITIONAL	ACCESS:    8796378  HIT:    8197618  MISS:     598760
BTB BRANCH_DIRECT_CALL	ACCESS:    2543553  HIT:    1630776  MISS:     912777
BTB BRANCH_INDIRECT_CALL	ACCESS:     560087  HIT:     266833  MISS:     293254
BTB BRANCH_RETURN	ACCESS:    3103710  HIT:    1183315  MISS:    1920395
BTB BRANCH_OTHER ACCESS:          0  HIT:          0  MISS:          0

L2C TOTAL     ACCESS:    9931286  HIT:    6872610  MISS:    3058676  HIT %:    69.2016  MISS %:    30.7984   MPKI: 15.2934
L2C LOAD      ACCESS:    6860160  HIT:    4509551  MISS:    2350609  HIT %:    65.7354  MISS %:    34.2646   MPKI: 11.753
L2C DATA LOAD MPKI: 3.65409
L2C INSTRUCTION LOAD MPKI: 8.09895
L2C RFO       ACCESS:     829497  HIT:     381687  MISS:     447810  HIT %:    46.0143  MISS %:    53.9857   MPKI: 2.23905
L2C PREFETCH  ACCESS:     738809  HIT:     637752  MISS:     101057  HIT %:    86.3216  MISS %:    13.6784   MPKI: 0.505285
L2C DATA PREFETCH MPKI: 0.505285
L2C INSTRUCTION PREFETCH MPKI: 0
L2C WRITEBACK ACCESS:    1336064  HIT:    1257673  MISS:      78391  HIT %:    94.1327  MISS %:    5.86731   MPKI: 0.391955
L2C LOAD TRANSLATION ACCESS:     137402  HIT:      58419  MISS:      78983  HIT %:    42.5168  MISS %:    57.4832   MPKI: 0.394915
L2C TRANSLATION FROM L1D PREFETCHER ACCESS:      29354  HIT:      27528  MISS:       1826  HIT %:    93.7794  MISS %:    6.22062   MPKI: 0.00913
L2C PREFETCH  REQUESTED:          0  ISSUED:          0  USEFUL:      24280  USELESS:      78826
L2C USEFUL LOAD PREFETCHES:      24280 PREFETCH ISSUED TO LOWER LEVEL:     111474  ACCURACY: 21.7809
L2C TIMELY PREFETCHES:      24280 LATE PREFETCHES: 10417 DROPPED PREFETCHES: 0
L2C PREFETCHES SAME FILL-ORIGIN LEVEL: 88510 DIFFERENT FILL-ORIGIN LEVEL: 0
L2C AVERAGE MISS LATENCY: 64.9707 cycles
L2C RQ	ACCESS:    7856437	FORWARD:          0	MERGED:          0	TO_CACHE:    7856414
L2C WQ	ACCESS:    1336065	FORWARD:         23	MERGED:          0	TO_CACHE:    1336065
L2C PQ	ACCESS:     815351	FORWARD:          0	MERGED:       1579	TO_CACHE:     813772

L2C Instructions Evicting Data 615191
L2C Translations Evicting Data 44096
L2C Data Evicting Data 656880
L2C Instructions Evicting Instructions 970394
L2C Translations Evicting Instructions 33829
L2C Data Evicting Instructions 581278
L2C Instructions Evicting Translations 34206
L2C Translations Evicting Translations 2884
L2C Data Evicting Translations 41527
L2C Dense regions hint from L2: 0
PSCL5 TOTAL     ACCESS:     109345  HIT:     109345  MISS:          0  HIT %:        100  MISS %:          0   MPKI: 0
PSCL5 LOAD TRANSLATION ACCESS:      85808  HIT:      85808  MISS:          0  HIT %:        100  MISS %:          0   MPKI: 0
PSCL5 TRANSLATION FROM L1D PREFETCHER ACCESS:      23537  HIT:      23537  MISS:          0  HIT %:        100  MISS %:          0   MPKI: 0
PSCL5 PREFETCH  REQUESTED:          0  ISSUED:          0  USEFUL:          0  USELESS:          0
PSCL5 USEFUL LOAD PREFETCHES:          0 PREFETCH ISSUED TO LOWER LEVEL:          0  ACCURACY: -nan
PSCL5 TIMELY PREFETCHES:          0 LATE PREFETCHES: 0 DROPPED PREFETCHES: 0
PSCL5 PREFETCHES SAME FILL-ORIGIN LEVEL: 0 DIFFERENT FILL-ORIGIN LEVEL: 0

PSCL4 TOTAL     ACCESS:     107607  HIT:     106925  MISS:        682  HIT %:    99.3662  MISS %:   0.633788   MPKI: 0.00341
PSCL4 LOAD TRANSLATION ACCESS:      84268  HIT:      83586  MISS:        682  HIT %:    99.1907  MISS %:   0.809323   MPKI: 0.00341
PSCL4 TRANSLATION FROM L1D PREFETCHER ACCESS:      23339  HIT:      23339  MISS:          0  HIT %:        100  MISS %:          0   MPKI: 0
PSCL4 PREFETCH  REQUESTED:          0  ISSUED:          0  USEFUL:          0  USELESS:          0
PSCL4 USEFUL LOAD PREFETCHES:          0 PREFETCH ISSUED TO LOWER LEVEL:          0  ACCURACY: -nan
PSCL4 TIMELY PREFETCHES:          0 LATE PREFETCHES: 0 DROPPED PREFETCHES: 0
PSCL4 PREFETCHES SAME FILL-ORIGIN LEVEL: 0 DIFFERENT FILL-ORIGIN LEVEL: 0

PSCL3 TOTAL     ACCESS:     100766  HIT:      86665  MISS:      14101  HIT %:    86.0062  MISS %:    13.9938   MPKI: 0.070505
PSCL3 LOAD TRANSLATION ACCESS:      80514  HIT:      66413  MISS:      14101  HIT %:    82.4863  MISS %:    17.5137   MPKI: 0.070505
PSCL3 TRANSLATION FROM L1D PREFETCHER ACCESS:      20252  HIT:      20252  MISS:          0  HIT %:        100  MISS %:          0   MPKI: 0
PSCL3 PREFETCH  REQUESTED:          0  ISSUED:          0  USEFUL:          0  USELESS:          0
PSCL3 USEFUL LOAD PREFETCHES:          0 PREFETCH ISSUED TO LOWER LEVEL:          0  ACCURACY: -nan
PSCL3 TIMELY PREFETCHES:          0 LATE PREFETCHES: 0 DROPPED PREFETCHES: 0
PSCL3 PREFETCHES SAME FILL-ORIGIN LEVEL: 0 DIFFERENT FILL-ORIGIN LEVEL: 0

PSCL2 TOTAL     ACCESS:     105043  HIT:      67916  MISS:      37127  HIT %:    64.6554  MISS %:    35.3446   MPKI: 0.185635
PSCL2 LOAD TRANSLATION ACCESS:      86026  HIT:      48899  MISS:      37127  HIT %:    56.8421  MISS %:    43.1579   MPKI: 0.185635
PSCL2 TRANSLATION FROM L1D PREFETCHER ACCESS:      19017  HIT:      19017  MISS:          0  HIT %:        100  MISS %:          0   MPKI: 0
PSCL2 PREFETCH  REQUESTED:          0  ISSUED:          0  USEFUL:          0  USELESS:          0
PSCL2 USEFUL LOAD PREFETCHES:          0 PREFETCH ISSUED TO LOWER LEVEL:          0  ACCURACY: -nan
PSCL2 TIMELY PREFETCHES:          0 LATE PREFETCHES: 0 DROPPED PREFETCHES: 0
PSCL2 PREFETCHES SAME FILL-ORIGIN LEVEL: 0 DIFFERENT FILL-ORIGIN LEVEL: 0

LLC TOTAL     ACCESS:    3643188  HIT:    3167896  MISS:     475292  HIT %:     86.954  MISS %:     13.046   MPKI: 2.37646
LLC LOAD      ACCESS:    2340188  HIT:    2150751  MISS:     189437  HIT %:    91.9051  MISS %:    8.09495   MPKI: 0.947185
LLC RFO       ACCESS:     447808  HIT:     250753  MISS:     197055  HIT %:    55.9956  MISS %:    44.0044   MPKI: 0.985275
LLC PREFETCH  ACCESS:     111474  HIT:      39942  MISS:      71532  HIT %:    35.8308  MISS %:    64.1692   MPKI: 0.35766
LLC WRITEBACK ACCESS:     662909  HIT:     659880  MISS:       3029  HIT %:    99.5431  MISS %:   0.456925   MPKI: 0.015145
LLC LOAD TRANSLATION ACCESS:      78983  HIT:      64964  MISS:      14019  HIT %:    82.2506  MISS %:    17.7494   MPKI: 0.070095
LLC TRANSLATION FROM L1D PREFETCHER ACCESS:       1826  HIT:       1606  MISS:        220  HIT %:    87.9518  MISS %:    12.0482   MPKI: 0.0011
LLC PREFETCH  REQUESTED:          0  ISSUED:          0  USEFUL:        473  USELESS:      71693
LLC USEFUL LOAD PREFETCHES:        473 PREFETCH ISSUED TO LOWER LEVEL:      71532  ACCURACY: 0.661243
LLC TIMELY PREFETCHES:        473 LATE PREFETCHES: 0 DROPPED PREFETCHES: 0
LLC PREFETCHES SAME FILL-ORIGIN LEVEL: 0 DIFFERENT FILL-ORIGIN LEVEL: 0
LLC AVERAGE MISS LATENCY: 236.684 cycles
LLC RQ	ACCESS:    2868811	FORWARD:          0	MERGED:          0	TO_CACHE:    2868805
LLC WQ	ACCESS:     662909	FORWARD:          6	MERGED:          0	TO_CACHE:     662909
LLC PQ	ACCESS:     111474	FORWARD:          0	MERGED:          0	TO_CACHE:     111474

LLC Dense regions hint to LLC: 0

RAW hits: 1987357
Loads Generated: 48274898
Loads sent to L1D: 46287541
Stores Generated: 20039989
Stores sent to L1D: 20039997
Major fault: 0 Minor fault: 6225
Allocated PAGES: 6225

DRAM Statistics
 CHANNEL 0
 RQ ROW_BUFFER_HIT:     144737  ROW_BUFFER_MISS:     327526
 DBUS_CONGESTED:        182
 WQ ROW_BUFFER_HIT:      46232  ROW_BUFFER_MISS:     247159  FULL:          0

 AVG_CONGESTED_CYCLE: 4
 All warmup complete: 2
Channel 0 Bank busy for read cycles: 0
Channel 0 Bank busy for write cycles: 0
Channel 0
Rank 0
0banks busy for read cycles: 435685333
0banks busy for write cycles: 106422
1banks busy for read cycles: 26169442
1banks busy for write cycles: 15305605
2banks busy for read cycles: 4642523
2banks busy for write cycles: 4107261
3banks busy for read cycles: 1030892
3banks busy for write cycles: 1487387
4banks busy for read cycles: 257147
4banks busy for write cycles: 605095
5banks busy for read cycles: 162824
5banks busy for write cycles: 297221
6banks busy for read cycles: 204178
6banks busy for write cycles: 206392
7banks busy for read cycles: 342755
7banks busy for write cycles: 297568
8banks busy for read cycles: 1626389
8banks busy for write cycles: 2229095

CPU 0 Branch Prediction Accuracy: 99.6928% MPKI: 0.541945 Average ROB Occupancy at Mispredict: 41.0217
Branch types
NOT_BRANCH: 164715956 82.358%
BRANCH_DIRECT_JUMP: 3828094 1.91405%
BRANCH_INDIRECT: 11538875 5.76944%
BRANCH_CONDITIONAL: 13709397 6.8547%
BRANCH_DIRECT_CALL: 2543553 1.27178%
BRANCH_INDIRECT_CALL: 560087 0.280043%
BRANCH_RETURN: 3103710 1.55185%
BRANCH_OTHER: 0 0%

DRAM PAGES: 1048576
Allocated PAGES: 6225
