
*** ChampSim Multicore Out-of-Order Simulator ***

Warmup Instructions: 50000000
Simulation Instructions: 200000000
Number of CPUs: 1
LLC sets: 2048
LLC ways: 16
Off-chip DRAM Size: 4096 MB Channels: 1 Width: 64-bit Data Rate: 6400 MT/s
CPU 0 runs traces/spec2k17/srv_4.champsimtrace.xz
.xz
BTB has LRU replacement policy
ITLB has LRU replacement policy
DTLB has LRU replacement policy
STLB has LRU replacement policy
L1I has LRU replacement policy
History Sets: 8
History Ways: 16
BERTI Size: 16
BERTI Stride Size: 16
L1D has LRU replacement policy
Initialize SRRIP state for L2C
Initialize DRRIP state for LLC
Heartbeat CPU 0 instructions: 10000001 cycles: 2767360 heartbeat IPC: 3.61355 cumulative IPC: 3.61355 (Simulation time: 0 hr 0 min 34 sec) 
Heartbeat CPU 0 instructions: 20000002 cycles: 5524179 heartbeat IPC: 3.62737 cumulative IPC: 3.62045 (Simulation time: 0 hr 1 min 11 sec) 
Heartbeat CPU 0 instructions: 30000000 cycles: 8279144 heartbeat IPC: 3.62981 cumulative IPC: 3.62356 (Simulation time: 0 hr 1 min 49 sec) 
*** Reached end of trace for Core: 0 Repeating trace: traces/spec2k17/srv_4.champsimtrace.xz
Heartbeat CPU 0 instructions: 40000002 cycles: 11040089 heartbeat IPC: 3.62195 cumulative IPC: 3.62316 (Simulation time: 0 hr 2 min 27 sec) 
Heartbeat CPU 0 instructions: 50000003 cycles: 13797898 heartbeat IPC: 3.62607 cumulative IPC: 3.62374 (Simulation time: 0 hr 3 min 8 sec) 

Warmup complete CPU 0 instructions: 50000003 cycles: 13797898 (Simulation time: 0 hr 3 min 8 sec) 

Heartbeat CPU 0 instructions: 60000001 cycles: 34968032 heartbeat IPC: 0.472363 cumulative IPC: 0.472363 (Simulation time: 0 hr 3 min 58 sec) 
*** Reached end of trace for Core: 0 Repeating trace: traces/spec2k17/srv_4.champsimtrace.xz
Heartbeat CPU 0 instructions: 70000000 cycles: 57076608 heartbeat IPC: 0.452313 cumulative IPC: 0.462121 (Simulation time: 0 hr 4 min 45 sec) 
Heartbeat CPU 0 instructions: 80000001 cycles: 78338377 heartbeat IPC: 0.470328 cumulative IPC: 0.464825 (Simulation time: 0 hr 5 min 42 sec) 
Heartbeat CPU 0 instructions: 90000002 cycles: 99677793 heartbeat IPC: 0.468616 cumulative IPC: 0.465767 (Simulation time: 0 hr 6 min 33 sec) 
*** Reached end of trace for Core: 0 Repeating trace: traces/spec2k17/srv_4.champsimtrace.xz
Heartbeat CPU 0 instructions: 100000000 cycles: 121612846 heartbeat IPC: 0.455891 cumulative IPC: 0.463758 (Simulation time: 0 hr 7 min 26 sec) 
Heartbeat CPU 0 instructions: 110000000 cycles: 143160762 heartbeat IPC: 0.464082 cumulative IPC: 0.463812 (Simulation time: 0 hr 8 min 24 sec) 
Heartbeat CPU 0 instructions: 120000001 cycles: 164527415 heartbeat IPC: 0.468019 cumulative IPC: 0.464408 (Simulation time: 0 hr 9 min 16 sec) 
*** Reached end of trace for Core: 0 Repeating trace: traces/spec2k17/srv_4.champsimtrace.xz
Heartbeat CPU 0 instructions: 130000001 cycles: 185967632 heartbeat IPC: 0.466413 cumulative IPC: 0.464658 (Simulation time: 0 hr 10 min 3 sec) 
Heartbeat CPU 0 instructions: 140000002 cycles: 207653024 heartbeat IPC: 0.46114 cumulative IPC: 0.464264 (Simulation time: 0 hr 10 min 51 sec) 
Heartbeat CPU 0 instructions: 150000000 cycles: 229050046 heartbeat IPC: 0.467355 cumulative IPC: 0.464571 (Simulation time: 0 hr 11 min 46 sec) 
*** Reached end of trace for Core: 0 Repeating trace: traces/spec2k17/srv_4.champsimtrace.xz
Heartbeat CPU 0 instructions: 160000001 cycles: 250606454 heartbeat IPC: 0.463899 cumulative IPC: 0.46451 (Simulation time: 0 hr 12 min 38 sec) 
Heartbeat CPU 0 instructions: 170000000 cycles: 272229876 heartbeat IPC: 0.462461 cumulative IPC: 0.464339 (Simulation time: 0 hr 13 min 27 sec) 
Heartbeat CPU 0 instructions: 180000003 cycles: 293687403 heartbeat IPC: 0.466037 cumulative IPC: 0.464469 (Simulation time: 0 hr 14 min 17 sec) 
*** Reached end of trace for Core: 0 Repeating trace: traces/spec2k17/srv_4.champsimtrace.xz
Heartbeat CPU 0 instructions: 190000001 cycles: 315223736 heartbeat IPC: 0.464332 cumulative IPC: 0.464459 (Simulation time: 0 hr 15 min 9 sec) 
Heartbeat CPU 0 instructions: 200000000 cycles: 336864890 heartbeat IPC: 0.462083 cumulative IPC: 0.4643 (Simulation time: 0 hr 16 min 6 sec) 
Heartbeat CPU 0 instructions: 210000002 cycles: 358185168 heartbeat IPC: 0.469037 cumulative IPC: 0.464593 (Simulation time: 0 hr 16 min 57 sec) 
*** Reached end of trace for Core: 0 Repeating trace: traces/spec2k17/srv_4.champsimtrace.xz
Heartbeat CPU 0 instructions: 220000000 cycles: 379768358 heartbeat IPC: 0.463323 cumulative IPC: 0.464518 (Simulation time: 0 hr 17 min 46 sec) 
Heartbeat CPU 0 instructions: 230000000 cycles: 401493222 heartbeat IPC: 0.460302 cumulative IPC: 0.464282 (Simulation time: 0 hr 18 min 33 sec) 
Heartbeat CPU 0 instructions: 240000002 cycles: 422714012 heartbeat IPC: 0.471236 cumulative IPC: 0.464643 (Simulation time: 0 hr 19 min 23 sec) 
*** Reached end of trace for Core: 0 Repeating trace: traces/spec2k17/srv_4.champsimtrace.xz
Heartbeat CPU 0 instructions: 250000002 cycles: 444150147 heartbeat IPC: 0.466502 cumulative IPC: 0.464736 (Simulation time: 0 hr 20 min 16 sec) 
Finished CPU 0 instructions: 200000003 cycles: 430352250 cumulative IPC: 0.464736 (Simulation time: 0 hr 20 min 16 sec) 

ChampSim completed all CPUs

Region of Interest Statistics

CPU 0 cumulative IPC: 0.464736 instructions: 200000003 cycles: 430352250
ITLB TOTAL     ACCESS:   31165158  HIT:   30369883  MISS:     795275  HIT %:    97.4482  MISS %:    2.55181   MPKI: 3.97637
ITLB LOAD TRANSLATION ACCESS:   31165158  HIT:   30369883  MISS:     795275  HIT %:    97.4482  MISS %:    2.55181   MPKI: 3.97637
ITLB PREFETCH  REQUESTED:          0  ISSUED:          0  USEFUL:          0  USELESS:          0
ITLB USEFUL LOAD PREFETCHES:          0 PREFETCH ISSUED TO LOWER LEVEL:          0  ACCURACY: -nan
ITLB TIMELY PREFETCHES:          0 LATE PREFETCHES: 0 DROPPED PREFETCHES: 0
ITLB PREFETCHES SAME FILL-ORIGIN LEVEL: 0 DIFFERENT FILL-ORIGIN LEVEL: 0
ITLB AVERAGE MISS LATENCY: 13.3753 cycles
ITLB RQ	ACCESS:   38103684	FORWARD:          0	MERGED:    6737407	TO_CACHE:   31366277

DTLB TOTAL     ACCESS:   36982014  HIT:   34392050  MISS:    2589964  HIT %:    92.9967  MISS %:    7.00331   MPKI: 12.9498
DTLB LOAD TRANSLATION ACCESS:   36982014  HIT:   34392050  MISS:    2589964  HIT %:    92.9967  MISS %:    7.00331   MPKI: 12.9498
DTLB PREFETCH  REQUESTED:          0  ISSUED:          0  USEFUL:          0  USELESS:          0
DTLB USEFUL LOAD PREFETCHES:          0 PREFETCH ISSUED TO LOWER LEVEL:          0  ACCURACY: -nan
DTLB TIMELY PREFETCHES:          0 LATE PREFETCHES: 0 DROPPED PREFETCHES: 0
DTLB PREFETCHES SAME FILL-ORIGIN LEVEL: 0 DIFFERENT FILL-ORIGIN LEVEL: 0
DTLB AVERAGE MISS LATENCY: 13.4782 cycles
DTLB RQ	ACCESS:   47372624	FORWARD:          0	MERGED:   10244432	TO_CACHE:   37128192

STLB TOTAL     ACCESS:    3440123  HIT:    3122365  MISS:     317758  HIT %:    90.7632  MISS %:    9.23682   MPKI: 1.58879
STLB LOAD TRANSLATION ACCESS:    3385239  HIT:    3067987  MISS:     317252  HIT %:    90.6284  MISS %:    9.37163   MPKI: 1.58626
STLB TRANSLATION FROM L1D PREFETCHER ACCESS:      54884  HIT:      54378  MISS:        506  HIT %:    99.0781  MISS %:   0.921944   MPKI: 0.00253
STLB PREFETCH  REQUESTED:          0  ISSUED:          0  USEFUL:        368  USELESS:        138
STLB USEFUL LOAD PREFETCHES:        368 PREFETCH ISSUED TO LOWER LEVEL:          0  ACCURACY: inf
STLB TIMELY PREFETCHES:        368 LATE PREFETCHES: 2 DROPPED PREFETCHES: 1757
STLB PREFETCHES SAME FILL-ORIGIN LEVEL: 0 DIFFERENT FILL-ORIGIN LEVEL: 0
STLB AVERAGE MISS LATENCY: 47.2334 cycles
STLB RQ	ACCESS:    3531206	FORWARD:          0	MERGED:      89304	TO_CACHE:    3441902

STLB Hit, L1D data hit: 0
STLB Hit, L2C data hit: 0
STLB Hit, LLC data hit: 0
STLB Hit, LLC data miss: 0
STLB STLB hints to L2: 0
L1D TOTAL     ACCESS:   46880418  HIT:   44414643  MISS:    2465775  HIT %:    94.7403  MISS %:    5.25971   MPKI: 12.3289
L1D LOAD      ACCESS:   27432244  HIT:   25299925  MISS:    2132319  HIT %:     92.227  MISS %:    7.77304   MPKI: 10.6616
L1D RFO       ACCESS:   19394156  HIT:   19061527  MISS:     332629  HIT %:    98.2849  MISS %:     1.7151   MPKI: 1.66314
L1D PREFETCH  ACCESS:      54018  HIT:      53191  MISS:        827  HIT %:     98.469  MISS %:    1.53097   MPKI: 0.004135
L1D PREFETCH  REQUESTED:     292607  ISSUED:     292431  USEFUL:        438  USELESS:        391
L1D USEFUL LOAD PREFETCHES:        438 PREFETCH ISSUED TO LOWER LEVEL:      89348  ACCURACY: 0.490218
L1D TIMELY PREFETCHES:        438 LATE PREFETCHES: 22 DROPPED PREFETCHES: 3210
L1D PREFETCHES SAME FILL-ORIGIN LEVEL: 849 DIFFERENT FILL-ORIGIN LEVEL: 88499
L1D AVERAGE MISS LATENCY: 44.5621 cycles
L1D RQ	ACCESS:   42074316	FORWARD:          0	MERGED:   14281053	TO_CACHE:   27572041
L1D WQ	ACCESS:   20103875	FORWARD:     221222	MERGED:     303292	TO_CACHE:   19800583
L1D PQ	ACCESS:     146464	FORWARD:          0	MERGED:        497	TO_CACHE:     145967

L1D UNIQUE REGIONS ACCESSED: 0
L1D REGIONS CONFLICTS: 0
L1D Cross Page Prefetch Requests: 16556
L1D Same Page Prefetch Requests: 166748
L1D ROI Sum of L1D PQ occupancy: 2319650
L1D PREFETCHES PUSHED FROM L2C: 0
L1I TOTAL     ACCESS:   36270785  HIT:   31173490  MISS:    5097295  HIT %:    85.9466  MISS %:    14.0534   MPKI: 25.4865
L1I LOAD      ACCESS:   36270785  HIT:   31173490  MISS:    5097295  HIT %:    85.9466  MISS %:    14.0534   MPKI: 25.4865
L1I PREFETCH  REQUESTED:          0  ISSUED:          0  USEFUL:          0  USELESS:          0
L1I USEFUL LOAD PREFETCHES:          0 PREFETCH ISSUED TO LOWER LEVEL:          0  ACCURACY: -nan
L1I TIMELY PREFETCHES:          0 LATE PREFETCHES: 0 DROPPED PREFETCHES: 0
L1I PREFETCHES SAME FILL-ORIGIN LEVEL: 0 DIFFERENT FILL-ORIGIN LEVEL: 0
L1I AVERAGE MISS LATENCY: 24.6465 cycles
L1I RQ	ACCESS:   57083387	FORWARD:          0	MERGED:   18979703	TO_CACHE:   38103684

BTB TOTAL     ACCESS:   22109483  HIT:   17938623  MISS:    4170860  HIT %:    81.1354  MISS %:    18.8646   MPKI: 20.8543
BTB BRANCH_DIRECT_JUMP	ACCESS:    1732440  HIT:    1504284  MISS:     228156
BTB BRANCH_INDIRECT	ACCESS:    9572695  HIT:    7533261  MISS:    2039434
BTB BRANCH_CONDITIONAL	ACCESS:    4510201  HIT:    4135936  MISS:     374265
BTB BRANCH_DIRECT_CALL	ACCESS:    2461390  HIT:    2014294  MISS:     447096
BTB BRANCH_INDIRECT_CALL	ACCESS:     683684  HIT:     645488  MISS:      38196
BTB BRANCH_RETURN	ACCESS:    3149073  HIT:    2105360  MISS:    1043713
BTB BRANCH_OTHER ACCESS:          0  HIT:          0  MISS:          0

L2C TOTAL     ACCESS:    9090935  HIT:    6013996  MISS:    3076939  HIT %:    66.1538  MISS %:    33.8462   MPKI: 15.3847
L2C LOAD      ACCESS:    7229478  HIT:    4566471  MISS:    2663007  HIT %:    63.1646  MISS %:    36.8354   MPKI: 13.315
L2C DATA LOAD MPKI: 4.53076
L2C INSTRUCTION LOAD MPKI: 8.78427
L2C RFO       ACCESS:     332623  HIT:     184967  MISS:     147656  HIT %:    55.6086  MISS %:    44.3914   MPKI: 0.73828
L2C PREFETCH  ACCESS:      88374  HIT:      43550  MISS:      44824  HIT %:    49.2792  MISS %:    50.7208   MPKI: 0.22412
L2C DATA PREFETCH MPKI: 0.22412
L2C INSTRUCTION PREFETCH MPKI: 0
L2C WRITEBACK ACCESS:    1016736  HIT:     965301  MISS:      51435  HIT %:    94.9412  MISS %:    5.05884   MPKI: 0.257175
L2C LOAD TRANSLATION ACCESS:     420401  HIT:     251461  MISS:     168940  HIT %:    59.8146  MISS %:    40.1854   MPKI: 0.8447
L2C TRANSLATION FROM L1D PREFETCHER ACCESS:       3323  HIT:       2246  MISS:       1077  HIT %:    67.5895  MISS %:    32.4105   MPKI: 0.005385
L2C PREFETCH  REQUESTED:          0  ISSUED:          0  USEFUL:      15469  USELESS:      30385
L2C USEFUL LOAD PREFETCHES:      15469 PREFETCH ISSUED TO LOWER LEVEL:      45290  ACCURACY: 34.1554
L2C TIMELY PREFETCHES:      15469 LATE PREFETCHES: 466 DROPPED PREFETCHES: 0
L2C PREFETCHES SAME FILL-ORIGIN LEVEL: 44970 DIFFERENT FILL-ORIGIN LEVEL: 0
L2C AVERAGE MISS LATENCY: 44.7183 cycles
L2C RQ	ACCESS:    7985946	FORWARD:          0	MERGED:          0	TO_CACHE:    7985826
L2C WQ	ACCESS:    1016736	FORWARD:        120	MERGED:          0	TO_CACHE:    1016736
L2C PQ	ACCESS:      89347	FORWARD:          0	MERGED:          1	TO_CACHE:      89346

L2C Instructions Evicting Data 639935
L2C Translations Evicting Data 67719
L2C Data Evicting Data 423659
L2C Instructions Evicting Instructions 1022531
L2C Translations Evicting Instructions 93831
L2C Data Evicting Instructions 610123
L2C Instructions Evicting Translations 94388
L2C Translations Evicting Translations 8467
L2C Data Evicting Translations 64851
L2C Dense regions hint from L2: 0
PSCL5 TOTAL     ACCESS:     319515  HIT:     319515  MISS:          0  HIT %:        100  MISS %:          0   MPKI: 0
PSCL5 LOAD TRANSLATION ACCESS:     317250  HIT:     317250  MISS:          0  HIT %:        100  MISS %:          0   MPKI: 0
PSCL5 TRANSLATION FROM L1D PREFETCHER ACCESS:       2265  HIT:       2265  MISS:          0  HIT %:        100  MISS %:          0   MPKI: 0
PSCL5 PREFETCH  REQUESTED:          0  ISSUED:          0  USEFUL:          0  USELESS:          0
PSCL5 USEFUL LOAD PREFETCHES:          0 PREFETCH ISSUED TO LOWER LEVEL:          0  ACCURACY: -nan
PSCL5 TIMELY PREFETCHES:          0 LATE PREFETCHES: 0 DROPPED PREFETCHES: 0
PSCL5 PREFETCHES SAME FILL-ORIGIN LEVEL: 0 DIFFERENT FILL-ORIGIN LEVEL: 0

PSCL4 TOTAL     ACCESS:     299132  HIT:     298371  MISS:        761  HIT %:    99.7456  MISS %:   0.254403   MPKI: 0.003805
PSCL4 LOAD TRANSLATION ACCESS:     296880  HIT:     296119  MISS:        761  HIT %:    99.7437  MISS %:   0.256333   MPKI: 0.003805
PSCL4 TRANSLATION FROM L1D PREFETCHER ACCESS:       2252  HIT:       2252  MISS:          0  HIT %:        100  MISS %:          0   MPKI: 0
PSCL4 PREFETCH  REQUESTED:          0  ISSUED:          0  USEFUL:          0  USELESS:          0
PSCL4 USEFUL LOAD PREFETCHES:          0 PREFETCH ISSUED TO LOWER LEVEL:          0  ACCURACY: -nan
PSCL4 TIMELY PREFETCHES:          0 LATE PREFETCHES: 0 DROPPED PREFETCHES: 0
PSCL4 PREFETCHES SAME FILL-ORIGIN LEVEL: 0 DIFFERENT FILL-ORIGIN LEVEL: 0

PSCL3 TOTAL     ACCESS:     318539  HIT:     317016  MISS:       1523  HIT %:    99.5219  MISS %:    0.47812   MPKI: 0.007615
PSCL3 LOAD TRANSLATION ACCESS:     316274  HIT:     314751  MISS:       1523  HIT %:    99.5185  MISS %:   0.481544   MPKI: 0.007615
PSCL3 TRANSLATION FROM L1D PREFETCHER ACCESS:       2265  HIT:       2265  MISS:          0  HIT %:        100  MISS %:          0   MPKI: 0
PSCL3 PREFETCH  REQUESTED:          0  ISSUED:          0  USEFUL:          0  USELESS:          0
PSCL3 USEFUL LOAD PREFETCHES:          0 PREFETCH ISSUED TO LOWER LEVEL:          0  ACCURACY: -nan
PSCL3 TIMELY PREFETCHES:          0 LATE PREFETCHES: 0 DROPPED PREFETCHES: 0
PSCL3 PREFETCHES SAME FILL-ORIGIN LEVEL: 0 DIFFERENT FILL-ORIGIN LEVEL: 0

PSCL2 TOTAL     ACCESS:     318665  HIT:     217590  MISS:     101075  HIT %:    68.2817  MISS %:    31.7183   MPKI: 0.505375
PSCL2 LOAD TRANSLATION ACCESS:     317458  HIT:     216383  MISS:     101075  HIT %:    68.1611  MISS %:    31.8389   MPKI: 0.505375
PSCL2 TRANSLATION FROM L1D PREFETCHER ACCESS:       1207  HIT:       1207  MISS:          0  HIT %:        100  MISS %:          0   MPKI: 0
PSCL2 PREFETCH  REQUESTED:          0  ISSUED:          0  USEFUL:          0  USELESS:          0
PSCL2 USEFUL LOAD PREFETCHES:          0 PREFETCH ISSUED TO LOWER LEVEL:          0  ACCURACY: -nan
PSCL2 TIMELY PREFETCHES:          0 LATE PREFETCHES: 0 DROPPED PREFETCHES: 0
PSCL2 PREFETCHES SAME FILL-ORIGIN LEVEL: 0 DIFFERENT FILL-ORIGIN LEVEL: 0

LLC TOTAL     ACCESS:    3457690  HIT:    3150190  MISS:     307500  HIT %:    91.1068  MISS %:    8.89322   MPKI: 1.5375
LLC LOAD      ACCESS:    2662541  HIT:    2433701  MISS:     228840  HIT %:    91.4052  MISS %:     8.5948   MPKI: 1.1442
LLC RFO       ACCESS:     147656  HIT:      98541  MISS:      49115  HIT %:    66.7369  MISS %:    33.2631   MPKI: 0.245575
LLC PREFETCH  ACCESS:      45290  HIT:      29005  MISS:      16285  HIT %:    64.0428  MISS %:    35.9572   MPKI: 0.081425
LLC WRITEBACK ACCESS:     432186  HIT:     430524  MISS:       1662  HIT %:    99.6154  MISS %:   0.384557   MPKI: 0.00831
LLC LOAD TRANSLATION ACCESS:     168940  HIT:     157385  MISS:      11555  HIT %:    93.1603  MISS %:    6.83971   MPKI: 0.057775
LLC TRANSLATION FROM L1D PREFETCHER ACCESS:       1077  HIT:       1034  MISS:         43  HIT %:    96.0074  MISS %:    3.99257   MPKI: 0.000215
LLC PREFETCH  REQUESTED:          0  ISSUED:          0  USEFUL:       1251  USELESS:      14263
LLC USEFUL LOAD PREFETCHES:       1251 PREFETCH ISSUED TO LOWER LEVEL:      16285  ACCURACY: 7.68192
LLC TIMELY PREFETCHES:       1251 LATE PREFETCHES: 0 DROPPED PREFETCHES: 0
LLC PREFETCHES SAME FILL-ORIGIN LEVEL: 0 DIFFERENT FILL-ORIGIN LEVEL: 0
LLC AVERAGE MISS LATENCY: 152.509 cycles
LLC RQ	ACCESS:    2980214	FORWARD:          0	MERGED:          0	TO_CACHE:    2980214
LLC WQ	ACCESS:     432186	FORWARD:          0	MERGED:          0	TO_CACHE:     432186
LLC PQ	ACCESS:      45290	FORWARD:          0	MERGED:          0	TO_CACHE:      45290

LLC Dense regions hint to LLC: 0

RAW hits: 2838570
Loads Generated: 44912886
Loads sent to L1D: 42074316
Stores Generated: 20103873
Stores sent to L1D: 20103875
Major fault: 0 Minor fault: 6257
Allocated PAGES: 6257

DRAM Statistics
 CHANNEL 0
 RQ ROW_BUFFER_HIT:      63763  ROW_BUFFER_MISS:     242075
 DBUS_CONGESTED:        175
 WQ ROW_BUFFER_HIT:      32500  ROW_BUFFER_MISS:     183316  FULL:          0

 AVG_CONGESTED_CYCLE: 5
 All warmup complete: 2
Channel 0 Bank busy for read cycles: 0
Channel 0 Bank busy for write cycles: 0
Channel 0
Rank 0
0banks busy for read cycles: 375595118
0banks busy for write cycles: 110628
1banks busy for read cycles: 26192654
1banks busy for write cycles: 15511257
2banks busy for read cycles: 3843644
2banks busy for write cycles: 3860961
3banks busy for read cycles: 612708
3banks busy for write cycles: 1499791
4banks busy for read cycles: 280337
4banks busy for write cycles: 902462
5banks busy for read cycles: 161857
5banks busy for write cycles: 565820
6banks busy for read cycles: 114220
6banks busy for write cycles: 381222
7banks busy for read cycles: 70006
7banks busy for write cycles: 282268
8banks busy for read cycles: 85177
8banks busy for write cycles: 282121

CPU 0 Branch Prediction Accuracy: 99.8614% MPKI: 0.24815 Average ROB Occupancy at Mispredict: 54.4276
Branch types
NOT_BRANCH: 164179735 82.0899%
BRANCH_DIRECT_JUMP: 1732440 0.86622%
BRANCH_INDIRECT: 9572695 4.78635%
BRANCH_CONDITIONAL: 18220803 9.1104%
BRANCH_DIRECT_CALL: 2461390 1.23069%
BRANCH_INDIRECT_CALL: 683684 0.341842%
BRANCH_RETURN: 3149073 1.57454%
BRANCH_OTHER: 0 0%

DRAM PAGES: 1048576
Allocated PAGES: 6257
