
*** ChampSim Multicore Out-of-Order Simulator ***

Warmup Instructions: 50000000
Simulation Instructions: 200000000
Number of CPUs: 1
LLC sets: 2048
LLC ways: 16
Off-chip DRAM Size: 4096 MB Channels: 1 Width: 64-bit Data Rate: 6400 MT/s
CPU 0 runs traces/spec2k17/srv_68.champsimtrace.xz
.xz
BTB has LRU replacement policy
ITLB has LRU replacement policy
DTLB has LRU replacement policy
STLB has LRU replacement policy
L1I has LRU replacement policy
History Sets: 8
History Ways: 16
BERTI Size: 16
BERTI Stride Size: 16
L1D has LRU replacement policy
Initialize SRRIP state for L2C
Initialize DRRIP state for LLC
Heartbeat CPU 0 instructions: 10000002 cycles: 2768399 heartbeat IPC: 3.6122 cumulative IPC: 3.6122 (Simulation time: 0 hr 0 min 32 sec) 
Heartbeat CPU 0 instructions: 20000003 cycles: 5532993 heartbeat IPC: 3.61717 cumulative IPC: 3.61468 (Simulation time: 0 hr 1 min 12 sec) 
Heartbeat CPU 0 instructions: 30000003 cycles: 8298163 heartbeat IPC: 3.61641 cumulative IPC: 3.61526 (Simulation time: 0 hr 1 min 51 sec) 
*** Reached end of trace for Core: 0 Repeating trace: traces/spec2k17/srv_68.champsimtrace.xz
Heartbeat CPU 0 instructions: 40000001 cycles: 11059812 heartbeat IPC: 3.62102 cumulative IPC: 3.6167 (Simulation time: 0 hr 2 min 31 sec) 
Heartbeat CPU 0 instructions: 50000000 cycles: 13823552 heartbeat IPC: 3.61828 cumulative IPC: 3.61702 (Simulation time: 0 hr 3 min 9 sec) 

Warmup complete CPU 0 instructions: 50000004 cycles: 13823553 (Simulation time: 0 hr 3 min 9 sec) 

Heartbeat CPU 0 instructions: 60000001 cycles: 36354990 heartbeat IPC: 0.443824 cumulative IPC: 0.443824 (Simulation time: 0 hr 4 min 6 sec) 
*** Reached end of trace for Core: 0 Repeating trace: traces/spec2k17/srv_68.champsimtrace.xz
Heartbeat CPU 0 instructions: 70000003 cycles: 58227224 heartbeat IPC: 0.457201 cumulative IPC: 0.450413 (Simulation time: 0 hr 5 min 2 sec) 
Heartbeat CPU 0 instructions: 80000001 cycles: 80244335 heartbeat IPC: 0.454192 cumulative IPC: 0.451666 (Simulation time: 0 hr 5 min 53 sec) 
Heartbeat CPU 0 instructions: 90000000 cycles: 102932120 heartbeat IPC: 0.440766 cumulative IPC: 0.448891 (Simulation time: 0 hr 6 min 45 sec) 
*** Reached end of trace for Core: 0 Repeating trace: traces/spec2k17/srv_68.champsimtrace.xz
Heartbeat CPU 0 instructions: 100000001 cycles: 124343858 heartbeat IPC: 0.467034 cumulative IPC: 0.452406 (Simulation time: 0 hr 7 min 45 sec) 
Heartbeat CPU 0 instructions: 110000000 cycles: 146671779 heartbeat IPC: 0.44787 cumulative IPC: 0.451643 (Simulation time: 0 hr 8 min 37 sec) 
Heartbeat CPU 0 instructions: 120000001 cycles: 169133550 heartbeat IPC: 0.445201 cumulative IPC: 0.450711 (Simulation time: 0 hr 9 min 21 sec) 
*** Reached end of trace for Core: 0 Repeating trace: traces/spec2k17/srv_68.champsimtrace.xz
Heartbeat CPU 0 instructions: 130000001 cycles: 190434604 heartbeat IPC: 0.46946 cumulative IPC: 0.452973 (Simulation time: 0 hr 10 min 13 sec) 
Heartbeat CPU 0 instructions: 140000000 cycles: 212802261 heartbeat IPC: 0.447074 cumulative IPC: 0.45231 (Simulation time: 0 hr 11 min 8 sec) 
Heartbeat CPU 0 instructions: 150000002 cycles: 235194820 heartbeat IPC: 0.446577 cumulative IPC: 0.45173 (Simulation time: 0 hr 12 min 3 sec) 
*** Reached end of trace for Core: 0 Repeating trace: traces/spec2k17/srv_68.champsimtrace.xz
Heartbeat CPU 0 instructions: 160000001 cycles: 256705577 heartbeat IPC: 0.464884 cumulative IPC: 0.452895 (Simulation time: 0 hr 12 min 52 sec) 
Heartbeat CPU 0 instructions: 170000000 cycles: 278972091 heartbeat IPC: 0.449105 cumulative IPC: 0.452576 (Simulation time: 0 hr 14 min 8 sec) 
Heartbeat CPU 0 instructions: 180000001 cycles: 301425605 heartbeat IPC: 0.445365 cumulative IPC: 0.452013 (Simulation time: 0 hr 15 min 21 sec) 
*** Reached end of trace for Core: 0 Repeating trace: traces/spec2k17/srv_68.champsimtrace.xz
Heartbeat CPU 0 instructions: 190000000 cycles: 322903634 heartbeat IPC: 0.465592 cumulative IPC: 0.452957 (Simulation time: 0 hr 16 min 40 sec) 
Heartbeat CPU 0 instructions: 200000000 cycles: 344926821 heartbeat IPC: 0.454067 cumulative IPC: 0.453031 (Simulation time: 0 hr 17 min 49 sec) 
Heartbeat CPU 0 instructions: 210000000 cycles: 367505145 heartbeat IPC: 0.442903 cumulative IPC: 0.452384 (Simulation time: 0 hr 18 min 59 sec) 
*** Reached end of trace for Core: 0 Repeating trace: traces/spec2k17/srv_68.champsimtrace.xz
Heartbeat CPU 0 instructions: 220000000 cycles: 388822919 heartbeat IPC: 0.469092 cumulative IPC: 0.453334 (Simulation time: 0 hr 19 min 46 sec) 
Heartbeat CPU 0 instructions: 230000001 cycles: 411071325 heartbeat IPC: 0.44947 cumulative IPC: 0.453118 (Simulation time: 0 hr 20 min 43 sec) 
Heartbeat CPU 0 instructions: 240000002 cycles: 433517238 heartbeat IPC: 0.445515 cumulative IPC: 0.452711 (Simulation time: 0 hr 21 min 40 sec) 
*** Reached end of trace for Core: 0 Repeating trace: traces/spec2k17/srv_68.champsimtrace.xz
Heartbeat CPU 0 instructions: 250000002 cycles: 454855393 heartbeat IPC: 0.468644 cumulative IPC: 0.453482 (Simulation time: 0 hr 22 min 36 sec) 
Finished CPU 0 instructions: 200000002 cycles: 441031841 cumulative IPC: 0.453482 (Simulation time: 0 hr 22 min 36 sec) 

ChampSim completed all CPUs

Region of Interest Statistics

CPU 0 cumulative IPC: 0.453482 instructions: 200000002 cycles: 441031841
ITLB TOTAL     ACCESS:   31180419  HIT:   30444707  MISS:     735712  HIT %:    97.6405  MISS %:    2.35953   MPKI: 3.67856
ITLB LOAD TRANSLATION ACCESS:   31180419  HIT:   30444707  MISS:     735712  HIT %:    97.6405  MISS %:    2.35953   MPKI: 3.67856
ITLB PREFETCH  REQUESTED:          0  ISSUED:          0  USEFUL:          0  USELESS:          0
ITLB USEFUL LOAD PREFETCHES:          0 PREFETCH ISSUED TO LOWER LEVEL:          0  ACCURACY: -nan
ITLB TIMELY PREFETCHES:          0 LATE PREFETCHES: 0 DROPPED PREFETCHES: 0
ITLB PREFETCHES SAME FILL-ORIGIN LEVEL: 0 DIFFERENT FILL-ORIGIN LEVEL: 0
ITLB AVERAGE MISS LATENCY: 14.552 cycles
ITLB RQ	ACCESS:   38047823	FORWARD:          0	MERGED:    6687803	TO_CACHE:   31360020

DTLB TOTAL     ACCESS:   36865159  HIT:   34475624  MISS:    2389535  HIT %:    93.5182  MISS %:    6.48182   MPKI: 11.9477
DTLB LOAD TRANSLATION ACCESS:   36865159  HIT:   34475624  MISS:    2389535  HIT %:    93.5182  MISS %:    6.48182   MPKI: 11.9477
DTLB PREFETCH  REQUESTED:          0  ISSUED:          0  USEFUL:          0  USELESS:          0
DTLB USEFUL LOAD PREFETCHES:          0 PREFETCH ISSUED TO LOWER LEVEL:          0  ACCURACY: -nan
DTLB TIMELY PREFETCHES:          0 LATE PREFETCHES: 0 DROPPED PREFETCHES: 0
DTLB PREFETCHES SAME FILL-ORIGIN LEVEL: 0 DIFFERENT FILL-ORIGIN LEVEL: 0
DTLB AVERAGE MISS LATENCY: 14.1068 cycles
DTLB RQ	ACCESS:   47236073	FORWARD:          0	MERGED:   10228570	TO_CACHE:   37007503

STLB TOTAL     ACCESS:    3191226  HIT:    2813178  MISS:     378048  HIT %:    88.1535  MISS %:    11.8465   MPKI: 1.89024
STLB LOAD TRANSLATION ACCESS:    3125246  HIT:    2747468  MISS:     377778  HIT %:    87.9121  MISS %:    12.0879   MPKI: 1.88889
STLB TRANSLATION FROM L1D PREFETCHER ACCESS:      65980  HIT:      65710  MISS:        270  HIT %:    99.5908  MISS %:   0.409215   MPKI: 0.00135
STLB PREFETCH  REQUESTED:          0  ISSUED:          0  USEFUL:        203  USELESS:         67
STLB USEFUL LOAD PREFETCHES:        203 PREFETCH ISSUED TO LOWER LEVEL:          0  ACCURACY: inf
STLB TIMELY PREFETCHES:        203 LATE PREFETCHES: 0 DROPPED PREFETCHES: 1503
STLB PREFETCHES SAME FILL-ORIGIN LEVEL: 0 DIFFERENT FILL-ORIGIN LEVEL: 0
STLB AVERAGE MISS LATENCY: 42.9036 cycles
STLB RQ	ACCESS:    3405661	FORWARD:          0	MERGED:     212933	TO_CACHE:    3192728

STLB Hit, L1D data hit: 0
STLB Hit, L2C data hit: 0
STLB Hit, LLC data hit: 0
STLB Hit, LLC data miss: 0
STLB STLB hints to L2: 0
L1D TOTAL     ACCESS:   46844644  HIT:   44504509  MISS:    2340135  HIT %:    95.0045  MISS %:    4.99552   MPKI: 11.7007
L1D LOAD      ACCESS:   27463906  HIT:   25437805  MISS:    2026101  HIT %:    92.6227  MISS %:    7.37732   MPKI: 10.1305
L1D RFO       ACCESS:   19264432  HIT:   18953163  MISS:     311269  HIT %:    98.3842  MISS %:    1.61577   MPKI: 1.55634
L1D PREFETCH  ACCESS:     116306  HIT:     113541  MISS:       2765  HIT %:    97.6227  MISS %:    2.37735   MPKI: 0.013825
L1D PREFETCH  REQUESTED:     560843  ISSUED:     560843  USEFUL:       1548  USELESS:       1217
L1D USEFUL LOAD PREFETCHES:       1548 PREFETCH ISSUED TO LOWER LEVEL:     163756  ACCURACY: 0.945309
L1D TIMELY PREFETCHES:       1548 LATE PREFETCHES: 27 DROPPED PREFETCHES: 2976
L1D PREFETCHES SAME FILL-ORIGIN LEVEL: 2792 DIFFERENT FILL-ORIGIN LEVEL: 160964
L1D AVERAGE MISS LATENCY: 47.7893 cycles
L1D RQ	ACCESS:   42617566	FORWARD:          0	MERGED:   14802760	TO_CACHE:   27587414
L1D WQ	ACCESS:   19969250	FORWARD:     227392	MERGED:     320591	TO_CACHE:   19648659
L1D PQ	ACCESS:     280427	FORWARD:          0	MERGED:         11	TO_CACHE:     280416

L1D UNIQUE REGIONS ACCESSED: 0
L1D REGIONS CONFLICTS: 0
L1D Cross Page Prefetch Requests: 31950
L1D Same Page Prefetch Requests: 311165
L1D ROI Sum of L1D PQ occupancy: 4125581
L1D PREFETCHES PUSHED FROM L2C: 0
L1I TOTAL     ACCESS:   36406592  HIT:   31636521  MISS:    4770071  HIT %:    86.8978  MISS %:    13.1022   MPKI: 23.8504
L1I LOAD      ACCESS:   36406592  HIT:   31636521  MISS:    4770071  HIT %:    86.8978  MISS %:    13.1022   MPKI: 23.8504
L1I PREFETCH  REQUESTED:          0  ISSUED:          0  USEFUL:          0  USELESS:          0
L1I USEFUL LOAD PREFETCHES:          0 PREFETCH ISSUED TO LOWER LEVEL:          0  ACCURACY: -nan
L1I TIMELY PREFETCHES:          0 LATE PREFETCHES: 0 DROPPED PREFETCHES: 0
L1I PREFETCHES SAME FILL-ORIGIN LEVEL: 0 DIFFERENT FILL-ORIGIN LEVEL: 0
L1I AVERAGE MISS LATENCY: 26.583 cycles
L1I RQ	ACCESS:   56570275	FORWARD:          0	MERGED:   18522452	TO_CACHE:   38047823

BTB TOTAL     ACCESS:   21751551  HIT:   17439369  MISS:    4312182  HIT %:    80.1753  MISS %:    19.8247   MPKI: 21.5609
BTB BRANCH_DIRECT_JUMP	ACCESS:    1714565  HIT:    1465961  MISS:     248604
BTB BRANCH_INDIRECT	ACCESS:    9411853  HIT:    7323167  MISS:    2088686
BTB BRANCH_CONDITIONAL	ACCESS:    4498891  HIT:    4091160  MISS:     407731
BTB BRANCH_DIRECT_CALL	ACCESS:    2431594  HIT:    1968834  MISS:     462760
BTB BRANCH_INDIRECT_CALL	ACCESS:     630486  HIT:     593321  MISS:      37165
BTB BRANCH_RETURN	ACCESS:    3064162  HIT:    1996926  MISS:    1067236
BTB BRANCH_OTHER ACCESS:          0  HIT:          0  MISS:          0

L2C TOTAL     ACCESS:    8723866  HIT:    5423921  MISS:    3299945  HIT %:    62.1734  MISS %:    37.8266   MPKI: 16.4997
L2C LOAD      ACCESS:    6795995  HIT:    3910028  MISS:    2885967  HIT %:    57.5343  MISS %:    42.4657   MPKI: 14.4298
L2C DATA LOAD MPKI: 4.90512
L2C INSTRUCTION LOAD MPKI: 9.52471
L2C RFO       ACCESS:     311194  HIT:     168960  MISS:     142234  HIT %:    54.2941  MISS %:    45.7059   MPKI: 0.71117
L2C PREFETCH  ACCESS:     162703  HIT:     130096  MISS:      32607  HIT %:    79.9592  MISS %:    20.0408   MPKI: 0.163035
L2C DATA PREFETCH MPKI: 0.163035
L2C INSTRUCTION PREFETCH MPKI: 0
L2C WRITEBACK ACCESS:     963594  HIT:     910109  MISS:      53485  HIT %:    94.4494  MISS %:    5.55057   MPKI: 0.267425
L2C LOAD TRANSLATION ACCESS:     488103  HIT:     302686  MISS:     185417  HIT %:    62.0127  MISS %:    37.9873   MPKI: 0.927085
L2C TRANSLATION FROM L1D PREFETCHER ACCESS:       2277  HIT:       2042  MISS:        235  HIT %:    89.6794  MISS %:    10.3206   MPKI: 0.001175
L2C PREFETCH  REQUESTED:          0  ISSUED:          0  USEFUL:      10616  USELESS:      22244
L2C USEFUL LOAD PREFETCHES:      10616 PREFETCH ISSUED TO LOWER LEVEL:      32633  ACCURACY: 32.5315
L2C TIMELY PREFETCHES:      10616 LATE PREFETCHES: 26 DROPPED PREFETCHES: 0
L2C PREFETCHES SAME FILL-ORIGIN LEVEL: 31546 DIFFERENT FILL-ORIGIN LEVEL: 0
L2C AVERAGE MISS LATENCY: 44.3362 cycles
L2C RQ	ACCESS:    7597793	FORWARD:          0	MERGED:          0	TO_CACHE:    7597569
L2C WQ	ACCESS:     963595	FORWARD:        224	MERGED:          0	TO_CACHE:     963595
L2C PQ	ACCESS:     163756	FORWARD:          0	MERGED:          0	TO_CACHE:     163756

L2C Instructions Evicting Data 693821
L2C Translations Evicting Data 68954
L2C Data Evicting Data 427025
L2C Instructions Evicting Instructions 1105020
L2C Translations Evicting Instructions 107151
L2C Data Evicting Instructions 661857
L2C Instructions Evicting Translations 106102
L2C Translations Evicting Translations 9547
L2C Data Evicting Translations 66983
L2C Dense regions hint from L2: 0
PSCL5 TOTAL     ACCESS:     379550  HIT:     379550  MISS:          0  HIT %:        100  MISS %:          0   MPKI: 0
PSCL5 LOAD TRANSLATION ACCESS:     377777  HIT:     377777  MISS:          0  HIT %:        100  MISS %:          0   MPKI: 0
PSCL5 TRANSLATION FROM L1D PREFETCHER ACCESS:       1773  HIT:       1773  MISS:          0  HIT %:        100  MISS %:          0   MPKI: 0
PSCL5 PREFETCH  REQUESTED:          0  ISSUED:          0  USEFUL:          0  USELESS:          0
PSCL5 USEFUL LOAD PREFETCHES:          0 PREFETCH ISSUED TO LOWER LEVEL:          0  ACCURACY: -nan
PSCL5 TIMELY PREFETCHES:          0 LATE PREFETCHES: 0 DROPPED PREFETCHES: 0
PSCL5 PREFETCHES SAME FILL-ORIGIN LEVEL: 0 DIFFERENT FILL-ORIGIN LEVEL: 0

PSCL4 TOTAL     ACCESS:     355517  HIT:     354896  MISS:        621  HIT %:    99.8253  MISS %:   0.174675   MPKI: 0.003105
PSCL4 LOAD TRANSLATION ACCESS:     353838  HIT:     353217  MISS:        621  HIT %:    99.8245  MISS %:   0.175504   MPKI: 0.003105
PSCL4 TRANSLATION FROM L1D PREFETCHER ACCESS:       1679  HIT:       1679  MISS:          0  HIT %:        100  MISS %:          0   MPKI: 0
PSCL4 PREFETCH  REQUESTED:          0  ISSUED:          0  USEFUL:          0  USELESS:          0
PSCL4 USEFUL LOAD PREFETCHES:          0 PREFETCH ISSUED TO LOWER LEVEL:          0  ACCURACY: -nan
PSCL4 TIMELY PREFETCHES:          0 LATE PREFETCHES: 0 DROPPED PREFETCHES: 0
PSCL4 PREFETCHES SAME FILL-ORIGIN LEVEL: 0 DIFFERENT FILL-ORIGIN LEVEL: 0

PSCL3 TOTAL     ACCESS:     378466  HIT:     376462  MISS:       2004  HIT %:    99.4705  MISS %:   0.529506   MPKI: 0.01002
PSCL3 LOAD TRANSLATION ACCESS:     376699  HIT:     374695  MISS:       2004  HIT %:     99.468  MISS %:    0.53199   MPKI: 0.01002
PSCL3 TRANSLATION FROM L1D PREFETCHER ACCESS:       1767  HIT:       1767  MISS:          0  HIT %:        100  MISS %:          0   MPKI: 0
PSCL3 PREFETCH  REQUESTED:          0  ISSUED:          0  USEFUL:          0  USELESS:          0
PSCL3 USEFUL LOAD PREFETCHES:          0 PREFETCH ISSUED TO LOWER LEVEL:          0  ACCURACY: -nan
PSCL3 TIMELY PREFETCHES:          0 LATE PREFETCHES: 0 DROPPED PREFETCHES: 0
PSCL3 PREFETCHES SAME FILL-ORIGIN LEVEL: 0 DIFFERENT FILL-ORIGIN LEVEL: 0

PSCL2 TOTAL     ACCESS:     379162  HIT:     271346  MISS:     107816  HIT %:    71.5647  MISS %:    28.4353   MPKI: 0.53908
PSCL2 LOAD TRANSLATION ACCESS:     377893  HIT:     270077  MISS:     107816  HIT %:    71.4692  MISS %:    28.5308   MPKI: 0.53908
PSCL2 TRANSLATION FROM L1D PREFETCHER ACCESS:       1269  HIT:       1269  MISS:          0  HIT %:        100  MISS %:          0   MPKI: 0
PSCL2 PREFETCH  REQUESTED:          0  ISSUED:          0  USEFUL:          0  USELESS:          0
PSCL2 USEFUL LOAD PREFETCHES:          0 PREFETCH ISSUED TO LOWER LEVEL:          0  ACCURACY: -nan
PSCL2 TIMELY PREFETCHES:          0 LATE PREFETCHES: 0 DROPPED PREFETCHES: 0
PSCL2 PREFETCHES SAME FILL-ORIGIN LEVEL: 0 DIFFERENT FILL-ORIGIN LEVEL: 0

LLC TOTAL     ACCESS:    3691662  HIT:    3383040  MISS:     308622  HIT %:      91.64  MISS %:    8.35997   MPKI: 1.54311
LLC LOAD      ACCESS:    2885935  HIT:    2650342  MISS:     235593  HIT %:    91.8365  MISS %:    8.16349   MPKI: 1.17796
LLC RFO       ACCESS:     142232  HIT:      92998  MISS:      49234  HIT %:    65.3847  MISS %:    34.6153   MPKI: 0.24617
LLC PREFETCH  ACCESS:      32633  HIT:      21236  MISS:      11397  HIT %:    65.0752  MISS %:    34.9248   MPKI: 0.056985
LLC WRITEBACK ACCESS:     445210  HIT:     442947  MISS:       2263  HIT %:    99.4917  MISS %:   0.508299   MPKI: 0.011315
LLC LOAD TRANSLATION ACCESS:     185417  HIT:     175308  MISS:      10109  HIT %:     94.548  MISS %:    5.45204   MPKI: 0.050545
LLC TRANSLATION FROM L1D PREFETCHER ACCESS:        235  HIT:        209  MISS:         26  HIT %:    88.9362  MISS %:    11.0638   MPKI: 0.00013
LLC PREFETCH  REQUESTED:          0  ISSUED:          0  USEFUL:       1390  USELESS:       9768
LLC USEFUL LOAD PREFETCHES:       1390 PREFETCH ISSUED TO LOWER LEVEL:      11397  ACCURACY: 12.1962
LLC TIMELY PREFETCHES:       1390 LATE PREFETCHES: 0 DROPPED PREFETCHES: 0
LLC PREFETCHES SAME FILL-ORIGIN LEVEL: 0 DIFFERENT FILL-ORIGIN LEVEL: 0
LLC AVERAGE MISS LATENCY: 158.485 cycles
LLC RQ	ACCESS:    3213827	FORWARD:          0	MERGED:          0	TO_CACHE:    3213819
LLC WQ	ACCESS:     445210	FORWARD:          8	MERGED:          0	TO_CACHE:     445210
LLC PQ	ACCESS:      32633	FORWARD:          0	MERGED:          0	TO_CACHE:      32633

LLC Dense regions hint to LLC: 0

RAW hits: 3136617
Loads Generated: 45754181
Loads sent to L1D: 42617566
Stores Generated: 19969261
Stores sent to L1D: 19969250
Major fault: 0 Minor fault: 5849
Allocated PAGES: 5849

DRAM Statistics
 CHANNEL 0
 RQ ROW_BUFFER_HIT:      57590  ROW_BUFFER_MISS:     248769
 DBUS_CONGESTED:         77
 WQ ROW_BUFFER_HIT:      31090  ROW_BUFFER_MISS:     185833  FULL:          0

 AVG_CONGESTED_CYCLE: 4
 All warmup complete: 2
Channel 0 Bank busy for read cycles: 0
Channel 0 Bank busy for write cycles: 0
Channel 0
Rank 0
0banks busy for read cycles: 382810835
0banks busy for write cycles: 123601
1banks busy for read cycles: 28677918
1banks busy for write cycles: 17672533
2banks busy for read cycles: 3380890
2banks busy for write cycles: 4043234
3banks busy for read cycles: 481926
3banks busy for write cycles: 1428525
4banks busy for read cycles: 255744
4banks busy for write cycles: 717428
5banks busy for read cycles: 114907
5banks busy for write cycles: 399932
6banks busy for read cycles: 78727
6banks busy for write cycles: 224988
7banks busy for read cycles: 52207
7banks busy for write cycles: 188646
8banks busy for read cycles: 111689
8banks busy for write cycles: 268112

CPU 0 Branch Prediction Accuracy: 99.7946% MPKI: 0.361505 Average ROB Occupancy at Mispredict: 43.8235
Branch types
NOT_BRANCH: 164798107 82.3991%
BRANCH_DIRECT_JUMP: 1714565 0.857282%
BRANCH_INDIRECT: 9411853 4.70593%
BRANCH_CONDITIONAL: 17949372 8.97469%
BRANCH_DIRECT_CALL: 2431594 1.2158%
BRANCH_INDIRECT_CALL: 630486 0.315243%
BRANCH_RETURN: 3064162 1.53208%
BRANCH_OTHER: 0 0%

DRAM PAGES: 1048576
Allocated PAGES: 5849
