
*** ChampSim Multicore Out-of-Order Simulator ***

Warmup Instructions: 50000000
Simulation Instructions: 200000000
Number of CPUs: 1
LLC sets: 2048
LLC ways: 16
Off-chip DRAM Size: 4096 MB Channels: 1 Width: 64-bit Data Rate: 6400 MT/s
CPU 0 runs traces/spec2k17/srv_11.champsimtrace.xz
.xz
BTB has LRU replacement policy
ITLB has LRU replacement policy
DTLB has LRU replacement policy
STLB has LRU replacement policy
L1I has LRU replacement policy
History Sets: 8
History Ways: 16
BERTI Size: 16
BERTI Stride Size: 16
L1D has LRU replacement policy
Initialize SRRIP state for L2C
Initialize DRRIP state for LLC
Heartbeat CPU 0 instructions: 10000000 cycles: 3271376 heartbeat IPC: 3.05682 cumulative IPC: 3.05682 (Simulation time: 0 hr 0 min 46 sec) 
Heartbeat CPU 0 instructions: 20000002 cycles: 7633865 heartbeat IPC: 2.29227 cumulative IPC: 2.61991 (Simulation time: 0 hr 1 min 45 sec) 
Heartbeat CPU 0 instructions: 30000001 cycles: 10407299 heartbeat IPC: 3.60564 cumulative IPC: 2.88259 (Simulation time: 0 hr 2 min 19 sec) 
*** Reached end of trace for Core: 0 Repeating trace: traces/spec2k17/srv_11.champsimtrace.xz
Heartbeat CPU 0 instructions: 40000001 cycles: 13519497 heartbeat IPC: 3.21316 cumulative IPC: 2.95869 (Simulation time: 0 hr 3 min 4 sec) 
Heartbeat CPU 0 instructions: 50000000 cycles: 18033771 heartbeat IPC: 2.2152 cumulative IPC: 2.77258 (Simulation time: 0 hr 4 min 8 sec) 

Warmup complete CPU 0 instructions: 50000004 cycles: 18033772 (Simulation time: 0 hr 4 min 8 sec) 

Heartbeat CPU 0 instructions: 60000003 cycles: 41675117 heartbeat IPC: 0.422988 cumulative IPC: 0.422988 (Simulation time: 0 hr 5 min 2 sec) 
*** Reached end of trace for Core: 0 Repeating trace: traces/spec2k17/srv_11.champsimtrace.xz
Heartbeat CPU 0 instructions: 70000000 cycles: 65593626 heartbeat IPC: 0.418086 cumulative IPC: 0.420523 (Simulation time: 0 hr 5 min 49 sec) 
Heartbeat CPU 0 instructions: 80000001 cycles: 105798901 heartbeat IPC: 0.248724 cumulative IPC: 0.341821 (Simulation time: 0 hr 7 min 14 sec) 
Heartbeat CPU 0 instructions: 90000003 cycles: 130462205 heartbeat IPC: 0.405461 cumulative IPC: 0.355782 (Simulation time: 0 hr 7 min 59 sec) 
*** Reached end of trace for Core: 0 Repeating trace: traces/spec2k17/srv_11.champsimtrace.xz
Heartbeat CPU 0 instructions: 100000003 cycles: 153962684 heartbeat IPC: 0.425523 cumulative IPC: 0.367839 (Simulation time: 0 hr 8 min 53 sec) 
Heartbeat CPU 0 instructions: 110000000 cycles: 193175462 heartbeat IPC: 0.255019 cumulative IPC: 0.34258 (Simulation time: 0 hr 10 min 12 sec) 
Heartbeat CPU 0 instructions: 120000000 cycles: 218998888 heartbeat IPC: 0.387245 cumulative IPC: 0.348319 (Simulation time: 0 hr 11 min 11 sec) 
*** Reached end of trace for Core: 0 Repeating trace: traces/spec2k17/srv_11.champsimtrace.xz
Heartbeat CPU 0 instructions: 130000002 cycles: 242462052 heartbeat IPC: 0.4262 cumulative IPC: 0.356461 (Simulation time: 0 hr 11 min 58 sec) 
Heartbeat CPU 0 instructions: 140000002 cycles: 280453814 heartbeat IPC: 0.263215 cumulative IPC: 0.342962 (Simulation time: 0 hr 13 min 13 sec) 
Heartbeat CPU 0 instructions: 150000002 cycles: 307250604 heartbeat IPC: 0.373179 cumulative IPC: 0.345761 (Simulation time: 0 hr 14 min 0 sec) 
*** Reached end of trace for Core: 0 Repeating trace: traces/spec2k17/srv_11.champsimtrace.xz
Heartbeat CPU 0 instructions: 160000003 cycles: 330867324 heartbeat IPC: 0.423429 cumulative IPC: 0.351625 (Simulation time: 0 hr 14 min 47 sec) 
Heartbeat CPU 0 instructions: 170000000 cycles: 367680259 heartbeat IPC: 0.271644 cumulative IPC: 0.343204 (Simulation time: 0 hr 16 min 0 sec) 
Heartbeat CPU 0 instructions: 180000001 cycles: 395634292 heartbeat IPC: 0.35773 cumulative IPC: 0.344279 (Simulation time: 0 hr 16 min 59 sec) 
*** Reached end of trace for Core: 0 Repeating trace: traces/spec2k17/srv_11.champsimtrace.xz
Heartbeat CPU 0 instructions: 190000003 cycles: 419063811 heartbeat IPC: 0.426812 cumulative IPC: 0.349101 (Simulation time: 0 hr 17 min 50 sec) 
Heartbeat CPU 0 instructions: 200000000 cycles: 454868875 heartbeat IPC: 0.27929 cumulative IPC: 0.343379 (Simulation time: 0 hr 19 min 3 sec) 
Heartbeat CPU 0 instructions: 210000001 cycles: 483984219 heartbeat IPC: 0.343462 cumulative IPC: 0.343384 (Simulation time: 0 hr 20 min 10 sec) 
*** Reached end of trace for Core: 0 Repeating trace: traces/spec2k17/srv_11.champsimtrace.xz
Heartbeat CPU 0 instructions: 220000000 cycles: 507475641 heartbeat IPC: 0.425687 cumulative IPC: 0.347334 (Simulation time: 0 hr 21 min 0 sec) 
Heartbeat CPU 0 instructions: 230000000 cycles: 542043829 heartbeat IPC: 0.289283 cumulative IPC: 0.343505 (Simulation time: 0 hr 22 min 16 sec) 
Heartbeat CPU 0 instructions: 240000002 cycles: 572341949 heartbeat IPC: 0.330054 cumulative IPC: 0.34277 (Simulation time: 0 hr 23 min 26 sec) 
*** Reached end of trace for Core: 0 Repeating trace: traces/spec2k17/srv_11.champsimtrace.xz
Heartbeat CPU 0 instructions: 250000002 cycles: 595804027 heartbeat IPC: 0.42622 cumulative IPC: 0.346158 (Simulation time: 0 hr 24 min 15 sec) 
Finished CPU 0 instructions: 200000002 cycles: 577770256 cumulative IPC: 0.346158 (Simulation time: 0 hr 24 min 15 sec) 

ChampSim completed all CPUs

Region of Interest Statistics

CPU 0 cumulative IPC: 0.346158 instructions: 200000002 cycles: 577770256
ITLB TOTAL     ACCESS:   37990854  HIT:   37451377  MISS:     539477  HIT %:      98.58  MISS %:    1.42002   MPKI: 2.69738
ITLB LOAD TRANSLATION ACCESS:   37990854  HIT:   37451377  MISS:     539477  HIT %:      98.58  MISS %:    1.42002   MPKI: 2.69738
ITLB PREFETCH  REQUESTED:          0  ISSUED:          0  USEFUL:          0  USELESS:          0
ITLB USEFUL LOAD PREFETCHES:          0 PREFETCH ISSUED TO LOWER LEVEL:          0  ACCURACY: -nan
ITLB TIMELY PREFETCHES:          0 LATE PREFETCHES: 0 DROPPED PREFETCHES: 0
ITLB PREFETCHES SAME FILL-ORIGIN LEVEL: 0 DIFFERENT FILL-ORIGIN LEVEL: 0
ITLB AVERAGE MISS LATENCY: 15.9613 cycles
ITLB RQ	ACCESS:   43893892	FORWARD:          0	MERGED:    5774325	TO_CACHE:   38119567

DTLB TOTAL     ACCESS:   43868156  HIT:   34881611  MISS:    8986545  HIT %:    79.5147  MISS %:    20.4853   MPKI: 44.9327
DTLB LOAD TRANSLATION ACCESS:   43868156  HIT:   34881611  MISS:    8986545  HIT %:    79.5147  MISS %:    20.4853   MPKI: 44.9327
DTLB PREFETCH  REQUESTED:          0  ISSUED:          0  USEFUL:          0  USELESS:          0
DTLB USEFUL LOAD PREFETCHES:          0 PREFETCH ISSUED TO LOWER LEVEL:          0  ACCURACY: -nan
DTLB TIMELY PREFETCHES:          0 LATE PREFETCHES: 0 DROPPED PREFETCHES: 0
DTLB PREFETCHES SAME FILL-ORIGIN LEVEL: 0 DIFFERENT FILL-ORIGIN LEVEL: 0
DTLB AVERAGE MISS LATENCY: 9.95863 cycles
DTLB RQ	ACCESS:   58954857	FORWARD:          0	MERGED:   14876406	TO_CACHE:   44078451

STLB TOTAL     ACCESS:   13862468  HIT:   13548174  MISS:     314294  HIT %:    97.7328  MISS %:    2.26723   MPKI: 1.57147
STLB LOAD TRANSLATION ACCESS:    9526022  HIT:    9212647  MISS:     313375  HIT %:    96.7103  MISS %:    3.28967   MPKI: 1.56687
STLB TRANSLATION FROM L1D PREFETCHER ACCESS:    4336446  HIT:    4335527  MISS:        919  HIT %:    99.9788  MISS %:  0.0211925   MPKI: 0.004595
STLB PREFETCH  REQUESTED:          0  ISSUED:          0  USEFUL:        878  USELESS:         43
STLB USEFUL LOAD PREFETCHES:        878 PREFETCH ISSUED TO LOWER LEVEL:          0  ACCURACY: inf
STLB TIMELY PREFETCHES:        878 LATE PREFETCHES: 8 DROPPED PREFETCHES: 2044973
STLB PREFETCHES SAME FILL-ORIGIN LEVEL: 0 DIFFERENT FILL-ORIGIN LEVEL: 0
STLB AVERAGE MISS LATENCY: 40.1834 cycles
STLB RQ	ACCESS:   25824960	FORWARD:          0	MERGED:    9718717	TO_CACHE:   16106243

STLB Hit, L1D data hit: 0
STLB Hit, L2C data hit: 0
STLB Hit, LLC data hit: 0
STLB Hit, LLC data miss: 0
STLB STLB hints to L2: 0
L1D TOTAL     ACCESS:   60500560  HIT:   47793474  MISS:   12707086  HIT %:    78.9967  MISS %:    21.0033   MPKI: 63.5354
L1D LOAD      ACCESS:   41027442  HIT:   29593977  MISS:   11433465  HIT %:    72.1322  MISS %:    27.8678   MPKI: 57.1673
L1D RFO       ACCESS:   17519383  HIT:   17148191  MISS:     371192  HIT %:    97.8812  MISS %:    2.11875   MPKI: 1.85596
L1D PREFETCH  ACCESS:    1953735  HIT:    1051306  MISS:     902429  HIT %:    53.8101  MISS %:    46.1899   MPKI: 4.51214
L1D PREFETCH  REQUESTED:   36289197  ISSUED:   33960853  USEFUL:     271137  USELESS:     631362
L1D USEFUL LOAD PREFETCHES:     271137 PREFETCH ISSUED TO LOWER LEVEL:   10113095  ACCURACY: 2.68105
L1D TIMELY PREFETCHES:     271137 LATE PREFETCHES: 15696 DROPPED PREFETCHES: 4975959
L1D PREFETCHES SAME FILL-ORIGIN LEVEL: 918161 DIFFERENT FILL-ORIGIN LEVEL: 9194934
L1D AVERAGE MISS LATENCY: 19.4964 cycles
L1D RQ	ACCESS:   54023592	FORWARD:          0	MERGED:   12733459	TO_CACHE:   41124506
L1D WQ	ACCESS:   18064452	FORWARD:     165627	MERGED:     234101	TO_CACHE:   17830351
L1D PQ	ACCESS:   17661915	FORWARD:          0	MERGED:    1362977	TO_CACHE:   16298938

L1D UNIQUE REGIONS ACCESSED: 0
L1D REGIONS CONFLICTS: 0
L1D Cross Page Prefetch Requests: 16929214
L1D Same Page Prefetch Requests: 4494207
L1D ROI Sum of L1D PQ occupancy: 446520332
L1D PREFETCHES PUSHED FROM L2C: 0
L1I TOTAL     ACCESS:   42777821  HIT:   39355679  MISS:    3422142  HIT %:    92.0002  MISS %:     7.9998   MPKI: 17.1107
L1I LOAD      ACCESS:   42777821  HIT:   39355679  MISS:    3422142  HIT %:    92.0002  MISS %:     7.9998   MPKI: 17.1107
L1I PREFETCH  REQUESTED:          0  ISSUED:          0  USEFUL:          0  USELESS:          0
L1I USEFUL LOAD PREFETCHES:          0 PREFETCH ISSUED TO LOWER LEVEL:          0  ACCURACY: -nan
L1I TIMELY PREFETCHES:          0 LATE PREFETCHES: 0 DROPPED PREFETCHES: 0
L1I PREFETCHES SAME FILL-ORIGIN LEVEL: 0 DIFFERENT FILL-ORIGIN LEVEL: 0
L1I AVERAGE MISS LATENCY: 28.2897 cycles
L1I RQ	ACCESS:   65990141	FORWARD:          0	MERGED:   22096249	TO_CACHE:   43893892

BTB TOTAL     ACCESS:   33562539  HIT:   29061289  MISS:    4501250  HIT %:    86.5885  MISS %:    13.4115   MPKI: 22.5062
BTB BRANCH_DIRECT_JUMP	ACCESS:    1685269  HIT:    1483558  MISS:     201711
BTB BRANCH_INDIRECT	ACCESS:   19828015  HIT:   17476346  MISS:    2351669
BTB BRANCH_CONDITIONAL	ACCESS:    4608066  HIT:    4287796  MISS:     320270
BTB BRANCH_DIRECT_CALL	ACCESS:    2993939  HIT:    2599188  MISS:     394751
BTB BRANCH_INDIRECT_CALL	ACCESS:     724221  HIT:     681906  MISS:      42315
BTB BRANCH_RETURN	ACCESS:    3723029  HIT:    2532495  MISS:    1190534
BTB BRANCH_OTHER ACCESS:          0  HIT:          0  MISS:          0

L2C TOTAL     ACCESS:   28769209  HIT:   26087160  MISS:    2682049  HIT %:    90.6774  MISS %:    9.32264   MPKI: 13.4102
L2C LOAD      ACCESS:   14839861  HIT:   12542192  MISS:    2297669  HIT %:    84.5169  MISS %:    15.4831   MPKI: 11.4883
L2C DATA LOAD MPKI: 3.74166
L2C INSTRUCTION LOAD MPKI: 7.74668
L2C RFO       ACCESS:     371192  HIT:     244789  MISS:     126403  HIT %:    65.9467  MISS %:    34.0533   MPKI: 0.632015
L2C PREFETCH  ACCESS:   10090458  HIT:   10025955  MISS:      64503  HIT %:    99.3608  MISS %:   0.639247   MPKI: 0.322515
L2C DATA PREFETCH MPKI: 0.322515
L2C INSTRUCTION PREFETCH MPKI: 0
L2C WRITEBACK ACCESS:     807533  HIT:     765397  MISS:      42136  HIT %:    94.7821  MISS %:    5.21787   MPKI: 0.21068
L2C LOAD TRANSLATION ACCESS:     397589  HIT:     246462  MISS:     151127  HIT %:    61.9891  MISS %:    38.0109   MPKI: 0.755635
L2C TRANSLATION FROM L1D PREFETCHER ACCESS:    2262576  HIT:    2262365  MISS:        211  HIT %:    99.9907  MISS %: 0.00932565   MPKI: 0.001055
L2C PREFETCH  REQUESTED:          0  ISSUED:          0  USEFUL:      17374  USELESS:      48207
L2C USEFUL LOAD PREFETCHES:      17374 PREFETCH ISSUED TO LOWER LEVEL:      67589  ACCURACY: 25.7054
L2C TIMELY PREFETCHES:      17374 LATE PREFETCHES: 3086 DROPPED PREFETCHES: 0
L2C PREFETCHES SAME FILL-ORIGIN LEVEL: 57899 DIFFERENT FILL-ORIGIN LEVEL: 0
L2C AVERAGE MISS LATENCY: 43.1663 cycles
L2C RQ	ACCESS:   17871268	FORWARD:          0	MERGED:          0	TO_CACHE:   17871218
L2C WQ	ACCESS:     807533	FORWARD:         50	MERGED:          0	TO_CACHE:     807533
L2C PQ	ACCESS:   10111360	FORWARD:          0	MERGED:        647	TO_CACHE:   10110713

L2C Instructions Evicting Data 564770
L2C Translations Evicting Data 53832
L2C Data Evicting Data 348689
L2C Instructions Evicting Instructions 895746
L2C Translations Evicting Instructions 90145
L2C Data Evicting Instructions 537994
L2C Instructions Evicting Translations 88820
L2C Translations Evicting Translations 7361
L2C Data Evicting Translations 52556
L2C Dense regions hint from L2: 0
PSCL5 TOTAL     ACCESS:    2359267  HIT:    2359267  MISS:          0  HIT %:        100  MISS %:          0   MPKI: 0
PSCL5 LOAD TRANSLATION ACCESS:     313367  HIT:     313367  MISS:          0  HIT %:        100  MISS %:          0   MPKI: 0
PSCL5 TRANSLATION FROM L1D PREFETCHER ACCESS:    2045900  HIT:    2045900  MISS:          0  HIT %:        100  MISS %:          0   MPKI: 0
PSCL5 PREFETCH  REQUESTED:          0  ISSUED:          0  USEFUL:          0  USELESS:          0
PSCL5 USEFUL LOAD PREFETCHES:          0 PREFETCH ISSUED TO LOWER LEVEL:          0  ACCURACY: -nan
PSCL5 TIMELY PREFETCHES:          0 LATE PREFETCHES: 0 DROPPED PREFETCHES: 0
PSCL5 PREFETCHES SAME FILL-ORIGIN LEVEL: 0 DIFFERENT FILL-ORIGIN LEVEL: 0

PSCL4 TOTAL     ACCESS:    2338431  HIT:    2337687  MISS:        744  HIT %:    99.9682  MISS %:  0.0318162   MPKI: 0.00372
PSCL4 LOAD TRANSLATION ACCESS:     292634  HIT:     291890  MISS:        744  HIT %:    99.7458  MISS %:   0.254243   MPKI: 0.00372
PSCL4 TRANSLATION FROM L1D PREFETCHER ACCESS:    2045797  HIT:    2045797  MISS:          0  HIT %:        100  MISS %:          0   MPKI: 0
PSCL4 PREFETCH  REQUESTED:          0  ISSUED:          0  USEFUL:          0  USELESS:          0
PSCL4 USEFUL LOAD PREFETCHES:          0 PREFETCH ISSUED TO LOWER LEVEL:          0  ACCURACY: -nan
PSCL4 TIMELY PREFETCHES:          0 LATE PREFETCHES: 0 DROPPED PREFETCHES: 0
PSCL4 PREFETCHES SAME FILL-ORIGIN LEVEL: 0 DIFFERENT FILL-ORIGIN LEVEL: 0

PSCL3 TOTAL     ACCESS:    2356685  HIT:    2354252  MISS:       2433  HIT %:    99.8968  MISS %:   0.103238   MPKI: 0.012165
PSCL3 LOAD TRANSLATION ACCESS:     310785  HIT:     308352  MISS:       2433  HIT %:    99.2171  MISS %:   0.782856   MPKI: 0.012165
PSCL3 TRANSLATION FROM L1D PREFETCHER ACCESS:    2045900  HIT:    2045900  MISS:          0  HIT %:        100  MISS %:          0   MPKI: 0
PSCL3 PREFETCH  REQUESTED:          0  ISSUED:          0  USEFUL:          0  USELESS:          0
PSCL3 USEFUL LOAD PREFETCHES:          0 PREFETCH ISSUED TO LOWER LEVEL:          0  ACCURACY: -nan
PSCL3 TIMELY PREFETCHES:          0 LATE PREFETCHES: 0 DROPPED PREFETCHES: 0
PSCL3 PREFETCHES SAME FILL-ORIGIN LEVEL: 0 DIFFERENT FILL-ORIGIN LEVEL: 0

PSCL2 TOTAL     ACCESS:    2142699  HIT:    2061546  MISS:      81153  HIT %:    96.2126  MISS %:    3.78742   MPKI: 0.405765
PSCL2 LOAD TRANSLATION ACCESS:     313475  HIT:     232322  MISS:      81153  HIT %:    74.1118  MISS %:    25.8882   MPKI: 0.405765
PSCL2 TRANSLATION FROM L1D PREFETCHER ACCESS:    1829224  HIT:    1829224  MISS:          0  HIT %:        100  MISS %:          0   MPKI: 0
PSCL2 PREFETCH  REQUESTED:          0  ISSUED:          0  USEFUL:          0  USELESS:          0
PSCL2 USEFUL LOAD PREFETCHES:          0 PREFETCH ISSUED TO LOWER LEVEL:          0  ACCURACY: -nan
PSCL2 TIMELY PREFETCHES:          0 LATE PREFETCHES: 0 DROPPED PREFETCHES: 0
PSCL2 PREFETCHES SAME FILL-ORIGIN LEVEL: 0 DIFFERENT FILL-ORIGIN LEVEL: 0

LLC TOTAL     ACCESS:    2978003  HIT:    2770925  MISS:     207078  HIT %:    93.0464  MISS %:    6.95359   MPKI: 1.03539
LLC LOAD      ACCESS:    2294584  HIT:    2151813  MISS:     142771  HIT %:    93.7779  MISS %:    6.22209   MPKI: 0.713855
LLC RFO       ACCESS:     126401  HIT:      93936  MISS:      32465  HIT %:    74.3159  MISS %:    25.6841   MPKI: 0.162325
LLC PREFETCH  ACCESS:      67589  HIT:      41581  MISS:      26008  HIT %:    61.5204  MISS %:    38.4796   MPKI: 0.13004
LLC WRITEBACK ACCESS:     338091  HIT:     335949  MISS:       2142  HIT %:    99.3664  MISS %:   0.633557   MPKI: 0.01071
LLC LOAD TRANSLATION ACCESS:     151127  HIT:     147497  MISS:       3630  HIT %:     97.598  MISS %:    2.40195   MPKI: 0.01815
LLC TRANSLATION FROM L1D PREFETCHER ACCESS:        211  HIT:        149  MISS:         62  HIT %:    70.6161  MISS %:    29.3839   MPKI: 0.00031
LLC PREFETCH  REQUESTED:          0  ISSUED:          0  USEFUL:        721  USELESS:      25969
LLC USEFUL LOAD PREFETCHES:        721 PREFETCH ISSUED TO LOWER LEVEL:      26008  ACCURACY: 2.77222
LLC TIMELY PREFETCHES:        721 LATE PREFETCHES: 0 DROPPED PREFETCHES: 0
LLC PREFETCHES SAME FILL-ORIGIN LEVEL: 0 DIFFERENT FILL-ORIGIN LEVEL: 0
LLC AVERAGE MISS LATENCY: 180.199 cycles
LLC RQ	ACCESS:    2572324	FORWARD:          0	MERGED:          0	TO_CACHE:    2572323
LLC WQ	ACCESS:     338091	FORWARD:          1	MERGED:          0	TO_CACHE:     338091
LLC PQ	ACCESS:      67589	FORWARD:          0	MERGED:          0	TO_CACHE:      67589

LLC Dense regions hint to LLC: 0

RAW hits: 2269215
Loads Generated: 56292807
Loads sent to L1D: 54023592
Stores Generated: 18064421
Stores sent to L1D: 18064452
Major fault: 0 Minor fault: 4241
Allocated PAGES: 4241

DRAM Statistics
 CHANNEL 0
 RQ ROW_BUFFER_HIT:      49969  ROW_BUFFER_MISS:     154967
 DBUS_CONGESTED:        119
 WQ ROW_BUFFER_HIT:      18076  ROW_BUFFER_MISS:     119027  FULL:          0

 AVG_CONGESTED_CYCLE: 4
 All warmup complete: 2
Channel 0 Bank busy for read cycles: 0
Channel 0 Bank busy for write cycles: 0
Channel 0
Rank 0
0banks busy for read cycles: 543527739
0banks busy for write cycles: 74158
1banks busy for read cycles: 16543493
1banks busy for write cycles: 10340192
2banks busy for read cycles: 2175686
2banks busy for write cycles: 2093339
3banks busy for read cycles: 445313
3banks busy for write cycles: 695866
4banks busy for read cycles: 228696
4banks busy for write cycles: 367709
5banks busy for read cycles: 103039
5banks busy for write cycles: 219408
6banks busy for read cycles: 74848
6banks busy for write cycles: 151255
7banks busy for read cycles: 71146
7banks busy for write cycles: 141832
8banks busy for read cycles: 157511
8banks busy for write cycles: 359027

CPU 0 Branch Prediction Accuracy: 99.8224% MPKI: 0.38789 Average ROB Occupancy at Mispredict: 29.0804
Branch types
NOT_BRANCH: 156307724 78.1539%
BRANCH_DIRECT_JUMP: 1685269 0.842634%
BRANCH_INDIRECT: 19828015 9.91401%
BRANCH_CONDITIONAL: 14737476 7.36874%
BRANCH_DIRECT_CALL: 2993939 1.49697%
BRANCH_INDIRECT_CALL: 724221 0.36211%
BRANCH_RETURN: 3723029 1.86151%
BRANCH_OTHER: 0 0%

DRAM PAGES: 1048576
Allocated PAGES: 4241
