
*** ChampSim Multicore Out-of-Order Simulator ***

Warmup Instructions: 50000000
Simulation Instructions: 200000000
Number of CPUs: 1
LLC sets: 2048
LLC ways: 16
Off-chip DRAM Size: 4096 MB Channels: 1 Width: 64-bit Data Rate: 6400 MT/s
CPU 0 runs traces/spec2k17/srv_35.champsimtrace.xz
.xz
BTB has LRU replacement policy
ITLB has LRU replacement policy
DTLB has LRU replacement policy
STLB has LRU replacement policy
L1I has LRU replacement policy
History Sets: 8
History Ways: 16
BERTI Size: 16
BERTI Stride Size: 16
L1D has LRU replacement policy
Initialize SRRIP state for L2C
Initialize DRRIP state for LLC
Heartbeat CPU 0 instructions: 10000003 cycles: 2937664 heartbeat IPC: 3.40407 cumulative IPC: 3.40407 (Simulation time: 0 hr 0 min 45 sec) 
Heartbeat CPU 0 instructions: 20000000 cycles: 5879038 heartbeat IPC: 3.39977 cumulative IPC: 3.40192 (Simulation time: 0 hr 1 min 29 sec) 
Heartbeat CPU 0 instructions: 30000001 cycles: 8821713 heartbeat IPC: 3.39827 cumulative IPC: 3.4007 (Simulation time: 0 hr 2 min 13 sec) 
*** Reached end of trace for Core: 0 Repeating trace: traces/spec2k17/srv_35.champsimtrace.xz
Heartbeat CPU 0 instructions: 40000002 cycles: 11755167 heartbeat IPC: 3.40895 cumulative IPC: 3.40276 (Simulation time: 0 hr 2 min 56 sec) 
Heartbeat CPU 0 instructions: 50000000 cycles: 14695550 heartbeat IPC: 3.40092 cumulative IPC: 3.40239 (Simulation time: 0 hr 3 min 39 sec) 

Warmup complete CPU 0 instructions: 50000004 cycles: 14695551 (Simulation time: 0 hr 3 min 39 sec) 

Heartbeat CPU 0 instructions: 60000002 cycles: 33651810 heartbeat IPC: 0.52753 cumulative IPC: 0.52753 (Simulation time: 0 hr 4 min 46 sec) 
*** Reached end of trace for Core: 0 Repeating trace: traces/spec2k17/srv_35.champsimtrace.xz
Heartbeat CPU 0 instructions: 70000001 cycles: 52235053 heartbeat IPC: 0.538119 cumulative IPC: 0.532772 (Simulation time: 0 hr 5 min 47 sec) 
Heartbeat CPU 0 instructions: 80000002 cycles: 71057515 heartbeat IPC: 0.53128 cumulative IPC: 0.532274 (Simulation time: 0 hr 6 min 53 sec) 
Heartbeat CPU 0 instructions: 90000003 cycles: 89936724 heartbeat IPC: 0.529683 cumulative IPC: 0.531624 (Simulation time: 0 hr 7 min 53 sec) 
*** Reached end of trace for Core: 0 Repeating trace: traces/spec2k17/srv_35.champsimtrace.xz
Heartbeat CPU 0 instructions: 100000001 cycles: 108471042 heartbeat IPC: 0.53954 cumulative IPC: 0.533188 (Simulation time: 0 hr 9 min 3 sec) 
Heartbeat CPU 0 instructions: 110000000 cycles: 127380984 heartbeat IPC: 0.528822 cumulative IPC: 0.532456 (Simulation time: 0 hr 10 min 1 sec) 
Heartbeat CPU 0 instructions: 120000000 cycles: 146199004 heartbeat IPC: 0.531406 cumulative IPC: 0.532305 (Simulation time: 0 hr 11 min 12 sec) 
*** Reached end of trace for Core: 0 Repeating trace: traces/spec2k17/srv_35.champsimtrace.xz
Heartbeat CPU 0 instructions: 130000001 cycles: 164676733 heartbeat IPC: 0.541192 cumulative IPC: 0.5334 (Simulation time: 0 hr 12 min 14 sec) 
Heartbeat CPU 0 instructions: 140000000 cycles: 183526348 heartbeat IPC: 0.530515 cumulative IPC: 0.533078 (Simulation time: 0 hr 13 min 21 sec) 
Heartbeat CPU 0 instructions: 150000002 cycles: 202275953 heartbeat IPC: 0.533345 cumulative IPC: 0.533105 (Simulation time: 0 hr 14 min 26 sec) 
Heartbeat CPU 0 instructions: 160000001 cycles: 220911182 heartbeat IPC: 0.536618 cumulative IPC: 0.533422 (Simulation time: 0 hr 15 min 33 sec) 
*** Reached end of trace for Core: 0 Repeating trace: traces/spec2k17/srv_35.champsimtrace.xz
Heartbeat CPU 0 instructions: 170000000 cycles: 239453358 heartbeat IPC: 0.539311 cumulative IPC: 0.533908 (Simulation time: 0 hr 16 min 39 sec) 
Heartbeat CPU 0 instructions: 180000000 cycles: 258431912 heartbeat IPC: 0.526911 cumulative IPC: 0.533363 (Simulation time: 0 hr 17 min 45 sec) 
Heartbeat CPU 0 instructions: 190000001 cycles: 277126154 heartbeat IPC: 0.534924 cumulative IPC: 0.533474 (Simulation time: 0 hr 18 min 55 sec) 
*** Reached end of trace for Core: 0 Repeating trace: traces/spec2k17/srv_35.champsimtrace.xz
Heartbeat CPU 0 instructions: 200000003 cycles: 295583612 heartbeat IPC: 0.541787 cumulative IPC: 0.534021 (Simulation time: 0 hr 19 min 54 sec) 
Heartbeat CPU 0 instructions: 210000003 cycles: 314367781 heartbeat IPC: 0.532363 cumulative IPC: 0.533917 (Simulation time: 0 hr 20 min 58 sec) 
Heartbeat CPU 0 instructions: 220000000 cycles: 333132835 heartbeat IPC: 0.532905 cumulative IPC: 0.533857 (Simulation time: 0 hr 22 min 3 sec) 
*** Reached end of trace for Core: 0 Repeating trace: traces/spec2k17/srv_35.champsimtrace.xz
Heartbeat CPU 0 instructions: 230000000 cycles: 351653287 heartbeat IPC: 0.539944 cumulative IPC: 0.534192 (Simulation time: 0 hr 23 min 6 sec) 
Heartbeat CPU 0 instructions: 240000001 cycles: 370485777 heartbeat IPC: 0.530997 cumulative IPC: 0.534023 (Simulation time: 0 hr 24 min 11 sec) 
Heartbeat CPU 0 instructions: 250000001 cycles: 389283269 heartbeat IPC: 0.531986 cumulative IPC: 0.53392 (Simulation time: 0 hr 25 min 16 sec) 
Finished CPU 0 instructions: 200000001 cycles: 374587719 cumulative IPC: 0.53392 (Simulation time: 0 hr 25 min 16 sec) 

ChampSim completed all CPUs

Region of Interest Statistics

CPU 0 cumulative IPC: 0.53392 instructions: 200000001 cycles: 374587719
ITLB TOTAL     ACCESS:   33714283  HIT:   32175972  MISS:    1538311  HIT %:    95.4372  MISS %:    4.56279   MPKI: 7.69155
ITLB LOAD TRANSLATION ACCESS:   33714283  HIT:   32175972  MISS:    1538311  HIT %:    95.4372  MISS %:    4.56279   MPKI: 7.69155
ITLB PREFETCH  REQUESTED:          0  ISSUED:          0  USEFUL:          0  USELESS:          0
ITLB USEFUL LOAD PREFETCHES:          0 PREFETCH ISSUED TO LOWER LEVEL:          0  ACCURACY: -nan
ITLB TIMELY PREFETCHES:          0 LATE PREFETCHES: 0 DROPPED PREFETCHES: 0
ITLB PREFETCHES SAME FILL-ORIGIN LEVEL: 0 DIFFERENT FILL-ORIGIN LEVEL: 0
ITLB AVERAGE MISS LATENCY: 9.25119 cycles
ITLB RQ	ACCESS:   40633912	FORWARD:          0	MERGED:    6425087	TO_CACHE:   34208825

DTLB TOTAL     ACCESS:   40372044  HIT:   38841142  MISS:    1530902  HIT %:     96.208  MISS %:    3.79199   MPKI: 7.65451
DTLB LOAD TRANSLATION ACCESS:   40372044  HIT:   38841142  MISS:    1530902  HIT %:     96.208  MISS %:    3.79199   MPKI: 7.65451
DTLB PREFETCH  REQUESTED:          0  ISSUED:          0  USEFUL:          0  USELESS:          0
DTLB USEFUL LOAD PREFETCHES:          0 PREFETCH ISSUED TO LOWER LEVEL:          0  ACCURACY: -nan
DTLB TIMELY PREFETCHES:          0 LATE PREFETCHES: 0 DROPPED PREFETCHES: 0
DTLB PREFETCHES SAME FILL-ORIGIN LEVEL: 0 DIFFERENT FILL-ORIGIN LEVEL: 0
DTLB AVERAGE MISS LATENCY: 14.7529 cycles
DTLB RQ	ACCESS:   61283111	FORWARD:          0	MERGED:   20519028	TO_CACHE:   40764083

STLB TOTAL     ACCESS:    4286951  HIT:    4208003  MISS:      78948  HIT %:    98.1584  MISS %:    1.84159   MPKI: 0.39474
STLB LOAD TRANSLATION ACCESS:    3069213  HIT:    2998159  MISS:      71054  HIT %:    97.6849  MISS %:    2.31506   MPKI: 0.35527
STLB TRANSLATION FROM L1D PREFETCHER ACCESS:    1217738  HIT:    1209844  MISS:       7894  HIT %:    99.3517  MISS %:   0.648251   MPKI: 0.03947
STLB PREFETCH  REQUESTED:          0  ISSUED:          0  USEFUL:       7632  USELESS:        261
STLB USEFUL LOAD PREFETCHES:       7632 PREFETCH ISSUED TO LOWER LEVEL:          0  ACCURACY: inf
STLB TIMELY PREFETCHES:       7632 LATE PREFETCHES: 338 DROPPED PREFETCHES: 15502
STLB PREFETCHES SAME FILL-ORIGIN LEVEL: 0 DIFFERENT FILL-ORIGIN LEVEL: 0
STLB AVERAGE MISS LATENCY: 122.645 cycles
STLB RQ	ACCESS:   11131626	FORWARD:          0	MERGED:    6810092	TO_CACHE:    4321534

STLB Hit, L1D data hit: 0
STLB Hit, L2C data hit: 0
STLB Hit, LLC data hit: 0
STLB Hit, LLC data miss: 0
STLB STLB hints to L2: 0
L1D TOTAL     ACCESS:   52798833  HIT:   45949130  MISS:    6849703  HIT %:    87.0268  MISS %:    12.9732   MPKI: 34.2485
L1D LOAD      ACCESS:   26950071  HIT:   24482186  MISS:    2467885  HIT %:    90.8428  MISS %:    9.15725   MPKI: 12.3394
L1D RFO       ACCESS:   21855125  HIT:   18173333  MISS:    3681792  HIT %:    83.1536  MISS %:    16.8464   MPKI: 18.409
L1D PREFETCH  ACCESS:    3993637  HIT:    3293611  MISS:     700026  HIT %:    82.4715  MISS %:    17.5285   MPKI: 3.50013
L1D PREFETCH  REQUESTED:   20496256  ISSUED:   20108088  USEFUL:     624424  USELESS:      75602
L1D USEFUL LOAD PREFETCHES:     624424 PREFETCH ISSUED TO LOWER LEVEL:    3338967  ACCURACY: 18.7011
L1D TIMELY PREFETCHES:     624424 LATE PREFETCHES: 182383 DROPPED PREFETCHES: 66962
L1D PREFETCHES SAME FILL-ORIGIN LEVEL: 882426 DIFFERENT FILL-ORIGIN LEVEL: 2456541
L1D AVERAGE MISS LATENCY: 146.377 cycles
L1D RQ	ACCESS:   45238027	FORWARD:          0	MERGED:   17604598	TO_CACHE:   27348224
L1D WQ	ACCESS:   34133601	FORWARD:     285205	MERGED:     198714	TO_CACHE:   33934887
L1D PQ	ACCESS:   12045675	FORWARD:          0	MERGED:    3983262	TO_CACHE:    8062413

L1D UNIQUE REGIONS ACCESSED: 0
L1D REGIONS CONFLICTS: 0
L1D Cross Page Prefetch Requests: 1495104
L1D Same Page Prefetch Requests: 13365322
L1D ROI Sum of L1D PQ occupancy: 155602459
L1D PREFETCHES PUSHED FROM L2C: 0
L1I TOTAL     ACCESS:   37975546  HIT:   28870086  MISS:    9105460  HIT %:    76.0228  MISS %:    23.9772   MPKI: 45.5273
L1I LOAD      ACCESS:   37975546  HIT:   28870086  MISS:    9105460  HIT %:    76.0228  MISS %:    23.9772   MPKI: 45.5273
L1I PREFETCH  REQUESTED:          0  ISSUED:          0  USEFUL:          0  USELESS:          0
L1I USEFUL LOAD PREFETCHES:          0 PREFETCH ISSUED TO LOWER LEVEL:          0  ACCURACY: -nan
L1I TIMELY PREFETCHES:          0 LATE PREFETCHES: 0 DROPPED PREFETCHES: 0
L1I PREFETCHES SAME FILL-ORIGIN LEVEL: 0 DIFFERENT FILL-ORIGIN LEVEL: 0
L1I AVERAGE MISS LATENCY: 16.9495 cycles
L1I RQ	ACCESS:   58792130	FORWARD:          0	MERGED:   18158218	TO_CACHE:   40633912

BTB TOTAL     ACCESS:   25730477  HIT:   24146041  MISS:    1584436  HIT %:    93.8422  MISS %:    6.15782   MPKI: 7.92218
BTB BRANCH_DIRECT_JUMP	ACCESS:    1658704  HIT:    1646125  MISS:      12579
BTB BRANCH_INDIRECT	ACCESS:    9991428  HIT:    9459134  MISS:     532294
BTB BRANCH_CONDITIONAL	ACCESS:    7236367  HIT:    7219065  MISS:      17302
BTB BRANCH_DIRECT_CALL	ACCESS:    2824054  HIT:    2784655  MISS:      39399
BTB BRANCH_INDIRECT_CALL	ACCESS:     597965  HIT:     486107  MISS:     111858
BTB BRANCH_RETURN	ACCESS:    3421959  HIT:    2550955  MISS:     871004
BTB BRANCH_OTHER ACCESS:          0  HIT:          0  MISS:          0

L2C TOTAL     ACCESS:   21474664  HIT:   14702172  MISS:    6772492  HIT %:    68.4629  MISS %:    31.5371   MPKI: 33.8625
L2C LOAD      ACCESS:   11390696  HIT:    9383055  MISS:    2007641  HIT %:    82.3747  MISS %:    17.6253   MPKI: 10.0382
L2C DATA LOAD MPKI: 7.06735
L2C INSTRUCTION LOAD MPKI: 2.97085
L2C RFO       ACCESS:    3681770  HIT:     158065  MISS:    3523705  HIT %:    4.29318  MISS %:    95.7068   MPKI: 17.6185
L2C PREFETCH  ACCESS:    1959199  HIT:     938963  MISS:    1020236  HIT %:    47.9259  MISS %:    52.0741   MPKI: 5.10118
L2C DATA PREFETCH MPKI: 5.10118
L2C INSTRUCTION PREFETCH MPKI: 0
L2C WRITEBACK ACCESS:    4332714  HIT:    4161647  MISS:     171067  HIT %:    96.0517  MISS %:    3.94826   MPKI: 0.855335
L2C LOAD TRANSLATION ACCESS:      83198  HIT:      40291  MISS:      42907  HIT %:    48.4278  MISS %:    51.5722   MPKI: 0.214535
L2C TRANSLATION FROM L1D PREFETCHER ACCESS:      27087  HIT:      20151  MISS:       6936  HIT %:    74.3936  MISS %:    25.6064   MPKI: 0.03468
L2C PREFETCH  REQUESTED:          0  ISSUED:          0  USEFUL:     213427  USELESS:     813828
L2C USEFUL LOAD PREFETCHES:     213427 PREFETCH ISSUED TO LOWER LEVEL:    1103508  ACCURACY: 19.3408
L2C TIMELY PREFETCHES:     213427 LATE PREFETCHES: 83272 DROPPED PREFETCHES: 0
L2C PREFETCHES SAME FILL-ORIGIN LEVEL: 821326 DIFFERENT FILL-ORIGIN LEVEL: 0
L2C AVERAGE MISS LATENCY: 165.703 cycles
L2C RQ	ACCESS:   15183025	FORWARD:          0	MERGED:          0	TO_CACHE:   15182751
L2C WQ	ACCESS:    4332715	FORWARD:        274	MERGED:          0	TO_CACHE:    4332715
L2C PQ	ACCESS:    3337172	FORWARD:          0	MERGED:      28193	TO_CACHE:    3308979

L2C Instructions Evicting Data 538080
L2C Translations Evicting Data 45714
L2C Data Evicting Data 5389877
L2C Instructions Evicting Instructions 51824
L2C Translations Evicting Instructions 3794
L2C Data Evicting Instructions 523203
L2C Instructions Evicting Translations 4266
L2C Translations Evicting Translations 335
L2C Data Evicting Translations 44332
L2C Dense regions hint from L2: 0
PSCL5 TOTAL     ACCESS:      94423  HIT:      94423  MISS:          0  HIT %:        100  MISS %:          0   MPKI: 0
PSCL5 LOAD TRANSLATION ACCESS:      70716  HIT:      70716  MISS:          0  HIT %:        100  MISS %:          0   MPKI: 0
PSCL5 TRANSLATION FROM L1D PREFETCHER ACCESS:      23707  HIT:      23707  MISS:          0  HIT %:        100  MISS %:          0   MPKI: 0
PSCL5 PREFETCH  REQUESTED:          0  ISSUED:          0  USEFUL:          0  USELESS:          0
PSCL5 USEFUL LOAD PREFETCHES:          0 PREFETCH ISSUED TO LOWER LEVEL:          0  ACCURACY: -nan
PSCL5 TIMELY PREFETCHES:          0 LATE PREFETCHES: 0 DROPPED PREFETCHES: 0
PSCL5 PREFETCHES SAME FILL-ORIGIN LEVEL: 0 DIFFERENT FILL-ORIGIN LEVEL: 0

PSCL4 TOTAL     ACCESS:      91552  HIT:      91376  MISS:        176  HIT %:    99.8078  MISS %:    0.19224   MPKI: 0.00088
PSCL4 LOAD TRANSLATION ACCESS:      68548  HIT:      68372  MISS:        176  HIT %:    99.7432  MISS %:   0.256754   MPKI: 0.00088
PSCL4 TRANSLATION FROM L1D PREFETCHER ACCESS:      23004  HIT:      23004  MISS:          0  HIT %:        100  MISS %:          0   MPKI: 0
PSCL4 PREFETCH  REQUESTED:          0  ISSUED:          0  USEFUL:          0  USELESS:          0
PSCL4 USEFUL LOAD PREFETCHES:          0 PREFETCH ISSUED TO LOWER LEVEL:          0  ACCURACY: -nan
PSCL4 TIMELY PREFETCHES:          0 LATE PREFETCHES: 0 DROPPED PREFETCHES: 0
PSCL4 PREFETCHES SAME FILL-ORIGIN LEVEL: 0 DIFFERENT FILL-ORIGIN LEVEL: 0

PSCL3 TOTAL     ACCESS:      86110  HIT:      84832  MISS:       1278  HIT %:    98.5159  MISS %:    1.48415   MPKI: 0.00639
PSCL3 LOAD TRANSLATION ACCESS:      62931  HIT:      61653  MISS:       1278  HIT %:    97.9692  MISS %:     2.0308   MPKI: 0.00639
PSCL3 TRANSLATION FROM L1D PREFETCHER ACCESS:      23179  HIT:      23179  MISS:          0  HIT %:        100  MISS %:          0   MPKI: 0
PSCL3 PREFETCH  REQUESTED:          0  ISSUED:          0  USEFUL:          0  USELESS:          0
PSCL3 USEFUL LOAD PREFETCHES:          0 PREFETCH ISSUED TO LOWER LEVEL:          0  ACCURACY: -nan
PSCL3 TIMELY PREFETCHES:          0 LATE PREFETCHES: 0 DROPPED PREFETCHES: 0
PSCL3 PREFETCHES SAME FILL-ORIGIN LEVEL: 0 DIFFERENT FILL-ORIGIN LEVEL: 0

PSCL2 TOTAL     ACCESS:      91613  HIT:      80212  MISS:      11401  HIT %:    87.5553  MISS %:    12.4447   MPKI: 0.057005
PSCL2 LOAD TRANSLATION ACCESS:      71070  HIT:      59669  MISS:      11401  HIT %:    83.9581  MISS %:    16.0419   MPKI: 0.057005
PSCL2 TRANSLATION FROM L1D PREFETCHER ACCESS:      20543  HIT:      20543  MISS:          0  HIT %:        100  MISS %:          0   MPKI: 0
PSCL2 PREFETCH  REQUESTED:          0  ISSUED:          0  USEFUL:          0  USELESS:          0
PSCL2 USEFUL LOAD PREFETCHES:          0 PREFETCH ISSUED TO LOWER LEVEL:          0  ACCURACY: -nan
PSCL2 TIMELY PREFETCHES:          0 LATE PREFETCHES: 0 DROPPED PREFETCHES: 0
PSCL2 PREFETCHES SAME FILL-ORIGIN LEVEL: 0 DIFFERENT FILL-ORIGIN LEVEL: 0

LLC TOTAL     ACCESS:   10624587  HIT:    4265282  MISS:    6359305  HIT %:    40.1454  MISS %:    59.8546   MPKI: 31.7965
LLC LOAD      ACCESS:    1924378  HIT:    1615560  MISS:     308818  HIT %:    83.9523  MISS %:    16.0477   MPKI: 1.54409
LLC RFO       ACCESS:    3523662  HIT:     990512  MISS:    2533150  HIT %:    28.1103  MISS %:    71.8897   MPKI: 12.6657
LLC PREFETCH  ACCESS:    1103507  HIT:      80072  MISS:    1023435  HIT %:    7.25614  MISS %:    92.7439   MPKI: 5.11717
LLC WRITEBACK ACCESS:    4023197  HIT:    1562353  MISS:    2460844  HIT %:    38.8336  MISS %:    61.1664   MPKI: 12.3042
LLC LOAD TRANSLATION ACCESS:      42907  HIT:      14844  MISS:      28063  HIT %:    34.5958  MISS %:    65.4042   MPKI: 0.140315
LLC TRANSLATION FROM L1D PREFETCHER ACCESS:       6936  HIT:       1941  MISS:       4995  HIT %:    27.9844  MISS %:    72.0156   MPKI: 0.024975
LLC PREFETCH  REQUESTED:          0  ISSUED:          0  USEFUL:       2682  USELESS:    1025996
LLC USEFUL LOAD PREFETCHES:       2682 PREFETCH ISSUED TO LOWER LEVEL:    1023435  ACCURACY: 0.262059
LLC TIMELY PREFETCHES:       2682 LATE PREFETCHES: 0 DROPPED PREFETCHES: 0
LLC PREFETCHES SAME FILL-ORIGIN LEVEL: 0 DIFFERENT FILL-ORIGIN LEVEL: 0
LLC AVERAGE MISS LATENCY: 146.836 cycles
LLC RQ	ACCESS:    5497917	FORWARD:          0	MERGED:          0	TO_CACHE:    5497883
LLC WQ	ACCESS:    4023198	FORWARD:         35	MERGED:          0	TO_CACHE:    4023198
LLC PQ	ACCESS:    1103508	FORWARD:          0	MERGED:          0	TO_CACHE:    1103507

LLC Dense regions hint to LLC: 0

RAW hits: 2481491
Loads Generated: 47719518
Loads sent to L1D: 45238027
Stores Generated: 34133587
Stores sent to L1D: 34133601
Major fault: 0 Minor fault: 9063
Allocated PAGES: 9063

DRAM Statistics
 CHANNEL 0
 RQ ROW_BUFFER_HIT:    2264271  ROW_BUFFER_MISS:    1633808
 DBUS_CONGESTED:       2675
 WQ ROW_BUFFER_HIT:     531476  ROW_BUFFER_MISS:    2071340  FULL:      96929

 AVG_CONGESTED_CYCLE: 3
 All warmup complete: 2
Channel 0 Bank busy for read cycles: 0
Channel 0 Bank busy for write cycles: 0
Channel 0
Rank 0
0banks busy for read cycles: 179522750
0banks busy for write cycles: 256114
1banks busy for read cycles: 28946159
1banks busy for write cycles: 36166510
2banks busy for read cycles: 10580340
2banks busy for write cycles: 12677584
3banks busy for read cycles: 13938020
3banks busy for write cycles: 5611528
4banks busy for read cycles: 4323010
4banks busy for write cycles: 3623033
5banks busy for read cycles: 3857570
5banks busy for write cycles: 3054372
6banks busy for read cycles: 4708414
6banks busy for write cycles: 3061669
7banks busy for read cycles: 6375545
7banks busy for write cycles: 5313199
8banks busy for read cycles: 20822718
8banks busy for write cycles: 31749185

CPU 0 Branch Prediction Accuracy: 99.9446% MPKI: 0.08472 Average ROB Occupancy at Mispredict: 100.156
Branch types
NOT_BRANCH: 169425204 84.7126%
BRANCH_DIRECT_JUMP: 1658704 0.829352%
BRANCH_INDIRECT: 9991428 4.99571%
BRANCH_CONDITIONAL: 12080658 6.04033%
BRANCH_DIRECT_CALL: 2824054 1.41203%
BRANCH_INDIRECT_CALL: 597965 0.298982%
BRANCH_RETURN: 3421959 1.71098%
BRANCH_OTHER: 0 0%

DRAM PAGES: 1048576
Allocated PAGES: 9063
