
*** ChampSim Multicore Out-of-Order Simulator ***

Warmup Instructions: 50000000
Simulation Instructions: 200000000
Number of CPUs: 1
LLC sets: 2048
LLC ways: 16
Off-chip DRAM Size: 4096 MB Channels: 1 Width: 64-bit Data Rate: 6400 MT/s
CPU 0 runs traces/spec2k17/srv_46.champsimtrace.xz
.xz
BTB has LRU replacement policy
ITLB has LRU replacement policy
DTLB has LRU replacement policy
STLB has LRU replacement policy
L1I has LRU replacement policy
History Sets: 8
History Ways: 16
BERTI Size: 16
BERTI Stride Size: 16
L1D has LRU replacement policy
Initialize SRRIP state for L2C
Initialize DRRIP state for LLC
Heartbeat CPU 0 instructions: 10000003 cycles: 2963276 heartbeat IPC: 3.37464 cumulative IPC: 3.37464 (Simulation time: 0 hr 0 min 43 sec) 
Heartbeat CPU 0 instructions: 20000002 cycles: 5932240 heartbeat IPC: 3.36818 cumulative IPC: 3.37141 (Simulation time: 0 hr 1 min 27 sec) 
Heartbeat CPU 0 instructions: 30000003 cycles: 8875915 heartbeat IPC: 3.39711 cumulative IPC: 3.37993 (Simulation time: 0 hr 2 min 15 sec) 
*** Reached end of trace for Core: 0 Repeating trace: traces/spec2k17/srv_46.champsimtrace.xz
Heartbeat CPU 0 instructions: 40000000 cycles: 11840899 heartbeat IPC: 3.3727 cumulative IPC: 3.37812 (Simulation time: 0 hr 3 min 2 sec) 
Heartbeat CPU 0 instructions: 50000000 cycles: 14797677 heartbeat IPC: 3.38206 cumulative IPC: 3.37891 (Simulation time: 0 hr 3 min 48 sec) 

Warmup complete CPU 0 instructions: 50000004 cycles: 14797678 (Simulation time: 0 hr 3 min 48 sec) 

Heartbeat CPU 0 instructions: 60000001 cycles: 39033699 heartbeat IPC: 0.412609 cumulative IPC: 0.412609 (Simulation time: 0 hr 4 min 41 sec) 
*** Reached end of trace for Core: 0 Repeating trace: traces/spec2k17/srv_46.champsimtrace.xz
Heartbeat CPU 0 instructions: 70000000 cycles: 62616057 heartbeat IPC: 0.424046 cumulative IPC: 0.418249 (Simulation time: 0 hr 5 min 29 sec) 
Heartbeat CPU 0 instructions: 80000000 cycles: 84740364 heartbeat IPC: 0.451992 cumulative IPC: 0.428923 (Simulation time: 0 hr 6 min 19 sec) 
Heartbeat CPU 0 instructions: 90000003 cycles: 108447128 heartbeat IPC: 0.421821 cumulative IPC: 0.427125 (Simulation time: 0 hr 7 min 9 sec) 
*** Reached end of trace for Core: 0 Repeating trace: traces/spec2k17/srv_46.champsimtrace.xz
Heartbeat CPU 0 instructions: 100000000 cycles: 131593353 heartbeat IPC: 0.432036 cumulative IPC: 0.428098 (Simulation time: 0 hr 7 min 59 sec) 
Heartbeat CPU 0 instructions: 110000000 cycles: 154764783 heartbeat IPC: 0.431566 cumulative IPC: 0.428672 (Simulation time: 0 hr 8 min 54 sec) 
Heartbeat CPU 0 instructions: 120000000 cycles: 177007681 heartbeat IPC: 0.449582 cumulative IPC: 0.431539 (Simulation time: 0 hr 9 min 43 sec) 
*** Reached end of trace for Core: 0 Repeating trace: traces/spec2k17/srv_46.champsimtrace.xz
Heartbeat CPU 0 instructions: 130000001 cycles: 200332392 heartbeat IPC: 0.42873 cumulative IPC: 0.431186 (Simulation time: 0 hr 10 min 37 sec) 
Heartbeat CPU 0 instructions: 140000002 cycles: 224221821 heartbeat IPC: 0.418595 cumulative IPC: 0.42975 (Simulation time: 0 hr 11 min 33 sec) 
Heartbeat CPU 0 instructions: 150000002 cycles: 246728784 heartbeat IPC: 0.444307 cumulative IPC: 0.431163 (Simulation time: 0 hr 12 min 25 sec) 
*** Reached end of trace for Core: 0 Repeating trace: traces/spec2k17/srv_46.champsimtrace.xz
Heartbeat CPU 0 instructions: 160000002 cycles: 269011095 heartbeat IPC: 0.448786 cumulative IPC: 0.432707 (Simulation time: 0 hr 13 min 12 sec) 
Heartbeat CPU 0 instructions: 170000003 cycles: 293579959 heartbeat IPC: 0.407019 cumulative IPC: 0.430443 (Simulation time: 0 hr 14 min 2 sec) 
Heartbeat CPU 0 instructions: 180000000 cycles: 316439092 heartbeat IPC: 0.437462 cumulative IPC: 0.430975 (Simulation time: 0 hr 14 min 55 sec) 
*** Reached end of trace for Core: 0 Repeating trace: traces/spec2k17/srv_46.champsimtrace.xz
Heartbeat CPU 0 instructions: 190000000 cycles: 338723218 heartbeat IPC: 0.44875 cumulative IPC: 0.432198 (Simulation time: 0 hr 15 min 55 sec) 
Heartbeat CPU 0 instructions: 200000003 cycles: 362294849 heartbeat IPC: 0.424239 cumulative IPC: 0.431658 (Simulation time: 0 hr 16 min 43 sec) 
Heartbeat CPU 0 instructions: 210000002 cycles: 386018630 heartbeat IPC: 0.421518 cumulative IPC: 0.43101 (Simulation time: 0 hr 17 min 37 sec) 
*** Reached end of trace for Core: 0 Repeating trace: traces/spec2k17/srv_46.champsimtrace.xz
Heartbeat CPU 0 instructions: 220000000 cycles: 408621263 heartbeat IPC: 0.442426 cumulative IPC: 0.431665 (Simulation time: 0 hr 18 min 37 sec) 
Heartbeat CPU 0 instructions: 230000002 cycles: 430501463 heartbeat IPC: 0.457034 cumulative IPC: 0.433001 (Simulation time: 0 hr 19 min 29 sec) 
Heartbeat CPU 0 instructions: 240000000 cycles: 454706087 heartbeat IPC: 0.413144 cumulative IPC: 0.431908 (Simulation time: 0 hr 20 min 25 sec) 
*** Reached end of trace for Core: 0 Repeating trace: traces/spec2k17/srv_46.champsimtrace.xz
Heartbeat CPU 0 instructions: 250000003 cycles: 478196627 heartbeat IPC: 0.425703 cumulative IPC: 0.431594 (Simulation time: 0 hr 21 min 21 sec) 
Finished CPU 0 instructions: 200000003 cycles: 463398950 cumulative IPC: 0.431594 (Simulation time: 0 hr 21 min 21 sec) 

ChampSim completed all CPUs

Region of Interest Statistics

CPU 0 cumulative IPC: 0.431594 instructions: 200000003 cycles: 463398950
ITLB TOTAL     ACCESS:   34871131  HIT:   33554298  MISS:    1316833  HIT %:    96.2237  MISS %:    3.77628   MPKI: 6.58416
ITLB LOAD TRANSLATION ACCESS:   34871131  HIT:   33554298  MISS:    1316833  HIT %:    96.2237  MISS %:    3.77628   MPKI: 6.58416
ITLB PREFETCH  REQUESTED:          0  ISSUED:          0  USEFUL:          0  USELESS:          0
ITLB USEFUL LOAD PREFETCHES:          0 PREFETCH ISSUED TO LOWER LEVEL:          0  ACCURACY: -nan
ITLB TIMELY PREFETCHES:          0 LATE PREFETCHES: 0 DROPPED PREFETCHES: 0
ITLB PREFETCHES SAME FILL-ORIGIN LEVEL: 0 DIFFERENT FILL-ORIGIN LEVEL: 0
ITLB AVERAGE MISS LATENCY: 9.4712 cycles
ITLB RQ	ACCESS:   40094903	FORWARD:          0	MERGED:    4846790	TO_CACHE:   35248113

DTLB TOTAL     ACCESS:   45491661  HIT:   44254513  MISS:    1237148  HIT %:    97.2805  MISS %:    2.71951   MPKI: 6.18574
DTLB LOAD TRANSLATION ACCESS:   45491661  HIT:   44254513  MISS:    1237148  HIT %:    97.2805  MISS %:    2.71951   MPKI: 6.18574
DTLB PREFETCH  REQUESTED:          0  ISSUED:          0  USEFUL:          0  USELESS:          0
DTLB USEFUL LOAD PREFETCHES:          0 PREFETCH ISSUED TO LOWER LEVEL:          0  ACCURACY: -nan
DTLB TIMELY PREFETCHES:          0 LATE PREFETCHES: 0 DROPPED PREFETCHES: 0
DTLB PREFETCHES SAME FILL-ORIGIN LEVEL: 0 DIFFERENT FILL-ORIGIN LEVEL: 0
DTLB AVERAGE MISS LATENCY: 12.2552 cycles
DTLB RQ	ACCESS:   62110475	FORWARD:          0	MERGED:   16529166	TO_CACHE:   45581309

STLB TOTAL     ACCESS:    2949040  HIT:    2896660  MISS:      52380  HIT %:    98.2238  MISS %:    1.77617   MPKI: 0.2619
STLB LOAD TRANSLATION ACCESS:    2553981  HIT:    2502644  MISS:      51337  HIT %:    97.9899  MISS %:    2.01008   MPKI: 0.256685
STLB TRANSLATION FROM L1D PREFETCHER ACCESS:     395059  HIT:     394016  MISS:       1043  HIT %:     99.736  MISS %:   0.264011   MPKI: 0.005215
STLB PREFETCH  REQUESTED:          0  ISSUED:          0  USEFUL:        994  USELESS:         50
STLB USEFUL LOAD PREFETCHES:        994 PREFETCH ISSUED TO LOWER LEVEL:          0  ACCURACY: inf
STLB TIMELY PREFETCHES:        994 LATE PREFETCHES: 0 DROPPED PREFETCHES: 7940
STLB PREFETCHES SAME FILL-ORIGIN LEVEL: 0 DIFFERENT FILL-ORIGIN LEVEL: 0
STLB AVERAGE MISS LATENCY: 89.0706 cycles
STLB RQ	ACCESS:    4467670	FORWARD:          0	MERGED:    1509895	TO_CACHE:    2957775

STLB Hit, L1D data hit: 0
STLB Hit, L2C data hit: 0
STLB Hit, LLC data hit: 0
STLB Hit, LLC data miss: 0
STLB STLB hints to L2: 0
L1D TOTAL     ACCESS:   60872758  HIT:   58243899  MISS:    2628859  HIT %:    95.6814  MISS %:    4.31861   MPKI: 13.1443
L1D LOAD      ACCESS:   37818489  HIT:   36175644  MISS:    1642845  HIT %:     95.656  MISS %:    4.34403   MPKI: 8.21422
L1D RFO       ACCESS:   22018958  HIT:   21140845  MISS:     878113  HIT %:     96.012  MISS %:    3.98799   MPKI: 4.39056
L1D PREFETCH  ACCESS:    1035311  HIT:     927410  MISS:     107901  HIT %:    89.5779  MISS %:    10.4221   MPKI: 0.539505
L1D PREFETCH  REQUESTED:    4404208  ISSUED:    4318162  USEFUL:      82823  USELESS:      25074
L1D USEFUL LOAD PREFETCHES:      82823 PREFETCH ISSUED TO LOWER LEVEL:     990914  ACCURACY: 8.35824
L1D TIMELY PREFETCHES:      82823 LATE PREFETCHES: 9249 DROPPED PREFETCHES: 12251
L1D PREFETCHES SAME FILL-ORIGIN LEVEL: 117636 DIFFERENT FILL-ORIGIN LEVEL: 873278
L1D AVERAGE MISS LATENCY: 50.2113 cycles
L1D RQ	ACCESS:   54682378	FORWARD:          0	MERGED:   16620947	TO_CACHE:   37915898
L1D WQ	ACCESS:   24630455	FORWARD:     145533	MERGED:     435878	TO_CACHE:   24194577
L1D PQ	ACCESS:    2404473	FORWARD:          0	MERGED:     490784	TO_CACHE:    1913689

L1D UNIQUE REGIONS ACCESSED: 0
L1D REGIONS CONFLICTS: 0
L1D Cross Page Prefetch Requests: 451830
L1D Same Page Prefetch Requests: 2734069
L1D ROI Sum of L1D PQ occupancy: 36996534
L1D PREFETCHES PUSHED FROM L2C: 0
L1I TOTAL     ACCESS:   39406713  HIT:   34416342  MISS:    4990371  HIT %:    87.3362  MISS %:    12.6638   MPKI: 24.9519
L1I LOAD      ACCESS:   39406713  HIT:   34416342  MISS:    4990371  HIT %:    87.3362  MISS %:    12.6638   MPKI: 24.9519
L1I PREFETCH  REQUESTED:          0  ISSUED:          0  USEFUL:          0  USELESS:          0
L1I USEFUL LOAD PREFETCHES:          0 PREFETCH ISSUED TO LOWER LEVEL:          0  ACCURACY: -nan
L1I TIMELY PREFETCHES:          0 LATE PREFETCHES: 0 DROPPED PREFETCHES: 0
L1I PREFETCHES SAME FILL-ORIGIN LEVEL: 0 DIFFERENT FILL-ORIGIN LEVEL: 0
L1I AVERAGE MISS LATENCY: 20.0753 cycles
L1I RQ	ACCESS:   60408471	FORWARD:          0	MERGED:   20313568	TO_CACHE:   40094903

BTB TOTAL     ACCESS:   31255798  HIT:   24838531  MISS:    6417267  HIT %:    79.4686  MISS %:    20.5314   MPKI: 32.0863
BTB BRANCH_DIRECT_JUMP	ACCESS:    2533222  HIT:    2107885  MISS:     425337
BTB BRANCH_INDIRECT	ACCESS:   13038560  HIT:   10544316  MISS:    2494244
BTB BRANCH_CONDITIONAL	ACCESS:    7059562  HIT:    6546706  MISS:     512856
BTB BRANCH_DIRECT_CALL	ACCESS:    3018472  HIT:    2245364  MISS:     773108
BTB BRANCH_INDIRECT_CALL	ACCESS:    1293791  HIT:     937788  MISS:     356003
BTB BRANCH_RETURN	ACCESS:    4312191  HIT:    2456472  MISS:    1855719
BTB BRANCH_OTHER ACCESS:          0  HIT:          0  MISS:          0

L2C TOTAL     ACCESS:    9740667  HIT:    7508662  MISS:    2232005  HIT %:    77.0857  MISS %:    22.9143   MPKI: 11.16
L2C LOAD      ACCESS:    6623944  HIT:    5169137  MISS:    1454807  HIT %:    78.0371  MISS %:    21.9629   MPKI: 7.27403
L2C DATA LOAD MPKI: 2.46207
L2C INSTRUCTION LOAD MPKI: 4.81196
L2C RFO       ACCESS:     878102  HIT:     403242  MISS:     474860  HIT %:     45.922  MISS %:     54.078   MPKI: 2.3743
L2C PREFETCH  ACCESS:     876134  HIT:     703429  MISS:     172705  HIT %:    80.2878  MISS %:    19.7122   MPKI: 0.863525
L2C DATA PREFETCH MPKI: 0.863525
L2C INSTRUCTION PREFETCH MPKI: 0
L2C WRITEBACK ACCESS:    1272632  HIT:    1190946  MISS:      81686  HIT %:    93.5813  MISS %:    6.41867   MPKI: 0.40843
L2C LOAD TRANSLATION ACCESS:      79905  HIT:      32659  MISS:      47246  HIT %:    40.8723  MISS %:    59.1277   MPKI: 0.23623
L2C TRANSLATION FROM L1D PREFETCHER ACCESS:       9950  HIT:       9249  MISS:        701  HIT %:    92.9548  MISS %:    7.04523   MPKI: 0.003505
L2C PREFETCH  REQUESTED:          0  ISSUED:          0  USEFUL:      52383  USELESS:     120953
L2C USEFUL LOAD PREFETCHES:      52383 PREFETCH ISSUED TO LOWER LEVEL:     182796  ACCURACY: 28.6565
L2C TIMELY PREFETCHES:      52383 LATE PREFETCHES: 10091 DROPPED PREFETCHES: 0
L2C PREFETCHES SAME FILL-ORIGIN LEVEL: 163550 DIFFERENT FILL-ORIGIN LEVEL: 0
L2C AVERAGE MISS LATENCY: 68.1287 cycles
L2C RQ	ACCESS:    7591934	FORWARD:          0	MERGED:          0	TO_CACHE:    7591901
L2C WQ	ACCESS:    1272632	FORWARD:        100	MERGED:          0	TO_CACHE:    1272632
L2C PQ	ACCESS:     946529	FORWARD:          0	MERGED:       2091	TO_CACHE:     944371

L2C Instructions Evicting Data 484542
L2C Translations Evicting Data 30242
L2C Data Evicting Data 662393
L2C Instructions Evicting Instructions 460990
L2C Translations Evicting Instructions 16409
L2C Data Evicting Instructions 448928
L2C Instructions Evicting Translations 16860
L2C Translations Evicting Translations 1296
L2C Data Evicting Translations 28659
L2C Dense regions hint from L2: 0
PSCL5 TOTAL     ACCESS:      60320  HIT:      60320  MISS:          0  HIT %:        100  MISS %:          0   MPKI: 0
PSCL5 LOAD TRANSLATION ACCESS:      51337  HIT:      51337  MISS:          0  HIT %:        100  MISS %:          0   MPKI: 0
PSCL5 TRANSLATION FROM L1D PREFETCHER ACCESS:       8983  HIT:       8983  MISS:          0  HIT %:        100  MISS %:          0   MPKI: 0
PSCL5 PREFETCH  REQUESTED:          0  ISSUED:          0  USEFUL:          0  USELESS:          0
PSCL5 USEFUL LOAD PREFETCHES:          0 PREFETCH ISSUED TO LOWER LEVEL:          0  ACCURACY: -nan
PSCL5 TIMELY PREFETCHES:          0 LATE PREFETCHES: 0 DROPPED PREFETCHES: 0
PSCL5 PREFETCHES SAME FILL-ORIGIN LEVEL: 0 DIFFERENT FILL-ORIGIN LEVEL: 0

PSCL4 TOTAL     ACCESS:      58781  HIT:      58331  MISS:        450  HIT %:    99.2344  MISS %:   0.765553   MPKI: 0.00225
PSCL4 LOAD TRANSLATION ACCESS:      49976  HIT:      49526  MISS:        450  HIT %:    99.0996  MISS %:   0.900432   MPKI: 0.00225
PSCL4 TRANSLATION FROM L1D PREFETCHER ACCESS:       8805  HIT:       8805  MISS:          0  HIT %:        100  MISS %:          0   MPKI: 0
PSCL4 PREFETCH  REQUESTED:          0  ISSUED:          0  USEFUL:          0  USELESS:          0
PSCL4 USEFUL LOAD PREFETCHES:          0 PREFETCH ISSUED TO LOWER LEVEL:          0  ACCURACY: -nan
PSCL4 TIMELY PREFETCHES:          0 LATE PREFETCHES: 0 DROPPED PREFETCHES: 0
PSCL4 PREFETCHES SAME FILL-ORIGIN LEVEL: 0 DIFFERENT FILL-ORIGIN LEVEL: 0

PSCL3 TOTAL     ACCESS:      55475  HIT:      48003  MISS:       7472  HIT %:    86.5309  MISS %:    13.4691   MPKI: 0.03736
PSCL3 LOAD TRANSLATION ACCESS:      47621  HIT:      40149  MISS:       7472  HIT %:    84.3094  MISS %:    15.6906   MPKI: 0.03736
PSCL3 TRANSLATION FROM L1D PREFETCHER ACCESS:       7854  HIT:       7854  MISS:          0  HIT %:        100  MISS %:          0   MPKI: 0
PSCL3 PREFETCH  REQUESTED:          0  ISSUED:          0  USEFUL:          0  USELESS:          0
PSCL3 USEFUL LOAD PREFETCHES:          0 PREFETCH ISSUED TO LOWER LEVEL:          0  ACCURACY: -nan
PSCL3 TIMELY PREFETCHES:          0 LATE PREFETCHES: 0 DROPPED PREFETCHES: 0
PSCL3 PREFETCHES SAME FILL-ORIGIN LEVEL: 0 DIFFERENT FILL-ORIGIN LEVEL: 0

PSCL2 TOTAL     ACCESS:      59414  HIT:      38756  MISS:      20658  HIT %:    65.2304  MISS %:    34.7696   MPKI: 0.10329
PSCL2 LOAD TRANSLATION ACCESS:      51347  HIT:      30689  MISS:      20658  HIT %:    59.7679  MISS %:    40.2321   MPKI: 0.10329
PSCL2 TRANSLATION FROM L1D PREFETCHER ACCESS:       8067  HIT:       8067  MISS:          0  HIT %:        100  MISS %:          0   MPKI: 0
PSCL2 PREFETCH  REQUESTED:          0  ISSUED:          0  USEFUL:          0  USELESS:          0
PSCL2 USEFUL LOAD PREFETCHES:          0 PREFETCH ISSUED TO LOWER LEVEL:          0  ACCURACY: -nan
PSCL2 TIMELY PREFETCHES:          0 LATE PREFETCHES: 0 DROPPED PREFETCHES: 0
PSCL2 PREFETCHES SAME FILL-ORIGIN LEVEL: 0 DIFFERENT FILL-ORIGIN LEVEL: 0

LLC TOTAL     ACCESS:    2744144  HIT:    2257351  MISS:     486793  HIT %:    82.2607  MISS %:    17.7393   MPKI: 2.43396
LLC LOAD      ACCESS:    1444711  HIT:    1311320  MISS:     133391  HIT %:    90.7669  MISS %:    9.23306   MPKI: 0.666955
LLC RFO       ACCESS:     474860  HIT:     295486  MISS:     179374  HIT %:    62.2259  MISS %:    37.7741   MPKI: 0.89687
LLC PREFETCH  ACCESS:     182793  HIT:      46650  MISS:     136143  HIT %:    25.5207  MISS %:    74.4793   MPKI: 0.680715
LLC WRITEBACK ACCESS:     593833  HIT:     566610  MISS:      27223  HIT %:    95.4157  MISS %:    4.58429   MPKI: 0.136115
LLC LOAD TRANSLATION ACCESS:      47246  HIT:      36859  MISS:      10387  HIT %:    78.0151  MISS %:    21.9849   MPKI: 0.051935
LLC TRANSLATION FROM L1D PREFETCHER ACCESS:        701  HIT:        426  MISS:        275  HIT %:    60.7703  MISS %:    39.2297   MPKI: 0.001375
LLC PREFETCH  REQUESTED:          0  ISSUED:          0  USEFUL:       1886  USELESS:     138986
LLC USEFUL LOAD PREFETCHES:       1886 PREFETCH ISSUED TO LOWER LEVEL:     136143  ACCURACY: 1.38531
LLC TIMELY PREFETCHES:       1886 LATE PREFETCHES: 0 DROPPED PREFETCHES: 0
LLC PREFETCHES SAME FILL-ORIGIN LEVEL: 0 DIFFERENT FILL-ORIGIN LEVEL: 0
LLC AVERAGE MISS LATENCY: 184.493 cycles
LLC RQ	ACCESS:    1967523	FORWARD:          0	MERGED:          0	TO_CACHE:    1967518
LLC WQ	ACCESS:     593833	FORWARD:          8	MERGED:          0	TO_CACHE:     593833
LLC PQ	ACCESS:     182796	FORWARD:          0	MERGED:          0	TO_CACHE:     182793

LLC Dense regions hint to LLC: 0

RAW hits: 2633087
Loads Generated: 57315463
Loads sent to L1D: 54682378
Stores Generated: 24630459
Stores sent to L1D: 24630455
Major fault: 0 Minor fault: 4769
Allocated PAGES: 4769

DRAM Statistics
 CHANNEL 0
 RQ ROW_BUFFER_HIT:     194178  ROW_BUFFER_MISS:     265389
 DBUS_CONGESTED:        217
 WQ ROW_BUFFER_HIT:      32456  ROW_BUFFER_MISS:     185031  FULL:          0

 AVG_CONGESTED_CYCLE: 4
 All warmup complete: 2
Channel 0 Bank busy for read cycles: 0
Channel 0 Bank busy for write cycles: 0
Channel 0
Rank 0
0banks busy for read cycles: 415747891
0banks busy for write cycles: 84616
1banks busy for read cycles: 20657166
1banks busy for write cycles: 11693337
2banks busy for read cycles: 5004369
2banks busy for write cycles: 3091220
3banks busy for read cycles: 1175844
3banks busy for write cycles: 1050288
4banks busy for read cycles: 388286
4banks busy for write cycles: 485960
5banks busy for read cycles: 258997
5banks busy for write cycles: 269564
6banks busy for read cycles: 243497
6banks busy for write cycles: 185492
7banks busy for read cycles: 301197
7banks busy for write cycles: 243897
8banks busy for read cycles: 1172247
8banks busy for write cycles: 1345083

CPU 0 Branch Prediction Accuracy: 99.7584% MPKI: 0.42388 Average ROB Occupancy at Mispredict: 25.0137
Branch types
NOT_BRANCH: 164908858 82.4544%
BRANCH_DIRECT_JUMP: 2533222 1.26661%
BRANCH_INDIRECT: 13038560 6.51928%
BRANCH_CONDITIONAL: 10894809 5.4474%
BRANCH_DIRECT_CALL: 3018472 1.50924%
BRANCH_INDIRECT_CALL: 1293791 0.646895%
BRANCH_RETURN: 4312191 2.1561%
BRANCH_OTHER: 0 0%

DRAM PAGES: 1048576
Allocated PAGES: 4769
