
*** ChampSim Multicore Out-of-Order Simulator ***

Warmup Instructions: 50000000
Simulation Instructions: 200000000
Number of CPUs: 1
LLC sets: 2048
LLC ways: 16
Off-chip DRAM Size: 4096 MB Channels: 1 Width: 64-bit Data Rate: 6400 MT/s
CPU 0 runs traces/spec2k17/srv_60.champsimtrace.xz
.xz
BTB has LRU replacement policy
ITLB has LRU replacement policy
DTLB has LRU replacement policy
STLB has LRU replacement policy
L1I has LRU replacement policy
History Sets: 8
History Ways: 16
BERTI Size: 16
BERTI Stride Size: 16
L1D has LRU replacement policy
Initialize SRRIP state for L2C
Initialize DRRIP state for LLC
Heartbeat CPU 0 instructions: 10000001 cycles: 2787174 heartbeat IPC: 3.58786 cumulative IPC: 3.58786 (Simulation time: 0 hr 0 min 37 sec) 
Heartbeat CPU 0 instructions: 20000003 cycles: 5568861 heartbeat IPC: 3.59494 cumulative IPC: 3.5914 (Simulation time: 0 hr 1 min 17 sec) 
Heartbeat CPU 0 instructions: 30000003 cycles: 8347518 heartbeat IPC: 3.59886 cumulative IPC: 3.59388 (Simulation time: 0 hr 1 min 57 sec) 
*** Reached end of trace for Core: 0 Repeating trace: traces/spec2k17/srv_60.champsimtrace.xz
Heartbeat CPU 0 instructions: 40000001 cycles: 11127983 heartbeat IPC: 3.59652 cumulative IPC: 3.59454 (Simulation time: 0 hr 2 min 35 sec) 
Heartbeat CPU 0 instructions: 50000002 cycles: 13907179 heartbeat IPC: 3.59816 cumulative IPC: 3.59527 (Simulation time: 0 hr 3 min 13 sec) 

Warmup complete CPU 0 instructions: 50000002 cycles: 13907179 (Simulation time: 0 hr 3 min 13 sec) 

Heartbeat CPU 0 instructions: 60000000 cycles: 38257358 heartbeat IPC: 0.410675 cumulative IPC: 0.410675 (Simulation time: 0 hr 4 min 6 sec) 
*** Reached end of trace for Core: 0 Repeating trace: traces/spec2k17/srv_60.champsimtrace.xz
Heartbeat CPU 0 instructions: 70000003 cycles: 62502938 heartbeat IPC: 0.412446 cumulative IPC: 0.411559 (Simulation time: 0 hr 4 min 58 sec) 
Heartbeat CPU 0 instructions: 80000000 cycles: 87152063 heartbeat IPC: 0.405694 cumulative IPC: 0.409585 (Simulation time: 0 hr 5 min 50 sec) 
Heartbeat CPU 0 instructions: 90000002 cycles: 111760108 heartbeat IPC: 0.406371 cumulative IPC: 0.408777 (Simulation time: 0 hr 6 min 44 sec) 
*** Reached end of trace for Core: 0 Repeating trace: traces/spec2k17/srv_60.champsimtrace.xz
Heartbeat CPU 0 instructions: 100000002 cycles: 135931776 heartbeat IPC: 0.413707 cumulative IPC: 0.409753 (Simulation time: 0 hr 7 min 30 sec) 
Heartbeat CPU 0 instructions: 110000000 cycles: 160359815 heartbeat IPC: 0.409366 cumulative IPC: 0.409689 (Simulation time: 0 hr 8 min 22 sec) 
Heartbeat CPU 0 instructions: 120000001 cycles: 184686514 heartbeat IPC: 0.411071 cumulative IPC: 0.409886 (Simulation time: 0 hr 9 min 13 sec) 
*** Reached end of trace for Core: 0 Repeating trace: traces/spec2k17/srv_60.champsimtrace.xz
Heartbeat CPU 0 instructions: 130000000 cycles: 208699282 heartbeat IPC: 0.416445 cumulative IPC: 0.410694 (Simulation time: 0 hr 10 min 10 sec) 
Heartbeat CPU 0 instructions: 140000000 cycles: 233547909 heartbeat IPC: 0.402437 cumulative IPC: 0.40976 (Simulation time: 0 hr 11 min 1 sec) 
Heartbeat CPU 0 instructions: 150000003 cycles: 257753104 heartbeat IPC: 0.413135 cumulative IPC: 0.410095 (Simulation time: 0 hr 11 min 50 sec) 
*** Reached end of trace for Core: 0 Repeating trace: traces/spec2k17/srv_60.champsimtrace.xz
Heartbeat CPU 0 instructions: 160000003 cycles: 281773902 heartbeat IPC: 0.416306 cumulative IPC: 0.410652 (Simulation time: 0 hr 12 min 37 sec) 
Heartbeat CPU 0 instructions: 170000000 cycles: 306705138 heartbeat IPC: 0.401103 cumulative IPC: 0.409839 (Simulation time: 0 hr 13 min 36 sec) 
Heartbeat CPU 0 instructions: 180000001 cycles: 330897329 heartbeat IPC: 0.413357 cumulative IPC: 0.410107 (Simulation time: 0 hr 14 min 30 sec) 
*** Reached end of trace for Core: 0 Repeating trace: traces/spec2k17/srv_60.champsimtrace.xz
Heartbeat CPU 0 instructions: 190000000 cycles: 354712185 heartbeat IPC: 0.419906 cumulative IPC: 0.410792 (Simulation time: 0 hr 15 min 22 sec) 
Heartbeat CPU 0 instructions: 200000000 cycles: 379709953 heartbeat IPC: 0.400036 cumulative IPC: 0.410057 (Simulation time: 0 hr 16 min 11 sec) 
Heartbeat CPU 0 instructions: 210000003 cycles: 403976324 heartbeat IPC: 0.412093 cumulative IPC: 0.410184 (Simulation time: 0 hr 17 min 2 sec) 
*** Reached end of trace for Core: 0 Repeating trace: traces/spec2k17/srv_60.champsimtrace.xz
Heartbeat CPU 0 instructions: 220000000 cycles: 427820698 heartbeat IPC: 0.419386 cumulative IPC: 0.410714 (Simulation time: 0 hr 18 min 0 sec) 
Heartbeat CPU 0 instructions: 230000002 cycles: 452728428 heartbeat IPC: 0.401482 cumulative IPC: 0.41019 (Simulation time: 0 hr 18 min 52 sec) 
Heartbeat CPU 0 instructions: 240000000 cycles: 476931804 heartbeat IPC: 0.413165 cumulative IPC: 0.410345 (Simulation time: 0 hr 19 min 44 sec) 
*** Reached end of trace for Core: 0 Repeating trace: traces/spec2k17/srv_60.champsimtrace.xz
Heartbeat CPU 0 instructions: 250000001 cycles: 501082438 heartbeat IPC: 0.414068 cumulative IPC: 0.41053 (Simulation time: 0 hr 20 min 39 sec) 
Finished CPU 0 instructions: 200000003 cycles: 487175260 cumulative IPC: 0.41053 (Simulation time: 0 hr 20 min 39 sec) 

ChampSim completed all CPUs

Region of Interest Statistics

CPU 0 cumulative IPC: 0.41053 instructions: 200000003 cycles: 487175260
ITLB TOTAL     ACCESS:   31489978  HIT:   30665682  MISS:     824296  HIT %:    97.3824  MISS %:    2.61765   MPKI: 4.12148
ITLB LOAD TRANSLATION ACCESS:   31489978  HIT:   30665682  MISS:     824296  HIT %:    97.3824  MISS %:    2.61765   MPKI: 4.12148
ITLB PREFETCH  REQUESTED:          0  ISSUED:          0  USEFUL:          0  USELESS:          0
ITLB USEFUL LOAD PREFETCHES:          0 PREFETCH ISSUED TO LOWER LEVEL:          0  ACCURACY: -nan
ITLB TIMELY PREFETCHES:          0 LATE PREFETCHES: 0 DROPPED PREFETCHES: 0
ITLB PREFETCHES SAME FILL-ORIGIN LEVEL: 0 DIFFERENT FILL-ORIGIN LEVEL: 0
ITLB AVERAGE MISS LATENCY: 15.8641 cycles
ITLB RQ	ACCESS:   38391936	FORWARD:          0	MERGED:    6703638	TO_CACHE:   31688298

DTLB TOTAL     ACCESS:   37838207  HIT:   35257071  MISS:    2581136  HIT %:    93.1785  MISS %:    6.82151   MPKI: 12.9057
DTLB LOAD TRANSLATION ACCESS:   37838207  HIT:   35257071  MISS:    2581136  HIT %:    93.1785  MISS %:    6.82151   MPKI: 12.9057
DTLB PREFETCH  REQUESTED:          0  ISSUED:          0  USEFUL:          0  USELESS:          0
DTLB USEFUL LOAD PREFETCHES:          0 PREFETCH ISSUED TO LOWER LEVEL:          0  ACCURACY: -nan
DTLB TIMELY PREFETCHES:          0 LATE PREFETCHES: 0 DROPPED PREFETCHES: 0
DTLB PREFETCHES SAME FILL-ORIGIN LEVEL: 0 DIFFERENT FILL-ORIGIN LEVEL: 0
DTLB AVERAGE MISS LATENCY: 14.3982 cycles
DTLB RQ	ACCESS:   48214320	FORWARD:          0	MERGED:   10226881	TO_CACHE:   37987439

STLB TOTAL     ACCESS:    3491150  HIT:    2985110  MISS:     506040  HIT %:    85.5051  MISS %:    14.4949   MPKI: 2.5302
STLB LOAD TRANSLATION ACCESS:    3405432  HIT:    2900306  MISS:     505126  HIT %:    85.1671  MISS %:    14.8329   MPKI: 2.52563
STLB TRANSLATION FROM L1D PREFETCHER ACCESS:      85718  HIT:      84804  MISS:        914  HIT %:    98.9337  MISS %:    1.06629   MPKI: 0.00457
STLB PREFETCH  REQUESTED:          0  ISSUED:          0  USEFUL:        890  USELESS:         23
STLB USEFUL LOAD PREFETCHES:        890 PREFETCH ISSUED TO LOWER LEVEL:          0  ACCURACY: inf
STLB TIMELY PREFETCHES:        890 LATE PREFETCHES: 0 DROPPED PREFETCHES: 1092
STLB PREFETCHES SAME FILL-ORIGIN LEVEL: 0 DIFFERENT FILL-ORIGIN LEVEL: 0
STLB AVERAGE MISS LATENCY: 38.5974 cycles
STLB RQ	ACCESS:    3790989	FORWARD:          0	MERGED:     298596	TO_CACHE:    3492393

STLB Hit, L1D data hit: 0
STLB Hit, L2C data hit: 0
STLB Hit, LLC data hit: 0
STLB Hit, LLC data miss: 0
STLB STLB hints to L2: 0
L1D TOTAL     ACCESS:   47869709  HIT:   45188485  MISS:    2681224  HIT %:    94.3989  MISS %:    5.60109   MPKI: 13.4061
L1D LOAD      ACCESS:   28257466  HIT:   25975236  MISS:    2282230  HIT %:    91.9234  MISS %:    8.07656   MPKI: 11.4111
L1D RFO       ACCESS:   19407130  HIT:   19054054  MISS:     353076  HIT %:    98.1807  MISS %:    1.81931   MPKI: 1.76538
L1D PREFETCH  ACCESS:     205113  HIT:     159195  MISS:      45918  HIT %:    77.6133  MISS %:    22.3867   MPKI: 0.22959
L1D PREFETCH  REQUESTED:     979657  ISSUED:     968253  USEFUL:      41268  USELESS:       4651
L1D USEFUL LOAD PREFETCHES:      41268 PREFETCH ISSUED TO LOWER LEVEL:     200513  ACCURACY: 20.5812
L1D TIMELY PREFETCHES:      41268 LATE PREFETCHES: 582 DROPPED PREFETCHES: 1408
L1D PREFETCHES SAME FILL-ORIGIN LEVEL: 46500 DIFFERENT FILL-ORIGIN LEVEL: 154013
L1D AVERAGE MISS LATENCY: 44.6206 cycles
L1D RQ	ACCESS:   42562097	FORWARD:          0	MERGED:   13963008	TO_CACHE:   28400455
L1D WQ	ACCESS:   20104499	FORWARD:     198634	MERGED:     290634	TO_CACHE:   19813865
L1D PQ	ACCESS:     582696	FORWARD:          0	MERGED:     197139	TO_CACHE:     385557

L1D UNIQUE REGIONS ACCESSED: 0
L1D REGIONS CONFLICTS: 0
L1D Cross Page Prefetch Requests: 86099
L1D Same Page Prefetch Requests: 661178
L1D ROI Sum of L1D PQ occupancy: 5706622
L1D PREFETCHES PUSHED FROM L2C: 0
L1I TOTAL     ACCESS:   36691590  HIT:   31426281  MISS:    5265309  HIT %:    85.6498  MISS %:    14.3502   MPKI: 26.3265
L1I LOAD      ACCESS:   36691590  HIT:   31426281  MISS:    5265309  HIT %:    85.6498  MISS %:    14.3502   MPKI: 26.3265
L1I PREFETCH  REQUESTED:          0  ISSUED:          0  USEFUL:          0  USELESS:          0
L1I USEFUL LOAD PREFETCHES:          0 PREFETCH ISSUED TO LOWER LEVEL:          0  ACCURACY: -nan
L1I TIMELY PREFETCHES:          0 LATE PREFETCHES: 0 DROPPED PREFETCHES: 0
L1I PREFETCHES SAME FILL-ORIGIN LEVEL: 0 DIFFERENT FILL-ORIGIN LEVEL: 0
L1I AVERAGE MISS LATENCY: 28.2067 cycles
L1I RQ	ACCESS:   57077719	FORWARD:          0	MERGED:   18685783	TO_CACHE:   38391936

BTB TOTAL     ACCESS:   22533867  HIT:   17310639  MISS:    5223228  HIT %:    76.8205  MISS %:    23.1795   MPKI: 26.1161
BTB BRANCH_DIRECT_JUMP	ACCESS:    1763351  HIT:    1443726  MISS:     319625
BTB BRANCH_INDIRECT	ACCESS:    9801194  HIT:    7271708  MISS:    2529486
BTB BRANCH_CONDITIONAL	ACCESS:    4520054  HIT:    4030146  MISS:     489908
BTB BRANCH_DIRECT_CALL	ACCESS:    2511582  HIT:    1921451  MISS:     590131
BTB BRANCH_INDIRECT_CALL	ACCESS:     702233  HIT:     645739  MISS:      56494
BTB BRANCH_RETURN	ACCESS:    3235453  HIT:    1997869  MISS:    1237584
BTB BRANCH_OTHER ACCESS:          0  HIT:          0  MISS:          0

L2C TOTAL     ACCESS:    9763493  HIT:    5586215  MISS:    4177278  HIT %:    57.2153  MISS %:    42.7847   MPKI: 20.8864
L2C LOAD      ACCESS:    7546874  HIT:    3913347  MISS:    3633527  HIT %:    51.8539  MISS %:    48.1461   MPKI: 18.1676
L2C DATA LOAD MPKI: 6.08703
L2C INSTRUCTION LOAD MPKI: 12.0806
L2C RFO       ACCESS:     353075  HIT:     175195  MISS:     177880  HIT %:    49.6198  MISS %:    50.3802   MPKI: 0.8894
L2C PREFETCH  ACCESS:     182248  HIT:     111165  MISS:      71083  HIT %:    60.9966  MISS %:    39.0034   MPKI: 0.355415
L2C DATA PREFETCH MPKI: 0.355415
L2C INSTRUCTION PREFETCH MPKI: 0
L2C WRITEBACK ACCESS:    1036353  HIT:     978928  MISS:      57425  HIT %:    94.4589  MISS %:    5.54107   MPKI: 0.287125
L2C LOAD TRANSLATION ACCESS:     642791  HIT:     405576  MISS:     237215  HIT %:    63.0961  MISS %:    36.9039   MPKI: 1.18607
L2C TRANSLATION FROM L1D PREFETCHER ACCESS:       2152  HIT:       2004  MISS:        148  HIT %:    93.1227  MISS %:    6.87732   MPKI: 0.00074
L2C PREFETCH  REQUESTED:          0  ISSUED:          0  USEFUL:      17547  USELESS:      53479
L2C USEFUL LOAD PREFETCHES:      17547 PREFETCH ISSUED TO LOWER LEVEL:      72009  ACCURACY: 24.3678
L2C TIMELY PREFETCHES:      17547 LATE PREFETCHES: 926 DROPPED PREFETCHES: 0
L2C PREFETCHES SAME FILL-ORIGIN LEVEL: 61032 DIFFERENT FILL-ORIGIN LEVEL: 0
L2C AVERAGE MISS LATENCY: 39.4304 cycles
L2C RQ	ACCESS:    8544976	FORWARD:          0	MERGED:          0	TO_CACHE:    8544892
L2C WQ	ACCESS:    1036353	FORWARD:         84	MERGED:          0	TO_CACHE:    1036353
L2C PQ	ACCESS:     200513	FORWARD:          0	MERGED:        483	TO_CACHE:     200030

L2C Instructions Evicting Data 879548
L2C Translations Evicting Data 88019
L2C Data Evicting Data 533645
L2C Instructions Evicting Instructions 1399132
L2C Translations Evicting Instructions 136679
L2C Data Evicting Instructions 848581
L2C Instructions Evicting Translations 137441
L2C Translations Evicting Translations 12665
L2C Data Evicting Translations 84143
L2C Dense regions hint from L2: 0
PSCL5 TOTAL     ACCESS:     507132  HIT:     507132  MISS:          0  HIT %:        100  MISS %:          0   MPKI: 0
PSCL5 LOAD TRANSLATION ACCESS:     505126  HIT:     505126  MISS:          0  HIT %:        100  MISS %:          0   MPKI: 0
PSCL5 TRANSLATION FROM L1D PREFETCHER ACCESS:       2006  HIT:       2006  MISS:          0  HIT %:        100  MISS %:          0   MPKI: 0
PSCL5 PREFETCH  REQUESTED:          0  ISSUED:          0  USEFUL:          0  USELESS:          0
PSCL5 USEFUL LOAD PREFETCHES:          0 PREFETCH ISSUED TO LOWER LEVEL:          0  ACCURACY: -nan
PSCL5 TIMELY PREFETCHES:          0 LATE PREFETCHES: 0 DROPPED PREFETCHES: 0
PSCL5 PREFETCHES SAME FILL-ORIGIN LEVEL: 0 DIFFERENT FILL-ORIGIN LEVEL: 0

PSCL4 TOTAL     ACCESS:     450172  HIT:     448796  MISS:       1376  HIT %:    99.6943  MISS %:   0.305661   MPKI: 0.00688
PSCL4 LOAD TRANSLATION ACCESS:     448548  HIT:     447172  MISS:       1376  HIT %:    99.6932  MISS %:   0.306768   MPKI: 0.00688
PSCL4 TRANSLATION FROM L1D PREFETCHER ACCESS:       1624  HIT:       1624  MISS:          0  HIT %:        100  MISS %:          0   MPKI: 0
PSCL4 PREFETCH  REQUESTED:          0  ISSUED:          0  USEFUL:          0  USELESS:          0
PSCL4 USEFUL LOAD PREFETCHES:          0 PREFETCH ISSUED TO LOWER LEVEL:          0  ACCURACY: -nan
PSCL4 TIMELY PREFETCHES:          0 LATE PREFETCHES: 0 DROPPED PREFETCHES: 0
PSCL4 PREFETCHES SAME FILL-ORIGIN LEVEL: 0 DIFFERENT FILL-ORIGIN LEVEL: 0

PSCL3 TOTAL     ACCESS:     501842  HIT:     497537  MISS:       4305  HIT %:    99.1422  MISS %:    0.85784   MPKI: 0.021525
PSCL3 LOAD TRANSLATION ACCESS:     499836  HIT:     495531  MISS:       4305  HIT %:    99.1387  MISS %:   0.861283   MPKI: 0.021525
PSCL3 TRANSLATION FROM L1D PREFETCHER ACCESS:       2006  HIT:       2006  MISS:          0  HIT %:        100  MISS %:          0   MPKI: 0
PSCL3 PREFETCH  REQUESTED:          0  ISSUED:          0  USEFUL:          0  USELESS:          0
PSCL3 USEFUL LOAD PREFETCHES:          0 PREFETCH ISSUED TO LOWER LEVEL:          0  ACCURACY: -nan
PSCL3 TIMELY PREFETCHES:          0 LATE PREFETCHES: 0 DROPPED PREFETCHES: 0
PSCL3 PREFETCHES SAME FILL-ORIGIN LEVEL: 0 DIFFERENT FILL-ORIGIN LEVEL: 0

PSCL2 TOTAL     ACCESS:     507052  HIT:     375002  MISS:     132050  HIT %:    73.9573  MISS %:    26.0427   MPKI: 0.66025
PSCL2 LOAD TRANSLATION ACCESS:     505192  HIT:     373142  MISS:     132050  HIT %:    73.8614  MISS %:    26.1386   MPKI: 0.66025
PSCL2 TRANSLATION FROM L1D PREFETCHER ACCESS:       1860  HIT:       1860  MISS:          0  HIT %:        100  MISS %:          0   MPKI: 0
PSCL2 PREFETCH  REQUESTED:          0  ISSUED:          0  USEFUL:          0  USELESS:          0
PSCL2 USEFUL LOAD PREFETCHES:          0 PREFETCH ISSUED TO LOWER LEVEL:          0  ACCURACY: -nan
PSCL2 TIMELY PREFETCHES:          0 LATE PREFETCHES: 0 DROPPED PREFETCHES: 0
PSCL2 PREFETCHES SAME FILL-ORIGIN LEVEL: 0 DIFFERENT FILL-ORIGIN LEVEL: 0

LLC TOTAL     ACCESS:    4628501  HIT:    4366000  MISS:     262501  HIT %:    94.3286  MISS %:     5.6714   MPKI: 1.3125
LLC LOAD      ACCESS:    3632602  HIT:    3426428  MISS:     206174  HIT %:    94.3243  MISS %:    5.67566   MPKI: 1.03087
LLC RFO       ACCESS:     177879  HIT:     136544  MISS:      41335  HIT %:    76.7623  MISS %:    23.2377   MPKI: 0.206675
LLC PREFETCH  ACCESS:      72009  HIT:      63152  MISS:       8857  HIT %:    87.7001  MISS %:    12.2999   MPKI: 0.044285
LLC WRITEBACK ACCESS:     508648  HIT:     506605  MISS:       2043  HIT %:    99.5983  MISS %:   0.401653   MPKI: 0.010215
LLC LOAD TRANSLATION ACCESS:     237215  HIT:     233135  MISS:       4080  HIT %:      98.28  MISS %:    1.71996   MPKI: 0.0204
LLC TRANSLATION FROM L1D PREFETCHER ACCESS:        148  HIT:        136  MISS:         12  HIT %:    91.8919  MISS %:    8.10811   MPKI: 6e-05
LLC PREFETCH  REQUESTED:          0  ISSUED:          0  USEFUL:        747  USELESS:       7898
LLC USEFUL LOAD PREFETCHES:        747 PREFETCH ISSUED TO LOWER LEVEL:       8857  ACCURACY: 8.43401
LLC TIMELY PREFETCHES:        747 LATE PREFETCHES: 0 DROPPED PREFETCHES: 0
LLC PREFETCHES SAME FILL-ORIGIN LEVEL: 0 DIFFERENT FILL-ORIGIN LEVEL: 0
LLC AVERAGE MISS LATENCY: 156.645 cycles
LLC RQ	ACCESS:    4047844	FORWARD:          0	MERGED:          0	TO_CACHE:    4047844
LLC WQ	ACCESS:     508648	FORWARD:          0	MERGED:          0	TO_CACHE:     508648
LLC PQ	ACCESS:      72009	FORWARD:          0	MERGED:          0	TO_CACHE:      72009

LLC Dense regions hint to LLC: 0

RAW hits: 2689224
Loads Generated: 45251322
Loads sent to L1D: 42562097
Stores Generated: 20104499
Stores sent to L1D: 20104499
Major fault: 0 Minor fault: 4373
Allocated PAGES: 4373

DRAM Statistics
 CHANNEL 0
 RQ ROW_BUFFER_HIT:      35900  ROW_BUFFER_MISS:     224558
 DBUS_CONGESTED:        146
 WQ ROW_BUFFER_HIT:      21334  ROW_BUFFER_MISS:     186023  FULL:          0

 AVG_CONGESTED_CYCLE: 4
 All warmup complete: 2
Channel 0 Bank busy for read cycles: 0
Channel 0 Bank busy for write cycles: 0
Channel 0
Rank 0
0banks busy for read cycles: 433749716
0banks busy for write cycles: 127334
1banks busy for read cycles: 25504456
1banks busy for write cycles: 17598523
2banks busy for read cycles: 3119759
2banks busy for write cycles: 3774157
3banks busy for read cycles: 443589
3banks busy for write cycles: 1111755
4banks busy for read cycles: 261666
4banks busy for write cycles: 488998
5banks busy for read cycles: 108948
5banks busy for write cycles: 245691
6banks busy for read cycles: 55752
6banks busy for write cycles: 155450
7banks busy for read cycles: 30849
7banks busy for write cycles: 168933
8banks busy for read cycles: 32860
8banks busy for write cycles: 196825

CPU 0 Branch Prediction Accuracy: 99.8235% MPKI: 0.31717 Average ROB Occupancy at Mispredict: 35.0848
Branch types
NOT_BRANCH: 164066025 82.033%
BRANCH_DIRECT_JUMP: 1763351 0.881675%
BRANCH_INDIRECT: 9801194 4.9006%
BRANCH_CONDITIONAL: 17919840 8.95992%
BRANCH_DIRECT_CALL: 2511582 1.25579%
BRANCH_INDIRECT_CALL: 702233 0.351116%
BRANCH_RETURN: 3235453 1.61773%
BRANCH_OTHER: 0 0%

DRAM PAGES: 1048576
Allocated PAGES: 4373
