
*** ChampSim Multicore Out-of-Order Simulator ***

Warmup Instructions: 50000000
Simulation Instructions: 200000000
Number of CPUs: 1
LLC sets: 2048
LLC ways: 16
Off-chip DRAM Size: 4096 MB Channels: 1 Width: 64-bit Data Rate: 6400 MT/s
CPU 0 runs traces/spec2k17/srv_15.champsimtrace.xz
.xz
BTB has LRU replacement policy
ITLB has LRU replacement policy
DTLB has LRU replacement policy
STLB has LRU replacement policy
L1I has LRU replacement policy
History Sets: 8
History Ways: 16
BERTI Size: 16
BERTI Stride Size: 16
L1D has LRU replacement policy
Initialize SRRIP state for L2C
Initialize DRRIP state for LLC
Heartbeat CPU 0 instructions: 10000002 cycles: 2854409 heartbeat IPC: 3.50335 cumulative IPC: 3.50335 (Simulation time: 0 hr 0 min 33 sec) 
Heartbeat CPU 0 instructions: 20000001 cycles: 5698661 heartbeat IPC: 3.51586 cumulative IPC: 3.5096 (Simulation time: 0 hr 1 min 5 sec) 
Heartbeat CPU 0 instructions: 30000000 cycles: 8543343 heartbeat IPC: 3.51533 cumulative IPC: 3.51151 (Simulation time: 0 hr 1 min 41 sec) 
*** Reached end of trace for Core: 0 Repeating trace: traces/spec2k17/srv_15.champsimtrace.xz
Heartbeat CPU 0 instructions: 40000000 cycles: 11391210 heartbeat IPC: 3.5114 cumulative IPC: 3.51148 (Simulation time: 0 hr 2 min 16 sec) 
Heartbeat CPU 0 instructions: 50000001 cycles: 14234933 heartbeat IPC: 3.51652 cumulative IPC: 3.51249 (Simulation time: 0 hr 2 min 51 sec) 

Warmup complete CPU 0 instructions: 50000001 cycles: 14234933 (Simulation time: 0 hr 2 min 51 sec) 

Heartbeat CPU 0 instructions: 60000000 cycles: 46233028 heartbeat IPC: 0.312519 cumulative IPC: 0.312519 (Simulation time: 0 hr 3 min 46 sec) 
*** Reached end of trace for Core: 0 Repeating trace: traces/spec2k17/srv_15.champsimtrace.xz
Heartbeat CPU 0 instructions: 70000000 cycles: 78217395 heartbeat IPC: 0.312653 cumulative IPC: 0.312586 (Simulation time: 0 hr 4 min 46 sec) 
Heartbeat CPU 0 instructions: 80000001 cycles: 110331130 heartbeat IPC: 0.311393 cumulative IPC: 0.312187 (Simulation time: 0 hr 5 min 34 sec) 
Heartbeat CPU 0 instructions: 90000001 cycles: 142136776 heartbeat IPC: 0.31441 cumulative IPC: 0.31274 (Simulation time: 0 hr 6 min 28 sec) 
*** Reached end of trace for Core: 0 Repeating trace: traces/spec2k17/srv_15.champsimtrace.xz
Heartbeat CPU 0 instructions: 100000002 cycles: 174337062 heartbeat IPC: 0.310556 cumulative IPC: 0.312301 (Simulation time: 0 hr 7 min 27 sec) 
Heartbeat CPU 0 instructions: 110000000 cycles: 206360552 heartbeat IPC: 0.312271 cumulative IPC: 0.312296 (Simulation time: 0 hr 8 min 21 sec) 
Heartbeat CPU 0 instructions: 120000001 cycles: 238202438 heartbeat IPC: 0.314052 cumulative IPC: 0.312545 (Simulation time: 0 hr 9 min 11 sec) 
*** Reached end of trace for Core: 0 Repeating trace: traces/spec2k17/srv_15.champsimtrace.xz
Heartbeat CPU 0 instructions: 130000001 cycles: 270410056 heartbeat IPC: 0.310486 cumulative IPC: 0.312286 (Simulation time: 0 hr 9 min 59 sec) 
Heartbeat CPU 0 instructions: 140000000 cycles: 302224804 heartbeat IPC: 0.31432 cumulative IPC: 0.312511 (Simulation time: 0 hr 10 min 57 sec) 
Heartbeat CPU 0 instructions: 150000003 cycles: 334092729 heartbeat IPC: 0.313795 cumulative IPC: 0.312639 (Simulation time: 0 hr 11 min 47 sec) 
*** Reached end of trace for Core: 0 Repeating trace: traces/spec2k17/srv_15.champsimtrace.xz
Heartbeat CPU 0 instructions: 160000000 cycles: 366249947 heartbeat IPC: 0.310972 cumulative IPC: 0.312487 (Simulation time: 0 hr 12 min 37 sec) 
Heartbeat CPU 0 instructions: 170000002 cycles: 398157790 heartbeat IPC: 0.313403 cumulative IPC: 0.312563 (Simulation time: 0 hr 13 min 36 sec) 
Heartbeat CPU 0 instructions: 180000000 cycles: 430168036 heartbeat IPC: 0.3124 cumulative IPC: 0.31255 (Simulation time: 0 hr 14 min 28 sec) 
*** Reached end of trace for Core: 0 Repeating trace: traces/spec2k17/srv_15.champsimtrace.xz
Heartbeat CPU 0 instructions: 190000003 cycles: 462102774 heartbeat IPC: 0.313139 cumulative IPC: 0.312592 (Simulation time: 0 hr 15 min 18 sec) 
Heartbeat CPU 0 instructions: 200000001 cycles: 494162675 heartbeat IPC: 0.311916 cumulative IPC: 0.312547 (Simulation time: 0 hr 16 min 15 sec) 
Heartbeat CPU 0 instructions: 210000001 cycles: 526041945 heartbeat IPC: 0.313683 cumulative IPC: 0.312618 (Simulation time: 0 hr 17 min 7 sec) 
*** Reached end of trace for Core: 0 Repeating trace: traces/spec2k17/srv_15.champsimtrace.xz
Heartbeat CPU 0 instructions: 220000000 cycles: 557887229 heartbeat IPC: 0.314018 cumulative IPC: 0.3127 (Simulation time: 0 hr 18 min 0 sec) 
Heartbeat CPU 0 instructions: 230000001 cycles: 590005805 heartbeat IPC: 0.311346 cumulative IPC: 0.312624 (Simulation time: 0 hr 18 min 57 sec) 
Heartbeat CPU 0 instructions: 240000001 cycles: 621873656 heartbeat IPC: 0.313796 cumulative IPC: 0.312686 (Simulation time: 0 hr 19 min 54 sec) 
Heartbeat CPU 0 instructions: 250000000 cycles: 653779837 heartbeat IPC: 0.313419 cumulative IPC: 0.312722 (Simulation time: 0 hr 20 min 46 sec) 
Finished CPU 0 instructions: 200000000 cycles: 639544905 cumulative IPC: 0.312722 (Simulation time: 0 hr 20 min 46 sec) 

ChampSim completed all CPUs

Region of Interest Statistics

CPU 0 cumulative IPC: 0.312722 instructions: 200000000 cycles: 639544905
ITLB TOTAL     ACCESS:   35716620  HIT:   33462237  MISS:    2254383  HIT %:    93.6881  MISS %:    6.31186   MPKI: 11.2719
ITLB LOAD TRANSLATION ACCESS:   35716620  HIT:   33462237  MISS:    2254383  HIT %:    93.6881  MISS %:    6.31186   MPKI: 11.2719
ITLB PREFETCH  REQUESTED:          0  ISSUED:          0  USEFUL:          0  USELESS:          0
ITLB USEFUL LOAD PREFETCHES:          0 PREFETCH ISSUED TO LOWER LEVEL:          0  ACCURACY: -nan
ITLB TIMELY PREFETCHES:          0 LATE PREFETCHES: 0 DROPPED PREFETCHES: 0
ITLB PREFETCHES SAME FILL-ORIGIN LEVEL: 0 DIFFERENT FILL-ORIGIN LEVEL: 0
ITLB AVERAGE MISS LATENCY: 9.2037 cycles
ITLB RQ	ACCESS:   41953936	FORWARD:          0	MERGED:    5691727	TO_CACHE:   36262209

DTLB TOTAL     ACCESS:   45730923  HIT:   43692028  MISS:    2038895  HIT %:    95.5415  MISS %:    4.45846   MPKI: 10.1945
DTLB LOAD TRANSLATION ACCESS:   45730923  HIT:   43692028  MISS:    2038895  HIT %:    95.5415  MISS %:    4.45846   MPKI: 10.1945
DTLB PREFETCH  REQUESTED:          0  ISSUED:          0  USEFUL:          0  USELESS:          0
DTLB USEFUL LOAD PREFETCHES:          0 PREFETCH ISSUED TO LOWER LEVEL:          0  ACCURACY: -nan
DTLB TIMELY PREFETCHES:          0 LATE PREFETCHES: 0 DROPPED PREFETCHES: 0
DTLB PREFETCHES SAME FILL-ORIGIN LEVEL: 0 DIFFERENT FILL-ORIGIN LEVEL: 0
DTLB AVERAGE MISS LATENCY: 9.21209 cycles
DTLB RQ	ACCESS:   60492929	FORWARD:          0	MERGED:   14701527	TO_CACHE:   45791402

STLB TOTAL     ACCESS:    5400161  HIT:    5371735  MISS:      28426  HIT %:    99.4736  MISS %:   0.526392   MPKI: 0.14213
STLB LOAD TRANSLATION ACCESS:    4293278  HIT:    4265820  MISS:      27458  HIT %:    99.3604  MISS %:   0.639558   MPKI: 0.13729
STLB TRANSLATION FROM L1D PREFETCHER ACCESS:    1106883  HIT:    1105915  MISS:        968  HIT %:    99.9125  MISS %:  0.0874528   MPKI: 0.00484
STLB PREFETCH  REQUESTED:          0  ISSUED:          0  USEFUL:        949  USELESS:         18
STLB USEFUL LOAD PREFETCHES:        949 PREFETCH ISSUED TO LOWER LEVEL:          0  ACCURACY: inf
STLB TIMELY PREFETCHES:        949 LATE PREFETCHES: 0 DROPPED PREFETCHES: 14908
STLB PREFETCHES SAME FILL-ORIGIN LEVEL: 0 DIFFERENT FILL-ORIGIN LEVEL: 0
STLB AVERAGE MISS LATENCY: 31.1563 cycles
STLB RQ	ACCESS:   13130005	FORWARD:          0	MERGED:    7714591	TO_CACHE:    5415414

STLB Hit, L1D data hit: 0
STLB Hit, L2C data hit: 0
STLB Hit, LLC data hit: 0
STLB Hit, LLC data miss: 0
STLB STLB hints to L2: 0
L1D TOTAL     ACCESS:   66145208  HIT:   60476885  MISS:    5668323  HIT %:    91.4305  MISS %:    8.56951   MPKI: 28.3416
L1D LOAD      ACCESS:   33909263  HIT:   30467136  MISS:    3442127  HIT %:     89.849  MISS %:     10.151   MPKI: 17.2106
L1D RFO       ACCESS:   24665846  HIT:   23460321  MISS:    1205525  HIT %:    95.1126  MISS %:    4.88743   MPKI: 6.02762
L1D PREFETCH  ACCESS:    7570099  HIT:    6549428  MISS:    1020671  HIT %:    86.5171  MISS %:    13.4829   MPKI: 5.10335
L1D PREFETCH  REQUESTED:   19467324  ISSUED:   19165841  USEFUL:     880183  USELESS:     140500
L1D USEFUL LOAD PREFETCHES:     880183 PREFETCH ISSUED TO LOWER LEVEL:    2223238  ACCURACY: 39.5901
L1D TIMELY PREFETCHES:     880183 LATE PREFETCHES: 14510 DROPPED PREFETCHES: 49998
L1D PREFETCHES SAME FILL-ORIGIN LEVEL: 1035181 DIFFERENT FILL-ORIGIN LEVEL: 1188057
L1D AVERAGE MISS LATENCY: 17.1484 cycles
L1D RQ	ACCESS:   46483812	FORWARD:          0	MERGED:   12109446	TO_CACHE:   34053118
L1D WQ	ACCESS:   26586297	FORWARD:     321250	MERGED:     146486	TO_CACHE:   26439811
L1D PQ	ACCESS:   10329114	FORWARD:          0	MERGED:    1492385	TO_CACHE:    8836727

L1D UNIQUE REGIONS ACCESSED: 0
L1D REGIONS CONFLICTS: 0
L1D Cross Page Prefetch Requests: 2016364
L1D Same Page Prefetch Requests: 10863893
L1D ROI Sum of L1D PQ occupancy: 131205096
L1D PREFETCHES PUSHED FROM L2C: 0
L1I TOTAL     ACCESS:   40225599  HIT:   28781721  MISS:   11443878  HIT %:    71.5508  MISS %:    28.4492   MPKI: 57.2194
L1I LOAD      ACCESS:   40225599  HIT:   28781721  MISS:   11443878  HIT %:    71.5508  MISS %:    28.4492   MPKI: 57.2194
L1I PREFETCH  REQUESTED:          0  ISSUED:          0  USEFUL:          0  USELESS:          0
L1I USEFUL LOAD PREFETCHES:          0 PREFETCH ISSUED TO LOWER LEVEL:          0  ACCURACY: -nan
L1I TIMELY PREFETCHES:          0 LATE PREFETCHES: 0 DROPPED PREFETCHES: 0
L1I PREFETCHES SAME FILL-ORIGIN LEVEL: 0 DIFFERENT FILL-ORIGIN LEVEL: 0
L1I AVERAGE MISS LATENCY: 15.7187 cycles
L1I RQ	ACCESS:   58620225	FORWARD:          0	MERGED:   16666289	TO_CACHE:   41953936

BTB TOTAL     ACCESS:   30711821  HIT:   18461256  MISS:   12250565  HIT %:    60.1112  MISS %:    39.8888   MPKI: 61.2528
BTB BRANCH_DIRECT_JUMP	ACCESS:    1879118  HIT:    1082631  MISS:     796487
BTB BRANCH_INDIRECT	ACCESS:   12151413  HIT:    7482073  MISS:    4669340
BTB BRANCH_CONDITIONAL	ACCESS:    7502010  HIT:    6260751  MISS:    1241259
BTB BRANCH_DIRECT_CALL	ACCESS:    3871933  HIT:    1894091  MISS:    1977842
BTB BRANCH_INDIRECT_CALL	ACCESS:     717697  HIT:     351527  MISS:     366170
BTB BRANCH_RETURN	ACCESS:    4589650  HIT:    1390183  MISS:    3199467
BTB BRANCH_OTHER ACCESS:          0  HIT:          0  MISS:          0

L2C TOTAL     ACCESS:   20661362  HIT:   19559219  MISS:    1102143  HIT %:    94.6657  MISS %:    5.33432   MPKI: 5.51072
L2C LOAD      ACCESS:   14871492  HIT:   13976000  MISS:     895492  HIT %:    93.9785  MISS %:    6.02153   MPKI: 4.47746
L2C DATA LOAD MPKI: 1.34353
L2C INSTRUCTION LOAD MPKI: 3.13394
L2C RFO       ACCESS:    1205518  HIT:    1139564  MISS:      65954  HIT %:     94.529  MISS %:    5.47101   MPKI: 0.32977
L2C PREFETCH  ACCESS:    2205228  HIT:    2101807  MISS:     103421  HIT %:    95.3102  MISS %:    4.68981   MPKI: 0.517105
L2C DATA PREFETCH MPKI: 0.517105
L2C INSTRUCTION PREFETCH MPKI: 0
L2C WRITEBACK ACCESS:    2325124  HIT:    2299375  MISS:      25749  HIT %:    98.8926  MISS %:    1.10742   MPKI: 0.128745
L2C LOAD TRANSLATION ACCESS:      28645  HIT:      17898  MISS:      10747  HIT %:    62.4821  MISS %:    37.5179   MPKI: 0.053735
L2C TRANSLATION FROM L1D PREFETCHER ACCESS:      25355  HIT:      24575  MISS:        780  HIT %:    96.9237  MISS %:    3.07632   MPKI: 0.0039
L2C PREFETCH  REQUESTED:          0  ISSUED:          0  USEFUL:       2584  USELESS:     101539
L2C USEFUL LOAD PREFETCHES:       2584 PREFETCH ISSUED TO LOWER LEVEL:     104584  ACCURACY: 2.47074
L2C TIMELY PREFETCHES:       2584 LATE PREFETCHES: 1163 DROPPED PREFETCHES: 0
L2C PREFETCHES SAME FILL-ORIGIN LEVEL: 47624 DIFFERENT FILL-ORIGIN LEVEL: 0
L2C AVERAGE MISS LATENCY: 29.821 cycles
L2C RQ	ACCESS:   16131020	FORWARD:          0	MERGED:          0	TO_CACHE:   16131010
L2C WQ	ACCESS:    2325124	FORWARD:         10	MERGED:          0	TO_CACHE:    2325124
L2C PQ	ACCESS:    2223238	FORWARD:          0	MERGED:        744	TO_CACHE:    2222494

L2C Instructions Evicting Data 248464
L2C Translations Evicting Data 6069
L2C Data Evicting Data 200884
L2C Instructions Evicting Instructions 373250
L2C Translations Evicting Instructions 5342
L2C Data Evicting Instructions 230997
L2C Instructions Evicting Translations 5073
L2C Translations Evicting Translations 116
L2C Data Evicting Translations 6199
L2C Dense regions hint from L2: 0
PSCL5 TOTAL     ACCESS:      43334  HIT:      43334  MISS:          0  HIT %:        100  MISS %:          0   MPKI: 0
PSCL5 LOAD TRANSLATION ACCESS:      27458  HIT:      27458  MISS:          0  HIT %:        100  MISS %:          0   MPKI: 0
PSCL5 TRANSLATION FROM L1D PREFETCHER ACCESS:      15876  HIT:      15876  MISS:          0  HIT %:        100  MISS %:          0   MPKI: 0
PSCL5 PREFETCH  REQUESTED:          0  ISSUED:          0  USEFUL:          0  USELESS:          0
PSCL5 USEFUL LOAD PREFETCHES:          0 PREFETCH ISSUED TO LOWER LEVEL:          0  ACCURACY: -nan
PSCL5 TIMELY PREFETCHES:          0 LATE PREFETCHES: 0 DROPPED PREFETCHES: 0
PSCL5 PREFETCHES SAME FILL-ORIGIN LEVEL: 0 DIFFERENT FILL-ORIGIN LEVEL: 0

PSCL4 TOTAL     ACCESS:      36121  HIT:      35994  MISS:        127  HIT %:    99.6484  MISS %:   0.351596   MPKI: 0.000635
PSCL4 LOAD TRANSLATION ACCESS:      23985  HIT:      23858  MISS:        127  HIT %:    99.4705  MISS %:   0.529498   MPKI: 0.000635
PSCL4 TRANSLATION FROM L1D PREFETCHER ACCESS:      12136  HIT:      12136  MISS:          0  HIT %:        100  MISS %:          0   MPKI: 0
PSCL4 PREFETCH  REQUESTED:          0  ISSUED:          0  USEFUL:          0  USELESS:          0
PSCL4 USEFUL LOAD PREFETCHES:          0 PREFETCH ISSUED TO LOWER LEVEL:          0  ACCURACY: -nan
PSCL4 TIMELY PREFETCHES:          0 LATE PREFETCHES: 0 DROPPED PREFETCHES: 0
PSCL4 PREFETCHES SAME FILL-ORIGIN LEVEL: 0 DIFFERENT FILL-ORIGIN LEVEL: 0

PSCL3 TOTAL     ACCESS:      39845  HIT:      39718  MISS:        127  HIT %:    99.6813  MISS %:   0.318735   MPKI: 0.000635
PSCL3 LOAD TRANSLATION ACCESS:      25620  HIT:      25493  MISS:        127  HIT %:    99.5043  MISS %:   0.495706   MPKI: 0.000635
PSCL3 TRANSLATION FROM L1D PREFETCHER ACCESS:      14225  HIT:      14225  MISS:          0  HIT %:        100  MISS %:          0   MPKI: 0
PSCL3 PREFETCH  REQUESTED:          0  ISSUED:          0  USEFUL:          0  USELESS:          0
PSCL3 USEFUL LOAD PREFETCHES:          0 PREFETCH ISSUED TO LOWER LEVEL:          0  ACCURACY: -nan
PSCL3 TIMELY PREFETCHES:          0 LATE PREFETCHES: 0 DROPPED PREFETCHES: 0
PSCL3 PREFETCHES SAME FILL-ORIGIN LEVEL: 0 DIFFERENT FILL-ORIGIN LEVEL: 0

PSCL2 TOTAL     ACCESS:      36036  HIT:      35066  MISS:        970  HIT %:    97.3082  MISS %:    2.69175   MPKI: 0.00485
PSCL2 LOAD TRANSLATION ACCESS:      27493  HIT:      26523  MISS:        970  HIT %:    96.4718  MISS %:    3.52817   MPKI: 0.00485
PSCL2 TRANSLATION FROM L1D PREFETCHER ACCESS:       8543  HIT:       8543  MISS:          0  HIT %:        100  MISS %:          0   MPKI: 0
PSCL2 PREFETCH  REQUESTED:          0  ISSUED:          0  USEFUL:          0  USELESS:          0
PSCL2 USEFUL LOAD PREFETCHES:          0 PREFETCH ISSUED TO LOWER LEVEL:          0  ACCURACY: -nan
PSCL2 TIMELY PREFETCHES:          0 LATE PREFETCHES: 0 DROPPED PREFETCHES: 0
PSCL2 PREFETCHES SAME FILL-ORIGIN LEVEL: 0 DIFFERENT FILL-ORIGIN LEVEL: 0

LLC TOTAL     ACCESS:    1177703  HIT:    1173895  MISS:       3808  HIT %:    99.6767  MISS %:   0.323341   MPKI: 0.01904
LLC LOAD      ACCESS:     894599  HIT:     892557  MISS:       2042  HIT %:    99.7717  MISS %:   0.228259   MPKI: 0.01021
LLC RFO       ACCESS:      65680  HIT:      65448  MISS:        232  HIT %:    99.6468  MISS %:   0.353228   MPKI: 0.00116
LLC PREFETCH  ACCESS:     104584  HIT:     103099  MISS:       1485  HIT %:    98.5801  MISS %:    1.41991   MPKI: 0.007425
LLC WRITEBACK ACCESS:     101313  HIT:     101293  MISS:         20  HIT %:    99.9803  MISS %:  0.0197408   MPKI: 0.0001
LLC LOAD TRANSLATION ACCESS:      10747  HIT:      10719  MISS:         28  HIT %:    99.7395  MISS %:   0.260538   MPKI: 0.00014
LLC TRANSLATION FROM L1D PREFETCHER ACCESS:        780  HIT:        779  MISS:          1  HIT %:    99.8718  MISS %:   0.128205   MPKI: 5e-06
LLC PREFETCH  REQUESTED:          0  ISSUED:          0  USEFUL:        534  USELESS:        964
LLC USEFUL LOAD PREFETCHES:        534 PREFETCH ISSUED TO LOWER LEVEL:       1485  ACCURACY: 35.9596
LLC TIMELY PREFETCHES:        534 LATE PREFETCHES: 0 DROPPED PREFETCHES: 0
LLC PREFETCHES SAME FILL-ORIGIN LEVEL: 0 DIFFERENT FILL-ORIGIN LEVEL: 0
LLC AVERAGE MISS LATENCY: 151.803 cycles
LLC RQ	ACCESS:     971810	FORWARD:          0	MERGED:          0	TO_CACHE:     971806
LLC WQ	ACCESS:     101313	FORWARD:          4	MERGED:          0	TO_CACHE:     101313
LLC PQ	ACCESS:     104584	FORWARD:          0	MERGED:          0	TO_CACHE:     104584

LLC Dense regions hint to LLC: 0

RAW hits: 1485094
Loads Generated: 47968906
Loads sent to L1D: 46483812
Stores Generated: 26586297
Stores sent to L1D: 26586297
Major fault: 0 Minor fault: 1825
Allocated PAGES: 1825

DRAM Statistics
 CHANNEL 0
 RQ ROW_BUFFER_HIT:        708  ROW_BUFFER_MISS:       3080
 DBUS_CONGESTED:          0
 WQ ROW_BUFFER_HIT:          5  ROW_BUFFER_MISS:        316  FULL:          0

 AVG_CONGESTED_CYCLE: -
 All warmup complete: 2
Channel 0 Bank busy for read cycles: 0
Channel 0 Bank busy for write cycles: 0
Channel 0
Rank 0
0banks busy for read cycles: 639142127
0banks busy for write cycles: 255
1banks busy for read cycles: 284738
1banks busy for write cycles: 34325
2banks busy for read cycles: 43120
2banks busy for write cycles: 5369
3banks busy for read cycles: 18212
3banks busy for write cycles: 563
4banks busy for read cycles: 9609
4banks busy for write cycles: 712
5banks busy for read cycles: 3134
5banks busy for write cycles: 146
6banks busy for read cycles: 1161
6banks busy for write cycles: 0
7banks busy for read cycles: 766
7banks busy for write cycles: 0
8banks busy for read cycles: 669
8banks busy for write cycles: 0

CPU 0 Branch Prediction Accuracy: 99.883% MPKI: 0.21111 Average ROB Occupancy at Mispredict: 28.2957
Branch types
NOT_BRANCH: 163917785 81.9589%
BRANCH_DIRECT_JUMP: 1879118 0.939559%
BRANCH_INDIRECT: 12151413 6.07571%
BRANCH_CONDITIONAL: 12872310 6.43616%
BRANCH_DIRECT_CALL: 3871933 1.93597%
BRANCH_INDIRECT_CALL: 717697 0.358849%
BRANCH_RETURN: 4589650 2.29482%
BRANCH_OTHER: 0 0%

DRAM PAGES: 1048576
Allocated PAGES: 1825
