
*** ChampSim Multicore Out-of-Order Simulator ***

Warmup Instructions: 50000000
Simulation Instructions: 200000000
Number of CPUs: 1
LLC sets: 2048
LLC ways: 16
Off-chip DRAM Size: 4096 MB Channels: 1 Width: 64-bit Data Rate: 6400 MT/s
CPU 0 runs traces/spec2k17/client_002.champsimtrace.xz
.xz
BTB has LRU replacement policy
ITLB has LRU replacement policy
DTLB has LRU replacement policy
STLB has LRU replacement policy
L1I has LRU replacement policy
L1D has LRU replacement policy
Initialize SRRIP state for L2C
Initialize DRRIP state for LLC
Offsets elements: 
Potential of Offsets elements: 
rewards of Offsets elements: 
Printing Sanity1
offset list size902
Offsets elements: 
Potential of Offsets elements: 
rewards of Offsets elements: 7690 6270 527 842 45 0 904 458 3738 3608 800 74 0 37 0 1009 1075 934 3695 0 200 324 1551 836 1071 1411 314 5090 802 0 234 70 188 495 249 987 911 5350 652 0 337 832 222 2178 939 6 263 711 401 383 321 0 450 0 1665 481 3 29 711 875 117 64 0 182 3692 2559 464 500 260 325 1122 123 363 247 54 0 0 0 105 0 0 0 0 0 0 0 30 0 299 431 0 238 667 144 0 0 308 0 0 0 469 0 2 0 0 2 0 169 456 0 0 0 4 0 1225 0 0 0 2 0 0 0 0 0 0 12 0 0 555 0 0 0 0 0 0 0 239 0 0 0 0 141 0 304 793 0 0 0 0 0 175 5 0 0 0 0 0 0 0 42 0 0 0 0 803 0 0 0 118 0 0 0 0 101 300 0 0 0 0 0 0 0 0 0 0 0 0 0 1 0 16 44 0 0 0 0 0 0 0 0 0 29 0 0 9 12 0 0 0 0 0 0 4 0 0 0 0 245 0 0 26 504 448 0 0 0 0 170 0 0 0 0 0 0 0 0 0 0 0 4 2 4 0 0 0 57 2 32 0 0 0 4 0 0 0 0 0 825 2 4 12 7 18 86 0 0 167 0 0 0 0 0 0 0 0 0 0 0 0 0 0 0 0 0 0 0 0 0 0 0 0 0 0 7 80 230 3 2 9 0 5 0 0 0 0 0 0 0 0 0 0 0 0 0 0 0 48 0 0 18 0 0 24 0 0 0 0 0 0 0 0 5 0 3 0 0 107 33 0 0 0 0 50 0 0 0 40 0 0 0 0 0 0 0 382 660 216 0 0 36 116 54 0 93 11 576 257 0 0 0 61 0 0 170 3348 26 96 196 137 0 0 0 0 0 0 0 0 0 0 0 0 0 0 0 0 0 0 0 0 3 0 0 0 0 0 0 0 0 0 143 0 0 0 0 0 0 0 0 0 0 0 0 0 0 0 0 0 0 0 0 0 0 0 0 0 0 0 0 0 0 0 0 0 0 0 0 0 0 0 0 0 0 125 0 0 2 0 0 0 0 0 0 0 0 0 0 72 45 0 0 0 0 0 0 0 1 0 0 0 0 0 0 10 0 0 0 0 0 0 0 0 0 0 0 0 0 0 0 0 0 0 0 0 0 0 0 0 0 0 0 0 0 0 0 4 0 0 0 0 0 0 0 0 0 0 0 0 0 0 0 0 0 0 0 0 0 0 0 0 0 0 863 0 0 0 0 0 0 0 0 0 0 0 0 0 492 136 511 153 44 0 0 39 0 0 0 0 0 0 0 0 0 53 184 0 58 499 277 315 1929 345 0 73 142 190 304 301 512 480 0 0 66 0 267 40 227 177 12 16 198 0 0 0 6 0 105 0 168 0 291 0 0 31 1045 0 0 18 73 34 91 0 0 0 0 948 592 0 1 4 0 295 347 0 0 87 0 0 591 105 0 0 0 0 432 3 0 0 0 39 11 85 271 0 0 0 3367 0 0 0 0 1 0 0 0 0 0 0 0 0 0 0 0 0 0 0 0 0 0 0 0 0 212 0 0 0 259 368 404 129 162 207 1 0 0 0 42 0 0 0 36 0 22 103 0 0 0 15 0 40 0 0 0 0 0 0 0 0 0 0 0 0 0 0 0 0 0 394 688 1341 160 0 0 4 0 0 0 0 803 0 1 0 0 0 0 0 2 0 0 250 0 0 5 3 0 0 0 204 200 21 198 382 0 207 161 375 0 0 0 0 0 0 92 40 973 0 0 409 27 0 0 0 0 0 0 0 7 115 0 0 40 0 95 0 36 174 292 4 102 0 0 0 0 93 19 60 150 0 46 0 30 165 0 0 0 0 0 0 0 0 0 16 0 0 0 0 0 0 0 0 0 0 0 45 0 0 0 0 0 49 0 0 24 0 0 198 0 68 0 0 0 4 0 49 26 72 170 0 0 0 0 0 58 0 0 0 0 0 0 0 0 0 0 0 0 0 0 0 16 7 0 0 0 0 0 0 0 0 0 7 0 5 0 0 0 0 0 0 5 121 0 0 0 
Printing Sanity2
Heartbeat CPU 0 instructions: 10000002 cycles: 2801694 heartbeat IPC: 3.56927 cumulative IPC: 3.56927 (Simulation time: 0 hr 0 min 24 sec) 
Heartbeat CPU 0 instructions: 20000002 cycles: 5616791 heartbeat IPC: 3.55228 cumulative IPC: 3.56075 (Simulation time: 0 hr 0 min 48 sec) 
Heartbeat CPU 0 instructions: 30000000 cycles: 8413304 heartbeat IPC: 3.57588 cumulative IPC: 3.56578 (Simulation time: 0 hr 1 min 11 sec) 
Heartbeat CPU 0 instructions: 40000003 cycles: 11230627 heartbeat IPC: 3.54947 cumulative IPC: 3.56169 (Simulation time: 0 hr 1 min 35 sec) 
Heartbeat CPU 0 instructions: 50000001 cycles: 14047914 heartbeat IPC: 3.54951 cumulative IPC: 3.55925 (Simulation time: 0 hr 1 min 59 sec) 

Warmup complete CPU 0 instructions: 50000001 cycles: 14047914 (Simulation time: 0 hr 1 min 59 sec) 

Heartbeat CPU 0 instructions: 60000001 cycles: 29727129 heartbeat IPC: 0.637787 cumulative IPC: 0.637787 (Simulation time: 0 hr 2 min 30 sec) 
Heartbeat CPU 0 instructions: 70000002 cycles: 45506078 heartbeat IPC: 0.633756 cumulative IPC: 0.635765 (Simulation time: 0 hr 3 min 0 sec) 
Heartbeat CPU 0 instructions: 80000000 cycles: 61010845 heartbeat IPC: 0.644963 cumulative IPC: 0.638802 (Simulation time: 0 hr 3 min 32 sec) 
Heartbeat CPU 0 instructions: 90000000 cycles: 77698861 heartbeat IPC: 0.599232 cumulative IPC: 0.628427 (Simulation time: 0 hr 4 min 3 sec) 
Heartbeat CPU 0 instructions: 100000002 cycles: 93654755 heartbeat IPC: 0.626728 cumulative IPC: 0.628087 (Simulation time: 0 hr 4 min 34 sec) 
*** Reached end of trace for Core: 0 Repeating trace: traces/spec2k17/client_002.champsimtrace.xz
Heartbeat CPU 0 instructions: 110000000 cycles: 109674923 heartbeat IPC: 0.624213 cumulative IPC: 0.627438 (Simulation time: 0 hr 5 min 4 sec) 
Heartbeat CPU 0 instructions: 120000000 cycles: 125523553 heartbeat IPC: 0.630969 cumulative IPC: 0.62794 (Simulation time: 0 hr 5 min 35 sec) 
Heartbeat CPU 0 instructions: 130000003 cycles: 140890380 heartbeat IPC: 0.650753 cumulative IPC: 0.630704 (Simulation time: 0 hr 6 min 7 sec) 
Heartbeat CPU 0 instructions: 140000002 cycles: 156488213 heartbeat IPC: 0.641115 cumulative IPC: 0.631844 (Simulation time: 0 hr 6 min 37 sec) 
Heartbeat CPU 0 instructions: 150000002 cycles: 172081715 heartbeat IPC: 0.641293 cumulative IPC: 0.632776 (Simulation time: 0 hr 7 min 8 sec) 
Heartbeat CPU 0 instructions: 160000000 cycles: 187659490 heartbeat IPC: 0.64194 cumulative IPC: 0.633598 (Simulation time: 0 hr 7 min 39 sec) 
Heartbeat CPU 0 instructions: 170000000 cycles: 203182180 heartbeat IPC: 0.644218 cumulative IPC: 0.63447 (Simulation time: 0 hr 8 min 9 sec) 
Heartbeat CPU 0 instructions: 180000001 cycles: 218790878 heartbeat IPC: 0.640669 cumulative IPC: 0.634942 (Simulation time: 0 hr 8 min 40 sec) 
Heartbeat CPU 0 instructions: 190000000 cycles: 234665817 heartbeat IPC: 0.629924 cumulative IPC: 0.634581 (Simulation time: 0 hr 9 min 11 sec) 
Heartbeat CPU 0 instructions: 200000000 cycles: 251127845 heartbeat IPC: 0.607459 cumulative IPC: 0.632698 (Simulation time: 0 hr 9 min 42 sec) 
*** Reached end of trace for Core: 0 Repeating trace: traces/spec2k17/client_002.champsimtrace.xz
Heartbeat CPU 0 instructions: 210000002 cycles: 267168592 heartbeat IPC: 0.623412 cumulative IPC: 0.63211 (Simulation time: 0 hr 10 min 13 sec) 
Heartbeat CPU 0 instructions: 220000000 cycles: 282578662 heartbeat IPC: 0.648926 cumulative IPC: 0.633075 (Simulation time: 0 hr 10 min 43 sec) 
Heartbeat CPU 0 instructions: 230000000 cycles: 298050380 heartbeat IPC: 0.646341 cumulative IPC: 0.633797 (Simulation time: 0 hr 11 min 14 sec) 
Heartbeat CPU 0 instructions: 240000003 cycles: 313634323 heartbeat IPC: 0.641686 cumulative IPC: 0.634208 (Simulation time: 0 hr 11 min 45 sec) 
Heartbeat CPU 0 instructions: 250000003 cycles: 329171646 heartbeat IPC: 0.643611 cumulative IPC: 0.634671 (Simulation time: 0 hr 12 min 15 sec) 
Finished CPU 0 instructions: 200000002 cycles: 315123732 cumulative IPC: 0.634671 (Simulation time: 0 hr 12 min 15 sec) 

ChampSim completed all CPUs

Region of Interest Statistics

CPU 0 cumulative IPC: 0.634671 instructions: 200000002 cycles: 315123732
ITLB TOTAL     ACCESS:   33366979  HIT:   32927987  MISS:     438992  HIT %:    98.6844  MISS %:    1.31565   MPKI: 2.19496
ITLB LOAD TRANSLATION ACCESS:   33366979  HIT:   32927987  MISS:     438992  HIT %:    98.6844  MISS %:    1.31565   MPKI: 2.19496
ITLB PREFETCH  REQUESTED:          0  ISSUED:          0  USEFUL:          0  USELESS:          0
ITLB USEFUL LOAD PREFETCHES:          0 PREFETCH ISSUED TO LOWER LEVEL:          0  ACCURACY: -nan
ITLB TIMELY PREFETCHES:          0 LATE PREFETCHES: 0 DROPPED PREFETCHES: 0
ITLB PREFETCHES SAME FILL-ORIGIN LEVEL: 0 DIFFERENT FILL-ORIGIN LEVEL: 0
ITLB AVERAGE MISS LATENCY: 9.47453 cycles
ITLB RQ	ACCESS:   39505796	FORWARD:          0	MERGED:    5994889	TO_CACHE:   33510907

DTLB TOTAL     ACCESS:   39095799  HIT:   38481725  MISS:     614074  HIT %:    98.4293  MISS %:    1.57069   MPKI: 3.07037
DTLB LOAD TRANSLATION ACCESS:   39095799  HIT:   38481725  MISS:     614074  HIT %:    98.4293  MISS %:    1.57069   MPKI: 3.07037
DTLB PREFETCH  REQUESTED:          0  ISSUED:          0  USEFUL:          0  USELESS:          0
DTLB USEFUL LOAD PREFETCHES:          0 PREFETCH ISSUED TO LOWER LEVEL:          0  ACCURACY: -nan
DTLB TIMELY PREFETCHES:          0 LATE PREFETCHES: 0 DROPPED PREFETCHES: 0
DTLB PREFETCHES SAME FILL-ORIGIN LEVEL: 0 DIFFERENT FILL-ORIGIN LEVEL: 0
DTLB AVERAGE MISS LATENCY: 10.4768 cycles
DTLB RQ	ACCESS:   54233617	FORWARD:          0	MERGED:   15083631	TO_CACHE:   39149986

STLB TOTAL     ACCESS:   22988488  HIT:   22957304  MISS:      31184  HIT %:    99.8643  MISS %:   0.135651   MPKI: 0.15592
STLB LOAD TRANSLATION ACCESS:    1053066  HIT:    1022062  MISS:      31004  HIT %:    97.0558  MISS %:    2.94416   MPKI: 0.15502
STLB TRANSLATION FROM L1D PREFETCHER ACCESS:   21935422  HIT:   21935242  MISS:        180  HIT %:    99.9992  MISS %: 0.000820591   MPKI: 0.0009
STLB PREFETCH  REQUESTED:          0  ISSUED:          0  USEFUL:        178  USELESS:          2
STLB USEFUL LOAD PREFETCHES:        178 PREFETCH ISSUED TO LOWER LEVEL:          0  ACCURACY: inf
STLB TIMELY PREFETCHES:        178 LATE PREFETCHES: 0 DROPPED PREFETCHES: 294484
STLB PREFETCHES SAME FILL-ORIGIN LEVEL: 0 DIFFERENT FILL-ORIGIN LEVEL: 0
STLB AVERAGE MISS LATENCY: 35.2956 cycles
STLB RQ	ACCESS:   28119150	FORWARD:          0	MERGED:    4836177	TO_CACHE:   23282973

STLB Hit, L1D data hit: 0
STLB Hit, L2C data hit: 0
STLB Hit, LLC data hit: 0
STLB Hit, LLC data miss: 0
STLB STLB hints to L2: 0
L1D TOTAL     ACCESS:   80015765  HIT:   78716763  MISS:    1299002  HIT %:    98.3766  MISS %:    1.62343   MPKI: 6.49501
L1D LOAD      ACCESS:   28496888  HIT:   27950377  MISS:     546511  HIT %:    98.0822  MISS %:    1.91779   MPKI: 2.73255
L1D RFO       ACCESS:   24796401  HIT:   24425814  MISS:     370587  HIT %:    98.5055  MISS %:    1.49452   MPKI: 1.85293
L1D PREFETCH  ACCESS:   26722476  HIT:   26340572  MISS:     381904  HIT %:    98.5709  MISS %:    1.42915   MPKI: 1.90952
AGUS PREFETCH L1 MISS: 0
L1D PREFETCH  REQUESTED:   55607275  ISSUED:   55607161  USEFUL:     110847  USELESS:     271085
L1D USEFUL LOAD PREFETCHES:     110847 PREFETCH ISSUED TO LOWER LEVEL:     383774  ACCURACY: 28.8834
L1D TIMELY PREFETCHES:     110847 LATE PREFETCHES: 683 DROPPED PREFETCHES: 294484
L1D PREFETCHES SAME FILL-ORIGIN LEVEL: 383774 DIFFERENT FILL-ORIGIN LEVEL: 0
L1D AVERAGE MISS LATENCY: 249252 cycles
L1D RQ	ACCESS:   45636600	FORWARD:          0	MERGED:   16373382	TO_CACHE:   28541191
L1D WQ	ACCESS:   26301615	FORWARD:     779292	MERGED:     609189	TO_CACHE:   25692426
L1D PQ	ACCESS:   28541077	FORWARD:          0	MERGED:    1417728	TO_CACHE:   27066084

L1D UNIQUE REGIONS ACCESSED: 0
L1D REGIONS CONFLICTS: 0
L1D Cross Page Prefetch Requests: 2784967
L1D Same Page Prefetch Requests: 31895285
L1D ROI Sum of L1D PQ occupancy: 354131871
L1D PREFETCHES PUSHED FROM L2C: 0
L1I TOTAL     ACCESS:   39090371  HIT:   37293523  MISS:    1796848  HIT %:    95.4033  MISS %:    4.59665   MPKI: 8.98424
L1I LOAD      ACCESS:   39090371  HIT:   37293523  MISS:    1796848  HIT %:    95.4033  MISS %:    4.59665   MPKI: 8.98424
L1I PREFETCH  REQUESTED:          0  ISSUED:          0  USEFUL:          0  USELESS:          0
L1I USEFUL LOAD PREFETCHES:          0 PREFETCH ISSUED TO LOWER LEVEL:          0  ACCURACY: -nan
L1I TIMELY PREFETCHES:          0 LATE PREFETCHES: 0 DROPPED PREFETCHES: 0
L1I PREFETCHES SAME FILL-ORIGIN LEVEL: 0 DIFFERENT FILL-ORIGIN LEVEL: 0
L1I AVERAGE MISS LATENCY: 20.1315 cycles
L1I RQ	ACCESS:   60711826	FORWARD:          0	MERGED:   21206030	TO_CACHE:   39505796

BTB TOTAL     ACCESS:   30231228  HIT:   27084386  MISS:    3146842  HIT %:    89.5908  MISS %:    10.4092   MPKI: 15.7342
BTB BRANCH_DIRECT_JUMP	ACCESS:    1998705  HIT:    1920221  MISS:      78484
BTB BRANCH_INDIRECT	ACCESS:    8495012  HIT:    7557989  MISS:     937023
BTB BRANCH_CONDITIONAL	ACCESS:   11359976  HIT:   11215254  MISS:     144722
BTB BRANCH_DIRECT_CALL	ACCESS:    3711340  HIT:    3545021  MISS:     166319
BTB BRANCH_INDIRECT_CALL	ACCESS:     476971  HIT:     364345  MISS:     112626
BTB BRANCH_RETURN	ACCESS:    4189224  HIT:    2481556  MISS:    1707668
BTB BRANCH_OTHER ACCESS:          0  HIT:          0  MISS:          0

L2C TOTAL     ACCESS:    3910945  HIT:    3087525  MISS:     823420  HIT %:    78.9458  MISS %:    21.0542   MPKI: 4.1171
L2C LOAD      ACCESS:    2342637  HIT:    1888198  MISS:     454439  HIT %:    80.6014  MISS %:    19.3986   MPKI: 2.27219
L2C DATA LOAD MPKI: 0.745835
L2C INSTRUCTION LOAD MPKI: 1.52636
L2C RFO       ACCESS:     369397  HIT:     128485  MISS:     240912  HIT %:    34.7824  MISS %:    65.2176   MPKI: 1.20456
L2C PREFETCH  ACCESS:     383774  HIT:     275673  MISS:     108101  HIT %:    71.8321  MISS %:    28.1679   MPKI: 0.540505
AGUS PREFETCH L1 MISS: 0
L2C DATA PREFETCH MPKI: 0.540505
L2C INSTRUCTION PREFETCH MPKI: 0
L2C WRITEBACK ACCESS:     479710  HIT:     466983  MISS:      12727  HIT %:    97.3469  MISS %:    2.65306   MPKI: 0.063635
L2C LOAD TRANSLATION ACCESS:      31866  HIT:      25468  MISS:       6398  HIT %:    79.9222  MISS %:    20.0778   MPKI: 0.03199
L2C TRANSLATION FROM L1D PREFETCHER ACCESS:     303561  HIT:     302718  MISS:        843  HIT %:    99.7223  MISS %:   0.277704   MPKI: 0.004215
L2C PREFETCH  REQUESTED:          0  ISSUED:          0  USEFUL:       6065  USELESS:     102902
L2C USEFUL LOAD PREFETCHES:       6065 PREFETCH ISSUED TO LOWER LEVEL:     108101  ACCURACY: 5.61049
L2C TIMELY PREFETCHES:       6065 LATE PREFETCHES: 0 DROPPED PREFETCHES: 0
L2C PREFETCHES SAME FILL-ORIGIN LEVEL: 0 DIFFERENT FILL-ORIGIN LEVEL: 0
L2C AVERAGE MISS LATENCY: 60.6478 cycles
L2C RQ	ACCESS:    3047503	FORWARD:          0	MERGED:          0	TO_CACHE:    3047461
L2C WQ	ACCESS:     479710	FORWARD:         42	MERGED:          0	TO_CACHE:     479710
L2C PQ	ACCESS:     383774	FORWARD:          0	MERGED:          0	TO_CACHE:     383774

L2C Instructions Evicting Data 191015
L2C Translations Evicting Data 4405
L2C Data Evicting Data 307234
L2C Instructions Evicting Instructions 111600
L2C Translations Evicting Instructions 2721
L2C Data Evicting Instructions 186574
L2C Instructions Evicting Translations 2657
L2C Translations Evicting Translations 115
L2C Data Evicting Translations 4372
L2C Dense regions hint from L2: 0
PSCL5 TOTAL     ACCESS:     325668  HIT:     325668  MISS:          0  HIT %:        100  MISS %:          0   MPKI: 0
PSCL5 LOAD TRANSLATION ACCESS:      31004  HIT:      31004  MISS:          0  HIT %:        100  MISS %:          0   MPKI: 0
PSCL5 TRANSLATION FROM L1D PREFETCHER ACCESS:     294664  HIT:     294664  MISS:          0  HIT %:        100  MISS %:          0   MPKI: 0
PSCL5 PREFETCH  REQUESTED:          0  ISSUED:          0  USEFUL:          0  USELESS:          0
PSCL5 USEFUL LOAD PREFETCHES:          0 PREFETCH ISSUED TO LOWER LEVEL:          0  ACCURACY: -nan
PSCL5 TIMELY PREFETCHES:          0 LATE PREFETCHES: 0 DROPPED PREFETCHES: 0
PSCL5 PREFETCHES SAME FILL-ORIGIN LEVEL: 0 DIFFERENT FILL-ORIGIN LEVEL: 0

PSCL4 TOTAL     ACCESS:     325668  HIT:     325668  MISS:          0  HIT %:        100  MISS %:          0   MPKI: 0
PSCL4 LOAD TRANSLATION ACCESS:      31004  HIT:      31004  MISS:          0  HIT %:        100  MISS %:          0   MPKI: 0
PSCL4 TRANSLATION FROM L1D PREFETCHER ACCESS:     294664  HIT:     294664  MISS:          0  HIT %:        100  MISS %:          0   MPKI: 0
PSCL4 PREFETCH  REQUESTED:          0  ISSUED:          0  USEFUL:          0  USELESS:          0
PSCL4 USEFUL LOAD PREFETCHES:          0 PREFETCH ISSUED TO LOWER LEVEL:          0  ACCURACY: -nan
PSCL4 TIMELY PREFETCHES:          0 LATE PREFETCHES: 0 DROPPED PREFETCHES: 0
PSCL4 PREFETCHES SAME FILL-ORIGIN LEVEL: 0 DIFFERENT FILL-ORIGIN LEVEL: 0

PSCL3 TOTAL     ACCESS:     325287  HIT:     325247  MISS:         40  HIT %:    99.9877  MISS %:  0.0122968   MPKI: 0.0002
PSCL3 LOAD TRANSLATION ACCESS:      30943  HIT:      30903  MISS:         40  HIT %:    99.8707  MISS %:    0.12927   MPKI: 0.0002
PSCL3 TRANSLATION FROM L1D PREFETCHER ACCESS:     294344  HIT:     294344  MISS:          0  HIT %:        100  MISS %:          0   MPKI: 0
PSCL3 PREFETCH  REQUESTED:          0  ISSUED:          0  USEFUL:          0  USELESS:          0
PSCL3 USEFUL LOAD PREFETCHES:          0 PREFETCH ISSUED TO LOWER LEVEL:          0  ACCURACY: -nan
PSCL3 TIMELY PREFETCHES:          0 LATE PREFETCHES: 0 DROPPED PREFETCHES: 0
PSCL3 PREFETCHES SAME FILL-ORIGIN LEVEL: 0 DIFFERENT FILL-ORIGIN LEVEL: 0

PSCL2 TOTAL     ACCESS:     249891  HIT:     249061  MISS:        830  HIT %:    99.6679  MISS %:   0.332145   MPKI: 0.00415
PSCL2 LOAD TRANSLATION ACCESS:      31009  HIT:      30179  MISS:        830  HIT %:    97.3234  MISS %:    2.67664   MPKI: 0.00415
PSCL2 TRANSLATION FROM L1D PREFETCHER ACCESS:     218882  HIT:     218882  MISS:          0  HIT %:        100  MISS %:          0   MPKI: 0
PSCL2 PREFETCH  REQUESTED:          0  ISSUED:          0  USEFUL:          0  USELESS:          0
PSCL2 USEFUL LOAD PREFETCHES:          0 PREFETCH ISSUED TO LOWER LEVEL:          0  ACCURACY: -nan
PSCL2 TIMELY PREFETCHES:          0 LATE PREFETCHES: 0 DROPPED PREFETCHES: 0
PSCL2 PREFETCHES SAME FILL-ORIGIN LEVEL: 0 DIFFERENT FILL-ORIGIN LEVEL: 0

LLC TOTAL     ACCESS:    1078417  HIT:     882928  MISS:     195489  HIT %:    81.8726  MISS %:    18.1274   MPKI: 0.977445
LLC LOAD      ACCESS:     454439  HIT:     406988  MISS:      47451  HIT %:    89.5583  MISS %:    10.4417   MPKI: 0.237255
LLC RFO       ACCESS:     240912  HIT:     116555  MISS:     124357  HIT %:    48.3807  MISS %:    51.6193   MPKI: 0.621785
LLC PREFETCH  ACCESS:     108101  HIT:      87246  MISS:      20855  HIT %:    80.7079  MISS %:    19.2921   MPKI: 0.104275
AGUS PREFETCH L1 MISS: 0
LLC WRITEBACK ACCESS:     267724  HIT:     265936  MISS:       1788  HIT %:    99.3321  MISS %:   0.667852   MPKI: 0.00894
LLC LOAD TRANSLATION ACCESS:       6398  HIT:       5381  MISS:       1017  HIT %:    84.1044  MISS %:    15.8956   MPKI: 0.005085
LLC TRANSLATION FROM L1D PREFETCHER ACCESS:        843  HIT:        822  MISS:         21  HIT %:    97.5089  MISS %:     2.4911   MPKI: 0.000105
LLC PREFETCH  REQUESTED:          0  ISSUED:          0  USEFUL:       1030  USELESS:      20124
LLC USEFUL LOAD PREFETCHES:       1030 PREFETCH ISSUED TO LOWER LEVEL:      20855  ACCURACY: 4.93886
LLC TIMELY PREFETCHES:       1030 LATE PREFETCHES: 0 DROPPED PREFETCHES: 0
LLC PREFETCHES SAME FILL-ORIGIN LEVEL: 0 DIFFERENT FILL-ORIGIN LEVEL: 0
LLC AVERAGE MISS LATENCY: 130.87 cycles
LLC RQ	ACCESS:     702592	FORWARD:          0	MERGED:          0	TO_CACHE:     702592
LLC WQ	ACCESS:     267724	FORWARD:          0	MERGED:          0	TO_CACHE:     267724
LLC PQ	ACCESS:     108101	FORWARD:          0	MERGED:          0	TO_CACHE:     108101

LLC Dense regions hint to LLC: 0

RAW hits: 4836889
Loads Generated: 50473486
Loads sent to L1D: 45636600
Stores Generated: 26301595
Stores sent to L1D: 26301615
Major fault: 0 Minor fault: 3152
Allocated PAGES: 3152
ucb ended
-----------------------------------------------------------------------------------------------------------------------------------------------------------------------------------------------------
Offsets elements: 1 -1 14 -13 -8589602588 8589602588 13 -8589602600 8589602656 -8589602656 -8589778118 175462 8589778051 11 8589778053 9 -8589778807 8589778807 -21 -8589778788 -8589606097 8589606098 16 4 -8589606088 8589606090 5 -2 -8589606090 8589606070 -8589606070 8589606091 -5 3 -8589606091 20 -4 2 -8589606094 8589606073 8589606069 -8589606093 8589606094 21 -8589602376 -176436 8589778747 67 -65 44 -43 63 -63 -8589602591 -55 -8589602601 -8589779319 176663 -8589778808 8589778808 -8589778790 8589778790 -75 73 -8589602655 8589602654 -48 48 -8589779345 8589779345 -73 18 -16 17 -8589778789 -8589606089 -8589778797 8589778797 8589778813 -8589601980 9135795 13649755 -13649650 -9313569 9313569 8580466001 54 8589606071 -19 19 8589606093 75 71 -71 -8589602584 8589602600 56 8589602584 -8589778736 8589778738 -7 8589602636 -66 -8589779279 8589779278 68 8589602590 10 -9 8589602591 -8589778054 8589778118 -56 8589606099 -20 -8589606071 -8589606092 -64 66 -8589606030 -8589602377 8589602376 8589602634 -8589778792 8589778758 55 8589778805 8589778810 -18 -74 -8589606019 -8589602358 8589602378 -172720 8589778787 -8589602636 47 -8589779344 8589779290 8589602585 8589602586 12 8589602593 8 -6 8589778809 -8589606096 8589606097 8589606089 -8589606069 -8589606035 -58 -8589606037 8589606095 -8589602321 -279 8589602635 -8589602635 -8589778757 176157 -176662 176662 -8589778791 8589778791 -17 -8589606075 -8589602316 8589602318 60 -8589778812 8589778757 8589779344 -69 15 -14 8589606092 -8589602308 8589602309 69 -68 51 -8589602637 -176791 170989 8589608402 176968 -278 172711 -72 -70 52 -50 8589602377 3433 -3438 8589602587 -8589606098 8589606077 3717 8589778742 72 -176663 511 8589778733 53 -52 8589602637 -8589778046 8589778062 70 -8589602378 -8589602599 -34 -8589608457 -170888 -181019 8589783320 22 8589602581 8589778786 -47 50 -51 8589602589 -175462 8589778054 8589602594 6 8589602595 8589602596 58 8589602598 -8589602652 -4877 4876 8589602599 -8589606531 8589606531 -8589779295 538 -25 -49 -8589606857 8589606857 45 -22 34 -61 -8589606446 4638 8589601808 27 -27 -8589601814 -6602 6602 8589601812 7 57 -54 23 25 39 -40 -8589778077 8589778080 38 26 -8589601865 8589601828 -8589600603 -175466 175463 -175503 175503 -175510 175513 -175513 8589776121 -8589600611 175510 -8589601866 559 -5781 5136 13037045 -2594720 -10442239 -5772 5128 13037082 936 9747510 -22790683 43 -11 396 -423 8589607060 -8589606858 2423 8589604434 -8589607039 13042210 9748446 -9748446 -13037082 13038018 -9747510 8576563894 -8589601913 10442325 -10442324 9135965 1306360 12343191 -22790678 22790667 -22790672 428 -385 2599 8589606858 -8589601911 9120990 -9125957 10436676 168 -1310888 8580480922 -8580480921 235 -9126337 5112 9120989 9125956 236 -236 -235 -9126102 8589607025 -8589601827 8589601829 -8589601828 1258 8589600572 37 8589601865 -8589606685 -65671 8589672356 -8589672356 71740 8589600582 -10 -30 32 -8589607535 8589607534 8589606076 8589606072 -33 -8589602343 -8589778781 8589778812 -24 -41 -8589776117 8589776149 -8589601824 8589601847 -8589779378 8589779376 8589601862 -3 -8589779374 8589779372 -31 -8589607099 8570503393 19103632 -8589779589 8589779589 -19098049 19098049 -8589602328 8589602324 -8589607051 8589607055 -19096851 -8560062726 12343204 8566816369 -8579159573 -10442751 10442751 8589602323 -19096847 19096849 -8589606847 8589606847 -85 -5137 13042178 -2594717 -22785443 8589601817 -8589672324 8589672358 8589606685 -8589672358 8589672324 -8589601836 8589601811 -176435 176435 8589602330 46 -45 -29 -8589607098 5583 -8570681540 177260 8589602327 -8589607053 8589607057 -8589779591 8589779591 -19096917 -8570505414 24655467 -24655467 -1869511 -22785956 8589602326 -19096914 19096915 -8589606849 8589606849 6074 8589600602 -44 -8589601822 -5134 24660173 -24654954 22785443 8566816420 -42 -8576564851 8576564852 -38 -8566816379 8566816422 -39 -8589778083 -8589600601 8589600604 -8589776090 8589776090 -8589601856 8589601859 -8589778805 -8589606099 -8589606052 35 -35 8589602375 -8589778814 -8589601864 -8589601863 8589601864 8589601872 -8589672326 64782 5675 8589601804 -8589601807 -6483 -65132 13107322 -13042576 6869 8589600610 -8589672225 71614 -6868 381 6488 13035686 -13035686 8589672159 -8589606624 8589606673 -53 -8589778787 -8570675957 8570681540 -8570504279 -4727 8589607050 -8589779584 8589779584 -19096190 -8557467965 8576564151 -8566816364 -22785955 8589602320 -19096188 19096189 -8589606843 8589606841 29 -8589601947 -5138 13042879 -13036391 8589600601 -8589600597 -1354 -70187 71536 13036391 -13043260 8589600544 -8589600544 -8589672146 71537 8589600545 -4726 -19097389 -8557466765 9747786 13038170 8576564150 -19097386 19097387 -8589606842 8589606842 -26 -8576564183 8576564206 -8589672134 -6487 -381 6875 -1349 13037741 -13036392 -71536 8589672146 -8589600609 8589600542 -8 8589606096 8589606074 -8589606073 -8589778755 -8589600599 -1261 8589601863 -8589672111 8589672110 -8589606903 374 -1001 8589607529 -8589600550 8589600549 -8589602606 -176689 -8589779317 176661 -8589778793 65 41 -46 61 -60 -8589602594 8589606100 -8589606087 -62 62 -8589602634 8589602601 8589779319 -8589602639 8589779275 8589778788 -8589606077 -15 8589606068 -8589606074 8589606022 8589602307 -8589778743 8589778794 6080 -181020 8589783328 172709 8589602306 8589778811 8589602639 -8589602607 539 -8589778810 8589602308 -8589606020 -172719 -8589602640 -177069 8589779391 8589778789 -8589606018 8589606020 -8589602307 -3717 8589606034 -174940 8589783318 78 -77 -8589779268 8589602579 -8589602300 8589602301 77 8589602582 8589778046 -8589606100 8589606102 8589602640 -8589606102 -176152 49 -8589778102 3718 8589778750 -59 8589778806 -8589778794 -8589602362 8589602315 -8589606028 -172723 172719 8589606033 59 -8589602641 -69385 8589671985 8589602655 -8589608466 8589608413 -8589778753 -18879978 18879984 -18880029 -31713 156 36742 -36838 -8570760350 8570760316 -8570696726 8570696699 -8570690624 8570690619 36904 95 -124 18911643 -18911516 18911516 -8589602747 8589602746 -18911612 -28 -8589602749 8570691101 18911649 -8589602580 -8589602582 -8589778809 8589606011 -8589606016 8589606015 80 -78 -8589602299 8589602300 76 -8589778737 -176661 -81 8589606084 -3437 -172715 -8589778811 -8589602654 8589606075 8589602295 83 -82 81 -80 176155 8589602641 8589602564 87 -91 -8589602287 8589602288 90 -89 -8589778724 8589783342 -8589606076 8589602287 -8589778722 8589778723 88 -88 33 -12 8589606088 -90 -8589602289 -176157 -8589779426 176791 -5803 8589608444 -32 86 8589779346 8589602286 89 -87 -8589602642 -8589608409 8589608457 176969 8589783301 40 8589602560 8589602562 93 -92 8589602565 8589602570 -8589778721 8589602571 8589602573 -8589778035 8589602575 8589602576 79 42 3438 8589602583 -8589778720 -76 -8589602566 8589602567 -8589778723 -86 -8589606068 -8589602288 -8589602568 8589602569 -176690 176690 -8589606078 -8589602643 -95 -8589779250 8589602561 8589602563 36 8589602568 8589778030 -67 -97 -8589602560 -36 -8589602565 -8589779290 8589778028 31 30 28 8589778035 8589606078 -79 -8589606015 8589606016 8589778798 -8589606004 -8589602290 -8589606005 278 8589602356 -8589778741 8589602566 -8589779255 8589602580 -8589608392 8570696711 158 -8570691232 8570691230 -129 -8570691098 8570691132 96 -8570691231 8570691102 -8570688041 -3057 8570691100 -8570760318 8589671969 -8589608382 8570728393 -31737 8570690685 18911653 -18911524 -8570696868 -8570690782 -18911651 8589602592 -8589778056 -8589602597 -8589779296 176689 8589779291 -8589607476 8589607532 -57 -8589606476 -8589778758 -8589606906 8589606855 -23 -8589606450 8589606448 -8589601857 8589601835 8589601875 -8589601875 8589601810 8589778082 -8589601830 8589601840 -8589600578 -1262 -174229 175488 -175528 175537 8589600584 -8589600586 -175535 5781 13036400 -13036959 85 10442239 -10441680 24655039 -11617957 202 220 -2524 13039606 11617957 1869511 8564946873 -8589601912 10442324 -1306358 1306359 385 -396 -2424 -8589601910 1310720 -10431707 -4969 9126192 1310887 -9126101 144 8580480923 -8589607026 8589607026 
Potential of Offsets elements: 5719.85 6270.11 555.319 870.319 73.3191 28.3191 932.319 486.319 3766.32 3636.32 828.319 102.319 28.3191 65.3191 28.3191 1037.32 1103.32 962.319 3723.32 28.3191 228.319 352.319 1579.32 864.319 1099.32 1439.32 342.319 5118.32 830.319 28.3191 262.319 98.3191 216.319 523.319 277.319 1015.32 939.319 5378.32 680.319 28.3191 365.319 860.319 250.319 2206.32 967.319 34.3191 291.319 739.319 429.319 411.319 349.319 28.3191 478.319 28.3191 1693.32 509.319 31.3191 57.3191 739.319 903.319 145.319 92.3191 28.3191 210.319 3720.32 2587.32 492.319 528.319 288.319 353.319 1150.32 151.319 391.319 275.319 82.3191 28.3191 28.3191 28.3191 133.319 28.3191 28.3191 28.3191 28.3191 28.3191 28.3191 28.3191 58.3191 28.3191 327.319 459.319 28.3191 266.319 695.319 172.319 28.3191 28.3191 336.319 28.3191 28.3191 28.3191 497.319 28.3191 30.3191 28.3191 28.3191 30.3191 28.3191 197.319 484.319 28.3191 28.3191 28.3191 32.3191 28.3191 1253.32 28.3191 28.3191 28.3191 30.3191 28.3191 28.3191 28.3191 28.3191 28.3191 28.3191 40.3191 28.3191 28.3191 583.319 28.3191 28.3191 28.3191 28.3191 28.3191 28.3191 28.3191 267.319 28.3191 28.3191 28.3191 28.3191 169.319 28.3191 332.319 821.319 28.3191 28.3191 28.3191 28.3191 28.3191 203.319 33.3191 28.3191 28.3191 28.3191 28.3191 28.3191 28.3191 28.3191 70.3191 28.3191 28.3191 28.3191 28.3191 831.319 28.3191 28.3191 28.3191 146.319 28.3191 28.3191 28.3191 28.3191 129.319 328.319 28.3191 28.3191 28.3191 28.3191 28.3191 28.3191 28.3191 28.3191 28.3191 28.3191 28.3191 28.3191 28.3191 29.3191 28.3191 44.3191 72.3191 28.3191 28.3191 28.3191 28.3191 28.3191 28.3191 28.3191 28.3191 28.3191 57.3191 28.3191 28.3191 37.3191 40.3191 28.3191 28.3191 28.3191 28.3191 28.3191 28.3191 32.3191 28.3191 28.3191 28.3191 28.3191 273.319 28.3191 28.3191 54.3191 532.319 476.319 28.3191 28.3191 28.3191 28.3191 198.319 28.3191 28.3191 28.3191 28.3191 28.3191 28.3191 28.3191 28.3191 28.3191 28.3191 28.3191 32.3191 30.3191 32.3191 28.3191 28.3191 28.3191 85.3191 30.3191 60.3191 28.3191 28.3191 28.3191 32.3191 28.3191 28.3191 28.3191 28.3191 28.3191 853.319 30.3191 32.3191 40.3191 35.3191 46.3191 114.319 28.3191 28.3191 195.319 28.3191 28.3191 28.3191 28.3191 28.3191 28.3191 28.3191 28.3191 28.3191 28.3191 28.3191 28.3191 28.3191 28.3191 28.3191 28.3191 28.3191 28.3191 28.3191 28.3191 28.3191 28.3191 28.3191 28.3191 28.3191 28.3191 35.3191 108.319 258.319 31.3191 30.3191 37.3191 28.3191 33.3191 28.3191 28.3191 28.3191 28.3191 28.3191 28.3191 28.3191 28.3191 28.3191 28.3191 28.3191 28.3191 28.3191 28.3191 28.3191 76.3191 28.3191 28.3191 46.3191 28.3191 28.3191 52.3191 28.3191 28.3191 28.3191 28.3191 28.3191 28.3191 28.3191 28.3191 33.3191 28.3191 31.3191 28.3191 28.3191 135.319 61.3191 28.3191 28.3191 28.3191 28.3191 78.3191 28.3191 28.3191 28.3191 68.3191 28.3191 28.3191 28.3191 28.3191 28.3191 28.3191 28.3191 410.319 688.319 244.319 28.3191 28.3191 64.3191 144.319 82.3191 28.3191 121.319 39.3191 604.319 285.319 28.3191 28.3191 28.3191 89.3191 28.3191 28.3191 198.319 3376.32 54.3191 124.319 224.319 165.319 28.3191 28.3191 28.3191 28.3191 28.3191 28.3191 28.3191 28.3191 28.3191 28.3191 28.3191 28.3191 28.3191 28.3191 28.3191 28.3191 28.3191 28.3191 28.3191 28.3191 31.3191 28.3191 28.3191 28.3191 28.3191 28.3191 28.3191 28.3191 28.3191 28.3191 171.319 28.3191 28.3191 28.3191 28.3191 28.3191 28.3191 28.3191 28.3191 28.3191 28.3191 28.3191 28.3191 28.3191 28.3191 28.3191 28.3191 28.3191 28.3191 28.3191 28.3191 28.3191 28.3191 28.3191 28.3191 28.3191 28.3191 28.3191 28.3191 28.3191 28.3191 28.3191 28.3191 28.3191 28.3191 28.3191 28.3191 28.3191 28.3191 28.3191 28.3191 28.3191 28.3191 153.319 28.3191 28.3191 30.3191 28.3191 28.3191 28.3191 28.3191 28.3191 28.3191 28.3191 28.3191 28.3191 28.3191 100.319 73.3191 28.3191 28.3191 28.3191 28.3191 28.3191 28.3191 28.3191 29.3191 28.3191 28.3191 28.3191 28.3191 28.3191 28.3191 38.3191 28.3191 28.3191 28.3191 28.3191 28.3191 28.3191 28.3191 28.3191 28.3191 28.3191 28.3191 28.3191 28.3191 28.3191 28.3191 28.3191 28.3191 28.3191 28.3191 28.3191 28.3191 28.3191 28.3191 28.3191 28.3191 28.3191 28.3191 28.3191 28.3191 28.3191 28.3191 32.3191 28.3191 28.3191 28.3191 28.3191 28.3191 28.3191 28.3191 28.3191 28.3191 28.3191 28.3191 28.3191 28.3191 28.3191 28.3191 28.3191 28.3191 28.3191 28.3191 28.3191 28.3191 28.3191 28.3191 28.3191 28.3191 28.3191 891.319 28.3191 28.3191 28.3191 28.3191 28.3191 28.3191 28.3191 28.3191 28.3191 28.3191 28.3191 28.3191 28.3191 520.319 164.319 539.319 181.319 72.3191 28.3191 28.3191 67.3191 28.3191 28.3191 28.3191 28.3191 28.3191 28.3191 28.3191 28.3191 28.3191 81.3191 212.319 28.3191 86.3191 527.319 305.319 343.319 1957.32 373.319 28.3191 101.319 170.319 218.319 332.319 329.319 540.319 508.319 28.3191 28.3191 94.3191 28.3191 295.319 68.3191 255.319 205.319 40.3191 44.3191 226.319 28.3191 28.3191 28.3191 34.3191 28.3191 133.319 28.3191 196.319 28.3191 319.319 28.3191 28.3191 59.3191 1073.32 28.3191 28.3191 46.3191 101.319 62.3191 119.319 28.3191 28.3191 28.3191 28.3191 976.319 620.319 28.3191 29.3191 32.3191 28.3191 323.319 375.319 28.3191 28.3191 115.319 28.3191 28.3191 619.319 133.319 28.3191 28.3191 28.3191 28.3191 460.319 31.3191 28.3191 28.3191 28.3191 67.3191 39.3191 113.319 299.319 28.3191 28.3191 28.3191 3395.32 28.3191 28.3191 28.3191 28.3191 29.3191 28.3191 28.3191 28.3191 28.3191 28.3191 28.3191 28.3191 28.3191 28.3191 28.3191 28.3191 28.3191 28.3191 28.3191 28.3191 28.3191 28.3191 28.3191 28.3191 28.3191 240.319 28.3191 28.3191 28.3191 287.319 396.319 432.319 157.319 190.319 235.319 29.3191 28.3191 28.3191 28.3191 70.3191 28.3191 28.3191 28.3191 64.3191 28.3191 50.3191 131.319 28.3191 28.3191 28.3191 43.3191 28.3191 68.3191 28.3191 28.3191 28.3191 28.3191 28.3191 28.3191 28.3191 28.3191 28.3191 28.3191 28.3191 28.3191 28.3191 28.3191 28.3191 28.3191 28.3191 422.319 716.319 1369.32 188.319 28.3191 28.3191 32.3191 28.3191 28.3191 28.3191 28.3191 831.319 28.3191 29.3191 28.3191 28.3191 28.3191 28.3191 28.3191 30.3191 28.3191 28.3191 278.319 28.3191 28.3191 33.3191 31.3191 28.3191 28.3191 28.3191 232.319 228.319 49.3191 226.319 410.319 28.3191 235.319 189.319 403.319 28.3191 28.3191 28.3191 28.3191 28.3191 28.3191 120.319 68.3191 1001.32 28.3191 28.3191 437.319 55.3191 28.3191 28.3191 28.3191 28.3191 28.3191 28.3191 28.3191 35.3191 143.319 28.3191 28.3191 68.3191 28.3191 123.319 28.3191 64.3191 202.319 320.319 32.3191 130.319 28.3191 28.3191 28.3191 28.3191 121.319 47.3191 88.3191 178.319 28.3191 74.3191 28.3191 58.3191 193.319 28.3191 28.3191 28.3191 28.3191 28.3191 28.3191 28.3191 28.3191 28.3191 44.3191 28.3191 28.3191 28.3191 28.3191 28.3191 28.3191 28.3191 28.3191 28.3191 28.3191 28.3191 73.3191 28.3191 28.3191 28.3191 28.3191 28.3191 77.3191 28.3191 28.3191 52.3191 28.3191 28.3191 226.319 28.3191 96.3191 28.3191 28.3191 28.3191 32.3191 28.3191 77.3191 54.3191 100.319 198.319 28.3191 28.3191 28.3191 28.3191 28.3191 86.3191 28.3191 28.3191 28.3191 28.3191 28.3191 28.3191 28.3191 28.3191 28.3191 28.3191 28.3191 28.3191 28.3191 28.3191 28.3191 44.3191 35.3191 28.3191 28.3191 28.3191 28.3191 28.3191 28.3191 28.3191 28.3191 28.3191 35.3191 28.3191 33.3191 28.3191 28.3191 28.3191 28.3191 28.3191 28.3191 33.3191 149.319 28.3191 28.3191 28.3191 
rewards of Offsets elements: 5719 6270 527 842 45 0 904 458 3738 3608 800 74 0 37 0 1009 1075 934 3695 0 200 324 1551 836 1071 1411 314 5090 802 0 234 70 188 495 249 987 911 5350 652 0 337 832 222 2178 939 6 263 711 401 383 321 0 450 0 1665 481 3 29 711 875 117 64 0 182 3692 2559 464 500 260 325 1122 123 363 247 54 0 0 0 105 0 0 0 0 0 0 0 30 0 299 431 0 238 667 144 0 0 308 0 0 0 469 0 2 0 0 2 0 169 456 0 0 0 4 0 1225 0 0 0 2 0 0 0 0 0 0 12 0 0 555 0 0 0 0 0 0 0 239 0 0 0 0 141 0 304 793 0 0 0 0 0 175 5 0 0 0 0 0 0 0 42 0 0 0 0 803 0 0 0 118 0 0 0 0 101 300 0 0 0 0 0 0 0 0 0 0 0 0 0 1 0 16 44 0 0 0 0 0 0 0 0 0 29 0 0 9 12 0 0 0 0 0 0 4 0 0 0 0 245 0 0 26 504 448 0 0 0 0 170 0 0 0 0 0 0 0 0 0 0 0 4 2 4 0 0 0 57 2 32 0 0 0 4 0 0 0 0 0 825 2 4 12 7 18 86 0 0 167 0 0 0 0 0 0 0 0 0 0 0 0 0 0 0 0 0 0 0 0 0 0 0 0 0 0 7 80 230 3 2 9 0 5 0 0 0 0 0 0 0 0 0 0 0 0 0 0 0 48 0 0 18 0 0 24 0 0 0 0 0 0 0 0 5 0 3 0 0 107 33 0 0 0 0 50 0 0 0 40 0 0 0 0 0 0 0 382 660 216 0 0 36 116 54 0 93 11 576 257 0 0 0 61 0 0 170 3348 26 96 196 137 0 0 0 0 0 0 0 0 0 0 0 0 0 0 0 0 0 0 0 0 3 0 0 0 0 0 0 0 0 0 143 0 0 0 0 0 0 0 0 0 0 0 0 0 0 0 0 0 0 0 0 0 0 0 0 0 0 0 0 0 0 0 0 0 0 0 0 0 0 0 0 0 0 125 0 0 2 0 0 0 0 0 0 0 0 0 0 72 45 0 0 0 0 0 0 0 1 0 0 0 0 0 0 10 0 0 0 0 0 0 0 0 0 0 0 0 0 0 0 0 0 0 0 0 0 0 0 0 0 0 0 0 0 0 0 4 0 0 0 0 0 0 0 0 0 0 0 0 0 0 0 0 0 0 0 0 0 0 0 0 0 0 863 0 0 0 0 0 0 0 0 0 0 0 0 0 492 136 511 153 44 0 0 39 0 0 0 0 0 0 0 0 0 53 184 0 58 499 277 315 1929 345 0 73 142 190 304 301 512 480 0 0 66 0 267 40 227 177 12 16 198 0 0 0 6 0 105 0 168 0 291 0 0 31 1045 0 0 18 73 34 91 0 0 0 0 948 592 0 1 4 0 295 347 0 0 87 0 0 591 105 0 0 0 0 432 3 0 0 0 39 11 85 271 0 0 0 3367 0 0 0 0 1 0 0 0 0 0 0 0 0 0 0 0 0 0 0 0 0 0 0 0 0 212 0 0 0 259 368 404 129 162 207 1 0 0 0 42 0 0 0 36 0 22 103 0 0 0 15 0 40 0 0 0 0 0 0 0 0 0 0 0 0 0 0 0 0 0 394 688 1341 160 0 0 4 0 0 0 0 803 0 1 0 0 0 0 0 2 0 0 250 0 0 5 3 0 0 0 204 200 21 198 382 0 207 161 375 0 0 0 0 0 0 92 40 973 0 0 409 27 0 0 0 0 0 0 0 7 115 0 0 40 0 95 0 36 174 292 4 102 0 0 0 0 93 19 60 150 0 46 0 30 165 0 0 0 0 0 0 0 0 0 16 0 0 0 0 0 0 0 0 0 0 0 45 0 0 0 0 0 49 0 0 24 0 0 198 0 68 0 0 0 4 0 49 26 72 170 0 0 0 0 0 58 0 0 0 0 0 0 0 0 0 0 0 0 0 0 0 16 7 0 0 0 0 0 0 0 0 0 7 0 5 0 0 0 0 0 0 5 121 0 0 0 Printing Sanity3
offset_index value902
offset list size902
reward size902
potential size902
-----------------------------------------------------------------------------------------------------------------------------------------------------------------------------------------------------

DRAM Statistics
 CHANNEL 0
 RQ ROW_BUFFER_HIT:      88668  ROW_BUFFER_MISS:     105032
 DBUS_CONGESTED:        191
 WQ ROW_BUFFER_HIT:      22305  ROW_BUFFER_MISS:     106542  FULL:          0

 AVG_CONGESTED_CYCLE: 5
 All warmup complete: 2
Channel 0 Bank busy for read cycles: 0
Channel 0 Bank busy for write cycles: 0
Channel 0
Rank 0
0banks busy for read cycles: 292279991
0banks busy for write cycles: 49587
1banks busy for read cycles: 9779741
1banks busy for write cycles: 6641413
2banks busy for read cycles: 1781113
2banks busy for write cycles: 1591572
3banks busy for read cycles: 485020
3banks busy for write cycles: 474803
4banks busy for read cycles: 145921
4banks busy for write cycles: 215338
5banks busy for read cycles: 89491
5banks busy for write cycles: 132836
6banks busy for read cycles: 98460
6banks busy for write cycles: 119881
7banks busy for read cycles: 136298
7banks busy for write cycles: 163397
8banks busy for read cycles: 353181
8banks busy for write cycles: 585690

CPU 0 Branch Prediction Accuracy: 99.6381% MPKI: 0.661605 Average ROB Occupancy at Mispredict: 23.4201
Branch types
NOT_BRANCH: 163436879 81.7184%
BRANCH_DIRECT_JUMP: 1998705 0.999352%
BRANCH_INDIRECT: 8495012 4.24751%
BRANCH_CONDITIONAL: 17691516 8.84576%
BRANCH_DIRECT_CALL: 3711340 1.85567%
BRANCH_INDIRECT_CALL: 476971 0.238485%
BRANCH_RETURN: 4189224 2.09461%
BRANCH_OTHER: 0 0%

DRAM PAGES: 1048576
Allocated PAGES: 3152
