
*** ChampSim Multicore Out-of-Order Simulator ***

Warmup Instructions: 50000000
Simulation Instructions: 200000000
Number of CPUs: 1
LLC sets: 2048
LLC ways: 16
Off-chip DRAM Size: 4096 MB Channels: 1 Width: 64-bit Data Rate: 6400 MT/s
CPU 0 runs traces/spec2k17/server_038.champsimtrace.xz
.xz
BTB has LRU replacement policy
ITLB has LRU replacement policy
DTLB has LRU replacement policy
STLB has LRU replacement policy
L1I has LRU replacement policy
L1D has LRU replacement policy
Initialize SRRIP state for L2C
Initialize DRRIP state for LLC
Offsets elements: 
Potential of Offsets elements: 
rewards of Offsets elements: 
Printing Sanity1
offset list size2083
Offsets elements: 
Potential of Offsets elements: 
rewards of Offsets elements: 278 1193 1387 0 0 478 1165 761 0 0 0 1034 0 1364 894 0 260 562 0 0 0 0 0 40 0 0 0 0 0 0 20 7 0 1430 1 0 0 0 0 78 0 0 0 0 0 40 12 0 0 0 0 24 12 0 256 0 0 0 7 0 0 0 11 0 0 11 81 12 0 6 0 187 0 0 2 17 19 0 0 9 0 8 0 1 0 0 0 0 18 0 137 0 0 208 0 0 0 14 0 0 0 0 280 0 0 0 18 612 204 0 0 4 90 0 0 0 6 161 0 0 0 0 0 0 0 0 0 0 0 772 0 0 272 103 802 0 0 171 147 0 0 0 0 0 219 0 0 0 0 0 0 0 0 0 0 0 0 0 0 0 0 0 0 0 0 20 1 0 45 0 0 0 8 0 0 4 0 0 0 0 0 0 0 0 0 0 313 0 0 0 0 0 0 0 0 0 0 25 14 59 19 0 0 0 0 0 0 0 0 8 7 0 0 0 0 0 0 0 170 40 6 0 0 0 0 71 3 0 0 0 0 8 0 0 0 0 0 0 0 0 0 0 0 0 0 0 0 20 0 0 62 0 0 0 0 0 0 0 0 0 81 0 0 0 0 0 0 32 0 0 0 0 58 0 0 0 456 0 0 0 0 0 103 34 0 0 0 476 0 0 0 0 0 0 0 0 0 0 0 0 0 0 0 0 0 0 0 0 0 0 0 0 0 0 0 0 0 0 4 0 0 0 0 0 0 0 0 0 0 0 0 0 14 286 0 0 0 0 0 16 0 8 0 0 0 0 0 0 0 0 0 0 0 0 0 0 0 0 0 0 0 0 0 0 0 0 0 0 73 0 204 0 0 0 0 0 0 0 0 0 0 0 0 0 24 0 0 0 0 0 0 0 0 0 0 0 0 0 0 0 0 0 0 0 0 0 0 0 0 8 0 0 0 192 0 0 0 0 0 0 25 0 0 59 0 0 0 164 0 0 0 0 0 0 0 0 71 0 3 2 0 0 0 0 0 0 0 8 0 0 0 0 0 0 0 0 0 0 0 7 0 35 0 34 88 4 0 0 0 0 0 0 0 0 0 0 6 0 0 0 0 14 0 4 0 0 0 0 0 0 0 0 0 0 0 0 0 0 0 18 12 22 0 0 333 378 24 273 0 0 0 0 0 0 0 0 0 0 0 20 0 0 0 0 0 16 0 0 0 0 0 9 0 0 0 0 0 0 0 0 128 140 37 0 0 0 25 0 0 4 0 0 0 0 0 0 0 5 56 0 0 0 0 0 0 0 33 0 0 178 0 0 0 7 36 0 0 0 0 0 0 0 0 0 66 72 0 0 0 280 60 0 0 10 320 0 0 0 32 0 0 0 0 10 8 0 0 0 0 24 0 0 0 88 0 0 0 9 0 0 0 0 0 0 0 0 0 36 18 0 0 0 72 225 0 0 0 254 2 0 0 0 0 0 0 0 24 0 0 0 0 9 0 0 0 8 0 0 0 0 16 6 0 0 12 18 0 0 0 0 33 0 345 0 0 3 0 0 0 0 4 4 0 0 0 0 0 0 0 0 0 36 0 0 0 0 0 51 0 0 0 0 1 23 25 0 0 0 15 0 0 0 18 46 0 0 3 0 0 0 0 0 0 0 0 0 0 12 0 0 0 9 0 0 0 0 0 0 0 0 3 38 307 0 0 55 0 0 0 0 13 0 0 0 0 25 0 0 0 9 0 0 0 0 0 0 0 0 14 11 0 0 0 0 0 0 0 0 30 0 0 0 0 0 0 3 0 90 0 0 0 0 27 0 0 0 0 0 0 0 36 35 0 0 0 99 91 0 0 0 289 4 0 0 0 1 0 0 0 0 180 18 0 0 0 88 0 0 0 9 6 0 0 1 28 0 0 0 0 0 0 0 2 0 65 0 0 8 6 2 0 0 12 0 13 0 0 906 89 0 0 12 0 86 0 0 16 81 27 0 0 0 0 2 0 0 0 36 0 0 0 14 40 0 0 3 108 0 0 0 47 27 0 0 0 0 0 0 0 0 0 0 0 0 0 2 0 0 38 0 6 0 0 0 0 0 0 12 0 0 0 0 0 0 511 0 0 0 0 0 0 0 0 0 0 0 1 0 4 0 0 9 0 0 0 0 0 0 0 0 16 0 0 0 0 0 0 15 0 0 0 0 0 0 0 0 0 0 0 0 0 0 0 0 0 0 0 0 12 0 52 0 0 0 97 0 0 0 0 0 0 0 0 0 0 0 0 0 0 0 0 0 0 0 14 0 0 0 0 0 0 0 0 0 0 0 0 0 6 0 0 0 0 0 0 0 0 0 0 0 0 0 0 0 0 85 0 0 0 0 0 0 0 0 0 0 0 0 0 0 0 0 0 0 0 0 0 0 0 6 18 0 0 0 0 0 0 0 0 7 0 0 0 306 0 0 0 8 0 0 0 0 0 0 2 0 0 0 0 0 0 0 0 0 0 11 0 0 0 0 0 0 0 0 0 0 0 0 0 6 0 0 0 0 98 0 0 0 0 14 0 0 0 0 26 0 0 0 44 0 0 0 0 0 0 0 0 0 0 0 0 0 0 0 0 0 0 10 1 0 0 0 0 4 13 0 0 0 0 0 0 0 0 0 20 0 0 0 0 4 0 0 0 13 0 0 0 0 0 0 0 0 4 2 0 0 1 37 0 0 0 1 0 0 0 0 0 0 0 0 0 0 0 0 0 0 0 0 0 0 0 10 0 0 0 0 0 0 0 0 0 0 0 0 0 0 0 0 0 0 0 0 0 0 4 0 0 0 20 0 0 0 0 0 5 0 0 0 5 4 0 0 20 3 3 0 0 54 0 0 0 56 50 0 0 0 0 24 44 54 0 0 4 0 0 0 0 0 0 0 0 0 14 0 0 0 0 0 0 0 0 0 0 0 0 0 0 0 0 0 0 0 0 0 0 0 7 0 0 0 28 0 0 0 0 0 0 0 0 0 5 0 0 0 0 0 0 0 0 0 0 0 0 0 0 0 0 0 0 0 0 0 4 10 0 0 0 0 0 0 0 11 0 0 0 0 0 0 0 0 0 0 0 0 0 0 0 0 0 0 0 0 0 0 0 0 0 0 0 0 0 0 0 0 0 0 0 0 0 0 0 0 10 0 0 0 0 0 0 0 0 0 0 0 0 0 22 0 0 0 0 0 0 0 0 0 0 0 0 0 0 0 0 0 0 0 8 0 0 0 0 0 0 0 0 0 0 0 0 0 0 0 0 15 0 0 0 0 3 0 0 174 0 0 0 0 14 0 0 0 67 0 7 0 0 0 0 0 0 0 0 0 0 0 0 0 0 0 0 0 0 0 0 0 0 0 0 0 0 0 0 0 0 0 0 0 0 0 0 0 0 0 0 0 0 0 0 1 7 23 0 0 0 0 30 4 0 0 7 15 66 2 0 80 0 0 0 0 0 0 0 0 0 0 0 0 0 0 0 0 0 14 0 13 6 0 0 13 0 0 0 0 0 0 0 0 0 16 6 0 0 1 0 0 0 0 0 0 0 0 0 0 0 11 0 0 0 0 0 0 0 0 0 0 0 0 0 0 0 132 116 5 0 0 0 0 0 0 0 1 0 0 0 0 0 0 0 0 0 0 0 0 0 0 0 0 0 0 0 0 32 0 0 0 0 0 0 0 0 0 0 0 0 0 0 0 0 0 0 11 0 0 0 0 0 0 0 0 0 0 0 0 0 0 0 0 0 0 0 0 0 0 0 0 3 18 1 0 2 0 0 0 1 0 0 0 0 0 0 0 0 0 0 22 0 0 0 0 0 0 0 0 36 99 0 0 0 0 0 0 0 0 176 4 0 0 45 0 0 0 0 155 0 0 0 0 0 0 0 0 6 108 0 0 0 0 0 0 0 0 13 0 0 1 0 0 0 0 0 0 0 0 0 0 0 42 0 0 0 20 0 0 0 0 3 0 0 0 0 14 0 0 0 3 0 0 0 0 7 0 0 0 43 0 0 0 0 34 0 0 0 0 72 0 0 0 0 40 0 0 0 0 6 0 0 0 7 0 0 0 0 0 0 0 0 0 0 1 0 0 0 0 0 0 0 29 0 0 0 0 4 0 0 0 0 0 0 0 0 0 0 0 0 0 0 0 0 2 42 0 0 0 0 0 0 0 0 0 0 0 136 0 0 0 0 0 0 0 0 0 16 103 0 0 0 0 28 0 0 6 0 0 0 0 0 0 7 14 0 0 0 0 2 0 0 0 30 0 0 0 4 121 0 0 0 0 0 0 0 0 0 0 0 0 8 31 0 0 54 0 0 0 0 2 0 4 0 0 6 0 0 0 0 0 0 0 516 0 7 0 0 0 76 0 0 0 0 0 0 0 4 0 0 0 0 0 0 0 0 0 0 0 12 0 0 0 2 1 0 0 0 0 0 0 0 0 19 0 56 0 0 0 0 0 0 0 0 0 0 0 0 0 0 0 0 0 0 0 0 0 0 0 0 0 0 0 0 0 0 0 0 4 0 0 0 0 0 0 0 0 0 0 0 0 0 0 0 0 0 0 0 0 0 0 0 0 0 0 0 0 0 0 0 0 0 0 0 0 0 0 0 0 0 0 0 0 0 0 0 0 0 0 0 0 0 0 0 0 0 0 0 0 0 0 0 0 0 0 0 0 0 0 0 0 0 0 0 0 0 0 20 0 0 
Printing Sanity2
Heartbeat CPU 0 instructions: 10000000 cycles: 2807585 heartbeat IPC: 3.56178 cumulative IPC: 3.56178 (Simulation time: 0 hr 0 min 18 sec) 
Heartbeat CPU 0 instructions: 20000002 cycles: 5672331 heartbeat IPC: 3.49071 cumulative IPC: 3.52589 (Simulation time: 0 hr 0 min 36 sec) 
Heartbeat CPU 0 instructions: 30000003 cycles: 8537960 heartbeat IPC: 3.48964 cumulative IPC: 3.51372 (Simulation time: 0 hr 0 min 55 sec) 
Heartbeat CPU 0 instructions: 40000002 cycles: 11404398 heartbeat IPC: 3.48865 cumulative IPC: 3.50742 (Simulation time: 0 hr 1 min 13 sec) 
Heartbeat CPU 0 instructions: 50000001 cycles: 14270971 heartbeat IPC: 3.48849 cumulative IPC: 3.50362 (Simulation time: 0 hr 1 min 31 sec) 

Warmup complete CPU 0 instructions: 50000001 cycles: 14270971 (Simulation time: 0 hr 1 min 31 sec) 

Heartbeat CPU 0 instructions: 60000000 cycles: 34604130 heartbeat IPC: 0.491807 cumulative IPC: 0.491807 (Simulation time: 0 hr 2 min 4 sec) 
Heartbeat CPU 0 instructions: 70000000 cycles: 54730357 heartbeat IPC: 0.496864 cumulative IPC: 0.494323 (Simulation time: 0 hr 2 min 37 sec) 
Heartbeat CPU 0 instructions: 80000000 cycles: 74871387 heartbeat IPC: 0.496499 cumulative IPC: 0.495046 (Simulation time: 0 hr 3 min 11 sec) 
Heartbeat CPU 0 instructions: 90000001 cycles: 95013619 heartbeat IPC: 0.496469 cumulative IPC: 0.495401 (Simulation time: 0 hr 3 min 44 sec) 
Heartbeat CPU 0 instructions: 100000002 cycles: 115140443 heartbeat IPC: 0.496849 cumulative IPC: 0.49569 (Simulation time: 0 hr 4 min 18 sec) 
*** Reached end of trace for Core: 0 Repeating trace: traces/spec2k17/server_038.champsimtrace.xz
Heartbeat CPU 0 instructions: 110000000 cycles: 135406919 heartbeat IPC: 0.493426 cumulative IPC: 0.495311 (Simulation time: 0 hr 4 min 51 sec) 
Heartbeat CPU 0 instructions: 120000003 cycles: 155615373 heartbeat IPC: 0.494843 cumulative IPC: 0.495244 (Simulation time: 0 hr 5 min 24 sec) 
Heartbeat CPU 0 instructions: 130000001 cycles: 175762843 heartbeat IPC: 0.49634 cumulative IPC: 0.495381 (Simulation time: 0 hr 5 min 59 sec) 
Heartbeat CPU 0 instructions: 140000001 cycles: 195885513 heartbeat IPC: 0.496952 cumulative IPC: 0.495555 (Simulation time: 0 hr 6 min 32 sec) 
Heartbeat CPU 0 instructions: 150000002 cycles: 216030761 heartbeat IPC: 0.496395 cumulative IPC: 0.495639 (Simulation time: 0 hr 7 min 5 sec) 
Heartbeat CPU 0 instructions: 160000000 cycles: 236225093 heartbeat IPC: 0.495188 cumulative IPC: 0.495598 (Simulation time: 0 hr 7 min 39 sec) 
Heartbeat CPU 0 instructions: 170000002 cycles: 256317380 heartbeat IPC: 0.497704 cumulative IPC: 0.495773 (Simulation time: 0 hr 8 min 12 sec) 
Heartbeat CPU 0 instructions: 180000000 cycles: 276394041 heartbeat IPC: 0.498091 cumulative IPC: 0.49595 (Simulation time: 0 hr 8 min 45 sec) 
Heartbeat CPU 0 instructions: 190000002 cycles: 296492794 heartbeat IPC: 0.497543 cumulative IPC: 0.496064 (Simulation time: 0 hr 9 min 19 sec) 
Heartbeat CPU 0 instructions: 200000001 cycles: 316578342 heartbeat IPC: 0.49787 cumulative IPC: 0.496184 (Simulation time: 0 hr 9 min 52 sec) 
*** Reached end of trace for Core: 0 Repeating trace: traces/spec2k17/server_038.champsimtrace.xz
Heartbeat CPU 0 instructions: 210000003 cycles: 336800751 heartbeat IPC: 0.494501 cumulative IPC: 0.496078 (Simulation time: 0 hr 10 min 25 sec) 
Heartbeat CPU 0 instructions: 220000000 cycles: 357006754 heartbeat IPC: 0.494902 cumulative IPC: 0.496009 (Simulation time: 0 hr 10 min 59 sec) 
Heartbeat CPU 0 instructions: 230000003 cycles: 377098480 heartbeat IPC: 0.497717 cumulative IPC: 0.496104 (Simulation time: 0 hr 11 min 32 sec) 
Heartbeat CPU 0 instructions: 240000001 cycles: 397259279 heartbeat IPC: 0.496012 cumulative IPC: 0.496099 (Simulation time: 0 hr 12 min 6 sec) 
Heartbeat CPU 0 instructions: 250000001 cycles: 417390689 heartbeat IPC: 0.496736 cumulative IPC: 0.496131 (Simulation time: 0 hr 12 min 40 sec) 
Finished CPU 0 instructions: 200000000 cycles: 403119718 cumulative IPC: 0.496131 (Simulation time: 0 hr 12 min 40 sec) 

ChampSim completed all CPUs

Region of Interest Statistics

CPU 0 cumulative IPC: 0.496131 instructions: 200000000 cycles: 403119718
ITLB TOTAL     ACCESS:   35176322  HIT:   32683611  MISS:    2492711  HIT %:    92.9137  MISS %:    7.08633   MPKI: 12.4636
ITLB LOAD TRANSLATION ACCESS:   35176322  HIT:   32683611  MISS:    2492711  HIT %:    92.9137  MISS %:    7.08633   MPKI: 12.4636
ITLB PREFETCH  REQUESTED:          0  ISSUED:          0  USEFUL:          0  USELESS:          0
ITLB USEFUL LOAD PREFETCHES:          0 PREFETCH ISSUED TO LOWER LEVEL:          0  ACCURACY: -nan
ITLB TIMELY PREFETCHES:          0 LATE PREFETCHES: 0 DROPPED PREFETCHES: 0
ITLB PREFETCHES SAME FILL-ORIGIN LEVEL: 0 DIFFERENT FILL-ORIGIN LEVEL: 0
ITLB AVERAGE MISS LATENCY: 9.02174 cycles
ITLB RQ	ACCESS:   41438384	FORWARD:          0	MERGED:    5451030	TO_CACHE:   35987354

DTLB TOTAL     ACCESS:   40114981  HIT:   38118827  MISS:    1996154  HIT %:    95.0239  MISS %:    4.97608   MPKI: 9.98077
DTLB LOAD TRANSLATION ACCESS:   40114981  HIT:   38118827  MISS:    1996154  HIT %:    95.0239  MISS %:    4.97608   MPKI: 9.98077
DTLB PREFETCH  REQUESTED:          0  ISSUED:          0  USEFUL:          0  USELESS:          0
DTLB USEFUL LOAD PREFETCHES:          0 PREFETCH ISSUED TO LOWER LEVEL:          0  ACCURACY: -nan
DTLB TIMELY PREFETCHES:          0 LATE PREFETCHES: 0 DROPPED PREFETCHES: 0
DTLB PREFETCHES SAME FILL-ORIGIN LEVEL: 0 DIFFERENT FILL-ORIGIN LEVEL: 0
DTLB AVERAGE MISS LATENCY: 9.69728 cycles
DTLB RQ	ACCESS:   55931918	FORWARD:          0	MERGED:   15666258	TO_CACHE:   40265660

STLB TOTAL     ACCESS:   27889378  HIT:   27866214  MISS:      23164  HIT %:    99.9169  MISS %:  0.0830567   MPKI: 0.11582
STLB LOAD TRANSLATION ACCESS:    4488865  HIT:    4466287  MISS:      22578  HIT %:     99.497  MISS %:   0.502978   MPKI: 0.11289
STLB TRANSLATION FROM L1D PREFETCHER ACCESS:   23400513  HIT:   23399927  MISS:        586  HIT %:    99.9975  MISS %: 0.00250422   MPKI: 0.00293
STLB PREFETCH  REQUESTED:          0  ISSUED:          0  USEFUL:        430  USELESS:        153
STLB USEFUL LOAD PREFETCHES:        430 PREFETCH ISSUED TO LOWER LEVEL:          0  ACCURACY: inf
STLB TIMELY PREFETCHES:        430 LATE PREFETCHES: 0 DROPPED PREFETCHES: 908773
STLB PREFETCHES SAME FILL-ORIGIN LEVEL: 0 DIFFERENT FILL-ORIGIN LEVEL: 0
STLB AVERAGE MISS LATENCY: 61.4682 cycles
STLB RQ	ACCESS:   34525820	FORWARD:          0	MERGED:    5726837	TO_CACHE:   28798983

STLB Hit, L1D data hit: 0
STLB Hit, L2C data hit: 0
STLB Hit, LLC data hit: 0
STLB Hit, LLC data miss: 0
STLB STLB hints to L2: 0
L1D TOTAL     ACCESS:   84430757  HIT:   80733940  MISS:    3696817  HIT %:    95.6215  MISS %:    4.37852   MPKI: 18.4841
L1D LOAD      ACCESS:   31346476  HIT:   29559354  MISS:    1787122  HIT %:    94.2988  MISS %:    5.70119   MPKI: 8.93561
L1D RFO       ACCESS:   24209190  HIT:   23967332  MISS:     241858  HIT %:     99.001  MISS %:   0.999034   MPKI: 1.20929
L1D PREFETCH  ACCESS:   28875091  HIT:   27207254  MISS:    1667837  HIT %:     94.224  MISS %:    5.77604   MPKI: 8.33919
AGUS PREFETCH L1 MISS: 0
L1D PREFETCH  REQUESTED:   61473242  ISSUED:   61473119  USEFUL:     458614  USELESS:    1209233
L1D USEFUL LOAD PREFETCHES:     458614 PREFETCH ISSUED TO LOWER LEVEL:    1695281  ACCURACY: 27.0524
L1D TIMELY PREFETCHES:     458614 LATE PREFETCHES: 24377 DROPPED PREFETCHES: 910617
L1D PREFETCHES SAME FILL-ORIGIN LEVEL: 1695281 DIFFERENT FILL-ORIGIN LEVEL: 0
L1D AVERAGE MISS LATENCY: 1.61855e+06 cycles
L1D RQ	ACCESS:   45969038	FORWARD:          0	MERGED:   14292966	TO_CACHE:   31436288
L1D WQ	ACCESS:   24697059	FORWARD:     281754	MERGED:     201429	TO_CACHE:   24495630
L1D PQ	ACCESS:   31436164	FORWARD:          0	MERGED:    1357239	TO_CACHE:   30036955

L1D UNIQUE REGIONS ACCESSED: 0
L1D REGIONS CONFLICTS: 0
L1D Cross Page Prefetch Requests: 1643246
L1D Same Page Prefetch Requests: 36322710
L1D ROI Sum of L1D PQ occupancy: 431047191
L1D PREFETCHES PUSHED FROM L2C: 0
L1I TOTAL     ACCESS:   37495718  HIT:   22057226  MISS:   15438492  HIT %:     58.826  MISS %:     41.174   MPKI: 77.1925
L1I LOAD      ACCESS:   37495718  HIT:   22057226  MISS:   15438492  HIT %:     58.826  MISS %:     41.174   MPKI: 77.1925
L1I PREFETCH  REQUESTED:          0  ISSUED:          0  USEFUL:          0  USELESS:          0
L1I USEFUL LOAD PREFETCHES:          0 PREFETCH ISSUED TO LOWER LEVEL:          0  ACCURACY: -nan
L1I TIMELY PREFETCHES:          0 LATE PREFETCHES: 0 DROPPED PREFETCHES: 0
L1I PREFETCHES SAME FILL-ORIGIN LEVEL: 0 DIFFERENT FILL-ORIGIN LEVEL: 0
L1I AVERAGE MISS LATENCY: 14.1568 cycles
L1I RQ	ACCESS:   62488133	FORWARD:          0	MERGED:   21049749	TO_CACHE:   41438384

BTB TOTAL     ACCESS:   28064304  HIT:   24482603  MISS:    3581701  HIT %:    87.2375  MISS %:    12.7625   MPKI: 17.9085
BTB BRANCH_DIRECT_JUMP	ACCESS:    2068715  HIT:    1958904  MISS:     109811
BTB BRANCH_INDIRECT	ACCESS:   12589489  HIT:   11340070  MISS:    1249419
BTB BRANCH_CONDITIONAL	ACCESS:    3946651  HIT:    3830860  MISS:     115791
BTB BRANCH_DIRECT_CALL	ACCESS:    3834256  HIT:    3580645  MISS:     253611
BTB BRANCH_INDIRECT_CALL	ACCESS:     895479  HIT:     719752  MISS:     175727
BTB BRANCH_RETURN	ACCESS:    4729714  HIT:    3052372  MISS:    1677342
BTB BRANCH_OTHER ACCESS:          0  HIT:          0  MISS:          0

L2C TOTAL     ACCESS:   21799866  HIT:   20788675  MISS:    1011191  HIT %:    95.3615  MISS %:    4.63852   MPKI: 5.05595
L2C LOAD      ACCESS:   17200767  HIT:   16731933  MISS:     468834  HIT %:    97.2743  MISS %:    2.72566   MPKI: 2.34417
L2C DATA LOAD MPKI: 2.17672
L2C INSTRUCTION LOAD MPKI: 0.16745
L2C RFO       ACCESS:     238791  HIT:     159672  MISS:      79119  HIT %:    66.8668  MISS %:    33.1332   MPKI: 0.395595
L2C PREFETCH  ACCESS:    1695262  HIT:    1278014  MISS:     417248  HIT %:    75.3874  MISS %:    24.6126   MPKI: 2.08624
AGUS PREFETCH L1 MISS: 0
L2C DATA PREFETCH MPKI: 2.08624
L2C INSTRUCTION PREFETCH MPKI: 0
L2C WRITEBACK ACCESS:    1106217  HIT:    1092645  MISS:      13572  HIT %:    98.7731  MISS %:    1.22688   MPKI: 0.06786
L2C LOAD TRANSLATION ACCESS:      31183  HIT:       9780  MISS:      21403  HIT %:    31.3632  MISS %:    68.6368   MPKI: 0.107015
L2C TRANSLATION FROM L1D PREFETCHER ACCESS:    1527646  HIT:    1516631  MISS:      11015  HIT %:     99.279  MISS %:   0.721044   MPKI: 0.055075
L2C PREFETCH  REQUESTED:          0  ISSUED:          0  USEFUL:      24433  USELESS:     403764
L2C USEFUL LOAD PREFETCHES:      24433 PREFETCH ISSUED TO LOWER LEVEL:     417248  ACCURACY: 5.85575
L2C TIMELY PREFETCHES:      24433 LATE PREFETCHES: 0 DROPPED PREFETCHES: 0
L2C PREFETCHES SAME FILL-ORIGIN LEVEL: 0 DIFFERENT FILL-ORIGIN LEVEL: 0
L2C AVERAGE MISS LATENCY: 47.882 cycles
L2C RQ	ACCESS:   18998857	FORWARD:          0	MERGED:          0	TO_CACHE:   18998387
L2C WQ	ACCESS:    1106217	FORWARD:        489	MERGED:          0	TO_CACHE:    1106217
L2C PQ	ACCESS:    1695281	FORWARD:          0	MERGED:          0	TO_CACHE:    1695262

L2C Instructions Evicting Data 29724
L2C Translations Evicting Data 30244
L2C Data Evicting Data 872744
L2C Instructions Evicting Instructions 2556
L2C Translations Evicting Instructions 1420
L2C Data Evicting Instructions 28910
L2C Instructions Evicting Translations 1210
L2C Translations Evicting Translations 754
L2C Data Evicting Translations 30057
L2C Dense regions hint from L2: 0
PSCL5 TOTAL     ACCESS:     931937  HIT:     931937  MISS:          0  HIT %:        100  MISS %:          0   MPKI: 0
PSCL5 LOAD TRANSLATION ACCESS:      22578  HIT:      22578  MISS:          0  HIT %:        100  MISS %:          0   MPKI: 0
PSCL5 TRANSLATION FROM L1D PREFETCHER ACCESS:     909359  HIT:     909359  MISS:          0  HIT %:        100  MISS %:          0   MPKI: 0
PSCL5 PREFETCH  REQUESTED:          0  ISSUED:          0  USEFUL:          0  USELESS:          0
PSCL5 USEFUL LOAD PREFETCHES:          0 PREFETCH ISSUED TO LOWER LEVEL:          0  ACCURACY: -nan
PSCL5 TIMELY PREFETCHES:          0 LATE PREFETCHES: 0 DROPPED PREFETCHES: 0
PSCL5 PREFETCHES SAME FILL-ORIGIN LEVEL: 0 DIFFERENT FILL-ORIGIN LEVEL: 0

PSCL4 TOTAL     ACCESS:     931937  HIT:     931937  MISS:          0  HIT %:        100  MISS %:          0   MPKI: 0
PSCL4 LOAD TRANSLATION ACCESS:      22578  HIT:      22578  MISS:          0  HIT %:        100  MISS %:          0   MPKI: 0
PSCL4 TRANSLATION FROM L1D PREFETCHER ACCESS:     909359  HIT:     909359  MISS:          0  HIT %:        100  MISS %:          0   MPKI: 0
PSCL4 PREFETCH  REQUESTED:          0  ISSUED:          0  USEFUL:          0  USELESS:          0
PSCL4 USEFUL LOAD PREFETCHES:          0 PREFETCH ISSUED TO LOWER LEVEL:          0  ACCURACY: -nan
PSCL4 TIMELY PREFETCHES:          0 LATE PREFETCHES: 0 DROPPED PREFETCHES: 0
PSCL4 PREFETCHES SAME FILL-ORIGIN LEVEL: 0 DIFFERENT FILL-ORIGIN LEVEL: 0

PSCL3 TOTAL     ACCESS:     927422  HIT:     927347  MISS:         75  HIT %:    99.9919  MISS %: 0.00808693   MPKI: 0.000375
PSCL3 LOAD TRANSLATION ACCESS:      22500  HIT:      22425  MISS:         75  HIT %:    99.6667  MISS %:   0.333333   MPKI: 0.000375
PSCL3 TRANSLATION FROM L1D PREFETCHER ACCESS:     904922  HIT:     904922  MISS:          0  HIT %:        100  MISS %:          0   MPKI: 0
PSCL3 PREFETCH  REQUESTED:          0  ISSUED:          0  USEFUL:          0  USELESS:          0
PSCL3 USEFUL LOAD PREFETCHES:          0 PREFETCH ISSUED TO LOWER LEVEL:          0  ACCURACY: -nan
PSCL3 TIMELY PREFETCHES:          0 LATE PREFETCHES: 0 DROPPED PREFETCHES: 0
PSCL3 PREFETCHES SAME FILL-ORIGIN LEVEL: 0 DIFFERENT FILL-ORIGIN LEVEL: 0

PSCL2 TOTAL     ACCESS:     316569  HIT:     307951  MISS:       8618  HIT %:    97.2777  MISS %:    2.72231   MPKI: 0.04309
PSCL2 LOAD TRANSLATION ACCESS:      22643  HIT:      14025  MISS:       8618  HIT %:    61.9397  MISS %:    38.0603   MPKI: 0.04309
PSCL2 TRANSLATION FROM L1D PREFETCHER ACCESS:     293926  HIT:     293926  MISS:          0  HIT %:        100  MISS %:          0   MPKI: 0
PSCL2 PREFETCH  REQUESTED:          0  ISSUED:          0  USEFUL:          0  USELESS:          0
PSCL2 USEFUL LOAD PREFETCHES:          0 PREFETCH ISSUED TO LOWER LEVEL:          0  ACCURACY: -nan
PSCL2 TIMELY PREFETCHES:          0 LATE PREFETCHES: 0 DROPPED PREFETCHES: 0
PSCL2 PREFETCHES SAME FILL-ORIGIN LEVEL: 0 DIFFERENT FILL-ORIGIN LEVEL: 0

LLC TOTAL     ACCESS:    1365816  HIT:    1247935  MISS:     117881  HIT %:    91.3692  MISS %:    8.63081   MPKI: 0.589405
LLC LOAD      ACCESS:     468829  HIT:     423587  MISS:      45242  HIT %:      90.35  MISS %:       9.65   MPKI: 0.22621
LLC RFO       ACCESS:      79061  HIT:      56147  MISS:      22914  HIT %:    71.0173  MISS %:    28.9827   MPKI: 0.11457
LLC PREFETCH  ACCESS:     417248  HIT:     368871  MISS:      48377  HIT %:    88.4057  MISS %:    11.5943   MPKI: 0.241885
AGUS PREFETCH L1 MISS: 0
LLC WRITEBACK ACCESS:     368260  HIT:     367587  MISS:        673  HIT %:    99.8172  MISS %:   0.182751   MPKI: 0.003365
LLC LOAD TRANSLATION ACCESS:      21403  HIT:      20795  MISS:        608  HIT %:    97.1593  MISS %:    2.84072   MPKI: 0.00304
LLC TRANSLATION FROM L1D PREFETCHER ACCESS:      11015  HIT:      10948  MISS:         67  HIT %:    99.3917  MISS %:   0.608261   MPKI: 0.000335
LLC PREFETCH  REQUESTED:          0  ISSUED:          0  USEFUL:        582  USELESS:      47072
LLC USEFUL LOAD PREFETCHES:        582 PREFETCH ISSUED TO LOWER LEVEL:      48377  ACCURACY: 1.20305
LLC TIMELY PREFETCHES:        582 LATE PREFETCHES: 0 DROPPED PREFETCHES: 0
LLC PREFETCHES SAME FILL-ORIGIN LEVEL: 0 DIFFERENT FILL-ORIGIN LEVEL: 0
LLC AVERAGE MISS LATENCY: 156.767 cycles
LLC RQ	ACCESS:     580371	FORWARD:          0	MERGED:          0	TO_CACHE:     580308
LLC WQ	ACCESS:     368260	FORWARD:         63	MERGED:          0	TO_CACHE:     368260
LLC PQ	ACCESS:     417248	FORWARD:          0	MERGED:          0	TO_CACHE:     417248

LLC Dense regions hint to LLC: 0

RAW hits: 2130716
Loads Generated: 48099756
Loads sent to L1D: 45969038
Stores Generated: 24697058
Stores sent to L1D: 24697059
Major fault: 0 Minor fault: 5748
Allocated PAGES: 5748
ucb ended
-----------------------------------------------------------------------------------------------------------------------------------------------------------------------------------------------------
Offsets elements: -5 1 -1 -2200619109867 2200619109848 18 -6 -2 -2200619110669 2200619110669 -10126 2 10134 -3 5 2200619109867 -8 -11 -2200619110659 2200619110663 -10117 -12732640 12732641 -31547 41654 -10107 10108 -2200619086109 2200619086106 -41654 31547 10403344 -10403343 3 -2200619069633 2200619069634 -5202 -12713844 -13603 9 12727437 -1203574 1203574 -12727446 12732651 -31530 31531 -5206 5206 -31558 31563 -288223780699126124 18880336 -19199074 6 -1465996286152 1465996286151 19199073 -1466015485612 1466015485611 -19199068 208025 -1465996494154 1466015485206 -1466015485615 1466015485615 -1466015485613 1466015485616 -18873477 18873476 -1466015485616 1465996612139 -163679 5129 -1465996453572 1465996583439 345 28337 -4961 18878436 -19032024 -5129 -1465996448440 1465996412102 171695 21458 288223780709529729 -10435167 -2200619185778 2200619185778 23 -56471 87999 -5444 5445 -5446 -2200619094897 33466 -10093 2200619076965 -2200619066873 2200619066876 -31552 -2200619068787 2200619076963 -2200619066871 2200619066873 4 -31551 31552 -31519 31519 -5453 5450 -5449 5448 -5448 5449 -5450 5452 -36303 31101 -2200619177783 2200619177786 -12727449 12742749 -12742749 12732646 10104 -4 -2200619192829 2200619192838 -7 17 -23 -2200619086103 2200619086128 -25 -15 -59743 59737 -10104 -36299 36303 -5447 -26105 26104 -2200619214612 2200619214609 10404038 -10404038 10404041 -10404037 -698 -2200629503697 2200619100353 -2200619100353 2200629505689 -1293 10404039 10404055 -10404056 -10404055 -10404040 -10404039 -31553 26 10434866 -10434892 -2200619068805 -2200629505670 2200629505682 -10405348 10403908 1393 35 -10436885 10436885 -2200629505677 2448 2200619097889 -2200619097890 2200629503227 -10405337 10405337 2200619068797 -10 -2200619183186 2200619183188 -272700 10709585 -10436882 -272703 272702 -272702 272703 31542 -31541 -31534 31516 -31522 -2200619066314 2200619097836 -31543 -52998 10489877 -10709585 -2200619066739 2200629501937 -10707896 272704 -272704 -272705 -272701 272728 10436819 -10436849 30 -29 -2200618796105 2200619100351 10436657 -10709361 -30478 10467329 -10405307 10405340 -10467360 10467326 -10467330 10467359 -33 -10467324 -2200619152707 2200629620035 -10467327 -242224 242226 10467324 10467325 -10467325 -242223 242223 -1063665 11530992 -10467326 -10405304 -31533 10436849 -2200629620035 34 -2200629505889 2200629505889 -2200629505675 2200614641531 4458805 -4458805 14864110 -2200629505641 2200629505674 -34 -10405301 10405336 -10405334 -2200619214734 -2200619183185 2200619183187 31544 62024 -62023 62023 -10405335 -31549 10436851 -10436831 2200629505669 13 -1160364 1160364 10436872 -10520100 83228 -13 -1160351 1191899 -1191875 1160373 -30 -2200617865652 2200617865636 36 -3237427 3237390 10436884 -14834604 14834640 -14834639 3237387 -3237386 14832643 2200629504003 -14862457 29508 -2200629503678 -10092 2200614647658 -2200614637566 2200614637567 -2200614671038 2200629504401 -11595973 11595256 717 -2200629473691 2200629473691 -2200629504607 33792 -31270 -50 2200629502137 1287 -1287 -14833362 14834849 -11597462 -2200629503684 2200629503682 -2200629470103 2200629471992 -11597145 11595820 -2200629501934 -41 40 2200614668727 14833208 -14833208 -2200617908077 2200617908077 -2200617878022 2200629473278 1806 -2200629474780 2200617877718 11597254 -1998 2200629505656 -1705 -14832901 -14833209 11595973 -2200629504395 2200614647660 -2200614637567 2200614637568 14833361 -717 -2200629504415 2200614671052 14833363 1275 -14834637 -14833360 14834641 -14834642 3237388 -11595256 -2200617908441 19 2200629505670 12 -14834651 14834604 -1393 1428 -11597249 11597213 -11597214 -2200618022824 2200629620039 -14834608 4367281 10467328 -10467328 31 -31 10709552 -4367282 4367284 -242226 -4125057 4397759 10709582 -10709583 -4397760 4397762 3237391 11597215 -11597195 -10436873 10436873 -10436874 11597236 -11597236 10435137 -258 -10434846 -4397800 4397754 37 -1160355 -2200617865682 2200619026016 -16 31512 11597248 -10520065 114763 10405338 -10405336 31553 10404037 10404056 -17 -10404042 10404040 -5451 -5452 5451 -35705 30525 -2200619177810 2200619182983 -12732666 -2200606450063 2200619267374 20 -84645 -2200619076001 2200619026368 13934 30254 -30254 35703 5447 -31557 18880338 -19073491 36339 -125956 125956 -85160 -373276 313919 -1465996303916 1465996587440 17806 -2200619185773 2200619185796 56471 -5179 5181 -5180 5180 -26377 31558 -5182 -12727484 12727485 -2200619087878 2200619087877 -12713870 12719048 -12732659 12727481 -1203598 1208775 -2200619177808 2200619177809 -12727487 12732666 -12732671 8272135 4428979 26376 2200619182987 -5177 5179 -12732669 -2200606450062 2200606450062 12817308 -2200619160646 2200619160649 -116197 116196 -84648 84648 -116196 10434892 -10403344 -2200619069630 2200619069631 84646 22 -20 21 16 -90605 90608 -84666 -5942 5943 37356 -37356 84665 -84662 84672 -2200619185224 2200619100551 84666 -90608 90589 -90590 5939 12850 -18789 -25609 25607 90587 -2200619160645 2200619075998 -5938 -5937 43324 -37387 -5939 5937 84669 -84646 14 10 -18 -2200619184389 2200619184390 -84671 -31548 2200619160651 -84651 -2200629472974 2200619069630 -12713871 -13620 13620 12719050 -12732661 1208776 -31527 31530 -19495588 313920 19181668 -19495586 -1465995990026 1465995990024 -1465995989616 -22 1465996303558 -1465996303944 1466015485613 -1466015485218 -394 -313918 379 1465996611760 -622112 -1465996303945 -622113 -1465995989999 1465996303919 -313920 -1465995989690 -332 1466015485606 -1466015483813 -1489 1465943428504 -1465943428805 1794 1465996603501 -1465996605295 -1465996604963 -1757 1425 -1462 1465943428809 -1465943430234 1465996482646 -1465996481221 1465943427015 -1465943427012 1465996479425 31746 18972639 -1466015485310 -292 328 1465995989690 615273 1465996480889 19004385 -18880311 -1465996606690 1466015487001 -1466015487030 1465996482647 -1465996480890 1465996481274 -1465996479480 1466015485302 -72056798 52561213 -1465995991447 1465995991446 -1465996303919 -1465995989726 1465996604963 1465996480890 78 19004307 -18880310 18880310 -1466015485274 -1794 1466015485301 -72318942 -1465943168089 1422 371 -363 1465996303936 19181666 -19495585 1465996482648 -1465996480891 18880311 -1466015485273 1465996481017 -1465996481349 -1466015485601 1465996480196 19005406 -1465995990024 1465996303573 19181667 -18873472 -622114 1465943456446 53155693 -53430665 -1465943181454 1465996583423 -53401969 53423826 -1465996605299 -2723 3094 1465996583201 -4200 -88932 -53308968 -1465943181440 -19 1465996583460 -53402001 -1465943181221 1465943181221 -25927 -53397899 53397898 -88929 88931 -88931 -1465996490189 -233 21857 -53423826 53324340 -53324340 53316135 85964 18906243 -18997218 18997218 -18906237 -589343 589347 -1465996579371 1465996497608 -1465996497237 -371 374 -400 397 -397 402 1465995989624 382 28 -410 1465995990027 -1465995989648 -1465996612138 1465996494538 -1465996494140 -381 18878433 -19495583 -1465995989992 1465995989992 -1465995990018 1465943456438 -1465943456033 1465995989612 514784 -14359 18995157 -18980798 2021 -16381 16382 -1465996506577 -219 1465996506796 -16382 18995158 -54371769 54371771 -1466015485606 1466015485607 -1466015485222 -386 7 504539 -1465996494565 377 -78 19004302 -18880306 18880305 -1466015485268 1465943164870 1730 1466015485297 -1466015485297 1466015485298 -18991067 -5087 -1033 -1465996488411 1465995990018 498388 6146 -6146 -498388 19495574 1466015485608 -18873468 18873469 -1466015485592 18878432 -1466015485210 1465995989644 -1465995990023 33 376 1465995989614 -1465995990025 386 1465996494549 -1465996494163 1466015485222 -19495584 400 1466015485612 -1466015485227 1465996611754 18873471 -1466015485610 -1466015485205 1466015485211 1465996494542 18991070 -18873473 1465995989991 -52533580 -274972 72304138 -1466015485275 1466015483813 -1466015485302 1465943166359 72318944 -1466015487032 1429 1465996605291 1465996605295 -1465996603501 53438631 -1425 3219 1465996481221 19004386 1465995988227 -1465995988225 1465943164867 289778 53056526 -31746 25604 -1465996506494 1465996479896 -1465996480197 -1429 1465996606720 -125094 -1465996478407 1465996479424 -1020 32767 -31745 19004384 19495587 380 1466015485234 -19122313 19122312 -19495587 -1465995990009 1465995990011 -19181670 279528 23721 4962 -28337 -329 18902140 -18873474 -163678 5130 -153588 19032024 -18873475 -1465996448460 -1465996611730 -408 394 8 -403 -1465996612121 23376 4961 -4962 18878434 -302 -18873476 18873474 -1466015485611 406 1465996494135 -1465996494540 396 1465996488023 18997194 -1465996611761 1465996494162 -53313043 -1465943181119 1465995989649 -52808530 53313043 -1465996494204 1489 1466015483815 -1466015485303 -1465943166660 1465943166664 -1465943164870 19004387 -1466015483814 1466015483812 -18991073 -53327872 52823357 1465996512971 -491194 -1465995990004 1465996587447 -2200619185772 2200619185795 82820 -2200606360393 2200619087878 -12727490 12727490 12732672 -4460537 -12727491 2200619044452 -10403345 -2200619069629 84651 -84670 84653 -84649 84641 -71819 -2200619088890 2200619088890 -2200619195766 2200619267580 -247590 247585 84654 -14 -84665 84655 -84653 84647 2200619160670 -134277 49633 84649 -2200619184394 2200619184387 -2200619160644 -23978 2200614636860 14868626 -3754628982 3739760356 -3739760356 -10405518 -7988 7989 -7989 7987 -2200619057519 2200614594396 14868639 -14868639 4463124 49331 -49332 49363 -49363 -3744223413 3744223415 -3744223415 3739760288 -3739760288 3744272770 -57344 7985 -92635 -2200619068009 -92643 92660 -92660 92641 -2200619185218 2200619185218 -92640 92635 -2200619160648 2200619160667 -2200619184401 -811 2200619100550 84668 -7995 -7990 -288223780699741360 288223780699741358 -9 92663 -92663 7997 -92661 -2200619091751 2200619184392 -2200619184393 2200619184357 -84657 84656 92658 92661 -92659 -92642 -2200619091750 -84656 -7987 -2200619089898 2200619097883 -2200619100543 2200619185216 -92658 92662 -84677 -7984 57344 -57339 7983 -7983 57343 -7982 92655 -92638 7981 -7979 92642 92640 92638 -92637 92643 -92634 92653 -84674 92639 -92641 -2200619184411 2200619184389 84676 -2200619267434 2200619267418 11 -92644 7979 92651 -92650 92656 -2200619185221 2200619185212 -2200619184367 2200619184371 -2200619185214 2200619100544 -92651 92654 -92653 92634 -134289 41655 -92652 92650 2200629588986 -10321557 -92645 -71801 2200619088891 -175762 162903 -49618 41640 20835 2200619267575 -71809 71805 -2200619267577 2200619020006 154926 -41646 98987 -24 35316 57317 -49340 -49594 41616 20836 -151866 131029 57316 -49341 -139008 131027 -49339 -7978 -2200619091899 162 2200619091736 7971 49346 -49345 -2200619099875 2200619099878 -180195 172221 -2200619091883 2200619091884 -98917 98917 -2200619232155 2200619182808 -7970 7974 -7973 -2200619091737 -49347 -2200619099856 -49348 -2200619099881 2200619099880 -2200619100534 2200619100537 -2200619099880 2200619099881 -131276 123905 7370 -7370 -7369 7371 -7371 7367 -7367 -2200619092488 2200619099857 -2200619099858 2200619092489 -605 602 -24164 24164 56714 -56711 -2200619175442 2200619232153 56711 -57317 605 -56713 88834 -81469 -7364 -49346 -7365 7365 7364 -49567 49569 -42205 42201 2200619069610 -7362 -2200619093168 2200619093168 89439 -81472 7369 -139004 139003 20837 -20837 62490 -20835 10414202 -10414203 10414204 -10455820 -89408 131025 -81463 -139002 131023 49575 -139000 138999 -7977 71797 -20836 -154924 -2200619020006 2200619133285 62481 2200619088892 2200619019998 162908 -7974 57342 -57342 -175770 154934 -23562 23562 -2200619088812 2200619125292 -596793 596791 -2200619092561 2200619185201 -689429 598622 -1828 1829 -23561 57340 -154932 212274 -36504 10411330 -10566258 10566264 -10465872 10467783 -10506225 92982 -212279 154938 -154935 154935 -2200619182182 2200619182181 57341 -57341 7972 -162909 100399 -10413246 -2200619091984 2200619091986 -154939 154939 -154934 -2200619027247 -84669 -212247 212247 -162894 154925 -130751 10542082 2200629505724 -10413359 10413359 -10568298 10568298 -2200629505339 2200629505334 -2022 2200629475001 -10405390 10406227 -10406226 10406225 -10468734 62511 10405273 -10568182 131377 31533 -31535 2200629472974 2200629473275 -10435193 -1130652 11565544 -2200629503894 30920 2200619038082 10435195 -2200629504297 100 614 2200629505302 -2200629505302 -10405391 10405390 -10413357 -154938 10568290 -10405387 -2200619099952 2200619091987 -154940 -154928 154930 -2200619091987 241 2200619099710 -162905 -2200619091744 2200619091745 -154925 113270 10414201 -10414202 -57316 -98972 98996 10414206 -10414205 -41615 -89416 131031 -188350 138992 -7964 10455808 -10406250 -138991 138991 -7960 -41645 41645 36481 -57318 20838 57318 -212242 113308 -89404 131021 -220460 131019 49559 -138978 138979 -7959 -49359 -2200619050769 -48975 -82959 2200619174746 -154926 212242 -41656 41657 -57319 20834 36480 -2200619149071 2200619099709 -2200619050777 3588606 2200615546820 84644 -35286 35297 -92608 603 -42188 41586 92607 -7955 7958 10318728 -10318726 -92604 92621 -92621 35281 -35288 -2200619149067 2200619184374 -84667 -92602 92604 -92606 92614 -71779 -2200619088891 162881 -49595 -35305 35305 -92623 92623 57319 35309 -35309 -84668 -92624 92606 -92605 -2200619151507 2200619151507 -92628 -134258 -72465798979 72465933240 92605 -2200619075967 2200619160632 -92619 92620 92630 -2200619185194 2200619185183 -92626 7955 92624 -92629 92609 -90579 -2200619091946 2200619097853 -2200619100512 -2200619185171 2200619094606 -2200619094606 2200619185181 -84673 84673 -2200619184341 2200619184321 -2128153251929 2200619185191 -90565 90580 5910 -5910 90588 -90587 90583 -90585 90582 -90582 5911 -5911 5907 -84672 90561 -90562 -2200619070058 2200619160618 43327 -43328 -3744217487 3739760300 -3739760300 3754628939 -3754628939 3744223387 -5904 -2200619094039 -3739760354 3739760354 -3754628980 3744223430 84679 -21 -2200619185188 2200619185188 -84675 -2200619099707 -810 2200619185189 84677 84675 15 -71787 2200619182881 -84676 84682 -84679 84678 -2200619184336 2200619099669 -2200619184343 2200619099666 84667 84674 -84678 84670 2200619184337 84650 -134271 -2200619050073 2200619184345 2200619185187 -2200619184380 2200619184379 -84660 84658 -12847945 12847947 -71785 -2200619195765 2200619267549 -2200619184338 2200619184338 -2200619185183 2200619185182 84657 -2964 -61641 76941 -152798 152799 -96990 81692 -81690 81691 -81689 -84647 -49612 10455857 -10406242 10405388 -10405389 -2200619100530 2200619100533 10405382 -10405382 10405265 -10405268 10436902 -10405371 10403361 31532 -31532 31534 31535 -7986 92667 -2200619185212 2200619185211 7988 -41652 134293 -72465933262 72465933262 -2200619184414 2200619184408 -2200619185211 -2200619184409 2200619184401 -84659 12732660 -84652 2200619069629 -5178 5178 -1208776 1208777 26349 5182 -1465995989645 1465995989639 1465995990025 -1465995989617 1465995989618 18991046 -19495581 504540 18991049 18873475 18878437 -36338 -1465996412102 1465996583797 10092 2200619066874 -2200619066876 2200619076964 -35703 -2200619177807 2200619177810 -12727493 -12817311 134300 -35699 -35787 35783 -5248 -2200619177738 2200606450327 -2200606450073 2200619267554 -84825 2200619160850 -120605 -13852 13852 30336 -30336 35785 -5445 5446 -288223780680245786 -18880338 -193153 -85159 -371997 -1465995991277 1465995999916 605330 -17806 288223780709547535 82748 -26305 26304 5254 -12732656 12727403 -2200619087805 2200606373791 12719265 -5251 5252 -12732651 11523873 1203526 -2200619177736 2200619177737 5251 12701104 -4455283 -2200614722453 2200619182988 -5249 5250 -12732660 -2200606450072 2200606450072 12817478 -2200619160826 2200619160829 -116377 116376 10318516 31548 84826 -2200619154478 2200619154458 -90717 5870 -5870 5871 37100 -37100 84845 -84842 84852 -2200619185404 2200619185404 -90716 90697 -90698 18717 -18717 -25681 25679 90695 -2200619160828 -5866 42996 -37130 -5867 5866 84849 -84826 -2200619184569 2200619184570 -84850 2200619160831 -116376 -12714015 -13394 12727399 -1203526 1177249 -5254 -19494308 8640 -8638 -1465995991306 1465995991304 -1465995990896 1465995999558 -1465995999944 8638 -1465996611760 1465995990928 -1465995999945 -620833 -1465995991279 1465995999919 -8640 -1465995990970 -1466015485301 53176486 1757 1462 -1466015483812 1465995989505 -52562493 -1465943428513 1465996512964 -1465996512636 124073 1465996606690 -1465996606720 1727 -19004385 124074 -124021 19004332 -1466015485605 332 -27 -1772 1465995991280 -52562492 52571132 -1465996001366 1465996001366 -1465995991006 72318942 -1466015485300 -1466015485609 -1422 -300 1465995999936 19485666 -1466015485239 1465995999573 -8639 126 -1465996481017 1465996480891 -308 1466015485610 -19485666 480260 -1465996479833 -1465995992727 1465995992726 19485667 -1465995991305 1465943456426 53126997 -1465996586165 1465996614861 1465943181496 53423803 -1465996604928 1465943181125 53402076 -93131 -1465996490409 1465996579358 -1465996579122 1465996583222 -53401978 -53423803 53397876 -53397875 53308946 -1465996579120 -53401946 53324317 99486 -107691 -95180 90980 -53397878 53306896 -53306896 72304113 -18997217 -18906239 18906240 -18906238 -19494306 506304 -1465996497608 1465995991306 -1465995991272 1465995991307 -1465995990928 1465996612121 -28682 -89263 112639 -615871 -26 1465995991297 -52534859 1465996504396 14358 -1465996490195 1465996506577 -1465996506796 -1465996490194 1465996506576 -35353720 -1465961153087 1465973245587 23261221 -23261221 -23261222 23261222 18978775 -42239996 23244839 385 -1466015485608 -620832 1465996494257 -1465996494627 292 19004380 -19004301 -1465996480967 1466015483807 -72318937 72318937 -1466015485296 -18996153 -1465996489144 -1466015487028 1465995992728 503233 -503234 -1465995991303 1465996488411 6215 -6215 -497108 -1465995991312 -18873470 -1465996611740 1465995990924 1465995990894 1465995990919 1466015485225 407 1465996611737 -117597 -503236 -1465995991271 1465995991272 1465943456110 -1465943456442 1465943181493 -1465943181493 -301 1465943166660 -1465943166332 3222 1466015483810 -19004386 1465995991301 -1465995989508 -1465996506826 1465996480197 125094 1465996478407 -1465996479869 -1797 1465996363303 19122311 -19494309 -1465995990926 1465996583457 18902139 19494311 -18878437 -592150 1465995999944 583857 135013 -129883 158549 -1466015485614 -19037153 1466015485311 -1465996611732 1465996611761 -6121 6120 -53313066 -1465943181138 1465943181138 -1465943181470 1465995991303 -1465995989509 -53438631 -1465996479424 1466015485609 -1466015483815 1465995989507 -1465995991304 1465995991311 -52824644 53327872 18432 -489920 -1465995991284 26305 -12727402 -2200606360403 2200619087806 -12727408 12727408 -12727405 12732656 8272125 -12727409 -116374 -2200619151176 106724 2200619160828 2200619069636 84831 -84846 84833 -84829 84821 -71999 2200619195766 71994 -247770 247765 -12 -84845 84835 -84833 -84828 84827 25 -84843 84829 -2200619160832 -23742 2200619050110 134457 -2200619160824 -14868626 4454644 8469 -8469 -96 -2200619048956 -10356151 10356151 4512520 -49396 3744223414 -4463126 4463127 3744272802 -57856 8465 -84830 -2200619075997 2200619067529 93302 -93302 93320 -2200619185398 2200619185398 -93322 93295 -2200619075999 -23740 2200619100555 -8475 8472 -8473 -288223780699740080 288223780699740078 -8470 93323 -93323 8477 -93303 -93321 -2200619091271 2200619184572 -2200619184537 2200619184537 -2200619184573 2200619184571 -93301 -93320 93321 93318 -93319 -2200619091270 -84836 -8467 -2200619089418 2200619185396 -93318 93322 57856 -57851 8463 -8463 57855 -8462 93315 -93298 93299 -93300 93298 -93297 93303 -93294 93313 -84854 -2200619184591 2200619184569 -2200619267614 2200619267598 -93304 8459 93311 -93310 93316 -2200619185401 2200619185399 -2200619184547 2200619184551 -2200619185394 2200619185393 -93311 93314 -41175 134489 -93312 10414682 -10321372 2200619267609 -93305 93294 -71981 113286 41160 -71989 -21315 93304 71985 -2200619174451 2200619267744 -247749 247744 -35446 -99019 41167 57829 -98966 41136 21316 130549 57828 -188380 130547 -49371 -8458 -2200619091419 2200619091256 -57829 -2200619091424 -2200618919662 2200619091403 -41121 98949 -2200619232187 -8450 8454 -8453 -2200619091257 -49377 2200619091404 -49378 -2200619099877 -657 -129473 122114 
Potential of Offsets elements: 306.452 1221.45 1387.11 28.4522 28.4522 506.452 1193.45 789.452 28.4522 28.4522 28.4522 1062.45 28.4522 1384.12 922.452 28.4522 288.452 590.452 28.4522 28.4522 28.4522 28.4522 28.4522 68.4522 28.4522 28.4522 28.4522 28.4522 28.4522 28.4522 48.4522 35.4522 28.4522 1297.56 29.4522 28.4522 28.4522 28.4522 28.4522 106.452 28.4522 28.4522 28.4522 28.4522 28.4522 68.4522 40.4522 28.4522 28.4522 28.4522 28.4522 52.4522 40.4522 28.4522 284.452 28.4522 28.4522 28.4522 35.4522 28.4522 28.4522 28.4522 39.4522 28.4522 28.4522 39.4522 109.452 40.4522 28.4522 34.4522 28.4522 215.452 28.4522 28.4522 30.4522 45.4522 47.4522 28.4522 28.4522 37.4522 28.4522 36.4522 28.4522 29.4522 28.4522 28.4522 28.4522 28.4522 46.4522 28.4522 165.452 28.4522 28.4522 236.452 28.4522 28.4522 28.4522 42.4522 28.4522 28.4522 28.4522 28.4522 308.452 28.4522 28.4522 28.4522 46.4522 640.452 232.452 28.4522 28.4522 32.4522 118.452 28.4522 28.4522 28.4522 34.4522 189.452 28.4522 28.4522 28.4522 28.4522 28.4522 28.4522 28.4522 28.4522 28.4522 28.4522 28.4522 800.452 28.4522 28.4522 300.452 131.452 830.452 28.4522 28.4522 199.452 175.452 28.4522 28.4522 28.4522 28.4522 28.4522 247.452 28.4522 28.4522 28.4522 28.4522 28.4522 28.4522 28.4522 28.4522 28.4522 28.4522 28.4522 28.4522 28.4522 28.4522 28.4522 28.4522 28.4522 28.4522 28.4522 28.4522 48.4522 29.4522 28.4522 73.4522 28.4522 28.4522 28.4522 36.4522 28.4522 28.4522 32.4522 28.4522 28.4522 28.4522 28.4522 28.4522 28.4522 28.4522 28.4522 28.4522 28.4522 341.452 28.4522 28.4522 28.4522 28.4522 28.4522 28.4522 28.4522 28.4522 28.4522 28.4522 53.4522 42.4522 87.4522 47.4522 28.4522 28.4522 28.4522 28.4522 28.4522 28.4522 28.4522 28.4522 36.4522 35.4522 28.4522 28.4522 28.4522 28.4522 28.4522 28.4522 28.4522 198.452 68.4522 34.4522 28.4522 28.4522 28.4522 28.4522 99.4522 31.4522 28.4522 28.4522 28.4522 28.4522 36.4522 28.4522 28.4522 28.4522 28.4522 28.4522 28.4522 28.4522 28.4522 28.4522 28.4522 28.4522 28.4522 28.4522 28.4522 28.4522 48.4522 28.4522 28.4522 90.4522 28.4522 28.4522 28.4522 28.4522 28.4522 28.4522 28.4522 28.4522 28.4522 109.452 28.4522 28.4522 28.4522 28.4522 28.4522 28.4522 60.4522 28.4522 28.4522 28.4522 28.4522 86.4522 28.4522 28.4522 28.4522 484.452 28.4522 28.4522 28.4522 28.4522 28.4522 131.452 62.4522 28.4522 28.4522 28.4522 504.452 28.4522 28.4522 28.4522 28.4522 28.4522 28.4522 28.4522 28.4522 28.4522 28.4522 28.4522 28.4522 28.4522 28.4522 28.4522 28.4522 28.4522 28.4522 28.4522 28.4522 28.4522 28.4522 28.4522 28.4522 28.4522 28.4522 28.4522 28.4522 28.4522 28.4522 32.4522 28.4522 28.4522 28.4522 28.4522 28.4522 28.4522 28.4522 28.4522 28.4522 28.4522 28.4522 28.4522 28.4522 42.4522 314.452 28.4522 28.4522 28.4522 28.4522 28.4522 44.4522 28.4522 36.4522 28.4522 28.4522 28.4522 28.4522 28.4522 28.4522 28.4522 28.4522 28.4522 28.4522 28.4522 28.4522 28.4522 28.4522 28.4522 28.4522 28.4522 28.4522 28.4522 28.4522 28.4522 28.4522 28.4522 28.4522 28.4522 28.4522 101.452 28.4522 232.452 28.4522 28.4522 28.4522 28.4522 28.4522 28.4522 28.4522 28.4522 28.4522 28.4522 28.4522 28.4522 28.4522 52.4522 28.4522 28.4522 28.4522 28.4522 28.4522 28.4522 28.4522 28.4522 28.4522 28.4522 28.4522 28.4522 28.4522 28.4522 28.4522 28.4522 28.4522 28.4522 28.4522 28.4522 28.4522 28.4522 28.4522 28.4522 36.4522 28.4522 28.4522 28.4522 220.452 28.4522 28.4522 28.4522 28.4522 28.4522 28.4522 53.4522 28.4522 28.4522 87.4522 28.4522 28.4522 28.4522 192.452 28.4522 28.4522 28.4522 28.4522 28.4522 28.4522 28.4522 28.4522 99.4522 28.4522 31.4522 30.4522 28.4522 28.4522 28.4522 28.4522 28.4522 28.4522 28.4522 36.4522 28.4522 28.4522 28.4522 28.4522 28.4522 28.4522 28.4522 28.4522 28.4522 28.4522 28.4522 35.4522 28.4522 63.4522 28.4522 62.4522 116.452 32.4522 28.4522 28.4522 28.4522 28.4522 28.4522 28.4522 28.4522 28.4522 28.4522 28.4522 34.4522 28.4522 28.4522 28.4522 28.4522 42.4522 28.4522 32.4522 28.4522 28.4522 28.4522 28.4522 28.4522 28.4522 28.4522 28.4522 28.4522 28.4522 28.4522 28.4522 28.4522 28.4522 28.4522 46.4522 40.4522 50.4522 28.4522 28.4522 361.452 406.452 52.4522 301.452 28.4522 28.4522 28.4522 28.4522 28.4522 28.4522 28.4522 28.4522 28.4522 28.4522 28.4522 48.4522 28.4522 28.4522 28.4522 28.4522 28.4522 44.4522 28.4522 28.4522 28.4522 28.4522 28.4522 37.4522 28.4522 28.4522 28.4522 28.4522 28.4522 28.4522 28.4522 28.4522 156.452 168.452 65.4522 28.4522 28.4522 28.4522 53.4522 28.4522 28.4522 32.4522 28.4522 28.4522 28.4522 28.4522 28.4522 28.4522 28.4522 33.4522 84.4522 28.4522 28.4522 28.4522 28.4522 28.4522 28.4522 28.4522 61.4522 28.4522 28.4522 206.452 28.4522 28.4522 28.4522 35.4522 64.4522 28.4522 28.4522 28.4522 28.4522 28.4522 28.4522 28.4522 28.4522 28.4522 94.4522 100.452 28.4522 28.4522 28.4522 308.452 88.4522 28.4522 28.4522 38.4522 348.452 28.4522 28.4522 28.4522 60.4522 28.4522 28.4522 28.4522 28.4522 38.4522 36.4522 28.4522 28.4522 28.4522 28.4522 52.4522 28.4522 28.4522 28.4522 116.452 28.4522 28.4522 28.4522 37.4522 28.4522 28.4522 28.4522 28.4522 28.4522 28.4522 28.4522 28.4522 28.4522 64.4522 46.4522 28.4522 28.4522 28.4522 100.452 253.452 28.4522 28.4522 28.4522 282.452 30.4522 28.4522 28.4522 28.4522 28.4522 28.4522 28.4522 28.4522 52.4522 28.4522 28.4522 28.4522 28.4522 37.4522 28.4522 28.4522 28.4522 36.4522 28.4522 28.4522 28.4522 28.4522 44.4522 34.4522 28.4522 28.4522 40.4522 46.4522 28.4522 28.4522 28.4522 28.4522 61.4522 28.4522 373.452 28.4522 28.4522 31.4522 28.4522 28.4522 28.4522 28.4522 32.4522 32.4522 28.4522 28.4522 28.4522 28.4522 28.4522 28.4522 28.4522 28.4522 28.4522 64.4522 28.4522 28.4522 28.4522 28.4522 28.4522 79.4522 28.4522 28.4522 28.4522 28.4522 29.4522 51.4522 53.4522 28.4522 28.4522 28.4522 43.4522 28.4522 28.4522 28.4522 46.4522 74.4522 28.4522 28.4522 31.4522 28.4522 28.4522 28.4522 28.4522 28.4522 28.4522 28.4522 28.4522 28.4522 28.4522 40.4522 28.4522 28.4522 28.4522 37.4522 28.4522 28.4522 28.4522 28.4522 28.4522 28.4522 28.4522 28.4522 31.4522 66.4522 335.452 28.4522 28.4522 83.4522 28.4522 28.4522 28.4522 28.4522 41.4522 28.4522 28.4522 28.4522 28.4522 53.4522 28.4522 28.4522 28.4522 37.4522 28.4522 28.4522 28.4522 28.4522 28.4522 28.4522 28.4522 28.4522 42.4522 39.4522 28.4522 28.4522 28.4522 28.4522 28.4522 28.4522 28.4522 28.4522 58.4522 28.4522 28.4522 28.4522 28.4522 28.4522 28.4522 31.4522 28.4522 118.452 28.4522 28.4522 28.4522 28.4522 55.4522 28.4522 28.4522 28.4522 28.4522 28.4522 28.4522 28.4522 64.4522 63.4522 28.4522 28.4522 28.4522 127.452 119.452 28.4522 28.4522 28.4522 317.452 32.4522 28.4522 28.4522 28.4522 29.4522 28.4522 28.4522 28.4522 28.4522 208.452 46.4522 28.4522 28.4522 28.4522 116.452 28.4522 28.4522 28.4522 37.4522 34.4522 28.4522 28.4522 29.4522 56.4522 28.4522 28.4522 28.4522 28.4522 28.4522 28.4522 28.4522 30.4522 28.4522 93.4522 28.4522 28.4522 36.4522 34.4522 30.4522 28.4522 28.4522 40.4522 28.4522 41.4522 28.4522 28.4522 934.452 117.452 28.4522 28.4522 40.4522 28.4522 114.452 28.4522 28.4522 44.4522 109.452 55.4522 28.4522 28.4522 28.4522 28.4522 30.4522 28.4522 28.4522 28.4522 64.4522 28.4522 28.4522 28.4522 42.4522 68.4522 28.4522 28.4522 31.4522 136.452 28.4522 28.4522 28.4522 75.4522 55.4522 28.4522 28.4522 28.4522 28.4522 28.4522 28.4522 28.4522 28.4522 28.4522 28.4522 28.4522 28.4522 28.4522 30.4522 28.4522 28.4522 66.4522 28.4522 34.4522 28.4522 28.4522 28.4522 28.4522 28.4522 28.4522 40.4522 28.4522 28.4522 28.4522 28.4522 28.4522 28.4522 539.452 28.4522 28.4522 28.4522 28.4522 28.4522 28.4522 28.4522 28.4522 28.4522 28.4522 28.4522 29.4522 28.4522 32.4522 28.4522 28.4522 37.4522 28.4522 28.4522 28.4522 28.4522 28.4522 28.4522 28.4522 28.4522 44.4522 28.4522 28.4522 28.4522 28.4522 28.4522 28.4522 43.4522 28.4522 28.4522 28.4522 28.4522 28.4522 28.4522 28.4522 28.4522 28.4522 28.4522 28.4522 28.4522 28.4522 28.4522 28.4522 28.4522 28.4522 28.4522 28.4522 28.4522 40.4522 28.4522 80.4522 28.4522 28.4522 28.4522 125.452 28.4522 28.4522 28.4522 28.4522 28.4522 28.4522 28.4522 28.4522 28.4522 28.4522 28.4522 28.4522 28.4522 28.4522 28.4522 28.4522 28.4522 28.4522 28.4522 42.4522 28.4522 28.4522 28.4522 28.4522 28.4522 28.4522 28.4522 28.4522 28.4522 28.4522 28.4522 28.4522 28.4522 34.4522 28.4522 28.4522 28.4522 28.4522 28.4522 28.4522 28.4522 28.4522 28.4522 28.4522 28.4522 28.4522 28.4522 28.4522 28.4522 28.4522 113.452 28.4522 28.4522 28.4522 28.4522 28.4522 28.4522 28.4522 28.4522 28.4522 28.4522 28.4522 28.4522 28.4522 28.4522 28.4522 28.4522 28.4522 28.4522 28.4522 28.4522 28.4522 28.4522 28.4522 34.4522 46.4522 28.4522 28.4522 28.4522 28.4522 28.4522 28.4522 28.4522 28.4522 35.4522 28.4522 28.4522 28.4522 334.452 28.4522 28.4522 28.4522 36.4522 28.4522 28.4522 28.4522 28.4522 28.4522 28.4522 30.4522 28.4522 28.4522 28.4522 28.4522 28.4522 28.4522 28.4522 28.4522 28.4522 28.4522 39.4522 28.4522 28.4522 28.4522 28.4522 28.4522 28.4522 28.4522 28.4522 28.4522 28.4522 28.4522 28.4522 28.4522 34.4522 28.4522 28.4522 28.4522 28.4522 126.452 28.4522 28.4522 28.4522 28.4522 42.4522 28.4522 28.4522 28.4522 28.4522 54.4522 28.4522 28.4522 28.4522 72.4522 28.4522 28.4522 28.4522 28.4522 28.4522 28.4522 28.4522 28.4522 28.4522 28.4522 28.4522 28.4522 28.4522 28.4522 28.4522 28.4522 28.4522 28.4522 38.4522 29.4522 28.4522 28.4522 28.4522 28.4522 32.4522 41.4522 28.4522 28.4522 28.4522 28.4522 28.4522 28.4522 28.4522 28.4522 28.4522 48.4522 28.4522 28.4522 28.4522 28.4522 32.4522 28.4522 28.4522 28.4522 41.4522 28.4522 28.4522 28.4522 28.4522 28.4522 28.4522 28.4522 28.4522 32.4522 30.4522 28.4522 28.4522 29.4522 65.4522 28.4522 28.4522 28.4522 29.4522 28.4522 28.4522 28.4522 28.4522 28.4522 28.4522 28.4522 28.4522 28.4522 28.4522 28.4522 28.4522 28.4522 28.4522 28.4522 28.4522 28.4522 28.4522 28.4522 38.4522 28.4522 28.4522 28.4522 28.4522 28.4522 28.4522 28.4522 28.4522 28.4522 28.4522 28.4522 28.4522 28.4522 28.4522 28.4522 28.4522 28.4522 28.4522 28.4522 28.4522 28.4522 28.4522 32.4522 28.4522 28.4522 28.4522 48.4522 28.4522 28.4522 28.4522 28.4522 28.4522 33.4522 28.4522 28.4522 28.4522 33.4522 32.4522 28.4522 28.4522 48.4522 31.4522 31.4522 28.4522 28.4522 82.4522 28.4522 28.4522 28.4522 84.4522 78.4522 28.4522 28.4522 28.4522 28.4522 52.4522 72.4522 82.4522 28.4522 28.4522 32.4522 28.4522 28.4522 28.4522 28.4522 28.4522 28.4522 28.4522 28.4522 28.4522 42.4522 28.4522 28.4522 28.4522 28.4522 28.4522 28.4522 28.4522 28.4522 28.4522 28.4522 28.4522 28.4522 28.4522 28.4522 28.4522 28.4522 28.4522 28.4522 28.4522 28.4522 28.4522 28.4522 28.4522 35.4522 28.4522 28.4522 28.4522 56.4522 28.4522 28.4522 28.4522 28.4522 28.4522 28.4522 28.4522 28.4522 28.4522 33.4522 28.4522 28.4522 28.4522 28.4522 28.4522 28.4522 28.4522 28.4522 28.4522 28.4522 28.4522 28.4522 28.4522 28.4522 28.4522 28.4522 28.4522 28.4522 28.4522 28.4522 28.4522 32.4522 38.4522 28.4522 28.4522 28.4522 28.4522 28.4522 28.4522 28.4522 39.4522 28.4522 28.4522 28.4522 28.4522 28.4522 28.4522 28.4522 28.4522 28.4522 28.4522 28.4522 28.4522 28.4522 28.4522 28.4522 28.4522 28.4522 28.4522 28.4522 28.4522 28.4522 28.4522 28.4522 28.4522 28.4522 28.4522 28.4522 28.4522 28.4522 28.4522 28.4522 28.4522 28.4522 28.4522 28.4522 28.4522 28.4522 28.4522 28.4522 28.4522 38.4522 28.4522 28.4522 28.4522 28.4522 28.4522 28.4522 28.4522 28.4522 28.4522 28.4522 28.4522 28.4522 28.4522 50.4522 28.4522 28.4522 28.4522 28.4522 28.4522 28.4522 28.4522 28.4522 28.4522 28.4522 28.4522 28.4522 28.4522 28.4522 28.4522 28.4522 28.4522 28.4522 28.4522 36.4522 28.4522 28.4522 28.4522 28.4522 28.4522 28.4522 28.4522 28.4522 28.4522 28.4522 28.4522 28.4522 28.4522 28.4522 28.4522 28.4522 43.4522 28.4522 28.4522 28.4522 28.4522 31.4522 28.4522 28.4522 202.452 28.4522 28.4522 28.4522 28.4522 42.4522 28.4522 28.4522 28.4522 95.4522 28.4522 35.4522 28.4522 28.4522 28.4522 28.4522 28.4522 28.4522 28.4522 28.4522 28.4522 28.4522 28.4522 28.4522 28.4522 28.4522 28.4522 28.4522 28.4522 28.4522 28.4522 28.4522 28.4522 28.4522 28.4522 28.4522 28.4522 28.4522 28.4522 28.4522 28.4522 28.4522 28.4522 28.4522 28.4522 28.4522 28.4522 28.4522 28.4522 28.4522 28.4522 28.4522 28.4522 28.4522 28.4522 28.4522 29.4522 35.4522 51.4522 28.4522 28.4522 28.4522 28.4522 58.4522 32.4522 28.4522 28.4522 35.4522 43.4522 94.4522 30.4522 28.4522 108.452 28.4522 28.4522 28.4522 28.4522 28.4522 28.4522 28.4522 28.4522 28.4522 28.4522 28.4522 28.4522 28.4522 28.4522 28.4522 28.4522 28.4522 42.4522 28.4522 41.4522 34.4522 28.4522 28.4522 41.4522 28.4522 28.4522 28.4522 28.4522 28.4522 28.4522 28.4522 28.4522 28.4522 44.4522 34.4522 28.4522 28.4522 29.4522 28.4522 28.4522 28.4522 28.4522 28.4522 28.4522 28.4522 28.4522 28.4522 28.4522 28.4522 39.4522 28.4522 28.4522 28.4522 28.4522 28.4522 28.4522 28.4522 28.4522 28.4522 28.4522 28.4522 28.4522 28.4522 28.4522 28.4522 160.452 144.452 33.4522 28.4522 28.4522 28.4522 28.4522 28.4522 28.4522 28.4522 29.4522 28.4522 28.4522 28.4522 28.4522 28.4522 28.4522 28.4522 28.4522 28.4522 28.4522 28.4522 28.4522 28.4522 28.4522 28.4522 28.4522 28.4522 28.4522 28.4522 28.4522 60.4522 28.4522 28.4522 28.4522 28.4522 28.4522 28.4522 28.4522 28.4522 28.4522 28.4522 28.4522 28.4522 28.4522 28.4522 28.4522 28.4522 28.4522 28.4522 39.4522 28.4522 28.4522 28.4522 28.4522 28.4522 28.4522 28.4522 28.4522 28.4522 28.4522 28.4522 28.4522 28.4522 28.4522 28.4522 28.4522 28.4522 28.4522 28.4522 28.4522 28.4522 28.4522 28.4522 28.4522 31.4522 46.4522 29.4522 28.4522 30.4522 28.4522 28.4522 28.4522 29.4522 28.4522 28.4522 28.4522 28.4522 28.4522 28.4522 28.4522 28.4522 28.4522 28.4522 50.4522 28.4522 28.4522 28.4522 28.4522 28.4522 28.4522 28.4522 28.4522 64.4522 127.452 28.4522 28.4522 28.4522 28.4522 28.4522 28.4522 28.4522 28.4522 204.452 32.4522 28.4522 28.4522 73.4522 28.4522 28.4522 28.4522 28.4522 183.452 28.4522 28.4522 28.4522 28.4522 28.4522 28.4522 28.4522 28.4522 34.4522 136.452 28.4522 28.4522 28.4522 28.4522 28.4522 28.4522 28.4522 28.4522 41.4522 28.4522 28.4522 29.4522 28.4522 28.4522 28.4522 28.4522 28.4522 28.4522 28.4522 28.4522 28.4522 28.4522 28.4522 70.4522 28.4522 28.4522 28.4522 48.4522 28.4522 28.4522 28.4522 28.4522 31.4522 28.4522 28.4522 28.4522 28.4522 42.4522 28.4522 28.4522 28.4522 31.4522 28.4522 28.4522 28.4522 28.4522 35.4522 28.4522 28.4522 28.4522 71.4522 28.4522 28.4522 28.4522 28.4522 62.4522 28.4522 28.4522 28.4522 28.4522 100.452 28.4522 28.4522 28.4522 28.4522 68.4522 28.4522 28.4522 28.4522 28.4522 34.4522 28.4522 28.4522 28.4522 35.4522 28.4522 28.4522 28.4522 28.4522 28.4522 28.4522 28.4522 28.4522 28.4522 28.4522 29.4522 28.4522 28.4522 28.4522 28.4522 28.4522 28.4522 28.4522 57.4522 28.4522 28.4522 28.4522 28.4522 32.4522 28.4522 28.4522 28.4522 28.4522 28.4522 28.4522 28.4522 28.4522 28.4522 28.4522 28.4522 28.4522 28.4522 28.4522 28.4522 28.4522 30.4522 70.4522 28.4522 28.4522 28.4522 28.4522 28.4522 28.4522 28.4522 28.4522 28.4522 28.4522 28.4522 164.452 28.4522 28.4522 28.4522 28.4522 28.4522 28.4522 28.4522 28.4522 28.4522 44.4522 131.452 28.4522 28.4522 28.4522 28.4522 56.4522 28.4522 28.4522 34.4522 28.4522 28.4522 28.4522 28.4522 28.4522 28.4522 35.4522 42.4522 28.4522 28.4522 28.4522 28.4522 30.4522 28.4522 28.4522 28.4522 58.4522 28.4522 28.4522 28.4522 32.4522 149.452 28.4522 28.4522 28.4522 28.4522 28.4522 28.4522 28.4522 28.4522 28.4522 28.4522 28.4522 28.4522 36.4522 59.4522 28.4522 28.4522 82.4522 28.4522 28.4522 28.4522 28.4522 30.4522 28.4522 32.4522 28.4522 28.4522 34.4522 28.4522 28.4522 28.4522 28.4522 28.4522 28.4522 28.4522 544.452 28.4522 35.4522 28.4522 28.4522 28.4522 104.452 28.4522 28.4522 28.4522 28.4522 28.4522 28.4522 28.4522 32.4522 28.4522 28.4522 28.4522 28.4522 28.4522 28.4522 28.4522 28.4522 28.4522 28.4522 28.4522 40.4522 28.4522 28.4522 28.4522 30.4522 29.4522 28.4522 28.4522 28.4522 28.4522 28.4522 28.4522 28.4522 28.4522 47.4522 28.4522 84.4522 28.4522 28.4522 28.4522 28.4522 28.4522 28.4522 28.4522 28.4522 28.4522 28.4522 28.4522 28.4522 28.4522 28.4522 28.4522 28.4522 28.4522 28.4522 28.4522 28.4522 28.4522 28.4522 28.4522 28.4522 28.4522 28.4522 28.4522 28.4522 28.4522 28.4522 28.4522 28.4522 32.4522 28.4522 28.4522 28.4522 28.4522 28.4522 28.4522 28.4522 28.4522 28.4522 28.4522 28.4522 28.4522 28.4522 28.4522 28.4522 28.4522 28.4522 28.4522 28.4522 28.4522 28.4522 28.4522 28.4522 28.4522 28.4522 28.4522 28.4522 28.4522 28.4522 28.4522 28.4522 28.4522 28.4522 28.4522 28.4522 28.4522 28.4522 28.4522 28.4522 28.4522 28.4522 28.4522 28.4522 28.4522 28.4522 28.4522 28.4522 28.4522 28.4522 28.4522 28.4522 28.4522 28.4522 28.4522 28.4522 28.4522 28.4522 28.4522 28.4522 28.4522 28.4522 28.4522 28.4522 28.4522 28.4522 28.4522 28.4522 28.4522 28.4522 28.4522 28.4522 28.4522 28.4522 28.4522 28.4522 28.4522 28.4522 28.4522 48.4522 28.4522 28.4522 
rewards of Offsets elements: 278 1193 1387 0 0 478 1165 761 0 0 0 1034 0 1364 894 0 260 562 0 0 0 0 0 40 0 0 0 0 0 0 20 7 0 1297 1 0 0 0 0 78 0 0 0 0 0 40 12 0 0 0 0 24 12 0 256 0 0 0 7 0 0 0 11 0 0 11 81 12 0 6 0 187 0 0 2 17 19 0 0 9 0 8 0 1 0 0 0 0 18 0 137 0 0 208 0 0 0 14 0 0 0 0 280 0 0 0 18 612 204 0 0 4 90 0 0 0 6 161 0 0 0 0 0 0 0 0 0 0 0 772 0 0 272 103 802 0 0 171 147 0 0 0 0 0 219 0 0 0 0 0 0 0 0 0 0 0 0 0 0 0 0 0 0 0 0 20 1 0 45 0 0 0 8 0 0 4 0 0 0 0 0 0 0 0 0 0 313 0 0 0 0 0 0 0 0 0 0 25 14 59 19 0 0 0 0 0 0 0 0 8 7 0 0 0 0 0 0 0 170 40 6 0 0 0 0 71 3 0 0 0 0 8 0 0 0 0 0 0 0 0 0 0 0 0 0 0 0 20 0 0 62 0 0 0 0 0 0 0 0 0 81 0 0 0 0 0 0 32 0 0 0 0 58 0 0 0 456 0 0 0 0 0 103 34 0 0 0 476 0 0 0 0 0 0 0 0 0 0 0 0 0 0 0 0 0 0 0 0 0 0 0 0 0 0 0 0 0 0 4 0 0 0 0 0 0 0 0 0 0 0 0 0 14 286 0 0 0 0 0 16 0 8 0 0 0 0 0 0 0 0 0 0 0 0 0 0 0 0 0 0 0 0 0 0 0 0 0 0 73 0 204 0 0 0 0 0 0 0 0 0 0 0 0 0 24 0 0 0 0 0 0 0 0 0 0 0 0 0 0 0 0 0 0 0 0 0 0 0 0 8 0 0 0 192 0 0 0 0 0 0 25 0 0 59 0 0 0 164 0 0 0 0 0 0 0 0 71 0 3 2 0 0 0 0 0 0 0 8 0 0 0 0 0 0 0 0 0 0 0 7 0 35 0 34 88 4 0 0 0 0 0 0 0 0 0 0 6 0 0 0 0 14 0 4 0 0 0 0 0 0 0 0 0 0 0 0 0 0 0 18 12 22 0 0 333 378 24 273 0 0 0 0 0 0 0 0 0 0 0 20 0 0 0 0 0 16 0 0 0 0 0 9 0 0 0 0 0 0 0 0 128 140 37 0 0 0 25 0 0 4 0 0 0 0 0 0 0 5 56 0 0 0 0 0 0 0 33 0 0 178 0 0 0 7 36 0 0 0 0 0 0 0 0 0 66 72 0 0 0 280 60 0 0 10 320 0 0 0 32 0 0 0 0 10 8 0 0 0 0 24 0 0 0 88 0 0 0 9 0 0 0 0 0 0 0 0 0 36 18 0 0 0 72 225 0 0 0 254 2 0 0 0 0 0 0 0 24 0 0 0 0 9 0 0 0 8 0 0 0 0 16 6 0 0 12 18 0 0 0 0 33 0 345 0 0 3 0 0 0 0 4 4 0 0 0 0 0 0 0 0 0 36 0 0 0 0 0 51 0 0 0 0 1 23 25 0 0 0 15 0 0 0 18 46 0 0 3 0 0 0 0 0 0 0 0 0 0 12 0 0 0 9 0 0 0 0 0 0 0 0 3 38 307 0 0 55 0 0 0 0 13 0 0 0 0 25 0 0 0 9 0 0 0 0 0 0 0 0 14 11 0 0 0 0 0 0 0 0 30 0 0 0 0 0 0 3 0 90 0 0 0 0 27 0 0 0 0 0 0 0 36 35 0 0 0 99 91 0 0 0 289 4 0 0 0 1 0 0 0 0 180 18 0 0 0 88 0 0 0 9 6 0 0 1 28 0 0 0 0 0 0 0 2 0 65 0 0 8 6 2 0 0 12 0 13 0 0 906 89 0 0 12 0 86 0 0 16 81 27 0 0 0 0 2 0 0 0 36 0 0 0 14 40 0 0 3 108 0 0 0 47 27 0 0 0 0 0 0 0 0 0 0 0 0 0 2 0 0 38 0 6 0 0 0 0 0 0 12 0 0 0 0 0 0 511 0 0 0 0 0 0 0 0 0 0 0 1 0 4 0 0 9 0 0 0 0 0 0 0 0 16 0 0 0 0 0 0 15 0 0 0 0 0 0 0 0 0 0 0 0 0 0 0 0 0 0 0 0 12 0 52 0 0 0 97 0 0 0 0 0 0 0 0 0 0 0 0 0 0 0 0 0 0 0 14 0 0 0 0 0 0 0 0 0 0 0 0 0 6 0 0 0 0 0 0 0 0 0 0 0 0 0 0 0 0 85 0 0 0 0 0 0 0 0 0 0 0 0 0 0 0 0 0 0 0 0 0 0 0 6 18 0 0 0 0 0 0 0 0 7 0 0 0 306 0 0 0 8 0 0 0 0 0 0 2 0 0 0 0 0 0 0 0 0 0 11 0 0 0 0 0 0 0 0 0 0 0 0 0 6 0 0 0 0 98 0 0 0 0 14 0 0 0 0 26 0 0 0 44 0 0 0 0 0 0 0 0 0 0 0 0 0 0 0 0 0 0 10 1 0 0 0 0 4 13 0 0 0 0 0 0 0 0 0 20 0 0 0 0 4 0 0 0 13 0 0 0 0 0 0 0 0 4 2 0 0 1 37 0 0 0 1 0 0 0 0 0 0 0 0 0 0 0 0 0 0 0 0 0 0 0 10 0 0 0 0 0 0 0 0 0 0 0 0 0 0 0 0 0 0 0 0 0 0 4 0 0 0 20 0 0 0 0 0 5 0 0 0 5 4 0 0 20 3 3 0 0 54 0 0 0 56 50 0 0 0 0 24 44 54 0 0 4 0 0 0 0 0 0 0 0 0 14 0 0 0 0 0 0 0 0 0 0 0 0 0 0 0 0 0 0 0 0 0 0 0 7 0 0 0 28 0 0 0 0 0 0 0 0 0 5 0 0 0 0 0 0 0 0 0 0 0 0 0 0 0 0 0 0 0 0 0 4 10 0 0 0 0 0 0 0 11 0 0 0 0 0 0 0 0 0 0 0 0 0 0 0 0 0 0 0 0 0 0 0 0 0 0 0 0 0 0 0 0 0 0 0 0 0 0 0 0 10 0 0 0 0 0 0 0 0 0 0 0 0 0 22 0 0 0 0 0 0 0 0 0 0 0 0 0 0 0 0 0 0 0 8 0 0 0 0 0 0 0 0 0 0 0 0 0 0 0 0 15 0 0 0 0 3 0 0 174 0 0 0 0 14 0 0 0 67 0 7 0 0 0 0 0 0 0 0 0 0 0 0 0 0 0 0 0 0 0 0 0 0 0 0 0 0 0 0 0 0 0 0 0 0 0 0 0 0 0 0 0 0 0 0 1 7 23 0 0 0 0 30 4 0 0 7 15 66 2 0 80 0 0 0 0 0 0 0 0 0 0 0 0 0 0 0 0 0 14 0 13 6 0 0 13 0 0 0 0 0 0 0 0 0 16 6 0 0 1 0 0 0 0 0 0 0 0 0 0 0 11 0 0 0 0 0 0 0 0 0 0 0 0 0 0 0 132 116 5 0 0 0 0 0 0 0 1 0 0 0 0 0 0 0 0 0 0 0 0 0 0 0 0 0 0 0 0 32 0 0 0 0 0 0 0 0 0 0 0 0 0 0 0 0 0 0 11 0 0 0 0 0 0 0 0 0 0 0 0 0 0 0 0 0 0 0 0 0 0 0 0 3 18 1 0 2 0 0 0 1 0 0 0 0 0 0 0 0 0 0 22 0 0 0 0 0 0 0 0 36 99 0 0 0 0 0 0 0 0 176 4 0 0 45 0 0 0 0 155 0 0 0 0 0 0 0 0 6 108 0 0 0 0 0 0 0 0 13 0 0 1 0 0 0 0 0 0 0 0 0 0 0 42 0 0 0 20 0 0 0 0 3 0 0 0 0 14 0 0 0 3 0 0 0 0 7 0 0 0 43 0 0 0 0 34 0 0 0 0 72 0 0 0 0 40 0 0 0 0 6 0 0 0 7 0 0 0 0 0 0 0 0 0 0 1 0 0 0 0 0 0 0 29 0 0 0 0 4 0 0 0 0 0 0 0 0 0 0 0 0 0 0 0 0 2 42 0 0 0 0 0 0 0 0 0 0 0 136 0 0 0 0 0 0 0 0 0 16 103 0 0 0 0 28 0 0 6 0 0 0 0 0 0 7 14 0 0 0 0 2 0 0 0 30 0 0 0 4 121 0 0 0 0 0 0 0 0 0 0 0 0 8 31 0 0 54 0 0 0 0 2 0 4 0 0 6 0 0 0 0 0 0 0 516 0 7 0 0 0 76 0 0 0 0 0 0 0 4 0 0 0 0 0 0 0 0 0 0 0 12 0 0 0 2 1 0 0 0 0 0 0 0 0 19 0 56 0 0 0 0 0 0 0 0 0 0 0 0 0 0 0 0 0 0 0 0 0 0 0 0 0 0 0 0 0 0 0 0 4 0 0 0 0 0 0 0 0 0 0 0 0 0 0 0 0 0 0 0 0 0 0 0 0 0 0 0 0 0 0 0 0 0 0 0 0 0 0 0 0 0 0 0 0 0 0 0 0 0 0 0 0 0 0 0 0 0 0 0 0 0 0 0 0 0 0 0 0 0 0 0 0 0 0 0 0 0 0 20 0 0 Printing Sanity3
offset_index value2083
offset list size2083
reward size2083
potential size2083
-----------------------------------------------------------------------------------------------------------------------------------------------------------------------------------------------------

DRAM Statistics
 CHANNEL 0
 RQ ROW_BUFFER_HIT:      25839  ROW_BUFFER_MISS:      91366
 DBUS_CONGESTED:         35
 WQ ROW_BUFFER_HIT:       5756  ROW_BUFFER_MISS:      31533  FULL:          0

 AVG_CONGESTED_CYCLE: 4
 All warmup complete: 2
Channel 0 Bank busy for read cycles: 0
Channel 0 Bank busy for write cycles: 0
Channel 0
Rank 0
0banks busy for read cycles: 388729360
0banks busy for write cycles: 25439
1banks busy for read cycles: 5190837
1banks busy for write cycles: 3921085
2banks busy for read cycles: 3599518
2banks busy for write cycles: 773693
3banks busy for read cycles: 470946
3banks busy for write cycles: 111953
4banks busy for read cycles: 35824
4banks busy for write cycles: 51266
5banks busy for read cycles: 26218
5banks busy for write cycles: 18337
6banks busy for read cycles: 29915
6banks busy for write cycles: 14151
7banks busy for read cycles: 36068
7banks busy for write cycles: 11500
8banks busy for read cycles: 62302
8banks busy for write cycles: 11307

CPU 0 Branch Prediction Accuracy: 99.9778% MPKI: 0.038155 Average ROB Occupancy at Mispredict: 21.6644
Branch types
NOT_BRANCH: 165656550 82.8283%
BRANCH_DIRECT_JUMP: 2068715 1.03436%
BRANCH_INDIRECT: 12589489 6.29474%
BRANCH_CONDITIONAL: 10225817 5.11291%
BRANCH_DIRECT_CALL: 3834256 1.91713%
BRANCH_INDIRECT_CALL: 895479 0.44774%
BRANCH_RETURN: 4729714 2.36486%
BRANCH_OTHER: 0 0%

DRAM PAGES: 1048576
Allocated PAGES: 5748
