
*** ChampSim Multicore Out-of-Order Simulator ***

Warmup Instructions: 50000000
Simulation Instructions: 200000000
Number of CPUs: 1
LLC sets: 2048
LLC ways: 16
Off-chip DRAM Size: 4096 MB Channels: 1 Width: 64-bit Data Rate: 6400 MT/s
CPU 0 runs traces/spec2k17/server_025.champsimtrace.xz
.xz
BTB has LRU replacement policy
ITLB has LRU replacement policy
DTLB has LRU replacement policy
STLB has LRU replacement policy
L1I has LRU replacement policy
L1D has LRU replacement policy
Initialize SRRIP state for L2C
Initialize DRRIP state for LLC
Offsets elements: 
Potential of Offsets elements: 
rewards of Offsets elements: 
Printing Sanity1
offset list size2158
Offsets elements: 
Potential of Offsets elements: 
rewards of Offsets elements: 419 43 53 745 0 0 147 0 1 0 0 1185 0 0 0 0 0 0 0 0 0 0 864 0 0 0 0 0 2228 0 0 0 0 966 0 0 0 4 0 0 0 0 0 0 0 0 0 0 0 8 0 0 0 1238 0 49 0 0 0 0 0 0 0 0 0 0 0 0 0 0 0 0 0 0 0 0 0 0 0 0 0 0 0 0 0 0 0 0 0 0 0 0 210 0 0 485 0 0 0 0 0 0 0 0 0 0 0 0 0 429 631 0 0 0 1 492 0 0 0 0 59 105 0 0 0 0 0 0 10 0 0 0 99 0 0 0 0 0 0 0 25 0 0 0 0 0 0 0 0 0 0 0 0 0 0 0 3 0 34 0 0 0 0 0 236 0 0 0 0 0 0 0 0 0 0 0 0 0 0 0 0 0 0 0 0 0 0 0 0 0 0 0 0 0 0 1587 0 0 0 0 16 0 2 0 0 0 0 0 0 0 0 173 0 0 0 0 15 0 0 0 0 0 0 0 0 0 0 0 0 0 0 0 0 0 0 0 4 0 2205 0 80 72 130 0 1 140 266 20 0 0 8 0 0 0 0 0 0 0 0 0 0 1764 0 0 0 0 0 0 158 0 0 0 0 0 1150 0 0 0 0 0 0 0 50 0 0 0 0 0 0 18 185 0 0 0 0 0 20 0 18 0 0 0 0 0 0 1 0 0 1 0 0 0 0 0 0 0 0 0 0 17 34 0 0 14 0 0 0 0 0 0 0 0 0 0 21 0 0 0 0 0 18 0 0 0 0 0 0 0 0 0 0 0 0 0 0 0 0 0 0 0 0 0 0 0 0 0 6 0 326 0 0 0 0 0 0 0 0 0 0 0 0 4 0 6 0 5 0 0 0 0 4 1 1 0 0 0 0 0 0 0 0 0 0 1 0 0 90 1 0 0 8 0 0 124 0 0 0 0 0 0 0 2 0 0 34 0 0 0 0 0 0 1 0 0 0 0 0 0 0 0 0 0 0 0 0 0 0 0 0 0 0 0 0 0 0 0 0 66 0 0 0 0 0 0 0 0 0 6 0 0 200 136 0 414 64 0 0 0 0 1 0 0 0 247 0 0 0 0 0 0 0 0 0 0 0 0 0 81 1 0 0 5 0 0 0 0 34 0 0 0 289 0 0 0 0 0 0 0 0 0 0 0 0 0 0 0 0 0 0 0 1 74 0 0 0 0 0 0 0 0 0 0 0 1 24 0 0 0 0 0 0 220 0 0 0 0 0 0 0 0 245 246 0 9 0 0 0 0 0 0 0 0 0 0 0 1 0 0 0 0 0 7 0 0 250 0 0 0 0 0 0 53 5 0 0 0 0 0 0 0 0 0 0 0 0 0 0 0 0 0 0 0 0 1 0 0 0 0 222 0 0 0 0 0 0 0 6 0 0 0 0 0 0 0 0 0 0 0 0 0 0 0 0 0 0 0 0 0 0 0 0 24 36 0 0 0 0 16 96 220 3 0 0 0 0 0 0 0 0 0 0 0 0 0 0 0 0 0 0 0 0 0 0 0 0 16 301 0 0 0 135 336 0 450 0 0 0 8 0 0 0 0 0 0 0 0 165 0 0 0 0 0 0 0 0 0 0 0 0 0 0 0 0 0 0 0 0 0 0 201 0 0 0 0 0 0 0 0 0 8 0 0 0 0 0 0 704 0 0 0 0 0 0 0 0 0 0 0 0 9 0 0 0 0 0 20 0 2 0 0 0 0 9 56 0 244 31 0 0 14 40 0 0 0 0 0 0 4 0 0 0 0 0 0 0 0 0 0 0 0 0 63 0 0 0 0 0 0 48 433 0 16 16 0 46 0 0 699 0 176 0 0 0 0 0 231 28 0 0 0 0 0 0 0 429 4 0 0 0 0 47 0 0 0 0 0 0 0 0 0 0 0 0 0 0 0 0 0 0 0 0 0 0 0 0 0 0 0 0 0 0 0 0 0 0 6 72 0 0 0 0 0 0 6 0 0 0 0 0 85 363 20 0 76 61 0 54 0 0 0 25 0 0 0 0 0 0 0 0 0 0 0 0 13 0 4 0 3 6 0 0 0 0 15 0 1 0 300 4 0 1 0 0 0 0 0 0 0 0 0 0 0 70 151 0 0 0 0 0 0 4 0 0 0 0 0 0 0 0 266 0 0 220 1 0 0 0 0 0 581 0 0 0 0 0 0 0 0 0 0 0 0 0 0 0 0 0 0 0 0 0 0 0 0 57 627 34 15 16 0 0 0 2 510 7 0 0 0 0 0 0 0 0 0 7 0 0 0 0 0 0 0 0 0 0 0 112 0 0 0 0 1 0 123 0 6 0 0 0 0 0 0 0 0 0 0 0 0 0 0 0 0 0 0 0 13 7 74 60 0 0 0 0 0 0 0 0 0 0 0 0 0 0 0 0 0 0 0 0 0 0 0 0 0 6 0 0 0 0 39 0 0 0 0 78 0 0 0 0 0 0 20 0 0 0 0 0 0 0 0 0 0 0 0 0 0 0 0 0 0 0 0 0 0 0 0 0 0 0 0 4 0 0 0 0 0 0 0 0 0 0 0 0 0 26 0 0 0 0 0 0 0 0 0 0 0 0 0 0 0 0 0 126 0 0 0 0 0 0 0 0 0 0 0 0 0 228 0 0 0 0 0 0 20 0 40 0 1 0 105 15 0 0 0 0 0 1 0 0 0 0 0 0 0 0 0 0 0 0 0 1 0 0 0 0 0 0 0 0 0 0 0 0 0 0 0 0 0 0 0 0 0 0 0 0 0 0 0 0 0 38 0 0 0 0 0 0 0 0 0 0 0 0 0 0 0 0 0 0 0 0 0 0 0 0 0 520 0 0 2 0 0 0 0 0 0 0 0 0 0 0 0 0 0 0 0 0 0 0 0 0 0 0 0 0 0 0 0 0 0 0 0 0 0 0 0 0 329 0 0 0 0 0 0 132 32 0 4 0 0 0 0 0 0 0 0 118 2 0 144 12 102 42 9 0 0 0 12 3 0 0 0 0 0 0 0 0 0 0 0 0 0 0 0 28 12 0 0 92 0 0 0 0 0 0 0 0 0 0 0 385 166 0 0 1 0 0 0 0 0 0 0 0 0 0 0 0 165 153 0 0 8 0 0 0 0 0 0 0 0 0 1 0 0 0 0 0 0 0 0 0 0 0 0 0 31 0 0 0 0 0 0 0 0 0 0 0 0 0 0 0 0 0 0 0 0 0 0 0 0 0 16 0 0 0 0 0 0 70 0 0 0 0 0 0 0 0 0 0 0 0 0 0 175 42 0 0 0 0 0 0 7 0 16 51 84 0 0 15 28 0 14 0 0 0 0 0 0 0 0 0 0 0 0 0 0 0 0 0 0 0 0 0 0 0 0 2 0 0 0 0 0 0 11 0 0 0 0 0 0 0 0 0 0 0 0 0 0 0 0 0 0 0 0 0 3 0 0 0 0 0 0 0 0 0 0 0 0 0 0 0 0 0 10 0 0 0 6 0 0 0 0 8 172 0 0 5 158 0 0 0 0 0 0 0 0 0 0 0 0 0 0 0 0 0 0 0 0 0 0 0 0 0 0 0 17 3 8 0 0 0 0 0 0 0 0 0 52 202 0 0 0 0 0 0 0 0 0 0 0 0 0 0 0 0 0 0 0 1 0 0 0 0 0 0 0 0 0 0 0 0 0 0 30 0 0 0 0 0 0 0 0 2 0 60 144 6 0 0 0 0 0 2 0 0 0 0 0 0 0 0 0 3 0 0 0 0 0 0 0 1 18 130 160 176 0 0 0 0 0 0 0 0 0 0 0 0 0 0 281 0 338 0 0 0 0 0 0 0 0 0 0 0 0 0 0 0 0 0 0 0 0 0 0 0 0 147 60 11 2 0 0 0 0 0 0 0 0 0 0 0 0 24 2 74 0 0 0 0 6 0 0 0 0 0 0 0 0 0 0 0 0 0 0 0 0 0 0 0 0 93 0 0 0 0 0 0 0 0 0 0 0 0 0 0 0 20 0 1 0 50 90 0 0 0 0 0 0 0 0 0 0 0 0 10 0 0 0 0 0 0 0 0 0 0 0 0 0 0 0 0 0 0 0 0 0 0 0 0 0 0 0 101 0 0 0 0 0 0 0 4 0 0 0 0 0 0 0 0 0 0 0 0 0 0 9 0 0 0 0 0 0 0 0 0 0 0 0 0 0 0 0 0 0 0 0 0 0 0 0 0 0 0 0 0 1 0 0 0 0 0 0 0 0 0 0 0 313 148 0 42 0 0 0 0 0 168 0 0 0 897 0 0 0 0 0 0 0 0 0 0 0 0 0 3 0 0 0 0 0 0 0 0 0 0 0 0 0 0 0 183 0 168 0 0 0 0 0 0 0 0 0 0 0 0 0 0 0 7 3 2 0 0 0 0 0 0 0 0 0 0 0 0 0 260 0 0 0 0 0 0 0 0 0 0 0 0 0 0 0 0 31 0 0 0 0 0 0 0 0 0 0 0 52 0 0 0 0 0 0 0 0 0 0 0 0 0 0 45 24 0 0 0 0 5 0 0 0 0 0 0 0 0 0 0 0 0 0 0 0 0 0 0 0 0 258 24 11 0 0 0 0 0 0 0 0 0 0 0 0 0 0 0 0 0 0 0 0 0 0 0 0 0 0 0 0 0 0 0 0 0 0 0 0 0 0 0 0 0 0 35 5 0 0 0 0 0 0 0 0 0 2 0 0 0 0 9 6 0 0 0 10 18 0 0 0 0 0 0 0 1 0 96 1 0 0 0 3 0 0 0 0 78 120 0 0 0 0 0 0 0 0 0 0 0 0 0 0 0 15 36 0 0 0 0 56 8 0 
Printing Sanity2
Heartbeat CPU 0 instructions: 10000003 cycles: 2863958 heartbeat IPC: 3.49167 cumulative IPC: 3.49167 (Simulation time: 0 hr 0 min 20 sec) 
Heartbeat CPU 0 instructions: 20000000 cycles: 5897804 heartbeat IPC: 3.29615 cumulative IPC: 3.39109 (Simulation time: 0 hr 0 min 39 sec) 
Heartbeat CPU 0 instructions: 30000002 cycles: 8904908 heartbeat IPC: 3.32546 cumulative IPC: 3.36893 (Simulation time: 0 hr 0 min 59 sec) 
Heartbeat CPU 0 instructions: 40000001 cycles: 11906041 heartbeat IPC: 3.33207 cumulative IPC: 3.35964 (Simulation time: 0 hr 1 min 19 sec) 
Heartbeat CPU 0 instructions: 50000001 cycles: 14939353 heartbeat IPC: 3.29673 cumulative IPC: 3.34687 (Simulation time: 0 hr 1 min 38 sec) 

Warmup complete CPU 0 instructions: 50000001 cycles: 14939353 (Simulation time: 0 hr 1 min 38 sec) 

Heartbeat CPU 0 instructions: 60000000 cycles: 47102691 heartbeat IPC: 0.310913 cumulative IPC: 0.310913 (Simulation time: 0 hr 2 min 15 sec) 
Heartbeat CPU 0 instructions: 70000003 cycles: 79388559 heartbeat IPC: 0.309733 cumulative IPC: 0.310322 (Simulation time: 0 hr 2 min 52 sec) 
Heartbeat CPU 0 instructions: 80000000 cycles: 111772728 heartbeat IPC: 0.308793 cumulative IPC: 0.309811 (Simulation time: 0 hr 3 min 30 sec) 
Heartbeat CPU 0 instructions: 90000000 cycles: 144132775 heartbeat IPC: 0.309023 cumulative IPC: 0.309613 (Simulation time: 0 hr 4 min 7 sec) 
Heartbeat CPU 0 instructions: 100000000 cycles: 163967106 heartbeat IPC: 0.504176 cumulative IPC: 0.335508 (Simulation time: 0 hr 4 min 40 sec) 
*** Reached end of trace for Core: 0 Repeating trace: traces/spec2k17/server_025.champsimtrace.xz
Heartbeat CPU 0 instructions: 110000000 cycles: 196073886 heartbeat IPC: 0.311461 cumulative IPC: 0.331246 (Simulation time: 0 hr 5 min 18 sec) 
Heartbeat CPU 0 instructions: 120000000 cycles: 228099062 heartbeat IPC: 0.312254 cumulative IPC: 0.328392 (Simulation time: 0 hr 5 min 55 sec) 
Heartbeat CPU 0 instructions: 130000001 cycles: 260345624 heartbeat IPC: 0.310111 cumulative IPC: 0.32599 (Simulation time: 0 hr 6 min 31 sec) 
Heartbeat CPU 0 instructions: 140000002 cycles: 292399780 heartbeat IPC: 0.311972 cumulative IPC: 0.324371 (Simulation time: 0 hr 7 min 8 sec) 
Heartbeat CPU 0 instructions: 150000000 cycles: 324481505 heartbeat IPC: 0.311704 cumulative IPC: 0.323058 (Simulation time: 0 hr 7 min 45 sec) 
Heartbeat CPU 0 instructions: 160000000 cycles: 356740682 heartbeat IPC: 0.309989 cumulative IPC: 0.321824 (Simulation time: 0 hr 8 min 22 sec) 
Heartbeat CPU 0 instructions: 170000000 cycles: 388708914 heartbeat IPC: 0.312811 cumulative IPC: 0.321053 (Simulation time: 0 hr 8 min 58 sec) 
Heartbeat CPU 0 instructions: 180000001 cycles: 421116429 heartbeat IPC: 0.30857 cumulative IPC: 0.320057 (Simulation time: 0 hr 9 min 36 sec) 
Heartbeat CPU 0 instructions: 190000001 cycles: 453397157 heartbeat IPC: 0.309782 cumulative IPC: 0.319301 (Simulation time: 0 hr 10 min 13 sec) 
Heartbeat CPU 0 instructions: 200000003 cycles: 477549290 heartbeat IPC: 0.414042 cumulative IPC: 0.324247 (Simulation time: 0 hr 10 min 48 sec) 
*** Reached end of trace for Core: 0 Repeating trace: traces/spec2k17/server_025.champsimtrace.xz
Heartbeat CPU 0 instructions: 210000000 cycles: 505392838 heartbeat IPC: 0.35915 cumulative IPC: 0.326229 (Simulation time: 0 hr 11 min 25 sec) 
Heartbeat CPU 0 instructions: 220000000 cycles: 537452560 heartbeat IPC: 0.311918 cumulative IPC: 0.325351 (Simulation time: 0 hr 12 min 2 sec) 
Heartbeat CPU 0 instructions: 230000000 cycles: 569623610 heartbeat IPC: 0.310838 cumulative IPC: 0.324509 (Simulation time: 0 hr 12 min 39 sec) 
Heartbeat CPU 0 instructions: 240000002 cycles: 601549695 heartbeat IPC: 0.313224 cumulative IPC: 0.323895 (Simulation time: 0 hr 13 min 16 sec) 
Heartbeat CPU 0 instructions: 250000003 cycles: 633729394 heartbeat IPC: 0.310755 cumulative IPC: 0.323211 (Simulation time: 0 hr 13 min 53 sec) 
Finished CPU 0 instructions: 200000002 cycles: 618790041 cumulative IPC: 0.323211 (Simulation time: 0 hr 13 min 53 sec) 

ChampSim completed all CPUs

Region of Interest Statistics

CPU 0 cumulative IPC: 0.323211 instructions: 200000002 cycles: 618790041
ITLB TOTAL     ACCESS:   34739436  HIT:   32829106  MISS:    1910330  HIT %:     94.501  MISS %:    5.49902   MPKI: 9.55165
ITLB LOAD TRANSLATION ACCESS:   34739436  HIT:   32829106  MISS:    1910330  HIT %:     94.501  MISS %:    5.49902   MPKI: 9.55165
ITLB PREFETCH  REQUESTED:          0  ISSUED:          0  USEFUL:          0  USELESS:          0
ITLB USEFUL LOAD PREFETCHES:          0 PREFETCH ISSUED TO LOWER LEVEL:          0  ACCURACY: -nan
ITLB TIMELY PREFETCHES:          0 LATE PREFETCHES: 0 DROPPED PREFETCHES: 0
ITLB PREFETCHES SAME FILL-ORIGIN LEVEL: 0 DIFFERENT FILL-ORIGIN LEVEL: 0
ITLB AVERAGE MISS LATENCY: 9.05939 cycles
ITLB RQ	ACCESS:   40854789	FORWARD:          0	MERGED:    5659825	TO_CACHE:   35194964

DTLB TOTAL     ACCESS:   46001241  HIT:   44232738  MISS:    1768503  HIT %:    96.1555  MISS %:    3.84447   MPKI: 8.84251
DTLB LOAD TRANSLATION ACCESS:   46001241  HIT:   44232738  MISS:    1768503  HIT %:    96.1555  MISS %:    3.84447   MPKI: 8.84251
DTLB PREFETCH  REQUESTED:          0  ISSUED:          0  USEFUL:          0  USELESS:          0
DTLB USEFUL LOAD PREFETCHES:          0 PREFETCH ISSUED TO LOWER LEVEL:          0  ACCURACY: -nan
DTLB TIMELY PREFETCHES:          0 LATE PREFETCHES: 0 DROPPED PREFETCHES: 0
DTLB PREFETCHES SAME FILL-ORIGIN LEVEL: 0 DIFFERENT FILL-ORIGIN LEVEL: 0
DTLB AVERAGE MISS LATENCY: 9.25613 cycles
DTLB RQ	ACCESS:   60858360	FORWARD:          0	MERGED:   14794163	TO_CACHE:   46064197

STLB TOTAL     ACCESS:    5740048  HIT:    5731193  MISS:       8855  HIT %:    99.8457  MISS %:   0.154267   MPKI: 0.044275
STLB LOAD TRANSLATION ACCESS:    3678833  HIT:    3669978  MISS:       8855  HIT %:    99.7593  MISS %:   0.240701   MPKI: 0.044275
STLB TRANSLATION FROM L1D PREFETCHER ACCESS:    2061215  HIT:    2061215  MISS:          0  HIT %:        100  MISS %:          0   MPKI: 0
STLB PREFETCH  REQUESTED:          0  ISSUED:          0  USEFUL:          0  USELESS:          0
STLB USEFUL LOAD PREFETCHES:          0 PREFETCH ISSUED TO LOWER LEVEL:          0  ACCURACY: -nan
STLB TIMELY PREFETCHES:          0 LATE PREFETCHES: 0 DROPPED PREFETCHES: 20717426
STLB PREFETCHES SAME FILL-ORIGIN LEVEL: 0 DIFFERENT FILL-ORIGIN LEVEL: 0
STLB AVERAGE MISS LATENCY: 64.1571 cycles
STLB RQ	ACCESS:   33162644	FORWARD:          0	MERGED:    3624426	TO_CACHE:   29538218

STLB Hit, L1D data hit: 0
STLB Hit, L2C data hit: 0
STLB Hit, LLC data hit: 0
STLB Hit, LLC data miss: 0
STLB STLB hints to L2: 0
L1D TOTAL     ACCESS:   61183289  HIT:   57424795  MISS:    3758494  HIT %:     93.857  MISS %:    6.14301   MPKI: 18.7925
L1D LOAD      ACCESS:   33960551  HIT:   31291041  MISS:    2669510  HIT %:    92.1394  MISS %:    7.86062   MPKI: 13.3475
L1D RFO       ACCESS:   25139034  HIT:   24087547  MISS:    1051487  HIT %:    95.8173  MISS %:    4.18269   MPKI: 5.25743
L1D PREFETCH  ACCESS:    2083704  HIT:    2046207  MISS:      37497  HIT %:    98.2005  MISS %:    1.79954   MPKI: 0.187485
AGUS PREFETCH L1 MISS: 0
L1D PREFETCH  REQUESTED:   63562108  ISSUED:   63414600  USEFUL:          0  USELESS:      37496
L1D USEFUL LOAD PREFETCHES:          0 PREFETCH ISSUED TO LOWER LEVEL:      37506  ACCURACY: 0
L1D TIMELY PREFETCHES:          0 LATE PREFETCHES: 9 DROPPED PREFETCHES: 27400093
L1D PREFETCHES SAME FILL-ORIGIN LEVEL: 37506 DIFFERENT FILL-ORIGIN LEVEL: 0
L1D AVERAGE MISS LATENCY: 873.459 cycles
L1D RQ	ACCESS:   47225281	FORWARD:          0	MERGED:   12832935	TO_CACHE:   34078298
L1D WQ	ACCESS:   26938645	FORWARD:     314048	MERGED:     158583	TO_CACHE:   26780062
L1D PQ	ACCESS:   33930789	FORWARD:          0	MERGED:    4446978	TO_CACHE:   29483811

L1D UNIQUE REGIONS ACCESSED: 0
L1D REGIONS CONFLICTS: 0
L1D Cross Page Prefetch Requests: 40613854
L1D Same Page Prefetch Requests: 3776
L1D ROI Sum of L1D PQ occupancy: 1399371794
L1D PREFETCHES PUSHED FROM L2C: 0
L1I TOTAL     ACCESS:   39437650  HIT:   29485394  MISS:    9952256  HIT %:    74.7646  MISS %:    25.2354   MPKI: 49.7613
L1I LOAD      ACCESS:   39437650  HIT:   29485394  MISS:    9952256  HIT %:    74.7646  MISS %:    25.2354   MPKI: 49.7613
L1I PREFETCH  REQUESTED:          0  ISSUED:          0  USEFUL:          0  USELESS:          0
L1I USEFUL LOAD PREFETCHES:          0 PREFETCH ISSUED TO LOWER LEVEL:          0  ACCURACY: -nan
L1I TIMELY PREFETCHES:          0 LATE PREFETCHES: 0 DROPPED PREFETCHES: 0
L1I PREFETCHES SAME FILL-ORIGIN LEVEL: 0 DIFFERENT FILL-ORIGIN LEVEL: 0
L1I AVERAGE MISS LATENCY: 16.4561 cycles
L1I RQ	ACCESS:   58630407	FORWARD:          0	MERGED:   17775618	TO_CACHE:   40854789

BTB TOTAL     ACCESS:   30413089  HIT:   18271054  MISS:   12142035  HIT %:    60.0763  MISS %:    39.9237   MPKI: 60.7102
BTB BRANCH_DIRECT_JUMP	ACCESS:    2033451  HIT:    1204611  MISS:     828840
BTB BRANCH_INDIRECT	ACCESS:   12129859  HIT:    7449972  MISS:    4679887
BTB BRANCH_CONDITIONAL	ACCESS:    7365128  HIT:    6117133  MISS:    1247995
BTB BRANCH_DIRECT_CALL	ACCESS:    3753650  HIT:    1796881  MISS:    1956769
BTB BRANCH_INDIRECT_CALL	ACCESS:     688651  HIT:     311222  MISS:     377429
BTB BRANCH_RETURN	ACCESS:    4442350  HIT:    1391235  MISS:    3051115
BTB BRANCH_OTHER ACCESS:          0  HIT:          0  MISS:          0

L2C TOTAL     ACCESS:   40813974  HIT:   39496855  MISS:    1317119  HIT %:    96.7729  MISS %:    3.22713   MPKI: 6.58559
L2C LOAD      ACCESS:   12621757  HIT:   11557347  MISS:    1064410  HIT %:    91.5669  MISS %:    8.43314   MPKI: 5.32205
L2C DATA LOAD MPKI: 1.49242
L2C INSTRUCTION LOAD MPKI: 3.82963
L2C RFO       ACCESS:    1051487  HIT:     867560  MISS:     183927  HIT %:    82.5079  MISS %:    17.4921   MPKI: 0.919635
L2C PREFETCH  ACCESS:      37506  HIT:      34544  MISS:       2962  HIT %:    92.1026  MISS %:     7.8974   MPKI: 0.01481
AGUS PREFETCH L1 MISS: 0
L2C DATA PREFETCH MPKI: 0.01481
L2C INSTRUCTION PREFETCH MPKI: 0
L2C WRITEBACK ACCESS:    1862014  HIT:    1803411  MISS:      58603  HIT %:    96.8527  MISS %:    3.14729   MPKI: 0.293015
L2C LOAD TRANSLATION ACCESS:       9487  HIT:       2948  MISS:       6539  HIT %:    31.0741  MISS %:    68.9259   MPKI: 0.032695
L2C TRANSLATION FROM L1D PREFETCHER ACCESS:   25231723  HIT:   25231045  MISS:        678  HIT %:    99.9973  MISS %: 0.00268709   MPKI: 0.00339
L2C PREFETCH  REQUESTED:          0  ISSUED:          0  USEFUL:        354  USELESS:       3284
L2C USEFUL LOAD PREFETCHES:        354 PREFETCH ISSUED TO LOWER LEVEL:       2962  ACCURACY: 11.9514
L2C TIMELY PREFETCHES:        354 LATE PREFETCHES: 0 DROPPED PREFETCHES: 0
L2C PREFETCHES SAME FILL-ORIGIN LEVEL: 0 DIFFERENT FILL-ORIGIN LEVEL: 0
L2C AVERAGE MISS LATENCY: 37.4289 cycles
L2C RQ	ACCESS:   38914455	FORWARD:          0	MERGED:          0	TO_CACHE:   38914455
L2C WQ	ACCESS:    1862014	FORWARD:          0	MERGED:          0	TO_CACHE:    1862014
L2C PQ	ACCESS:      37506	FORWARD:          0	MERGED:          0	TO_CACHE:      37506

L2C Instructions Evicting Data 283761
L2C Translations Evicting Data 3899
L2C Data Evicting Data 232904
L2C Instructions Evicting Instructions 478952
L2C Translations Evicting Instructions 3236
L2C Data Evicting Instructions 248640
L2C Instructions Evicting Translations 3213
L2C Translations Evicting Translations 82
L2C Data Evicting Translations 3829
L2C Dense regions hint from L2: 0
PSCL5 TOTAL     ACCESS:   14390207  HIT:   14390207  MISS:          0  HIT %:        100  MISS %:          0   MPKI: 0
PSCL5 LOAD TRANSLATION ACCESS:       8855  HIT:       8855  MISS:          0  HIT %:        100  MISS %:          0   MPKI: 0
PSCL5 TRANSLATION FROM L1D PREFETCHER ACCESS:   14381352  HIT:   14381352  MISS:          0  HIT %:        100  MISS %:          0   MPKI: 0
PSCL5 PREFETCH  REQUESTED:          0  ISSUED:          0  USEFUL:          0  USELESS:          0
PSCL5 USEFUL LOAD PREFETCHES:          0 PREFETCH ISSUED TO LOWER LEVEL:          0  ACCURACY: -nan
PSCL5 TIMELY PREFETCHES:          0 LATE PREFETCHES: 0 DROPPED PREFETCHES: 0
PSCL5 PREFETCHES SAME FILL-ORIGIN LEVEL: 0 DIFFERENT FILL-ORIGIN LEVEL: 0

PSCL4 TOTAL     ACCESS:    7004285  HIT:    7004234  MISS:         51  HIT %:    99.9993  MISS %: 0.000728126   MPKI: 0.000255
PSCL4 LOAD TRANSLATION ACCESS:       6841  HIT:       6790  MISS:         51  HIT %:    99.2545  MISS %:   0.745505   MPKI: 0.000255
PSCL4 TRANSLATION FROM L1D PREFETCHER ACCESS:    6997444  HIT:    6997444  MISS:          0  HIT %:        100  MISS %:          0   MPKI: 0
PSCL4 PREFETCH  REQUESTED:          0  ISSUED:          0  USEFUL:          0  USELESS:          0
PSCL4 USEFUL LOAD PREFETCHES:          0 PREFETCH ISSUED TO LOWER LEVEL:          0  ACCURACY: -nan
PSCL4 TIMELY PREFETCHES:          0 LATE PREFETCHES: 0 DROPPED PREFETCHES: 0
PSCL4 PREFETCHES SAME FILL-ORIGIN LEVEL: 0 DIFFERENT FILL-ORIGIN LEVEL: 0

PSCL3 TOTAL     ACCESS:    6963915  HIT:    6963832  MISS:         83  HIT %:    99.9988  MISS %: 0.00119186   MPKI: 0.000415
PSCL3 LOAD TRANSLATION ACCESS:       8118  HIT:       8035  MISS:         83  HIT %:    98.9776  MISS %:    1.02242   MPKI: 0.000415
PSCL3 TRANSLATION FROM L1D PREFETCHER ACCESS:    6955797  HIT:    6955797  MISS:          0  HIT %:        100  MISS %:          0   MPKI: 0
PSCL3 PREFETCH  REQUESTED:          0  ISSUED:          0  USEFUL:          0  USELESS:          0
PSCL3 USEFUL LOAD PREFETCHES:          0 PREFETCH ISSUED TO LOWER LEVEL:          0  ACCURACY: -nan
PSCL3 TIMELY PREFETCHES:          0 LATE PREFETCHES: 0 DROPPED PREFETCHES: 0
PSCL3 PREFETCHES SAME FILL-ORIGIN LEVEL: 0 DIFFERENT FILL-ORIGIN LEVEL: 0

PSCL2 TOTAL     ACCESS:     196093  HIT:     195591  MISS:        502  HIT %:     99.744  MISS %:   0.256001   MPKI: 0.00251
PSCL2 LOAD TRANSLATION ACCESS:       8855  HIT:       8353  MISS:        502  HIT %:    94.3309  MISS %:    5.66911   MPKI: 0.00251
PSCL2 TRANSLATION FROM L1D PREFETCHER ACCESS:     187238  HIT:     187238  MISS:          0  HIT %:        100  MISS %:          0   MPKI: 0
PSCL2 PREFETCH  REQUESTED:          0  ISSUED:          0  USEFUL:          0  USELESS:          0
PSCL2 USEFUL LOAD PREFETCHES:          0 PREFETCH ISSUED TO LOWER LEVEL:          0  ACCURACY: -nan
PSCL2 TIMELY PREFETCHES:          0 LATE PREFETCHES: 0 DROPPED PREFETCHES: 0
PSCL2 PREFETCHES SAME FILL-ORIGIN LEVEL: 0 DIFFERENT FILL-ORIGIN LEVEL: 0

LLC TOTAL     ACCESS:    1506554  HIT:    1435203  MISS:      71351  HIT %:     95.264  MISS %:    4.73604   MPKI: 0.356755
LLC LOAD      ACCESS:    1064410  HIT:    1033387  MISS:      31023  HIT %:    97.0854  MISS %:    2.91457   MPKI: 0.155115
LLC RFO       ACCESS:     183913  HIT:     144586  MISS:      39327  HIT %:    78.6165  MISS %:    21.3835   MPKI: 0.196635
LLC PREFETCH  ACCESS:       2962  HIT:       2946  MISS:         16  HIT %:    99.4598  MISS %:   0.540176   MPKI: 8e-05
AGUS PREFETCH L1 MISS: 0
LLC WRITEBACK ACCESS:     248052  HIT:     247382  MISS:        670  HIT %:    99.7299  MISS %:   0.270105   MPKI: 0.00335
LLC LOAD TRANSLATION ACCESS:       6539  HIT:       6234  MISS:        305  HIT %:    95.3357  MISS %:    4.66432   MPKI: 0.001525
LLC TRANSLATION FROM L1D PREFETCHER ACCESS:        678  HIT:        668  MISS:         10  HIT %:    98.5251  MISS %:    1.47493   MPKI: 5e-05
LLC PREFETCH  REQUESTED:          0  ISSUED:          0  USEFUL:          4  USELESS:        178
LLC USEFUL LOAD PREFETCHES:          4 PREFETCH ISSUED TO LOWER LEVEL:         16  ACCURACY: 25
LLC TIMELY PREFETCHES:          4 LATE PREFETCHES: 0 DROPPED PREFETCHES: 0
LLC PREFETCHES SAME FILL-ORIGIN LEVEL: 0 DIFFERENT FILL-ORIGIN LEVEL: 0
LLC AVERAGE MISS LATENCY: 161.404 cycles
LLC RQ	ACCESS:    1255554	FORWARD:          0	MERGED:          0	TO_CACHE:    1255540
LLC WQ	ACCESS:     248052	FORWARD:         14	MERGED:          0	TO_CACHE:     248052
LLC PQ	ACCESS:       2962	FORWARD:          0	MERGED:          0	TO_CACHE:       2962

LLC Dense regions hint to LLC: 0

RAW hits: 1817706
Loads Generated: 49042988
Loads sent to L1D: 47225281
Stores Generated: 26938645
Stores sent to L1D: 26938645
Major fault: 0 Minor fault: 2563
Allocated PAGES: 2563
ucb ended
-----------------------------------------------------------------------------------------------------------------------------------------------------------------------------------------------------
Offsets elements: -4 -16 25 -2 -2200619164685 2200619164667 15 -2200619163837 2200619136079 27766 -22540 1 22535 -22537 -72465890221 72465890277 22478 -22534 22534 71780 -71780 -49245 -1 71776 -49259 49262 -71779 22513 5 -22514 22512 -2200619139762 2200619117248 2 -161017 161016 -3744265184 3739760453 4576500 -3744336953 3744336955 10292136 -10292137 -71774 -2200619141583 2200614636860 14868626 -3754628933 3754628933 -14868626 -3739760307 3739760307 3744336796 4 -49238 -21 -22461 22476 -22476 22461 71723 -71723 22484 -22483 22479 -22481 -22478 71724 -71724 71720 -49241 49241 -71719 71722 -49263 22457 -22453 22456 49266 -2200619189028 2200619117304 13008 -3744278015 3744265007 -3744265070 3739760289 -3739760289 4576494 10292139 -71718 -2200619141639 49238 17 -2200619164684 2200619164684 3 49244 -2200619213120 -810 2200619164685 49240 -49242 -19 49245 -130596 81355 -2200619247053 2200619296294 -49235 -6 7 -49250 49251 -2200619213083 2200619213084 6 -2200619163839 2200619213079 -49239 49243 -17 12 -49243 49242 -49244 49246 49239 -49248 -2200619163832 2200619163833 49250 -49267 23 -27751 -2200619136089 2200619163841 -2200619213926 2200619164683 -2200619163876 2200619163875 -15 49257 -122597 -8000 130598 -122599 -144053 144052 -3744214397 3744336993 -3744336992 -4576501 4576502 -3744336994 3744336995 10292131 -2200629505487 2200619090758 -4453892 -3739760363 3739760363 14868620 -10292129 -49264 8 49261 -12134563 12134565 -49269 49270 -77011 77012 10292829 -10292828 10291975 -10291978 10291977 -10291976 -2200619213947 2200619213947 10291969 -10291969 10291854 -10605201 10605306 -10291958 10289948 -10603296 313351 -313351 -2200618869678 2200619183028 -313362 313361 -41079 -3 -2200619148333 2200619148330 -272282 10603296 -2200629472974 2200619183039 -12888345 12888345 -122610 -190756 313375 -288223780701820233 -79 -1465993202751 1465993202775 -7 -1465993402531 1465993402531 -1465993402495 1465995990137 -1465995990137 1039361 -1021423 1465993384580 -1465993384580 1059223 -1059223 -17974 1465993402548 2587625 -2587625 -1465993402543 198803 1465993203746 2587624 -2587622 -1465992363154 -1049946 1049945 -1039393 198800 -198803 1465995990172 -1465995969549 1465993382029 -1465993402541 -111 1465993402549 -1465993332029 1465995919652 -2587624 -1465993380968 7954 -7966 48954 1465993332026 -1465993402549 1465993402550 2587621 -1465995990168 1465993402547 -1465993402554 18444 1465993384187 2587541 -1465995990172 -1465995831398 -158774 -1465995834962 991298 -1146508 -1465995833281 -156888 1465993402631 -166104 10894 1465993402652 2587520 -1465995990061 21454 48955 -48950 -70524 -1465993386722 1059575 -1075400 -1465995989929 1465995978542 -1465995962523 1465995973910 -1465995835048 -155124 -2587520 15714 -15825 70520 -1465993380979 1465995968606 -1465994914772 155124 1465995835048 -1465995919643 -48958 48958 85780 920229 -921414 1186 -156310 70409 -48955 -5740 70525 1465993332018 -1465993380972 1465995919647 -1465995792142 -197776 -182419 1465993584707 2529261 -1465996113968 1258703 1465992326005 -1465992326005 1465992326006 -1465993247419 1187 919089 -919089 -156311 -2587628 -1465993402544 1465993402544 2587628 -1465993247420 1188 919088 -919088 -1188 1189 919087 -919087 -1189 1190 919086 -919085 -1190 1191 919085 -919084 -1191 1465993402545 2587626 -2587627 -1465992327145 -1075162 1075162 1465992327144 -1465992327144 -1465992256037 -989618 -1694 -154478 -718 -2932031385230 4398027375402 -1465996000658 165682 -165682 10772 1465995931508 -8 58386 -58033 53072 -2582665 -1465992256038 -1129300 1058192 71108 -989620 -167782 1180105 -1012320 4114 -161005 -10950 32404 -5745 165113 -180938 -1465996000909 1465993413389 -1465993332129 1075980 -1146257 17912 1465995960630 11387 -1465995970101 135123 -154476 -2932031385948 2932031385230 286 154908 1465995776592 -1465995942280 1465995995697 4962 -2529593 -1465992327146 -1465993245660 -1693 991313 -991313 -1146509 2587622 -1465996001525 1465993413902 -1465993203005 -199546 -1465995830120 -163535 1465993406036 -1465992325356 1465992325356 -1465993402553 -1465994912975 -1076948 1076948 1465992325291 -1465992327088 71109 -1146478 17035 1129443 22703 -1153044 1153043 -1169210 1146440 1465994843732 -1465995788749 -201423 -2587683 -1465993407756 203229 -197962 945017 -1146440 -1465994843732 -2587694 -1465992327079 70978 -1129670 1129670 -1157662 1157663 1465992256089 56 1465992325300 -56 -1465992325300 -1076959 1076959 -1077198 -2587641 -1465993402293 1465992325333 -42 -1465993402489 1465993402488 2587683 -1465995989933 1465993402272 20 19 -1465993402289 1465993402270 2576390 -2576389 -23 -1465993402253 -181684 1465993583935 11 -1465993402260 -1465993583958 -1465993385429 1058340 -1129633 -16876 1076538 -1058577 1465993384531 -1465993384285 -1148 180889 1465993204543 21 -1465993402482 17941 1465993384516 64 -2587674 -1465992325301 -1465993402488 55 -55 1465992325301 -1465993402499 -1465994912974 -11 1077198 1465994912974 -1465993402487 1465993402499 2587673 17961 -17965 70523 1465993331955 -1465993380908 1465993380909 -1465993331956 1465995919649 -2587689 -1465992255981 -1317072 1465993573054 -1465992325286 1465992325286 -1076949 1076949 1465992325283 -1247768 1465993573051 -1465993402241 1076958 -1260050 1465993585333 -1465993573051 1317072 1465992255981 -1465993402483 -48939 -21470 1465993402478 -1465993372734 1465993372735 2587692 -2587690 -1465993402479 21570 48953 1465993331962 -1465993331961 1465995919648 -2587688 1465993402486 -1465992325287 -2587673 -10 9 -1465993402498 65 2587619 -1465995973296 1058524 1797 -1061030 1060371 69970 22702 1465993402512 2587660 -2587661 16144 1465993386353 -1465993402512 -2587687 -1465993402247 1465993402274 -27 1465993402483 2587689 30 -1465993402485 -2587686 -1465993402248 1465993402247 1465993402482 2587690 -2587691 -1465993402473 1465993402472 -1465993386331 1465993386331 -1465992256042 -945017 -206690 5267 155210 1465995834962 -1465992255973 -945086 1465993201063 -1465993204523 1465993204524 -1465993402486 1465993402489 2587685 -2587685 -1465993402500 1075400 -1058524 1465995973296 -2587660 -1465992325974 1465992325973 -13 -1465992327099 1138 69971 1465992255990 -1465992325960 1465992325972 -1465995989934 -53 -1465993402459 1465993402457 2587715 1465993402220 -1465992325920 1465992325920 1465993402459 2587713 -2587714 -1465993402220 1465992325260 -1465993402456 1465993402456 2587716 -2587717 -1465993402216 1465993402218 1465995978659 -2576444 -1465993402457 1465993402455 -1465993331930 1465995968602 -1465992265223 1465992265222 42 -2587672 -4398024787690 2932031385190 70521 -48952 1465995968603 -1465995919651 1465993331929 49 -1465993402262 -2932031385428 2932031542603 -2932031542603 4398024787642 -1465993402452 1465993402453 2587719 -2587719 -1465992265218 1465992265261 1465992325255 -1465993402453 -1465992325255 -1076960 1076960 1465992325251 -1465992325251 1465993402451 2587721 -2587723 -2587721 -1465993573021 170808 1465993402215 -1465993584826 1465993584872 -1465992325252 -1465993402451 1465993402452 1465996160742 70522 -48953 1465993380881 1465993402261 -47 -1465992325254 90774 -1167972 46 1137235 1465992265220 -1465992325258 -1465993402215 1465995989934 170570 1137239 1465994852933 -4398027375362 2932032522425 -979822 979823 -1137236 -2932031385190 4398027375362 -4398027375281 2932031385109 -1465994852936 -2932032522426 2932032522429 1465992265212 -2587722 -1465993402449 1465993402454 -2587712 -1465993402460 -1137235 157413 -2932031542522 4398027375281 -2932032522427 2932032522427 1465992265215 -1465993402454 -2587720 -1465992265224 2932031385235 -45 -1465993572607 1465996160127 -70522 1465993402450 -1465992234511 1465994822233 -1465995974347 -15784 1137194 30737 -30737 -1137191 1167928 2587717 -1465994822200 1465992234483 -1465992234483 -1167734 1167734 1465992234477 2587722 54699 -1465992327022 1465994914744 -1465995990135 1465993402414 1465992234479 -1465993402455 -1465992327027 92544 1075428 -1465993402211 -1465993402447 1465993402447 2587725 -2587725 -1465993402207 1075191 1465992327019 -1465992327019 -1075428 2587724 -1465994914744 1465992327023 -1465993407131 1172619 -1167940 -5744 1465993331928 -1465995834949 1012717 1465992234510 -1465992234515 -1172545 1172545 1172546 1465992234513 -1465993247230 1012716 4647 1167899 20623 1465995969549 -21581 -1465993402413 35963 1131940 1465992234511 -1465993380881 -21569 1465995919651 -20512 1465993402541 -1465993381071 -70520 29786 1465995960386 -5 -1465993380883 -1465995919650 1465993331936 -1465993402458 1465995990061 -1465995919652 1465993402460 -1465993331938 -1465994822233 -1167939 -1465992234525 -1179085 11145 1465994852937 1465992234482 -1465992234482 2587720 1167733 -1346954 179221 -179220 1346953 -1465992327024 -1080109 1080109 1465993407135 -1465992234514 1465993407133 -1465992265216 -1465996160742 -30704 30705 -1465993245043 1465995832759 1465993402458 2587714 -2587716 2587712 -2587713 -1465993384260 -725 725 179741 -180466 180466 -197948 -1465995958714 1465995970101 -11387 -2576329 1465993382387 -1465993247264 2932031374744 165680 -10486 1465995989886 -58378 53425 4961 -2529682 -2587715 -1465992327111 -1075394 -1465996058155 1465993470495 -59 2587718 -1465993402419 16673 -1157664 1157664 22 -22 -25 1129697 -1146405 1146379 1465994843793 -1465994843794 -1157665 11534 159301 1465993243059 -1465993243058 1465993242900 -1465992362127 106058 -944946 944946 -944957 -201174 159300 -2104 2103 -159547 36 -1465992256110 45 -1157710 28157 -16591 1465993402328 -1465993384463 1465993384307 -1465993385743 -24 -1146381 1146380 1465994843792 -1465994843792 -1129672 -1146131 -11534 1465993413893 880771 -880771 41899 944933 -944945 944945 -944947 -43985 -157200 2587723 35 -34 -1465993402205 1465993402263 -1465992256109 1465993413773 16836 1465993385616 -30 1129702 -1146410 1146382 1465994843790 -1465994843791 -1129673 170835 -838872 -12 -988931 -157203 -1465995989923 -1465992327052 -1157663 11285 -1465992256134 27992 1465992256071 -1465992256074 1157662 -27993 -1465992256070 -1465993402446 -61 -1465992256073 1465992256070 -1465992256069 -1146382 -1465993572602 1465993572603 -1465993402206 16013 1465993386346 -1465993386346 1465993386252 -1465993386252 -16020 -1465992361689 -1040576 16012 -16259 -1465992327112 -1465993470495 -58 -2587718 -1465993384545 1465993384521 -33 -1465992256077 1465992256077 -1465993413742 18 32 -32 1129704 -1146412 1146383 1465994843789 -1465994843790 -1129674 944936 -988945 -157190 161027 1465993241236 -1465993241236 -161036 161036 -1465993241234 1465993241234 879499 -1040537 -1465992361734 1465992361734 -1040778 33 -1465993385611 -69971 -1076538 -1465995989886 345 58033 -4961 -2582754 53 -54 1076300 1465992325919 -1465992325919 -2587684 -1465993241233 915260 -1076300 -1465992325973 1465994902247 -2576274 -1465992325918 1465992325917 -1076539 -1465995832167 1465993244451 -1465992327057 -1057469 1128577 1465992255950 -1465993245570 1465995990169 -1465995989925 155836 1465993246523 -95 -1465993402266 1465993402266 -1465993246426 1465993246426 -1465993187024 -215247 -1465993187032 1465993186974 156083 -155838 215232 -59397 -156083 1465994914772 -1465994843663 -71109 -139214 138393 878434 -873009 -172474 1086365 -1057479 1058626 69961 -1128579 -17929 -1465994820960 -1169212 1465993402441 2587732 1465993402444 -26 -1465993402463 -2587707 -1465992234526 -92539 1119308 9269 -805 1465993246382 -1465993402465 1075979 1465992255953 -1465995990133 653 -692 -1465995832172 -158000 1465993402421 2587751 -2793 1465993247214 -1465993402421 159992 1465993242425 2587755 -2587756 -1465993242428 1465993242427 -1465993402417 -1465995830182 -1465993242432 42372 1465993200054 -1465993242427 1465993242429 -1465993402420 244 1465995989925 -1465995830181 1465993242615 -1465993242614 -159992 1465993331894 -1465993380846 1465995919650 -1465995830180 1008012 -1168001 199498 -199253 159743 -1465993402418 1465993402416 -1465993200052 -42373 42373 1465993200058 -1465993204717 -197704 111 -1465993381087 -54697 5744 -1465992234385 1465994822136 -1465994822168 1465992234416 -1465993200057 -202363 202125 1465993200060 -1465993402423 1465993402417 -1465993200055 1465995787810 -2587752 -1465993200058 836951 -836951 -185308 1465993385362 -1465993402429 -70523 -1465993331894 1465993331893 2587756 -1465994843692 1465992255949 -1465993386598 1130655 1465992255943 -1465992234417 1465992234417 8205 -29786 1465993402418 -1465993380848 1465993331900 -1465992234481 -30700 1167972 1465994822200 -1465992234445 -2587755 1465992234441 -1465993402412 1465992234443 2587759 -2587758 -1465993402178 -1350824 1350824 -1337285 169313 -2587757 -1465992234476 -30701 -979238 1465993244416 -1465993402416 1465993402428 -1465993402374 164 -17439 17275 138921 -167785 171899 1465993402424 -1465993413262 1465993413256 2587753 -1465993244457 1009938 -30703 158000 1465995832172 2587748 1465993247217 -159990 1465993402422 2587750 -2587750 -1465993402424 1465993402423 2587749 34 -1465993200094 1465995787808 2932032553162 1465992234452 1465992234447 -1465992234448 1465992234448 -1465993402181 1465993402184 -1465992234451 1465993244423 -1465993384217 -722 1465993384973 -1465993204510 1465993331899 -1465993380854 1465993380853 -1465993331898 -1465995792150 -318 -1465992234450 2587754 -1167732 1167732 -2587751 -1465993331899 -1465992234449 -1465993402183 1465992234449 -1465993402422 -2587754 2587752 -1465992234452 -969948 -197784 1465995978545 -1465995792147 4338 1465995776423 -1465995776423 -4338 1465993204397 2576363 -2576363 -42374 1007950 -2587749 -1465992234518 1465992234487 -1465992255948 -107167 107167 21556 -1168036 1465993372637 -1465995968603 1124911 -1075958 1465993331907 -1465993204725 1465993204720 8163 -8174 2587746 -2587745 29 1465993331925 -1465993331926 -1465994914730 1465992327011 -1465994914729 -1075443 1465995974347 48957 -70466 1075386 -35203 35161 -1074708 1145815 4067 -171492 1465993412982 -48951 1465993402446 -1465992362209 1465992362208 2587726 202 -1465993402652 -1465995968606 -5746 1465993402445 -1465992233203 1465994820930 54695 1465993381087 70411 1018674 -1024418 21566 -2587726 -1465993331921 1465993331923 -1465992233200 -93806 1465992327006 -1465993402450 29789 1465995960383 -1465995968601 -49904 958 -203 -1465993372912 1045906 1465994914729 1465995908263 -1465995978545 157756 917447 1465994903342 2576339 -1465995978786 -1465995832176 917449 1465992327008 -1465992327209 -21565 21569 48952 86919 -157193 15578 142178 1465993244603 -1465993244603 43443 -201446 86948 -141644 158004 1465995832168 157757 -43443 -158004 1465993402448 -1465995989924 157755 1465993244446 -1465992327005 -1465992327008 -877420 -209266 209266 1465993204428 -1465992327007 1465993204427 -1465992327025 92497 -1137238 -1465994843664 -989617 918511 -1058198 1058196 -1465992265220 1465992265221 -1465993384493 5425 -172456 10964 -913900 1465995828680 -985012 -172463 172466 985009 -985017 161500 1465995828672 -1465993241019 1465993413422 -1465993402538 1465995990058 -1465993402540 21482 -21483 21451 15612 1465993365224 -1465993378836 13942 -13942 -23508 21466 2043 5363 8579 -13944 5365 65240 1465993308232 -1465993378835 13939 -37452 21470 15639 -15972 72633 -94114 15713 23621 1465993378839 -1465993380898 1465993380897 -1465992327065 1075442 1465994914730 198022 1465995792150 -1465996001416 1465993413703 -54696 -1465993247229 1465993247232 -1465993204433 1465993204433 -1465993413699 -48954 -5741 -1465993331928 -48956 1465995968601 -1465992210713 -1036523 42799 1465993204437 -1465993247236 -154985 197784 -1465993583257 181036 -169554 378820 -2587700 -1465993402234 1191508 1465992210726 -1191746 8252 -29833 -1465993380888 -21571 70527 -34520 1465995954172 -1465993380886 1465993380891 -1465993331939 1465993402224 -1465992325926 1465992325926 -1465993402472 17489 1057956 1465994914728 -35204 35203 -35161 106139 44 -106183 -1051525 1051525 -879282 879282 -1050774 1465993412990 -1465992327013 -1075442 198024 1465995792148 1465993412989 -1465993204432 11244 1465995792147 -1465995792148 1521 -199545 38034 -1465992234447 -968459 -42973 -167318 10746 21456 -2587724 -1465993380875 86042 919838 -919838 -140747 -1465994843672 -1146500 1146500 1465994843672 -1465994955740 -1034185 -244 1034429 1465992368174 -1465993402358 1034184 1465992368007 -1465992255940 -1465993200996 1465995788727 -1465994843671 -112069 4924 -1039356 -1465995764671 -1481 1477 -225498 -1465995765724 -224444 -1465995828955 -167198 231479 -1061 -224412 -1465995765639 -230522 1465993408430 -1465993176933 -231497 -1465993408430 -1465993402441 1465993402440 -2587734 -1465993176932 -1092 1101 1055 253480 -254576 -25753 26844 1088 -1086 1097 -1097 110 -110 1465993178030 -1465993178030 254560 -254578 1099 1465993176931 -1465993176941 -1050 -224448 -1465995971965 -51 179793 -197231 1145782 -991306 -165680 10486 53424 -2529699 -2587731 2587727 -2587730 -1465992255942 1465992255946 -1465992363090 1168011 1465994822161 -1465995790620 839805 -1039106 1167683 -1167933 48939 1465993402443 -1465993372657 -1465994950815 -1039357 -1465993413189 10740 1168004 1465994822168 -1168004 2587729 1465993402442 -1465993380871 48956 1465993331915 2587730 -1465992210697 1465992210700 1465992234442 -1465992234442 -1167766 1167766 -1465993402445 -1465992234441 -1465993402443 -2587727 -1465993402208 1465992234439 -1465993402442 -2587729 -1465992326033 -156572 1465993402449 1191746 1465994798426 -1465994798426 -1465992210700 -1191508 1465992210696 -1465992210696 -115322 1465992326004 -1465993402200 -117026 1465993519228 -1465993402439 1191497 -115311 -1076197 1465992326003 -1465993402199 1465993402202 -1465993402440 2587733 -2587732 1465992326008 -117025 116787 2587728 -1465992210703 29833 1465993372614 1054864 -1005883 997865 1465992334052 -1465993402444 -1465994921776 -1068396 1068392 1465992334051 -1465995764674 -1055 1050 -1465995765728 1465993402435 -1465992334038 1465994921780 -1465993247238 1465993247241 -1465993176934 -225508 -2587733 -1465993402368 1068319 -1050244 1050243 -842895 -24696 25746 -1465992334045 1465994921776 -1465994921778 -1068397 225498 1465995764674 -1465995764663 1091 -977 988 -25745 24648 843990 -868640 868630 -842889 842900 -843992 254573 595263 -5854 -842884 253472 -254575 -1096 -24647 -1106 25757 1104 -1104 869748 -842896 -25756 25758 -1476 1481 842899 -868642 -199760 1068401 -868649 1465995790420 -1465995790417 839637 29003 -29002 39558 -10556 8032 2525 -2525 253 -253 5170 -2646 -39558 29002 8282 -250 5169 -5169 -2645 10557 252 2272 39559 -10557 13202 -4917 1465992323491 225503 1465995764669 -25738 24652 -24648 25745 -992 -24755 874479 2438 -876921 -199758 -1465994913493 -1143227 292051 851168 -876919 25750 -25751 1465993202667 -1465992325746 -851181 863984 -865076 -25755 26856 -1465993202666 876924 1465992325763 -1465992312960 1465992312961 -1465993202688 1465993202688 -1465992325763 12803 -21087 1465992334047 -21121 7599 -7599 5456 21137 -50 -13055 13113 -5525 -15620 28033 -28033 13055 62 -21149 34821 -26789 26789 -13734 21147 -13115 14963 -14902 -21148 36050 -28018 -874905 874905 61 14955 -36103 28071 -15016 14956 -36104 28072 -28072 -15017 28073 -28073 1465992297942 1465992312962 2587731 -1465994921772 -876927 889730 -21085 21086 -1465992334048 1076679 1465994913493 -1465994900690 21085 -21081 21143 -21141 36097 3039 -177 177 -867020 863979 -889722 -199753 -2587728 1465992334050 1076424 1465994913748 -1465994913762 -8018 -1068392 1465993402437 1465992334044 2587736 224444 1465995765728 -913184 913187 1465992334045 1465993402436 2587737 -2587735 -1465992326026 10 -1076183 1104261 -28076 -1087149 10739 1076410 1465994913762 -1465994921780 -2587741 -1465992334039 -842890 1068396 1465992334038 1465993247225 2587740 -1465993402437 -1465994897649 -1092523 -2587739 1465993402434 2587738 -2587738 -2587736 -1465993402435 -1465994913748 -1076424 -1465992326041 -1087151 1087176 -14 -1076410 1039356 1465994950816 29036 -25746 24696 -842894 -983 978 -24650 868640 5854 -5844 -842892 851173 -851176 25743 25752 834602 -808851 868644 -1465992334051 -842888 1465993176939 -1465993331924 -1465994822239 -1167683 1167761 -128654 -1465993202896 1465995790620 -1465993381826 -20623 -1465995968591 29608 1465993372840 1465992234446 -1465993380878 1465995968600 -1465995919642 127495 948478 -1146502 -70521 -1465995832716 989046 -1130677 1465993386627 -1465992255949 -54695 21565 1465993380887 -1465995919649 1465993380882 -1465992255950 -948456 1465993204430 -1465992255952 -1146503 -1465992255947 1465993247228 -40028 -157996 157997 1465995832175 -1465995790445 -210453 10725 -1465993331927 1799 -877471 946773 -1146501 -107144 1039357 20372 -1465992234718 1465994822239 1465993331926 -1465992234435 1465992234436 -1465993372662 1465993372665 1465992363095 1465993331930 -1465993204428 879175 -1077199 -10729 1157231 1465994843670 -1465994912973 -919743 -168185 1157210 -1146480 1077200 1465994912972 1081914 1465994908258 -1465994908254 -1081918 1465992320529 -225503 224448 857470 -70294 69240 1465993177998 -1465993247239 1465993247236 -1465996056534 1465993468808 -1465992320529 1465992320525 -1081914 155204 1465995834968 -221544 1465993468786 1465993402438 2587734 -2587737 -1465992320522 1465992320523 -1465995972023 1465993384294 -1465992320528 -856417 -881340 881341 -1081919 1465995764663 -1465995765760 856415 -857403 -24010 881408 -881405 867913 -842914 856426 -856422 856412 -857504 1098 -1093 857517 -857476 -23941 24999 253475 -278407 24934 -26844 1932 23440 857901 -856420 -24996 69 -200576 -1465994908255 -881338 881338 -42607 -884100 43597 -198808 -1465995831342 66673 813806 -840501 1699 25002 -66546 225377 41751 23830 -23901 1465995789663 -1465995764669 -986 -291065 1134965 -867910 75 -41751 66679 -66680 66680 -225511 1465993402420 -1465993176910 -66678 66667 1465993176913 -2587747 -1465993201843 -200582 1465993402439 -1465992363045 -814987 -23828 -923086 1465993243610 -1465995791520 -43441 884183 42523 1465992320524 -1465992328399 -918831 918831 -34648 34665 7858 
Potential of Offsets elements: 447.543 71.5428 81.5428 773.543 28.5428 28.5428 175.543 28.5428 29.5428 28.5428 28.5428 1213.54 28.5428 28.5428 28.5428 28.5428 28.5428 28.5428 28.5428 28.5428 28.5428 28.5428 892.543 28.5428 28.5428 28.5428 28.5428 28.5428 1714.51 28.5428 28.5428 28.5428 28.5428 994.543 28.5428 28.5428 28.5428 32.5428 28.5428 28.5428 28.5428 28.5428 28.5428 28.5428 28.5428 28.5428 28.5428 28.5428 28.5428 36.5428 28.5428 28.5428 28.5428 1266.54 28.5428 77.5428 28.5428 28.5428 28.5428 28.5428 28.5428 28.5428 28.5428 28.5428 28.5428 28.5428 28.5428 28.5428 28.5428 28.5428 28.5428 28.5428 28.5428 28.5428 28.5428 28.5428 28.5428 28.5428 28.5428 28.5428 28.5428 28.5428 28.5428 28.5428 28.5428 28.5428 28.5428 28.5428 28.5428 28.5428 28.5428 28.5428 238.543 28.5428 28.5428 513.543 28.5428 28.5428 28.5428 28.5428 28.5428 28.5428 28.5428 28.5428 28.5428 28.5428 28.5428 28.5428 28.5428 457.543 659.543 28.5428 28.5428 28.5428 29.5428 520.543 28.5428 28.5428 28.5428 28.5428 87.5428 133.543 28.5428 28.5428 28.5428 28.5428 28.5428 28.5428 38.5428 28.5428 28.5428 28.5428 127.543 28.5428 28.5428 28.5428 28.5428 28.5428 28.5428 28.5428 53.5428 28.5428 28.5428 28.5428 28.5428 28.5428 28.5428 28.5428 28.5428 28.5428 28.5428 28.5428 28.5428 28.5428 28.5428 28.5428 31.5428 28.5428 62.5428 28.5428 28.5428 28.5428 28.5428 28.5428 264.543 28.5428 28.5428 28.5428 28.5428 28.5428 28.5428 28.5428 28.5428 28.5428 28.5428 28.5428 28.5428 28.5428 28.5428 28.5428 28.5428 28.5428 28.5428 28.5428 28.5428 28.5428 28.5428 28.5428 28.5428 28.5428 28.5428 28.5428 28.5428 28.5428 28.5428 1615.54 28.5428 28.5428 28.5428 28.5428 44.5428 28.5428 30.5428 28.5428 28.5428 28.5428 28.5428 28.5428 28.5428 28.5428 28.5428 201.543 28.5428 28.5428 28.5428 28.5428 43.5428 28.5428 28.5428 28.5428 28.5428 28.5428 28.5428 28.5428 28.5428 28.5428 28.5428 28.5428 28.5428 28.5428 28.5428 28.5428 28.5428 28.5428 28.5428 28.5428 32.5428 28.5428 2205.1 28.5428 108.543 100.543 158.543 28.5428 29.5428 168.543 294.543 48.5428 28.5428 28.5428 36.5428 28.5428 28.5428 28.5428 28.5428 28.5428 28.5428 28.5428 28.5428 28.5428 28.5428 1792.54 28.5428 28.5428 28.5428 28.5428 28.5428 28.5428 186.543 28.5428 28.5428 28.5428 28.5428 28.5428 1178.54 28.5428 28.5428 28.5428 28.5428 28.5428 28.5428 28.5428 78.5428 28.5428 28.5428 28.5428 28.5428 28.5428 28.5428 46.5428 213.543 28.5428 28.5428 28.5428 28.5428 28.5428 48.5428 28.5428 46.5428 28.5428 28.5428 28.5428 28.5428 28.5428 28.5428 29.5428 28.5428 28.5428 29.5428 28.5428 28.5428 28.5428 28.5428 28.5428 28.5428 28.5428 28.5428 28.5428 28.5428 45.5428 62.5428 28.5428 28.5428 42.5428 28.5428 28.5428 28.5428 28.5428 28.5428 28.5428 28.5428 28.5428 28.5428 28.5428 49.5428 28.5428 28.5428 28.5428 28.5428 28.5428 46.5428 28.5428 28.5428 28.5428 28.5428 28.5428 28.5428 28.5428 28.5428 28.5428 28.5428 28.5428 28.5428 28.5428 28.5428 28.5428 28.5428 28.5428 28.5428 28.5428 28.5428 28.5428 28.5428 28.5428 28.5428 28.5428 34.5428 28.5428 354.543 28.5428 28.5428 28.5428 28.5428 28.5428 28.5428 28.5428 28.5428 28.5428 28.5428 28.5428 28.5428 32.5428 28.5428 34.5428 28.5428 33.5428 28.5428 28.5428 28.5428 28.5428 32.5428 29.5428 29.5428 28.5428 28.5428 28.5428 28.5428 28.5428 28.5428 28.5428 28.5428 28.5428 28.5428 29.5428 28.5428 28.5428 118.543 29.5428 28.5428 28.5428 36.5428 28.5428 28.5428 152.543 28.5428 28.5428 28.5428 28.5428 28.5428 28.5428 28.5428 30.5428 28.5428 28.5428 62.5428 28.5428 28.5428 28.5428 28.5428 28.5428 28.5428 29.5428 28.5428 28.5428 28.5428 28.5428 28.5428 28.5428 28.5428 28.5428 28.5428 28.5428 28.5428 28.5428 28.5428 28.5428 28.5428 28.5428 28.5428 28.5428 28.5428 28.5428 28.5428 28.5428 28.5428 28.5428 28.5428 94.5428 28.5428 28.5428 28.5428 28.5428 28.5428 28.5428 28.5428 28.5428 28.5428 34.5428 28.5428 28.5428 228.543 164.543 28.5428 442.543 92.5428 28.5428 28.5428 28.5428 28.5428 29.5428 28.5428 28.5428 28.5428 275.543 28.5428 28.5428 28.5428 28.5428 28.5428 28.5428 28.5428 28.5428 28.5428 28.5428 28.5428 28.5428 28.5428 109.543 29.5428 28.5428 28.5428 33.5428 28.5428 28.5428 28.5428 28.5428 62.5428 28.5428 28.5428 28.5428 317.543 28.5428 28.5428 28.5428 28.5428 28.5428 28.5428 28.5428 28.5428 28.5428 28.5428 28.5428 28.5428 28.5428 28.5428 28.5428 28.5428 28.5428 28.5428 28.5428 29.5428 102.543 28.5428 28.5428 28.5428 28.5428 28.5428 28.5428 28.5428 28.5428 28.5428 28.5428 28.5428 29.5428 52.5428 28.5428 28.5428 28.5428 28.5428 28.5428 28.5428 248.543 28.5428 28.5428 28.5428 28.5428 28.5428 28.5428 28.5428 28.5428 273.543 274.543 28.5428 37.5428 28.5428 28.5428 28.5428 28.5428 28.5428 28.5428 28.5428 28.5428 28.5428 28.5428 28.5428 29.5428 28.5428 28.5428 28.5428 28.5428 28.5428 35.5428 28.5428 28.5428 278.543 28.5428 28.5428 28.5428 28.5428 28.5428 28.5428 81.5428 33.5428 28.5428 28.5428 28.5428 28.5428 28.5428 28.5428 28.5428 28.5428 28.5428 28.5428 28.5428 28.5428 28.5428 28.5428 28.5428 28.5428 28.5428 28.5428 28.5428 28.5428 29.5428 28.5428 28.5428 28.5428 28.5428 250.543 28.5428 28.5428 28.5428 28.5428 28.5428 28.5428 28.5428 34.5428 28.5428 28.5428 28.5428 28.5428 28.5428 28.5428 28.5428 28.5428 28.5428 28.5428 28.5428 28.5428 28.5428 28.5428 28.5428 28.5428 28.5428 28.5428 28.5428 28.5428 28.5428 28.5428 28.5428 28.5428 52.5428 64.5428 28.5428 28.5428 28.5428 28.5428 44.5428 124.543 248.543 31.5428 28.5428 28.5428 28.5428 28.5428 28.5428 28.5428 28.5428 28.5428 28.5428 28.5428 28.5428 28.5428 28.5428 28.5428 28.5428 28.5428 28.5428 28.5428 28.5428 28.5428 28.5428 28.5428 28.5428 28.5428 44.5428 329.543 28.5428 28.5428 28.5428 163.543 364.543 28.5428 478.543 28.5428 28.5428 28.5428 36.5428 28.5428 28.5428 28.5428 28.5428 28.5428 28.5428 28.5428 28.5428 193.543 28.5428 28.5428 28.5428 28.5428 28.5428 28.5428 28.5428 28.5428 28.5428 28.5428 28.5428 28.5428 28.5428 28.5428 28.5428 28.5428 28.5428 28.5428 28.5428 28.5428 28.5428 28.5428 229.543 28.5428 28.5428 28.5428 28.5428 28.5428 28.5428 28.5428 28.5428 28.5428 36.5428 28.5428 28.5428 28.5428 28.5428 28.5428 28.5428 732.543 28.5428 28.5428 28.5428 28.5428 28.5428 28.5428 28.5428 28.5428 28.5428 28.5428 28.5428 28.5428 37.5428 28.5428 28.5428 28.5428 28.5428 28.5428 48.5428 28.5428 30.5428 28.5428 28.5428 28.5428 28.5428 37.5428 84.5428 28.5428 272.543 59.5428 28.5428 28.5428 42.5428 68.5428 28.5428 28.5428 28.5428 28.5428 28.5428 28.5428 32.5428 28.5428 28.5428 28.5428 28.5428 28.5428 28.5428 28.5428 28.5428 28.5428 28.5428 28.5428 28.5428 28.5428 91.5428 28.5428 28.5428 28.5428 28.5428 28.5428 28.5428 76.5428 461.543 28.5428 44.5428 44.5428 28.5428 74.5428 28.5428 28.5428 727.543 28.5428 204.543 28.5428 28.5428 28.5428 28.5428 28.5428 259.543 56.5428 28.5428 28.5428 28.5428 28.5428 28.5428 28.5428 28.5428 457.543 32.5428 28.5428 28.5428 28.5428 28.5428 75.5428 28.5428 28.5428 28.5428 28.5428 28.5428 28.5428 28.5428 28.5428 28.5428 28.5428 28.5428 28.5428 28.5428 28.5428 28.5428 28.5428 28.5428 28.5428 28.5428 28.5428 28.5428 28.5428 28.5428 28.5428 28.5428 28.5428 28.5428 28.5428 28.5428 28.5428 28.5428 28.5428 28.5428 28.5428 34.5428 100.543 28.5428 28.5428 28.5428 28.5428 28.5428 28.5428 34.5428 28.5428 28.5428 28.5428 28.5428 28.5428 113.543 391.543 48.5428 28.5428 104.543 89.5428 28.5428 82.5428 28.5428 28.5428 28.5428 53.5428 28.5428 28.5428 28.5428 28.5428 28.5428 28.5428 28.5428 28.5428 28.5428 28.5428 28.5428 28.5428 41.5428 28.5428 32.5428 28.5428 31.5428 34.5428 28.5428 28.5428 28.5428 28.5428 43.5428 28.5428 29.5428 28.5428 328.543 32.5428 28.5428 29.5428 28.5428 28.5428 28.5428 28.5428 28.5428 28.5428 28.5428 28.5428 28.5428 28.5428 28.5428 98.5428 179.543 28.5428 28.5428 28.5428 28.5428 28.5428 28.5428 32.5428 28.5428 28.5428 28.5428 28.5428 28.5428 28.5428 28.5428 28.5428 294.543 28.5428 28.5428 248.543 29.5428 28.5428 28.5428 28.5428 28.5428 28.5428 609.543 28.5428 28.5428 28.5428 28.5428 28.5428 28.5428 28.5428 28.5428 28.5428 28.5428 28.5428 28.5428 28.5428 28.5428 28.5428 28.5428 28.5428 28.5428 28.5428 28.5428 28.5428 28.5428 28.5428 28.5428 85.5428 655.543 62.5428 43.5428 44.5428 28.5428 28.5428 28.5428 30.5428 538.543 35.5428 28.5428 28.5428 28.5428 28.5428 28.5428 28.5428 28.5428 28.5428 28.5428 35.5428 28.5428 28.5428 28.5428 28.5428 28.5428 28.5428 28.5428 28.5428 28.5428 28.5428 28.5428 140.543 28.5428 28.5428 28.5428 28.5428 29.5428 28.5428 151.543 28.5428 34.5428 28.5428 28.5428 28.5428 28.5428 28.5428 28.5428 28.5428 28.5428 28.5428 28.5428 28.5428 28.5428 28.5428 28.5428 28.5428 28.5428 28.5428 28.5428 28.5428 41.5428 35.5428 102.543 88.5428 28.5428 28.5428 28.5428 28.5428 28.5428 28.5428 28.5428 28.5428 28.5428 28.5428 28.5428 28.5428 28.5428 28.5428 28.5428 28.5428 28.5428 28.5428 28.5428 28.5428 28.5428 28.5428 28.5428 28.5428 28.5428 34.5428 28.5428 28.5428 28.5428 28.5428 67.5428 28.5428 28.5428 28.5428 28.5428 106.543 28.5428 28.5428 28.5428 28.5428 28.5428 28.5428 48.5428 28.5428 28.5428 28.5428 28.5428 28.5428 28.5428 28.5428 28.5428 28.5428 28.5428 28.5428 28.5428 28.5428 28.5428 28.5428 28.5428 28.5428 28.5428 28.5428 28.5428 28.5428 28.5428 28.5428 28.5428 28.5428 28.5428 28.5428 28.5428 32.5428 28.5428 28.5428 28.5428 28.5428 28.5428 28.5428 28.5428 28.5428 28.5428 28.5428 28.5428 28.5428 28.5428 54.5428 28.5428 28.5428 28.5428 28.5428 28.5428 28.5428 28.5428 28.5428 28.5428 28.5428 28.5428 28.5428 28.5428 28.5428 28.5428 28.5428 28.5428 154.543 28.5428 28.5428 28.5428 28.5428 28.5428 28.5428 28.5428 28.5428 28.5428 28.5428 28.5428 28.5428 28.5428 256.543 28.5428 28.5428 28.5428 28.5428 28.5428 28.5428 48.5428 28.5428 68.5428 28.5428 29.5428 28.5428 133.543 43.5428 28.5428 28.5428 28.5428 28.5428 28.5428 29.5428 28.5428 28.5428 28.5428 28.5428 28.5428 28.5428 28.5428 28.5428 28.5428 28.5428 28.5428 28.5428 28.5428 29.5428 28.5428 28.5428 28.5428 28.5428 28.5428 28.5428 28.5428 28.5428 28.5428 28.5428 28.5428 28.5428 28.5428 28.5428 28.5428 28.5428 28.5428 28.5428 28.5428 28.5428 28.5428 28.5428 28.5428 28.5428 28.5428 28.5428 28.5428 28.5428 28.5428 66.5428 28.5428 28.5428 28.5428 28.5428 28.5428 28.5428 28.5428 28.5428 28.5428 28.5428 28.5428 28.5428 28.5428 28.5428 28.5428 28.5428 28.5428 28.5428 28.5428 28.5428 28.5428 28.5428 28.5428 28.5428 28.5428 548.543 28.5428 28.5428 30.5428 28.5428 28.5428 28.5428 28.5428 28.5428 28.5428 28.5428 28.5428 28.5428 28.5428 28.5428 28.5428 28.5428 28.5428 28.5428 28.5428 28.5428 28.5428 28.5428 28.5428 28.5428 28.5428 28.5428 28.5428 28.5428 28.5428 28.5428 28.5428 28.5428 28.5428 28.5428 28.5428 28.5428 28.5428 28.5428 28.5428 28.5428 357.543 28.5428 28.5428 28.5428 28.5428 28.5428 28.5428 160.543 60.5428 28.5428 32.5428 28.5428 28.5428 28.5428 28.5428 28.5428 28.5428 28.5428 28.5428 146.543 30.5428 28.5428 172.543 40.5428 130.543 70.5428 37.5428 28.5428 28.5428 28.5428 40.5428 31.5428 28.5428 28.5428 28.5428 28.5428 28.5428 28.5428 28.5428 28.5428 28.5428 28.5428 28.5428 28.5428 28.5428 28.5428 28.5428 56.5428 40.5428 28.5428 28.5428 120.543 28.5428 28.5428 28.5428 28.5428 28.5428 28.5428 28.5428 28.5428 28.5428 28.5428 28.5428 413.543 194.543 28.5428 28.5428 29.5428 28.5428 28.5428 28.5428 28.5428 28.5428 28.5428 28.5428 28.5428 28.5428 28.5428 28.5428 28.5428 193.543 181.543 28.5428 28.5428 36.5428 28.5428 28.5428 28.5428 28.5428 28.5428 28.5428 28.5428 28.5428 28.5428 29.5428 28.5428 28.5428 28.5428 28.5428 28.5428 28.5428 28.5428 28.5428 28.5428 28.5428 28.5428 28.5428 28.5428 59.5428 28.5428 28.5428 28.5428 28.5428 28.5428 28.5428 28.5428 28.5428 28.5428 28.5428 28.5428 28.5428 28.5428 28.5428 28.5428 28.5428 28.5428 28.5428 28.5428 28.5428 28.5428 28.5428 28.5428 28.5428 28.5428 44.5428 28.5428 28.5428 28.5428 28.5428 28.5428 28.5428 98.5428 28.5428 28.5428 28.5428 28.5428 28.5428 28.5428 28.5428 28.5428 28.5428 28.5428 28.5428 28.5428 28.5428 28.5428 203.543 70.5428 28.5428 28.5428 28.5428 28.5428 28.5428 28.5428 35.5428 28.5428 44.5428 79.5428 112.543 28.5428 28.5428 43.5428 56.5428 28.5428 42.5428 28.5428 28.5428 28.5428 28.5428 28.5428 28.5428 28.5428 28.5428 28.5428 28.5428 28.5428 28.5428 28.5428 28.5428 28.5428 28.5428 28.5428 28.5428 28.5428 28.5428 28.5428 28.5428 28.5428 28.5428 30.5428 28.5428 28.5428 28.5428 28.5428 28.5428 28.5428 39.5428 28.5428 28.5428 28.5428 28.5428 28.5428 28.5428 28.5428 28.5428 28.5428 28.5428 28.5428 28.5428 28.5428 28.5428 28.5428 28.5428 28.5428 28.5428 28.5428 28.5428 28.5428 31.5428 28.5428 28.5428 28.5428 28.5428 28.5428 28.5428 28.5428 28.5428 28.5428 28.5428 28.5428 28.5428 28.5428 28.5428 28.5428 28.5428 28.5428 38.5428 28.5428 28.5428 28.5428 34.5428 28.5428 28.5428 28.5428 28.5428 36.5428 200.543 28.5428 28.5428 33.5428 186.543 28.5428 28.5428 28.5428 28.5428 28.5428 28.5428 28.5428 28.5428 28.5428 28.5428 28.5428 28.5428 28.5428 28.5428 28.5428 28.5428 28.5428 28.5428 28.5428 28.5428 28.5428 28.5428 28.5428 28.5428 28.5428 28.5428 28.5428 45.5428 31.5428 36.5428 28.5428 28.5428 28.5428 28.5428 28.5428 28.5428 28.5428 28.5428 28.5428 80.5428 230.543 28.5428 28.5428 28.5428 28.5428 28.5428 28.5428 28.5428 28.5428 28.5428 28.5428 28.5428 28.5428 28.5428 28.5428 28.5428 28.5428 28.5428 28.5428 28.5428 29.5428 28.5428 28.5428 28.5428 28.5428 28.5428 28.5428 28.5428 28.5428 28.5428 28.5428 28.5428 28.5428 28.5428 28.5428 58.5428 28.5428 28.5428 28.5428 28.5428 28.5428 28.5428 28.5428 28.5428 30.5428 28.5428 88.5428 172.543 34.5428 28.5428 28.5428 28.5428 28.5428 28.5428 30.5428 28.5428 28.5428 28.5428 28.5428 28.5428 28.5428 28.5428 28.5428 28.5428 31.5428 28.5428 28.5428 28.5428 28.5428 28.5428 28.5428 28.5428 29.5428 46.5428 158.543 188.543 204.543 28.5428 28.5428 28.5428 28.5428 28.5428 28.5428 28.5428 28.5428 28.5428 28.5428 28.5428 28.5428 28.5428 28.5428 309.543 28.5428 366.543 28.5428 28.5428 28.5428 28.5428 28.5428 28.5428 28.5428 28.5428 28.5428 28.5428 28.5428 28.5428 28.5428 28.5428 28.5428 28.5428 28.5428 28.5428 28.5428 28.5428 28.5428 28.5428 28.5428 28.5428 175.543 88.5428 39.5428 30.5428 28.5428 28.5428 28.5428 28.5428 28.5428 28.5428 28.5428 28.5428 28.5428 28.5428 28.5428 28.5428 52.5428 30.5428 102.543 28.5428 28.5428 28.5428 28.5428 34.5428 28.5428 28.5428 28.5428 28.5428 28.5428 28.5428 28.5428 28.5428 28.5428 28.5428 28.5428 28.5428 28.5428 28.5428 28.5428 28.5428 28.5428 28.5428 28.5428 28.5428 121.543 28.5428 28.5428 28.5428 28.5428 28.5428 28.5428 28.5428 28.5428 28.5428 28.5428 28.5428 28.5428 28.5428 28.5428 28.5428 48.5428 28.5428 29.5428 28.5428 78.5428 118.543 28.5428 28.5428 28.5428 28.5428 28.5428 28.5428 28.5428 28.5428 28.5428 28.5428 28.5428 28.5428 38.5428 28.5428 28.5428 28.5428 28.5428 28.5428 28.5428 28.5428 28.5428 28.5428 28.5428 28.5428 28.5428 28.5428 28.5428 28.5428 28.5428 28.5428 28.5428 28.5428 28.5428 28.5428 28.5428 28.5428 28.5428 28.5428 28.5428 28.5428 129.543 28.5428 28.5428 28.5428 28.5428 28.5428 28.5428 28.5428 32.5428 28.5428 28.5428 28.5428 28.5428 28.5428 28.5428 28.5428 28.5428 28.5428 28.5428 28.5428 28.5428 28.5428 28.5428 37.5428 28.5428 28.5428 28.5428 28.5428 28.5428 28.5428 28.5428 28.5428 28.5428 28.5428 28.5428 28.5428 28.5428 28.5428 28.5428 28.5428 28.5428 28.5428 28.5428 28.5428 28.5428 28.5428 28.5428 28.5428 28.5428 28.5428 28.5428 28.5428 28.5428 29.5428 28.5428 28.5428 28.5428 28.5428 28.5428 28.5428 28.5428 28.5428 28.5428 28.5428 28.5428 341.543 176.543 28.5428 70.5428 28.5428 28.5428 28.5428 28.5428 28.5428 196.543 28.5428 28.5428 28.5428 925.543 28.5428 28.5428 28.5428 28.5428 28.5428 28.5428 28.5428 28.5428 28.5428 28.5428 28.5428 28.5428 28.5428 31.5428 28.5428 28.5428 28.5428 28.5428 28.5428 28.5428 28.5428 28.5428 28.5428 28.5428 28.5428 28.5428 28.5428 28.5428 28.5428 211.543 28.5428 196.543 28.5428 28.5428 28.5428 28.5428 28.5428 28.5428 28.5428 28.5428 28.5428 28.5428 28.5428 28.5428 28.5428 28.5428 28.5428 35.5428 31.5428 30.5428 28.5428 28.5428 28.5428 28.5428 28.5428 28.5428 28.5428 28.5428 28.5428 28.5428 28.5428 28.5428 28.5428 288.543 28.5428 28.5428 28.5428 28.5428 28.5428 28.5428 28.5428 28.5428 28.5428 28.5428 28.5428 28.5428 28.5428 28.5428 28.5428 28.5428 59.5428 28.5428 28.5428 28.5428 28.5428 28.5428 28.5428 28.5428 28.5428 28.5428 28.5428 28.5428 80.5428 28.5428 28.5428 28.5428 28.5428 28.5428 28.5428 28.5428 28.5428 28.5428 28.5428 28.5428 28.5428 28.5428 28.5428 73.5428 52.5428 28.5428 28.5428 28.5428 28.5428 33.5428 28.5428 28.5428 28.5428 28.5428 28.5428 28.5428 28.5428 28.5428 28.5428 28.5428 28.5428 28.5428 28.5428 28.5428 28.5428 28.5428 28.5428 28.5428 28.5428 28.5428 286.543 52.5428 39.5428 28.5428 28.5428 28.5428 28.5428 28.5428 28.5428 28.5428 28.5428 28.5428 28.5428 28.5428 28.5428 28.5428 28.5428 28.5428 28.5428 28.5428 28.5428 28.5428 28.5428 28.5428 28.5428 28.5428 28.5428 28.5428 28.5428 28.5428 28.5428 28.5428 28.5428 28.5428 28.5428 28.5428 28.5428 28.5428 28.5428 28.5428 28.5428 28.5428 28.5428 28.5428 28.5428 63.5428 33.5428 28.5428 28.5428 28.5428 28.5428 28.5428 28.5428 28.5428 28.5428 28.5428 30.5428 28.5428 28.5428 28.5428 28.5428 37.5428 34.5428 28.5428 28.5428 28.5428 38.5428 46.5428 28.5428 28.5428 28.5428 28.5428 28.5428 28.5428 28.5428 29.5428 28.5428 124.543 29.5428 28.5428 28.5428 28.5428 31.5428 28.5428 28.5428 28.5428 28.5428 106.543 148.543 28.5428 28.5428 28.5428 28.5428 28.5428 28.5428 28.5428 28.5428 28.5428 28.5428 28.5428 28.5428 28.5428 28.5428 28.5428 43.5428 64.5428 28.5428 28.5428 28.5428 28.5428 84.5428 36.5428 28.5428 
rewards of Offsets elements: 419 43 53 745 0 0 147 0 1 0 0 1185 0 0 0 0 0 0 0 0 0 0 864 0 0 0 0 0 1705 0 0 0 0 966 0 0 0 4 0 0 0 0 0 0 0 0 0 0 0 8 0 0 0 1238 0 49 0 0 0 0 0 0 0 0 0 0 0 0 0 0 0 0 0 0 0 0 0 0 0 0 0 0 0 0 0 0 0 0 0 0 0 0 210 0 0 485 0 0 0 0 0 0 0 0 0 0 0 0 0 429 631 0 0 0 1 492 0 0 0 0 59 105 0 0 0 0 0 0 10 0 0 0 99 0 0 0 0 0 0 0 25 0 0 0 0 0 0 0 0 0 0 0 0 0 0 0 3 0 34 0 0 0 0 0 236 0 0 0 0 0 0 0 0 0 0 0 0 0 0 0 0 0 0 0 0 0 0 0 0 0 0 0 0 0 0 1587 0 0 0 0 16 0 2 0 0 0 0 0 0 0 0 173 0 0 0 0 15 0 0 0 0 0 0 0 0 0 0 0 0 0 0 0 0 0 0 0 4 0 2205 0 80 72 130 0 1 140 266 20 0 0 8 0 0 0 0 0 0 0 0 0 0 1764 0 0 0 0 0 0 158 0 0 0 0 0 1150 0 0 0 0 0 0 0 50 0 0 0 0 0 0 18 185 0 0 0 0 0 20 0 18 0 0 0 0 0 0 1 0 0 1 0 0 0 0 0 0 0 0 0 0 17 34 0 0 14 0 0 0 0 0 0 0 0 0 0 21 0 0 0 0 0 18 0 0 0 0 0 0 0 0 0 0 0 0 0 0 0 0 0 0 0 0 0 0 0 0 0 6 0 326 0 0 0 0 0 0 0 0 0 0 0 0 4 0 6 0 5 0 0 0 0 4 1 1 0 0 0 0 0 0 0 0 0 0 1 0 0 90 1 0 0 8 0 0 124 0 0 0 0 0 0 0 2 0 0 34 0 0 0 0 0 0 1 0 0 0 0 0 0 0 0 0 0 0 0 0 0 0 0 0 0 0 0 0 0 0 0 0 66 0 0 0 0 0 0 0 0 0 6 0 0 200 136 0 414 64 0 0 0 0 1 0 0 0 247 0 0 0 0 0 0 0 0 0 0 0 0 0 81 1 0 0 5 0 0 0 0 34 0 0 0 289 0 0 0 0 0 0 0 0 0 0 0 0 0 0 0 0 0 0 0 1 74 0 0 0 0 0 0 0 0 0 0 0 1 24 0 0 0 0 0 0 220 0 0 0 0 0 0 0 0 245 246 0 9 0 0 0 0 0 0 0 0 0 0 0 1 0 0 0 0 0 7 0 0 250 0 0 0 0 0 0 53 5 0 0 0 0 0 0 0 0 0 0 0 0 0 0 0 0 0 0 0 0 1 0 0 0 0 222 0 0 0 0 0 0 0 6 0 0 0 0 0 0 0 0 0 0 0 0 0 0 0 0 0 0 0 0 0 0 0 0 24 36 0 0 0 0 16 96 220 3 0 0 0 0 0 0 0 0 0 0 0 0 0 0 0 0 0 0 0 0 0 0 0 0 16 301 0 0 0 135 336 0 450 0 0 0 8 0 0 0 0 0 0 0 0 165 0 0 0 0 0 0 0 0 0 0 0 0 0 0 0 0 0 0 0 0 0 0 201 0 0 0 0 0 0 0 0 0 8 0 0 0 0 0 0 704 0 0 0 0 0 0 0 0 0 0 0 0 9 0 0 0 0 0 20 0 2 0 0 0 0 9 56 0 244 31 0 0 14 40 0 0 0 0 0 0 4 0 0 0 0 0 0 0 0 0 0 0 0 0 63 0 0 0 0 0 0 48 433 0 16 16 0 46 0 0 699 0 176 0 0 0 0 0 231 28 0 0 0 0 0 0 0 429 4 0 0 0 0 47 0 0 0 0 0 0 0 0 0 0 0 0 0 0 0 0 0 0 0 0 0 0 0 0 0 0 0 0 0 0 0 0 0 0 6 72 0 0 0 0 0 0 6 0 0 0 0 0 85 363 20 0 76 61 0 54 0 0 0 25 0 0 0 0 0 0 0 0 0 0 0 0 13 0 4 0 3 6 0 0 0 0 15 0 1 0 300 4 0 1 0 0 0 0 0 0 0 0 0 0 0 70 151 0 0 0 0 0 0 4 0 0 0 0 0 0 0 0 266 0 0 220 1 0 0 0 0 0 581 0 0 0 0 0 0 0 0 0 0 0 0 0 0 0 0 0 0 0 0 0 0 0 0 57 627 34 15 16 0 0 0 2 510 7 0 0 0 0 0 0 0 0 0 7 0 0 0 0 0 0 0 0 0 0 0 112 0 0 0 0 1 0 123 0 6 0 0 0 0 0 0 0 0 0 0 0 0 0 0 0 0 0 0 0 13 7 74 60 0 0 0 0 0 0 0 0 0 0 0 0 0 0 0 0 0 0 0 0 0 0 0 0 0 6 0 0 0 0 39 0 0 0 0 78 0 0 0 0 0 0 20 0 0 0 0 0 0 0 0 0 0 0 0 0 0 0 0 0 0 0 0 0 0 0 0 0 0 0 0 4 0 0 0 0 0 0 0 0 0 0 0 0 0 26 0 0 0 0 0 0 0 0 0 0 0 0 0 0 0 0 0 126 0 0 0 0 0 0 0 0 0 0 0 0 0 228 0 0 0 0 0 0 20 0 40 0 1 0 105 15 0 0 0 0 0 1 0 0 0 0 0 0 0 0 0 0 0 0 0 1 0 0 0 0 0 0 0 0 0 0 0 0 0 0 0 0 0 0 0 0 0 0 0 0 0 0 0 0 0 38 0 0 0 0 0 0 0 0 0 0 0 0 0 0 0 0 0 0 0 0 0 0 0 0 0 520 0 0 2 0 0 0 0 0 0 0 0 0 0 0 0 0 0 0 0 0 0 0 0 0 0 0 0 0 0 0 0 0 0 0 0 0 0 0 0 0 329 0 0 0 0 0 0 132 32 0 4 0 0 0 0 0 0 0 0 118 2 0 144 12 102 42 9 0 0 0 12 3 0 0 0 0 0 0 0 0 0 0 0 0 0 0 0 28 12 0 0 92 0 0 0 0 0 0 0 0 0 0 0 385 166 0 0 1 0 0 0 0 0 0 0 0 0 0 0 0 165 153 0 0 8 0 0 0 0 0 0 0 0 0 1 0 0 0 0 0 0 0 0 0 0 0 0 0 31 0 0 0 0 0 0 0 0 0 0 0 0 0 0 0 0 0 0 0 0 0 0 0 0 0 16 0 0 0 0 0 0 70 0 0 0 0 0 0 0 0 0 0 0 0 0 0 175 42 0 0 0 0 0 0 7 0 16 51 84 0 0 15 28 0 14 0 0 0 0 0 0 0 0 0 0 0 0 0 0 0 0 0 0 0 0 0 0 0 0 2 0 0 0 0 0 0 11 0 0 0 0 0 0 0 0 0 0 0 0 0 0 0 0 0 0 0 0 0 3 0 0 0 0 0 0 0 0 0 0 0 0 0 0 0 0 0 10 0 0 0 6 0 0 0 0 8 172 0 0 5 158 0 0 0 0 0 0 0 0 0 0 0 0 0 0 0 0 0 0 0 0 0 0 0 0 0 0 0 17 3 8 0 0 0 0 0 0 0 0 0 52 202 0 0 0 0 0 0 0 0 0 0 0 0 0 0 0 0 0 0 0 1 0 0 0 0 0 0 0 0 0 0 0 0 0 0 30 0 0 0 0 0 0 0 0 2 0 60 144 6 0 0 0 0 0 2 0 0 0 0 0 0 0 0 0 3 0 0 0 0 0 0 0 1 18 130 160 176 0 0 0 0 0 0 0 0 0 0 0 0 0 0 281 0 338 0 0 0 0 0 0 0 0 0 0 0 0 0 0 0 0 0 0 0 0 0 0 0 0 147 60 11 2 0 0 0 0 0 0 0 0 0 0 0 0 24 2 74 0 0 0 0 6 0 0 0 0 0 0 0 0 0 0 0 0 0 0 0 0 0 0 0 0 93 0 0 0 0 0 0 0 0 0 0 0 0 0 0 0 20 0 1 0 50 90 0 0 0 0 0 0 0 0 0 0 0 0 10 0 0 0 0 0 0 0 0 0 0 0 0 0 0 0 0 0 0 0 0 0 0 0 0 0 0 0 101 0 0 0 0 0 0 0 4 0 0 0 0 0 0 0 0 0 0 0 0 0 0 9 0 0 0 0 0 0 0 0 0 0 0 0 0 0 0 0 0 0 0 0 0 0 0 0 0 0 0 0 0 1 0 0 0 0 0 0 0 0 0 0 0 313 148 0 42 0 0 0 0 0 168 0 0 0 897 0 0 0 0 0 0 0 0 0 0 0 0 0 3 0 0 0 0 0 0 0 0 0 0 0 0 0 0 0 183 0 168 0 0 0 0 0 0 0 0 0 0 0 0 0 0 0 7 3 2 0 0 0 0 0 0 0 0 0 0 0 0 0 260 0 0 0 0 0 0 0 0 0 0 0 0 0 0 0 0 31 0 0 0 0 0 0 0 0 0 0 0 52 0 0 0 0 0 0 0 0 0 0 0 0 0 0 45 24 0 0 0 0 5 0 0 0 0 0 0 0 0 0 0 0 0 0 0 0 0 0 0 0 0 258 24 11 0 0 0 0 0 0 0 0 0 0 0 0 0 0 0 0 0 0 0 0 0 0 0 0 0 0 0 0 0 0 0 0 0 0 0 0 0 0 0 0 0 0 35 5 0 0 0 0 0 0 0 0 0 2 0 0 0 0 9 6 0 0 0 10 18 0 0 0 0 0 0 0 1 0 96 1 0 0 0 3 0 0 0 0 78 120 0 0 0 0 0 0 0 0 0 0 0 0 0 0 0 15 36 0 0 0 0 56 8 0 Printing Sanity3
offset_index value2158
offset list size2158
reward size2158
potential size2158
-----------------------------------------------------------------------------------------------------------------------------------------------------------------------------------------------------

DRAM Statistics
 CHANNEL 0
 RQ ROW_BUFFER_HIT:      27535  ROW_BUFFER_MISS:      43115
 DBUS_CONGESTED:         27
 WQ ROW_BUFFER_HIT:       3895  ROW_BUFFER_MISS:      36008  FULL:          0

 AVG_CONGESTED_CYCLE: 5
 All warmup complete: 2
Channel 0 Bank busy for read cycles: 0
Channel 0 Bank busy for write cycles: 0
Channel 0
Rank 0
0banks busy for read cycles: 613405780
0banks busy for write cycles: 8864
1banks busy for read cycles: 1865787
1banks busy for write cycles: 1109643
2banks busy for read cycles: 321379
2banks busy for write cycles: 245796
3banks busy for read cycles: 224205
3banks busy for write cycles: 131520
4banks busy for read cycles: 164307
4banks busy for write cycles: 114189
5banks busy for read cycles: 117233
5banks busy for write cycles: 101696
6banks busy for read cycles: 114104
6banks busy for write cycles: 99834
7banks busy for read cycles: 118184
7banks busy for write cycles: 110752
8banks busy for read cycles: 242204
8banks busy for write cycles: 294565

CPU 0 Branch Prediction Accuracy: 99.8625% MPKI: 0.24407 Average ROB Occupancy at Mispredict: 29.8225
Branch types
NOT_BRANCH: 164508669 82.2543%
BRANCH_DIRECT_JUMP: 2033451 1.01673%
BRANCH_INDIRECT: 12129859 6.06493%
BRANCH_CONDITIONAL: 12443472 6.22174%
BRANCH_DIRECT_CALL: 3753650 1.87682%
BRANCH_INDIRECT_CALL: 688651 0.344325%
BRANCH_RETURN: 4442350 2.22117%
BRANCH_OTHER: 0 0%

DRAM PAGES: 1048576
Allocated PAGES: 2563
