
*** ChampSim Multicore Out-of-Order Simulator ***

Warmup Instructions: 50000000
Simulation Instructions: 200000000
Number of CPUs: 1
LLC sets: 2048
LLC ways: 16
Off-chip DRAM Size: 4096 MB Channels: 1 Width: 64-bit Data Rate: 6400 MT/s
CPU 0 runs traces/spec2k17/server_017.champsimtrace.xz
.xz
BTB has LRU replacement policy
ITLB has LRU replacement policy
DTLB has LRU replacement policy
STLB has LRU replacement policy
L1I has LRU replacement policy
L1D has LRU replacement policy
Initialize SRRIP state for L2C
Initialize DRRIP state for LLC
Offsets elements: 
Potential of Offsets elements: 
rewards of Offsets elements: 
Printing Sanity1
offset list size2011
Offsets elements: 
Potential of Offsets elements: 
rewards of Offsets elements: 1818 555 0 0 0 0 0 1514 0 0 0 0 0 0 0 0 0 0 0 0 0 0 0 0 0 0 0 0 0 0 0 0 0 0 0 0 0 0 0 0 0 0 0 0 0 0 0 0 0 0 6 0 5 0 0 313 0 0 0 0 0 0 0 0 0 0 0 0 0 0 0 0 0 0 0 0 12 0 0 0 0 0 0 4 56 0 0 348 661 0 0 0 50 0 0 0 0 0 653 0 0 524 226 0 0 0 0 0 0 0 178 627 0 0 2 0 0 0 0 0 5 246 4 0 942 0 0 23 0 0 0 124 0 0 2 0 0 0 654 72 0 0 0 0 0 233 0 0 567 989 0 0 8 0 0 512 0 0 75 9 0 0 0 0 0 0 0 0 0 0 0 0 0 0 0 0 0 0 0 0 0 0 0 0 0 0 0 0 0 0 0 0 0 0 0 0 0 0 0 188 0 0 0 0 1 0 0 0 0 186 31 0 0 0 354 0 0 178 0 0 0 0 0 0 0 0 174 0 0 0 0 0 0 0 145 0 0 0 0 0 0 0 0 217 0 267 0 8 357 85 0 0 0 0 0 0 0 0 4 0 0 0 0 0 0 0 0 0 0 0 0 8 0 22 5 0 24 0 142 1 2 6 14 0 6 6 44 31 24 24 0 0 585 0 0 0 0 0 0 0 0 0 0 0 0 133 0 0 0 581 3 0 2 0 33 0 0 0 0 0 14 0 8 0 0 397 0 0 0 0 0 0 0 0 14 0 0 8 2 0 0 75 61 0 0 0 10 4 0 0 0 156 0 0 40 110 37 6 36 90 105 35 126 100 84 0 8 25 28 39 0 0 90 12 8 0 18 0 0 0 0 0 0 0 0 2 0 0 0 0 0 0 0 0 0 0 0 0 0 0 0 7 0 0 0 0 0 0 0 0 0 0 0 0 199 21 206 0 0 0 0 0 4 12 6 13 0 0 173 0 0 0 0 0 0 0 0 377 0 2 0 67 0 0 0 0 0 0 0 0 0 1 0 20 0 0 7 0 0 15 0 12 0 0 0 0 391 0 0 0 0 0 0 0 0 0 0 0 0 0 63 0 12 1 4 0 0 0 0 0 0 2 0 40 0 0 0 0 0 0 33 0 0 0 0 0 0 0 0 0 0 0 0 0 0 0 2 0 0 0 0 0 0 0 0 0 0 0 0 0 0 0 0 0 0 0 0 0 0 0 166 0 0 298 0 0 0 0 0 0 0 0 0 0 0 0 0 0 0 0 0 0 0 0 0 0 0 0 0 0 0 0 0 0 0 0 0 0 0 0 0 0 0 0 0 0 0 14 0 0 0 0 0 0 0 0 0 0 0 6 0 0 0 0 10 0 0 0 0 0 0 0 0 0 14 16 0 0 18 0 49 0 16 0 0 170 0 27 0 0 0 0 0 0 57 0 0 0 0 0 0 0 0 0 0 0 0 33 160 0 0 0 0 21 0 0 0 0 5 0 0 0 0 0 0 0 31 0 0 0 12 0 0 0 0 0 0 0 0 0 0 0 0 0 0 0 0 0 0 0 0 0 0 0 0 8 0 0 0 0 0 0 0 0 0 0 0 0 0 0 0 0 1 0 0 0 0 0 0 0 0 0 0 0 0 0 0 0 0 0 0 0 0 0 0 0 0 0 0 0 0 0 0 0 0 0 0 0 0 0 0 0 0 0 0 0 0 0 0 0 24 3 0 8 0 0 81 27 0 1 0 14 0 0 0 0 15 14 0 0 0 0 0 0 6 25 11 0 0 0 20 0 0 0 0 0 0 0 0 0 0 0 0 0 0 0 35 0 0 0 15 0 0 0 0 0 0 0 0 0 0 0 0 0 0 0 0 0 0 0 0 0 0 0 0 0 0 0 0 0 0 0 0 0 0 0 0 0 0 0 0 0 0 0 0 0 0 0 0 0 0 0 0 0 0 0 0 0 0 0 0 0 0 0 0 0 0 0 0 0 0 0 0 0 0 0 0 0 0 0 0 0 0 0 0 0 0 0 0 0 0 0 0 0 0 0 0 0 0 0 0 0 0 0 0 0 0 0 0 0 0 0 0 0 0 0 0 0 0 0 0 0 0 0 0 0 0 38 0 0 0 0 0 0 48 0 0 0 0 0 0 0 0 0 0 0 0 0 5 0 0 0 0 0 0 0 19 0 0 0 0 2 0 0 0 0 0 0 0 0 0 0 0 0 0 0 0 0 0 0 0 0 0 0 0 0 377 12 5 0 0 0 0 428 4 0 0 10 0 0 0 0 0 0 0 0 0 0 0 0 0 0 0 0 0 0 21 0 0 0 0 0 0 0 0 0 0 0 0 0 0 0 0 0 0 0 0 1 1 0 0 0 0 0 0 0 0 0 2 0 0 0 0 0 0 0 0 0 0 0 0 0 0 11 22 13 0 42 49 0 1 0 0 0 0 0 0 0 0 0 0 0 0 0 5 0 0 6 0 0 0 0 1 0 0 0 0 0 0 0 0 0 0 0 30 0 10 0 0 0 0 0 0 0 0 0 0 0 0 0 0 0 0 0 0 0 0 0 0 0 0 0 0 0 0 61 0 0 0 0 0 0 0 0 0 0 0 0 0 0 262 0 0 48 0 0 0 0 4 0 0 0 0 0 0 0 2 0 0 0 0 0 0 0 0 0 0 256 16 0 0 0 0 0 0 0 0 0 0 0 0 0 0 0 0 0 0 0 0 0 0 0 12 0 0 0 0 0 0 0 0 0 0 0 0 0 0 0 0 0 0 0 0 0 0 0 9 0 0 3 0 0 0 0 0 0 0 51 0 0 0 0 0 0 0 0 0 0 22 0 0 0 0 0 0 0 0 0 0 0 0 0 0 2 0 0 0 0 0 0 0 0 0 0 0 0 0 7 0 0 0 0 0 0 0 0 148 0 0 0 0 0 0 0 0 0 0 0 0 0 105 0 0 1 5 6 0 0 0 0 0 0 0 0 0 0 0 0 0 0 0 0 0 0 0 0 0 0 0 0 0 0 0 0 0 0 0 0 0 0 258 0 0 0 0 7 32 0 4 0 0 0 0 0 0 0 0 0 0 0 0 0 0 0 0 0 0 0 0 0 0 0 0 0 0 0 0 0 0 0 0 0 63 0 0 0 0 0 0 0 0 0 0 0 0 0 0 0 0 0 0 0 0 0 0 0 0 0 0 0 0 0 0 0 0 0 0 0 0 0 0 0 0 0 0 0 0 0 0 0 0 0 0 0 0 0 0 0 0 0 0 0 0 0 0 0 0 0 0 0 0 0 0 0 31 0 0 12 0 0 0 0 0 0 0 0 0 0 0 0 0 0 0 0 0 0 0 0 0 0 0 0 0 0 0 0 0 0 0 0 0 0 0 0 0 0 0 0 0 0 0 0 0 0 0 0 0 0 0 0 0 0 0 0 0 0 0 32 0 2 0 0 0 0 37 0 0 0 0 0 0 0 0 0 0 0 0 0 0 0 0 0 0 0 0 0 0 0 0 0 0 0 0 0 0 0 0 0 0 0 0 0 0 0 0 0 0 0 0 0 0 0 0 25 0 0 0 0 0 0 0 0 0 0 0 0 0 0 0 0 0 0 0 0 0 2 0 0 0 0 0 0 0 0 0 0 0 2 6 0 0 0 0 0 0 0 0 0 0 0 0 0 0 0 0 0 0 0 0 0 0 0 0 0 0 0 0 0 0 0 0 0 0 0 0 0 0 0 0 0 0 0 0 0 0 0 0 0 0 0 0 0 0 0 0 0 0 0 0 0 0 0 0 0 0 0 12 0 0 0 0 0 0 16 0 0 0 0 1 0 0 0 0 0 0 0 0 3 4 0 0 18 0 0 0 0 0 0 0 0 0 2 0 0 21 0 0 0 0 0 0 0 0 0 0 0 0 0 0 0 0 0 0 0 0 0 0 0 0 0 0 165 0 0 0 0 0 0 0 0 0 0 0 0 0 0 0 0 0 3 0 0 0 0 0 0 0 0 0 0 0 0 0 0 0 0 0 3 0 0 24 0 0 0 0 40 0 0 14 0 0 0 0 0 0 0 1 0 0 0 0 0 0 0 0 0 4 0 0 15 0 0 0 0 3 0 0 0 0 0 10 0 1 0 0 0 0 0 2 0 0 0 0 0 0 0 0 0 0 6 0 0 0 0 0 0 0 0 0 0 0 0 0 0 0 0 0 0 0 19 0 0 170 43 39 43 14 12 0 28 0 9 0 0 0 0 0 26 0 56 0 0 0 38 0 0 0 0 20 0 120 44 0 0 44 63 35 10 0 0 0 0 0 0 0 0 0 0 0 42 0 25 0 0 3 0 0 0 0 27 30 0 7 0 0 0 0 0 0 14 0 0 36 0 3 0 0 29 0 11 0 0 0 0 0 0 0 0 0 0 0 0 0 2 0 0 0 0 0 0 0 0 0 0 0 0 0 0 0 0 0 0 0 0 0 0 0 0 0 0 0 0 2 0 0 0 0 0 0 0 0 0 0 0 0 0 0 0 0 0 0 
Printing Sanity2
Heartbeat CPU 0 instructions: 10000000 cycles: 2943146 heartbeat IPC: 3.39772 cumulative IPC: 3.39772 (Simulation time: 0 hr 0 min 24 sec) 
Heartbeat CPU 0 instructions: 20000000 cycles: 5913850 heartbeat IPC: 3.36621 cumulative IPC: 3.38189 (Simulation time: 0 hr 0 min 48 sec) 
Heartbeat CPU 0 instructions: 30000003 cycles: 8886014 heartbeat IPC: 3.36455 cumulative IPC: 3.37609 (Simulation time: 0 hr 1 min 12 sec) 
Heartbeat CPU 0 instructions: 40000003 cycles: 11857541 heartbeat IPC: 3.36527 cumulative IPC: 3.37338 (Simulation time: 0 hr 1 min 36 sec) 
Heartbeat CPU 0 instructions: 50000000 cycles: 14829993 heartbeat IPC: 3.36422 cumulative IPC: 3.37155 (Simulation time: 0 hr 2 min 0 sec) 

Warmup complete CPU 0 instructions: 50000004 cycles: 14829994 (Simulation time: 0 hr 2 min 0 sec) 

Heartbeat CPU 0 instructions: 60000003 cycles: 36081409 heartbeat IPC: 0.470557 cumulative IPC: 0.470557 (Simulation time: 0 hr 2 min 41 sec) 
Heartbeat CPU 0 instructions: 70000001 cycles: 57227269 heartbeat IPC: 0.472906 cumulative IPC: 0.471728 (Simulation time: 0 hr 3 min 23 sec) 
Heartbeat CPU 0 instructions: 80000003 cycles: 78380145 heartbeat IPC: 0.472749 cumulative IPC: 0.472068 (Simulation time: 0 hr 4 min 5 sec) 
Heartbeat CPU 0 instructions: 90000002 cycles: 99441827 heartbeat IPC: 0.474796 cumulative IPC: 0.472747 (Simulation time: 0 hr 4 min 47 sec) 
Heartbeat CPU 0 instructions: 100000002 cycles: 129824555 heartbeat IPC: 0.329134 cumulative IPC: 0.434803 (Simulation time: 0 hr 5 min 29 sec) 
*** Reached end of trace for Core: 0 Repeating trace: traces/spec2k17/server_017.champsimtrace.xz
Heartbeat CPU 0 instructions: 110000000 cycles: 153730211 heartbeat IPC: 0.418311 cumulative IPC: 0.431965 (Simulation time: 0 hr 6 min 12 sec) 
Heartbeat CPU 0 instructions: 120000002 cycles: 176268967 heartbeat IPC: 0.44368 cumulative IPC: 0.4336 (Simulation time: 0 hr 6 min 55 sec) 
Heartbeat CPU 0 instructions: 130000002 cycles: 198023762 heartbeat IPC: 0.459669 cumulative IPC: 0.436696 (Simulation time: 0 hr 7 min 37 sec) 
Heartbeat CPU 0 instructions: 140000002 cycles: 219541132 heartbeat IPC: 0.464741 cumulative IPC: 0.439644 (Simulation time: 0 hr 8 min 18 sec) 
Heartbeat CPU 0 instructions: 150000003 cycles: 240831491 heartbeat IPC: 0.469696 cumulative IPC: 0.442475 (Simulation time: 0 hr 9 min 1 sec) 
Heartbeat CPU 0 instructions: 160000003 cycles: 262092774 heartbeat IPC: 0.470338 cumulative IPC: 0.444871 (Simulation time: 0 hr 9 min 43 sec) 
Heartbeat CPU 0 instructions: 170000000 cycles: 283219348 heartbeat IPC: 0.473337 cumulative IPC: 0.447112 (Simulation time: 0 hr 10 min 24 sec) 
Heartbeat CPU 0 instructions: 180000001 cycles: 304376876 heartbeat IPC: 0.472645 cumulative IPC: 0.448977 (Simulation time: 0 hr 11 min 6 sec) 
Heartbeat CPU 0 instructions: 190000000 cycles: 325481678 heartbeat IPC: 0.473826 cumulative IPC: 0.450666 (Simulation time: 0 hr 11 min 48 sec) 
Heartbeat CPU 0 instructions: 200000003 cycles: 346506116 heartbeat IPC: 0.475637 cumulative IPC: 0.452248 (Simulation time: 0 hr 12 min 30 sec) 
Heartbeat CPU 0 instructions: 210000001 cycles: 377102847 heartbeat IPC: 0.326832 cumulative IPC: 0.441656 (Simulation time: 0 hr 13 min 13 sec) 
*** Reached end of trace for Core: 0 Repeating trace: traces/spec2k17/server_017.champsimtrace.xz
Heartbeat CPU 0 instructions: 220000000 cycles: 400345351 heartbeat IPC: 0.430246 cumulative IPC: 0.440968 (Simulation time: 0 hr 13 min 56 sec) 
Heartbeat CPU 0 instructions: 230000000 cycles: 422533560 heartbeat IPC: 0.45069 cumulative IPC: 0.441497 (Simulation time: 0 hr 14 min 39 sec) 
Heartbeat CPU 0 instructions: 240000001 cycles: 444235098 heartbeat IPC: 0.460797 cumulative IPC: 0.442473 (Simulation time: 0 hr 15 min 21 sec) 
Heartbeat CPU 0 instructions: 250000003 cycles: 465654736 heartbeat IPC: 0.466861 cumulative IPC: 0.443631 (Simulation time: 0 hr 16 min 4 sec) 
Finished CPU 0 instructions: 200000001 cycles: 450824743 cumulative IPC: 0.443631 (Simulation time: 0 hr 16 min 4 sec) 

ChampSim completed all CPUs

Region of Interest Statistics

CPU 0 cumulative IPC: 0.443631 instructions: 200000001 cycles: 450824743
ITLB TOTAL     ACCESS:   33609684  HIT:   32191023  MISS:    1418661  HIT %:     95.779  MISS %:    4.22099   MPKI: 7.0933
ITLB LOAD TRANSLATION ACCESS:   33609684  HIT:   32191023  MISS:    1418661  HIT %:     95.779  MISS %:    4.22099   MPKI: 7.0933
ITLB PREFETCH  REQUESTED:          0  ISSUED:          0  USEFUL:          0  USELESS:          0
ITLB USEFUL LOAD PREFETCHES:          0 PREFETCH ISSUED TO LOWER LEVEL:          0  ACCURACY: -nan
ITLB TIMELY PREFETCHES:          0 LATE PREFETCHES: 0 DROPPED PREFETCHES: 0
ITLB PREFETCHES SAME FILL-ORIGIN LEVEL: 0 DIFFERENT FILL-ORIGIN LEVEL: 0
ITLB AVERAGE MISS LATENCY: 9.57179 cycles
ITLB RQ	ACCESS:   40238090	FORWARD:          0	MERGED:    6171356	TO_CACHE:   34066734

DTLB TOTAL     ACCESS:   38898406  HIT:   37277368  MISS:    1621038  HIT %:    95.8326  MISS %:    4.16736   MPKI: 8.10519
DTLB LOAD TRANSLATION ACCESS:   38898406  HIT:   37277368  MISS:    1621038  HIT %:    95.8326  MISS %:    4.16736   MPKI: 8.10519
DTLB PREFETCH  REQUESTED:          0  ISSUED:          0  USEFUL:          0  USELESS:          0
DTLB USEFUL LOAD PREFETCHES:          0 PREFETCH ISSUED TO LOWER LEVEL:          0  ACCURACY: -nan
DTLB TIMELY PREFETCHES:          0 LATE PREFETCHES: 0 DROPPED PREFETCHES: 0
DTLB PREFETCHES SAME FILL-ORIGIN LEVEL: 0 DIFFERENT FILL-ORIGIN LEVEL: 0
DTLB AVERAGE MISS LATENCY: 21.9764 cycles
DTLB RQ	ACCESS:   58785443	FORWARD:          0	MERGED:   19508600	TO_CACHE:   39276843

STLB TOTAL     ACCESS:   22317288  HIT:   22120544  MISS:     196744  HIT %:    99.1184  MISS %:   0.881577   MPKI: 0.98372
STLB LOAD TRANSLATION ACCESS:    3039699  HIT:    2846589  MISS:     193110  HIT %:    93.6471  MISS %:    6.35293   MPKI: 0.96555
STLB TRANSLATION FROM L1D PREFETCHER ACCESS:   19277589  HIT:   19273955  MISS:       3634  HIT %:    99.9811  MISS %:  0.0188509   MPKI: 0.01817
STLB PREFETCH  REQUESTED:          0  ISSUED:          0  USEFUL:       2786  USELESS:        847
STLB USEFUL LOAD PREFETCHES:       2786 PREFETCH ISSUED TO LOWER LEVEL:          0  ACCURACY: inf
STLB TIMELY PREFETCHES:       2786 LATE PREFETCHES: 62 DROPPED PREFETCHES: 661711
STLB PREFETCHES SAME FILL-ORIGIN LEVEL: 0 DIFFERENT FILL-ORIGIN LEVEL: 0
STLB AVERAGE MISS LATENCY: 112.3 cycles
STLB RQ	ACCESS:   28286003	FORWARD:          0	MERGED:    5306762	TO_CACHE:   22979241

STLB Hit, L1D data hit: 0
STLB Hit, L2C data hit: 0
STLB Hit, LLC data hit: 0
STLB Hit, LLC data miss: 0
STLB STLB hints to L2: 0
L1D TOTAL     ACCESS:   71076251  HIT:   62942611  MISS:    8133640  HIT %:    88.5565  MISS %:    11.4435   MPKI: 40.6682
L1D LOAD      ACCESS:   26099350  HIT:   22985709  MISS:    3113641  HIT %:      88.07  MISS %:      11.93   MPKI: 15.5682
L1D RFO       ACCESS:   21771533  HIT:   18405839  MISS:    3365694  HIT %:    84.5408  MISS %:    15.4592   MPKI: 16.8285
L1D PREFETCH  ACCESS:   23205368  HIT:   21551063  MISS:    1654305  HIT %:     92.871  MISS %:    7.12898   MPKI: 8.27152
AGUS PREFETCH L1 MISS: 0
L1D PREFETCH  REQUESTED:   51762215  ISSUED:   51758813  USEFUL:     357186  USELESS:    1297120
L1D USEFUL LOAD PREFETCHES:     357186 PREFETCH ISSUED TO LOWER LEVEL:    1719764  ACCURACY: 20.7695
L1D TIMELY PREFETCHES:     357186 LATE PREFETCHES: 49757 DROPPED PREFETCHES: 661711
L1D PREFETCHES SAME FILL-ORIGIN LEVEL: 1719764 DIFFERENT FILL-ORIGIN LEVEL: 0
L1D AVERAGE MISS LATENCY: 1.81846e+06 cycles
L1D RQ	ACCESS:   44430077	FORWARD:          0	MERGED:   17680372	TO_CACHE:   26515911
L1D WQ	ACCESS:   32470855	FORWARD:     264638	MERGED:     201323	TO_CACHE:   32269532
L1D PQ	ACCESS:   26512510	FORWARD:          0	MERGED:    1235363	TO_CACHE:   25246303

L1D UNIQUE REGIONS ACCESSED: 0
L1D REGIONS CONFLICTS: 0
L1D Cross Page Prefetch Requests: 1225213
L1D Same Page Prefetch Requests: 30566826
L1D ROI Sum of L1D PQ occupancy: 367806883
L1D PREFETCHES PUSHED FROM L2C: 0
L1I TOTAL     ACCESS:   37766075  HIT:   29303360  MISS:    8462715  HIT %:    77.5918  MISS %:    22.4082   MPKI: 42.3136
L1I LOAD      ACCESS:   37766075  HIT:   29303360  MISS:    8462715  HIT %:    77.5918  MISS %:    22.4082   MPKI: 42.3136
L1I PREFETCH  REQUESTED:          0  ISSUED:          0  USEFUL:          0  USELESS:          0
L1I USEFUL LOAD PREFETCHES:          0 PREFETCH ISSUED TO LOWER LEVEL:          0  ACCURACY: -nan
L1I TIMELY PREFETCHES:          0 LATE PREFETCHES: 0 DROPPED PREFETCHES: 0
L1I PREFETCHES SAME FILL-ORIGIN LEVEL: 0 DIFFERENT FILL-ORIGIN LEVEL: 0
L1I AVERAGE MISS LATENCY: 18.0164 cycles
L1I RQ	ACCESS:   58516850	FORWARD:          0	MERGED:   18278760	TO_CACHE:   40238090

BTB TOTAL     ACCESS:   25752481  HIT:   24097822  MISS:    1654659  HIT %:    93.5748  MISS %:    6.42524   MPKI: 8.27329
BTB BRANCH_DIRECT_JUMP	ACCESS:    1719252  HIT:    1709782  MISS:       9470
BTB BRANCH_INDIRECT	ACCESS:    9847536  HIT:    9196489  MISS:     651047
BTB BRANCH_CONDITIONAL	ACCESS:    7525905  HIT:    7512901  MISS:      13004
BTB BRANCH_DIRECT_CALL	ACCESS:    2636580  HIT:    2604766  MISS:      31814
BTB BRANCH_INDIRECT_CALL	ACCESS:     693283  HIT:     590648  MISS:     102635
BTB BRANCH_RETURN	ACCESS:    3329925  HIT:    2483236  MISS:     846689
BTB BRANCH_OTHER ACCESS:          0  HIT:          0  MISS:          0

L2C TOTAL     ACCESS:   22123882  HIT:   14845745  MISS:    7278137  HIT %:    67.1028  MISS %:    32.8972   MPKI: 36.3907
L2C LOAD      ACCESS:   11526040  HIT:    8794558  MISS:    2731482  HIT %:    76.3016  MISS %:    23.6984   MPKI: 13.6574
L2C DATA LOAD MPKI: 10.7765
L2C INSTRUCTION LOAD MPKI: 2.88086
L2C RFO       ACCESS:    3349978  HIT:     110797  MISS:    3239181  HIT %:    3.30739  MISS %:    96.6926   MPKI: 16.1959
L2C PREFETCH  ACCESS:    1719751  HIT:     658322  MISS:    1061429  HIT %:    38.2801  MISS %:    61.7199   MPKI: 5.30714
AGUS PREFETCH L1 MISS: 0
L2C DATA PREFETCH MPKI: 5.30714
L2C INSTRUCTION PREFETCH MPKI: 0
L2C WRITEBACK ACCESS:    4270209  HIT:    4156604  MISS:     113605  HIT %:    97.3396  MISS %:    2.66041   MPKI: 0.568025
L2C LOAD TRANSLATION ACCESS:     265591  HIT:     150366  MISS:     115225  HIT %:    56.6156  MISS %:    43.3844   MPKI: 0.576125
L2C TRANSLATION FROM L1D PREFETCHER ACCESS:     992313  HIT:     975098  MISS:      17215  HIT %:    98.2652  MISS %:    1.73484   MPKI: 0.086075
L2C PREFETCH  REQUESTED:          0  ISSUED:          0  USEFUL:      63566  USELESS:    1014077
L2C USEFUL LOAD PREFETCHES:      63566 PREFETCH ISSUED TO LOWER LEVEL:    1061429  ACCURACY: 5.98872
L2C TIMELY PREFETCHES:      63566 LATE PREFETCHES: 0 DROPPED PREFETCHES: 0
L2C PREFETCHES SAME FILL-ORIGIN LEVEL: 0 DIFFERENT FILL-ORIGIN LEVEL: 0
L2C AVERAGE MISS LATENCY: 155.502 cycles
L2C RQ	ACCESS:   16134495	FORWARD:          0	MERGED:          0	TO_CACHE:   16133922
L2C WQ	ACCESS:    4270209	FORWARD:        586	MERGED:          0	TO_CACHE:    4270209
L2C PQ	ACCESS:    1719764	FORWARD:          0	MERGED:          0	TO_CACHE:    1719751

L2C Instructions Evicting Data 514513
L2C Translations Evicting Data 117794
L2C Data Evicting Data 5835847
L2C Instructions Evicting Instructions 49463
L2C Translations Evicting Instructions 12507
L2C Data Evicting Instructions 503592
L2C Instructions Evicting Translations 12197
L2C Translations Evicting Translations 2139
L2C Data Evicting Translations 116480
L2C Dense regions hint from L2: 0
PSCL5 TOTAL     ACCESS:     858456  HIT:     858456  MISS:          0  HIT %:        100  MISS %:          0   MPKI: 0
PSCL5 LOAD TRANSLATION ACCESS:     193049  HIT:     193049  MISS:          0  HIT %:        100  MISS %:          0   MPKI: 0
PSCL5 TRANSLATION FROM L1D PREFETCHER ACCESS:     665407  HIT:     665407  MISS:          0  HIT %:        100  MISS %:          0   MPKI: 0
PSCL5 PREFETCH  REQUESTED:          0  ISSUED:          0  USEFUL:          0  USELESS:          0
PSCL5 USEFUL LOAD PREFETCHES:          0 PREFETCH ISSUED TO LOWER LEVEL:          0  ACCURACY: -nan
PSCL5 TIMELY PREFETCHES:          0 LATE PREFETCHES: 0 DROPPED PREFETCHES: 0
PSCL5 PREFETCHES SAME FILL-ORIGIN LEVEL: 0 DIFFERENT FILL-ORIGIN LEVEL: 0

PSCL4 TOTAL     ACCESS:     826283  HIT:     825850  MISS:        433  HIT %:    99.9476  MISS %:  0.0524034   MPKI: 0.002165
PSCL4 LOAD TRANSLATION ACCESS:     188247  HIT:     187814  MISS:        433  HIT %:      99.77  MISS %:   0.230017   MPKI: 0.002165
PSCL4 TRANSLATION FROM L1D PREFETCHER ACCESS:     638036  HIT:     638036  MISS:          0  HIT %:        100  MISS %:          0   MPKI: 0
PSCL4 PREFETCH  REQUESTED:          0  ISSUED:          0  USEFUL:          0  USELESS:          0
PSCL4 USEFUL LOAD PREFETCHES:          0 PREFETCH ISSUED TO LOWER LEVEL:          0  ACCURACY: -nan
PSCL4 TIMELY PREFETCHES:          0 LATE PREFETCHES: 0 DROPPED PREFETCHES: 0
PSCL4 PREFETCHES SAME FILL-ORIGIN LEVEL: 0 DIFFERENT FILL-ORIGIN LEVEL: 0

PSCL3 TOTAL     ACCESS:     844993  HIT:     843077  MISS:       1916  HIT %:    99.7733  MISS %:   0.226747   MPKI: 0.00958
PSCL3 LOAD TRANSLATION ACCESS:     191922  HIT:     190006  MISS:       1916  HIT %:    99.0017  MISS %:   0.998322   MPKI: 0.00958
PSCL3 TRANSLATION FROM L1D PREFETCHER ACCESS:     653071  HIT:     653071  MISS:          0  HIT %:        100  MISS %:          0   MPKI: 0
PSCL3 PREFETCH  REQUESTED:          0  ISSUED:          0  USEFUL:          0  USELESS:          0
PSCL3 USEFUL LOAD PREFETCHES:          0 PREFETCH ISSUED TO LOWER LEVEL:          0  ACCURACY: -nan
PSCL3 TIMELY PREFETCHES:          0 LATE PREFETCHES: 0 DROPPED PREFETCHES: 0
PSCL3 PREFETCHES SAME FILL-ORIGIN LEVEL: 0 DIFFERENT FILL-ORIGIN LEVEL: 0

PSCL2 TOTAL     ACCESS:     542106  HIT:     471165  MISS:      70941  HIT %:    86.9138  MISS %:    13.0862   MPKI: 0.354705
PSCL2 LOAD TRANSLATION ACCESS:     193753  HIT:     122812  MISS:      70941  HIT %:    63.3859  MISS %:    36.6141   MPKI: 0.354705
PSCL2 TRANSLATION FROM L1D PREFETCHER ACCESS:     348353  HIT:     348353  MISS:          0  HIT %:        100  MISS %:          0   MPKI: 0
PSCL2 PREFETCH  REQUESTED:          0  ISSUED:          0  USEFUL:          0  USELESS:          0
PSCL2 USEFUL LOAD PREFETCHES:          0 PREFETCH ISSUED TO LOWER LEVEL:          0  ACCURACY: -nan
PSCL2 TIMELY PREFETCHES:          0 LATE PREFETCHES: 0 DROPPED PREFETCHES: 0
PSCL2 PREFETCHES SAME FILL-ORIGIN LEVEL: 0 DIFFERENT FILL-ORIGIN LEVEL: 0

LLC TOTAL     ACCESS:   11121251  HIT:    4157701  MISS:    6963550  HIT %:    37.3852  MISS %:    62.6148   MPKI: 34.8177
LLC LOAD      ACCESS:    2731481  HIT:    1210460  MISS:    1521021  HIT %:    44.3152  MISS %:    55.6848   MPKI: 7.6051
LLC RFO       ACCESS:    3239174  HIT:     844181  MISS:    2394993  HIT %:    26.0616  MISS %:    73.9384   MPKI: 11.975
LLC PREFETCH  ACCESS:    1061425  HIT:     622564  MISS:     438861  HIT %:    58.6536  MISS %:    41.3464   MPKI: 2.1943
AGUS PREFETCH L1 MISS: 0
LLC WRITEBACK ACCESS:    3956731  HIT:    1420391  MISS:    2536340  HIT %:    35.8981  MISS %:    64.1019   MPKI: 12.6817
LLC LOAD TRANSLATION ACCESS:     115225  HIT:      47512  MISS:      67713  HIT %:    41.2341  MISS %:    58.7659   MPKI: 0.338565
LLC TRANSLATION FROM L1D PREFETCHER ACCESS:      17215  HIT:      12593  MISS:       4622  HIT %:    73.1513  MISS %:    26.8487   MPKI: 0.02311
LLC PREFETCH  REQUESTED:          0  ISSUED:          0  USEFUL:       1713  USELESS:     441967
LLC USEFUL LOAD PREFETCHES:       1713 PREFETCH ISSUED TO LOWER LEVEL:     438861  ACCURACY: 0.390329
LLC TIMELY PREFETCHES:       1713 LATE PREFETCHES: 0 DROPPED PREFETCHES: 0
LLC PREFETCHES SAME FILL-ORIGIN LEVEL: 0 DIFFERENT FILL-ORIGIN LEVEL: 0
LLC AVERAGE MISS LATENCY: 131.319 cycles
LLC RQ	ACCESS:    6103103	FORWARD:          0	MERGED:          0	TO_CACHE:    6103095
LLC WQ	ACCESS:    3956732	FORWARD:         12	MERGED:          0	TO_CACHE:    3956732
LLC PQ	ACCESS:    1061429	FORWARD:          0	MERGED:          0	TO_CACHE:    1061425

LLC Dense regions hint to LLC: 0

RAW hits: 2467536
Loads Generated: 46897618
Loads sent to L1D: 44430077
Stores Generated: 32470857
Stores sent to L1D: 32470855
Major fault: 0 Minor fault: 24906
Allocated PAGES: 24906
ucb ended
-----------------------------------------------------------------------------------------------------------------------------------------------------------------------------------------------------
Offsets elements: 1 -2 -12429 -37128 49561 11924 -11923 -1 10398055 -10545237 134750 -37173 37173 45149 -24645 -20504 45150 -203794 121500 37145 24357 -159098 109256 -109256 2 134739 -61485 49558 -147171 147170 -12431 45148 -32719 -2200619058961 -48975 -82959 2200619178466 -158646 158645 -82333 10447665 -10410480 -45149 20503 24644 -2200618936829 2200619107901 -2200619058969 3555993 2200615502978 13329 -13324 13324 19394 -19383 -7 -25760 -158645 24355 -61468 37114 25759 -25759 12430 13326 10381856 -10381854 -25756 25773 19399 -45172 25774 -17 19392 -2200619140619 2200619121246 -21 -25754 25756 -25758 25766 -5263 -2200619092278 2200619092279 -179150 121478 37168 20 -5 19375 -19375 -25775 25775 45151 -19371 19371 -13348 13352 -3 -25776 25758 -25757 5 -25780 -2200619088372 2200619088355 -62938 62941 -72465844354 72465844354 -16 3 25757 -13332 -2200619084159 2200619097504 -25771 25771 -25772 45172 -19390 -9 -2200619122055 2200619122055 6 -25778 12427 -12427 25776 -25781 25761 14 -62979 -2200619056418 2200619106044 -2200619106044 2200619119395 2200619122067 -6 -11 -2200619122043 2200619059078 -2200619059078 2200619122053 -13350 13356 -13353 13353 -4 4 -2200619121213 2200619121193 -72465807171 -2128153251929 2200619122063 -18 -62965 62980 -15 49630 13358 -62987 62983 -62985 62982 -62982 49631 -49631 49627 13354 -13352 -49630 13338 -13338 62961 -62962 -2200619034530 2200619097490 49625 -49623 107047 -3744288981 3744181933 -3744181931 3739760272 -3739760272 3754628911 -10397360 -49624 -2200619058511 2200614636860 14868626 -3754629015 3754629015 -14868626 -3739760389 3739760389 3744231657 13359 17 -2200619122060 2200619122060 -13355 -2200619107899 -810 2200619122061 -13357 13357 13355 -19 15 -5271 -2200619199154 2200619191073 7 -13354 -13356 -10 -13347 -2200619107861 2200619107862 13348 -2200619121215 2200619121215 2200619107858 13347 12 -13346 -13351 -13358 13350 -2200619121208 2200619121209 13330 23 -62951 -2200619058265 2200619121217 -2200619108704 2200619122059 -2200619121252 2200619121251 -13340 8 -13337 13345 -12784837 12784839 -13 13 -5269 -2200619199153 2200619204421 -2200619121210 2200619121210 2200619122054 13337 -51246 37912 -37912 56934 58233 -61268 61269 -77256 -37910 -37911 37913 -13328 13328 -13327 -49612 -10398050 10397196 -10397197 -2200619108722 2200619108725 10397190 -10397190 10397075 -10397075 -24171 10421350 -2010 -2200629472974 2200619053634 24174 -24174 24172 24175 -12458 25813 -12 -2200619122084 2200619122083 13331 -25790 12460 -12459 -37178 37178 -72465844339 72465870134 -2200619121286 2200619121280 10 -2200619122083 -2200619121281 2200619121281 -8 2200619122073 -13339 -12750238 12750239 -24187 37516 -13329 -2200619097518 2200619097523 -37516 10419340 2200619077821 -9122 -12702792 -38333 9 12741115 -1207846 1207846 -15045 -12726079 12750249 -9126 9125 -24198 24203 -288223780699134316 18880336 -1466015485225 1465996309959 19175265 -1466015485612 1466015485612 -19175266 184262 -1465996494199 -31 1466015485237 -54861131 35870055 -1465996494204 -332 1465995993863 -1465995993863 1794 -1489 -301 1465960599237 -1465960599241 1465996603501 -1465996605295 -1465996604963 -1425 3219 -1462 1465960599241 54886367 -19004387 19004388 -1466015487034 1465995995286 -1465995993861 1797 1465960597447 -1465960597444 1465996492739 -13314 -487354 519106 -1465996512950 1465996605253 -17806 288223780709547535 -2200629620939 2200619201324 -72119 96285 -8972 8973 -15225 15224 8974 -12750054 12741081 2200619101249 -12741086 12741086 -2200619182208 2200619182209 8971 8281331 4444531 2200619191179 -8969 -12741087 -2200606440866 2200606440866 12770664 -2200619104806 2200619060004 44804 10374536 2200619077822 20619 18 -24 22 -20634 20621 -20609 20612 -12591 2200619092280 2200619199154 -8045 -171110 191742 20622 -14 -20633 20623 -20621 -20616 20614 20615 -2200619104805 2200619104830 -25 -70245 49633 20617 16 -2200619128554 2200619128547 -2200619104804 -23978 4458812 12494 -12493 192 12299 -2200619065711 2200614594396 14868639 -10364663 -4503976 4471316 32627 -3744264240 3744231614 -3744231615 3739760296 -3739760296 3744264298 -45176 12489 20618 2200619071697 12493 -33115 33132 -33132 33113 -2200619129378 2200619129378 -33134 33112 -2200619104808 2200619104827 -20630 -2200619107931 -811 2200619108747 -12499 12496 -12497 12492 33115 -288223780699745712 288223780699745710 -12494 33135 -33135 12501 20637 20616 -33133 -2200619095439 2200619128552 -2200619128517 -36 2200619128553 -20626 20624 12490 20641 33133 33130 -33131 -33114 -2200619095438 2200619128550 -20624 -12491 -2200619093586 2200619106075 -2200619108735 2200619129376 -33130 33134 -20645 -12488 45176 -45171 12487 -12487 45175 -12486 33127 -33110 12485 -12483 33111 -33112 33110 -33109 -33106 33125 -20642 -33113 -22 -2200619128549 20644 11 -2200619211589 2200619178473 12483 33123 -33122 33128 -2200619129381 2200619129372 -2200619128527 2200619128531 -2200619129374 2200619129373 -33123 33126 -37151 70277 -33124 10410512 -10410514 33120 -2200619211594 2200619211589 -33117 33106 -12573 171096 -49618 37136 -12482 12482 20633 -12581 -20535 -2200619178619 2200619211735 12577 -2200619211737 2200619020006 158614 -37142 82315 -12044 -32668 -49594 37112 20536 -155254 134717 33107 12479 32669 -147200 134715 -32667 -2200619095587 162 2200619095424 12475 -2200619108067 2200619108070 -188387 -2200618919662 2200619095571 -37097 82245 -32675 -12474 -2200619178526 2200619178527 12477 -2200619107902 -2200619108048 2200619095572 -32676 -2200619108073 2200619108072 -2200619108069 -657 2200619108729 -133601 145586 -11986 11985 -11985 11986 -11989 11988 -2200619120035 2200619120037 -24465 11987 -36162 36160 20686 -20683 -2200619202990 2200619223673 20683 24465 -20685 -11991 -37813 37813 11992 -11993 -32674 11991 32674 -11992 -49567 49569 -61561 61557 -36160 2200619077802 11994 -2200619120716 2200619120716 -25339 37810 -11987 -147196 147195 20537 -20537 -37150 57686 10410514 -10410516 -37112 -97600 134713 -49804 37820 -147194 134711 49574 -147192 147191 12569 -20536 -158612 -2200619020006 2200619141477 57677 -179156 158622 45174 -45174 -179158 -11698 32234 -2200619092200 2200619116812 -600481 600479 -2200619096249 2200619129361 -633589 600480 -37690 37691 -56870 11698 -158620 203794 -203788 179152 10387106 -10407642 -158622 10566264 1913 -10467777 -38466 96686 -203799 158626 -158623 158623 -2200619185870 2200619185869 45173 -45173 12476 -171101 100407 10467775 -10409558 -2200619095672 2200619095674 -158627 158627 -2200619027247 -20637 -203767 203767 -171086 158613 -134439 10542082 -2200629503697 2200619096053 10568298 -2200629505339 2200629505334 -2022 2200629475001 -10397198 10398035 -10398033 -70693 70695 10397081 -10568182 146929 -24175 2200629472974 2200629473275 -10419641 -1146204 11565544 -2200629503894 30920 -2200629503994 2200629504297 -2200629504197 614 2200629505302 -2200629505302 -10409672 -158626 10568290 -10397195 -12469 -2200619095675 2200619095673 158628 -158616 158618 241 2200619107902 -171097 -2200619095432 2200619095433 -158613 121462 37151 10410513 -45148 -37152 82324 10365345 -10365369 -37111 -97608 134719 -179870 147184 -12468 49557 10398059 -10398055 -147182 134718 -37141 37141 -24613 -203762 -97596 134709 -159174 109370 25339 -134707 159172 49560 -12464 -2200619091648 2200619178434 -37153 37152 10365364 -10410512 -45151 20534 24612 203762 -2200619140591 2200619058971 32686 -2200615548325 2200615503175 183076 -61544 37081 33075 -33078 33079 -33079 33076 10374568 -10374566 -33076 33093 12079 -12055 -2200619128515 2200619128534 -33074 33086 -12551 -2200619092280 2200618913130 -37135 82284 -12070 -33095 -12051 12051 -20636 -12460 -2200619062567 2200619095667 -33096 33078 -33093 33098 -33100 -33075 33094 -33080 -2200619034549 2128153227378 72465877414 -33091 33091 -33104 33099 12075 -2200619141424 2200619129346 -33099 33081 -2200619126685 2200619056274 70409 -2200619129343 2200619129355 -2200619129331 2200619058934 -2200619058934 2200619129341 20636 -20618 -2200619108708 2200619129351 -2200619128486 2200619058255 -166 -72465807005 72465877425 -70419 70415 -70417 70414 -20639 20640 -70414 49774 -49774 70397 -70389 70392 -2200619104778 2200619034384 106679 -3744288469 3744231555 -3744231555 -2196874876951 2196874876951 -2196874919576 2196874919576 -2196874833891 2200631369285 -9213 -1897217 1906394 -1906827 1906888 -1906454 1906429 82 -1906511 -10397411 10397411 10397410 -3754628995 3744231584 -3744231584 -2196874919546 2200619151131 12303839 -1906429 -10397413 -2200619104893 2200619104889 -2200619065604 2196874834021 -2196874873307 39285 -39286 2200619065604 -3744231588 3744231588 12303842 -12303842 12303843 -12303843 12303866 -12303866 10397408 -10397408 56913 -106680 -3744181787 -3754628911 3744231551 -49768 -2200619058367 20647 -2200619129348 2200619129348 -20643 -20641 2200619129349 20645 20643 -12559 -20644 -20646 -2200619128496 2200619107861 -2200619128503 20646 20635 20642 20638 -20635 -2200619107862 2200619128503 -23 -70216 2200619128505 -2200619129349 2200619129347 -2200619128540 2200619128539 -20625 20626 -12791935 12791937 -12557 12556 -2200619211710 83212 2200619128498 2200619129342 20625 -58420 56842 58210 -61267 -15988 77255 -61266 61265 61266 -77254 -37796 37798 -37797 37799 -20617 -20615 10397073 -24170 -12490 33139 -2200619129372 2200619129371 -37146 49638 -72465844309 72465844307 -2200619128574 2200619128568 -2200619129371 -2200619128569 2200619128569 -20627 -12750046 12750048 2200619104811 -44804 -8970 -12703214 -37873 12750058 -12750049 12741077 -12725889 12750060 -1216972 1207998 -19491746 -1465995993485 1465995993479 500784 -1465996494650 1465995993865 -1465995993457 1465995993458 18990961 -19491747 500785 18990964 -1466015485615 1466015485615 -1466015485613 1466015485616 -18873477 -1465996612139 1465996612139 -163679 -1465996448443 1465996453572 129867 345 28337 -4961 18878437 -19032024 -5129 -1465996448440 1465996412102 171695 21458 288223780709529729 -10419615 -2200619201330 2200619201330 72119 96287 -9333 -2200619065735 -33467 33466 -10092 2200619085157 -2200619075065 2200619075068 -24192 -2200619084339 -10093 2200619085155 -2200619075063 2200619075065 -24191 24192 -24159 24159 -9341 9336 -9336 9337 -9338 9340 -30533 21563 -2200619182207 2200619182210 -12741089 12770667 -12770667 -2200606440867 2200606440867 12750054 70268 -20614 -30529 30533 -30649 21525 -2200619182058 2200606440931 12750244 13325 -2200619204246 2200619204247 19 -2200619097521 2200619097542 -62959 30647 -30587 21545 -2200619182138 2200606441031 12770217 -2200619210994 2200619190921 -12750148 12750143 20076 25 -50657 30587 -2200619084197 2200619034560 19044 21544 9045 -2200619191175 2200606441021 -2200606440767 2200619210934 -2200619104207 2200619104205 -20006 -30595 -19044 18540 21832 -2200619181914 2200619191175 -12697180 -2200606493741 2200619154070 -2200619047341 2200619047366 36850 -49639 31097 -30633 21530 -2200619182074 2200606440951 -2200606440697 2200619204366 -44077 30635 -2200619084199 19098 21562 2200606441111 -2200606440857 2200619211474 -2200619104768 2200619104770 -70187 30541 -31181 21865 9309 -31177 31179 -2200619191177 -30671 -12666550 -2200606493701 2200619153830 6423 -2200619053526 40483 9149 2200606440891 -2200606440637 2200619204006 -2200619097279 2200619097277 -43776 30673 -30577 -19061 40611 -2200619182154 -12750124 -2200606440797 2200619211114 -20194 -2200619084193 49637 -30575 -126 30700 -9192 -2200619181986 2200606494085 -2200606493831 2200619153560 37360 -37343 6665 30701 -30545 -2200619053651 40651 8981 2200606441101 12770567 -2200619211414 2200619211415 -28 -2200619104687 2200619104710 -70125 19092 30545 -30643 30640 -9112 -2200619182066 2200606440941 12719595 30641 -30553 43935 -2200619204306 2200619204307 -43933 -2200619053646 49635 -8992 -2200619182186 2200606441091 12770517 -2200619211354 2200619211355 -2200619104627 2200619053646 30553 -49637 19110 21566 -2200619182218 2200606441131 12750044 -12750044 12770717 2200619211595 28 -20674 30527 -30617 30615 -9080 -2200619182098 2200606440981 -2200606440727 2200619204546 -44239 30617 18924 30712 -9208 -2200619181970 2200606494065 -2200606493811 2200619154490 -2200619047784 13209 36430 -30713 30718 -9216 -2200619181962 2200606494055 12666403 30719 -30559 -2200619160365 2200619154427 5937 -2200619053640 40635 -2200619182178 -12750094 -2200606440827 2200619211294 -2200619104584 2200619104590 -70007 19080 30559 -31109 21860 -2200619181930 2200606494015 12660429 -2200619154190 2200619190925 -12697164 12697160 -36732 24 5625 -2200619053111 40295 -2200619181838 -12697200 -2200606493721 2200619153950 5889 -2200619053112 -30601 21542 -2200619182122 2200606441011 12750164 -12750164 -2200606440757 2200619204726 -13806 9339 -30599 30597 -30621 21534 -2200619182090 2200606440971 -2200606440717 2200619204486 -44185 -2200619053574 2200619074860 18516 21888 -2200619181946 2200606494035 12697140 -12697140 -2200606493781 2200619154310 -2200619047604 2200619047606 -13021 13029 36610 -31121 618 30501 -8925 -2200619182247 2200619160674 -12719503 12740669 -2200619181586 2200619211834 -51413 30503 49639 -31103 21845 -2200619181922 2200606494005 12697170 -12697170 -2200606493751 2200619154130 -2200619047401 2200619047426 -12849 12843 5691 21766 -21766 31103 -30631 30628 -9096 -2200619182082 2200606440961 12719587 21292 2200619204426 -44131 30629 -30727 21500 -2200619181954 2200606494045 12697130 -12697130 12660579 -2200619154370 2200619154371 -2200619047666 2200619047660 -13083 18912 21388 -21388 30725 -30609 21538 -2200619182106 2200606440991 12719575 21274 23020 -2200619204606 2200619204607 -44293 30611 18948 21512 -2200619182002 2200606440861 12750314 -12750314 -2200606440607 2200619203826 -2200619097116 2200619097122 -43591 -18948 40300 -30697 21509 9184 -9181 -21512 -2200619160482 2200606440851 12719631 21358 2200619203766 -43537 30695 -31033 21723 -2200619181870 2200606493945 12697230 -12697230 -2200606493691 2200619153770 -2200619047066 2200619047060 6123 -18604 -21696 31033 -30709 21506 -2200619181978 2200606494075 12687765 -12687765 12697100 -2200619190919 2200619154550 5667 30707 -30515 21569 -2200619182234 2200606441151 12750024 -12750024 -2200606440897 2200619211714 -2200619105010 2200619105004 -70433 19122 21178 -30677 21516 -2200619182018 2200606440881 -2200606440627 2200619203946 -13026 13022 -9332 13043 -13023 30682 -9168 -2200619182010 2200606440871 -2200606440617 2200619203886 -43645 -2200619053514 -40300 -30583 21548 -2200619182146 2200606441041 12750134 -12750134 -2200606440787 2200619211054 -20134 -30581 -534 31114 -9240 -2200619181938 2200606494025 12660479 -2200619154250 2200619154251 5553 -2200619053082 -30765 21472 -2200619181886 2200606493925 12697250 -12697250 -2200606493671 2200619153650 37270 18872 30765 -30913 21614 -2200619181878 2200606493935 -2200606493681 2200619153710 6299 -2200619053282 -30667 21520 -2200619182034 2200606440901 12750274 -12750274 -2200606440647 2200619204066 -2200619097337 2200619097362 -62777 62800 -13146 30665 -30653 30651 -9128 -2200619182050 2200606440921 12740919 2200619204186 -43915 30653 2200619084199 19032 21540 -2200619182114 2200606441001 12750174 -12750174 12763919 -2200619204666 2200619204667 -2200619097962 2200619097960 -63379 49634 -30607 30605 -30561 21554 -2200619182170 2200606441071 12719543 21226 2200619211234 -50873 30563 -31091 21817 -2200619181906 2200606493985 12697190 -12697190 -2200606493731 2200619154010 -2200619047306 2200619047304 5823 -18546 -21754 31091 -30657 21522 -2200619182042 2200606440911 12719607 21322 2200619204126 -43861 30659 -30509 21571 -2200619182242 2200606441161 12750014 -12750014 12770867 -2200619211774 2200619211775 -2200619105070 2200619105064 -51365 -19128 -31127 21799 9321 -31123 -2200619160052 2200606493965 12687875 2200619153890 5909 31125 -30569 21551 -2200619182162 2200606441061 12750114 -12750114 -2200606440807 2200619211174 -2200619104470 2200619104468 -50819 -19068 -21232 30569 -30523 21568 -2200619182223 2200619182226 8949 -30519 21184 -12740699 -2200606440887 2200619211654 -51257 30521 2200619084195 -49634 9338 -9337 9334 -24197 18880338 -19073492 36339 -125956 46073 79876 -79876 -5277 -372963 -1465995990317 1465996605246 -594450 576644 17806 -2200629620940 2200619201325 -72096 -2200619004964 2200619092190 -12741102 12741103 -12702999 -38100 12741099 -1207910 1207910 -2200619182121 2200619182123 9059 8281441 15136 9060 -9056 2200606441012 12725972 -2200619166728 2200619204725 10381346 -10381344 -2200619098000 2200619097998 -2200619091650 2200619091651 -20 -63789 49967 46188 -46208 46209 -46211 46211 -46219 -49961 46213 62735 -62838 13831 49016 -62845 13808 -2200619122576 2200619108745 -49965 63790 58009 -58008 25777 37997 -63769 -2200619034229 2200619034228 96181 -96179 13820 -38015 37996 -2200619097998 2200619098003 -13807 10395151 -10395148 -2200619077826 2200619077828 -9059 -12703000 -38109 1192801 24170 -9061 9062 -288223780680253978 1465996605274 -614930 19495267 1465995990346 -1465995989936 1465996010438 -1465996010824 379 1465996611760 -1465996612113 1465995990321 20479 -20480 -1465995990010 1465996605291 1465996480200 -1465996481625 1465996606720 -1465996603501 -1794 332 1466015485607 -1466015485310 -292 1465996481217 -1465996480889 1462 1465995988548 -1465995988545 1465996603498 -125095 30 1465996482617 31746 -1465996512636 -1757 1466015487001 -18880311 -1465996606720 1465996482647 -1465996480890 1466015485302 -19005407 -489858 -1465995990319 -1447 1465996012246 20480 -1465995990046 328 1465996604963 -1465996606690 1727 1465996482646 19004384 -123987 -1465996480976 1466015485301 -54886365 -1465960600666 1422 371 -363 1465996010816 19474786 -19495265 -1465996010799 1465996010799 -20479 1465996606690 -30 1465996482648 -1465996480891 1466015485274 -19004385 124074 18880310 -1466015485273 1465996481349 -1465996479555 -1466015485601 1465996480196 19005406 -1465995991766 1465996010824 -1465996010453 1465996010453 -1753 1753 1465996480907 -18880309 -1466015485272 1465996482033 -1465996480239 -1466015485600 -35903100 -1465960109142 1465996012242 19474660 -1466015485311 -1727 -1466015487031 -1465996481221 1465996481275 19004332 -1466015483812 -1797 308 63 1465995989974 -35686012 -1465960305754 19474787 -19474786 -19495268 -1465995990345 -621793 -1465995990346 1465996497786 -1465996497766 1465996612119 -28696 -1465996583442 1465960624483 -1465960627206 3094 1465960624113 35980815 -114858 93130 -1465996583320 -219 1465996579358 4100 -35958990 -35980815 35954888 -35954887 35865958 88931 -88931 -1465996490422 233 1465996583190 -35958958 -99490 77763 -4200 -1465996490189 -233 1465996583423 -85823 -35873124 35863911 90982 25925 -21727 -35959088 18906243 -19495267 -1465995990344 -371 1465996497608 -1465996497608 408 365 -400 402 1465995989944 382 -410 1465995990347 621792 -1465996611760 -378 1465996494538 -1465996494140 -381 1465996583439 23376 4962 18873470 -19495263 -1465995990310 1465995990309 507440 -36169540 -1465960328246 1465960328246 36283893 -36283893 -196077 -1465960132169 1466015485609 -18873470 18873469 -19495262 19495263 -18987823 18987823 -1466015485609 -621794 19495262 -18980798 -14359 14358 2021 -16381 -17891383 17891382 -1465996490195 1465963970381 
Potential of Offsets elements: 769.415 583.232 28.2322 28.2322 28.2322 28.2322 28.2322 1514.12 28.2322 28.2322 28.2322 28.2322 28.2322 28.2322 28.2322 28.2322 28.2322 28.2322 28.2322 28.2322 28.2322 28.2322 28.2322 28.2322 28.2322 28.2322 28.2322 28.2322 28.2322 28.2322 28.2322 28.2322 28.2322 28.2322 28.2322 28.2322 28.2322 28.2322 28.2322 28.2322 28.2322 28.2322 28.2322 28.2322 28.2322 28.2322 28.2322 28.2322 28.2322 28.2322 34.2322 28.2322 33.2322 28.2322 28.2322 341.232 28.2322 28.2322 28.2322 28.2322 28.2322 28.2322 28.2322 28.2322 28.2322 28.2322 28.2322 28.2322 28.2322 28.2322 28.2322 28.2322 28.2322 28.2322 28.2322 28.2322 40.2322 28.2322 28.2322 28.2322 28.2322 28.2322 28.2322 32.2322 84.2322 28.2322 28.2322 376.232 689.232 28.2322 28.2322 28.2322 78.2322 28.2322 28.2322 28.2322 28.2322 28.2322 681.232 28.2322 28.2322 552.232 254.232 28.2322 28.2322 28.2322 28.2322 28.2322 28.2322 28.2322 206.232 655.232 28.2322 28.2322 30.2322 28.2322 28.2322 28.2322 28.2322 28.2322 33.2322 274.232 32.2322 28.2322 970.232 28.2322 28.2322 51.2322 28.2322 28.2322 28.2322 152.232 28.2322 28.2322 30.2322 28.2322 28.2322 28.2322 682.232 100.232 28.2322 28.2322 28.2322 28.2322 28.2322 261.232 28.2322 28.2322 595.232 1017.23 28.2322 28.2322 36.2322 28.2322 28.2322 540.232 28.2322 28.2322 103.232 37.2322 28.2322 28.2322 28.2322 28.2322 28.2322 28.2322 28.2322 28.2322 28.2322 28.2322 28.2322 28.2322 28.2322 28.2322 28.2322 28.2322 28.2322 28.2322 28.2322 28.2322 28.2322 28.2322 28.2322 28.2322 28.2322 28.2322 28.2322 28.2322 28.2322 28.2322 28.2322 28.2322 28.2322 28.2322 28.2322 28.2322 28.2322 28.2322 28.2322 216.232 28.2322 28.2322 28.2322 28.2322 29.2322 28.2322 28.2322 28.2322 28.2322 214.232 59.2322 28.2322 28.2322 28.2322 382.232 28.2322 28.2322 206.232 28.2322 28.2322 28.2322 28.2322 28.2322 28.2322 28.2322 28.2322 202.232 28.2322 28.2322 28.2322 28.2322 28.2322 28.2322 28.2322 173.232 28.2322 28.2322 28.2322 28.2322 28.2322 28.2322 28.2322 28.2322 245.232 28.2322 295.232 28.2322 36.2322 385.232 113.232 28.2322 28.2322 28.2322 28.2322 28.2322 28.2322 28.2322 28.2322 32.2322 28.2322 28.2322 28.2322 28.2322 28.2322 28.2322 28.2322 28.2322 28.2322 28.2322 28.2322 28.2322 36.2322 28.2322 50.2322 33.2322 28.2322 52.2322 28.2322 170.232 29.2322 30.2322 34.2322 42.2322 28.2322 34.2322 34.2322 72.2322 59.2322 52.2322 52.2322 28.2322 28.2322 613.232 28.2322 28.2322 28.2322 28.2322 28.2322 28.2322 28.2322 28.2322 28.2322 28.2322 28.2322 28.2322 161.232 28.2322 28.2322 28.2322 609.232 31.2322 28.2322 30.2322 28.2322 61.2322 28.2322 28.2322 28.2322 28.2322 28.2322 42.2322 28.2322 36.2322 28.2322 28.2322 425.232 28.2322 28.2322 28.2322 28.2322 28.2322 28.2322 28.2322 28.2322 42.2322 28.2322 28.2322 36.2322 30.2322 28.2322 28.2322 103.232 89.2322 28.2322 28.2322 28.2322 38.2322 32.2322 28.2322 28.2322 28.2322 184.232 28.2322 28.2322 68.2322 138.232 65.2322 34.2322 64.2322 118.232 133.232 63.2322 154.232 128.232 112.232 28.2322 36.2322 53.2322 56.2322 67.2322 28.2322 28.2322 118.232 40.2322 36.2322 28.2322 46.2322 28.2322 28.2322 28.2322 28.2322 28.2322 28.2322 28.2322 28.2322 30.2322 28.2322 28.2322 28.2322 28.2322 28.2322 28.2322 28.2322 28.2322 28.2322 28.2322 28.2322 28.2322 28.2322 28.2322 28.2322 35.2322 28.2322 28.2322 28.2322 28.2322 28.2322 28.2322 28.2322 28.2322 28.2322 28.2322 28.2322 28.2322 227.232 49.2322 234.232 28.2322 28.2322 28.2322 28.2322 28.2322 32.2322 40.2322 34.2322 41.2322 28.2322 28.2322 201.232 28.2322 28.2322 28.2322 28.2322 28.2322 28.2322 28.2322 28.2322 405.232 28.2322 30.2322 28.2322 95.2322 28.2322 28.2322 28.2322 28.2322 28.2322 28.2322 28.2322 28.2322 28.2322 29.2322 28.2322 48.2322 28.2322 28.2322 35.2322 28.2322 28.2322 43.2322 28.2322 40.2322 28.2322 28.2322 28.2322 28.2322 419.232 28.2322 28.2322 28.2322 28.2322 28.2322 28.2322 28.2322 28.2322 28.2322 28.2322 28.2322 28.2322 28.2322 91.2322 28.2322 40.2322 29.2322 32.2322 28.2322 28.2322 28.2322 28.2322 28.2322 28.2322 30.2322 28.2322 68.2322 28.2322 28.2322 28.2322 28.2322 28.2322 28.2322 61.2322 28.2322 28.2322 28.2322 28.2322 28.2322 28.2322 28.2322 28.2322 28.2322 28.2322 28.2322 28.2322 28.2322 28.2322 28.2322 30.2322 28.2322 28.2322 28.2322 28.2322 28.2322 28.2322 28.2322 28.2322 28.2322 28.2322 28.2322 28.2322 28.2322 28.2322 28.2322 28.2322 28.2322 28.2322 28.2322 28.2322 28.2322 28.2322 28.2322 194.232 28.2322 28.2322 326.232 28.2322 28.2322 28.2322 28.2322 28.2322 28.2322 28.2322 28.2322 28.2322 28.2322 28.2322 28.2322 28.2322 28.2322 28.2322 28.2322 28.2322 28.2322 28.2322 28.2322 28.2322 28.2322 28.2322 28.2322 28.2322 28.2322 28.2322 28.2322 28.2322 28.2322 28.2322 28.2322 28.2322 28.2322 28.2322 28.2322 28.2322 28.2322 28.2322 28.2322 28.2322 28.2322 28.2322 42.2322 28.2322 28.2322 28.2322 28.2322 28.2322 28.2322 28.2322 28.2322 28.2322 28.2322 28.2322 34.2322 28.2322 28.2322 28.2322 28.2322 38.2322 28.2322 28.2322 28.2322 28.2322 28.2322 28.2322 28.2322 28.2322 28.2322 42.2322 44.2322 28.2322 28.2322 46.2322 28.2322 77.2322 28.2322 44.2322 28.2322 28.2322 198.232 28.2322 55.2322 28.2322 28.2322 28.2322 28.2322 28.2322 28.2322 85.2322 28.2322 28.2322 28.2322 28.2322 28.2322 28.2322 28.2322 28.2322 28.2322 28.2322 28.2322 28.2322 61.2322 188.232 28.2322 28.2322 28.2322 28.2322 49.2322 28.2322 28.2322 28.2322 28.2322 33.2322 28.2322 28.2322 28.2322 28.2322 28.2322 28.2322 28.2322 59.2322 28.2322 28.2322 28.2322 40.2322 28.2322 28.2322 28.2322 28.2322 28.2322 28.2322 28.2322 28.2322 28.2322 28.2322 28.2322 28.2322 28.2322 28.2322 28.2322 28.2322 28.2322 28.2322 28.2322 28.2322 28.2322 28.2322 28.2322 28.2322 36.2322 28.2322 28.2322 28.2322 28.2322 28.2322 28.2322 28.2322 28.2322 28.2322 28.2322 28.2322 28.2322 28.2322 28.2322 28.2322 28.2322 29.2322 28.2322 28.2322 28.2322 28.2322 28.2322 28.2322 28.2322 28.2322 28.2322 28.2322 28.2322 28.2322 28.2322 28.2322 28.2322 28.2322 28.2322 28.2322 28.2322 28.2322 28.2322 28.2322 28.2322 28.2322 28.2322 28.2322 28.2322 28.2322 28.2322 28.2322 28.2322 28.2322 28.2322 28.2322 28.2322 28.2322 28.2322 28.2322 28.2322 28.2322 28.2322 28.2322 28.2322 28.2322 28.2322 28.2322 28.2322 52.2322 31.2322 28.2322 36.2322 28.2322 28.2322 109.232 55.2322 28.2322 29.2322 28.2322 42.2322 28.2322 28.2322 28.2322 28.2322 43.2322 42.2322 28.2322 28.2322 28.2322 28.2322 28.2322 28.2322 34.2322 53.2322 39.2322 28.2322 28.2322 28.2322 48.2322 28.2322 28.2322 28.2322 28.2322 28.2322 28.2322 28.2322 28.2322 28.2322 28.2322 28.2322 28.2322 28.2322 28.2322 28.2322 63.2322 28.2322 28.2322 28.2322 43.2322 28.2322 28.2322 28.2322 28.2322 28.2322 28.2322 28.2322 28.2322 28.2322 28.2322 28.2322 28.2322 28.2322 28.2322 28.2322 28.2322 28.2322 28.2322 28.2322 28.2322 28.2322 28.2322 28.2322 28.2322 28.2322 28.2322 28.2322 28.2322 28.2322 28.2322 28.2322 28.2322 28.2322 28.2322 28.2322 28.2322 28.2322 28.2322 28.2322 28.2322 28.2322 28.2322 28.2322 28.2322 28.2322 28.2322 28.2322 28.2322 28.2322 28.2322 28.2322 28.2322 28.2322 28.2322 28.2322 28.2322 28.2322 28.2322 28.2322 28.2322 28.2322 28.2322 28.2322 28.2322 28.2322 28.2322 28.2322 28.2322 28.2322 28.2322 28.2322 28.2322 28.2322 28.2322 28.2322 28.2322 28.2322 28.2322 28.2322 28.2322 28.2322 28.2322 28.2322 28.2322 28.2322 28.2322 28.2322 28.2322 28.2322 28.2322 28.2322 28.2322 28.2322 28.2322 28.2322 28.2322 28.2322 28.2322 28.2322 28.2322 28.2322 28.2322 28.2322 28.2322 28.2322 28.2322 28.2322 28.2322 28.2322 28.2322 28.2322 28.2322 28.2322 28.2322 28.2322 28.2322 28.2322 28.2322 28.2322 28.2322 28.2322 28.2322 28.2322 28.2322 28.2322 28.2322 66.2322 28.2322 28.2322 28.2322 28.2322 28.2322 28.2322 76.2322 28.2322 28.2322 28.2322 28.2322 28.2322 28.2322 28.2322 28.2322 28.2322 28.2322 28.2322 28.2322 28.2322 33.2322 28.2322 28.2322 28.2322 28.2322 28.2322 28.2322 28.2322 47.2322 28.2322 28.2322 28.2322 28.2322 30.2322 28.2322 28.2322 28.2322 28.2322 28.2322 28.2322 28.2322 28.2322 28.2322 28.2322 28.2322 28.2322 28.2322 28.2322 28.2322 28.2322 28.2322 28.2322 28.2322 28.2322 28.2322 28.2322 28.2322 28.2322 405.232 40.2322 33.2322 28.2322 28.2322 28.2322 28.2322 456.232 32.2322 28.2322 28.2322 38.2322 28.2322 28.2322 28.2322 28.2322 28.2322 28.2322 28.2322 28.2322 28.2322 28.2322 28.2322 28.2322 28.2322 28.2322 28.2322 28.2322 28.2322 28.2322 49.2322 28.2322 28.2322 28.2322 28.2322 28.2322 28.2322 28.2322 28.2322 28.2322 28.2322 28.2322 28.2322 28.2322 28.2322 28.2322 28.2322 28.2322 28.2322 28.2322 28.2322 29.2322 29.2322 28.2322 28.2322 28.2322 28.2322 28.2322 28.2322 28.2322 28.2322 28.2322 30.2322 28.2322 28.2322 28.2322 28.2322 28.2322 28.2322 28.2322 28.2322 28.2322 28.2322 28.2322 28.2322 28.2322 28.2322 39.2322 50.2322 41.2322 28.2322 70.2322 77.2322 28.2322 29.2322 28.2322 28.2322 28.2322 28.2322 28.2322 28.2322 28.2322 28.2322 28.2322 28.2322 28.2322 28.2322 28.2322 33.2322 28.2322 28.2322 34.2322 28.2322 28.2322 28.2322 28.2322 29.2322 28.2322 28.2322 28.2322 28.2322 28.2322 28.2322 28.2322 28.2322 28.2322 28.2322 28.2322 58.2322 28.2322 38.2322 28.2322 28.2322 28.2322 28.2322 28.2322 28.2322 28.2322 28.2322 28.2322 28.2322 28.2322 28.2322 28.2322 28.2322 28.2322 28.2322 28.2322 28.2322 28.2322 28.2322 28.2322 28.2322 28.2322 28.2322 28.2322 28.2322 28.2322 28.2322 89.2322 28.2322 28.2322 28.2322 28.2322 28.2322 28.2322 28.2322 28.2322 28.2322 28.2322 28.2322 28.2322 28.2322 28.2322 290.232 28.2322 28.2322 76.2322 28.2322 28.2322 28.2322 28.2322 32.2322 28.2322 28.2322 28.2322 28.2322 28.2322 28.2322 28.2322 30.2322 28.2322 28.2322 28.2322 28.2322 28.2322 28.2322 28.2322 28.2322 28.2322 28.2322 284.232 44.2322 28.2322 28.2322 28.2322 28.2322 28.2322 28.2322 28.2322 28.2322 28.2322 28.2322 28.2322 28.2322 28.2322 28.2322 28.2322 28.2322 28.2322 28.2322 28.2322 28.2322 28.2322 28.2322 28.2322 40.2322 28.2322 28.2322 28.2322 28.2322 28.2322 28.2322 28.2322 28.2322 28.2322 28.2322 28.2322 28.2322 28.2322 28.2322 28.2322 28.2322 28.2322 28.2322 28.2322 28.2322 28.2322 28.2322 28.2322 37.2322 28.2322 28.2322 31.2322 28.2322 28.2322 28.2322 28.2322 28.2322 28.2322 28.2322 79.2322 28.2322 28.2322 28.2322 28.2322 28.2322 28.2322 28.2322 28.2322 28.2322 28.2322 50.2322 28.2322 28.2322 28.2322 28.2322 28.2322 28.2322 28.2322 28.2322 28.2322 28.2322 28.2322 28.2322 28.2322 28.2322 30.2322 28.2322 28.2322 28.2322 28.2322 28.2322 28.2322 28.2322 28.2322 28.2322 28.2322 28.2322 28.2322 28.2322 35.2322 28.2322 28.2322 28.2322 28.2322 28.2322 28.2322 28.2322 28.2322 176.232 28.2322 28.2322 28.2322 28.2322 28.2322 28.2322 28.2322 28.2322 28.2322 28.2322 28.2322 28.2322 28.2322 133.232 28.2322 28.2322 29.2322 33.2322 34.2322 28.2322 28.2322 28.2322 28.2322 28.2322 28.2322 28.2322 28.2322 28.2322 28.2322 28.2322 28.2322 28.2322 28.2322 28.2322 28.2322 28.2322 28.2322 28.2322 28.2322 28.2322 28.2322 28.2322 28.2322 28.2322 28.2322 28.2322 28.2322 28.2322 28.2322 28.2322 28.2322 28.2322 28.2322 286.232 28.2322 28.2322 28.2322 28.2322 35.2322 60.2322 28.2322 32.2322 28.2322 28.2322 28.2322 28.2322 28.2322 28.2322 28.2322 28.2322 28.2322 28.2322 28.2322 28.2322 28.2322 28.2322 28.2322 28.2322 28.2322 28.2322 28.2322 28.2322 28.2322 28.2322 28.2322 28.2322 28.2322 28.2322 28.2322 28.2322 28.2322 28.2322 28.2322 28.2322 28.2322 91.2322 28.2322 28.2322 28.2322 28.2322 28.2322 28.2322 28.2322 28.2322 28.2322 28.2322 28.2322 28.2322 28.2322 28.2322 28.2322 28.2322 28.2322 28.2322 28.2322 28.2322 28.2322 28.2322 28.2322 28.2322 28.2322 28.2322 28.2322 28.2322 28.2322 28.2322 28.2322 28.2322 28.2322 28.2322 28.2322 28.2322 28.2322 28.2322 28.2322 28.2322 28.2322 28.2322 28.2322 28.2322 28.2322 28.2322 28.2322 28.2322 28.2322 28.2322 28.2322 28.2322 28.2322 28.2322 28.2322 28.2322 28.2322 28.2322 28.2322 28.2322 28.2322 28.2322 28.2322 28.2322 28.2322 28.2322 28.2322 28.2322 28.2322 28.2322 28.2322 59.2322 28.2322 28.2322 40.2322 28.2322 28.2322 28.2322 28.2322 28.2322 28.2322 28.2322 28.2322 28.2322 28.2322 28.2322 28.2322 28.2322 28.2322 28.2322 28.2322 28.2322 28.2322 28.2322 28.2322 28.2322 28.2322 28.2322 28.2322 28.2322 28.2322 28.2322 28.2322 28.2322 28.2322 28.2322 28.2322 28.2322 28.2322 28.2322 28.2322 28.2322 28.2322 28.2322 28.2322 28.2322 28.2322 28.2322 28.2322 28.2322 28.2322 28.2322 28.2322 28.2322 28.2322 28.2322 28.2322 28.2322 28.2322 28.2322 28.2322 28.2322 28.2322 28.2322 60.2322 28.2322 30.2322 28.2322 28.2322 28.2322 28.2322 65.2322 28.2322 28.2322 28.2322 28.2322 28.2322 28.2322 28.2322 28.2322 28.2322 28.2322 28.2322 28.2322 28.2322 28.2322 28.2322 28.2322 28.2322 28.2322 28.2322 28.2322 28.2322 28.2322 28.2322 28.2322 28.2322 28.2322 28.2322 28.2322 28.2322 28.2322 28.2322 28.2322 28.2322 28.2322 28.2322 28.2322 28.2322 28.2322 28.2322 28.2322 28.2322 28.2322 28.2322 28.2322 28.2322 28.2322 28.2322 28.2322 53.2322 28.2322 28.2322 28.2322 28.2322 28.2322 28.2322 28.2322 28.2322 28.2322 28.2322 28.2322 28.2322 28.2322 28.2322 28.2322 28.2322 28.2322 28.2322 28.2322 28.2322 28.2322 30.2322 28.2322 28.2322 28.2322 28.2322 28.2322 28.2322 28.2322 28.2322 28.2322 28.2322 28.2322 30.2322 34.2322 28.2322 28.2322 28.2322 28.2322 28.2322 28.2322 28.2322 28.2322 28.2322 28.2322 28.2322 28.2322 28.2322 28.2322 28.2322 28.2322 28.2322 28.2322 28.2322 28.2322 28.2322 28.2322 28.2322 28.2322 28.2322 28.2322 28.2322 28.2322 28.2322 28.2322 28.2322 28.2322 28.2322 28.2322 28.2322 28.2322 28.2322 28.2322 28.2322 28.2322 28.2322 28.2322 28.2322 28.2322 28.2322 28.2322 28.2322 28.2322 28.2322 28.2322 28.2322 28.2322 28.2322 28.2322 28.2322 28.2322 28.2322 28.2322 28.2322 28.2322 28.2322 28.2322 28.2322 28.2322 28.2322 28.2322 28.2322 40.2322 28.2322 28.2322 28.2322 28.2322 28.2322 28.2322 44.2322 28.2322 28.2322 28.2322 28.2322 29.2322 28.2322 28.2322 28.2322 28.2322 28.2322 28.2322 28.2322 28.2322 31.2322 32.2322 28.2322 28.2322 46.2322 28.2322 28.2322 28.2322 28.2322 28.2322 28.2322 28.2322 28.2322 28.2322 30.2322 28.2322 28.2322 49.2322 28.2322 28.2322 28.2322 28.2322 28.2322 28.2322 28.2322 28.2322 28.2322 28.2322 28.2322 28.2322 28.2322 28.2322 28.2322 28.2322 28.2322 28.2322 28.2322 28.2322 28.2322 28.2322 28.2322 28.2322 28.2322 28.2322 193.232 28.2322 28.2322 28.2322 28.2322 28.2322 28.2322 28.2322 28.2322 28.2322 28.2322 28.2322 28.2322 28.2322 28.2322 28.2322 28.2322 28.2322 31.2322 28.2322 28.2322 28.2322 28.2322 28.2322 28.2322 28.2322 28.2322 28.2322 28.2322 28.2322 28.2322 28.2322 28.2322 28.2322 28.2322 28.2322 31.2322 28.2322 28.2322 52.2322 28.2322 28.2322 28.2322 28.2322 68.2322 28.2322 28.2322 42.2322 28.2322 28.2322 28.2322 28.2322 28.2322 28.2322 28.2322 29.2322 28.2322 28.2322 28.2322 28.2322 28.2322 28.2322 28.2322 28.2322 28.2322 32.2322 28.2322 28.2322 43.2322 28.2322 28.2322 28.2322 28.2322 31.2322 28.2322 28.2322 28.2322 28.2322 28.2322 38.2322 28.2322 29.2322 28.2322 28.2322 28.2322 28.2322 28.2322 30.2322 28.2322 28.2322 28.2322 28.2322 28.2322 28.2322 28.2322 28.2322 28.2322 28.2322 34.2322 28.2322 28.2322 28.2322 28.2322 28.2322 28.2322 28.2322 28.2322 28.2322 28.2322 28.2322 28.2322 28.2322 28.2322 28.2322 28.2322 28.2322 28.2322 28.2322 47.2322 28.2322 28.2322 198.232 71.2322 67.2322 71.2322 42.2322 40.2322 28.2322 56.2322 28.2322 37.2322 28.2322 28.2322 28.2322 28.2322 28.2322 54.2322 28.2322 84.2322 28.2322 28.2322 28.2322 66.2322 28.2322 28.2322 28.2322 28.2322 48.2322 28.2322 148.232 72.2322 28.2322 28.2322 72.2322 91.2322 63.2322 38.2322 28.2322 28.2322 28.2322 28.2322 28.2322 28.2322 28.2322 28.2322 28.2322 28.2322 28.2322 70.2322 28.2322 53.2322 28.2322 28.2322 31.2322 28.2322 28.2322 28.2322 28.2322 55.2322 58.2322 28.2322 35.2322 28.2322 28.2322 28.2322 28.2322 28.2322 28.2322 42.2322 28.2322 28.2322 64.2322 28.2322 31.2322 28.2322 28.2322 57.2322 28.2322 39.2322 28.2322 28.2322 28.2322 28.2322 28.2322 28.2322 28.2322 28.2322 28.2322 28.2322 28.2322 28.2322 28.2322 30.2322 28.2322 28.2322 28.2322 28.2322 28.2322 28.2322 28.2322 28.2322 28.2322 28.2322 28.2322 28.2322 28.2322 28.2322 28.2322 28.2322 28.2322 28.2322 28.2322 28.2322 28.2322 28.2322 28.2322 28.2322 28.2322 28.2322 28.2322 28.2322 30.2322 28.2322 28.2322 28.2322 28.2322 28.2322 28.2322 28.2322 28.2322 28.2322 28.2322 28.2322 28.2322 28.2322 28.2322 28.2322 28.2322 28.2322 28.2322 
rewards of Offsets elements: 769 555 0 0 0 0 0 1514 0 0 0 0 0 0 0 0 0 0 0 0 0 0 0 0 0 0 0 0 0 0 0 0 0 0 0 0 0 0 0 0 0 0 0 0 0 0 0 0 0 0 6 0 5 0 0 313 0 0 0 0 0 0 0 0 0 0 0 0 0 0 0 0 0 0 0 0 12 0 0 0 0 0 0 4 56 0 0 348 661 0 0 0 50 0 0 0 0 0 653 0 0 524 226 0 0 0 0 0 0 0 178 627 0 0 2 0 0 0 0 0 5 246 4 0 942 0 0 23 0 0 0 124 0 0 2 0 0 0 654 72 0 0 0 0 0 233 0 0 567 989 0 0 8 0 0 512 0 0 75 9 0 0 0 0 0 0 0 0 0 0 0 0 0 0 0 0 0 0 0 0 0 0 0 0 0 0 0 0 0 0 0 0 0 0 0 0 0 0 0 188 0 0 0 0 1 0 0 0 0 186 31 0 0 0 354 0 0 178 0 0 0 0 0 0 0 0 174 0 0 0 0 0 0 0 145 0 0 0 0 0 0 0 0 217 0 267 0 8 357 85 0 0 0 0 0 0 0 0 4 0 0 0 0 0 0 0 0 0 0 0 0 8 0 22 5 0 24 0 142 1 2 6 14 0 6 6 44 31 24 24 0 0 585 0 0 0 0 0 0 0 0 0 0 0 0 133 0 0 0 581 3 0 2 0 33 0 0 0 0 0 14 0 8 0 0 397 0 0 0 0 0 0 0 0 14 0 0 8 2 0 0 75 61 0 0 0 10 4 0 0 0 156 0 0 40 110 37 6 36 90 105 35 126 100 84 0 8 25 28 39 0 0 90 12 8 0 18 0 0 0 0 0 0 0 0 2 0 0 0 0 0 0 0 0 0 0 0 0 0 0 0 7 0 0 0 0 0 0 0 0 0 0 0 0 199 21 206 0 0 0 0 0 4 12 6 13 0 0 173 0 0 0 0 0 0 0 0 377 0 2 0 67 0 0 0 0 0 0 0 0 0 1 0 20 0 0 7 0 0 15 0 12 0 0 0 0 391 0 0 0 0 0 0 0 0 0 0 0 0 0 63 0 12 1 4 0 0 0 0 0 0 2 0 40 0 0 0 0 0 0 33 0 0 0 0 0 0 0 0 0 0 0 0 0 0 0 2 0 0 0 0 0 0 0 0 0 0 0 0 0 0 0 0 0 0 0 0 0 0 0 166 0 0 298 0 0 0 0 0 0 0 0 0 0 0 0 0 0 0 0 0 0 0 0 0 0 0 0 0 0 0 0 0 0 0 0 0 0 0 0 0 0 0 0 0 0 0 14 0 0 0 0 0 0 0 0 0 0 0 6 0 0 0 0 10 0 0 0 0 0 0 0 0 0 14 16 0 0 18 0 49 0 16 0 0 170 0 27 0 0 0 0 0 0 57 0 0 0 0 0 0 0 0 0 0 0 0 33 160 0 0 0 0 21 0 0 0 0 5 0 0 0 0 0 0 0 31 0 0 0 12 0 0 0 0 0 0 0 0 0 0 0 0 0 0 0 0 0 0 0 0 0 0 0 0 8 0 0 0 0 0 0 0 0 0 0 0 0 0 0 0 0 1 0 0 0 0 0 0 0 0 0 0 0 0 0 0 0 0 0 0 0 0 0 0 0 0 0 0 0 0 0 0 0 0 0 0 0 0 0 0 0 0 0 0 0 0 0 0 0 24 3 0 8 0 0 81 27 0 1 0 14 0 0 0 0 15 14 0 0 0 0 0 0 6 25 11 0 0 0 20 0 0 0 0 0 0 0 0 0 0 0 0 0 0 0 35 0 0 0 15 0 0 0 0 0 0 0 0 0 0 0 0 0 0 0 0 0 0 0 0 0 0 0 0 0 0 0 0 0 0 0 0 0 0 0 0 0 0 0 0 0 0 0 0 0 0 0 0 0 0 0 0 0 0 0 0 0 0 0 0 0 0 0 0 0 0 0 0 0 0 0 0 0 0 0 0 0 0 0 0 0 0 0 0 0 0 0 0 0 0 0 0 0 0 0 0 0 0 0 0 0 0 0 0 0 0 0 0 0 0 0 0 0 0 0 0 0 0 0 0 0 0 0 0 0 0 38 0 0 0 0 0 0 48 0 0 0 0 0 0 0 0 0 0 0 0 0 5 0 0 0 0 0 0 0 19 0 0 0 0 2 0 0 0 0 0 0 0 0 0 0 0 0 0 0 0 0 0 0 0 0 0 0 0 0 377 12 5 0 0 0 0 428 4 0 0 10 0 0 0 0 0 0 0 0 0 0 0 0 0 0 0 0 0 0 21 0 0 0 0 0 0 0 0 0 0 0 0 0 0 0 0 0 0 0 0 1 1 0 0 0 0 0 0 0 0 0 2 0 0 0 0 0 0 0 0 0 0 0 0 0 0 11 22 13 0 42 49 0 1 0 0 0 0 0 0 0 0 0 0 0 0 0 5 0 0 6 0 0 0 0 1 0 0 0 0 0 0 0 0 0 0 0 30 0 10 0 0 0 0 0 0 0 0 0 0 0 0 0 0 0 0 0 0 0 0 0 0 0 0 0 0 0 0 61 0 0 0 0 0 0 0 0 0 0 0 0 0 0 262 0 0 48 0 0 0 0 4 0 0 0 0 0 0 0 2 0 0 0 0 0 0 0 0 0 0 256 16 0 0 0 0 0 0 0 0 0 0 0 0 0 0 0 0 0 0 0 0 0 0 0 12 0 0 0 0 0 0 0 0 0 0 0 0 0 0 0 0 0 0 0 0 0 0 0 9 0 0 3 0 0 0 0 0 0 0 51 0 0 0 0 0 0 0 0 0 0 22 0 0 0 0 0 0 0 0 0 0 0 0 0 0 2 0 0 0 0 0 0 0 0 0 0 0 0 0 7 0 0 0 0 0 0 0 0 148 0 0 0 0 0 0 0 0 0 0 0 0 0 105 0 0 1 5 6 0 0 0 0 0 0 0 0 0 0 0 0 0 0 0 0 0 0 0 0 0 0 0 0 0 0 0 0 0 0 0 0 0 0 258 0 0 0 0 7 32 0 4 0 0 0 0 0 0 0 0 0 0 0 0 0 0 0 0 0 0 0 0 0 0 0 0 0 0 0 0 0 0 0 0 0 63 0 0 0 0 0 0 0 0 0 0 0 0 0 0 0 0 0 0 0 0 0 0 0 0 0 0 0 0 0 0 0 0 0 0 0 0 0 0 0 0 0 0 0 0 0 0 0 0 0 0 0 0 0 0 0 0 0 0 0 0 0 0 0 0 0 0 0 0 0 0 0 31 0 0 12 0 0 0 0 0 0 0 0 0 0 0 0 0 0 0 0 0 0 0 0 0 0 0 0 0 0 0 0 0 0 0 0 0 0 0 0 0 0 0 0 0 0 0 0 0 0 0 0 0 0 0 0 0 0 0 0 0 0 0 32 0 2 0 0 0 0 37 0 0 0 0 0 0 0 0 0 0 0 0 0 0 0 0 0 0 0 0 0 0 0 0 0 0 0 0 0 0 0 0 0 0 0 0 0 0 0 0 0 0 0 0 0 0 0 0 25 0 0 0 0 0 0 0 0 0 0 0 0 0 0 0 0 0 0 0 0 0 2 0 0 0 0 0 0 0 0 0 0 0 2 6 0 0 0 0 0 0 0 0 0 0 0 0 0 0 0 0 0 0 0 0 0 0 0 0 0 0 0 0 0 0 0 0 0 0 0 0 0 0 0 0 0 0 0 0 0 0 0 0 0 0 0 0 0 0 0 0 0 0 0 0 0 0 0 0 0 0 0 12 0 0 0 0 0 0 16 0 0 0 0 1 0 0 0 0 0 0 0 0 3 4 0 0 18 0 0 0 0 0 0 0 0 0 2 0 0 21 0 0 0 0 0 0 0 0 0 0 0 0 0 0 0 0 0 0 0 0 0 0 0 0 0 0 165 0 0 0 0 0 0 0 0 0 0 0 0 0 0 0 0 0 3 0 0 0 0 0 0 0 0 0 0 0 0 0 0 0 0 0 3 0 0 24 0 0 0 0 40 0 0 14 0 0 0 0 0 0 0 1 0 0 0 0 0 0 0 0 0 4 0 0 15 0 0 0 0 3 0 0 0 0 0 10 0 1 0 0 0 0 0 2 0 0 0 0 0 0 0 0 0 0 6 0 0 0 0 0 0 0 0 0 0 0 0 0 0 0 0 0 0 0 19 0 0 170 43 39 43 14 12 0 28 0 9 0 0 0 0 0 26 0 56 0 0 0 38 0 0 0 0 20 0 120 44 0 0 44 63 35 10 0 0 0 0 0 0 0 0 0 0 0 42 0 25 0 0 3 0 0 0 0 27 30 0 7 0 0 0 0 0 0 14 0 0 36 0 3 0 0 29 0 11 0 0 0 0 0 0 0 0 0 0 0 0 0 2 0 0 0 0 0 0 0 0 0 0 0 0 0 0 0 0 0 0 0 0 0 0 0 0 0 0 0 0 2 0 0 0 0 0 0 0 0 0 0 0 0 0 0 0 0 0 0 Printing Sanity3
offset_index value2011
offset list size2011
reward size2011
potential size2011
-----------------------------------------------------------------------------------------------------------------------------------------------------------------------------------------------------

DRAM Statistics
 CHANNEL 0
 RQ ROW_BUFFER_HIT:    1728642  ROW_BUFFER_MISS:    2698225
 DBUS_CONGESTED:       2032
 WQ ROW_BUFFER_HIT:     621501  ROW_BUFFER_MISS:    2055673  FULL:      30768

 AVG_CONGESTED_CYCLE: 3
 All warmup complete: 2
Channel 0 Bank busy for read cycles: 0
Channel 0 Bank busy for write cycles: 0
Channel 0
Rank 0
0banks busy for read cycles: 148801951
0banks busy for write cycles: 258221
1banks busy for read cycles: 65372418
1banks busy for write cycles: 36036267
2banks busy for read cycles: 37134532
2banks busy for write cycles: 20355586
3banks busy for read cycles: 24275392
3banks busy for write cycles: 12678093
4banks busy for read cycles: 10063158
4banks busy for write cycles: 8533881
5banks busy for read cycles: 6502230
5banks busy for write cycles: 6296199
6banks busy for read cycles: 10880677
6banks busy for write cycles: 5344852
7banks busy for read cycles: 4980856
7banks busy for write cycles: 6960256
8banks busy for read cycles: 13933246
8banks busy for write cycles: 32416929

CPU 0 Branch Prediction Accuracy: 99.9393% MPKI: 0.094655 Average ROB Occupancy at Mispredict: 109.042
Branch types
NOT_BRANCH: 168807431 84.4037%
BRANCH_DIRECT_JUMP: 1719252 0.859626%
BRANCH_INDIRECT: 9847536 4.92377%
BRANCH_CONDITIONAL: 12965646 6.48282%
BRANCH_DIRECT_CALL: 2636580 1.31829%
BRANCH_INDIRECT_CALL: 693283 0.346641%
BRANCH_RETURN: 3329925 1.66496%
BRANCH_OTHER: 0 0%

DRAM PAGES: 1048576
Allocated PAGES: 24906
