
*** ChampSim Multicore Out-of-Order Simulator ***

Warmup Instructions: 50000000
Simulation Instructions: 200000000
Number of CPUs: 1
LLC sets: 2048
LLC ways: 16
Off-chip DRAM Size: 4096 MB Channels: 1 Width: 64-bit Data Rate: 6400 MT/s
CPU 0 runs traces/spec2k17/server_013.champsimtrace.xz
.xz
BTB has LRU replacement policy
ITLB has LRU replacement policy
DTLB has LRU replacement policy
STLB has LRU replacement policy
L1I has LRU replacement policy
L1D has LRU replacement policy
Initialize SRRIP state for L2C
Initialize DRRIP state for LLC
Offsets elements: 
Potential of Offsets elements: 
rewards of Offsets elements: 
Printing Sanity1
offset list size695
Offsets elements: 
Potential of Offsets elements: 
rewards of Offsets elements: 1828 7 1 1351 0 18 0 0 0 186 0 0 0 0 0 0 0 0 2594 1418 0 0 0 0 0 0 0 0 0 0 0 0 0 0 713 0 0 0 0 2 32 0 0 0 0 0 0 0 0 0 0 0 0 0 0 0 0 0 0 0 342 0 0 0 0 0 0 0 0 0 0 0 0 0 0 0 0 0 0 699 0 0 0 10 0 0 0 388 106 20 158 90 30 12 15 36 0 0 0 0 6 132 2 0 0 0 0 0 0 0 0 0 0 0 0 0 0 0 0 0 0 0 2553 0 0 0 0 0 0 0 0 0 0 0 0 0 0 0 0 0 0 0 0 0 0 0 0 0 0 6 0 0 0 51 0 0 0 0 0 0 8 0 0 0 0 0 0 0 0 0 0 0 0 0 0 0 0 0 0 0 6 264 324 198 0 0 12 0 10 1 0 0 0 0 60 0 0 0 51 20 24 28 36 39 18 42 30 25 60 30 55 99 56 77 348 64 198 112 132 110 24 2 11 70 0 0 0 0 0 0 0 0 0 0 0 0 0 0 0 0 0 0 0 0 602 0 0 0 0 0 0 0 0 0 0 1 0 0 0 0 0 0 0 0 0 0 0 0 0 0 0 0 0 0 0 0 0 0 0 0 0 0 0 39 0 0 0 0 0 0 0 0 0 0 0 0 0 0 0 0 0 0 0 52 0 0 0 0 0 0 0 0 0 0 2 0 0 0 0 0 0 0 0 0 0 0 0 2 0 32 0 0 0 0 0 0 0 0 0 0 0 0 0 0 0 0 0 0 0 0 0 0 0 0 0 0 0 0 0 6 0 0 0 0 0 0 0 0 3 0 0 0 150 0 9 88 187 18 10 293 45 9 0 0 0 10 21 27 0 0 144 54 56 84 30 18 18 24 12 4 9 27 29 42 8 0 90 0 0 0 0 0 0 0 16 0 0 0 0 0 0 0 552 0 0 0 0 0 0 8 0 0 0 0 0 0 12 0 0 0 0 0 0 0 0 0 0 0 0 0 0 0 0 0 0 0 0 0 0 0 0 0 0 0 0 0 0 0 0 0 0 0 0 0 0 0 0 0 0 0 0 0 0 0 0 0 0 0 0 0 0 0 0 0 0 0 14 0 0 0 0 0 0 6 0 0 0 0 0 0 0 0 0 0 0 0 0 0 0 0 0 0 0 0 0 0 0 0 0 0 0 0 0 0 0 0 0 0 0 0 0 0 0 0 0 0 0 0 0 0 0 0 0 0 0 0 0 0 100 0 0 0 0 0 0 0 0 0 0 0 0 0 0 0 0 0 0 0 0 0 0 0 0 0 0 8 0 0 0 36 30 51 5 0 0 52 9 36 10 235 54 54 54 338 456 40 99 0 81 60 108 104 0 0 0 12 30 48 10 83 239 207 0 0 0 0 0 0 0 0 0 0 0 0 0 0 0 0 0 0 0 0 0 0 0 0 0 0 0 0 0 0 0 0 0 0 0 0 0 0 0 0 0 0 0 0 0 0 0 0 0 2 0 0 0 0 0 0 0 0 0 0 0 0 0 0 0 0 0 0 0 0 0 0 0 
Printing Sanity2
Heartbeat CPU 0 instructions: 10000002 cycles: 2809173 heartbeat IPC: 3.55977 cumulative IPC: 3.55977 (Simulation time: 0 hr 0 min 20 sec) 
Heartbeat CPU 0 instructions: 20000002 cycles: 5624637 heartbeat IPC: 3.55181 cumulative IPC: 3.55579 (Simulation time: 0 hr 0 min 41 sec) 
Heartbeat CPU 0 instructions: 30000000 cycles: 8442056 heartbeat IPC: 3.54935 cumulative IPC: 3.55364 (Simulation time: 0 hr 1 min 2 sec) 
Heartbeat CPU 0 instructions: 40000002 cycles: 11257281 heartbeat IPC: 3.55211 cumulative IPC: 3.55326 (Simulation time: 0 hr 1 min 23 sec) 
Heartbeat CPU 0 instructions: 50000002 cycles: 14075037 heartbeat IPC: 3.54892 cumulative IPC: 3.55239 (Simulation time: 0 hr 1 min 44 sec) 

Warmup complete CPU 0 instructions: 50000002 cycles: 14075037 (Simulation time: 0 hr 1 min 44 sec) 

Heartbeat CPU 0 instructions: 60000003 cycles: 39662353 heartbeat IPC: 0.390819 cumulative IPC: 0.390819 (Simulation time: 0 hr 2 min 18 sec) 
Heartbeat CPU 0 instructions: 70000000 cycles: 64694980 heartbeat IPC: 0.399479 cumulative IPC: 0.395101 (Simulation time: 0 hr 2 min 53 sec) 
Heartbeat CPU 0 instructions: 80000001 cycles: 89472738 heartbeat IPC: 0.403588 cumulative IPC: 0.39789 (Simulation time: 0 hr 3 min 27 sec) 
Heartbeat CPU 0 instructions: 90000001 cycles: 113849018 heartbeat IPC: 0.410235 cumulative IPC: 0.400906 (Simulation time: 0 hr 4 min 1 sec) 
Heartbeat CPU 0 instructions: 100000001 cycles: 138627511 heartbeat IPC: 0.403576 cumulative IPC: 0.401437 (Simulation time: 0 hr 4 min 35 sec) 
*** Reached end of trace for Core: 0 Repeating trace: traces/spec2k17/server_013.champsimtrace.xz
Heartbeat CPU 0 instructions: 110000000 cycles: 163143654 heartbeat IPC: 0.407894 cumulative IPC: 0.402499 (Simulation time: 0 hr 5 min 9 sec) 
Heartbeat CPU 0 instructions: 120000000 cycles: 187627087 heartbeat IPC: 0.408439 cumulative IPC: 0.403337 (Simulation time: 0 hr 5 min 43 sec) 
Heartbeat CPU 0 instructions: 130000003 cycles: 212294099 heartbeat IPC: 0.4054 cumulative IPC: 0.403594 (Simulation time: 0 hr 6 min 17 sec) 
Heartbeat CPU 0 instructions: 140000001 cycles: 237236718 heartbeat IPC: 0.40092 cumulative IPC: 0.403295 (Simulation time: 0 hr 6 min 51 sec) 
Heartbeat CPU 0 instructions: 150000002 cycles: 261879603 heartbeat IPC: 0.405797 cumulative IPC: 0.403544 (Simulation time: 0 hr 7 min 25 sec) 
Heartbeat CPU 0 instructions: 160000000 cycles: 287605039 heartbeat IPC: 0.38872 cumulative IPC: 0.40215 (Simulation time: 0 hr 7 min 59 sec) 
Heartbeat CPU 0 instructions: 170000000 cycles: 311871287 heartbeat IPC: 0.412095 cumulative IPC: 0.40296 (Simulation time: 0 hr 8 min 33 sec) 
Heartbeat CPU 0 instructions: 180000002 cycles: 336984283 heartbeat IPC: 0.3982 cumulative IPC: 0.40259 (Simulation time: 0 hr 9 min 7 sec) 
Heartbeat CPU 0 instructions: 190000002 cycles: 361482544 heartbeat IPC: 0.408192 cumulative IPC: 0.402985 (Simulation time: 0 hr 9 min 41 sec) 
Heartbeat CPU 0 instructions: 200000000 cycles: 385970852 heartbeat IPC: 0.408358 cumulative IPC: 0.403339 (Simulation time: 0 hr 10 min 15 sec) 
*** Reached end of trace for Core: 0 Repeating trace: traces/spec2k17/server_013.champsimtrace.xz
Heartbeat CPU 0 instructions: 210000003 cycles: 411054712 heartbeat IPC: 0.398663 cumulative IPC: 0.403043 (Simulation time: 0 hr 10 min 49 sec) 
Heartbeat CPU 0 instructions: 220000000 cycles: 435112510 heartbeat IPC: 0.415666 cumulative IPC: 0.403765 (Simulation time: 0 hr 11 min 23 sec) 
Heartbeat CPU 0 instructions: 230000000 cycles: 459656591 heartbeat IPC: 0.40743 cumulative IPC: 0.403966 (Simulation time: 0 hr 11 min 56 sec) 
Heartbeat CPU 0 instructions: 240000001 cycles: 484115981 heartbeat IPC: 0.408841 cumulative IPC: 0.40422 (Simulation time: 0 hr 12 min 30 sec) 
Heartbeat CPU 0 instructions: 250000002 cycles: 508880276 heartbeat IPC: 0.403807 cumulative IPC: 0.404199 (Simulation time: 0 hr 13 min 4 sec) 
Finished CPU 0 instructions: 200000000 cycles: 494805239 cumulative IPC: 0.404199 (Simulation time: 0 hr 13 min 4 sec) 

ChampSim completed all CPUs

Region of Interest Statistics

CPU 0 cumulative IPC: 0.404199 instructions: 200000000 cycles: 494805239
ITLB TOTAL     ACCESS:   31559630  HIT:   30736934  MISS:     822696  HIT %:    97.3932  MISS %:     2.6068   MPKI: 4.11348
ITLB LOAD TRANSLATION ACCESS:   31559630  HIT:   30736934  MISS:     822696  HIT %:    97.3932  MISS %:     2.6068   MPKI: 4.11348
ITLB PREFETCH  REQUESTED:          0  ISSUED:          0  USEFUL:          0  USELESS:          0
ITLB USEFUL LOAD PREFETCHES:          0 PREFETCH ISSUED TO LOWER LEVEL:          0  ACCURACY: -nan
ITLB TIMELY PREFETCHES:          0 LATE PREFETCHES: 0 DROPPED PREFETCHES: 0
ITLB PREFETCHES SAME FILL-ORIGIN LEVEL: 0 DIFFERENT FILL-ORIGIN LEVEL: 0
ITLB AVERAGE MISS LATENCY: 16.5678 cycles
ITLB RQ	ACCESS:   38403720	FORWARD:          0	MERGED:    6646489	TO_CACHE:   31757231

DTLB TOTAL     ACCESS:   37595682  HIT:   35044574  MISS:    2551108  HIT %:    93.2144  MISS %:    6.78564   MPKI: 12.7555
DTLB LOAD TRANSLATION ACCESS:   37595682  HIT:   35044574  MISS:    2551108  HIT %:    93.2144  MISS %:    6.78564   MPKI: 12.7555
DTLB PREFETCH  REQUESTED:          0  ISSUED:          0  USEFUL:          0  USELESS:          0
DTLB USEFUL LOAD PREFETCHES:          0 PREFETCH ISSUED TO LOWER LEVEL:          0  ACCURACY: -nan
DTLB TIMELY PREFETCHES:          0 LATE PREFETCHES: 0 DROPPED PREFETCHES: 0
DTLB PREFETCHES SAME FILL-ORIGIN LEVEL: 0 DIFFERENT FILL-ORIGIN LEVEL: 0
DTLB AVERAGE MISS LATENCY: 14.4008 cycles
DTLB RQ	ACCESS:   48011733	FORWARD:          0	MERGED:   10265139	TO_CACHE:   37746594

STLB TOTAL     ACCESS:   24605175  HIT:   24131487  MISS:     473688  HIT %:    98.0748  MISS %:    1.92516   MPKI: 2.36844
STLB LOAD TRANSLATION ACCESS:    3373804  HIT:    2908315  MISS:     465489  HIT %:    86.2028  MISS %:    13.7972   MPKI: 2.32744
STLB TRANSLATION FROM L1D PREFETCHER ACCESS:   21231371  HIT:   21223172  MISS:       8199  HIT %:    99.9614  MISS %:  0.0386174   MPKI: 0.040995
STLB PREFETCH  REQUESTED:          0  ISSUED:          0  USEFUL:       6653  USELESS:       1544
STLB USEFUL LOAD PREFETCHES:       6653 PREFETCH ISSUED TO LOWER LEVEL:          0  ACCURACY: inf
STLB TIMELY PREFETCHES:       6653 LATE PREFETCHES: 42 DROPPED PREFETCHES: 1738081
STLB PREFETCHES SAME FILL-ORIGIN LEVEL: 0 DIFFERENT FILL-ORIGIN LEVEL: 0
STLB AVERAGE MISS LATENCY: 42.574 cycles
STLB RQ	ACCESS:   30379023	FORWARD:          0	MERGED:    4030203	TO_CACHE:   26348820

STLB Hit, L1D data hit: 0
STLB Hit, L2C data hit: 0
STLB Hit, LLC data hit: 0
STLB Hit, LLC data miss: 0
STLB STLB hints to L2: 0
L1D TOTAL     ACCESS:   72410700  HIT:   67697778  MISS:    4712922  HIT %:    93.4914  MISS %:     6.5086   MPKI: 23.5646
L1D LOAD      ACCESS:   27942233  HIT:   25562584  MISS:    2379649  HIT %:    91.4837  MISS %:    8.51632   MPKI: 11.8982
L1D RFO       ACCESS:   19544033  HIT:   19238780  MISS:     305253  HIT %:    98.4381  MISS %:    1.56187   MPKI: 1.52626
L1D PREFETCH  ACCESS:   24924434  HIT:   22896414  MISS:    2028020  HIT %:    91.8633  MISS %:    8.13667   MPKI: 10.1401
AGUS PREFETCH L1 MISS: 0
L1D PREFETCH  REQUESTED:   55096498  ISSUED:   55095944  USEFUL:     192890  USELESS:    1835151
L1D USEFUL LOAD PREFETCHES:     192890 PREFETCH ISSUED TO LOWER LEVEL:    2030489  ACCURACY: 9.49968
L1D TIMELY PREFETCHES:     192890 LATE PREFETCHES: 1101 DROPPED PREFETCHES: 1973583
L1D PREFETCHES SAME FILL-ORIGIN LEVEL: 2030489 DIFFERENT FILL-ORIGIN LEVEL: 0
L1D AVERAGE MISS LATENCY: 136921 cycles
L1D RQ	ACCESS:   42088789	FORWARD:          0	MERGED:   13799979	TO_CACHE:   28091283
L1D WQ	ACCESS:   20246575	FORWARD:     206808	MERGED:     326125	TO_CACHE:   19920450
L1D PQ	ACCESS:   28090726	FORWARD:          0	MERGED:    1076227	TO_CACHE:   27005218

L1D UNIQUE REGIONS ACCESSED: 0
L1D REGIONS CONFLICTS: 0
L1D Cross Page Prefetch Requests: 4684706
L1D Same Page Prefetch Requests: 29998814
L1D ROI Sum of L1D PQ occupancy: 454299298
L1D PREFETCHES PUSHED FROM L2C: 0
L1I TOTAL     ACCESS:   36705736  HIT:   31451245  MISS:    5254491  HIT %:    85.6848  MISS %:    14.3152   MPKI: 26.2725
L1I LOAD      ACCESS:   36705736  HIT:   31451245  MISS:    5254491  HIT %:    85.6848  MISS %:    14.3152   MPKI: 26.2725
L1I PREFETCH  REQUESTED:          0  ISSUED:          0  USEFUL:          0  USELESS:          0
L1I USEFUL LOAD PREFETCHES:          0 PREFETCH ISSUED TO LOWER LEVEL:          0  ACCURACY: -nan
L1I TIMELY PREFETCHES:          0 LATE PREFETCHES: 0 DROPPED PREFETCHES: 0
L1I PREFETCHES SAME FILL-ORIGIN LEVEL: 0 DIFFERENT FILL-ORIGIN LEVEL: 0
L1I AVERAGE MISS LATENCY: 30.2479 cycles
L1I RQ	ACCESS:   57190161	FORWARD:          0	MERGED:   18786441	TO_CACHE:   38403720

BTB TOTAL     ACCESS:   22787446  HIT:   17577150  MISS:    5210296  HIT %:    77.1352  MISS %:    22.8648   MPKI: 26.0515
BTB BRANCH_DIRECT_JUMP	ACCESS:    1802124  HIT:    1488715  MISS:     313409
BTB BRANCH_INDIRECT	ACCESS:    9657292  HIT:    7208240  MISS:    2449052
BTB BRANCH_CONDITIONAL	ACCESS:    4724019  HIT:    4227730  MISS:     496289
BTB BRANCH_DIRECT_CALL	ACCESS:    2593020  HIT:    1983731  MISS:     609289
BTB BRANCH_INDIRECT_CALL	ACCESS:     705122  HIT:     643336  MISS:      61786
BTB BRANCH_RETURN	ACCESS:    3305869  HIT:    2025398  MISS:    1280471
BTB BRANCH_OTHER ACCESS:          0  HIT:          0  MISS:          0

L2C TOTAL     ACCESS:   14585611  HIT:    9264542  MISS:    5321069  HIT %:    63.5184  MISS %:    36.4816   MPKI: 26.6053
L2C LOAD      ACCESS:    7632959  HIT:    3743476  MISS:    3889483  HIT %:    49.0436  MISS %:    50.9564   MPKI: 19.4474
L2C DATA LOAD MPKI: 5.99381
L2C INSTRUCTION LOAD MPKI: 13.4536
L2C RFO       ACCESS:     303872  HIT:     158650  MISS:     145222  HIT %:    52.2095  MISS %:    47.7905   MPKI: 0.72611
L2C PREFETCH  ACCESS:    2030337  HIT:    1041463  MISS:     988874  HIT %:    51.2951  MISS %:    48.7049   MPKI: 4.94437
AGUS PREFETCH L1 MISS: 0
L2C DATA PREFETCH MPKI: 4.94437
L2C INSTRUCTION PREFETCH MPKI: 0
L2C WRITEBACK ACCESS:    1108674  HIT:    1067650  MISS:      41024  HIT %:    96.2997  MISS %:    3.70028   MPKI: 0.20512
L2C LOAD TRANSLATION ACCESS:     590263  HIT:     344853  MISS:     245410  HIT %:    58.4236  MISS %:    41.5764   MPKI: 1.22705
L2C TRANSLATION FROM L1D PREFETCHER ACCESS:    2919506  HIT:    2908450  MISS:      11056  HIT %:    99.6213  MISS %:   0.378694   MPKI: 0.05528
L2C PREFETCH  REQUESTED:          0  ISSUED:          0  USEFUL:      25495  USELESS:     974463
L2C USEFUL LOAD PREFETCHES:      25495 PREFETCH ISSUED TO LOWER LEVEL:     988874  ACCURACY: 2.57818
L2C TIMELY PREFETCHES:      25495 LATE PREFETCHES: 0 DROPPED PREFETCHES: 0
L2C PREFETCHES SAME FILL-ORIGIN LEVEL: 0 DIFFERENT FILL-ORIGIN LEVEL: 0
L2C AVERAGE MISS LATENCY: 40.1836 cycles
L2C RQ	ACCESS:   11446691	FORWARD:          0	MERGED:          0	TO_CACHE:   11446599
L2C WQ	ACCESS:    1108674	FORWARD:        244	MERGED:          0	TO_CACHE:    1108674
L2C PQ	ACCESS:    2030489	FORWARD:          0	MERGED:          0	TO_CACHE:    2030337

L2C Instructions Evicting Data 1201674
L2C Translations Evicting Data 118561
L2C Data Evicting Data 1035931
L2C Instructions Evicting Instructions 1362645
L2C Translations Evicting Instructions 125065
L2C Data Evicting Instructions 1181940
L2C Instructions Evicting Translations 126403
L2C Translations Evicting Translations 12840
L2C Data Evicting Translations 114986
L2C Dense regions hint from L2: 0
PSCL5 TOTAL     ACCESS:    2211769  HIT:    2211769  MISS:          0  HIT %:        100  MISS %:          0   MPKI: 0
PSCL5 LOAD TRANSLATION ACCESS:     465447  HIT:     465447  MISS:          0  HIT %:        100  MISS %:          0   MPKI: 0
PSCL5 TRANSLATION FROM L1D PREFETCHER ACCESS:    1746322  HIT:    1746322  MISS:          0  HIT %:        100  MISS %:          0   MPKI: 0
PSCL5 PREFETCH  REQUESTED:          0  ISSUED:          0  USEFUL:          0  USELESS:          0
PSCL5 USEFUL LOAD PREFETCHES:          0 PREFETCH ISSUED TO LOWER LEVEL:          0  ACCURACY: -nan
PSCL5 TIMELY PREFETCHES:          0 LATE PREFETCHES: 0 DROPPED PREFETCHES: 0
PSCL5 PREFETCHES SAME FILL-ORIGIN LEVEL: 0 DIFFERENT FILL-ORIGIN LEVEL: 0

PSCL4 TOTAL     ACCESS:    2019026  HIT:    2017626  MISS:       1400  HIT %:    99.9307  MISS %:  0.0693404   MPKI: 0.007
PSCL4 LOAD TRANSLATION ACCESS:     442015  HIT:     440615  MISS:       1400  HIT %:    99.6833  MISS %:   0.316731   MPKI: 0.007
PSCL4 TRANSLATION FROM L1D PREFETCHER ACCESS:    1577011  HIT:    1577011  MISS:          0  HIT %:        100  MISS %:          0   MPKI: 0
PSCL4 PREFETCH  REQUESTED:          0  ISSUED:          0  USEFUL:          0  USELESS:          0
PSCL4 USEFUL LOAD PREFETCHES:          0 PREFETCH ISSUED TO LOWER LEVEL:          0  ACCURACY: -nan
PSCL4 TIMELY PREFETCHES:          0 LATE PREFETCHES: 0 DROPPED PREFETCHES: 0
PSCL4 PREFETCHES SAME FILL-ORIGIN LEVEL: 0 DIFFERENT FILL-ORIGIN LEVEL: 0

PSCL3 TOTAL     ACCESS:    2185962  HIT:    2182043  MISS:       3919  HIT %:    99.8207  MISS %:    0.17928   MPKI: 0.019595
PSCL3 LOAD TRANSLATION ACCESS:     462002  HIT:     458083  MISS:       3919  HIT %:    99.1517  MISS %:   0.848265   MPKI: 0.019595
PSCL3 TRANSLATION FROM L1D PREFETCHER ACCESS:    1723960  HIT:    1723960  MISS:          0  HIT %:        100  MISS %:          0   MPKI: 0
PSCL3 PREFETCH  REQUESTED:          0  ISSUED:          0  USEFUL:          0  USELESS:          0
PSCL3 USEFUL LOAD PREFETCHES:          0 PREFETCH ISSUED TO LOWER LEVEL:          0  ACCURACY: -nan
PSCL3 TIMELY PREFETCHES:          0 LATE PREFETCHES: 0 DROPPED PREFETCHES: 0
PSCL3 PREFETCHES SAME FILL-ORIGIN LEVEL: 0 DIFFERENT FILL-ORIGIN LEVEL: 0

PSCL2 TOTAL     ACCESS:    1050127  HIT:     929502  MISS:     120625  HIT %:    88.5133  MISS %:    11.4867   MPKI: 0.603125
PSCL2 LOAD TRANSLATION ACCESS:     466523  HIT:     345898  MISS:     120625  HIT %:    74.1438  MISS %:    25.8562   MPKI: 0.603125
PSCL2 TRANSLATION FROM L1D PREFETCHER ACCESS:     583604  HIT:     583604  MISS:          0  HIT %:        100  MISS %:          0   MPKI: 0
PSCL2 PREFETCH  REQUESTED:          0  ISSUED:          0  USEFUL:          0  USELESS:          0
PSCL2 USEFUL LOAD PREFETCHES:          0 PREFETCH ISSUED TO LOWER LEVEL:          0  ACCURACY: -nan
PSCL2 TIMELY PREFETCHES:          0 LATE PREFETCHES: 0 DROPPED PREFETCHES: 0
PSCL2 PREFETCHES SAME FILL-ORIGIN LEVEL: 0 DIFFERENT FILL-ORIGIN LEVEL: 0

LLC TOTAL     ACCESS:    5801508  HIT:    5444968  MISS:     356540  HIT %:    93.8544  MISS %:    6.14564   MPKI: 1.7827
LLC LOAD      ACCESS:    3889483  HIT:    3644071  MISS:     245412  HIT %:    93.6904  MISS %:    6.30963   MPKI: 1.22706
LLC RFO       ACCESS:     145222  HIT:      98551  MISS:      46671  HIT %:    67.8623  MISS %:    32.1377   MPKI: 0.233355
LLC PREFETCH  ACCESS:     988872  HIT:     935329  MISS:      53543  HIT %:    94.5854  MISS %:    5.41455   MPKI: 0.267715
AGUS PREFETCH L1 MISS: 0
LLC WRITEBACK ACCESS:     521465  HIT:     517394  MISS:       4071  HIT %:    99.2193  MISS %:   0.780685   MPKI: 0.020355
LLC LOAD TRANSLATION ACCESS:     245410  HIT:     238741  MISS:       6669  HIT %:    97.2825  MISS %:    2.71749   MPKI: 0.033345
LLC TRANSLATION FROM L1D PREFETCHER ACCESS:      11056  HIT:      10882  MISS:        174  HIT %:    98.4262  MISS %:    1.57381   MPKI: 0.00087
LLC PREFETCH  REQUESTED:          0  ISSUED:          0  USEFUL:       3716  USELESS:      49949
LLC USEFUL LOAD PREFETCHES:       3716 PREFETCH ISSUED TO LOWER LEVEL:      53543  ACCURACY: 6.94022
LLC TIMELY PREFETCHES:       3716 LATE PREFETCHES: 0 DROPPED PREFETCHES: 0
LLC PREFETCHES SAME FILL-ORIGIN LEVEL: 0 DIFFERENT FILL-ORIGIN LEVEL: 0
LLC AVERAGE MISS LATENCY: 155.314 cycles
LLC RQ	ACCESS:    4291170	FORWARD:          0	MERGED:          0	TO_CACHE:    4291170
LLC WQ	ACCESS:     521465	FORWARD:          2	MERGED:          0	TO_CACHE:     521465
LLC PQ	ACCESS:     988874	FORWARD:          0	MERGED:          0	TO_CACHE:     988872

LLC Dense regions hint to LLC: 0

RAW hits: 2728980
Loads Generated: 44817773
Loads sent to L1D: 42088789
Stores Generated: 20246577
Stores sent to L1D: 20246575
Major fault: 0 Minor fault: 6553
Allocated PAGES: 6553
ucb ended
-----------------------------------------------------------------------------------------------------------------------------------------------------------------------------------------------------
Offsets elements: 1 8188680 145512 -1 22650 -4976 -8351865 8334505 -8334505 2 -722451 -4397629363489 4397630085939 -4397630085939 641325 4397629444613 -4397630085938 532290 -2 6 51031 4397629502613 -4398019018600 4398019018601 -4397631726154 2894953 -532287 549182 -534987 4397630071743 -4397630085937 532295 -528214 528210 4 4397629553644 -4397630081875 4397638425546 -154992 145511 312 22337 -8351869 -4397630085934 -58000 -2945991 2376679 -9954 9954 475459 -485412 519334 4397628840092 -4397629349473 4397637162128 -4397636645895 -333656 -146715 61355 4397629252256 -3 -4397629349470 4397636816454 -4397636780592 -35862 4397637984047 -4397637984047 4397633074298 5332144 -8334455 288223780706293302 -2200618112446 2200618112446 1142572 -574608 -567718 571402 -21392 563729 3 -1113740 1113944 -1114192 255 -288223780706293556 -73 -722450 10 -10 722452 -722445 7812655 -7090209 -4398019018544 389462858 4397629889342 -4397630036057 -97217 -9953 4397638270775 -4397638270775 -509381 4397630071919 -4397629596462 4397629596460 4397630081875 -4397630071922 4397630071922 8343671 -8343670 4397630085937 4063 4397638270554 -8351866 489474 43077 4397637897058 -4397630085940 4397629363488 -4397628722163 4397632448604 532288 -4 4397629553648 -4397629536756 -549182 -388932662 4398019018600 -4397630071743 8343670 -4397638429610 4397630085940 -4397629363487 -528210 4397630081858 4062 8188679 -475459 -182577 97217 -61355 4397636780593 -7466982 8634578 -4397637984048 35862 -1142572 567964 574608 3684 205 -209 -1113737 -249 -74 -722449 -4398018296091 4398019018541 -722440 8911356 -1098694 -7812655 722445 -4397629889342 333656 4397629555686 -4397629974702 9953 509381 4397629562539 -4397630071920 4397630071918 -4397629596460 4397629596462 8343673 -8343671 8188678 -4397638274616 4397638420128 -4397638416066 4397638416378 17361 4976 -4977 43013 4397637897122 -9481 17673 -163185 145824 -8356842 4397630071744 4397630085938 -4397628831200 -532290 4080 -17361 -8356845 -1113946 -4398019018613 4398019018613 7090140 -7090213 8911349 -4397638078245 4397629889341 -4397629555686 -419016 -45815 -4397629562538 -33922 -485413 4397638415595 -4397638420127 4397638420129 -4397638416378 4397638433739 4397638429609 -4397637948327 4397637930967 -8356841 -4397629553386 4397637742066 -8188681 8334192 -4397629363488 4397629363489 532287 -4397628833240 4397636645895 -4397637162128 182577 -85360 4397637984048 -567964 -1113943 -288228178725311915 288228178725312170 -288223780699203417 288223780699203416 8188907 -8188906 -4397629889339 4397629166899 7 419016 -516233 4397630071920 -4397630036059 -475460 509382 -519335 4397638425548 4397638274617 4397638416065 -17360 -4397637930654 4397637940135 17360 -4397637905315 4397629553450 8356841 8188681 -389481844 388932662 4397638415414 -4397630081858 4397638274616 -4397638270554 -569311 -2376680 2376680 -9952 485412 4397636719238 -4397636780593 4397629313611 4397633038436 -1113945 1113737 -1113734 -288228178725312165 288228178725312164 -254 -288223780706293302 8188906 -7812662 -4397630071919 -4397638429608 -4063 -22337 -4397630085936 -4397637785143 4397637930654 -4397637887578 4397637905251 8356842 -168161 722450 -4397638415414 -14195 4397638420127 -4397638420129 163185 -4397638437800 532289 4397638416361 -4397638438715 4397636816455 1167593 1113945 -288223780706293629 73 -72 71 -4398019018541 4398018296091 7812662 -7812652 8188904 -8188903 -4397629562540 -509380 475458 -145512 8351866 4397632448602 -4397637742329 -532291 -17 545119 4397637870946 4397629359426 4397629349473 6852 4397636300222 -4397637801471 -182576 35861 -61354 1113939 -1113940 722442 7090210 4397630036057 -4397638437801 4397638437800 -4397638437802 8334503 4397630081873 4397629444614 -4397629502613 -583325 14195 -4397638429609 -4397632448604 -4397637725435 4397637870947 526186 4397636633878 509380 -473519 -1142322 -567709 571394 -550005 1113734 -1113733 1113733 -1113736 4398027207447 -8911346 722446 -4397630081878 4397638270556 4397638420441 -8356840 -4397637897122 4397637742130 -722448 -4398018296150 4398019018598 -4397630071744 641326 -109037 579245 -34143 -549181 -2362667 2366728 22649 -4397637172082 485413 -4397629166896 326804 4397628840089 4397637886831 -567714 571398 -571399 550001 -550002 -1113732 1113735 -1113735 -1114193 253 4397629562540 -4397630081874 4397638415593 -4397629596465 -4397637897058 722448 -4397637788284 51037 2894957 4397629553649 389573987 4397636189182 -4397636298219 -4397640782795 4397640800468 -17673 -4397507459676 4397507437339 -4397632448603 4397631726154 -4397631726153 133345772 -130983107 -2362665 -386569871 519915651 -130150890 130150891 4397498380360 -4397628873611 333941 -3186478 4397631375971 7811515 -4397635993018 -3209129 14662 3194891 -8413 8413 -3194888 3194465 -7990 8414 -424 8412 4397628531257 -4397629363483 -2362660 4397640637278 -4398018296024 4398019018469 -388932536 4398019018471 -4397632448596 4397639187481 382990 -4397636717939 151454 4397629444610 -4397632448600 4397640792274 -4398027362145 389515860 -93457 -2852534 4397632448601 6738885 -4397636334949 4397636340703 -4397639193240 -7461332 2892913 -530248 530253 4397629555682 -4397632448601 -4397499155296 4397499155297 -4397629477787 -608152 -4398019018598 4398018296150 9079290 -8343673 -4397630071741 4079 4397638270537 4397638416066 17674 -8351868 -2945989 2376678 -4397628874011 -4397636816454 -4397637474667 250 1142323 -571393 1113731 4398018296101 8911346 -8911356 -14196 -641324 -4397629553644 -579245 545102 2366727 -4397636633878 4397629166896 4397629596464 -4397637742066 4397637887578 -4397629444613 4397629553645 -4397629553649 -4397628780163 -4397632448602 2894952 -4079 4397632448598 -4397629359427 4397637172082 -4397636686669 -516234 182578 288221580088180856 -550006 1113736 1113941 252 -4397630071921 4397630071921 475460 -4397630081877 4397638260601 523396 4397637896732 8911129 -8334193 -8351863 8351864 8356839 -4397638442779 51035 386569998 2911846 4397629536756 -9066121 -627311 569311 -579264 -2366726 2366726 516233 -1113738 1113943 -4397629555688 -192531 -439597 -4397629974704 -97218 -8334191 -4397629502614 -389464952 -4397629536757 4397629349293 569310 -2366725 2366725 -7090210 -107170 519335 4977 -4397629444614 -641325 583325 -4397629553650 -2894954 -386569998 4397637880427 473519 -412164 288223780703290991 -288223780697958847 -4398019018540 7812652 722443 8188905 -4397629555685 4397629974703 9952 -9955 -4397629562543 4397637751221 -4397638420128 4397638437802 4397629553385 9480 4397632448603 -145511 8334508 -4397638420442 4397638442778 -4397637801453 288223780697958847 -1113944 -288228178725312169 7090213 -7090140 -8188904 4397630036058 -4397630081873 8334190 4397637953304 -4397629553450 4397629553449 8334193 -4397630085933 -288228178725312170 288228178725312169 -288223780699203162 -4397638416361 4397638438698 4397630081870 4397630036059 -208 7090212 4397629562538 4397630081877 -4397638274617 313 -4397637930655 4397637948328 -4397637910291 16888 -16892 4397637801471 1113738 -1113938 -288223780706293375 4397630081876 -8334503 8356840 -4397637948328 -4397637905251 4397629502612 2362664 4397638274618 -545119 -326804 97216 247 -1142317 -4397637940135 4397637785143 -4397637742130 4397637887642 722451 641324 571648 550002 -4397638270556 4397638416068 -4397638420440 -16894 -2366744 -4397629349474 4397637162129 1113940 4397638270555 4397637896733 -4397638416065 8334191 -9056641 4397629502614 -4397631726152 -8188679 8334189 2852138 -9079290 -2362664 389481844 722515 9481 16892 4397638429610 
Potential of Offsets elements: 1856.32 35.3154 29.3154 1379.32 28.3154 46.3154 28.3154 28.3154 28.3154 214.315 28.3154 28.3154 28.3154 28.3154 28.3154 28.3154 28.3154 28.3154 558.348 1446.32 28.3154 28.3154 28.3154 28.3154 28.3154 28.3154 28.3154 28.3154 28.3154 28.3154 28.3154 28.3154 28.3154 28.3154 741.315 28.3154 28.3154 28.3154 28.3154 30.3154 60.3154 28.3154 28.3154 28.3154 28.3154 28.3154 28.3154 28.3154 28.3154 28.3154 28.3154 28.3154 28.3154 28.3154 28.3154 28.3154 28.3154 28.3154 28.3154 28.3154 370.315 28.3154 28.3154 28.3154 28.3154 28.3154 28.3154 28.3154 28.3154 28.3154 28.3154 28.3154 28.3154 28.3154 28.3154 28.3154 28.3154 28.3154 28.3154 727.315 28.3154 28.3154 28.3154 38.3154 28.3154 28.3154 28.3154 416.315 134.315 48.3154 186.315 118.315 58.3154 40.3154 43.3154 64.3154 28.3154 28.3154 28.3154 28.3154 34.3154 160.315 30.3154 28.3154 28.3154 28.3154 28.3154 28.3154 28.3154 28.3154 28.3154 28.3154 28.3154 28.3154 28.3154 28.3154 28.3154 28.3154 28.3154 28.3154 28.3154 28.3154 2553.11 28.3154 28.3154 28.3154 28.3154 28.3154 28.3154 28.3154 28.3154 28.3154 28.3154 28.3154 28.3154 28.3154 28.3154 28.3154 28.3154 28.3154 28.3154 28.3154 28.3154 28.3154 28.3154 28.3154 28.3154 28.3154 28.3154 34.3154 28.3154 28.3154 28.3154 79.3154 28.3154 28.3154 28.3154 28.3154 28.3154 28.3154 36.3154 28.3154 28.3154 28.3154 28.3154 28.3154 28.3154 28.3154 28.3154 28.3154 28.3154 28.3154 28.3154 28.3154 28.3154 28.3154 28.3154 28.3154 28.3154 28.3154 34.3154 292.315 352.315 226.315 28.3154 28.3154 40.3154 28.3154 38.3154 29.3154 28.3154 28.3154 28.3154 28.3154 88.3154 28.3154 28.3154 28.3154 79.3154 48.3154 52.3154 56.3154 64.3154 67.3154 46.3154 70.3154 58.3154 53.3154 88.3154 58.3154 83.3154 127.315 84.3154 105.315 376.315 92.3154 226.315 140.315 160.315 138.315 52.3154 30.3154 39.3154 98.3154 28.3154 28.3154 28.3154 28.3154 28.3154 28.3154 28.3154 28.3154 28.3154 28.3154 28.3154 28.3154 28.3154 28.3154 28.3154 28.3154 28.3154 28.3154 28.3154 28.3154 630.315 28.3154 28.3154 28.3154 28.3154 28.3154 28.3154 28.3154 28.3154 28.3154 28.3154 29.3154 28.3154 28.3154 28.3154 28.3154 28.3154 28.3154 28.3154 28.3154 28.3154 28.3154 28.3154 28.3154 28.3154 28.3154 28.3154 28.3154 28.3154 28.3154 28.3154 28.3154 28.3154 28.3154 28.3154 28.3154 28.3154 28.3154 28.3154 67.3154 28.3154 28.3154 28.3154 28.3154 28.3154 28.3154 28.3154 28.3154 28.3154 28.3154 28.3154 28.3154 28.3154 28.3154 28.3154 28.3154 28.3154 28.3154 28.3154 80.3154 28.3154 28.3154 28.3154 28.3154 28.3154 28.3154 28.3154 28.3154 28.3154 28.3154 30.3154 28.3154 28.3154 28.3154 28.3154 28.3154 28.3154 28.3154 28.3154 28.3154 28.3154 28.3154 28.3154 30.3154 28.3154 60.3154 28.3154 28.3154 28.3154 28.3154 28.3154 28.3154 28.3154 28.3154 28.3154 28.3154 28.3154 28.3154 28.3154 28.3154 28.3154 28.3154 28.3154 28.3154 28.3154 28.3154 28.3154 28.3154 28.3154 28.3154 28.3154 28.3154 28.3154 28.3154 28.3154 34.3154 28.3154 28.3154 28.3154 28.3154 28.3154 28.3154 28.3154 28.3154 31.3154 28.3154 28.3154 28.3154 178.315 28.3154 37.3154 116.315 215.315 46.3154 38.3154 321.315 73.3154 37.3154 28.3154 28.3154 28.3154 38.3154 49.3154 55.3154 28.3154 28.3154 172.315 82.3154 84.3154 112.315 58.3154 46.3154 46.3154 52.3154 40.3154 32.3154 37.3154 55.3154 57.3154 70.3154 36.3154 28.3154 118.315 28.3154 28.3154 28.3154 28.3154 28.3154 28.3154 28.3154 44.3154 28.3154 28.3154 28.3154 28.3154 28.3154 28.3154 28.3154 580.315 28.3154 28.3154 28.3154 28.3154 28.3154 28.3154 36.3154 28.3154 28.3154 28.3154 28.3154 28.3154 28.3154 40.3154 28.3154 28.3154 28.3154 28.3154 28.3154 28.3154 28.3154 28.3154 28.3154 28.3154 28.3154 28.3154 28.3154 28.3154 28.3154 28.3154 28.3154 28.3154 28.3154 28.3154 28.3154 28.3154 28.3154 28.3154 28.3154 28.3154 28.3154 28.3154 28.3154 28.3154 28.3154 28.3154 28.3154 28.3154 28.3154 28.3154 28.3154 28.3154 28.3154 28.3154 28.3154 28.3154 28.3154 28.3154 28.3154 28.3154 28.3154 28.3154 28.3154 28.3154 28.3154 28.3154 28.3154 28.3154 28.3154 28.3154 28.3154 28.3154 28.3154 42.3154 28.3154 28.3154 28.3154 28.3154 28.3154 28.3154 34.3154 28.3154 28.3154 28.3154 28.3154 28.3154 28.3154 28.3154 28.3154 28.3154 28.3154 28.3154 28.3154 28.3154 28.3154 28.3154 28.3154 28.3154 28.3154 28.3154 28.3154 28.3154 28.3154 28.3154 28.3154 28.3154 28.3154 28.3154 28.3154 28.3154 28.3154 28.3154 28.3154 28.3154 28.3154 28.3154 28.3154 28.3154 28.3154 28.3154 28.3154 28.3154 28.3154 28.3154 28.3154 28.3154 28.3154 28.3154 28.3154 28.3154 28.3154 28.3154 28.3154 28.3154 28.3154 128.315 28.3154 28.3154 28.3154 28.3154 28.3154 28.3154 28.3154 28.3154 28.3154 28.3154 28.3154 28.3154 28.3154 28.3154 28.3154 28.3154 28.3154 28.3154 28.3154 28.3154 28.3154 28.3154 28.3154 28.3154 28.3154 28.3154 36.3154 28.3154 28.3154 28.3154 64.3154 58.3154 79.3154 33.3154 28.3154 28.3154 80.3154 37.3154 64.3154 38.3154 263.315 82.3154 82.3154 82.3154 366.315 484.315 68.3154 127.315 28.3154 109.315 88.3154 136.315 132.315 28.3154 28.3154 28.3154 40.3154 58.3154 76.3154 38.3154 111.315 267.315 235.315 28.3154 28.3154 28.3154 28.3154 28.3154 28.3154 28.3154 28.3154 28.3154 28.3154 28.3154 28.3154 28.3154 28.3154 28.3154 28.3154 28.3154 28.3154 28.3154 28.3154 28.3154 28.3154 28.3154 28.3154 28.3154 28.3154 28.3154 28.3154 28.3154 28.3154 28.3154 28.3154 28.3154 28.3154 28.3154 28.3154 28.3154 28.3154 28.3154 28.3154 28.3154 28.3154 28.3154 28.3154 28.3154 28.3154 28.3154 28.3154 28.3154 30.3154 28.3154 28.3154 28.3154 28.3154 28.3154 28.3154 28.3154 28.3154 28.3154 28.3154 28.3154 28.3154 28.3154 28.3154 28.3154 28.3154 28.3154 28.3154 28.3154 28.3154 28.3154 28.3154 28.3154 
rewards of Offsets elements: 1828 7 1 1351 0 18 0 0 0 186 0 0 0 0 0 0 0 0 542 1418 0 0 0 0 0 0 0 0 0 0 0 0 0 0 713 0 0 0 0 2 32 0 0 0 0 0 0 0 0 0 0 0 0 0 0 0 0 0 0 0 342 0 0 0 0 0 0 0 0 0 0 0 0 0 0 0 0 0 0 699 0 0 0 10 0 0 0 388 106 20 158 90 30 12 15 36 0 0 0 0 6 132 2 0 0 0 0 0 0 0 0 0 0 0 0 0 0 0 0 0 0 0 2553 0 0 0 0 0 0 0 0 0 0 0 0 0 0 0 0 0 0 0 0 0 0 0 0 0 0 6 0 0 0 51 0 0 0 0 0 0 8 0 0 0 0 0 0 0 0 0 0 0 0 0 0 0 0 0 0 0 6 264 324 198 0 0 12 0 10 1 0 0 0 0 60 0 0 0 51 20 24 28 36 39 18 42 30 25 60 30 55 99 56 77 348 64 198 112 132 110 24 2 11 70 0 0 0 0 0 0 0 0 0 0 0 0 0 0 0 0 0 0 0 0 602 0 0 0 0 0 0 0 0 0 0 1 0 0 0 0 0 0 0 0 0 0 0 0 0 0 0 0 0 0 0 0 0 0 0 0 0 0 0 39 0 0 0 0 0 0 0 0 0 0 0 0 0 0 0 0 0 0 0 52 0 0 0 0 0 0 0 0 0 0 2 0 0 0 0 0 0 0 0 0 0 0 0 2 0 32 0 0 0 0 0 0 0 0 0 0 0 0 0 0 0 0 0 0 0 0 0 0 0 0 0 0 0 0 0 6 0 0 0 0 0 0 0 0 3 0 0 0 150 0 9 88 187 18 10 293 45 9 0 0 0 10 21 27 0 0 144 54 56 84 30 18 18 24 12 4 9 27 29 42 8 0 90 0 0 0 0 0 0 0 16 0 0 0 0 0 0 0 552 0 0 0 0 0 0 8 0 0 0 0 0 0 12 0 0 0 0 0 0 0 0 0 0 0 0 0 0 0 0 0 0 0 0 0 0 0 0 0 0 0 0 0 0 0 0 0 0 0 0 0 0 0 0 0 0 0 0 0 0 0 0 0 0 0 0 0 0 0 0 0 0 0 14 0 0 0 0 0 0 6 0 0 0 0 0 0 0 0 0 0 0 0 0 0 0 0 0 0 0 0 0 0 0 0 0 0 0 0 0 0 0 0 0 0 0 0 0 0 0 0 0 0 0 0 0 0 0 0 0 0 0 0 0 0 100 0 0 0 0 0 0 0 0 0 0 0 0 0 0 0 0 0 0 0 0 0 0 0 0 0 0 8 0 0 0 36 30 51 5 0 0 52 9 36 10 235 54 54 54 338 456 40 99 0 81 60 108 104 0 0 0 12 30 48 10 83 239 207 0 0 0 0 0 0 0 0 0 0 0 0 0 0 0 0 0 0 0 0 0 0 0 0 0 0 0 0 0 0 0 0 0 0 0 0 0 0 0 0 0 0 0 0 0 0 0 0 0 2 0 0 0 0 0 0 0 0 0 0 0 0 0 0 0 0 0 0 0 0 0 0 0 Printing Sanity3
offset_index value695
offset list size695
reward size695
potential size695
-----------------------------------------------------------------------------------------------------------------------------------------------------------------------------------------------------

DRAM Statistics
 CHANNEL 0
 RQ ROW_BUFFER_HIT:      60079  ROW_BUFFER_MISS:     292388
 DBUS_CONGESTED:        159
 WQ ROW_BUFFER_HIT:      27133  ROW_BUFFER_MISS:     202481  FULL:          0

 AVG_CONGESTED_CYCLE: 4
 All warmup complete: 2
Channel 0 Bank busy for read cycles: 0
Channel 0 Bank busy for write cycles: 0
Channel 0
Rank 0
0banks busy for read cycles: 433028624
0banks busy for write cycles: 131493
1banks busy for read cycles: 28621588
1banks busy for write cycles: 17999730
2banks busy for read cycles: 6005216
2banks busy for write cycles: 4061769
3banks busy for read cycles: 848800
3banks busy for write cycles: 1345973
4banks busy for read cycles: 491842
4banks busy for write cycles: 736486
5banks busy for read cycles: 133145
5banks busy for write cycles: 457486
6banks busy for read cycles: 74230
6banks busy for write cycles: 311008
7banks busy for read cycles: 34739
7banks busy for write cycles: 230882
8banks busy for read cycles: 46903
8banks busy for write cycles: 245326

CPU 0 Branch Prediction Accuracy: 99.7599% MPKI: 0.43378 Average ROB Occupancy at Mispredict: 30.6966
Branch types
NOT_BRANCH: 163865548 81.9328%
BRANCH_DIRECT_JUMP: 1802124 0.901062%
BRANCH_INDIRECT: 9657292 4.82865%
BRANCH_CONDITIONAL: 18071068 9.03553%
BRANCH_DIRECT_CALL: 2593020 1.29651%
BRANCH_INDIRECT_CALL: 705122 0.352561%
BRANCH_RETURN: 3305869 1.65293%
BRANCH_OTHER: 0 0%

DRAM PAGES: 1048576
Allocated PAGES: 6553
