
*** ChampSim Multicore Out-of-Order Simulator ***

Warmup Instructions: 50000000
Simulation Instructions: 200000000
Number of CPUs: 1
LLC sets: 2048
LLC ways: 16
Off-chip DRAM Size: 4096 MB Channels: 1 Width: 64-bit Data Rate: 6400 MT/s
CPU 0 runs traces/spec2k17/server_003.champsimtrace.xz
.xz
BTB has LRU replacement policy
ITLB has LRU replacement policy
DTLB has LRU replacement policy
STLB has LRU replacement policy
L1I has LRU replacement policy
L1D has LRU replacement policy
Initialize SRRIP state for L2C
Initialize DRRIP state for LLC
Offsets elements: 
Potential of Offsets elements: 
rewards of Offsets elements: 
Printing Sanity1
offset list size735
Offsets elements: 
Potential of Offsets elements: 
rewards of Offsets elements: 1620 1288 0 0 2 62 9 28 124 36 36 30 24 48 102 8 0 0 0 0 0 0 0 0 0 0 0 0 0 0 0 0 0 0 0 0 2 30 0 503 0 0 0 28 2 0 0 0 0 0 0 0 0 0 0 0 0 0 0 525 936 0 0 0 0 0 0 0 0 0 0 0 0 0 0 0 0 0 0 18 0 0 0 0 0 0 0 0 0 0 0 0 0 0 0 0 0 0 0 0 0 0 0 0 0 0 0 0 0 0 0 0 0 0 0 0 0 0 0 60 0 0 0 0 255 6 27 45 61 6 18 9 1 345 0 0 58 48 114 114 215 1015 51 152 498 64 45 264 312 168 118 121 121 100 28 34 143 0 0 0 0 0 0 0 0 0 0 0 0 0 0 0 0 0 0 0 0 0 0 0 0 0 0 0 0 0 0 0 0 0 0 0 0 0 0 3 0 0 34 0 0 0 0 0 0 0 0 0 0 0 0 52 578 99 204 216 132 136 123 30 22 2 42 275 144 81 56 0 0 0 0 0 4 0 0 0 0 0 0 0 0 0 0 0 0 0 0 0 0 0 0 0 147 0 0 0 33 6 0 0 0 0 0 0 0 0 0 0 0 0 0 0 0 0 0 0 0 0 0 0 0 0 0 0 0 0 0 0 0 0 247 0 0 0 0 0 0 0 0 0 0 0 0 0 0 0 0 0 0 0 0 0 0 0 0 0 0 0 0 0 0 0 0 0 0 0 0 0 0 0 0 0 0 0 0 0 0 0 0 0 0 0 0 0 0 0 0 105 7 0 72 6 9 9 62 42 70 20 0 0 0 224 26 45 42 129 146 18 119 0 0 255 96 75 82 8 48 0 0 0 0 0 0 0 0 0 0 0 0 0 0 0 0 0 0 0 0 0 0 0 0 20 36 0 54 0 320 90 20 95 4 48 6 18 24 84 10 0 0 0 0 0 0 0 0 0 0 0 0 0 0 0 0 0 0 0 0 0 0 0 0 2 0 0 0 0 0 0 0 0 0 0 0 0 0 0 0 0 0 0 0 0 0 0 0 0 0 0 0 0 0 0 0 0 0 0 0 0 0 0 0 0 0 0 0 0 2 0 0 0 0 0 0 0 0 0 0 0 0 5 1 0 0 0 0 36 56 56 12 0 10 0 85 0 0 0 0 0 0 42 0 0 0 0 0 0 0 0 0 0 0 0 0 0 0 0 0 0 0 0 0 0 0 0 0 0 0 0 0 0 0 0 0 0 0 0 0 0 0 0 0 0 4 0 0 0 0 0 0 0 0 37 0 0 0 6 0 0 0 0 0 0 0 0 0 0 0 0 0 0 0 0 0 0 0 0 0 0 0 0 0 0 0 0 0 0 1 0 0 0 0 0 0 0 0 0 0 0 0 0 0 0 0 0 0 0 0 0 0 0 0 0 0 0 0 0 0 78 6 0 0 0 0 0 0 0 0 0 0 9 0 0 0 0 0 0 0 0 0 0 0 0 0 0 0 0 0 0 0 0 0 0 0 0 0 0 0 0 0 0 0 1 0 0 0 0 0 0 0 152 0 0 0 0 0 0 0 0 0 0 0 0 0 0 0 0 0 140 0 0 0 0 0 0 0 0 0 0 0 0 0 20 0 0 45 198 120 18 100 240 0 0 0 3 44 
Printing Sanity2
Heartbeat CPU 0 instructions: 10000001 cycles: 2803869 heartbeat IPC: 3.5665 cumulative IPC: 3.5665 (Simulation time: 0 hr 0 min 21 sec) 
Heartbeat CPU 0 instructions: 20000000 cycles: 5638764 heartbeat IPC: 3.52747 cumulative IPC: 3.54688 (Simulation time: 0 hr 0 min 43 sec) 
Heartbeat CPU 0 instructions: 30000000 cycles: 8451688 heartbeat IPC: 3.55502 cumulative IPC: 3.54959 (Simulation time: 0 hr 1 min 4 sec) 
Heartbeat CPU 0 instructions: 40000001 cycles: 11285707 heartbeat IPC: 3.52856 cumulative IPC: 3.54431 (Simulation time: 0 hr 1 min 27 sec) 
Heartbeat CPU 0 instructions: 50000002 cycles: 14234194 heartbeat IPC: 3.39157 cumulative IPC: 3.51267 (Simulation time: 0 hr 1 min 54 sec) 

Warmup complete CPU 0 instructions: 50000002 cycles: 14234194 (Simulation time: 0 hr 1 min 54 sec) 

Heartbeat CPU 0 instructions: 60000000 cycles: 44692450 heartbeat IPC: 0.328318 cumulative IPC: 0.328318 (Simulation time: 0 hr 2 min 31 sec) 
Heartbeat CPU 0 instructions: 70000001 cycles: 70655515 heartbeat IPC: 0.385163 cumulative IPC: 0.354476 (Simulation time: 0 hr 3 min 6 sec) 
Heartbeat CPU 0 instructions: 80000003 cycles: 99204908 heartbeat IPC: 0.35027 cumulative IPC: 0.353063 (Simulation time: 0 hr 3 min 42 sec) 
Heartbeat CPU 0 instructions: 90000000 cycles: 126944365 heartbeat IPC: 0.360497 cumulative IPC: 0.354893 (Simulation time: 0 hr 4 min 17 sec) 
Heartbeat CPU 0 instructions: 100000000 cycles: 154874036 heartbeat IPC: 0.358042 cumulative IPC: 0.355518 (Simulation time: 0 hr 4 min 52 sec) 
*** Reached end of trace for Core: 0 Repeating trace: traces/spec2k17/server_003.champsimtrace.xz
Heartbeat CPU 0 instructions: 110000000 cycles: 180639080 heartbeat IPC: 0.388123 cumulative IPC: 0.360566 (Simulation time: 0 hr 5 min 26 sec) 
Heartbeat CPU 0 instructions: 120000002 cycles: 210490584 heartbeat IPC: 0.334992 cumulative IPC: 0.356676 (Simulation time: 0 hr 6 min 1 sec) 
Heartbeat CPU 0 instructions: 130000001 cycles: 235422977 heartbeat IPC: 0.401085 cumulative IPC: 0.361682 (Simulation time: 0 hr 6 min 34 sec) 
Heartbeat CPU 0 instructions: 140000000 cycles: 262248147 heartbeat IPC: 0.372784 cumulative IPC: 0.362883 (Simulation time: 0 hr 7 min 9 sec) 
Heartbeat CPU 0 instructions: 150000002 cycles: 289429489 heartbeat IPC: 0.3679 cumulative IPC: 0.363378 (Simulation time: 0 hr 7 min 45 sec) 
Heartbeat CPU 0 instructions: 160000001 cycles: 319553744 heartbeat IPC: 0.331958 cumulative IPC: 0.360278 (Simulation time: 0 hr 8 min 22 sec) 
Heartbeat CPU 0 instructions: 170000001 cycles: 345154300 heartbeat IPC: 0.390617 cumulative IPC: 0.362625 (Simulation time: 0 hr 8 min 57 sec) 
Heartbeat CPU 0 instructions: 180000000 cycles: 374091965 heartbeat IPC: 0.34557 cumulative IPC: 0.361254 (Simulation time: 0 hr 9 min 33 sec) 
Heartbeat CPU 0 instructions: 190000002 cycles: 401605373 heartbeat IPC: 0.363459 cumulative IPC: 0.36141 (Simulation time: 0 hr 10 min 8 sec) 
Heartbeat CPU 0 instructions: 200000003 cycles: 429426135 heartbeat IPC: 0.359444 cumulative IPC: 0.361279 (Simulation time: 0 hr 10 min 43 sec) 
*** Reached end of trace for Core: 0 Repeating trace: traces/spec2k17/server_003.champsimtrace.xz
Heartbeat CPU 0 instructions: 210000003 cycles: 455639925 heartbeat IPC: 0.381479 cumulative IPC: 0.362478 (Simulation time: 0 hr 11 min 17 sec) 
Heartbeat CPU 0 instructions: 220000000 cycles: 483032843 heartbeat IPC: 0.365058 cumulative IPC: 0.362629 (Simulation time: 0 hr 11 min 51 sec) 
Heartbeat CPU 0 instructions: 230000001 cycles: 510378340 heartbeat IPC: 0.365691 cumulative IPC: 0.362798 (Simulation time: 0 hr 12 min 25 sec) 
Heartbeat CPU 0 instructions: 240000002 cycles: 535178425 heartbeat IPC: 0.403224 cumulative IPC: 0.364722 (Simulation time: 0 hr 12 min 58 sec) 
Heartbeat CPU 0 instructions: 250000002 cycles: 564274197 heartbeat IPC: 0.343693 cumulative IPC: 0.36361 (Simulation time: 0 hr 13 min 35 sec) 
Finished CPU 0 instructions: 200000000 cycles: 550040003 cumulative IPC: 0.36361 (Simulation time: 0 hr 13 min 35 sec) 

ChampSim completed all CPUs

Region of Interest Statistics

CPU 0 cumulative IPC: 0.36361 instructions: 200000000 cycles: 550040003
ITLB TOTAL     ACCESS:   33484218  HIT:   32859245  MISS:     624973  HIT %:    98.1335  MISS %:    1.86647   MPKI: 3.12486
ITLB LOAD TRANSLATION ACCESS:   33484218  HIT:   32859245  MISS:     624973  HIT %:    98.1335  MISS %:    1.86647   MPKI: 3.12486
ITLB PREFETCH  REQUESTED:          0  ISSUED:          0  USEFUL:          0  USELESS:          0
ITLB USEFUL LOAD PREFETCHES:          0 PREFETCH ISSUED TO LOWER LEVEL:          0  ACCURACY: -nan
ITLB TIMELY PREFETCHES:          0 LATE PREFETCHES: 0 DROPPED PREFETCHES: 0
ITLB PREFETCHES SAME FILL-ORIGIN LEVEL: 0 DIFFERENT FILL-ORIGIN LEVEL: 0
ITLB AVERAGE MISS LATENCY: 16.168 cycles
ITLB RQ	ACCESS:   39703792	FORWARD:          0	MERGED:    6067010	TO_CACHE:   33636782

DTLB TOTAL     ACCESS:   41798572  HIT:   39933424  MISS:    1865148  HIT %:    95.5378  MISS %:    4.46223   MPKI: 9.32574
DTLB LOAD TRANSLATION ACCESS:   41798572  HIT:   39933424  MISS:    1865148  HIT %:    95.5378  MISS %:    4.46223   MPKI: 9.32574
DTLB PREFETCH  REQUESTED:          0  ISSUED:          0  USEFUL:          0  USELESS:          0
DTLB USEFUL LOAD PREFETCHES:          0 PREFETCH ISSUED TO LOWER LEVEL:          0  ACCURACY: -nan
DTLB TIMELY PREFETCHES:          0 LATE PREFETCHES: 0 DROPPED PREFETCHES: 0
DTLB PREFETCHES SAME FILL-ORIGIN LEVEL: 0 DIFFERENT FILL-ORIGIN LEVEL: 0
DTLB AVERAGE MISS LATENCY: 15.0538 cycles
DTLB RQ	ACCESS:   52558675	FORWARD:          0	MERGED:   10651572	TO_CACHE:   41907103

STLB TOTAL     ACCESS:   29234537  HIT:   28903666  MISS:     330871  HIT %:    98.8682  MISS %:    1.13178   MPKI: 1.65436
STLB LOAD TRANSLATION ACCESS:    2490121  HIT:    2161422  MISS:     328699  HIT %:    86.7999  MISS %:    13.2001   MPKI: 1.64349
STLB TRANSLATION FROM L1D PREFETCHER ACCESS:   26744416  HIT:   26742244  MISS:       2172  HIT %:    99.9919  MISS %: 0.00812132   MPKI: 0.01086
STLB PREFETCH  REQUESTED:          0  ISSUED:          0  USEFUL:       1812  USELESS:        360
STLB USEFUL LOAD PREFETCHES:       1812 PREFETCH ISSUED TO LOWER LEVEL:          0  ACCURACY: inf
STLB TIMELY PREFETCHES:       1812 LATE PREFETCHES: 6 DROPPED PREFETCHES: 971783
STLB PREFETCHES SAME FILL-ORIGIN LEVEL: 0 DIFFERENT FILL-ORIGIN LEVEL: 0
STLB AVERAGE MISS LATENCY: 47.7183 cycles
STLB RQ	ACCESS:   34467791	FORWARD:          0	MERGED:    4261200	TO_CACHE:   30206591

STLB Hit, L1D data hit: 0
STLB Hit, L2C data hit: 0
STLB Hit, LLC data hit: 0
STLB Hit, LLC data miss: 0
STLB STLB hints to L2: 0
L1D TOTAL     ACCESS:   82494286  HIT:   78089279  MISS:    4405007  HIT %:    94.6602  MISS %:    5.33977   MPKI: 22.025
L1D LOAD      ACCESS:   33203585  HIT:   30946263  MISS:    2257322  HIT %:    93.2016  MISS %:    6.79843   MPKI: 11.2866
L1D RFO       ACCESS:   18566949  HIT:   18117464  MISS:     449485  HIT %:    97.5791  MISS %:    2.42089   MPKI: 2.24742
L1D PREFETCH  ACCESS:   30723752  HIT:   29025552  MISS:    1698200  HIT %:    94.4727  MISS %:    5.52732   MPKI: 8.491
AGUS PREFETCH L1 MISS: 0
L1D PREFETCH  REQUESTED:   65350575  ISSUED:   65348906  USEFUL:     362698  USELESS:    1335567
L1D USEFUL LOAD PREFETCHES:     362698 PREFETCH ISSUED TO LOWER LEVEL:    1715744  ACCURACY: 21.1394
L1D TIMELY PREFETCHES:     362698 LATE PREFETCHES: 16709 DROPPED PREFETCHES: 971782
L1D PREFETCHES SAME FILL-ORIGIN LEVEL: 1715744 DIFFERENT FILL-ORIGIN LEVEL: 0
L1D AVERAGE MISS LATENCY: 1.14738e+06 cycles
L1D RQ	ACCESS:   48969162	FORWARD:          0	MERGED:   15368841	TO_CACHE:   33372907
L1D WQ	ACCESS:   19494845	FORWARD:     261755	MERGED:     309077	TO_CACHE:   19185768
L1D PQ	ACCESS:   33371236	FORWARD:          0	MERGED:    1359225	TO_CACHE:   31977670

L1D UNIQUE REGIONS ACCESSED: 0
L1D REGIONS CONFLICTS: 0
L1D Cross Page Prefetch Requests: 1820776
L1D Same Page Prefetch Requests: 38754278
L1D ROI Sum of L1D PQ occupancy: 470326880
L1D PREFETCHES PUSHED FROM L2C: 0
L1I TOTAL     ACCESS:   38643049  HIT:   34801724  MISS:    3841325  HIT %:    90.0595  MISS %:    9.94053   MPKI: 19.2066
L1I LOAD      ACCESS:   38643049  HIT:   34801724  MISS:    3841325  HIT %:    90.0595  MISS %:    9.94053   MPKI: 19.2066
L1I PREFETCH  REQUESTED:          0  ISSUED:          0  USEFUL:          0  USELESS:          0
L1I USEFUL LOAD PREFETCHES:          0 PREFETCH ISSUED TO LOWER LEVEL:          0  ACCURACY: -nan
L1I TIMELY PREFETCHES:          0 LATE PREFETCHES: 0 DROPPED PREFETCHES: 0
L1I PREFETCHES SAME FILL-ORIGIN LEVEL: 0 DIFFERENT FILL-ORIGIN LEVEL: 0
L1I AVERAGE MISS LATENCY: 33.9008 cycles
L1I RQ	ACCESS:   59620301	FORWARD:          0	MERGED:   19916509	TO_CACHE:   39703792

BTB TOTAL     ACCESS:   28423782  HIT:   23262114  MISS:    5161668  HIT %:    81.8403  MISS %:    18.1597   MPKI: 25.8083
BTB BRANCH_DIRECT_JUMP	ACCESS:    1949370  HIT:    1719105  MISS:     230265
BTB BRANCH_INDIRECT	ACCESS:   10330683  HIT:    8220220  MISS:    2110463
BTB BRANCH_CONDITIONAL	ACCESS:    8250334  HIT:    7882121  MISS:     368213
BTB BRANCH_DIRECT_CALL	ACCESS:    2536633  HIT:    2099013  MISS:     437620
BTB BRANCH_INDIRECT_CALL	ACCESS:    1403932  HIT:     934159  MISS:     469773
BTB BRANCH_RETURN	ACCESS:    3952830  HIT:    2407496  MISS:    1545334
BTB BRANCH_OTHER ACCESS:          0  HIT:          0  MISS:          0

L2C TOTAL     ACCESS:   11346692  HIT:    7499125  MISS:    3847567  HIT %:    66.0908  MISS %:    33.9092   MPKI: 19.2378
L2C LOAD      ACCESS:    6081783  HIT:    3409118  MISS:    2672665  HIT %:    56.0546  MISS %:    43.9454   MPKI: 13.3633
L2C DATA LOAD MPKI: 4.78572
L2C INSTRUCTION LOAD MPKI: 8.57761
L2C RFO       ACCESS:     448636  HIT:     175023  MISS:     273613  HIT %:    39.0123  MISS %:    60.9877   MPKI: 1.36807
L2C PREFETCH  ACCESS:    1715641  HIT:    1017481  MISS:     698160  HIT %:    59.3062  MISS %:    40.6938   MPKI: 3.4908
AGUS PREFETCH L1 MISS: 0
L2C DATA PREFETCH MPKI: 3.4908
L2C INSTRUCTION PREFETCH MPKI: 0
L2C WRITEBACK ACCESS:    1074187  HIT:    1041278  MISS:      32909  HIT %:    96.9364  MISS %:    3.06362   MPKI: 0.164545
L2C LOAD TRANSLATION ACCESS:     410146  HIT:     244366  MISS:     165780  HIT %:    59.5802  MISS %:    40.4198   MPKI: 0.8289
L2C TRANSLATION FROM L1D PREFETCHER ACCESS:    1616299  HIT:    1611859  MISS:       4440  HIT %:    99.7253  MISS %:   0.274702   MPKI: 0.0222
L2C PREFETCH  REQUESTED:          0  ISSUED:          0  USEFUL:      43223  USELESS:     659444
L2C USEFUL LOAD PREFETCHES:      43223 PREFETCH ISSUED TO LOWER LEVEL:     698160  ACCURACY: 6.19099
L2C TIMELY PREFETCHES:      43223 LATE PREFETCHES: 0 DROPPED PREFETCHES: 0
L2C PREFETCHES SAME FILL-ORIGIN LEVEL: 0 DIFFERENT FILL-ORIGIN LEVEL: 0
L2C AVERAGE MISS LATENCY: 59.4412 cycles
L2C RQ	ACCESS:    8557034	FORWARD:          0	MERGED:          0	TO_CACHE:    8556865
L2C WQ	ACCESS:    1074187	FORWARD:        272	MERGED:          0	TO_CACHE:    1074187
L2C PQ	ACCESS:    1715744	FORWARD:          0	MERGED:          0	TO_CACHE:    1715641

L2C Instructions Evicting Data 842143
L2C Translations Evicting Data 85408
L2C Data Evicting Data 1016746
L2C Instructions Evicting Instructions 795992
L2C Translations Evicting Instructions 77086
L2C Data Evicting Instructions 828587
L2C Instructions Evicting Translations 77386
L2C Translations Evicting Translations 7726
L2C Data Evicting Translations 83584
L2C Dense regions hint from L2: 0
PSCL5 TOTAL     ACCESS:    1302653  HIT:    1302653  MISS:          0  HIT %:        100  MISS %:          0   MPKI: 0
PSCL5 LOAD TRANSLATION ACCESS:     328693  HIT:     328693  MISS:          0  HIT %:        100  MISS %:          0   MPKI: 0
PSCL5 TRANSLATION FROM L1D PREFETCHER ACCESS:     973960  HIT:     973960  MISS:          0  HIT %:        100  MISS %:          0   MPKI: 0
PSCL5 PREFETCH  REQUESTED:          0  ISSUED:          0  USEFUL:          0  USELESS:          0
PSCL5 USEFUL LOAD PREFETCHES:          0 PREFETCH ISSUED TO LOWER LEVEL:          0  ACCURACY: -nan
PSCL5 TIMELY PREFETCHES:          0 LATE PREFETCHES: 0 DROPPED PREFETCHES: 0
PSCL5 PREFETCHES SAME FILL-ORIGIN LEVEL: 0 DIFFERENT FILL-ORIGIN LEVEL: 0

PSCL4 TOTAL     ACCESS:    1221357  HIT:    1220577  MISS:        780  HIT %:    99.9361  MISS %:  0.0638634   MPKI: 0.0039
PSCL4 LOAD TRANSLATION ACCESS:     318433  HIT:     317653  MISS:        780  HIT %:    99.7551  MISS %:   0.244949   MPKI: 0.0039
PSCL4 TRANSLATION FROM L1D PREFETCHER ACCESS:     902924  HIT:     902924  MISS:          0  HIT %:        100  MISS %:          0   MPKI: 0
PSCL4 PREFETCH  REQUESTED:          0  ISSUED:          0  USEFUL:          0  USELESS:          0
PSCL4 USEFUL LOAD PREFETCHES:          0 PREFETCH ISSUED TO LOWER LEVEL:          0  ACCURACY: -nan
PSCL4 TIMELY PREFETCHES:          0 LATE PREFETCHES: 0 DROPPED PREFETCHES: 0
PSCL4 PREFETCHES SAME FILL-ORIGIN LEVEL: 0 DIFFERENT FILL-ORIGIN LEVEL: 0

PSCL3 TOTAL     ACCESS:    1297288  HIT:    1295086  MISS:       2202  HIT %:    99.8303  MISS %:   0.169739   MPKI: 0.01101
PSCL3 LOAD TRANSLATION ACCESS:     326830  HIT:     324628  MISS:       2202  HIT %:    99.3263  MISS %:   0.673745   MPKI: 0.01101
PSCL3 TRANSLATION FROM L1D PREFETCHER ACCESS:     970458  HIT:     970458  MISS:          0  HIT %:        100  MISS %:          0   MPKI: 0
PSCL3 PREFETCH  REQUESTED:          0  ISSUED:          0  USEFUL:          0  USELESS:          0
PSCL3 USEFUL LOAD PREFETCHES:          0 PREFETCH ISSUED TO LOWER LEVEL:          0  ACCURACY: -nan
PSCL3 TIMELY PREFETCHES:          0 LATE PREFETCHES: 0 DROPPED PREFETCHES: 0
PSCL3 PREFETCHES SAME FILL-ORIGIN LEVEL: 0 DIFFERENT FILL-ORIGIN LEVEL: 0

PSCL2 TOTAL     ACCESS:     662307  HIT:     583607  MISS:      78700  HIT %:    88.1173  MISS %:    11.8827   MPKI: 0.3935
PSCL2 LOAD TRANSLATION ACCESS:     328897  HIT:     250197  MISS:      78700  HIT %:    76.0715  MISS %:    23.9285   MPKI: 0.3935
PSCL2 TRANSLATION FROM L1D PREFETCHER ACCESS:     333410  HIT:     333410  MISS:          0  HIT %:        100  MISS %:          0   MPKI: 0
PSCL2 PREFETCH  REQUESTED:          0  ISSUED:          0  USEFUL:          0  USELESS:          0
PSCL2 USEFUL LOAD PREFETCHES:          0 PREFETCH ISSUED TO LOWER LEVEL:          0  ACCURACY: -nan
PSCL2 TIMELY PREFETCHES:          0 LATE PREFETCHES: 0 DROPPED PREFETCHES: 0
PSCL2 PREFETCHES SAME FILL-ORIGIN LEVEL: 0 DIFFERENT FILL-ORIGIN LEVEL: 0

LLC TOTAL     ACCESS:    4362479  HIT:    3649650  MISS:     712829  HIT %:      83.66  MISS %:      16.34   MPKI: 3.56414
LLC LOAD      ACCESS:    2672664  HIT:    2283017  MISS:     389647  HIT %:     85.421  MISS %:     14.579   MPKI: 1.94823
LLC RFO       ACCESS:     273610  HIT:      98149  MISS:     175461  HIT %:    35.8719  MISS %:    64.1281   MPKI: 0.877305
LLC PREFETCH  ACCESS:     698160  HIT:     588776  MISS:     109384  HIT %:    84.3325  MISS %:    15.6675   MPKI: 0.54692
AGUS PREFETCH L1 MISS: 0
LLC WRITEBACK ACCESS:     547825  HIT:     525807  MISS:      22018  HIT %:    95.9808  MISS %:    4.01917   MPKI: 0.11009
LLC LOAD TRANSLATION ACCESS:     165780  HIT:     150132  MISS:      15648  HIT %:     90.561  MISS %:    9.43902   MPKI: 0.07824
LLC TRANSLATION FROM L1D PREFETCHER ACCESS:       4440  HIT:       3769  MISS:        671  HIT %:    84.8874  MISS %:    15.1126   MPKI: 0.003355
LLC PREFETCH  REQUESTED:          0  ISSUED:          0  USEFUL:      10313  USELESS:      98788
LLC USEFUL LOAD PREFETCHES:      10313 PREFETCH ISSUED TO LOWER LEVEL:     109384  ACCURACY: 9.42825
LLC TIMELY PREFETCHES:      10313 LATE PREFETCHES: 0 DROPPED PREFETCHES: 0
LLC PREFETCHES SAME FILL-ORIGIN LEVEL: 0 DIFFERENT FILL-ORIGIN LEVEL: 0
LLC AVERAGE MISS LATENCY: 160.164 cycles
LLC RQ	ACCESS:    3116499	FORWARD:          0	MERGED:          0	TO_CACHE:    3116495
LLC WQ	ACCESS:     547825	FORWARD:          4	MERGED:          0	TO_CACHE:     547825
LLC PQ	ACCESS:     698160	FORWARD:          0	MERGED:          0	TO_CACHE:     698160

LLC Dense regions hint to LLC: 0

RAW hits: 2647815
Loads Generated: 51616979
Loads sent to L1D: 48969162
Stores Generated: 19494838
Stores sent to L1D: 19494845
Major fault: 0 Minor fault: 8068
Allocated PAGES: 8068
ucb ended
-----------------------------------------------------------------------------------------------------------------------------------------------------------------------------------------------------
Offsets elements: 1 -1 -4398018051949 4398018051951 244172 10 8911378 -8911381 -244178 8056865 -4397636645901 4397628589036 -4397628922686 -192501 9920 97220 -107144 9924 -9924 4397629115191 -4397629105267 4397629105265 -4397629115191 4397629115193 -4397628604996 -510197 -4397629105269 475456 4397628629813 9310329 -9310327 -4397629119290 4397638274625 -4397638270536 4397638416048 17674 4977 -22337 -9301161 2 489476 60335 4397637879806 -154992 145511 312 22337 -4976 -9318522 9155336 -4397629119293 4397629363465 -4397628722122 4397628477947 -4397628535959 4397628535961 -4397629119292 4397629119291 -4397628587003 6 -4 -532289 -3253058 4397632372347 9310327 -4398027362207 4398018051881 4397629119292 -4397628586822 4397628830995 -4397629363464 14203 -14204 4089 528199 4397628587001 4397629119290 -4397629115201 4397638270536 17673 -17361 -9323501 -4397629119287 641342 -58012 -3836388 3267076 9925 475455 -475455 -9923 510196 4397628604996 244176 7812687 -333650 -182581 97221 -107141 4397629359365 7467014 -7467017 -4397629349441 35835 -35835 4397629890781 -4397629890782 4397633074302 5332144 -9301111 288223780708398134 -2200619250622 2200619250622 4084 -574296 570458 -566774 -21397 563866 3 24304 -24648 24400 255 -3 -288228178726450409 4398018052021 244102 -244175 244185 -244184 9155561 -8911388 7 -8056866 -4397628589036 4397629115187 -4397629008046 -97221 -500272 4397629105266 -2 -4397628629811 -4397629115193 4397629105269 -9310326 -4397638416047 17361 4976 -4977 4397628629812 -9481 -145511 145512 -4397637887935 4397637887934 -17360 -9323498 4397632372348 532288 -4397628586821 -532469 -388932590 4398018051880 -4397629105087 4397629105087 9310326 -4397638429618 244173 -4397628831177 -532288 532293 -528201 4397629115202 4397629115201 9300846 -145512 145824 -9318524 4397628849172 -516231 182581 -85360 4397636826379 -7467014 4397629890782 -4397629890781 4397629105267 -4397629069432 -35836 -3968967 9301111 288223780699097023 570212 3684 -343 24649 -249 -73 8056868 -7812694 8911381 -9155560 -4397628922685 4397628922686 -419010 -9920 9921 -4397629105265 500271 -24817 -485380 4397629105271 9155334 -4397638274625 4397638420136 -4397638416048 4397638433721 -4397637948334 4397637930973 -9323497 -4397628569478 4397628569477 9300849 168161 -22650 17360 4397629363466 -4397629363465 641343 4397638415414 532287 4 -528205 4397638416047 -569311 -3267077 -9925 485379 -485379 -4397628833214 4397636645901 -4397637162132 107141 4397636719238 35836 4397633038466 24646 -24308 -288228178726426095 288228178726426095 24310 -254 -288223780708398134 9155563 -9155562 -244179 333650 500272 -500271 -4397628629813 4397628629811 -4397638429617 -4089 22650 -4397629119288 4397638429617 -4397637785149 4397637930660 -4397637870261 4397637870574 -312 -9318521 9323498 -168161 388946793 -244174 -163185 4397638416361 -4397638438697 4397629115196 4397636816458 -6925676 -24060 24315 -288223780708398388 4398018051950 244174 7812694 -7812684 -10 475454 9318522 -9318520 -4397637930661 4397637948334 -4397637892975 9155337 4397629119293 -4398018051880 532469 -518266 4397638405933 -4397638420138 -4397638274626 4397638420450 -4397637910499 -9318525 -4397629115192 4397629359368 4397629349445 516230 4397636633878 -9921 -61384 -24649 339 4398018296123 9155560 -9155559 9155335 -4397638437809 9301159 4397629115199 60399 4397637879742 4397628477949 -4397628535960 4397637846287 -4397629119291 3785344 -532290 -4397637887668 4397637887667 -7812690 526154 4397636300228 -4397629708202 -182579 -510193 570459 -566775 566778 -587925 588176 -24311 24312 -24312 24309 -24653 24652 -4398018296123 4398027207511 -8911378 -244172 8056866 -7812687 9300845 163185 -4398018296054 4398018296054 -244176 -4397629105088 -4397638429619 -109055 4397628586997 -4397629115202 579242 4397628535960 -3785527 3257146 -4397629349445 4397637162132 -4397637172055 485380 -4397636633878 4397629166864 -4397628849172 4397628849169 4397629793562 -3834 -570461 -24314 24308 -24651 24399 252 24654 244179 -8056865 4397629008046 -510196 4397637940142 -4397629115196 4397638270530 4397638420449 -9323496 4397637940141 -4397637879742 4397637724750 4398018051878 -4397629105085 51037 -50861 4088 -3257146 9923 516231 317692 4397629252224 7467017 -4397636816458 588175 -24309 -24652 253 -4397629115195 4397638425521 -4397638425521 4397638260604 514292 4397637905845 4397638438697 -9056673 9056985 -4398018051881 388932588 14204 627139 -4397637897330 4397628587002 583331 -583330 4397628586821 -3785347 3257145 -4088 4397632372343 500273 15958 541341 -74 288223780708398208 24307 -475456 4397629115192 -4397628604999 4397638437810 -17673 -4397638433721 4397638416360 -9300849 9301158 -4397638442788 -389515920 4397629105088 -9066153 -627323 569311 -579234 -3257154 3257153 8911388 -4397628589037 -182580 -485376 -4397629008048 -97219 -4397628477949 -641343 -389464879 385679532 4397629349261 4397629119285 -4397628477943 569310 -3257153 3257152 24648 -4398018051948 -8056868 9155562 -4397637744595 4397628589035 -4397629115189 4397637760333 -4397638420136 4397638420137 -4397638433720 -4397629363466 -4397632372349 3253056 388932590 288223780704429167 -288223780699097023 288221580089147512 8056796 -8056869 244175 -244181 -4397638078245 4397629008047 -4397629115188 4397629115189 4397638425522 -4397638420137 9480 -4397637887999 4397637870638 3894399 7711193 -4397636830485 -4397637788275 4397638274626 4397637888156 -4397628586820 4397632372346 -4397632372346 134236168 9 -134236187 3253055 -4397632616521 -385679471 4398017945841 -4397632266370 3742936 342355 -4085291 4085292 4397628531224 7459631 -4397640076143 4076879 -4076881 4084868 -4071998 4064012 7986 423 4397628287051 -4397628287051 4397628531223 -4397628539632 4397637450799 -4397638274627 4397638420138 -4397641673190 4397641690863 -4397637605997 4397637588637 -4397632616511 4397640076142 -4397636823091 7844354 -4397636566476 58012 -93454 4397628629411 9310330 -4398027362145 385679471 4397636340703 -7711295 -4397632372344 4398018051814 7703802 -4397636333210 4397628629408 4397632372345 -4397640076147 244177 -244177 4397632616521 -4397628833215 4397628589033 4397641682674 4397638429618 130398354 -130398358 4397637887847 -4397637811979 -75689 4397637910317 -3267076 3267074 4397628922687 378235 -4397629115190 9323497 641344 -3836386 -9300852 9155340 -4397638437812 -3267075 4397628922685 -4397629105268 4397629105268 485376 510197 4397628604998 4397638433720 -4397637930660 -9301160 4397637892975 22649 163184 -17674 313 24647 -288228178726450404 288228178726450155 -288223780700341593 288223780700341592 -4397629166857 4397629166867 419010 -500273 9481 -4397637724750 4397637870262 -7711190 -24307 -288228178726450155 4397628604995 -4397629105266 4397637930661 -4397637870638 180 -4397638415414 4397637888160 -4397638416361 4397638438698 -4397636979551 -24647 -288223780708398461 71 -72 4397632372344 4397638260422 -532294 4397637887980 4397629708202 588172 -24306 -252 -24654 -288223780708373808 73 -4397637724814 4397637870325 -583331 -3253056 3785342 532294 528380 4397637742156 -4084 -570212 570462 3835 -3829 -255 254 -570466 -24310 24311 -4397629349261 -14205 -4397628586997 3257144 -4397629359368 4397637172056 -4397636686676 -4397629166864 4397629166861 -4397638260604 4397638406115 -4397638416042 4397637948335 -182 -588180 588179 -24313 -4397637760333 9300848 -9056672 8911161 17672 9323495 51041 385679534 3785524 9066153 4397628477944 -3257152 3257151 -244182 -4397629115187 4397629115188 -514292 -4397638437811 4397638420451 -9323495 -3785345 -385679535 -569310 -3742531 4398018296133 9155558 -9155557 -4397628589038 -9155337 -4397628535961 -3253055 -3257151 3267075 -4397628589035 -4397629008047 4397629008048 4397638415596 -4397632372347 3253054 -9155340 9318525 -4397637801444 4397628589037 -4397628604998 -9300848 -4397637887934 -288223780700341338 288223780700341593 4397629166857 4397637887999 
Potential of Offsets elements: 893.455 1288.1 28.513 28.513 30.513 90.513 37.513 56.513 152.513 64.513 64.513 58.513 52.513 76.513 130.513 36.513 28.513 28.513 28.513 28.513 28.513 28.513 28.513 28.513 28.513 28.513 28.513 28.513 28.513 28.513 28.513 28.513 28.513 28.513 28.513 28.513 30.513 58.513 28.513 531.513 28.513 28.513 28.513 56.513 30.513 28.513 28.513 28.513 28.513 28.513 28.513 28.513 28.513 28.513 28.513 28.513 28.513 28.513 28.513 553.513 964.513 28.513 28.513 28.513 28.513 28.513 28.513 28.513 28.513 28.513 28.513 28.513 28.513 28.513 28.513 28.513 28.513 28.513 28.513 46.513 28.513 28.513 28.513 28.513 28.513 28.513 28.513 28.513 28.513 28.513 28.513 28.513 28.513 28.513 28.513 28.513 28.513 28.513 28.513 28.513 28.513 28.513 28.513 28.513 28.513 28.513 28.513 28.513 28.513 28.513 28.513 28.513 28.513 28.513 28.513 28.513 28.513 28.513 28.513 88.513 28.513 28.513 28.513 28.513 283.513 34.513 55.513 73.513 89.513 34.513 46.513 37.513 29.513 373.513 28.513 28.513 86.513 76.513 142.513 142.513 243.513 1043.51 79.513 180.513 526.513 92.513 73.513 292.513 340.513 196.513 146.513 149.513 149.513 128.513 56.513 62.513 171.513 28.513 28.513 28.513 28.513 28.513 28.513 28.513 28.513 28.513 28.513 28.513 28.513 28.513 28.513 28.513 28.513 28.513 28.513 28.513 28.513 28.513 28.513 28.513 28.513 28.513 28.513 28.513 28.513 28.513 28.513 28.513 28.513 28.513 28.513 28.513 28.513 28.513 28.513 31.513 28.513 28.513 62.513 28.513 28.513 28.513 28.513 28.513 28.513 28.513 28.513 28.513 28.513 28.513 28.513 80.513 606.513 127.513 232.513 244.513 160.513 164.513 151.513 58.513 50.513 30.513 70.513 303.513 172.513 109.513 84.513 28.513 28.513 28.513 28.513 28.513 32.513 28.513 28.513 28.513 28.513 28.513 28.513 28.513 28.513 28.513 28.513 28.513 28.513 28.513 28.513 28.513 28.513 28.513 28.513 28.513 175.513 28.513 28.513 28.513 61.513 34.513 28.513 28.513 28.513 28.513 28.513 28.513 28.513 28.513 28.513 28.513 28.513 28.513 28.513 28.513 28.513 28.513 28.513 28.513 28.513 28.513 28.513 28.513 28.513 28.513 28.513 28.513 28.513 28.513 28.513 28.513 28.513 28.513 275.513 28.513 28.513 28.513 28.513 28.513 28.513 28.513 28.513 28.513 28.513 28.513 28.513 28.513 28.513 28.513 28.513 28.513 28.513 28.513 28.513 28.513 28.513 28.513 28.513 28.513 28.513 28.513 28.513 28.513 28.513 28.513 28.513 28.513 28.513 28.513 28.513 28.513 28.513 28.513 28.513 28.513 28.513 28.513 28.513 28.513 28.513 28.513 28.513 28.513 28.513 28.513 28.513 28.513 28.513 28.513 28.513 133.513 35.513 28.513 100.513 34.513 37.513 37.513 90.513 70.513 98.513 48.513 28.513 28.513 28.513 252.513 54.513 73.513 70.513 157.513 174.513 46.513 147.513 28.513 28.513 283.513 124.513 103.513 110.513 36.513 76.513 28.513 28.513 28.513 28.513 28.513 28.513 28.513 28.513 28.513 28.513 28.513 28.513 28.513 28.513 28.513 28.513 28.513 28.513 28.513 28.513 28.513 28.513 28.513 28.513 48.513 64.513 28.513 82.513 28.513 348.513 118.513 48.513 123.513 32.513 76.513 34.513 46.513 52.513 112.513 38.513 28.513 28.513 28.513 28.513 28.513 28.513 28.513 28.513 28.513 28.513 28.513 28.513 28.513 28.513 28.513 28.513 28.513 28.513 28.513 28.513 28.513 28.513 28.513 28.513 30.513 28.513 28.513 28.513 28.513 28.513 28.513 28.513 28.513 28.513 28.513 28.513 28.513 28.513 28.513 28.513 28.513 28.513 28.513 28.513 28.513 28.513 28.513 28.513 28.513 28.513 28.513 28.513 28.513 28.513 28.513 28.513 28.513 28.513 28.513 28.513 28.513 28.513 28.513 28.513 28.513 28.513 28.513 28.513 28.513 30.513 28.513 28.513 28.513 28.513 28.513 28.513 28.513 28.513 28.513 28.513 28.513 28.513 33.513 29.513 28.513 28.513 28.513 28.513 64.513 84.513 84.513 40.513 28.513 38.513 28.513 113.513 28.513 28.513 28.513 28.513 28.513 28.513 70.513 28.513 28.513 28.513 28.513 28.513 28.513 28.513 28.513 28.513 28.513 28.513 28.513 28.513 28.513 28.513 28.513 28.513 28.513 28.513 28.513 28.513 28.513 28.513 28.513 28.513 28.513 28.513 28.513 28.513 28.513 28.513 28.513 28.513 28.513 28.513 28.513 28.513 28.513 28.513 28.513 28.513 28.513 32.513 28.513 28.513 28.513 28.513 28.513 28.513 28.513 28.513 65.513 28.513 28.513 28.513 34.513 28.513 28.513 28.513 28.513 28.513 28.513 28.513 28.513 28.513 28.513 28.513 28.513 28.513 28.513 28.513 28.513 28.513 28.513 28.513 28.513 28.513 28.513 28.513 28.513 28.513 28.513 28.513 28.513 28.513 28.513 29.513 28.513 28.513 28.513 28.513 28.513 28.513 28.513 28.513 28.513 28.513 28.513 28.513 28.513 28.513 28.513 28.513 28.513 28.513 28.513 28.513 28.513 28.513 28.513 28.513 28.513 28.513 28.513 28.513 28.513 28.513 106.513 34.513 28.513 28.513 28.513 28.513 28.513 28.513 28.513 28.513 28.513 28.513 37.513 28.513 28.513 28.513 28.513 28.513 28.513 28.513 28.513 28.513 28.513 28.513 28.513 28.513 28.513 28.513 28.513 28.513 28.513 28.513 28.513 28.513 28.513 28.513 28.513 28.513 28.513 28.513 28.513 28.513 28.513 28.513 29.513 28.513 28.513 28.513 28.513 28.513 28.513 28.513 180.513 28.513 28.513 28.513 28.513 28.513 28.513 28.513 28.513 28.513 28.513 28.513 28.513 28.513 28.513 28.513 28.513 28.513 168.513 28.513 28.513 28.513 28.513 28.513 28.513 28.513 28.513 28.513 28.513 28.513 28.513 28.513 48.513 28.513 28.513 73.513 226.513 148.513 46.513 128.513 268.513 28.513 28.513 28.513 31.513 72.513 
rewards of Offsets elements: 893 1288 0 0 2 62 9 28 124 36 36 30 24 48 102 8 0 0 0 0 0 0 0 0 0 0 0 0 0 0 0 0 0 0 0 0 2 30 0 503 0 0 0 28 2 0 0 0 0 0 0 0 0 0 0 0 0 0 0 525 936 0 0 0 0 0 0 0 0 0 0 0 0 0 0 0 0 0 0 18 0 0 0 0 0 0 0 0 0 0 0 0 0 0 0 0 0 0 0 0 0 0 0 0 0 0 0 0 0 0 0 0 0 0 0 0 0 0 0 60 0 0 0 0 255 6 27 45 61 6 18 9 1 345 0 0 58 48 114 114 215 1015 51 152 498 64 45 264 312 168 118 121 121 100 28 34 143 0 0 0 0 0 0 0 0 0 0 0 0 0 0 0 0 0 0 0 0 0 0 0 0 0 0 0 0 0 0 0 0 0 0 0 0 0 0 3 0 0 34 0 0 0 0 0 0 0 0 0 0 0 0 52 578 99 204 216 132 136 123 30 22 2 42 275 144 81 56 0 0 0 0 0 4 0 0 0 0 0 0 0 0 0 0 0 0 0 0 0 0 0 0 0 147 0 0 0 33 6 0 0 0 0 0 0 0 0 0 0 0 0 0 0 0 0 0 0 0 0 0 0 0 0 0 0 0 0 0 0 0 0 247 0 0 0 0 0 0 0 0 0 0 0 0 0 0 0 0 0 0 0 0 0 0 0 0 0 0 0 0 0 0 0 0 0 0 0 0 0 0 0 0 0 0 0 0 0 0 0 0 0 0 0 0 0 0 0 0 105 7 0 72 6 9 9 62 42 70 20 0 0 0 224 26 45 42 129 146 18 119 0 0 255 96 75 82 8 48 0 0 0 0 0 0 0 0 0 0 0 0 0 0 0 0 0 0 0 0 0 0 0 0 20 36 0 54 0 320 90 20 95 4 48 6 18 24 84 10 0 0 0 0 0 0 0 0 0 0 0 0 0 0 0 0 0 0 0 0 0 0 0 0 2 0 0 0 0 0 0 0 0 0 0 0 0 0 0 0 0 0 0 0 0 0 0 0 0 0 0 0 0 0 0 0 0 0 0 0 0 0 0 0 0 0 0 0 0 2 0 0 0 0 0 0 0 0 0 0 0 0 5 1 0 0 0 0 36 56 56 12 0 10 0 85 0 0 0 0 0 0 42 0 0 0 0 0 0 0 0 0 0 0 0 0 0 0 0 0 0 0 0 0 0 0 0 0 0 0 0 0 0 0 0 0 0 0 0 0 0 0 0 0 0 4 0 0 0 0 0 0 0 0 37 0 0 0 6 0 0 0 0 0 0 0 0 0 0 0 0 0 0 0 0 0 0 0 0 0 0 0 0 0 0 0 0 0 0 1 0 0 0 0 0 0 0 0 0 0 0 0 0 0 0 0 0 0 0 0 0 0 0 0 0 0 0 0 0 0 78 6 0 0 0 0 0 0 0 0 0 0 9 0 0 0 0 0 0 0 0 0 0 0 0 0 0 0 0 0 0 0 0 0 0 0 0 0 0 0 0 0 0 0 1 0 0 0 0 0 0 0 152 0 0 0 0 0 0 0 0 0 0 0 0 0 0 0 0 0 140 0 0 0 0 0 0 0 0 0 0 0 0 0 20 0 0 45 198 120 18 100 240 0 0 0 3 44 Printing Sanity3
offset_index value735
offset list size735
reward size735
potential size735
-----------------------------------------------------------------------------------------------------------------------------------------------------------------------------------------------------

DRAM Statistics
 CHANNEL 0
 RQ ROW_BUFFER_HIT:     158076  ROW_BUFFER_MISS:     532726
 DBUS_CONGESTED:        333
 WQ ROW_BUFFER_HIT:      69376  ROW_BUFFER_MISS:     247146  FULL:          0

 AVG_CONGESTED_CYCLE: 4
 All warmup complete: 2
Channel 0 Bank busy for read cycles: 0
Channel 0 Bank busy for write cycles: 0
Channel 0
Rank 0
0banks busy for read cycles: 450736463
0banks busy for write cycles: 151373
1banks busy for read cycles: 49051822
1banks busy for write cycles: 22432534
2banks busy for read cycles: 11819605
2banks busy for write cycles: 6371813
3banks busy for read cycles: 1932554
3banks busy for write cycles: 2486186
4banks busy for read cycles: 572351
4banks busy for write cycles: 1220808
5banks busy for read cycles: 223267
5banks busy for write cycles: 662273
6banks busy for read cycles: 171615
6banks busy for write cycles: 399007
7banks busy for read cycles: 192585
7banks busy for write cycles: 337692
8banks busy for read cycles: 468230
8banks busy for write cycles: 809826

CPU 0 Branch Prediction Accuracy: 97.3038% MPKI: 5.17532 Average ROB Occupancy at Mispredict: 13.0948
Branch types
NOT_BRANCH: 161610441 80.8052%
BRANCH_DIRECT_JUMP: 1949370 0.974685%
BRANCH_INDIRECT: 10330683 5.16534%
BRANCH_CONDITIONAL: 18215850 9.10792%
BRANCH_DIRECT_CALL: 2536633 1.26832%
BRANCH_INDIRECT_CALL: 1403932 0.701966%
BRANCH_RETURN: 3952830 1.97642%
BRANCH_OTHER: 0 0%

DRAM PAGES: 1048576
Allocated PAGES: 8068
