
*** ChampSim Multicore Out-of-Order Simulator ***

Warmup Instructions: 50000000
Simulation Instructions: 200000000
Number of CPUs: 1
LLC sets: 2048
LLC ways: 16
Off-chip DRAM Size: 4096 MB Channels: 1 Width: 64-bit Data Rate: 6400 MT/s
CPU 0 runs traces/spec2k17/server_034.champsimtrace.xz
.xz
BTB has LRU replacement policy
ITLB has LRU replacement policy
DTLB has LRU replacement policy
STLB has LRU replacement policy
L1I has LRU replacement policy
L1D has LRU replacement policy
Initialize SRRIP state for L2C
Initialize DRRIP state for LLC
Offsets elements: 
Potential of Offsets elements: 
rewards of Offsets elements: 
Printing Sanity1
offset list size2079
Offsets elements: 
Potential of Offsets elements: 
rewards of Offsets elements: 2800 367 3798 0 191 1163 389 0 0 491 0 0 225 64 0 0 0 0 0 0 528 0 0 18 32 4 0 1865 0 0 0 0 0 0 9 600 0 0 0 0 0 0 0 0 0 0 200 0 4 0 0 0 0 578 0 0 678 0 0 0 0 0 0 0 0 0 0 591 0 0 635 0 0 0 0 0 0 0 80 0 0 0 431 0 0 0 2 0 174 60 0 0 0 0 0 0 0 0 0 128 4 0 0 0 0 0 0 0 0 0 0 604 42 0 1406 62 37 0 0 0 0 0 0 20 2 0 0 0 0 0 0 0 0 0 25 5 0 0 0 0 0 0 0 0 0 417 0 0 1699 547 0 0 0 0 0 0 188 0 0 100 0 0 1395 0 0 0 0 35 0 0 0 0 0 0 0 0 0 72 0 0 16 33 0 0 0 0 0 0 30 4 0 0 0 20 0 0 0 0 0 92 59 0 0 24 0 0 0 0 0 0 0 90 0 428 14 0 0 0 0 0 0 0 30 0 0 8 0 0 0 0 0 0 0 10 0 0 0 0 0 979 0 0 116 0 0 0 74 683 0 0 0 0 4 180 6 0 9 4 0 0 0 0 0 132 0 22 2 0 0 0 0 0 0 0 0 9 6 2 0 0 20 0 0 0 0 0 0 15 0 0 0 0 0 0 0 0 0 30 3 0 0 0 0 0 0 0 0 0 25 0 822 14 0 0 0 0 0 42 25 29 0 0 3 0 0 0 0 0 12 0 44 23 0 9 0 0 0 18 360 0 0 300 48 0 198 0 0 0 1 0 0 6 109 0 0 0 2 0 0 0 0 0 0 55 0 0 0 0 0 0 0 0 0 0 36 0 0 10 0 0 4 195 8 0 12 0 0 0 0 127 0 0 40 0 0 18 282 0 8 0 0 0 95 211 0 8 366 0 0 44 0 0 0 0 0 0 16 189 0 50 0 0 511 0 0 0 0 9 8 14 0 0 0 0 0 0 0 2 44 6 0 0 0 0 0 955 0 0 0 17 29 0 324 0 115 184 0 0 0 0 17 0 0 0 10 0 0 0 0 0 0 22 117 0 2 0 0 0 27 0 0 4 93 0 0 0 0 0 0 12 0 0 420 10 0 9 0 0 98 0 0 0 0 393 4 0 23 0 0 0 0 0 0 22 611 0 0 0 0 0 0 65 1172 0 112 10 0 0 0 0 0 0 0 72 0 92 0 0 0 13 0 0 0 0 23 0 8 54 0 9 0 0 0 0 59 1 0 12 13 0 0 0 0 0 10 0 0 0 4 26 0 0 0 0 1 0 0 0 2 36 0 0 0 0 0 0 3 0 0 0 39 0 0 0 0 0 0 0 0 0 58 8 0 4 57 0 0 0 72 0 112 32 0 0 0 2 0 2 0 90 0 54 35 130 0 0 0 0 0 0 0 0 0 0 1 0 0 0 0 4 0 0 0 0 2 0 0 1 0 0 0 0 0 0 0 13 9 0 0 0 0 102 0 0 0 0 4 0 34 8 0 10 2 0 0 0 58 0 0 0 0 0 0 0 0 0 0 0 44 8 0 0 21 80 0 0 0 0 0 0 0 0 0 0 0 0 0 0 0 4 4 0 0 0 0 0 0 0 51 0 0 0 5 0 413 0 0 8 0 0 0 0 214 0 10 0 0 0 0 0 0 187 0 0 0 0 0 0 0 0 0 0 0 0 0 0 5 0 0 0 28 0 0 0 0 0 0 0 0 0 0 0 0 0 12 0 0 0 0 0 0 0 0 0 0 0 0 0 0 0 0 0 177 0 0 0 0 0 0 0 0 0 0 0 0 1 0 0 0 0 0 349 0 0 0 0 0 7 0 0 0 0 0 0 272 0 0 0 0 81 0 40 0 0 0 0 0 0 6 12 0 0 0 0 0 0 0 0 0 14 8 70 0 0 0 0 0 0 32 1 0 0 12 0 0 7 0 0 0 13 0 0 0 0 0 0 0 0 0 0 44 0 0 0 0 0 0 0 0 0 0 11 0 0 45 0 0 0 0 0 0 76 44 0 217 32 0 0 0 0 0 0 0 0 0 198 15 0 0 0 0 0 0 0 0 0 0 0 0 0 0 1 0 0 130 0 0 48 0 0 0 0 0 0 0 0 0 132 4 0 0 0 0 0 0 0 0 0 14 0 44 0 108 0 0 0 0 0 0 0 0 0 0 0 0 0 0 0 0 0 0 6 0 0 0 0 0 0 0 0 0 259 0 0 0 0 0 0 0 0 0 0 45 21 0 0 0 0 0 30 0 0 0 6 0 0 0 0 14 0 0 2 12 0 25 0 0 0 7 0 0 3 155 0 0 18 0 0 0 0 39 0 3 29 0 16 60 0 0 0 3 44 0 0 0 0 0 3 3 0 0 1 22 0 0 3 6 0 1 0 0 2 12 54 0 0 0 0 0 4 0 0 0 0 0 0 4 6 0 1 0 0 0 0 0 0 0 0 8 0 14 0 0 0 0 0 0 0 0 0 0 3 0 0 0 0 0 0 0 0 110 45 0 7 0 18 40 18 0 6 0 0 18 0 0 0 10 12 4 0 0 29 0 0 8 0 0 242 6 7 0 10 0 0 10 24 0 0 0 4 0 0 0 0 0 14 0 0 0 6 9 0 0 6 0 0 22 0 0 1 44 4 0 89 52 0 0 0 0 0 7 3 0 0 0 0 0 3 0 0 217 8 44 0 0 0 0 0 11 0 0 0 0 0 0 0 0 0 0 3 0 246 2 0 0 0 0 0 0 0 0 0 0 0 0 0 0 0 0 0 0 0 0 0 6 0 0 0 0 0 0 0 0 0 0 10 0 0 0 0 0 0 0 0 0 0 0 0 0 0 0 0 3 0 0 78 0 0 0 0 0 0 0 0 0 0 299 0 0 0 0 0 0 0 0 0 0 0 0 0 0 0 0 0 0 0 0 1 0 0 0 0 0 0 0 0 0 0 4 0 0 0 0 0 0 0 0 0 0 0 0 0 0 0 0 0 0 0 0 0 0 0 0 0 0 0 1 0 0 0 51 0 0 0 0 0 0 0 0 0 0 0 0 0 0 0 0 0 0 0 0 0 0 0 0 0 0 0 0 0 0 0 0 0 0 0 0 0 0 0 0 0 1 0 0 0 0 0 0 0 0 0 0 0 0 0 0 0 0 0 0 0 0 0 0 0 0 4 0 0 0 0 0 0 0 0 0 0 0 0 0 0 0 0 0 0 0 0 0 76 0 0 0 0 0 0 0 0 0 0 0 0 0 0 0 0 0 0 0 0 0 9 0 0 0 0 0 0 0 12 0 16 6 0 3 4 0 0 0 0 0 0 0 41 0 0 0 0 0 104 2 7 0 0 0 0 0 0 0 0 0 0 0 0 0 0 0 0 0 0 0 0 0 0 0 0 0 0 0 0 0 0 0 0 0 0 30 0 0 0 0 0 0 0 0 0 0 0 0 0 0 0 0 0 0 0 0 0 0 0 0 0 0 0 0 0 0 0 0 0 0 0 0 0 0 0 0 0 0 0 0 3 0 0 0 0 0 0 0 0 0 0 0 0 0 0 0 0 0 0 0 0 0 0 0 0 0 0 0 482 0 0 0 0 0 0 0 0 0 0 0 0 0 0 0 0 0 0 0 0 0 0 0 0 0 0 0 0 0 0 0 0 0 0 0 0 0 0 0 0 0 0 0 0 0 0 18 0 0 0 0 0 0 0 0 0 0 317 0 0 0 0 0 0 0 0 0 0 3 0 0 0 0 0 0 0 0 0 0 0 0 0 0 0 209 0 0 0 49 0 0 0 0 0 0 0 0 0 0 10 0 0 0 0 0 0 0 0 0 0 0 0 0 0 0 0 0 0 0 0 0 0 0 0 67 0 0 0 0 0 0 0 0 0 0 0 0 0 0 0 0 0 0 4 0 0 0 0 0 0 0 0 0 0 0 0 0 0 0 0 26 0 4 0 0 95 0 0 0 0 0 0 0 0 0 0 285 0 0 0 0 0 0 0 0 0 18 0 0 0 0 0 0 0 0 0 0 9 0 0 0 0 0 0 0 0 0 0 19 0 0 0 0 0 0 0 0 0 0 0 0 0 0 0 0 0 0 0 13 0 0 0 0 0 0 0 0 0 0 88 0 13 0 0 0 0 0 13 50 0 0 0 0 0 0 0 0 0 0 0 0 0 0 0 0 0 0 0 0 0 0 0 0 3 0 1 0 0 0 0 0 0 0 0 59 0 0 0 46 15 0 0 0 0 0 18 0 0 0 0 0 0 0 0 0 0 4 0 0 0 0 0 0 0 0 0 0 4 53 0 0 0 2 0 0 0 0 5 0 19 0 0 0 0 0 0 0 0 0 22 0 0 0 0 244 191 0 0 0 0 0 0 0 0 0 0 0 0 0 0 0 0 0 0 0 0 0 0 0 0 0 0 0 0 0 0 90 0 0 0 0 30 10 0 0 0 0 0 0 0 0 0 0 0 0 0 0 0 0 0 0 7 0 2 7 22 21 0 0 0 0 0 0 0 0 87 18 22 0 0 0 0 0 0 0 120 5 0 0 1 0 0 22 0 0 1 0 0 0 0 0 0 2 0 0 0 0 305 2 0 35 0 0 0 0 0 0 18 1 0 0 0 0 0 0 0 0 5 3 0 1 0 0 0 0 0 0 0 0 
Printing Sanity2
Heartbeat CPU 0 instructions: 10000001 cycles: 2828148 heartbeat IPC: 3.53588 cumulative IPC: 3.53588 (Simulation time: 0 hr 0 min 16 sec) 
Heartbeat CPU 0 instructions: 20000003 cycles: 5690105 heartbeat IPC: 3.49411 cumulative IPC: 3.51487 (Simulation time: 0 hr 0 min 33 sec) 
Heartbeat CPU 0 instructions: 30000000 cycles: 8558498 heartbeat IPC: 3.48627 cumulative IPC: 3.50529 (Simulation time: 0 hr 0 min 49 sec) 
Heartbeat CPU 0 instructions: 40000001 cycles: 11426391 heartbeat IPC: 3.48688 cumulative IPC: 3.50067 (Simulation time: 0 hr 1 min 6 sec) 
Heartbeat CPU 0 instructions: 50000001 cycles: 14295160 heartbeat IPC: 3.48582 cumulative IPC: 3.49769 (Simulation time: 0 hr 1 min 23 sec) 

Warmup complete CPU 0 instructions: 50000001 cycles: 14295160 (Simulation time: 0 hr 1 min 23 sec) 

Heartbeat CPU 0 instructions: 60000003 cycles: 40485163 heartbeat IPC: 0.381825 cumulative IPC: 0.381825 (Simulation time: 0 hr 1 min 57 sec) 
Heartbeat CPU 0 instructions: 70000000 cycles: 66195718 heartbeat IPC: 0.388945 cumulative IPC: 0.385352 (Simulation time: 0 hr 2 min 31 sec) 
Heartbeat CPU 0 instructions: 80000002 cycles: 92478727 heartbeat IPC: 0.380474 cumulative IPC: 0.383712 (Simulation time: 0 hr 3 min 5 sec) 
Heartbeat CPU 0 instructions: 90000003 cycles: 118747589 heartbeat IPC: 0.380679 cumulative IPC: 0.382949 (Simulation time: 0 hr 3 min 38 sec) 
Heartbeat CPU 0 instructions: 100000000 cycles: 144992906 heartbeat IPC: 0.38102 cumulative IPC: 0.382562 (Simulation time: 0 hr 4 min 13 sec) 
*** Reached end of trace for Core: 0 Repeating trace: traces/spec2k17/server_034.champsimtrace.xz
Heartbeat CPU 0 instructions: 110000000 cycles: 171256082 heartbeat IPC: 0.380761 cumulative IPC: 0.382261 (Simulation time: 0 hr 4 min 46 sec) 
Heartbeat CPU 0 instructions: 120000001 cycles: 196992441 heartbeat IPC: 0.388555 cumulative IPC: 0.383147 (Simulation time: 0 hr 5 min 20 sec) 
Heartbeat CPU 0 instructions: 130000003 cycles: 223478356 heartbeat IPC: 0.377559 cumulative IPC: 0.38244 (Simulation time: 0 hr 5 min 54 sec) 
Heartbeat CPU 0 instructions: 140000001 cycles: 250122078 heartbeat IPC: 0.375323 cumulative IPC: 0.381636 (Simulation time: 0 hr 6 min 28 sec) 
Heartbeat CPU 0 instructions: 150000003 cycles: 276536282 heartbeat IPC: 0.378584 cumulative IPC: 0.381328 (Simulation time: 0 hr 7 min 2 sec) 
Heartbeat CPU 0 instructions: 160000000 cycles: 302727127 heartbeat IPC: 0.381813 cumulative IPC: 0.381372 (Simulation time: 0 hr 7 min 36 sec) 
Heartbeat CPU 0 instructions: 170000001 cycles: 328906836 heartbeat IPC: 0.381975 cumulative IPC: 0.381423 (Simulation time: 0 hr 8 min 10 sec) 
Heartbeat CPU 0 instructions: 180000002 cycles: 354547064 heartbeat IPC: 0.390012 cumulative IPC: 0.38207 (Simulation time: 0 hr 8 min 44 sec) 
Heartbeat CPU 0 instructions: 190000002 cycles: 380821441 heartbeat IPC: 0.380599 cumulative IPC: 0.381964 (Simulation time: 0 hr 9 min 18 sec) 
Heartbeat CPU 0 instructions: 200000000 cycles: 407073541 heartbeat IPC: 0.380922 cumulative IPC: 0.381895 (Simulation time: 0 hr 9 min 51 sec) 
*** Reached end of trace for Core: 0 Repeating trace: traces/spec2k17/server_034.champsimtrace.xz
Heartbeat CPU 0 instructions: 210000000 cycles: 433341573 heartbeat IPC: 0.380691 cumulative IPC: 0.381819 (Simulation time: 0 hr 10 min 25 sec) 
Heartbeat CPU 0 instructions: 220000000 cycles: 459503746 heartbeat IPC: 0.382231 cumulative IPC: 0.381843 (Simulation time: 0 hr 10 min 59 sec) 
Heartbeat CPU 0 instructions: 230000000 cycles: 485347660 heartbeat IPC: 0.386938 cumulative IPC: 0.382123 (Simulation time: 0 hr 11 min 33 sec) 
Heartbeat CPU 0 instructions: 240000000 cycles: 511978227 heartbeat IPC: 0.375508 cumulative IPC: 0.381769 (Simulation time: 0 hr 12 min 8 sec) 
Heartbeat CPU 0 instructions: 250000001 cycles: 538478841 heartbeat IPC: 0.37735 cumulative IPC: 0.381546 (Simulation time: 0 hr 12 min 43 sec) 
Finished CPU 0 instructions: 200000000 cycles: 524183681 cumulative IPC: 0.381546 (Simulation time: 0 hr 12 min 43 sec) 

ChampSim completed all CPUs

Region of Interest Statistics

CPU 0 cumulative IPC: 0.381546 instructions: 200000000 cycles: 524183681
ITLB TOTAL     ACCESS:   35670982  HIT:   33638630  MISS:    2032352  HIT %:    94.3025  MISS %:    5.69749   MPKI: 10.1618
ITLB LOAD TRANSLATION ACCESS:   35670982  HIT:   33638630  MISS:    2032352  HIT %:    94.3025  MISS %:    5.69749   MPKI: 10.1618
ITLB PREFETCH  REQUESTED:          0  ISSUED:          0  USEFUL:          0  USELESS:          0
ITLB USEFUL LOAD PREFETCHES:          0 PREFETCH ISSUED TO LOWER LEVEL:          0  ACCURACY: -nan
ITLB TIMELY PREFETCHES:          0 LATE PREFETCHES: 0 DROPPED PREFETCHES: 0
ITLB PREFETCHES SAME FILL-ORIGIN LEVEL: 0 DIFFERENT FILL-ORIGIN LEVEL: 0
ITLB AVERAGE MISS LATENCY: 9.0294 cycles
ITLB RQ	ACCESS:   41334220	FORWARD:          0	MERGED:    5208203	TO_CACHE:   36126017

DTLB TOTAL     ACCESS:   39329785  HIT:   37742327  MISS:    1587458  HIT %:    95.9637  MISS %:    4.03627   MPKI: 7.93729
DTLB LOAD TRANSLATION ACCESS:   39329785  HIT:   37742327  MISS:    1587458  HIT %:    95.9637  MISS %:    4.03627   MPKI: 7.93729
DTLB PREFETCH  REQUESTED:          0  ISSUED:          0  USEFUL:          0  USELESS:          0
DTLB USEFUL LOAD PREFETCHES:          0 PREFETCH ISSUED TO LOWER LEVEL:          0  ACCURACY: -nan
DTLB TIMELY PREFETCHES:          0 LATE PREFETCHES: 0 DROPPED PREFETCHES: 0
DTLB PREFETCHES SAME FILL-ORIGIN LEVEL: 0 DIFFERENT FILL-ORIGIN LEVEL: 0
DTLB AVERAGE MISS LATENCY: 9.05018 cycles
DTLB RQ	ACCESS:   54938379	FORWARD:          0	MERGED:   15525918	TO_CACHE:   39412461

STLB TOTAL     ACCESS:   27826377  HIT:   27823703  MISS:       2674  HIT %:    99.9904  MISS %: 0.00960959   MPKI: 0.01337
STLB LOAD TRANSLATION ACCESS:    3619809  HIT:    3617155  MISS:       2654  HIT %:    99.9267  MISS %:  0.0733188   MPKI: 0.01327
STLB TRANSLATION FROM L1D PREFETCHER ACCESS:   24206568  HIT:   24206548  MISS:         20  HIT %:    99.9999  MISS %: 8.26222e-05   MPKI: 0.0001
STLB PREFETCH  REQUESTED:          0  ISSUED:          0  USEFUL:         20  USELESS:          0
STLB USEFUL LOAD PREFETCHES:         20 PREFETCH ISSUED TO LOWER LEVEL:          0  ACCURACY: inf
STLB TIMELY PREFETCHES:         20 LATE PREFETCHES: 0 DROPPED PREFETCHES: 240308
STLB PREFETCHES SAME FILL-ORIGIN LEVEL: 0 DIFFERENT FILL-ORIGIN LEVEL: 0
STLB AVERAGE MISS LATENCY: 34.5004 cycles
STLB RQ	ACCESS:   32845523	FORWARD:          0	MERGED:    4778698	TO_CACHE:   28066825

STLB Hit, L1D data hit: 0
STLB Hit, L2C data hit: 0
STLB Hit, LLC data hit: 0
STLB Hit, LLC data miss: 0
STLB STLB hints to L2: 0
L1D TOTAL     ACCESS:   83201090  HIT:   77758760  MISS:    5442330  HIT %:    93.4588  MISS %:    6.54118   MPKI: 27.2116
L1D LOAD      ACCESS:   30174131  HIT:   27592077  MISS:    2582054  HIT %:    91.4428  MISS %:    8.55718   MPKI: 12.9103
L1D RFO       ACCESS:   24191798  HIT:   23681759  MISS:     510039  HIT %:    97.8917  MISS %:    2.10831   MPKI: 2.55019
L1D PREFETCH  ACCESS:   28835161  HIT:   26484924  MISS:    2350237  HIT %:    91.8494  MISS %:    8.15059   MPKI: 11.7512
AGUS PREFETCH L1 MISS: 0
L1D PREFETCH  REQUESTED:   59451128  ISSUED:   59451128  USEFUL:     514357  USELESS:    1835904
L1D USEFUL LOAD PREFETCHES:     514357 PREFETCH ISSUED TO LOWER LEVEL:    2361329  ACCURACY: 21.7825
L1D TIMELY PREFETCHES:     514357 LATE PREFETCHES: 9652 DROPPED PREFETCHES: 240308
L1D PREFETCHES SAME FILL-ORIGIN LEVEL: 2361329 DIFFERENT FILL-ORIGIN LEVEL: 0
L1D AVERAGE MISS LATENCY: 560900 cycles
L1D RQ	ACCESS:   43285430	FORWARD:          0	MERGED:   12708312	TO_CACHE:   30225412
L1D WQ	ACCESS:   24968545	FORWARD:     440538	MERGED:     255578	TO_CACHE:   24712967
L1D PQ	ACCESS:   30225414	FORWARD:          0	MERGED:     910868	TO_CACHE:   29225714

L1D UNIQUE REGIONS ACCESSED: 0
L1D REGIONS CONFLICTS: 0
L1D Cross Page Prefetch Requests: 700489
L1D Same Page Prefetch Requests: 35943481
L1D ROI Sum of L1D PQ occupancy: 380419801
L1D PREFETCHES PUSHED FROM L2C: 0
L1I TOTAL     ACCESS:   38741478  HIT:   26146387  MISS:   12595091  HIT %:    67.4894  MISS %:    32.5106   MPKI: 62.9755
L1I LOAD      ACCESS:   38741478  HIT:   26146387  MISS:   12595091  HIT %:    67.4894  MISS %:    32.5106   MPKI: 62.9755
L1I PREFETCH  REQUESTED:          0  ISSUED:          0  USEFUL:          0  USELESS:          0
L1I USEFUL LOAD PREFETCHES:          0 PREFETCH ISSUED TO LOWER LEVEL:          0  ACCURACY: -nan
L1I TIMELY PREFETCHES:          0 LATE PREFETCHES: 0 DROPPED PREFETCHES: 0
L1I PREFETCHES SAME FILL-ORIGIN LEVEL: 0 DIFFERENT FILL-ORIGIN LEVEL: 0
L1I AVERAGE MISS LATENCY: 14.3532 cycles
L1I RQ	ACCESS:   61105284	FORWARD:          0	MERGED:   19771064	TO_CACHE:   41334220

BTB TOTAL     ACCESS:   31187081  HIT:   22748972  MISS:    8438109  HIT %:    72.9436  MISS %:    27.0564   MPKI: 42.1905
BTB BRANCH_DIRECT_JUMP	ACCESS:    2936764  HIT:    2316190  MISS:     620574
BTB BRANCH_INDIRECT	ACCESS:   13065636  HIT:    9451143  MISS:    3614493
BTB BRANCH_CONDITIONAL	ACCESS:    5550027  HIT:    4880620  MISS:     669407
BTB BRANCH_DIRECT_CALL	ACCESS:    4007660  HIT:    3039316  MISS:     968344
BTB BRANCH_INDIRECT_CALL	ACCESS:     809679  HIT:     470392  MISS:     339287
BTB BRANCH_RETURN	ACCESS:    4817315  HIT:    2591311  MISS:    2226004
BTB BRANCH_OTHER ACCESS:          0  HIT:          0  MISS:          0

L2C TOTAL     ACCESS:   19736755  HIT:   19256250  MISS:     480505  HIT %:    97.5654  MISS %:    2.43457   MPKI: 2.40252
L2C LOAD      ACCESS:   15167348  HIT:   14884485  MISS:     282863  HIT %:    98.1351  MISS %:    1.86495   MPKI: 1.41431
L2C DATA LOAD MPKI: 0.80647
L2C INSTRUCTION LOAD MPKI: 0.607845
L2C RFO       ACCESS:     508599  HIT:     476968  MISS:      31631  HIT %:    93.7808  MISS %:    6.21924   MPKI: 0.158155
L2C PREFETCH  ACCESS:    2361329  HIT:    2210303  MISS:     151026  HIT %:    93.6042  MISS %:    6.39581   MPKI: 0.75513
AGUS PREFETCH L1 MISS: 0
L2C DATA PREFETCH MPKI: 0.75513
L2C INSTRUCTION PREFETCH MPKI: 0
L2C WRITEBACK ACCESS:    1355439  HIT:    1342396  MISS:      13043  HIT %:    99.0377  MISS %:   0.962271   MPKI: 0.065215
L2C LOAD TRANSLATION ACCESS:       2688  HIT:       1616  MISS:       1072  HIT %:     60.119  MISS %:     39.881   MPKI: 0.00536
L2C TRANSLATION FROM L1D PREFETCHER ACCESS:     341352  HIT:     340482  MISS:        870  HIT %:    99.7451  MISS %:   0.254869   MPKI: 0.00435
L2C PREFETCH  REQUESTED:          0  ISSUED:          0  USEFUL:      12261  USELESS:     139488
L2C USEFUL LOAD PREFETCHES:      12261 PREFETCH ISSUED TO LOWER LEVEL:     151026  ACCURACY: 8.11847
L2C TIMELY PREFETCHES:      12261 LATE PREFETCHES: 0 DROPPED PREFETCHES: 0
L2C PREFETCHES SAME FILL-ORIGIN LEVEL: 0 DIFFERENT FILL-ORIGIN LEVEL: 0
L2C AVERAGE MISS LATENCY: 30.8126 cycles
L2C RQ	ACCESS:   16020133	FORWARD:          0	MERGED:          0	TO_CACHE:   16019987
L2C WQ	ACCESS:    1355439	FORWARD:        146	MERGED:          0	TO_CACHE:    1355439
L2C PQ	ACCESS:    2361329	FORWARD:          0	MERGED:          0	TO_CACHE:    2361329

L2C Instructions Evicting Data 46110
L2C Translations Evicting Data 1672
L2C Data Evicting Data 300240
L2C Instructions Evicting Instructions 75258
L2C Translations Evicting Instructions 266
L2C Data Evicting Instructions 42000
L2C Instructions Evicting Translations 201
L2C Translations Evicting Translations 4
L2C Data Evicting Translations 1711
L2C Dense regions hint from L2: 0
PSCL5 TOTAL     ACCESS:     242982  HIT:     242982  MISS:          0  HIT %:        100  MISS %:          0   MPKI: 0
PSCL5 LOAD TRANSLATION ACCESS:       2654  HIT:       2654  MISS:          0  HIT %:        100  MISS %:          0   MPKI: 0
PSCL5 TRANSLATION FROM L1D PREFETCHER ACCESS:     240328  HIT:     240328  MISS:          0  HIT %:        100  MISS %:          0   MPKI: 0
PSCL5 PREFETCH  REQUESTED:          0  ISSUED:          0  USEFUL:          0  USELESS:          0
PSCL5 USEFUL LOAD PREFETCHES:          0 PREFETCH ISSUED TO LOWER LEVEL:          0  ACCURACY: -nan
PSCL5 TIMELY PREFETCHES:          0 LATE PREFETCHES: 0 DROPPED PREFETCHES: 0
PSCL5 PREFETCHES SAME FILL-ORIGIN LEVEL: 0 DIFFERENT FILL-ORIGIN LEVEL: 0

PSCL4 TOTAL     ACCESS:      61911  HIT:      61910  MISS:          1  HIT %:    99.9984  MISS %: 0.00161522   MPKI: 5e-06
PSCL4 LOAD TRANSLATION ACCESS:       1597  HIT:       1596  MISS:          1  HIT %:    99.9374  MISS %:  0.0626174   MPKI: 5e-06
PSCL4 TRANSLATION FROM L1D PREFETCHER ACCESS:      60314  HIT:      60314  MISS:          0  HIT %:        100  MISS %:          0   MPKI: 0
PSCL4 PREFETCH  REQUESTED:          0  ISSUED:          0  USEFUL:          0  USELESS:          0
PSCL4 USEFUL LOAD PREFETCHES:          0 PREFETCH ISSUED TO LOWER LEVEL:          0  ACCURACY: -nan
PSCL4 TIMELY PREFETCHES:          0 LATE PREFETCHES: 0 DROPPED PREFETCHES: 0
PSCL4 PREFETCHES SAME FILL-ORIGIN LEVEL: 0 DIFFERENT FILL-ORIGIN LEVEL: 0

PSCL3 TOTAL     ACCESS:     238411  HIT:     238410  MISS:          1  HIT %:    99.9996  MISS %: 0.000419444   MPKI: 5e-06
PSCL3 LOAD TRANSLATION ACCESS:       2424  HIT:       2423  MISS:          1  HIT %:    99.9587  MISS %:  0.0412541   MPKI: 5e-06
PSCL3 TRANSLATION FROM L1D PREFETCHER ACCESS:     235987  HIT:     235987  MISS:          0  HIT %:        100  MISS %:          0   MPKI: 0
PSCL3 PREFETCH  REQUESTED:          0  ISSUED:          0  USEFUL:          0  USELESS:          0
PSCL3 USEFUL LOAD PREFETCHES:          0 PREFETCH ISSUED TO LOWER LEVEL:          0  ACCURACY: -nan
PSCL3 TIMELY PREFETCHES:          0 LATE PREFETCHES: 0 DROPPED PREFETCHES: 0
PSCL3 PREFETCHES SAME FILL-ORIGIN LEVEL: 0 DIFFERENT FILL-ORIGIN LEVEL: 0

PSCL2 TOTAL     ACCESS:     146065  HIT:     146033  MISS:         32  HIT %:    99.9781  MISS %:  0.0219081   MPKI: 0.00016
PSCL2 LOAD TRANSLATION ACCESS:       2654  HIT:       2622  MISS:         32  HIT %:    98.7943  MISS %:    1.20573   MPKI: 0.00016
PSCL2 TRANSLATION FROM L1D PREFETCHER ACCESS:     143411  HIT:     143411  MISS:          0  HIT %:        100  MISS %:          0   MPKI: 0
PSCL2 PREFETCH  REQUESTED:          0  ISSUED:          0  USEFUL:          0  USELESS:          0
PSCL2 USEFUL LOAD PREFETCHES:          0 PREFETCH ISSUED TO LOWER LEVEL:          0  ACCURACY: -nan
PSCL2 TIMELY PREFETCHES:          0 LATE PREFETCHES: 0 DROPPED PREFETCHES: 0
PSCL2 PREFETCHES SAME FILL-ORIGIN LEVEL: 0 DIFFERENT FILL-ORIGIN LEVEL: 0

LLC TOTAL     ACCESS:     611019  HIT:     603853  MISS:       7166  HIT %:    98.8272  MISS %:    1.17279   MPKI: 0.03583
LLC LOAD      ACCESS:     282861  HIT:     279332  MISS:       3529  HIT %:    98.7524  MISS %:    1.24761   MPKI: 0.017645
LLC RFO       ACCESS:      31631  HIT:      31443  MISS:        188  HIT %:    99.4056  MISS %:   0.594354   MPKI: 0.00094
LLC PREFETCH  ACCESS:     151026  HIT:     147678  MISS:       3348  HIT %:    97.7832  MISS %:    2.21684   MPKI: 0.01674
AGUS PREFETCH L1 MISS: 0
LLC WRITEBACK ACCESS:     143559  HIT:     143474  MISS:         85  HIT %:    99.9408  MISS %:  0.0592091   MPKI: 0.000425
LLC LOAD TRANSLATION ACCESS:       1072  HIT:       1058  MISS:         14  HIT %:     98.694  MISS %:    1.30597   MPKI: 7e-05
LLC TRANSLATION FROM L1D PREFETCHER ACCESS:        870  HIT:        868  MISS:          2  HIT %:    99.7701  MISS %:   0.229885   MPKI: 1e-05
LLC PREFETCH  REQUESTED:          0  ISSUED:          0  USEFUL:       1471  USELESS:        739
LLC USEFUL LOAD PREFETCHES:       1471 PREFETCH ISSUED TO LOWER LEVEL:       3348  ACCURACY: 43.9367
LLC TIMELY PREFETCHES:       1471 LATE PREFETCHES: 0 DROPPED PREFETCHES: 0
LLC PREFETCHES SAME FILL-ORIGIN LEVEL: 0 DIFFERENT FILL-ORIGIN LEVEL: 0
LLC AVERAGE MISS LATENCY: 109.029 cycles
LLC RQ	ACCESS:     316436	FORWARD:          0	MERGED:          0	TO_CACHE:     316434
LLC WQ	ACCESS:     143559	FORWARD:          2	MERGED:          0	TO_CACHE:     143559
LLC PQ	ACCESS:     151026	FORWARD:          0	MERGED:          0	TO_CACHE:     151026

LLC Dense regions hint to LLC: 0

RAW hits: 2742175
Loads Generated: 46027606
Loads sent to L1D: 43285430
Stores Generated: 24968544
Stores sent to L1D: 24968545
Major fault: 0 Minor fault: 1244
Allocated PAGES: 1244
ucb ended
-----------------------------------------------------------------------------------------------------------------------------------------------------------------------------------------------------
Offsets elements: -1 -12499226 1 12499216 10 -7 9 -12499214 -160653 8 -2200606457941 2200606457932 12928273 -319659 203159 -12811773 12608614 -12608614 -2200606457933 2200606457941 -8 12456268 203588 -12659856 12630439 297835 -116500 2 7748 -159667 12819523 -210894 319644 -69567 -198849 -1050600 847010 472006 -472006 472005 -1319016 1021181 -1021179 -2200618800728 2200618800727 203589 -2200618998890 2200618998891 268416 1050601 -12659857 -2200606339033 2200618998893 7 -80437 80438 -12499215 12418777 -2200619005943 2204739 2200604301990 -155429 12654643 -12654643 12654631 -12654632 12574206 80430 -12654636 12654633 11 155429 12499213 -13306 -2200606449850 2200606449859 12936347 -12936356 12819856 -12819856 12616697 -12616697 -9 12464394 174127 29418 268418 -151918 159667 -12827606 12616712 210894 108750 -1249449 847053 -847053 847054 471962 -297835 -1021181 -2200617953718 2200618800771 -2200618795345 -12667939 -2200606330951 -12654644 2210706 2200604140594 80426 -12654469 12654471 -12654470 12654474 -12654474 3 -12654482 12654481 12654642 -12654481 -13277 12936164 -2200619386206 2200606450050 12819665 -12819664 12616505 -2200619066547 2200606450042 12464299 471865 181335 -159666 -12667747 12616520 250077 69567 847150 -847150 847151 174031 2200618800867 -2200618795441 1050600 -2200618998891 2200606331144 12667750 80437 12654482 -2 -5 80442 -80442 1464304 2200604887158 -12654478 12574040 -12574041 12574041 12654470 -12654472 -12654471 12654472 4 -12654479 12654478 12654480 -13270 -2200606450061 2200606450069 12936147 -12936155 12819655 -203159 -12616496 12616496 12464293 -12464301 12638320 29419 -12667739 12936155 -12667740 12616511 -203440 471855 -471855 -847161 847162 174020 2200619004316 -203438 -2200618795452 2200618998892 268415 1050602 -2200606331152 2200618998894 -12667742 12667743 268409 -268407 12951125 -12951126 -2200606463340 2200606463341 12654469 12814612 -211372 250076 -198846 160143 -160142 -160141 6 -12668517 12965165 -296654 296654 -1329207 -11621917 296655 -500095 -72465551954 72466052049 -500096 -2200618916999 121548 2200619295541 -12951125 -12667732 12964387 -1329204 1032548 -13265 12964390 -2200619417087 2200619417088 -2200619417091 2200618916999 5 174021 -2200619005935 2200619005935 296650 -2200619299554 2200619002907 -1032557 -3 -72464722841 72464722843 1032551 -12654989 12654981 -12654981 -72464722843 72465755396 268413 -268409 296646 13270 -13262 1032558 268406 -268406 -5975 5975 -5976 -74468 -2200618925506 2200614635988 -3739760500 3739760500 14868646 -10498689 10498687 -10498687 268378 -268373 -288223780699036678 18884043 -1466015488728 1465996615285 -1465996615251 288225246706138116 -10228415 -2200619392522 2200619392547 -274381 -5970 302617 -2200606344421 2200606331151 12667749 296647 -2200606450060 2200619414455 -12951124 -12814612 12603240 211372 12853316 -250076 1050609 -2200606330382 2200618795451 203448 12465069 -2200618916978 2200619120426 12465070 -6 174018 -174018 203445 -29426 29427 268408 268405 -268403 151905 -2200619156303 2200619004394 268407 -2200619156302 2200619004393 -2200619004393 2200619004397 -268382 268380 -288223780680152623 -1466015488739 1466015488731 -18873446 18873444 -1466015488743 1466015488741 -1466015482491 -62 -6179 1466015488735 -18873448 -1465996609087 1466015482541 -1466015482546 -14 1465996494688 -1465996494681 1466015482548 -1466015480399 -2159 -5939 5946 1144 -1150 1163 -1165 140 -126 -6192 18873446 -1466015490745 -315 1466015491063 -1466015488734 -1465996617613 2355 1466015488701 1466015488728 -18873443 18873443 -1466015490742 1466015490744 -1466015490744 -316 1466015491064 1466015490743 -18873444 -1466015482530 1466015482533 -1466015482544 -5950 5939 1151 -1137 -1722 1722 1145 -2867 3309 13 -3322 3322 1466015484263 -1466015480941 -698 -901 -17 -6262 1466015488679 -1466015482554 -1466015482537 -6191 6182 -16 -2917 -3265 6195 -3722 1465996612812 -1465996609105 -3707 -1867 6730 -6739 1875 4944 -7416 -15 -6180 -1465996609090 1141 -1145 -10 1234 -4942 -1889 -30 5627 1155 79 -4941 -1934 5643 76 -4940 3722 -6201 6183 -5946 2230 4860 -1154 -3728 3728 -6198 -4 -5686 5695 -5948 7090 -1142 1153 -13 1143 14 15 1466015482403 -1466015488665 1466015488665 -1466015482542 1466015482396 -1466015488227 -467 -1856 2318 -2318 8013 -7317 466 5696 -8017 1830 25 2457 3707 -8019 3129 4890 -6164 6164 905 -905 18873433 -1466015490546 -502 1466015491051 -1466015488721 -1465996615258 1466015488688 -1466015488715 1466015488715 -18873430 -1465996617113 1466015490544 -18873431 -1466015482529 8019 -1465996615328 43 18873431 -1466015491020 -25 1466015491048 -1466015491017 -26 1466015491049 -1466015488720 1466015488687 -1466015488714 1466015488714 -18873429 18873428 -1466015491015 -27 1466015491016 -18873437 18873439 -1466015482526 126 -8150 9167 -1143 -11 -6174 -2041 8215 -6175 6292 -118 6175 -8059 8059 -1834 8009 137 -19 1465996494692 -1465996494676 -1466015482399 1466015482400 -1466015488725 1466015482542 -1466015488481 1466015481390 -1466015481381 1466015481382 1466015488722 -18873441 18873441 -1466015488727 1466015488730 -1466015488731 18873447 -18873450 1466015482540 -1466015482417 1466015482416 -1466015482416 1466015482418 -1466015482415 -145 -6172 -1465996614765 5660 -2914 -795 -1855 5564 44 -45 1466015488676 -1466015488116 -5564 -619 7339 -7095 6089 1465996494541 -1465996494673 1133 1236 1466015481320 -1466015481398 -1018 -123 1466015482535 -1466015486260 3847 -6320 -1465996608955 1466015482407 -6331 -1465996614679 5574 1156 -4863 4943 -1465996614702 5597 -3752 -2472 -1465996614732 -3708 3752 16 1465996494672 -1465996498396 3724 -6195 537 1465996609105 -1465996609062 -2471 -3727 3708 47 83 -82 1466015482473 -1466015482534 1466015482395 24 1466015482417 -23 -1466015488718 1465996494687 -1465996500626 -1134 1465996494671 2535 -9875 -114418 -1465996490992 -9861 2477 1465996498377 -1465996494626 1466015482373 -1466015482454 82 1465996494550 -1465996494540 -1465996500868 -1465996615236 288225246706138101 -2200619392506 2200619392531 5972 71185 -71183 71186 -12687241 -2200606473489 2200619360125 -2200619252419 2200619250217 -288223780680421041 288223780680423243 -2202 2204 -270586 270586 -2204 10228140 -10228140 -2200618975354 -114237 2200619360197 -2224 2205 -2200619252420 2200619252423 -10496523 2200618975354 268379 -288223780680152667 -18873409 18873408 -18987822 18987825 -18987828 -1465996500833 1465996555184 288223780709582931 -2200619392524 2200619392549 -71185 -71189 268384 -288223780680421038 288223780680152656 268382 -268387 268387 -268384 71187 -71182 -12616050 -2200606382851 2200619070084 -71191 71190 -12687238 12687238 -2200619160983 2200619160985 -12687235 12616056 -2200619089800 2200619089795 -4367348 4438538 -12687239 -2200606473488 2200606473488 12886636 -2200619252418 2200619250216 -268392 10496532 -10225927 -270598 -2200618975351 2200619245957 18 -270618 270594 22 -270613 270600 -270588 270591 17 -115443 -2200619137040 2200619252476 -2200619360334 2200619360342 -350009 79396 270601 12 270602 -270600 270598 -270595 270593 -2200619252417 2200619252442 -270591 270596 -63204 63204 -2200619252416 -23707 -235 2200614635836 14868626 -14868626 -10247462 96 -251333 251238 -2200619214474 2200614593298 14868639 -14868639 4369937 311864 -311861 312150 -3744442210 3744130061 -3744130062 3739760122 -3739760122 3744441948 -60648 -251242 2200619233061 -251239 -19363 19380 -19381 19361 -270616 270621 -19382 -2200619257577 2200619276937 -19355 19358 19 -2200619252439 -23704 2200619276144 -2200619276948 2200619006339 270616 -270610 251232 -251236 251235 19363 -288225246695635027 288225246695635020 251237 19383 -19383 -251230 270613 20 -2200619256767 2200619276128 -2200619276093 2200619276093 -2200619276129 2200619005524 270603 270620 -19380 19381 19378 -19379 -18 -270620 -270602 2200619276947 -270612 268392 -270599 -2200629471876 2200618975344 -12725717 38478 12687229 -1186778 1115590 -268408 -288223780680152668 -18987825 1465996494547 -1465996494537 1466015482375 -1466015482365 -1466015482375 -1465996500846 288225246706138128 2200619392524 -288223780680421039 288223780680421064 5971 -296646 296643 -500089 -2200618795454 2200619295544 1032556 -5971 77157 225459 -296643 71183 -12687232 -71186 -12616054 12412603 -4163902 4367353 -29433 100616 12687239 -71184 71184 -12616049 -71188 471866 -268416 -296648 12654473 -12667735 -2200619417086 2200619417087 13751 -13750 -500092 174019 -174020 500095 -296647 -2200619120441 2200619120438 296651 -500094 203430 -203430 -3743918669 3743918669 203431 -3744122100 3744122100 -203436 203439 -3744122103 3744122104 -3744122106 3744122103 3743918670 -2200618916990 2196874998320 203442 -203437 310402 -310409 310404 -3744432510 3744122107 296653 12964395 -347899 -981309 -12667738 -2200606304843 2200618921353 51227 296656 -1329208 1329208 -2200606463341 2200606463340 -160144 -770 12465071 12464301 -12464300 12667739 -296651 -11635187 51230 -12668510 770 12667741 -2200619160980 2200619089797 310396 -42017 -268390 310406 -310406 -310403 -51825 -2200619068293 2200619068293 51822 -3744122104 71191 2200619037964 123017 2200619252425 -2209 2200618975340 270617 -270622 -107858 2200619244896 -234568 350006 270606 -270617 -19361 -251240 -2200619257003 2200619317650 -41292 2196874859721 3744373341 -3744373341 60648 19360 -270605 270618 36 2200619276091 -270607 270625 268397 2200618975339 -51822 51825 -51826 -3744070282 3744070282 -310404 -3744122107 3744122108 -310405 296648 347899 -2200617940030 2200606304843 51233 -160139 -12668513 12667744 197225 -12884463 12884463 28235 -12667744 1032557 -38478 12654530 -12616043 1115591 268381 -268378 -288223780699140493 1466015482363 -1466015488713 1466015488694 18873410 -1466015482497 61 -63 150 -150 1465996494690 18987843 1466015488717 -18873434 1466015488725 -18873440 18873436 -1466015488722 1466015488727 18873440 -1465996615285 1466015488732 -18873447 -1466015482400 -132 18873449 -1466015488736 1466015488739 -18873454 18873451 -1466015482557 1465996494676 1465996494673 -1465996494669 1465996500626 -1465996493536 1008 -1001 1465996493529 -1465996492528 1536 -9878 5954 1136 -1133 -6187 6190 -1162 2918 -1465996494671 1150 117 -6315 -1465996609106 1465996494670 -1465996500871 5808 -6049 -104 -5712 -364 -1465996607954 613 1466015480792 -1466015481388 -1168 133 1465996494559 -1465996494690 62 78 -6265 1465996604897 288223780709533199 -2200619392525 2200619392550 302618 203451 296644 -28264 27 10228139 -10496521 28237 -12667741 121545 2200618998897 -203450 -2200619417088 2200619120443 -2200619302581 -300 2200619006235 10498740 -2200629502665 2200629500446 2005 -1441 -10497087 -2200619006138 2200619006138 -2200619003875 2200619003875 -12654480 12654479 -1032558 1032561 -37 -288223780680152626 -1466015482556 63 -64 -6126 6126 1465996548693 -31 208 -1465996548870 1465996548697 53603 6807 -60445 53638 -53432 -144 35 -1465996548695 1465996548804 -1465996543681 -5187 1465996548793 -33 -1465996548696 60 -60 59 1465996548661 -1465996548719 1465996548695 18933797 -18933798 -1466015482351 1465996548492 18933858 -18873449 -1465996608966 -6267 1465996554819 -1465996548553 1465996548522 -1465996548730 1465996548557 144 53432 -53541 -1465996548556 1465996548589 75 -5047 1465996548620 -1465996548555 116 1465996548440 -1465996548760 1465996548759 -18933859 18933860 -1466015482555 1466015482558 18873452 8324 1465996492528 -1465996494552 -3825 1465996498380 -1465996500817 1465996548733 -1465996548737 -1839 1465996550368 -1465996602162 1466015482420 -1466015484264 1465996550403 -35 60445 -60383 53576 -53603 18933859 -1466015482423 1465996608971 -1465996611417 2454 1465996494556 -1465996490995 1465996490993 2200606473489 -288223780680420998 288223780680423200 10225936 -2200619360197 2200619360180 2200619010328 -270603 -22 2200619276129 -19362 -2200619256766 2200619276126 -270592 251229 -2200619254964 2200619003733 -2200619006343 2200619276952 -19378 19382 251233 -60643 -251233 251234 60647 19375 -19358 -251237 251236 19359 -19360 -19354 19373 -2200619276125 -2200619360188 2200619360172 -19364 19371 -19370 19376 -2200619276957 2200619276948 -2200619276103 2200619276107 -2200619276950 2200619006343 -19371 19374 -19373 19354 -63209 43855 -19372 -72466006675 72466026045 2200619360183 -19365 -115425 -2200619137038 2200619137039 -234562 79391 207398 43840 -96069 115433 -2200619360329 -234560 349989 -63212 43847 60645 -24 -41268 60621 -311860 207423 43816 -96068 43332 52735 19355 60620 198502 52733 -311859 -2200619256915 2200619256915 -2200619256753 2200619256752 -60621 -251245 -2200619005678 2200618975491 281429 -2200619256900 2200619317520 -104421 104421 -2200619401493 2200619340872 251243 -251243 -311868 -2200619005656 2200619256900 -2200619005681 2200619005680 -2200619006334 657 -35697 349154 -313458 313458 -313457 313457 -313461 313462 -313463 -2200619319115 2200619005657 -2200619005658 2200619319117 -62217 17150 45064 -1594 1597 -2200619403088 2200619401491 -1597 62217 1595 470 -313933 313464 -313465 -311867 -313464 207449 -207448 207447 106013 -45064 2200618975336 313466 -2200619319796 2200619319796 62687 -313937 313459 -313459 198506 -198507 -96067 96067 -43854 -52214 96069 72466006674 -43816 -8914 52731 -313928 198508 52729 -106017 -207442 198510 -198511 251239 115421 -115433 96068 -330628 -2200619010336 52223 -2200619189261 2200619137040 -2200619244896 330638 60646 -60646 -234570 -17150 156688 -2200619293648 2200619233027 2200618496838 780099 -780097 484426 276316 -276315 -60644 43494 -391282 330636 -96066 10245290 -10575922 79386 -79393 292992 10284847 -10523705 10521792 -10245290 -391287 330642 -330639 330639 -2200619348220 2200619348220 251247 60644 -60645 -79397 292999 -10247206 -2200619257000 2200618926359 330643 -330638 -2200619017581 2200619348219 251246 -391255 391255 -79382 330629 -52457 10297748 -2200629502673 2200629504700 -10247319 10247319 -2200629504315 2200618926353 10577962 -2022 2200629473903 -10498567 213603 10285809 -10499410 10498450 -10577846 347793 -268395 268394 2200629471876 2200629472177 -11565569 1337128 -2200629502870 30994 2200619243736 10228443 -2200629503273 100 614 2200629504278 -10498559 10498564 -2200629504278 -10247317 -330642 10577954 -10498564 251252 2200619257001 330644 -330632 330634 241 2200619005509 -79392 -2200619256760 2200619256761 -330629 286774 72466006676 -60620 -104476 104500 -72466067316 72466067292 -43815 -8922 52737 -311875 198515 -198518 -72465962851 72465755392 198520 52736 -43845 43845 60622 -156689 -391250 286812 -8910 52727 -115414 -52725 114942 -207456 198531 -198532 251257 -2200619268374 2200618956495 -2200619005543 -83977 2200619340780 -330630 -104477 43856 -72466006676 72466006677 -60623 -96070 156690 -156688 -2200619317391 -2200618956503 3593437 2200615633801 -270733 270730 41148 -41137 -19478 392844 -62215 -43785 43786 19477 -270738 251261 -251258 270733 10225818 -10225816 -19474 19491 41153 19492 41129 -41146 -2200619276241 2200619276260 -270754 -19472 19474 -19476 19484 -115553 330630 -43840 43839 -41129 -19493 19493 41130 -41125 41125 -270755 270759 -19494 19476 -19475 19497 -19499 19494 19479 -2200619274461 2200619217684 -2200619217684 2200619274459 -2200619277069 2200619277075 -12 -2200619277057 2200619220294 -2200619220294 2200619277067 -270756 270762 -270759 -19498 -270760 -2200618972559 2200619223821 -41124 251262 -41132 -2200619277068 845 2200619276232 -56763 56778 -56778 56763 -213979 213979 56786 -56785 56781 -56783 56780 -56780 -213977 213977 -213982 -270758 213978 -213978 -213981 56759 -56760 -2200619195782 2200619252540 -213983 213985 78919 -78920 -3744344040 3739760141 -3739760141 3754628780 -3754628780 3744130051 213984 -2200619219727 -3754628856 3739760230 -3739760230 3744130130 270765 -21 -2200619277074 2200619277074 -2200619005507 -810 -270763 270763 -115561 2200619089699 -270761 -270753 -2200619005469 2200619005470 270754 -2200619276229 2200619005466 270753 -270752 270760 270761 270758 -270757 -270765 270756 -2200619276222 2200619276223 270736 23 -63341 -2200619212889 2200619276231 -2200619006312 2200619277073 -2200619276266 2200619276265 -270746 -2200619277080 2200619318200 -155196 251264 19475 -270740 -2200618981801 2200619252556 -19492 -19489 19489 -19490 -41150 -2200619277071 2200619277069 -19496 -2200619276246 2200619256771 -2200619256770 19500 43202 -313944 313944 -22567 22571 -158110 158110 -158111 142185 -298027 248397 -28 -248383 248371 -2200619254481 2200629502673 2200629502979 -3072 1652 -10247096 10247113 -2200629501581 2398 2200619003695 10495485 -10495485 -2200619006089 2200629501574 -10247099 -2200619369887 2200619369902 -85829 85826 10247105 -10332934 10332934 -10247109 -85828 85832 -85830 85830 -248381 248379 85829 -85827 85854 10247045 37 -10247114 32 -2200619254514 2200619168657 -162551 10495264 -10332713 -2200619252484 2200619166655 162551 27363 10219711 -10219711 10219741 31 -32 -10219710 -10219709 -113192 113192 -1308191 11527902 10219710 -2200629499559 2200619279848 -10219714 -10495452 248372 10247112 -10247110 -2200619369872 112272 -112275 2200629616988 -2200629504715 2200629505792 -2200629505792 33561 -145903 2200619121566 -2200619006085 831 -831 -115481 115481 2200619006086 -10495484 -2200629504712 2200619257602 -2200629616999 2200629616997 -10495486 10495449 -10247051 -248397 155839 158111 -313948 313946 313945 270737 -12940975 12940977 -115546 -2200619244895 2200619360454 -2200619276224 2200619276224 2200619277068 270735 -270734 207404 -207402 -72465755419 72465755419 10498565 -10498566 -2200619006330 2200619006333 10498559 -10498558 10498444 -10498443 268399 10230150 -2010 -268396 -268393 251230 19387 270587 -43850 -207379 -72465755424 72466006653 -270609 270604 -2200619276150 -2200619276947 -270604 270612 -2200619276145 2200619276145 -12886645 12616050 -2200618975353 -288223780699026076 -18987865 -1465996500875 3264 -3255 2481 -2484 8337 -998 -4857 -2481 5923 -3436 5838 -5838 5845 -5842 1466015480409 -1466015487307 6910 1466015480399 -1466015488738 1466015488740 18873455 -18987870 18987870 -1466015488744 1466015488744 -18873458 18873460 -1466015486280 5116 1465996493283 -1465996492527 1465996492530 -1465996494558 1465996554830 69 53507 -53638 -1465996550972 1465996604610 -1465996604610 612 1466015484271 -1466015482440 1466015482436 -18987877 -1465996500832 1465996604644 -103815 1465996494558 -1465996500849 8322 -5847 1465996498374 -1465996500828 1465996604915 -2200619392507 2200619392507 -5972 5973 -5969 5970 295900 -295899 -12615884 12911781 -2200619385439 2200606473658 12886406 -2145 2144 -2200619252360 2200629478356 2200618975350 270528 -20 21 -56297 56300 -270549 214249 -214247 293228 -293228 270545 -2200619276900 2200619006344 270549 -56300 56281 -56282 54135 -54137 56279 2200618981827 214253 -214252 79004 -293257 214252 -214253 270551 -270529 270529 -2200619276083 2200619276065 -270553 268386 -2200619252358 2200619252363 -2144 -268386 10496526 -10496525 -288223780680152618 2485 775 5072 1466015480407 -1465996494559 -1465996500862 3440 1465996494941 -6308 1465996500868 -1465996500624 -241 -1465996608057 -7203 7203 1465996547630 101 -100 -131 -53576 109 -109 -97 -1465996548620 1465996548653 18933803 -18933778 -1465996548787 124 -124 1465996548787 -1465996548786 1465996548760 108 18933692 -18933800 -1465996548759 1466015482564 -1466015488742 1466015488743 18873457 1466015486253 -1466015482565 -6122 -1466015482438 923 -923 1465996493637 -5938 1465996500624 -1465996494686 1055 -929 1465996494560 -1465996494684 122 1072 -1072 -254 258 -1465996494685 3259 2914 -1466015482563 -6184 5937 -129 -5993 6011 -6066 1465996500865 -1465996498382 3714 1465996494667 18987879 -5027 1465996499590 -1465996500864 2487 5848 -5848 -1061 6908 -5841 5847 -6908 -1429 1465996606948 -114421 -1465996494683 125 -108 -1726 -6415 8249 
Potential of Offsets elements: 2800.11 395.409 2217.6 28.4085 219.409 1191.41 417.409 28.4085 28.4085 519.409 28.4085 28.4085 253.409 92.4085 28.4085 28.4085 28.4085 28.4085 28.4085 28.4085 556.409 28.4085 28.4085 46.4085 60.4085 32.4085 28.4085 1893.41 28.4085 28.4085 28.4085 28.4085 28.4085 28.4085 37.4085 628.409 28.4085 28.4085 28.4085 28.4085 28.4085 28.4085 28.4085 28.4085 28.4085 28.4085 228.409 28.4085 32.4085 28.4085 28.4085 28.4085 28.4085 606.409 28.4085 28.4085 706.409 28.4085 28.4085 28.4085 28.4085 28.4085 28.4085 28.4085 28.4085 28.4085 28.4085 619.409 28.4085 28.4085 663.409 28.4085 28.4085 28.4085 28.4085 28.4085 28.4085 28.4085 108.409 28.4085 28.4085 28.4085 459.409 28.4085 28.4085 28.4085 30.4085 28.4085 202.409 88.4085 28.4085 28.4085 28.4085 28.4085 28.4085 28.4085 28.4085 28.4085 28.4085 156.409 32.4085 28.4085 28.4085 28.4085 28.4085 28.4085 28.4085 28.4085 28.4085 28.4085 28.4085 632.409 70.4085 28.4085 1434.41 90.4085 65.4085 28.4085 28.4085 28.4085 28.4085 28.4085 28.4085 48.4085 30.4085 28.4085 28.4085 28.4085 28.4085 28.4085 28.4085 28.4085 28.4085 28.4085 53.4085 33.4085 28.4085 28.4085 28.4085 28.4085 28.4085 28.4085 28.4085 28.4085 28.4085 445.409 28.4085 28.4085 1727.41 575.409 28.4085 28.4085 28.4085 28.4085 28.4085 28.4085 216.409 28.4085 28.4085 128.409 28.4085 28.4085 1423.41 28.4085 28.4085 28.4085 28.4085 63.4085 28.4085 28.4085 28.4085 28.4085 28.4085 28.4085 28.4085 28.4085 28.4085 100.409 28.4085 28.4085 44.4085 61.4085 28.4085 28.4085 28.4085 28.4085 28.4085 28.4085 58.4085 32.4085 28.4085 28.4085 28.4085 48.4085 28.4085 28.4085 28.4085 28.4085 28.4085 120.409 87.4085 28.4085 28.4085 52.4085 28.4085 28.4085 28.4085 28.4085 28.4085 28.4085 28.4085 118.409 28.4085 456.409 42.4085 28.4085 28.4085 28.4085 28.4085 28.4085 28.4085 28.4085 58.4085 28.4085 28.4085 36.4085 28.4085 28.4085 28.4085 28.4085 28.4085 28.4085 28.4085 38.4085 28.4085 28.4085 28.4085 28.4085 28.4085 1007.41 28.4085 28.4085 144.409 28.4085 28.4085 28.4085 102.409 711.409 28.4085 28.4085 28.4085 28.4085 32.4085 208.409 34.4085 28.4085 37.4085 32.4085 28.4085 28.4085 28.4085 28.4085 28.4085 160.409 28.4085 50.4085 30.4085 28.4085 28.4085 28.4085 28.4085 28.4085 28.4085 28.4085 28.4085 37.4085 34.4085 30.4085 28.4085 28.4085 48.4085 28.4085 28.4085 28.4085 28.4085 28.4085 28.4085 43.4085 28.4085 28.4085 28.4085 28.4085 28.4085 28.4085 28.4085 28.4085 28.4085 58.4085 31.4085 28.4085 28.4085 28.4085 28.4085 28.4085 28.4085 28.4085 28.4085 28.4085 53.4085 28.4085 850.409 42.4085 28.4085 28.4085 28.4085 28.4085 28.4085 70.4085 53.4085 57.4085 28.4085 28.4085 31.4085 28.4085 28.4085 28.4085 28.4085 28.4085 40.4085 28.4085 72.4085 51.4085 28.4085 37.4085 28.4085 28.4085 28.4085 46.4085 388.409 28.4085 28.4085 328.409 76.4085 28.4085 226.409 28.4085 28.4085 28.4085 29.4085 28.4085 28.4085 34.4085 137.409 28.4085 28.4085 28.4085 30.4085 28.4085 28.4085 28.4085 28.4085 28.4085 28.4085 83.4085 28.4085 28.4085 28.4085 28.4085 28.4085 28.4085 28.4085 28.4085 28.4085 28.4085 64.4085 28.4085 28.4085 38.4085 28.4085 28.4085 32.4085 223.409 36.4085 28.4085 40.4085 28.4085 28.4085 28.4085 28.4085 155.409 28.4085 28.4085 68.4085 28.4085 28.4085 46.4085 310.409 28.4085 36.4085 28.4085 28.4085 28.4085 123.409 239.409 28.4085 36.4085 394.409 28.4085 28.4085 72.4085 28.4085 28.4085 28.4085 28.4085 28.4085 28.4085 44.4085 217.409 28.4085 78.4085 28.4085 28.4085 539.409 28.4085 28.4085 28.4085 28.4085 37.4085 36.4085 42.4085 28.4085 28.4085 28.4085 28.4085 28.4085 28.4085 28.4085 30.4085 72.4085 34.4085 28.4085 28.4085 28.4085 28.4085 28.4085 983.409 28.4085 28.4085 28.4085 45.4085 57.4085 28.4085 352.409 28.4085 143.409 212.409 28.4085 28.4085 28.4085 28.4085 45.4085 28.4085 28.4085 28.4085 38.4085 28.4085 28.4085 28.4085 28.4085 28.4085 28.4085 50.4085 145.409 28.4085 30.4085 28.4085 28.4085 28.4085 55.4085 28.4085 28.4085 32.4085 121.409 28.4085 28.4085 28.4085 28.4085 28.4085 28.4085 40.4085 28.4085 28.4085 448.409 38.4085 28.4085 37.4085 28.4085 28.4085 126.409 28.4085 28.4085 28.4085 28.4085 421.409 32.4085 28.4085 51.4085 28.4085 28.4085 28.4085 28.4085 28.4085 28.4085 50.4085 639.409 28.4085 28.4085 28.4085 28.4085 28.4085 28.4085 93.4085 1200.41 28.4085 140.409 38.4085 28.4085 28.4085 28.4085 28.4085 28.4085 28.4085 28.4085 100.409 28.4085 120.409 28.4085 28.4085 28.4085 41.4085 28.4085 28.4085 28.4085 28.4085 51.4085 28.4085 36.4085 82.4085 28.4085 37.4085 28.4085 28.4085 28.4085 28.4085 87.4085 29.4085 28.4085 40.4085 41.4085 28.4085 28.4085 28.4085 28.4085 28.4085 38.4085 28.4085 28.4085 28.4085 32.4085 54.4085 28.4085 28.4085 28.4085 28.4085 29.4085 28.4085 28.4085 28.4085 30.4085 64.4085 28.4085 28.4085 28.4085 28.4085 28.4085 28.4085 31.4085 28.4085 28.4085 28.4085 67.4085 28.4085 28.4085 28.4085 28.4085 28.4085 28.4085 28.4085 28.4085 28.4085 86.4085 36.4085 28.4085 32.4085 85.4085 28.4085 28.4085 28.4085 100.409 28.4085 140.409 60.4085 28.4085 28.4085 28.4085 30.4085 28.4085 30.4085 28.4085 118.409 28.4085 82.4085 63.4085 158.409 28.4085 28.4085 28.4085 28.4085 28.4085 28.4085 28.4085 28.4085 28.4085 28.4085 29.4085 28.4085 28.4085 28.4085 28.4085 32.4085 28.4085 28.4085 28.4085 28.4085 30.4085 28.4085 28.4085 29.4085 28.4085 28.4085 28.4085 28.4085 28.4085 28.4085 28.4085 41.4085 37.4085 28.4085 28.4085 28.4085 28.4085 130.409 28.4085 28.4085 28.4085 28.4085 32.4085 28.4085 62.4085 36.4085 28.4085 38.4085 30.4085 28.4085 28.4085 28.4085 86.4085 28.4085 28.4085 28.4085 28.4085 28.4085 28.4085 28.4085 28.4085 28.4085 28.4085 28.4085 72.4085 36.4085 28.4085 28.4085 49.4085 108.409 28.4085 28.4085 28.4085 28.4085 28.4085 28.4085 28.4085 28.4085 28.4085 28.4085 28.4085 28.4085 28.4085 28.4085 28.4085 32.4085 32.4085 28.4085 28.4085 28.4085 28.4085 28.4085 28.4085 28.4085 79.4085 28.4085 28.4085 28.4085 33.4085 28.4085 441.409 28.4085 28.4085 36.4085 28.4085 28.4085 28.4085 28.4085 242.409 28.4085 38.4085 28.4085 28.4085 28.4085 28.4085 28.4085 28.4085 215.409 28.4085 28.4085 28.4085 28.4085 28.4085 28.4085 28.4085 28.4085 28.4085 28.4085 28.4085 28.4085 28.4085 28.4085 33.4085 28.4085 28.4085 28.4085 56.4085 28.4085 28.4085 28.4085 28.4085 28.4085 28.4085 28.4085 28.4085 28.4085 28.4085 28.4085 28.4085 28.4085 40.4085 28.4085 28.4085 28.4085 28.4085 28.4085 28.4085 28.4085 28.4085 28.4085 28.4085 28.4085 28.4085 28.4085 28.4085 28.4085 28.4085 28.4085 205.409 28.4085 28.4085 28.4085 28.4085 28.4085 28.4085 28.4085 28.4085 28.4085 28.4085 28.4085 28.4085 29.4085 28.4085 28.4085 28.4085 28.4085 28.4085 377.409 28.4085 28.4085 28.4085 28.4085 28.4085 35.4085 28.4085 28.4085 28.4085 28.4085 28.4085 28.4085 300.409 28.4085 28.4085 28.4085 28.4085 109.409 28.4085 68.4085 28.4085 28.4085 28.4085 28.4085 28.4085 28.4085 34.4085 40.4085 28.4085 28.4085 28.4085 28.4085 28.4085 28.4085 28.4085 28.4085 28.4085 42.4085 36.4085 98.4085 28.4085 28.4085 28.4085 28.4085 28.4085 28.4085 60.4085 29.4085 28.4085 28.4085 40.4085 28.4085 28.4085 35.4085 28.4085 28.4085 28.4085 41.4085 28.4085 28.4085 28.4085 28.4085 28.4085 28.4085 28.4085 28.4085 28.4085 28.4085 72.4085 28.4085 28.4085 28.4085 28.4085 28.4085 28.4085 28.4085 28.4085 28.4085 28.4085 39.4085 28.4085 28.4085 73.4085 28.4085 28.4085 28.4085 28.4085 28.4085 28.4085 104.409 72.4085 28.4085 245.409 60.4085 28.4085 28.4085 28.4085 28.4085 28.4085 28.4085 28.4085 28.4085 28.4085 226.409 43.4085 28.4085 28.4085 28.4085 28.4085 28.4085 28.4085 28.4085 28.4085 28.4085 28.4085 28.4085 28.4085 28.4085 28.4085 29.4085 28.4085 28.4085 158.409 28.4085 28.4085 76.4085 28.4085 28.4085 28.4085 28.4085 28.4085 28.4085 28.4085 28.4085 28.4085 160.409 32.4085 28.4085 28.4085 28.4085 28.4085 28.4085 28.4085 28.4085 28.4085 28.4085 42.4085 28.4085 72.4085 28.4085 136.409 28.4085 28.4085 28.4085 28.4085 28.4085 28.4085 28.4085 28.4085 28.4085 28.4085 28.4085 28.4085 28.4085 28.4085 28.4085 28.4085 28.4085 28.4085 34.4085 28.4085 28.4085 28.4085 28.4085 28.4085 28.4085 28.4085 28.4085 28.4085 287.409 28.4085 28.4085 28.4085 28.4085 28.4085 28.4085 28.4085 28.4085 28.4085 28.4085 73.4085 49.4085 28.4085 28.4085 28.4085 28.4085 28.4085 58.4085 28.4085 28.4085 28.4085 34.4085 28.4085 28.4085 28.4085 28.4085 42.4085 28.4085 28.4085 30.4085 40.4085 28.4085 53.4085 28.4085 28.4085 28.4085 35.4085 28.4085 28.4085 31.4085 183.409 28.4085 28.4085 46.4085 28.4085 28.4085 28.4085 28.4085 67.4085 28.4085 31.4085 57.4085 28.4085 44.4085 88.4085 28.4085 28.4085 28.4085 31.4085 72.4085 28.4085 28.4085 28.4085 28.4085 28.4085 31.4085 31.4085 28.4085 28.4085 29.4085 50.4085 28.4085 28.4085 31.4085 34.4085 28.4085 29.4085 28.4085 28.4085 30.4085 40.4085 82.4085 28.4085 28.4085 28.4085 28.4085 28.4085 32.4085 28.4085 28.4085 28.4085 28.4085 28.4085 28.4085 32.4085 34.4085 28.4085 29.4085 28.4085 28.4085 28.4085 28.4085 28.4085 28.4085 28.4085 28.4085 36.4085 28.4085 42.4085 28.4085 28.4085 28.4085 28.4085 28.4085 28.4085 28.4085 28.4085 28.4085 28.4085 31.4085 28.4085 28.4085 28.4085 28.4085 28.4085 28.4085 28.4085 28.4085 138.409 73.4085 28.4085 35.4085 28.4085 46.4085 68.4085 46.4085 28.4085 34.4085 28.4085 28.4085 46.4085 28.4085 28.4085 28.4085 38.4085 40.4085 32.4085 28.4085 28.4085 57.4085 28.4085 28.4085 36.4085 28.4085 28.4085 270.409 34.4085 35.4085 28.4085 38.4085 28.4085 28.4085 38.4085 52.4085 28.4085 28.4085 28.4085 32.4085 28.4085 28.4085 28.4085 28.4085 28.4085 42.4085 28.4085 28.4085 28.4085 34.4085 37.4085 28.4085 28.4085 34.4085 28.4085 28.4085 50.4085 28.4085 28.4085 29.4085 72.4085 32.4085 28.4085 117.409 80.4085 28.4085 28.4085 28.4085 28.4085 28.4085 35.4085 31.4085 28.4085 28.4085 28.4085 28.4085 28.4085 31.4085 28.4085 28.4085 245.409 36.4085 72.4085 28.4085 28.4085 28.4085 28.4085 28.4085 39.4085 28.4085 28.4085 28.4085 28.4085 28.4085 28.4085 28.4085 28.4085 28.4085 28.4085 31.4085 28.4085 274.409 30.4085 28.4085 28.4085 28.4085 28.4085 28.4085 28.4085 28.4085 28.4085 28.4085 28.4085 28.4085 28.4085 28.4085 28.4085 28.4085 28.4085 28.4085 28.4085 28.4085 28.4085 28.4085 34.4085 28.4085 28.4085 28.4085 28.4085 28.4085 28.4085 28.4085 28.4085 28.4085 28.4085 38.4085 28.4085 28.4085 28.4085 28.4085 28.4085 28.4085 28.4085 28.4085 28.4085 28.4085 28.4085 28.4085 28.4085 28.4085 28.4085 28.4085 31.4085 28.4085 28.4085 106.409 28.4085 28.4085 28.4085 28.4085 28.4085 28.4085 28.4085 28.4085 28.4085 28.4085 327.409 28.4085 28.4085 28.4085 28.4085 28.4085 28.4085 28.4085 28.4085 28.4085 28.4085 28.4085 28.4085 28.4085 28.4085 28.4085 28.4085 28.4085 28.4085 28.4085 28.4085 29.4085 28.4085 28.4085 28.4085 28.4085 28.4085 28.4085 28.4085 28.4085 28.4085 28.4085 32.4085 28.4085 28.4085 28.4085 28.4085 28.4085 28.4085 28.4085 28.4085 28.4085 28.4085 28.4085 28.4085 28.4085 28.4085 28.4085 28.4085 28.4085 28.4085 28.4085 28.4085 28.4085 28.4085 28.4085 28.4085 28.4085 28.4085 28.4085 29.4085 28.4085 28.4085 28.4085 79.4085 28.4085 28.4085 28.4085 28.4085 28.4085 28.4085 28.4085 28.4085 28.4085 28.4085 28.4085 28.4085 28.4085 28.4085 28.4085 28.4085 28.4085 28.4085 28.4085 28.4085 28.4085 28.4085 28.4085 28.4085 28.4085 28.4085 28.4085 28.4085 28.4085 28.4085 28.4085 28.4085 28.4085 28.4085 28.4085 28.4085 28.4085 28.4085 28.4085 28.4085 28.4085 29.4085 28.4085 28.4085 28.4085 28.4085 28.4085 28.4085 28.4085 28.4085 28.4085 28.4085 28.4085 28.4085 28.4085 28.4085 28.4085 28.4085 28.4085 28.4085 28.4085 28.4085 28.4085 28.4085 28.4085 28.4085 32.4085 28.4085 28.4085 28.4085 28.4085 28.4085 28.4085 28.4085 28.4085 28.4085 28.4085 28.4085 28.4085 28.4085 28.4085 28.4085 28.4085 28.4085 28.4085 28.4085 28.4085 28.4085 104.409 28.4085 28.4085 28.4085 28.4085 28.4085 28.4085 28.4085 28.4085 28.4085 28.4085 28.4085 28.4085 28.4085 28.4085 28.4085 28.4085 28.4085 28.4085 28.4085 28.4085 28.4085 37.4085 28.4085 28.4085 28.4085 28.4085 28.4085 28.4085 28.4085 40.4085 28.4085 44.4085 34.4085 28.4085 31.4085 32.4085 28.4085 28.4085 28.4085 28.4085 28.4085 28.4085 28.4085 69.4085 28.4085 28.4085 28.4085 28.4085 28.4085 132.409 30.4085 35.4085 28.4085 28.4085 28.4085 28.4085 28.4085 28.4085 28.4085 28.4085 28.4085 28.4085 28.4085 28.4085 28.4085 28.4085 28.4085 28.4085 28.4085 28.4085 28.4085 28.4085 28.4085 28.4085 28.4085 28.4085 28.4085 28.4085 28.4085 28.4085 28.4085 28.4085 28.4085 28.4085 28.4085 28.4085 58.4085 28.4085 28.4085 28.4085 28.4085 28.4085 28.4085 28.4085 28.4085 28.4085 28.4085 28.4085 28.4085 28.4085 28.4085 28.4085 28.4085 28.4085 28.4085 28.4085 28.4085 28.4085 28.4085 28.4085 28.4085 28.4085 28.4085 28.4085 28.4085 28.4085 28.4085 28.4085 28.4085 28.4085 28.4085 28.4085 28.4085 28.4085 28.4085 28.4085 28.4085 28.4085 28.4085 28.4085 28.4085 31.4085 28.4085 28.4085 28.4085 28.4085 28.4085 28.4085 28.4085 28.4085 28.4085 28.4085 28.4085 28.4085 28.4085 28.4085 28.4085 28.4085 28.4085 28.4085 28.4085 28.4085 28.4085 28.4085 28.4085 28.4085 28.4085 28.4085 28.4085 510.409 28.4085 28.4085 28.4085 28.4085 28.4085 28.4085 28.4085 28.4085 28.4085 28.4085 28.4085 28.4085 28.4085 28.4085 28.4085 28.4085 28.4085 28.4085 28.4085 28.4085 28.4085 28.4085 28.4085 28.4085 28.4085 28.4085 28.4085 28.4085 28.4085 28.4085 28.4085 28.4085 28.4085 28.4085 28.4085 28.4085 28.4085 28.4085 28.4085 28.4085 28.4085 28.4085 28.4085 28.4085 28.4085 28.4085 46.4085 28.4085 28.4085 28.4085 28.4085 28.4085 28.4085 28.4085 28.4085 28.4085 28.4085 345.409 28.4085 28.4085 28.4085 28.4085 28.4085 28.4085 28.4085 28.4085 28.4085 28.4085 31.4085 28.4085 28.4085 28.4085 28.4085 28.4085 28.4085 28.4085 28.4085 28.4085 28.4085 28.4085 28.4085 28.4085 28.4085 28.4085 237.409 28.4085 28.4085 28.4085 77.4085 28.4085 28.4085 28.4085 28.4085 28.4085 28.4085 28.4085 28.4085 28.4085 28.4085 38.4085 28.4085 28.4085 28.4085 28.4085 28.4085 28.4085 28.4085 28.4085 28.4085 28.4085 28.4085 28.4085 28.4085 28.4085 28.4085 28.4085 28.4085 28.4085 28.4085 28.4085 28.4085 28.4085 28.4085 28.4085 95.4085 28.4085 28.4085 28.4085 28.4085 28.4085 28.4085 28.4085 28.4085 28.4085 28.4085 28.4085 28.4085 28.4085 28.4085 28.4085 28.4085 28.4085 28.4085 32.4085 28.4085 28.4085 28.4085 28.4085 28.4085 28.4085 28.4085 28.4085 28.4085 28.4085 28.4085 28.4085 28.4085 28.4085 28.4085 28.4085 54.4085 28.4085 32.4085 28.4085 28.4085 123.409 28.4085 28.4085 28.4085 28.4085 28.4085 28.4085 28.4085 28.4085 28.4085 28.4085 313.409 28.4085 28.4085 28.4085 28.4085 28.4085 28.4085 28.4085 28.4085 28.4085 46.4085 28.4085 28.4085 28.4085 28.4085 28.4085 28.4085 28.4085 28.4085 28.4085 28.4085 37.4085 28.4085 28.4085 28.4085 28.4085 28.4085 28.4085 28.4085 28.4085 28.4085 28.4085 47.4085 28.4085 28.4085 28.4085 28.4085 28.4085 28.4085 28.4085 28.4085 28.4085 28.4085 28.4085 28.4085 28.4085 28.4085 28.4085 28.4085 28.4085 28.4085 28.4085 41.4085 28.4085 28.4085 28.4085 28.4085 28.4085 28.4085 28.4085 28.4085 28.4085 28.4085 116.409 28.4085 41.4085 28.4085 28.4085 28.4085 28.4085 28.4085 41.4085 78.4085 28.4085 28.4085 28.4085 28.4085 28.4085 28.4085 28.4085 28.4085 28.4085 28.4085 28.4085 28.4085 28.4085 28.4085 28.4085 28.4085 28.4085 28.4085 28.4085 28.4085 28.4085 28.4085 28.4085 28.4085 31.4085 28.4085 29.4085 28.4085 28.4085 28.4085 28.4085 28.4085 28.4085 28.4085 28.4085 87.4085 28.4085 28.4085 28.4085 74.4085 43.4085 28.4085 28.4085 28.4085 28.4085 28.4085 46.4085 28.4085 28.4085 28.4085 28.4085 28.4085 28.4085 28.4085 28.4085 28.4085 28.4085 32.4085 28.4085 28.4085 28.4085 28.4085 28.4085 28.4085 28.4085 28.4085 28.4085 28.4085 32.4085 81.4085 28.4085 28.4085 28.4085 30.4085 28.4085 28.4085 28.4085 28.4085 33.4085 28.4085 47.4085 28.4085 28.4085 28.4085 28.4085 28.4085 28.4085 28.4085 28.4085 28.4085 50.4085 28.4085 28.4085 28.4085 28.4085 272.409 219.409 28.4085 28.4085 28.4085 28.4085 28.4085 28.4085 28.4085 28.4085 28.4085 28.4085 28.4085 28.4085 28.4085 28.4085 28.4085 28.4085 28.4085 28.4085 28.4085 28.4085 28.4085 28.4085 28.4085 28.4085 28.4085 28.4085 28.4085 28.4085 28.4085 28.4085 118.409 28.4085 28.4085 28.4085 28.4085 58.4085 38.4085 28.4085 28.4085 28.4085 28.4085 28.4085 28.4085 28.4085 28.4085 28.4085 28.4085 28.4085 28.4085 28.4085 28.4085 28.4085 28.4085 28.4085 28.4085 35.4085 28.4085 30.4085 35.4085 50.4085 49.4085 28.4085 28.4085 28.4085 28.4085 28.4085 28.4085 28.4085 28.4085 115.409 46.4085 50.4085 28.4085 28.4085 28.4085 28.4085 28.4085 28.4085 28.4085 148.409 33.4085 28.4085 28.4085 29.4085 28.4085 28.4085 50.4085 28.4085 28.4085 29.4085 28.4085 28.4085 28.4085 28.4085 28.4085 28.4085 30.4085 28.4085 28.4085 28.4085 28.4085 333.409 30.4085 28.4085 63.4085 28.4085 28.4085 28.4085 28.4085 28.4085 28.4085 46.4085 29.4085 28.4085 28.4085 28.4085 28.4085 28.4085 28.4085 28.4085 28.4085 33.4085 31.4085 28.4085 29.4085 28.4085 28.4085 28.4085 28.4085 28.4085 28.4085 28.4085 28.4085 
rewards of Offsets elements: 2800 367 2206 0 191 1163 389 0 0 491 0 0 225 64 0 0 0 0 0 0 528 0 0 18 32 4 0 1865 0 0 0 0 0 0 9 600 0 0 0 0 0 0 0 0 0 0 200 0 4 0 0 0 0 578 0 0 678 0 0 0 0 0 0 0 0 0 0 591 0 0 635 0 0 0 0 0 0 0 80 0 0 0 431 0 0 0 2 0 174 60 0 0 0 0 0 0 0 0 0 128 4 0 0 0 0 0 0 0 0 0 0 604 42 0 1406 62 37 0 0 0 0 0 0 20 2 0 0 0 0 0 0 0 0 0 25 5 0 0 0 0 0 0 0 0 0 417 0 0 1699 547 0 0 0 0 0 0 188 0 0 100 0 0 1395 0 0 0 0 35 0 0 0 0 0 0 0 0 0 72 0 0 16 33 0 0 0 0 0 0 30 4 0 0 0 20 0 0 0 0 0 92 59 0 0 24 0 0 0 0 0 0 0 90 0 428 14 0 0 0 0 0 0 0 30 0 0 8 0 0 0 0 0 0 0 10 0 0 0 0 0 979 0 0 116 0 0 0 74 683 0 0 0 0 4 180 6 0 9 4 0 0 0 0 0 132 0 22 2 0 0 0 0 0 0 0 0 9 6 2 0 0 20 0 0 0 0 0 0 15 0 0 0 0 0 0 0 0 0 30 3 0 0 0 0 0 0 0 0 0 25 0 822 14 0 0 0 0 0 42 25 29 0 0 3 0 0 0 0 0 12 0 44 23 0 9 0 0 0 18 360 0 0 300 48 0 198 0 0 0 1 0 0 6 109 0 0 0 2 0 0 0 0 0 0 55 0 0 0 0 0 0 0 0 0 0 36 0 0 10 0 0 4 195 8 0 12 0 0 0 0 127 0 0 40 0 0 18 282 0 8 0 0 0 95 211 0 8 366 0 0 44 0 0 0 0 0 0 16 189 0 50 0 0 511 0 0 0 0 9 8 14 0 0 0 0 0 0 0 2 44 6 0 0 0 0 0 955 0 0 0 17 29 0 324 0 115 184 0 0 0 0 17 0 0 0 10 0 0 0 0 0 0 22 117 0 2 0 0 0 27 0 0 4 93 0 0 0 0 0 0 12 0 0 420 10 0 9 0 0 98 0 0 0 0 393 4 0 23 0 0 0 0 0 0 22 611 0 0 0 0 0 0 65 1172 0 112 10 0 0 0 0 0 0 0 72 0 92 0 0 0 13 0 0 0 0 23 0 8 54 0 9 0 0 0 0 59 1 0 12 13 0 0 0 0 0 10 0 0 0 4 26 0 0 0 0 1 0 0 0 2 36 0 0 0 0 0 0 3 0 0 0 39 0 0 0 0 0 0 0 0 0 58 8 0 4 57 0 0 0 72 0 112 32 0 0 0 2 0 2 0 90 0 54 35 130 0 0 0 0 0 0 0 0 0 0 1 0 0 0 0 4 0 0 0 0 2 0 0 1 0 0 0 0 0 0 0 13 9 0 0 0 0 102 0 0 0 0 4 0 34 8 0 10 2 0 0 0 58 0 0 0 0 0 0 0 0 0 0 0 44 8 0 0 21 80 0 0 0 0 0 0 0 0 0 0 0 0 0 0 0 4 4 0 0 0 0 0 0 0 51 0 0 0 5 0 413 0 0 8 0 0 0 0 214 0 10 0 0 0 0 0 0 187 0 0 0 0 0 0 0 0 0 0 0 0 0 0 5 0 0 0 28 0 0 0 0 0 0 0 0 0 0 0 0 0 12 0 0 0 0 0 0 0 0 0 0 0 0 0 0 0 0 0 177 0 0 0 0 0 0 0 0 0 0 0 0 1 0 0 0 0 0 349 0 0 0 0 0 7 0 0 0 0 0 0 272 0 0 0 0 81 0 40 0 0 0 0 0 0 6 12 0 0 0 0 0 0 0 0 0 14 8 70 0 0 0 0 0 0 32 1 0 0 12 0 0 7 0 0 0 13 0 0 0 0 0 0 0 0 0 0 44 0 0 0 0 0 0 0 0 0 0 11 0 0 45 0 0 0 0 0 0 76 44 0 217 32 0 0 0 0 0 0 0 0 0 198 15 0 0 0 0 0 0 0 0 0 0 0 0 0 0 1 0 0 130 0 0 48 0 0 0 0 0 0 0 0 0 132 4 0 0 0 0 0 0 0 0 0 14 0 44 0 108 0 0 0 0 0 0 0 0 0 0 0 0 0 0 0 0 0 0 6 0 0 0 0 0 0 0 0 0 259 0 0 0 0 0 0 0 0 0 0 45 21 0 0 0 0 0 30 0 0 0 6 0 0 0 0 14 0 0 2 12 0 25 0 0 0 7 0 0 3 155 0 0 18 0 0 0 0 39 0 3 29 0 16 60 0 0 0 3 44 0 0 0 0 0 3 3 0 0 1 22 0 0 3 6 0 1 0 0 2 12 54 0 0 0 0 0 4 0 0 0 0 0 0 4 6 0 1 0 0 0 0 0 0 0 0 8 0 14 0 0 0 0 0 0 0 0 0 0 3 0 0 0 0 0 0 0 0 110 45 0 7 0 18 40 18 0 6 0 0 18 0 0 0 10 12 4 0 0 29 0 0 8 0 0 242 6 7 0 10 0 0 10 24 0 0 0 4 0 0 0 0 0 14 0 0 0 6 9 0 0 6 0 0 22 0 0 1 44 4 0 89 52 0 0 0 0 0 7 3 0 0 0 0 0 3 0 0 217 8 44 0 0 0 0 0 11 0 0 0 0 0 0 0 0 0 0 3 0 246 2 0 0 0 0 0 0 0 0 0 0 0 0 0 0 0 0 0 0 0 0 0 6 0 0 0 0 0 0 0 0 0 0 10 0 0 0 0 0 0 0 0 0 0 0 0 0 0 0 0 3 0 0 78 0 0 0 0 0 0 0 0 0 0 299 0 0 0 0 0 0 0 0 0 0 0 0 0 0 0 0 0 0 0 0 1 0 0 0 0 0 0 0 0 0 0 4 0 0 0 0 0 0 0 0 0 0 0 0 0 0 0 0 0 0 0 0 0 0 0 0 0 0 0 1 0 0 0 51 0 0 0 0 0 0 0 0 0 0 0 0 0 0 0 0 0 0 0 0 0 0 0 0 0 0 0 0 0 0 0 0 0 0 0 0 0 0 0 0 0 1 0 0 0 0 0 0 0 0 0 0 0 0 0 0 0 0 0 0 0 0 0 0 0 0 4 0 0 0 0 0 0 0 0 0 0 0 0 0 0 0 0 0 0 0 0 0 76 0 0 0 0 0 0 0 0 0 0 0 0 0 0 0 0 0 0 0 0 0 9 0 0 0 0 0 0 0 12 0 16 6 0 3 4 0 0 0 0 0 0 0 41 0 0 0 0 0 104 2 7 0 0 0 0 0 0 0 0 0 0 0 0 0 0 0 0 0 0 0 0 0 0 0 0 0 0 0 0 0 0 0 0 0 0 30 0 0 0 0 0 0 0 0 0 0 0 0 0 0 0 0 0 0 0 0 0 0 0 0 0 0 0 0 0 0 0 0 0 0 0 0 0 0 0 0 0 0 0 0 3 0 0 0 0 0 0 0 0 0 0 0 0 0 0 0 0 0 0 0 0 0 0 0 0 0 0 0 482 0 0 0 0 0 0 0 0 0 0 0 0 0 0 0 0 0 0 0 0 0 0 0 0 0 0 0 0 0 0 0 0 0 0 0 0 0 0 0 0 0 0 0 0 0 0 18 0 0 0 0 0 0 0 0 0 0 317 0 0 0 0 0 0 0 0 0 0 3 0 0 0 0 0 0 0 0 0 0 0 0 0 0 0 209 0 0 0 49 0 0 0 0 0 0 0 0 0 0 10 0 0 0 0 0 0 0 0 0 0 0 0 0 0 0 0 0 0 0 0 0 0 0 0 67 0 0 0 0 0 0 0 0 0 0 0 0 0 0 0 0 0 0 4 0 0 0 0 0 0 0 0 0 0 0 0 0 0 0 0 26 0 4 0 0 95 0 0 0 0 0 0 0 0 0 0 285 0 0 0 0 0 0 0 0 0 18 0 0 0 0 0 0 0 0 0 0 9 0 0 0 0 0 0 0 0 0 0 19 0 0 0 0 0 0 0 0 0 0 0 0 0 0 0 0 0 0 0 13 0 0 0 0 0 0 0 0 0 0 88 0 13 0 0 0 0 0 13 50 0 0 0 0 0 0 0 0 0 0 0 0 0 0 0 0 0 0 0 0 0 0 0 0 3 0 1 0 0 0 0 0 0 0 0 59 0 0 0 46 15 0 0 0 0 0 18 0 0 0 0 0 0 0 0 0 0 4 0 0 0 0 0 0 0 0 0 0 4 53 0 0 0 2 0 0 0 0 5 0 19 0 0 0 0 0 0 0 0 0 22 0 0 0 0 244 191 0 0 0 0 0 0 0 0 0 0 0 0 0 0 0 0 0 0 0 0 0 0 0 0 0 0 0 0 0 0 90 0 0 0 0 30 10 0 0 0 0 0 0 0 0 0 0 0 0 0 0 0 0 0 0 7 0 2 7 22 21 0 0 0 0 0 0 0 0 87 18 22 0 0 0 0 0 0 0 120 5 0 0 1 0 0 22 0 0 1 0 0 0 0 0 0 2 0 0 0 0 305 2 0 35 0 0 0 0 0 0 18 1 0 0 0 0 0 0 0 0 5 3 0 1 0 0 0 0 0 0 0 0 Printing Sanity3
offset_index value2079
offset list size2079
reward size2079
potential size2079
-----------------------------------------------------------------------------------------------------------------------------------------------------------------------------------------------------

DRAM Statistics
 CHANNEL 0
 RQ ROW_BUFFER_HIT:       4235  ROW_BUFFER_MISS:       2846
 DBUS_CONGESTED:          6
 WQ ROW_BUFFER_HIT:        338  ROW_BUFFER_MISS:       1054  FULL:          0

 AVG_CONGESTED_CYCLE: 4
 All warmup complete: 2
Channel 0 Bank busy for read cycles: 0
Channel 0 Bank busy for write cycles: 0
Channel 0
Rank 0
0banks busy for read cycles: 523653609
0banks busy for write cycles: 725
1banks busy for read cycles: 219263
1banks busy for write cycles: 106016
2banks busy for read cycles: 72237
2banks busy for write cycles: 25747
3banks busy for read cycles: 37401
3banks busy for write cycles: 13119
4banks busy for read cycles: 40372
4banks busy for write cycles: 7195
5banks busy for read cycles: 76
5banks busy for write cycles: 2624
6banks busy for read cycles: 145
6banks busy for write cycles: 2451
7banks busy for read cycles: 0
7banks busy for write cycles: 1349
8banks busy for read cycles: 0
8banks busy for write cycles: 1353

CPU 0 Branch Prediction Accuracy: 99.958% MPKI: 0.07838 Average ROB Occupancy at Mispredict: 17.6391
Branch types
NOT_BRANCH: 162686426 81.3432%
BRANCH_DIRECT_JUMP: 2936764 1.46838%
BRANCH_INDIRECT: 13065636 6.53282%
BRANCH_CONDITIONAL: 11676504 5.83825%
BRANCH_DIRECT_CALL: 4007660 2.00383%
BRANCH_INDIRECT_CALL: 809679 0.40484%
BRANCH_RETURN: 4817315 2.40866%
BRANCH_OTHER: 0 0%

DRAM PAGES: 1048576
Allocated PAGES: 1244
