
*** ChampSim Multicore Out-of-Order Simulator ***

Warmup Instructions: 50000000
Simulation Instructions: 200000000
Number of CPUs: 1
LLC sets: 2048
LLC ways: 16
Off-chip DRAM Size: 4096 MB Channels: 1 Width: 64-bit Data Rate: 6400 MT/s
CPU 0 runs traces/spec2k17/srv_47.champsimtrace.xz
.xz
BTB has LRU replacement policy
ITLB has LRU replacement policy
DTLB has LRU replacement policy
STLB has LRU replacement policy
L1I has LRU replacement policy
L1D has LRU replacement policy
Initialize SRRIP state for L2C
Initialize DRRIP state for LLC
Offsets elements: 
Potential of Offsets elements: 
rewards of Offsets elements: 
Printing Sanity1
offset list size2567
Offsets elements: 
Potential of Offsets elements: 
rewards of Offsets elements: 71 0 0 0 38 2 6 0 0 594 0 0 0 403 780 0 0 0 0 0 0 553 435 492 3 0 0 0 0 0 0 0 0 0 161 0 0 0 0 0 0 0 0 288 277 0 0 331 297 0 0 0 0 0 0 61 0 0 0 0 0 0 0 0 0 0 0 0 2 600 0 0 0 0 0 0 0 0 0 7 0 0 0 0 0 0 0 226 0 0 0 0 0 67 0 0 0 0 2 0 0 0 0 0 0 0 0 0 0 0 189 0 0 0 0 0 0 0 0 0 0 0 0 0 0 52 0 208 0 0 0 0 216 7 0 0 0 0 0 0 0 0 0 4 0 0 1 1 0 0 81 0 0 0 0 0 0 0 0 0 0 0 0 0 0 0 0 0 0 0 474 0 0 0 0 0 0 0 0 0 0 0 0 0 0 0 0 0 0 0 0 0 0 0 0 0 0 0 0 0 0 0 0 0 0 0 0 0 0 189 0 0 0 0 51 171 258 0 0 257 0 187 0 0 0 0 0 67 0 158 0 0 36 0 0 0 0 0 0 0 0 0 169 0 0 0 0 0 215 0 0 0 0 0 0 2 0 0 0 0 0 0 5 0 0 0 0 0 0 0 60 0 0 0 0 0 0 0 0 0 0 0 0 0 127 0 0 0 0 0 0 0 141 0 0 0 0 0 0 0 0 0 0 0 0 0 0 0 0 0 0 0 0 0 0 0 273 0 0 0 0 0 0 0 0 0 0 0 0 107 0 0 0 0 0 0 0 0 0 0 0 0 0 0 0 0 0 0 0 0 0 0 0 0 0 0 0 0 0 81 0 0 6 0 0 0 0 0 0 0 0 0 0 0 0 0 173 0 0 0 0 0 0 7 12 8 0 0 0 0 0 0 0 0 0 0 3 0 0 0 0 0 0 0 0 0 0 0 0 0 0 0 0 0 0 0 0 0 0 0 0 0 13 0 0 0 99 0 0 0 0 4 0 0 0 0 0 0 0 0 928 0 0 0 0 36 0 0 0 0 0 0 64 0 0 0 0 0 54 0 0 0 6 124 0 0 0 0 0 0 0 0 0 0 0 0 0 0 0 128 0 0 0 0 0 0 0 0 0 0 0 0 0 0 0 0 0 0 0 0 1 174 0 0 0 0 0 0 159 18 0 0 0 0 0 0 0 0 0 0 63 0 204 0 0 12 0 0 0 0 0 0 26 0 0 0 0 0 0 0 0 0 0 0 0 0 0 0 0 0 0 0 0 0 0 0 0 0 0 0 0 0 0 0 0 0 0 0 959 12 0 0 6 0 0 2 0 0 98 0 0 0 0 0 0 18 0 0 0 0 0 0 6 195 0 0 0 0 0 0 0 0 0 0 0 0 0 0 0 0 0 0 0 0 0 0 0 0 0 22 25 0 136 0 0 0 0 0 0 0 0 0 9 0 0 8 0 18 0 0 0 40 0 0 0 0 0 0 0 0 0 0 0 0 0 2 0 0 0 0 0 0 0 0 1 0 0 0 0 0 0 0 0 0 0 0 0 0 0 0 0 177 9 0 0 0 0 0 0 0 0 0 0 116 0 0 0 0 0 0 0 0 0 0 0 0 0 0 0 0 0 0 0 0 0 0 0 0 0 0 0 0 0 0 75 0 0 0 0 0 0 0 0 0 0 0 0 0 0 0 0 0 0 0 0 0 0 0 0 0 0 0 0 0 0 0 0 0 0 0 0 0 0 0 0 0 0 0 0 0 98 0 0 0 0 0 32 0 8 0 0 0 0 0 30 0 0 0 0 0 0 0 0 0 0 0 72 0 0 0 0 0 244 0 84 0 0 0 0 0 0 0 0 0 0 0 0 0 98 0 0 0 0 0 0 0 0 0 0 0 0 3 0 0 0 0 0 0 0 0 801 0 0 0 0 156 24 0 0 0 12 0 0 0 0 0 0 25 43 0 0 0 0 0 0 0 0 0 0 0 44 0 0 0 0 0 0 0 0 0 0 0 0 0 0 0 0 0 0 0 0 0 0 0 0 0 0 0 0 0 1 0 0 0 0 0 0 0 0 0 0 0 6 0 0 0 0 4 0 0 0 0 0 0 0 0 0 0 0 0 0 0 0 0 0 0 0 0 0 0 0 0 0 0 0 0 0 0 0 0 0 0 0 0 0 0 13 92 0 0 0 0 0 0 0 0 0 0 0 0 36 0 28 0 0 0 0 0 0 0 0 0 0 0 0 0 0 0 0 0 10 177 0 0 0 0 0 0 0 0 0 0 0 0 0 0 0 63 0 0 0 0 0 0 0 0 0 0 0 0 0 0 0 0 0 0 0 0 0 0 0 0 0 0 0 0 0 0 0 0 0 0 0 0 0 0 0 0 0 0 0 0 0 0 9 0 0 159 0 0 0 0 0 0 0 0 0 0 351 47 37 0 0 0 0 0 0 0 0 0 0 0 0 0 0 0 42 0 0 0 0 0 0 44 3 0 0 0 1 0 0 0 24 160 22 44 4 0 0 0 0 0 123 0 0 12 0 0 0 0 0 0 0 0 0 0 0 14 0 0 80 0 0 0 0 0 0 0 0 0 0 0 0 57 0 0 0 0 0 0 0 0 3 0 0 0 16 0 0 0 0 0 0 0 0 0 0 0 0 0 0 0 0 0 0 0 0 0 0 0 0 0 0 0 0 0 0 0 0 0 0 6 12 10 0 2 17 0 0 0 0 0 0 0 6 0 0 0 0 0 33 8 0 0 0 0 0 0 0 0 0 0 0 0 0 0 0 0 0 1 0 0 0 0 4 0 85 18 68 0 0 0 0 0 0 25 0 0 0 9 0 0 0 0 112 0 0 0 0 0 0 0 0 0 0 0 0 0 0 0 0 0 0 0 0 96 0 0 0 764 0 167 0 0 0 0 0 113 0 15 0 0 0 0 0 0 0 0 0 0 0 0 0 0 0 0 0 0 0 0 188 43 0 0 180 0 0 0 0 0 12 0 0 0 2 0 0 0 41 122 0 0 0 0 0 0 0 0 0 0 0 0 0 0 4 0 0 0 0 0 0 0 0 18 6 0 0 0 12 0 0 0 0 0 0 100 68 0 23 0 0 0 0 0 0 0 0 0 0 61 0 0 0 0 0 0 0 0 0 0 0 0 0 1 0 0 6 0 1 0 0 0 0 0 2 0 0 0 2 31 0 0 0 0 0 0 0 0 0 0 0 0 0 0 0 0 0 0 0 0 0 0 0 0 0 0 0 0 0 0 0 0 0 0 0 0 0 1350 0 0 0 0 0 0 0 0 0 0 1 0 0 0 0 0 0 4 0 18 0 0 0 0 0 0 0 12 0 0 0 0 0 0 0 0 0 0 0 0 0 0 0 0 0 0 0 0 0 0 0 0 0 0 0 0 0 0 0 0 0 0 0 1 0 0 0 0 0 0 0 0 0 0 0 0 0 0 1 0 0 0 0 0 0 0 0 0 6 9 18 40 0 0 0 0 0 0 0 0 0 0 56 26 0 0 0 0 0 0 12 0 0 29 0 0 0 0 0 0 0 0 0 0 0 0 0 0 0 0 0 0 0 0 0 0 0 0 0 0 0 0 0 0 0 0 0 0 0 0 0 0 0 0 0 0 0 8 0 42 0 0 0 0 0 0 0 0 0 0 0 0 0 4 0 0 0 0 0 0 0 0 0 0 0 14 0 0 0 0 0 0 0 0 0 1 14 0 120 0 72 0 0 10 0 0 0 0 0 0 0 0 0 7 4 0 4 0 0 0 0 0 0 0 0 0 0 0 0 0 0 0 0 0 0 0 0 0 0 0 0 0 0 0 0 0 0 0 0 0 0 0 0 0 0 0 100 0 0 0 0 0 0 0 0 0 0 0 0 0 0 0 0 0 195 114 0 0 0 0 0 0 6 0 0 0 0 0 0 0 0 0 0 0 0 0 0 0 0 0 0 0 0 0 0 0 0 0 0 0 0 0 0 0 0 0 0 0 0 0 0 0 0 0 0 0 0 0 0 0 0 0 0 0 0 0 0 0 0 0 0 0 0 0 0 0 0 0 0 1 0 0 0 0 0 0 0 0 0 0 0 0 0 0 0 0 0 0 0 0 0 0 0 0 0 0 0 0 0 0 0 0 0 0 0 0 145 0 0 0 0 0 0 0 0 0 0 0 0 0 0 0 0 0 0 0 0 0 0 0 0 0 0 0 0 0 0 0 0 0 0 0 0 0 0 0 0 0 0 0 0 0 0 0 0 0 0 0 0 0 0 0 0 0 0 0 0 0 103 0 0 0 18 0 0 0 0 0 0 0 0 0 0 0 0 0 0 0 0 0 0 0 0 0 0 0 0 0 0 0 0 0 0 0 0 0 0 0 0 0 0 44 0 0 18 54 130 2 0 0 0 0 0 0 39 0 0 26 0 0 10 0 0 0 0 0 0 0 0 0 0 0 0 0 0 2 23 0 105 34 0 0 0 0 0 0 0 0 0 0 0 0 0 0 0 0 0 0 0 54 0 0 0 0 0 0 0 0 0 0 0 10 0 0 0 0 0 0 0 0 0 0 0 0 5 4 0 0 0 0 0 0 1 0 0 5 0 0 0 0 0 0 0 0 0 0 0 0 0 3 0 0 0 0 0 0 0 0 0 19 0 0 0 0 0 0 0 0 0 0 0 0 0 0 0 0 0 0 0 0 0 0 0 16 0 0 0 0 0 0 0 0 0 0 0 0 0 0 0 0 0 0 0 0 0 40 0 0 0 0 0 0 0 0 0 0 0 0 0 0 0 0 0 0 0 0 0 0 0 0 0 0 0 0 0 91 0 0 0 0 0 0 0 0 0 0 0 0 0 0 0 0 0 986 0 0 0 0 0 0 0 0 0 0 0 0 0 0 0 0 0 0 0 0 0 0 0 0 0 0 0 0 0 0 0 0 0 0 0 0 0 0 0 0 0 0 0 0 0 0 0 0 0 0 0 0 0 0 5 20 6 17 0 0 0 0 0 0 0 0 0 0 0 0 0 0 0 0 0 0 0 0 0 0 0 2 0 0 0 0 2 0 0 0 0 0 0 0 0 0 0 0 0 0 0 0 0 0 0 0 0 0 0 0 0 0 0 0 0 942 0 0 0 0 0 0 0 0 0 0 0 0 1025 0 0 0 0 0 0 0 0 0 0 0 0 0 12 0 0 0 0 0 0 0 0 56 20 0 4 0 0 0 0 0 0 0 0 0 0 0 0 0 0 0 0 0 0 0 0 0 0 0 0 0 0 0 0 0 0 0 0 0 95 14 12 0 4 0 0 0 0 13 0 0 0 0 0 0 0 0 0 0 0 0 0 0 0 0 0 0 0 0 0 0 0 0 0 0 0 0 0 0 0 17 0 0 0 0 0 0 0 0 39 0 0 0 0 0 0 0 0 0 0 0 0 0 0 100 0 0 4 0 0 0 0 0 0 0 0 0 0 0 0 0 0 0 0 0 0 0 0 0 0 0 0 0 0 0 0 0 0 0 0 0 22 0 0 0 0 0 0 0 0 0 0 0 0 0 0 0 0 0 0 0 4 0 0 0 0 0 0 0 0 0 0 0 0 0 0 0 0 0 0 0 0 0 0 0 0 0 0 0 0 0 0 0 0 0 0 0 0 0 0 0 0 0 0 0 0 0 0 0 0 0 0 0 0 0 0 0 0 0 0 0 0 0 0 0 0 0 0 70 0 0 0 0 0 0 0 0 0 0 0 8 0 0 0 0 0 0 0 0 0 0 0 0 0 0 0 0 0 0 0 0 0 0 0 0 0 
Printing Sanity2
Heartbeat CPU 0 instructions: 10000000 cycles: 2960580 heartbeat IPC: 3.37772 cumulative IPC: 3.37772 (Simulation time: 0 hr 0 min 25 sec) 
Heartbeat CPU 0 instructions: 20000002 cycles: 5985246 heartbeat IPC: 3.30615 cumulative IPC: 3.34155 (Simulation time: 0 hr 0 min 50 sec) 
Heartbeat CPU 0 instructions: 30000001 cycles: 8996700 heartbeat IPC: 3.32065 cumulative IPC: 3.33456 (Simulation time: 0 hr 1 min 15 sec) 
*** Reached end of trace for Core: 0 Repeating trace: traces/spec2k17/srv_47.champsimtrace.xz
Heartbeat CPU 0 instructions: 40000000 cycles: 12003576 heartbeat IPC: 3.32571 cumulative IPC: 3.33234 (Simulation time: 0 hr 1 min 40 sec) 
Heartbeat CPU 0 instructions: 50000000 cycles: 15026595 heartbeat IPC: 3.30795 cumulative IPC: 3.32743 (Simulation time: 0 hr 2 min 5 sec) 

Warmup complete CPU 0 instructions: 50000004 cycles: 15026596 (Simulation time: 0 hr 2 min 5 sec) 

Heartbeat CPU 0 instructions: 60000000 cycles: 39513338 heartbeat IPC: 0.408384 cumulative IPC: 0.408384 (Simulation time: 0 hr 2 min 41 sec) 
*** Reached end of trace for Core: 0 Repeating trace: traces/spec2k17/srv_47.champsimtrace.xz
Heartbeat CPU 0 instructions: 70000003 cycles: 64036223 heartbeat IPC: 0.407782 cumulative IPC: 0.408083 (Simulation time: 0 hr 3 min 17 sec) 
Heartbeat CPU 0 instructions: 80000000 cycles: 88072574 heartbeat IPC: 0.416036 cumulative IPC: 0.4107 (Simulation time: 0 hr 3 min 53 sec) 
Heartbeat CPU 0 instructions: 90000001 cycles: 111745691 heartbeat IPC: 0.42242 cumulative IPC: 0.413569 (Simulation time: 0 hr 4 min 29 sec) 
*** Reached end of trace for Core: 0 Repeating trace: traces/spec2k17/srv_47.champsimtrace.xz
Heartbeat CPU 0 instructions: 100000002 cycles: 135620096 heartbeat IPC: 0.418859 cumulative IPC: 0.414616 (Simulation time: 0 hr 5 min 5 sec) 
Heartbeat CPU 0 instructions: 110000000 cycles: 160569454 heartbeat IPC: 0.400812 cumulative IPC: 0.41225 (Simulation time: 0 hr 5 min 42 sec) 
Heartbeat CPU 0 instructions: 120000003 cycles: 184104477 heartbeat IPC: 0.424899 cumulative IPC: 0.41401 (Simulation time: 0 hr 6 min 18 sec) 
*** Reached end of trace for Core: 0 Repeating trace: traces/spec2k17/srv_47.champsimtrace.xz
Heartbeat CPU 0 instructions: 130000001 cycles: 208206340 heartbeat IPC: 0.414906 cumulative IPC: 0.414122 (Simulation time: 0 hr 6 min 55 sec) 
Heartbeat CPU 0 instructions: 140000003 cycles: 232280524 heartbeat IPC: 0.415383 cumulative IPC: 0.414262 (Simulation time: 0 hr 7 min 30 sec) 
Heartbeat CPU 0 instructions: 150000001 cycles: 255920839 heartbeat IPC: 0.423006 cumulative IPC: 0.41512 (Simulation time: 0 hr 8 min 6 sec) 
*** Reached end of trace for Core: 0 Repeating trace: traces/spec2k17/srv_47.champsimtrace.xz
Heartbeat CPU 0 instructions: 160000002 cycles: 279966274 heartbeat IPC: 0.415879 cumulative IPC: 0.415189 (Simulation time: 0 hr 8 min 43 sec) 
Heartbeat CPU 0 instructions: 170000002 cycles: 303869299 heartbeat IPC: 0.418357 cumulative IPC: 0.415451 (Simulation time: 0 hr 9 min 19 sec) 
Heartbeat CPU 0 instructions: 180000000 cycles: 328817096 heartbeat IPC: 0.400837 cumulative IPC: 0.414289 (Simulation time: 0 hr 9 min 55 sec) 
*** Reached end of trace for Core: 0 Repeating trace: traces/spec2k17/srv_47.champsimtrace.xz
Heartbeat CPU 0 instructions: 190000000 cycles: 352566369 heartbeat IPC: 0.421066 cumulative IPC: 0.414766 (Simulation time: 0 hr 10 min 32 sec) 
Heartbeat CPU 0 instructions: 200000002 cycles: 376657152 heartbeat IPC: 0.415097 cumulative IPC: 0.414788 (Simulation time: 0 hr 11 min 8 sec) 
Heartbeat CPU 0 instructions: 210000001 cycles: 400758949 heartbeat IPC: 0.414907 cumulative IPC: 0.414795 (Simulation time: 0 hr 11 min 45 sec) 
*** Reached end of trace for Core: 0 Repeating trace: traces/spec2k17/srv_47.champsimtrace.xz
Heartbeat CPU 0 instructions: 220000000 cycles: 424958017 heartbeat IPC: 0.413239 cumulative IPC: 0.414703 (Simulation time: 0 hr 12 min 21 sec) 
Heartbeat CPU 0 instructions: 230000000 cycles: 448237588 heartbeat IPC: 0.429561 cumulative IPC: 0.415502 (Simulation time: 0 hr 12 min 57 sec) 
Heartbeat CPU 0 instructions: 240000001 cycles: 472568672 heartbeat IPC: 0.410997 cumulative IPC: 0.415262 (Simulation time: 0 hr 13 min 32 sec) 
*** Reached end of trace for Core: 0 Repeating trace: traces/spec2k17/srv_47.champsimtrace.xz
Heartbeat CPU 0 instructions: 250000003 cycles: 497114603 heartbeat IPC: 0.4074 cumulative IPC: 0.414862 (Simulation time: 0 hr 14 min 8 sec) 
Finished CPU 0 instructions: 200000003 cycles: 482088008 cumulative IPC: 0.414862 (Simulation time: 0 hr 14 min 8 sec) 

ChampSim completed all CPUs

Region of Interest Statistics

CPU 0 cumulative IPC: 0.414862 instructions: 200000003 cycles: 482088008
ITLB TOTAL     ACCESS:   35048838  HIT:   33698825  MISS:    1350013  HIT %:    96.1482  MISS %:    3.85181   MPKI: 6.75006
ITLB LOAD TRANSLATION ACCESS:   35048838  HIT:   33698825  MISS:    1350013  HIT %:    96.1482  MISS %:    3.85181   MPKI: 6.75006
ITLB PREFETCH  REQUESTED:          0  ISSUED:          0  USEFUL:          0  USELESS:          0
ITLB USEFUL LOAD PREFETCHES:          0 PREFETCH ISSUED TO LOWER LEVEL:          0  ACCURACY: -nan
ITLB TIMELY PREFETCHES:          0 LATE PREFETCHES: 0 DROPPED PREFETCHES: 0
ITLB PREFETCHES SAME FILL-ORIGIN LEVEL: 0 DIFFERENT FILL-ORIGIN LEVEL: 0
ITLB AVERAGE MISS LATENCY: 9.65654 cycles
ITLB RQ	ACCESS:   40193646	FORWARD:          0	MERGED:    4757924	TO_CACHE:   35435722

DTLB TOTAL     ACCESS:   45749714  HIT:   44489372  MISS:    1260342  HIT %:    97.2451  MISS %:    2.75486   MPKI: 6.30171
DTLB LOAD TRANSLATION ACCESS:   45749714  HIT:   44489372  MISS:    1260342  HIT %:    97.2451  MISS %:    2.75486   MPKI: 6.30171
DTLB PREFETCH  REQUESTED:          0  ISSUED:          0  USEFUL:          0  USELESS:          0
DTLB USEFUL LOAD PREFETCHES:          0 PREFETCH ISSUED TO LOWER LEVEL:          0  ACCURACY: -nan
DTLB TIMELY PREFETCHES:          0 LATE PREFETCHES: 0 DROPPED PREFETCHES: 0
DTLB PREFETCHES SAME FILL-ORIGIN LEVEL: 0 DIFFERENT FILL-ORIGIN LEVEL: 0
DTLB AVERAGE MISS LATENCY: 13.136 cycles
DTLB RQ	ACCESS:   62298130	FORWARD:          0	MERGED:   16466142	TO_CACHE:   45831988

STLB TOTAL     ACCESS:   25576481  HIT:   25509663  MISS:      66818  HIT %:    99.7388  MISS %:   0.261248   MPKI: 0.33409
STLB LOAD TRANSLATION ACCESS:    2610355  HIT:    2553568  MISS:      56787  HIT %:    97.8245  MISS %:    2.17545   MPKI: 0.283935
STLB TRANSLATION FROM L1D PREFETCHER ACCESS:   22966126  HIT:   22956095  MISS:      10031  HIT %:    99.9563  MISS %:  0.0436774   MPKI: 0.050155
STLB PREFETCH  REQUESTED:          0  ISSUED:          0  USEFUL:       9251  USELESS:        788
STLB USEFUL LOAD PREFETCHES:       9251 PREFETCH ISSUED TO LOWER LEVEL:          0  ACCURACY: inf
STLB TIMELY PREFETCHES:       9251 LATE PREFETCHES: 45 DROPPED PREFETCHES: 4395208
STLB PREFETCHES SAME FILL-ORIGIN LEVEL: 0 DIFFERENT FILL-ORIGIN LEVEL: 0
STLB AVERAGE MISS LATENCY: 98.9152 cycles
STLB RQ	ACCESS:   37139944	FORWARD:          0	MERGED:    6785278	TO_CACHE:   30354666

STLB Hit, L1D data hit: 0
STLB Hit, L2C data hit: 0
STLB Hit, LLC data hit: 0
STLB Hit, LLC data miss: 0
STLB STLB hints to L2: 0
L1D TOTAL     ACCESS:   88948951  HIT:   84182248  MISS:    4766703  HIT %:    94.6411  MISS %:    5.35892   MPKI: 23.8335
L1D LOAD      ACCESS:   37627513  HIT:   35727450  MISS:    1900063  HIT %:    94.9503  MISS %:    5.04966   MPKI: 9.50031
L1D RFO       ACCESS:   22430334  HIT:   21552810  MISS:     877524  HIT %:    96.0878  MISS %:    3.91222   MPKI: 4.38762
L1D PREFETCH  ACCESS:   28891104  HIT:   26901988  MISS:    1989116  HIT %:    93.1151  MISS %:    6.88487   MPKI: 9.94558
AGUS PREFETCH L1 MISS: 0
L1D PREFETCH  REQUESTED:   72267954  ISSUED:   72087895  USEFUL:     243588  USELESS:    1745500
L1D USEFUL LOAD PREFETCHES:     243588 PREFETCH ISSUED TO LOWER LEVEL:    1989904  ACCURACY: 12.2412
L1D TIMELY PREFETCHES:     243588 LATE PREFETCHES: 758 DROPPED PREFETCHES: 5520236
L1D PREFETCHES SAME FILL-ORIGIN LEVEL: 1989904 DIFFERENT FILL-ORIGIN LEVEL: 0
L1D AVERAGE MISS LATENCY: 41498.9 cycles
L1D RQ	ACCESS:   54670347	FORWARD:          0	MERGED:   16785841	TO_CACHE:   37738361
L1D WQ	ACCESS:   25007272	FORWARD:     146217	MERGED:     447503	TO_CACHE:   24559769
L1D PQ	ACCESS:   37558306	FORWARD:          0	MERGED:    3028645	TO_CACHE:   34529589

L1D UNIQUE REGIONS ACCESSED: 0
L1D REGIONS CONFLICTS: 0
L1D Cross Page Prefetch Requests: 34582020
L1D Same Page Prefetch Requests: 10476743
L1D ROI Sum of L1D PQ occupancy: 799026141
L1D PREFETCHES PUSHED FROM L2C: 0
L1I TOTAL     ACCESS:   39480266  HIT:   34348453  MISS:    5131813  HIT %:    87.0016  MISS %:    12.9984   MPKI: 25.6591
L1I LOAD      ACCESS:   39480266  HIT:   34348453  MISS:    5131813  HIT %:    87.0016  MISS %:    12.9984   MPKI: 25.6591
L1I PREFETCH  REQUESTED:          0  ISSUED:          0  USEFUL:          0  USELESS:          0
L1I USEFUL LOAD PREFETCHES:          0 PREFETCH ISSUED TO LOWER LEVEL:          0  ACCURACY: -nan
L1I TIMELY PREFETCHES:          0 LATE PREFETCHES: 0 DROPPED PREFETCHES: 0
L1I PREFETCHES SAME FILL-ORIGIN LEVEL: 0 DIFFERENT FILL-ORIGIN LEVEL: 0
L1I AVERAGE MISS LATENCY: 21.9494 cycles
L1I RQ	ACCESS:   60677623	FORWARD:          0	MERGED:   20483977	TO_CACHE:   40193646

BTB TOTAL     ACCESS:   31810941  HIT:   25200143  MISS:    6610798  HIT %:    79.2185  MISS %:    20.7815   MPKI: 33.054
BTB BRANCH_DIRECT_JUMP	ACCESS:    2592848  HIT:    2153159  MISS:     439689
BTB BRANCH_INDIRECT	ACCESS:   13337314  HIT:   10769669  MISS:    2567645
BTB BRANCH_CONDITIONAL	ACCESS:    7075229  HIT:    6545706  MISS:     529523
BTB BRANCH_DIRECT_CALL	ACCESS:    3079695  HIT:    2283613  MISS:     796082
BTB BRANCH_INDIRECT_CALL	ACCESS:    1323118  HIT:     950696  MISS:     372422
BTB BRANCH_RETURN	ACCESS:    4402737  HIT:    2497300  MISS:    1905437
BTB BRANCH_OTHER ACCESS:          0  HIT:          0  MISS:          0

L2C TOTAL     ACCESS:   18973004  HIT:   15740711  MISS:    3232293  HIT %:    82.9637  MISS %:    17.0363   MPKI: 16.1615
L2C LOAD      ACCESS:    7030981  HIT:    5156768  MISS:    1874213  HIT %:    73.3435  MISS %:    26.6565   MPKI: 9.37106
L2C DATA LOAD MPKI: 2.87795
L2C INSTRUCTION LOAD MPKI: 6.49311
L2C RFO       ACCESS:     877488  HIT:     410762  MISS:     466726  HIT %:    46.8111  MISS %:    53.1889   MPKI: 2.33363
L2C PREFETCH  ACCESS:    1989895  HIT:    1232683  MISS:     757212  HIT %:    61.9471  MISS %:    38.0529   MPKI: 3.78606
AGUS PREFETCH L1 MISS: 0
L2C DATA PREFETCH MPKI: 3.78606
L2C INSTRUCTION PREFETCH MPKI: 0
L2C WRITEBACK ACCESS:    1410902  HIT:    1357572  MISS:      53330  HIT %:    96.2201  MISS %:    3.77985   MPKI: 0.26665
L2C LOAD TRANSLATION ACCESS:      87791  HIT:      37886  MISS:      49905  HIT %:    43.1548  MISS %:    56.8452   MPKI: 0.249525
L2C TRANSLATION FROM L1D PREFETCHER ACCESS:    7575947  HIT:    7545040  MISS:      30907  HIT %:     99.592  MISS %:   0.407962   MPKI: 0.154535
L2C PREFETCH  REQUESTED:          0  ISSUED:          0  USEFUL:      47926  USELESS:     740270
L2C USEFUL LOAD PREFETCHES:      47926 PREFETCH ISSUED TO LOWER LEVEL:     757213  ACCURACY: 6.32926
L2C TIMELY PREFETCHES:      47926 LATE PREFETCHES: 0 DROPPED PREFETCHES: 0
L2C PREFETCHES SAME FILL-ORIGIN LEVEL: 0 DIFFERENT FILL-ORIGIN LEVEL: 0
L2C AVERAGE MISS LATENCY: 55.1725 cycles
L2C RQ	ACCESS:   15572352	FORWARD:          0	MERGED:          0	TO_CACHE:   15572208
L2C WQ	ACCESS:    1410902	FORWARD:        152	MERGED:          0	TO_CACHE:    1410902
L2C PQ	ACCESS:    1989904	FORWARD:          0	MERGED:          0	TO_CACHE:    1989896

L2C Instructions Evicting Data 717847
L2C Translations Evicting Data 48568
L2C Data Evicting Data 1056504
L2C Instructions Evicting Instructions 550415
L2C Translations Evicting Instructions 29907
L2C Data Evicting Instructions 696491
L2C Instructions Evicting Translations 30361
L2C Translations Evicting Translations 2337
L2C Data Evicting Translations 46533
L2C Dense regions hint from L2: 0
PSCL5 TOTAL     ACCESS:    4462027  HIT:    4462027  MISS:          0  HIT %:        100  MISS %:          0   MPKI: 0
PSCL5 LOAD TRANSLATION ACCESS:      56742  HIT:      56742  MISS:          0  HIT %:        100  MISS %:          0   MPKI: 0
PSCL5 TRANSLATION FROM L1D PREFETCHER ACCESS:    4405285  HIT:    4405285  MISS:          0  HIT %:        100  MISS %:          0   MPKI: 0
PSCL5 PREFETCH  REQUESTED:          0  ISSUED:          0  USEFUL:          0  USELESS:          0
PSCL5 USEFUL LOAD PREFETCHES:          0 PREFETCH ISSUED TO LOWER LEVEL:          0  ACCURACY: -nan
PSCL5 TIMELY PREFETCHES:          0 LATE PREFETCHES: 0 DROPPED PREFETCHES: 0
PSCL5 PREFETCHES SAME FILL-ORIGIN LEVEL: 0 DIFFERENT FILL-ORIGIN LEVEL: 0

PSCL4 TOTAL     ACCESS:    4372534  HIT:    4372159  MISS:        375  HIT %:    99.9914  MISS %: 0.00857626   MPKI: 0.001875
PSCL4 LOAD TRANSLATION ACCESS:      55773  HIT:      55398  MISS:        375  HIT %:    99.3276  MISS %:   0.672368   MPKI: 0.001875
PSCL4 TRANSLATION FROM L1D PREFETCHER ACCESS:    4316761  HIT:    4316761  MISS:          0  HIT %:        100  MISS %:          0   MPKI: 0
PSCL4 PREFETCH  REQUESTED:          0  ISSUED:          0  USEFUL:          0  USELESS:          0
PSCL4 USEFUL LOAD PREFETCHES:          0 PREFETCH ISSUED TO LOWER LEVEL:          0  ACCURACY: -nan
PSCL4 TIMELY PREFETCHES:          0 LATE PREFETCHES: 0 DROPPED PREFETCHES: 0
PSCL4 PREFETCHES SAME FILL-ORIGIN LEVEL: 0 DIFFERENT FILL-ORIGIN LEVEL: 0

PSCL3 TOTAL     ACCESS:    3254199  HIT:    3245803  MISS:       8396  HIT %:     99.742  MISS %:   0.258005   MPKI: 0.04198
PSCL3 LOAD TRANSLATION ACCESS:      53654  HIT:      45258  MISS:       8396  HIT %:    84.3516  MISS %:    15.6484   MPKI: 0.04198
PSCL3 TRANSLATION FROM L1D PREFETCHER ACCESS:    3200545  HIT:    3200545  MISS:          0  HIT %:        100  MISS %:          0   MPKI: 0
PSCL3 PREFETCH  REQUESTED:          0  ISSUED:          0  USEFUL:          0  USELESS:          0
PSCL3 USEFUL LOAD PREFETCHES:          0 PREFETCH ISSUED TO LOWER LEVEL:          0  ACCURACY: -nan
PSCL3 TIMELY PREFETCHES:          0 LATE PREFETCHES: 0 DROPPED PREFETCHES: 0
PSCL3 PREFETCHES SAME FILL-ORIGIN LEVEL: 0 DIFFERENT FILL-ORIGIN LEVEL: 0

PSCL2 TOTAL     ACCESS:    2123807  HIT:    2099112  MISS:      24695  HIT %:    98.8372  MISS %:    1.16277   MPKI: 0.123475
PSCL2 LOAD TRANSLATION ACCESS:      58511  HIT:      33816  MISS:      24695  HIT %:    57.7943  MISS %:    42.2057   MPKI: 0.123475
PSCL2 TRANSLATION FROM L1D PREFETCHER ACCESS:    2065296  HIT:    2065296  MISS:          0  HIT %:        100  MISS %:          0   MPKI: 0
PSCL2 PREFETCH  REQUESTED:          0  ISSUED:          0  USEFUL:          0  USELESS:          0
PSCL2 USEFUL LOAD PREFETCHES:          0 PREFETCH ISSUED TO LOWER LEVEL:          0  ACCURACY: -nan
PSCL2 TIMELY PREFETCHES:          0 LATE PREFETCHES: 0 DROPPED PREFETCHES: 0
PSCL2 PREFETCHES SAME FILL-ORIGIN LEVEL: 0 DIFFERENT FILL-ORIGIN LEVEL: 0

LLC TOTAL     ACCESS:    3821088  HIT:    3256350  MISS:     564738  HIT %:    85.2205  MISS %:    14.7795   MPKI: 2.82369
LLC LOAD      ACCESS:    1874213  HIT:    1720955  MISS:     153258  HIT %:    91.8228  MISS %:    8.17719   MPKI: 0.76629
LLC RFO       ACCESS:     466726  HIT:     303370  MISS:     163356  HIT %:    64.9996  MISS %:    35.0004   MPKI: 0.81678
LLC PREFETCH  ACCESS:     757212  HIT:     558574  MISS:     198638  HIT %:    73.7672  MISS %:    26.2328   MPKI: 0.99319
AGUS PREFETCH L1 MISS: 0
LLC WRITEBACK ACCESS:     642125  HIT:     609393  MISS:      32732  HIT %:    94.9026  MISS %:    5.09745   MPKI: 0.16366
LLC LOAD TRANSLATION ACCESS:      49905  HIT:      35495  MISS:      14410  HIT %:    71.1251  MISS %:    28.8749   MPKI: 0.07205
LLC TRANSLATION FROM L1D PREFETCHER ACCESS:      30907  HIT:      28563  MISS:       2344  HIT %:     92.416  MISS %:    7.58404   MPKI: 0.01172
LLC PREFETCH  REQUESTED:          0  ISSUED:          0  USEFUL:       4670  USELESS:     198878
LLC USEFUL LOAD PREFETCHES:       4670 PREFETCH ISSUED TO LOWER LEVEL:     198639  ACCURACY: 2.351
LLC TIMELY PREFETCHES:       4670 LATE PREFETCHES: 0 DROPPED PREFETCHES: 0
LLC PREFETCHES SAME FILL-ORIGIN LEVEL: 0 DIFFERENT FILL-ORIGIN LEVEL: 0
LLC AVERAGE MISS LATENCY: 146.904 cycles
LLC RQ	ACCESS:    2421751	FORWARD:          0	MERGED:          0	TO_CACHE:    2421751
LLC WQ	ACCESS:     642125	FORWARD:          0	MERGED:          0	TO_CACHE:     642125
LLC PQ	ACCESS:     757213	FORWARD:          0	MERGED:          0	TO_CACHE:     757213

LLC Dense regions hint to LLC: 0

RAW hits: 2706386
Loads Generated: 57376736
Loads sent to L1D: 54670347
Stores Generated: 25007264
Stores sent to L1D: 25007272
Major fault: 0 Minor fault: 5261
Allocated PAGES: 5261
ucb ended
-----------------------------------------------------------------------------------------------------------------------------------------------------------------------------------------------------
Offsets elements: -49 288223781559319929 -2200629620922 2200619488807 23 -359247 505260 -192288 192288 1 -608560 608563 -446831 -1 3 -12745695 12745693 446828 -13192521 -2200606407616 2200619384674 2 9 -11 215448 -41735 -13150785 13192523 -41738 41734 -41736 41736 -212239 212239 -12 -41729 41729 -41733 -173722 173721 41732 -215449 215447 5 -6 -13192518 13192519 -3 4 -13192523 12745692 446829 -146038 146047 -288223781549333811 -50 -1465146435977 1465146435977 849797064 -1465996233379 455 1465146435863 -1465146425348 1465146425397 -1465122662255 21 1465972450704 -1465972450613 -23773885 1465996233040 -1465996232929 1465996161239 345 71345 -4961 -849792102 -1465146435975 849797063 -849797064 -1465122662091 1465971460838 -848798746 -1465146558802 1465146558803 -1465146436465 1465995185152 -1465971410878 -14 -23773796 21987 -22198 10726 11425 37 -21837 29529 -11781 -17911 21962 -22144 29874 1465996194850 -849788470 -1465146436054 1465995234759 -1465995212827 -22199 1465995235027 -1465995224099 1465995224123 18 -1465995212850 1465995212849 -1465995225069 1465995225067 -848798796 -1465146436477 1465146436476 -1465146432147 -768 -3399 3412 -3074 -229 1465996233269 -1465996232921 1465996161231 -8 71698 -71345 66384 4961 -1465996232914 23773752 52340 -23826092 23826092 1465122609760 -1465146436122 621 23773398 -23773399 17388 -17748 1465146435909 849788470 -1465996224730 22151 -21963 1465995212815 43 -1465995212821 1465146414023 -1465146407089 1465146407091 -1465122662121 -23773933 1465146436053 -1465122657963 1465122657963 -1465122662119 1465122662120 -1465146433790 23771670 12345 1465122649777 -1465122662122 -23770806 23783151 -12346 -2 4162 -23778020 23778020 1465972455020 -1465996233115 23778090 -23775825 864 23758161 -23761061 1465996224600 -849788729 288223781559319880 -10132115 -2200619488807 359247 312972 -416271 161732 -446828 446826 -13192524 -2200619153309 2200619600137 12977058 173725 41733 41731 -173725 173723 -173723 215454 -41728 -104301 104300 41730 -41730 -173742 -9 201960 -627252 640755 -186646 -26 15 -4 186660 -186670 10 -2200619331220 13 2200629503684 -2766 -2200629500931 2200629504003 -1420 35 -10171394 -15 10171409 -2200629502605 2448 2200619515414 9984740 -9984740 -186657 10171397 -10171408 -2200619331190 -114400 2200619445604 -13 -296927 10468333 -10171770 -296562 296562 29 187001 -187007 -452708 639715 -186663 -2200619328698 2200619031774 296927 10171403 -10165733 -5674 -296926 296926 -2200619329147 2200629501937 -10469716 296928 -296925 296952 10171343 -10171410 30 -296955 -2200619034285 2200619517876 9984519 -10468109 -2200619329160 2200619032233 483591 -483590 -26067 10197435 -10197436 10197469 -31 -10197439 -270860 270860 -270859 270858 -1413390 11610828 33 -10197472 10197439 -10197440 212727 -212729 -10197438 10197441 -10197442 -10197437 10197437 -9984709 -212730 -9984742 -4862118 4862118 10171407 -2200629616996 2200619445225 10171771 -2200629500565 2200619328796 -296563 296560 11 364 -364 -296560 186665 9984741 -10171771 187033 -186668 10171410 -2200629616999 2200619632258 9984739 -35 -10171349 186647 -640758 640759 -13506 13508 -215471 215472 -215468 215469 -170501 170500 -3744599071 3739760148 -3739760148 3754628774 -9987979 -2200619475782 2200614636866 14868620 -3754628607 3754628607 3739759987 -3739759987 3744640630 215452 -13192519 -13192520 -1465146435974 1465146435978 -849797063 -1465146436314 10970 -10515 1465146435912 -1465972450704 1465122662184 -1465146435978 1465146435981 849797059 -849797061 -23773860 1465146435982 849797058 -849797058 -1465122662152 -29 12375 -12376 -23777110 23777111 -12375 -1465122662151 89 -88 77 1465122657966 -1465146435998 -1465972459165 -23763080 23763080 1465122662070 -1465146436036 23773968 -23751924 23751825 99 -23763377 23763378 -23744266 -29496 17748 1465146418161 -1465972450725 -23773770 -849792133 -1465146435944 1465146435946 849797094 -849797095 -1465122662106 -23755975 -849788549 -23773982 23773957 -23763031 -10644 1465994138814 -1465970365140 1465972450941 -1465972450941 1465122662211 -78 -1465122662131 -23773682 23773681 -41 -23773798 40045 23733775 93 -55 -23761948 -15166 3140 23773974 -23788126 14297 -1465996233414 374 -1465996233040 -849797102 -1465146425140 -10798 -849797096 36 -1465146540709 1465146540709 -1465146435985 -293 1465996233333 -1465972459208 40 -109 -23773725 23773921 -23763181 23763047 -56 157 1465122662002 -1465122662123 55 -43 30330 -30333 -23777113 23777161 30285 -23804237 2265 865 -3055 23804153 1465972428887 -1465972428886 -17949 -23786205 23804164 -10 -23804447 23804446 -1465122649733 36246 1465122613487 36232 -36230 1465122649733 -1465122631774 1465122631785 -1465146435938 1465146435938 849797102 -849797104 -1465146435940 1465146435941 849797099 -849797101 -1465122631787 -23804137 23773804 -65 48561 -23810444 -11881 -1465972459247 30360 -30179 -204 165 -23774102 23774106 1465122661996 -1465146540588 1465146540588 -1465122631771 -30339 1465970365139 -1465994138814 23773674 -89 -1465122662165 44 23804030 -30349 -23773815 -2094085 -1465994138816 23773675 1465972450940 -1465972450940 1465122662210 -90 -1465122631772 -30347 -23773683 23773682 30348 -23786298 -989740 -1465995234629 23822239 1465971412389 -848798822 -1465146435933 1465146435934 849797105 -1465972428887 -30381 30393 -23804194 10661 -923 23812657 3853 -23816503 23816503 -3853 -23870166 23874019 -23870169 23874022 1465146483736 -1465122631792 -30282 48457 -23822524 23822560 -7 94 -23833911 23833914 -99 1465122613552 -1465122613610 130 -48684 48557 88 1465122613484 -1465122631782 -30383 -23776853 23807236 -23804085 -68 -1465996222444 -10596 -849797139 -1465122631747 -23804411 23774147 -23773881 45 23773719 -23762978 -10791 -147 -14152 10797 1465996222243 -849797125 -1465146435915 849797106 -849797118 -1465146436109 23773964 -23774036 1465146436193 -1465146425142 23793360 -23793376 23811579 -23822365 23773770 1465972459270 -1465972410712 59 -59 62 -62 -48351 119 48474 -23822713 23822675 1465122613556 -1465122662086 -23763005 23762996 48539 -48554 -23773771 -849797162 -1465122662101 1465122661976 -1465122662096 -23773777 1465146435878 849797162 -849797164 -1465122661978 -23773897 -1465972459270 -23773745 23822300 -48555 -23761889 23810444 -23822300 11856 23810446 -23822327 -849797165 -1465122662105 -11856 23773745 48555 -23810446 23761897 -23773876 1465146435976 -1465146422039 -13838 10798 1465996222242 -1465122661990 -23773862 1465996233015 -1465972410715 -48493 -23761951 23773805 1465122662051 -1465146424000 -15161 23777050 132 -23822466 -1465972410571 -48630 -54 -20 1465122662111 -1465146435876 1465146435876 849797165 -1465972410574 1465122613411 -1465122613423 1465122613423 -1465122613552 -48485 31 30282 -23804153 23773832 1465972459208 -23773678 23773677 1465970365143 2085795 -1465972450938 1465122662208 -1465122662045 -23773685 23773684 1465122662060 849797164 -23927054 1465146540609 -1465122613551 -48560 -48496 48628 -23822454 -1465972459211 -23773892 23773938 -23773362 17351 1465995212857 -1465995234777 21999 -38 1465146413957 -23793952 -28935 23774265 48636 -23822464 1465146435875 849797166 -1465996230918 1465146433753 -1465122613420 1465122613422 -1465122613413 1465122613413 23822325 1465972410715 -1465972459153 -23773987 10904 -10670 1465146435890 -1465146390538 1465994090278 -1465994136245 298 23822638 -48628 48630 -48626 1465122613409 -1465146425070 -10691 45373 1465146390538 847699740 -1465994090278 -45485 1465146435877 849797163 -849797168 -1465122613414 1465122613420 -1465122662111 48558 90 -25 -23822865 588 10515 1465996213867 -849788622 152 -1465122662265 174 1465122661938 -1465122660759 -1339 -23773918 -153 -46 3659 7311 -1465122662113 -23774226 23774081 -23896943 23945538 -48577 48537 -23822221 23773785 -32 -23773701 23773611 -23773767 1465996233047 -1465972459273 12 -23774211 -63 -23773716 23822271 -23821826 23773376 -23773376 17365 1465995234777 -1465995212815 1465995212858 1465146413915 -1465146407218 1465146407218 -1465122662099 -5 -1465122613549 -23822325 -1465996233332 23822760 1465122613405 -1465122662092 1465146435859 849797181 1465146435852 849797188 -849797187 -1465122661963 -119 1465122613534 -1465146435837 -315 23822761 -1465146435862 1465146435855 849797185 -849797185 7 -1465146435856 1465146435870 849797170 -849797183 19 143 -1465146436337 23822918 -48687 129 -23822459 23822454 -1465996233344 304 23773820 1465972459220 -1465996230886 -2154 1465146435850 849797190 -1465972459152 48580 -48704 48703 -48683 -23773836 23773948 1465122661978 -1465146435874 1465996232921 -71690 -849792233 849797195 -849797194 -1465146435846 -1465972410572 -48702 -23773615 23822317 -31389 31390 1465118939799 -1465118939800 1465122613374 -1465122644763 1465122644763 -1465122613374 1465118939809 -1465142762277 1465146435847 849797193 -849797196 -1465146439159 1465146439158 -1465146435844 1465146435851 -1465972459143 1465122661958 -1465146435889 11672 1465996221368 -1465996229717 1465146432528 -1465146432523 23819141 1465122613382 849797189 -849797190 -1465122613384 -23822517 -23773848 -187 287 10647 1465996213968 -849788730 -171 -1465146422300 1465146422302 -1465146435815 -39 13553 1465996219487 -2095847 -1465994123640 30450 -30450 -10231 23783583 -23786758 1465142762134 -1465118939817 1465118939823 -1465118939823 1465118939824 -1465118939824 3673555 -3673555 1465122613381 -1465146391846 1465146391845 -1465146435850 1465146435849 849797192 -849797189 -1465122648940 -23773355 23809027 -35672 1465122648943 -1465122662088 -23760212 -13421 13420 23809030 38 8 -23823620 1465142763284 -1465142762627 100 1465139588365 -1465139566198 -21816 1465996206631 -849788645 3606725 -1465150020659 1465146414109 -174 -1465122662060 49 1465971460916 -848798877 -1465146435714 -1465122662210 1465122662039 -1465122613238 -144 -48705 261 -132 -23822315 23786770 35541 -35541 -23822467 1465142762172 -1465118939709 32 6 -23823609 23823577 -23822469 23822468 1465122613263 -1465146435731 1465146435732 23822585 1465972410455 849797191 -849797192 -1465122662083 1465122662087 -1465146435851 1465146435853 17 -1465122613395 -48692 48700 125 1465118939709 -1465118939815 1465118939813 -1465118939813 1465118939815 3673579 1465122613416 -1465122613291 -23823606 23823607 -23822583 -1465996218769 -14271 -849797172 -1465146410654 23748627 63 1465122662091 -1465122660845 1465969963767 -847302922 -1465122613412 -1465122662103 -23822457 23822457 1465972410583 -1465972410457 -48812 1465118988508 -1465142762663 23822359 1465972410681 -1465146425073 1465146425072 849797171 -1465972459275 1465122662108 -1465122613419 -23822915 23822788 1465122613549 -1465122662006 120 -133 1465122662019 39 -23797407 23797251 -48700 -23773868 13936 1465146422032 -1465122613416 -849797169 -1465146435870 -1465122613517 -28 66 24 23822290 -23821881 23773373 -23773373 17362 6657 1465146407263 -1465122613456 -47272 1465122660757 -1465146448001 23787247 47298 1465122613457 -1465122613489 -53 -48553 48610 -23822388 23822389 1465972410651 -1465972410657 61 156 -148 1465122613406 -1465122613486 -23810681 23810692 -48497 48495 71 -67 67 -64 189 1465118939706 -1465118939706 -23822582 -853470753 -1465118939830 126 1465146435868 -1465122613248 -160 1465972410581 -1465972410646 1465122613476 -1465122613481 -48501 -23773889 -225 1465996233265 -1465972410650 48562 1465122613412 -1465146435871 23773897 1465122661974 -849797171 -48627 48623 1465122613480 -1465122613482 -48618 48622 -48622 48587 -23822884 615 23773651 48571 46 -23836986 26262 23810745 -23822827 23822830 -23834653 12205 -1465972410655 64 -23821668 23772989 48678 -86 -48614 23822448 1465972410592 -1465996232894 23822273 1465122613408 -1465122613403 124 1465118939840 -1465142762318 23822612 -23811951 23812000 -23812923 23812711 -23812704 23812704 164 1465122613271 -1465122613208 1465122613221 -3673591 3673591 -1465146483657 1465142810066 3673595 -1465146483661 23870263 48629 1465118939704 -1465142762286 23822616 1465972410424 48687 131 -61 60 1465122613206 -1465146435853 1465146435867 849797173 -1465146436238 23774356 48475 -23821667 23773160 48517 -73 -48615 48573 -23822310 748 23821864 -60 28 -23835430 23835370 1465118939641 -1465118939639 -23835426 23835428 -23835427 23835427 -23818817 23818815 16613 23818813 23835425 -23835432 23835367 1465118939708 -1465118939841 196 1465122613284 -1465122613417 1465118939839 -1465118988519 57 1465122613477 -1465146435869 849797172 -849797173 -1465122613441 -23834635 23834635 -23834648 23834650 -165 52 -23834646 -48685 48656 188 -249 -23810663 1465146424169 204 -33 1465122661930 -1465122613477 -48587 -23833910 11430 -1465972410560 -152 -23833740 23833798 -23822690 -23771666 1465996230886 1465146435862 849797178 -1465972410556 -23834681 11823 23822861 -23822479 781 -1006 23822705 1465972410560 48709 -94 -21 20 -23822384 23822479 -23822333 1465996232894 -1465972410611 50 -22 128 -103 1465118939810 -203 -23812720 23812926 -205 -23812714 -57518 1465142810065 -1465142810066 23870387 1465122613264 -3673585 -1465142810065 23870435 1465122613214 -1465146483650 1465146483654 -1465122613391 -48629 47 -51 -23822635 1465146435860 -1465972459066 -23774356 23774323 -23773160 23821698 -48709 -23773737 23822600 -175 248 -290 292 -23821854 23821853 -48 -27 -23822897 23822944 -23835589 23835638 -23822945 -12692 1465142775289 -1465142758454 23818648 -23818648 23818801 1465122613224 -1465146448863 23835590 -102 -48710 1465122662092 -3673572 -1465118939946 1465972410712 -1465972410557 1465122613380 -1465122613381 -97 91 -23834673 23834658 159 -138 23834680 138 -23834814 23834676 -23834677 23834681 -23 22 135 -159 -23834665 23834667 -23834667 23834671 -1465122613379 -23834811 23834862 -1465122613380 -23834796 23834798 48 -23834857 23834805 -23834808 23834796 23834845 -23834794 -1465146448225 1465146448224 -1465122613382 -23833892 23833895 -23834685 23834838 -150 -23835487 23835491 153 -23835494 806 23834688 -23834861 23834861 -23833895 23833892 11073 -1465122613545 -48713 48713 -124 117 23834673 -23834680 23834677 -23835639 1465146448868 -1465122613378 -23834803 23834803 1465122613424 -1465146448238 1465146448240 -23834642 1465122613230 -1465146448241 -1465146448873 13011 23822485 1465972410555 23834685 -23835644 23835495 23834854 23834636 -23834853 173 23834684 -23835641 23835440 1465146448238 -23834684 23834837 -149 -23835492 -1465146436200 -1465972402014 -48714 48589 -24 1465122613247 -1465122613377 -23834807 1465146448222 1465122613378 -1465122613429 -23834815 23834858 -23833908 23833908 11033 23822863 -23822010 23822008 -23822643 -12041 23835492 -44 1465122613428 1465122661896 849797177 -849797176 -1465122661923 48445 23833871 -1465122613483 48616 -34 -48487 1465146435871 849797169 -849797186 -1465122613436 1465122613456 -1465122613488 1465122613482 -1465122613487 23810749 -23825472 23825470 -23822386 23822394 1465972410646 -1465146435875 1465146435869 -1465122613485 1465972410657 -23822390 -849797170 -1465122661899 -23773974 23773941 1465122661934 849797168 -849797167 -1465122613543 1180 -1179 1465122661935 -1465122613418 23773779 1465146435846 -1465146436220 320 23775149 -23763239 23810701 1465118939664 -1465142760210 -2226 23775270 47462 1465118939707 -1465118939669 -23823601 1061 10396 -10347 1465996161233 -849725281 849725412 -69 -1465972383387 1465972383325 -1465122658044 -23778080 23821809 -23819544 866 -3291 235 21916 1465996211124 -1465996211086 7915 1465146405998 -1465146435867 -1465972457920 1465122660751 -1465122613289 1465118939675 15252 25214 1465996207826 -1465972459199 1247 -1465969965014 -23773811 1465993738811 -1465993738710 -375 16544 -13363 -2880 1465993738778 2494262 1465993738852 398476 -1465994135063 -2190 849797175 -849797177 -1465146432816 1465993735731 -1465993738853 1465993736588 -1465993735732 1465146432821 847302918 -1465969964899 -23773803 23822358 -23806082 23806388 1465969916148 -1465993738812 16276 1465993722535 3181 1465994137328 857 1465993735730 -1465993738777 1465993738853 -1465993736587 1465146433678 -1465146432823 1465146432825 -1465146436370 985 23773389 -23773389 17378 1465146413914 -1465146407085 1465146407085 -1465122614133 878 -1465972410419 -45 -48792 1465115814339 -1465139570266 -1465996224542 -855646600 -1465139588137 3081 -3069 1465146435874 -1465122613246 -23800701 -22184 -712 977 23773841 1465972459199 -1465972459262 1465122660839 847302929 -1465993738811 23773811 -23757535 -16169 1465993739085 -1465993735904 1465996233115 -2095787 1465993736587 3047 -847302913 -1465146433675 23820441 -23822664 23819625 1465969916113 -1465993722541 -74 -226 1465996230160 -1465994137253 2190 -847302914 -1465996229993 -857 23822664 -23819585 13197 1465115908512 854007594 -1465969916158 -48751 -23748669 23748772 -210 109 -23774077 198 21953 -21944 -2494256 -1465969916153 1465969916155 -1465969916106 -23822706 -2494263 3122 1465146432818 849797176 1465146433676 -1465996229994 1465146432822 -6847597 6847595 848798855 -50060 -848748797 1465122613248 -1465146436845 23823598 -48696 -23773887 -1465972411305 -23821609 23822487 -878 1465122614136 -1465122614136 1465122614133 -1465122661983 -100 -23870698 96910 71690 -849792211 -1465146435868 -1465122661991 -37 -23773878 1465146435873 -23822423 98 -1465996232983 13781 23808619 160 -23822614 849797167 -23822257 23773765 1465972459275 -1465972459252 -23763194 23763238 23777108 27 34 -48589 -23763176 23811731 1465122613547 -1465146435872 -1465996232924 -588 11103 -849788624 -23822639 23822554 -23935172 23886550 -48621 48625 -23945216 23945212 -23822383 139 23822279 1465972410622 -8286 -1465122662207 -1465970316576 -23822251 23822418 -1465972459223 -23773816 -1465996233556 23775636 -23774622 23773377 -23773377 17366 1465995212814 -1465995234820 1465146413941 -1465122660738 47273 -23793739 23745243 1223 47264 -47265 47261 23834630 1465122613432 -1465146424155 23763418 47266 -47260 -1357 1465122661919 -1465146435738 1465146435739 -48515 48609 -18327 -23815575 23833808 -1465146424156 47267 -47262 47287 47252 -47249 47283 -47286 -23775120 1465972459143 -1465972457908 47348 23785310 1235 -23775132 -167 1465996233207 1465146435848 11428 -23833896 23833896 -23834809 23834814 23834853 23834683 -47 -23834805 23834808 1465122613415 -1465122613371 -23834842 -201 -23835448 23835487 -23834854 1465146448863 -1465146424150 1465146424145 -1465146436318 -1465972450735 1465122662084 -1465122661909 1465122661908 -1465146435987 -849788652 -23774074 285 -503 4361 -3999 -126 -179 1465996224665 48538 -47363 -23787321 -47494 -23788147 12897 1465146435958 1179 -23775284 1465146436019 -1465122660708 -23785936 23785940 47333 -23834683 12539 -849788650 -1465122662085 1465122660731 -1465146435820 1465146435821 -1465122660714 -23785944 23785951 -23834675 23834675 -47317 47338 -134 47476 -47476 23787326 47339 1465122660707 -1465122662078 -23762068 23763437 47189 -48558 1465122662081 -1465122660712 47253 -23822328 -1465972457905 -23785951 23785948 -23834679 -47341 47319 -136 -23787326 23787331 1465122660710 -1465122613375 -23810776 1465146424152 -1465122660719 -23775607 -10341 16 10913 1465122662090 -1465146436019 -305 23773821 1465122661916 -1465146425223 23764486 1465972449381 -1465996224665 1465146436195 -1465122613639 -48513 -23810773 23763415 1465122660737 -1465146435854 849797187 -849797182 -1465122661959 1238 -23785935 23784695 23775135 1465972457905 -1465996243853 10813 -849797184 1465122661961 -1465122660726 -1235 -23785933 23785935 -1240 -23785948 1465146446668 -1465122660720 1465122660720 -1465146446652 1465146446666 -1465122660718 1465146446662 -23785945 1465146446663 -1465122661884 1465122661883 -1465122661916 -1465146435857 1465146435858 849797182 -1465122660735 47254 -47258 47259 -23775287 167 -23822557 23822624 -191 1465122613398 -23775203 571 23773387 -23773387 17376 1465146413903 -1465146407087 1465146407087 -1465146435858 47270 1465122660732 1465122661912 -1465122660729 1182 -47313 47313 974 14271 1465996218769 -1465996207826 -25214 1465122660750 847303017 -1465993738825 -48853 23806428 1465969916107 -847303002 -1465146419532 -48901 1465969965014 -854007590 -1465115908864 -23822494 23822795 -23806378 1465146419530 -1465122613147 -23822671 -1465146436248 1465996233510 -23758875 23806337 -48607 48646 23797368 -1465142762170 23752102 22900 47334 -47311 47321 -116 -47354 163 1465122613229 -1465122660730 48497 1465122661917 -23775135 23785932 -23785932 23785936 1465122660713 -1465122613376 -151 155 1465122613215 -1465146448224 23834806 -23834829 1465146448221 -1465122613390 177 1465122613216 -1465122613236 -30 -47288 -23787519 23787523 47286 23787507 1465122660702 -1465122613214 1465146448861 -1465146448228 1465146448225 -1465122613415 -47297 -23787506 1574 1465146446644 47297 -23833229 23833234 23834857 -1465122660703 1465122660706 -1465146435849 -1465146424149 1465996221338 -1465122660693 1465122660700 -1465122613424 1465146448232 -1465122660710 47330 -23810763 23810688 1465122613466 -1465122660700 47324 1465118939705 -1465118939636 -23835594 23786788 48856 23788164 47276 23787530 -1191 1465122660722 -1465122613269 -1465118939634 -72 -23835667 23835595 74 -48879 48858 -23835654 23835669 23835641 1465122613267 1465122613414 -3673561 -1465118939901 -23834762 1465146448230 -1465122660728 -23822389 -1465972457882 47295 -47296 1465122660675 -1465146435834 -18 849797207 -849797207 -1465122660704 -23775002 1465146435731 -47298 47438 -47438 1465122660698 -1465122660699 -23775032 23775032 47454 -47469 47469 -47455 47296 -23822471 -1465146435855 -849797191 -1465122613459 -47273 -47270 47322 -47328 47472 -47501 1465122660730 47328 14 -47278 -23787498 23787537 1465122660691 -1465122613267 69 1465122613198 -1465122613237 -47321 1465122613376 -47532 -23822455 23775144 1465972457881 47437 -47440 47425 70 47497 -47513 -1465122660697 -1381 1381 -1207 -1465146435727 1465146435728 -1465122661910 1465122660699 -1465146436199 216 23822791 1465122660703 -23822909 23823126 -23822538 -12493 23787525 -23764517 1465122662080 -1465122660685 -23775188 23773967 47540 23786771 -23786769 23835639 23786943 -23775474 23822990 -23823043 23823044 -23823112 23823112 -1465122660647 47420 -23835622 1465146448850 -1465122660687 -1270 1269 47274 -23834802 23787553 47390 -47392 -1413 -23776905 23778210 47239 23787572 47242 -47243 -1465146448855 1465146448855 1465122660650 -1465122660649 1465122613260 -1465122661868 1251 -23879747 23927167 -47421 -1465122660702 1465122660687 -1465122613193 -23775147 -1465122660723 47465 -47435 1261 1465122660656 -1465122660698 47434 23822621 1465972410412 -1465972410455 1465115765502 1465139566215 3069 -3082 21927 1465146413925 -1465122613224 -23823598 614 23822631 1465972410409 -1465972410369 -23808400 -1465972410409 23775058 47646 -23806428 23806377 1465969916158 -854007589 854007590 -1465993739753 23823595 -3031610 -1465115908024 -23822515 1465142762117 -3032142 3032142 -3031006 3031006 3673577 -1465122613202 1465115909198 -1465115909158 1465115909158 -579 65 -1465115908623 1465115908577 -1465115908620 1465115908578 -1465139731251 1465139731250 856501790 -856501789 -1465115908564 1465115909142 -1465115909141 1465115908562 51 1465115908563 579 1465115908514 580 1465115909141 -628 -1465139731250 1465146435833 -1465122613200 1465115909200 -1465139731831 23822689 1465972410350 -40 1465115908580 -1465115908580 1465115908520 -1465115908565 1465118939658 -1465118939668 1465115908618 -1465115908667 85 -36 1465115908615 640 -1465115908617 1465115908567 -1465139744210 1465139744208 -1465115915965 7389 1465122613156 -1465122620545 7335 1465115908629 -1465122613188 1465115908603 578 -581 -1465115908605 23835434 1465115908554 -1465115908556 23835430 1465115908619 3031089 -3031089 -1465115915963 7387 -1465122620543 7333 1465122613244 -1465122613183 1465122613246 -1465122613182 -23822650 -1465122613196 1465122613197 849797209 -1465996233073 -1465993722535 -16243 1465146435845 -1465972410420 -23822655 -953 23823614 -70 -48806 48880 1465122613188 -1465146436285 23823061 -23823596 -1465972458015 47606 1465115908667 -1465115957461 1465115957400 -1465139731189 1465115908519 -1465115908520 -1465118939658 1465115908664 -1465115908615 -1465115908618 1465115909196 -1465115909246 -23835643 1465139744210 -1465115908567 -1465139744208 -1465115908576 1465122613167 -1465122620555 -1465115908629 1465122613222 -1465122613260 -1465115908664 -52 -1465139743988 23835432 -1465122620553 1465122613254 -1465122613211 -23822586 1465146435844 1465972410390 42 -23822678 -1465972410353 1465115908564 6704586 -1465122613150 -629 -1465115908512 -1465115908501 -47497 1465122613150 849797203 1465115908518 -1465139731138 23822580 -1465993738778 -1465996217202 -15838 10943 23797417 -48790 1185 -23775026 23822671 1465972410369 -856501790 -1465115908516 1465115908573 854007595 -1465969916111 6704554 -6704554 -1465115908563 1465122613116 -1465146436179 1465139731626 -1465115908579 -23823074 3295 23819782 1465969916109 -1465969916108 -23819798 23819793 1465969916111 -854007534 -1465139731271 -236 3151 14921 -17815 23746451 41 -23749538 1465146435797 849797243 -2097461 -1465970312908 -1465139731589 400 2880 -849797241 -1465146436258 1465139731763 -1465139731481 1465139732063 -1465139714015 1465139713432 -1465139713431 -17840 2915 -3151 18072 1465139714018 -1465115982335 1465115981752 -1465139731626 23749913 1465122686207 -1465146432849 1465146432846 -1465146435746 2895 1465996230145 -856501207 -1465115909146 -23819785 1465139728356 -1465139713435 1558188 22173557 -23731742 23732082 -23724586 1465156872181 -1465148917007 -7980363 1465439950328 -1465435911911 1465142397196 -1465140426224 985487 492744 -245765 -122882 -61441 -7058037 6996590 -6993325 1465146432839 602954085 -1465749389808 -246840355 167617 -1465725737624 1465115908571 609829262 -609828622 6704520 -1465122613033 1465122613036 603124728 -603124728 -1465146435572 23822536 1465725737764 -603124733 -1465146435719 1465146435721 -1465122613043 1465122613044 849797304 -1465996233177 -6703905 609660852 -602956948 -1465146435736 -1465146417921 1465146417984 -58 849797301 -1465122613120 -23725525 1465146338648 603124646 -1465749560851 23823087 6704561 603124639 -1465749557571 1465139728309 -630 629 6704611 -6704561 -6703969 -1465139731864 1465146435837 -6704602 854007578 -1465993722536 1465993722536 -854007529 609829263 -603124648 603124647 -1465725805339 1465115976138 -1465115908573 -1465115908513 -23822676 -1465996233440 231 23822840 -7385 1465122620527 603124640 
Potential of Offsets elements: 99.6743 28.6743 28.6743 28.6743 66.6743 30.6743 34.6743 28.6743 28.6743 622.674 28.6743 28.6743 28.6743 431.674 808.674 28.6743 28.6743 28.6743 28.6743 28.6743 28.6743 581.674 463.674 520.674 31.6743 28.6743 28.6743 28.6743 28.6743 28.6743 28.6743 28.6743 28.6743 28.6743 189.674 28.6743 28.6743 28.6743 28.6743 28.6743 28.6743 28.6743 28.6743 316.674 305.674 28.6743 28.6743 359.674 325.674 28.6743 28.6743 28.6743 28.6743 28.6743 28.6743 89.6743 28.6743 28.6743 28.6743 28.6743 28.6743 28.6743 28.6743 28.6743 28.6743 28.6743 28.6743 28.6743 30.6743 628.674 28.6743 28.6743 28.6743 28.6743 28.6743 28.6743 28.6743 28.6743 28.6743 35.6743 28.6743 28.6743 28.6743 28.6743 28.6743 28.6743 28.6743 254.674 28.6743 28.6743 28.6743 28.6743 28.6743 95.6743 28.6743 28.6743 28.6743 28.6743 30.6743 28.6743 28.6743 28.6743 28.6743 28.6743 28.6743 28.6743 28.6743 28.6743 28.6743 28.6743 217.674 28.6743 28.6743 28.6743 28.6743 28.6743 28.6743 28.6743 28.6743 28.6743 28.6743 28.6743 28.6743 28.6743 28.6743 80.6743 28.6743 236.674 28.6743 28.6743 28.6743 28.6743 244.674 35.6743 28.6743 28.6743 28.6743 28.6743 28.6743 28.6743 28.6743 28.6743 28.6743 32.6743 28.6743 28.6743 29.6743 29.6743 28.6743 28.6743 109.674 28.6743 28.6743 28.6743 28.6743 28.6743 28.6743 28.6743 28.6743 28.6743 28.6743 28.6743 28.6743 28.6743 28.6743 28.6743 28.6743 28.6743 28.6743 28.6743 502.674 28.6743 28.6743 28.6743 28.6743 28.6743 28.6743 28.6743 28.6743 28.6743 28.6743 28.6743 28.6743 28.6743 28.6743 28.6743 28.6743 28.6743 28.6743 28.6743 28.6743 28.6743 28.6743 28.6743 28.6743 28.6743 28.6743 28.6743 28.6743 28.6743 28.6743 28.6743 28.6743 28.6743 28.6743 28.6743 28.6743 28.6743 28.6743 217.674 28.6743 28.6743 28.6743 28.6743 79.6743 199.674 286.674 28.6743 28.6743 285.674 28.6743 215.674 28.6743 28.6743 28.6743 28.6743 28.6743 95.6743 28.6743 186.674 28.6743 28.6743 64.6743 28.6743 28.6743 28.6743 28.6743 28.6743 28.6743 28.6743 28.6743 28.6743 197.674 28.6743 28.6743 28.6743 28.6743 28.6743 243.674 28.6743 28.6743 28.6743 28.6743 28.6743 28.6743 30.6743 28.6743 28.6743 28.6743 28.6743 28.6743 28.6743 33.6743 28.6743 28.6743 28.6743 28.6743 28.6743 28.6743 28.6743 88.6743 28.6743 28.6743 28.6743 28.6743 28.6743 28.6743 28.6743 28.6743 28.6743 28.6743 28.6743 28.6743 28.6743 155.674 28.6743 28.6743 28.6743 28.6743 28.6743 28.6743 28.6743 169.674 28.6743 28.6743 28.6743 28.6743 28.6743 28.6743 28.6743 28.6743 28.6743 28.6743 28.6743 28.6743 28.6743 28.6743 28.6743 28.6743 28.6743 28.6743 28.6743 28.6743 28.6743 28.6743 28.6743 301.674 28.6743 28.6743 28.6743 28.6743 28.6743 28.6743 28.6743 28.6743 28.6743 28.6743 28.6743 28.6743 135.674 28.6743 28.6743 28.6743 28.6743 28.6743 28.6743 28.6743 28.6743 28.6743 28.6743 28.6743 28.6743 28.6743 28.6743 28.6743 28.6743 28.6743 28.6743 28.6743 28.6743 28.6743 28.6743 28.6743 28.6743 28.6743 28.6743 28.6743 28.6743 28.6743 109.674 28.6743 28.6743 34.6743 28.6743 28.6743 28.6743 28.6743 28.6743 28.6743 28.6743 28.6743 28.6743 28.6743 28.6743 28.6743 28.6743 201.674 28.6743 28.6743 28.6743 28.6743 28.6743 28.6743 35.6743 40.6743 36.6743 28.6743 28.6743 28.6743 28.6743 28.6743 28.6743 28.6743 28.6743 28.6743 28.6743 31.6743 28.6743 28.6743 28.6743 28.6743 28.6743 28.6743 28.6743 28.6743 28.6743 28.6743 28.6743 28.6743 28.6743 28.6743 28.6743 28.6743 28.6743 28.6743 28.6743 28.6743 28.6743 28.6743 28.6743 28.6743 28.6743 41.6743 28.6743 28.6743 28.6743 127.674 28.6743 28.6743 28.6743 28.6743 32.6743 28.6743 28.6743 28.6743 28.6743 28.6743 28.6743 28.6743 28.6743 956.674 28.6743 28.6743 28.6743 28.6743 64.6743 28.6743 28.6743 28.6743 28.6743 28.6743 28.6743 92.6743 28.6743 28.6743 28.6743 28.6743 28.6743 82.6743 28.6743 28.6743 28.6743 34.6743 152.674 28.6743 28.6743 28.6743 28.6743 28.6743 28.6743 28.6743 28.6743 28.6743 28.6743 28.6743 28.6743 28.6743 28.6743 28.6743 156.674 28.6743 28.6743 28.6743 28.6743 28.6743 28.6743 28.6743 28.6743 28.6743 28.6743 28.6743 28.6743 28.6743 28.6743 28.6743 28.6743 28.6743 28.6743 28.6743 28.6743 29.6743 202.674 28.6743 28.6743 28.6743 28.6743 28.6743 28.6743 187.674 46.6743 28.6743 28.6743 28.6743 28.6743 28.6743 28.6743 28.6743 28.6743 28.6743 28.6743 91.6743 28.6743 232.674 28.6743 28.6743 40.6743 28.6743 28.6743 28.6743 28.6743 28.6743 28.6743 54.6743 28.6743 28.6743 28.6743 28.6743 28.6743 28.6743 28.6743 28.6743 28.6743 28.6743 28.6743 28.6743 28.6743 28.6743 28.6743 28.6743 28.6743 28.6743 28.6743 28.6743 28.6743 28.6743 28.6743 28.6743 28.6743 28.6743 28.6743 28.6743 28.6743 28.6743 28.6743 28.6743 28.6743 28.6743 28.6743 987.674 40.6743 28.6743 28.6743 34.6743 28.6743 28.6743 30.6743 28.6743 28.6743 126.674 28.6743 28.6743 28.6743 28.6743 28.6743 28.6743 46.6743 28.6743 28.6743 28.6743 28.6743 28.6743 28.6743 34.6743 223.674 28.6743 28.6743 28.6743 28.6743 28.6743 28.6743 28.6743 28.6743 28.6743 28.6743 28.6743 28.6743 28.6743 28.6743 28.6743 28.6743 28.6743 28.6743 28.6743 28.6743 28.6743 28.6743 28.6743 28.6743 28.6743 50.6743 53.6743 28.6743 164.674 28.6743 28.6743 28.6743 28.6743 28.6743 28.6743 28.6743 28.6743 28.6743 37.6743 28.6743 28.6743 36.6743 28.6743 46.6743 28.6743 28.6743 28.6743 68.6743 28.6743 28.6743 28.6743 28.6743 28.6743 28.6743 28.6743 28.6743 28.6743 28.6743 28.6743 28.6743 28.6743 30.6743 28.6743 28.6743 28.6743 28.6743 28.6743 28.6743 28.6743 28.6743 29.6743 28.6743 28.6743 28.6743 28.6743 28.6743 28.6743 28.6743 28.6743 28.6743 28.6743 28.6743 28.6743 28.6743 28.6743 28.6743 28.6743 205.674 37.6743 28.6743 28.6743 28.6743 28.6743 28.6743 28.6743 28.6743 28.6743 28.6743 28.6743 144.674 28.6743 28.6743 28.6743 28.6743 28.6743 28.6743 28.6743 28.6743 28.6743 28.6743 28.6743 28.6743 28.6743 28.6743 28.6743 28.6743 28.6743 28.6743 28.6743 28.6743 28.6743 28.6743 28.6743 28.6743 28.6743 28.6743 28.6743 28.6743 28.6743 28.6743 103.674 28.6743 28.6743 28.6743 28.6743 28.6743 28.6743 28.6743 28.6743 28.6743 28.6743 28.6743 28.6743 28.6743 28.6743 28.6743 28.6743 28.6743 28.6743 28.6743 28.6743 28.6743 28.6743 28.6743 28.6743 28.6743 28.6743 28.6743 28.6743 28.6743 28.6743 28.6743 28.6743 28.6743 28.6743 28.6743 28.6743 28.6743 28.6743 28.6743 28.6743 28.6743 28.6743 28.6743 28.6743 28.6743 126.674 28.6743 28.6743 28.6743 28.6743 28.6743 60.6743 28.6743 36.6743 28.6743 28.6743 28.6743 28.6743 28.6743 58.6743 28.6743 28.6743 28.6743 28.6743 28.6743 28.6743 28.6743 28.6743 28.6743 28.6743 28.6743 100.674 28.6743 28.6743 28.6743 28.6743 28.6743 272.674 28.6743 112.674 28.6743 28.6743 28.6743 28.6743 28.6743 28.6743 28.6743 28.6743 28.6743 28.6743 28.6743 28.6743 28.6743 126.674 28.6743 28.6743 28.6743 28.6743 28.6743 28.6743 28.6743 28.6743 28.6743 28.6743 28.6743 28.6743 31.6743 28.6743 28.6743 28.6743 28.6743 28.6743 28.6743 28.6743 28.6743 829.674 28.6743 28.6743 28.6743 28.6743 184.674 52.6743 28.6743 28.6743 28.6743 40.6743 28.6743 28.6743 28.6743 28.6743 28.6743 28.6743 53.6743 71.6743 28.6743 28.6743 28.6743 28.6743 28.6743 28.6743 28.6743 28.6743 28.6743 28.6743 28.6743 72.6743 28.6743 28.6743 28.6743 28.6743 28.6743 28.6743 28.6743 28.6743 28.6743 28.6743 28.6743 28.6743 28.6743 28.6743 28.6743 28.6743 28.6743 28.6743 28.6743 28.6743 28.6743 28.6743 28.6743 28.6743 28.6743 28.6743 28.6743 28.6743 28.6743 29.6743 28.6743 28.6743 28.6743 28.6743 28.6743 28.6743 28.6743 28.6743 28.6743 28.6743 28.6743 34.6743 28.6743 28.6743 28.6743 28.6743 32.6743 28.6743 28.6743 28.6743 28.6743 28.6743 28.6743 28.6743 28.6743 28.6743 28.6743 28.6743 28.6743 28.6743 28.6743 28.6743 28.6743 28.6743 28.6743 28.6743 28.6743 28.6743 28.6743 28.6743 28.6743 28.6743 28.6743 28.6743 28.6743 28.6743 28.6743 28.6743 28.6743 28.6743 28.6743 28.6743 28.6743 28.6743 28.6743 41.6743 120.674 28.6743 28.6743 28.6743 28.6743 28.6743 28.6743 28.6743 28.6743 28.6743 28.6743 28.6743 28.6743 64.6743 28.6743 56.6743 28.6743 28.6743 28.6743 28.6743 28.6743 28.6743 28.6743 28.6743 28.6743 28.6743 28.6743 28.6743 28.6743 28.6743 28.6743 28.6743 28.6743 38.6743 205.674 28.6743 28.6743 28.6743 28.6743 28.6743 28.6743 28.6743 28.6743 28.6743 28.6743 28.6743 28.6743 28.6743 28.6743 28.6743 91.6743 28.6743 28.6743 28.6743 28.6743 28.6743 28.6743 28.6743 28.6743 28.6743 28.6743 28.6743 28.6743 28.6743 28.6743 28.6743 28.6743 28.6743 28.6743 28.6743 28.6743 28.6743 28.6743 28.6743 28.6743 28.6743 28.6743 28.6743 28.6743 28.6743 28.6743 28.6743 28.6743 28.6743 28.6743 28.6743 28.6743 28.6743 28.6743 28.6743 28.6743 28.6743 28.6743 28.6743 28.6743 28.6743 28.6743 37.6743 28.6743 28.6743 187.674 28.6743 28.6743 28.6743 28.6743 28.6743 28.6743 28.6743 28.6743 28.6743 28.6743 379.674 75.6743 65.6743 28.6743 28.6743 28.6743 28.6743 28.6743 28.6743 28.6743 28.6743 28.6743 28.6743 28.6743 28.6743 28.6743 28.6743 28.6743 70.6743 28.6743 28.6743 28.6743 28.6743 28.6743 28.6743 72.6743 31.6743 28.6743 28.6743 28.6743 29.6743 28.6743 28.6743 28.6743 52.6743 188.674 50.6743 72.6743 32.6743 28.6743 28.6743 28.6743 28.6743 28.6743 151.674 28.6743 28.6743 40.6743 28.6743 28.6743 28.6743 28.6743 28.6743 28.6743 28.6743 28.6743 28.6743 28.6743 28.6743 42.6743 28.6743 28.6743 108.674 28.6743 28.6743 28.6743 28.6743 28.6743 28.6743 28.6743 28.6743 28.6743 28.6743 28.6743 28.6743 85.6743 28.6743 28.6743 28.6743 28.6743 28.6743 28.6743 28.6743 28.6743 31.6743 28.6743 28.6743 28.6743 44.6743 28.6743 28.6743 28.6743 28.6743 28.6743 28.6743 28.6743 28.6743 28.6743 28.6743 28.6743 28.6743 28.6743 28.6743 28.6743 28.6743 28.6743 28.6743 28.6743 28.6743 28.6743 28.6743 28.6743 28.6743 28.6743 28.6743 28.6743 28.6743 28.6743 28.6743 28.6743 28.6743 28.6743 28.6743 34.6743 40.6743 38.6743 28.6743 30.6743 45.6743 28.6743 28.6743 28.6743 28.6743 28.6743 28.6743 28.6743 34.6743 28.6743 28.6743 28.6743 28.6743 28.6743 61.6743 36.6743 28.6743 28.6743 28.6743 28.6743 28.6743 28.6743 28.6743 28.6743 28.6743 28.6743 28.6743 28.6743 28.6743 28.6743 28.6743 28.6743 28.6743 29.6743 28.6743 28.6743 28.6743 28.6743 32.6743 28.6743 113.674 46.6743 96.6743 28.6743 28.6743 28.6743 28.6743 28.6743 28.6743 53.6743 28.6743 28.6743 28.6743 37.6743 28.6743 28.6743 28.6743 28.6743 140.674 28.6743 28.6743 28.6743 28.6743 28.6743 28.6743 28.6743 28.6743 28.6743 28.6743 28.6743 28.6743 28.6743 28.6743 28.6743 28.6743 28.6743 28.6743 28.6743 28.6743 124.674 28.6743 28.6743 28.6743 792.674 28.6743 195.674 28.6743 28.6743 28.6743 28.6743 28.6743 141.674 28.6743 43.6743 28.6743 28.6743 28.6743 28.6743 28.6743 28.6743 28.6743 28.6743 28.6743 28.6743 28.6743 28.6743 28.6743 28.6743 28.6743 28.6743 28.6743 28.6743 28.6743 28.6743 216.674 71.6743 28.6743 28.6743 208.674 28.6743 28.6743 28.6743 28.6743 28.6743 40.6743 28.6743 28.6743 28.6743 30.6743 28.6743 28.6743 28.6743 69.6743 150.674 28.6743 28.6743 28.6743 28.6743 28.6743 28.6743 28.6743 28.6743 28.6743 28.6743 28.6743 28.6743 28.6743 28.6743 32.6743 28.6743 28.6743 28.6743 28.6743 28.6743 28.6743 28.6743 28.6743 46.6743 34.6743 28.6743 28.6743 28.6743 40.6743 28.6743 28.6743 28.6743 28.6743 28.6743 28.6743 128.674 96.6743 28.6743 51.6743 28.6743 28.6743 28.6743 28.6743 28.6743 28.6743 28.6743 28.6743 28.6743 28.6743 89.6743 28.6743 28.6743 28.6743 28.6743 28.6743 28.6743 28.6743 28.6743 28.6743 28.6743 28.6743 28.6743 28.6743 29.6743 28.6743 28.6743 34.6743 28.6743 29.6743 28.6743 28.6743 28.6743 28.6743 28.6743 30.6743 28.6743 28.6743 28.6743 30.6743 59.6743 28.6743 28.6743 28.6743 28.6743 28.6743 28.6743 28.6743 28.6743 28.6743 28.6743 28.6743 28.6743 28.6743 28.6743 28.6743 28.6743 28.6743 28.6743 28.6743 28.6743 28.6743 28.6743 28.6743 28.6743 28.6743 28.6743 28.6743 28.6743 28.6743 28.6743 28.6743 28.6743 28.6743 28.6743 28.6743 28.6743 28.6743 71.4189 28.6743 28.6743 28.6743 28.6743 28.6743 28.6743 28.6743 28.6743 28.6743 28.6743 29.6743 28.6743 28.6743 28.6743 28.6743 28.6743 28.6743 32.6743 28.6743 46.6743 28.6743 28.6743 28.6743 28.6743 28.6743 28.6743 28.6743 40.6743 28.6743 28.6743 28.6743 28.6743 28.6743 28.6743 28.6743 28.6743 28.6743 28.6743 28.6743 28.6743 28.6743 28.6743 28.6743 28.6743 28.6743 28.6743 28.6743 28.6743 28.6743 28.6743 28.6743 28.6743 28.6743 28.6743 28.6743 28.6743 28.6743 28.6743 28.6743 28.6743 28.6743 28.6743 28.6743 29.6743 28.6743 28.6743 28.6743 28.6743 28.6743 28.6743 28.6743 28.6743 28.6743 28.6743 28.6743 28.6743 28.6743 28.6743 29.6743 28.6743 28.6743 28.6743 28.6743 28.6743 28.6743 28.6743 28.6743 28.6743 34.6743 37.6743 46.6743 68.6743 28.6743 28.6743 28.6743 28.6743 28.6743 28.6743 28.6743 28.6743 28.6743 28.6743 84.6743 54.6743 28.6743 28.6743 28.6743 28.6743 28.6743 28.6743 40.6743 28.6743 28.6743 57.6743 28.6743 28.6743 28.6743 28.6743 28.6743 28.6743 28.6743 28.6743 28.6743 28.6743 28.6743 28.6743 28.6743 28.6743 28.6743 28.6743 28.6743 28.6743 28.6743 28.6743 28.6743 28.6743 28.6743 28.6743 28.6743 28.6743 28.6743 28.6743 28.6743 28.6743 28.6743 28.6743 28.6743 28.6743 28.6743 28.6743 28.6743 28.6743 28.6743 28.6743 28.6743 28.6743 28.6743 36.6743 28.6743 70.6743 28.6743 28.6743 28.6743 28.6743 28.6743 28.6743 28.6743 28.6743 28.6743 28.6743 28.6743 28.6743 28.6743 32.6743 28.6743 28.6743 28.6743 28.6743 28.6743 28.6743 28.6743 28.6743 28.6743 28.6743 28.6743 42.6743 28.6743 28.6743 28.6743 28.6743 28.6743 28.6743 28.6743 28.6743 28.6743 29.6743 42.6743 28.6743 148.674 28.6743 100.674 28.6743 28.6743 38.6743 28.6743 28.6743 28.6743 28.6743 28.6743 28.6743 28.6743 28.6743 28.6743 35.6743 32.6743 28.6743 32.6743 28.6743 28.6743 28.6743 28.6743 28.6743 28.6743 28.6743 28.6743 28.6743 28.6743 28.6743 28.6743 28.6743 28.6743 28.6743 28.6743 28.6743 28.6743 28.6743 28.6743 28.6743 28.6743 28.6743 28.6743 28.6743 28.6743 28.6743 28.6743 28.6743 28.6743 28.6743 28.6743 28.6743 28.6743 28.6743 28.6743 28.6743 28.6743 28.6743 128.674 28.6743 28.6743 28.6743 28.6743 28.6743 28.6743 28.6743 28.6743 28.6743 28.6743 28.6743 28.6743 28.6743 28.6743 28.6743 28.6743 28.6743 223.674 142.674 28.6743 28.6743 28.6743 28.6743 28.6743 28.6743 34.6743 28.6743 28.6743 28.6743 28.6743 28.6743 28.6743 28.6743 28.6743 28.6743 28.6743 28.6743 28.6743 28.6743 28.6743 28.6743 28.6743 28.6743 28.6743 28.6743 28.6743 28.6743 28.6743 28.6743 28.6743 28.6743 28.6743 28.6743 28.6743 28.6743 28.6743 28.6743 28.6743 28.6743 28.6743 28.6743 28.6743 28.6743 28.6743 28.6743 28.6743 28.6743 28.6743 28.6743 28.6743 28.6743 28.6743 28.6743 28.6743 28.6743 28.6743 28.6743 28.6743 28.6743 28.6743 28.6743 28.6743 28.6743 28.6743 28.6743 28.6743 28.6743 28.6743 28.6743 28.6743 28.6743 28.6743 29.6743 28.6743 28.6743 28.6743 28.6743 28.6743 28.6743 28.6743 28.6743 28.6743 28.6743 28.6743 28.6743 28.6743 28.6743 28.6743 28.6743 28.6743 28.6743 28.6743 28.6743 28.6743 28.6743 28.6743 28.6743 28.6743 28.6743 28.6743 28.6743 28.6743 28.6743 28.6743 28.6743 28.6743 28.6743 28.6743 28.6743 173.674 28.6743 28.6743 28.6743 28.6743 28.6743 28.6743 28.6743 28.6743 28.6743 28.6743 28.6743 28.6743 28.6743 28.6743 28.6743 28.6743 28.6743 28.6743 28.6743 28.6743 28.6743 28.6743 28.6743 28.6743 28.6743 28.6743 28.6743 28.6743 28.6743 28.6743 28.6743 28.6743 28.6743 28.6743 28.6743 28.6743 28.6743 28.6743 28.6743 28.6743 28.6743 28.6743 28.6743 28.6743 28.6743 28.6743 28.6743 28.6743 28.6743 28.6743 28.6743 28.6743 28.6743 28.6743 28.6743 28.6743 28.6743 28.6743 28.6743 28.6743 28.6743 131.674 28.6743 28.6743 28.6743 46.6743 28.6743 28.6743 28.6743 28.6743 28.6743 28.6743 28.6743 28.6743 28.6743 28.6743 28.6743 28.6743 28.6743 28.6743 28.6743 28.6743 28.6743 28.6743 28.6743 28.6743 28.6743 28.6743 28.6743 28.6743 28.6743 28.6743 28.6743 28.6743 28.6743 28.6743 28.6743 28.6743 28.6743 28.6743 28.6743 28.6743 28.6743 28.6743 72.6743 28.6743 28.6743 46.6743 82.6743 158.674 30.6743 28.6743 28.6743 28.6743 28.6743 28.6743 28.6743 67.6743 28.6743 28.6743 54.6743 28.6743 28.6743 38.6743 28.6743 28.6743 28.6743 28.6743 28.6743 28.6743 28.6743 28.6743 28.6743 28.6743 28.6743 28.6743 28.6743 28.6743 30.6743 51.6743 28.6743 133.674 62.6743 28.6743 28.6743 28.6743 28.6743 28.6743 28.6743 28.6743 28.6743 28.6743 28.6743 28.6743 28.6743 28.6743 28.6743 28.6743 28.6743 28.6743 28.6743 28.6743 82.6743 28.6743 28.6743 28.6743 28.6743 28.6743 28.6743 28.6743 28.6743 28.6743 28.6743 28.6743 38.6743 28.6743 28.6743 28.6743 28.6743 28.6743 28.6743 28.6743 28.6743 28.6743 28.6743 28.6743 28.6743 33.6743 32.6743 28.6743 28.6743 28.6743 28.6743 28.6743 28.6743 29.6743 28.6743 28.6743 33.6743 28.6743 28.6743 28.6743 28.6743 28.6743 28.6743 28.6743 28.6743 28.6743 28.6743 28.6743 28.6743 28.6743 31.6743 28.6743 28.6743 28.6743 28.6743 28.6743 28.6743 28.6743 28.6743 28.6743 47.6743 28.6743 28.6743 28.6743 28.6743 28.6743 28.6743 28.6743 28.6743 28.6743 28.6743 28.6743 28.6743 28.6743 28.6743 28.6743 28.6743 28.6743 28.6743 28.6743 28.6743 28.6743 28.6743 28.6743 44.6743 28.6743 28.6743 28.6743 28.6743 28.6743 28.6743 28.6743 28.6743 28.6743 28.6743 28.6743 28.6743 28.6743 28.6743 28.6743 28.6743 28.6743 28.6743 28.6743 28.6743 28.6743 68.6743 28.6743 28.6743 28.6743 28.6743 28.6743 28.6743 28.6743 28.6743 28.6743 28.6743 28.6743 28.6743 28.6743 28.6743 28.6743 28.6743 28.6743 28.6743 28.6743 28.6743 28.6743 28.6743 28.6743 28.6743 28.6743 28.6743 28.6743 28.6743 28.6743 119.674 28.6743 28.6743 28.6743 28.6743 28.6743 28.6743 28.6743 28.6743 28.6743 28.6743 28.6743 28.6743 28.6743 28.6743 28.6743 28.6743 28.6743 1014.67 28.6743 28.6743 28.6743 28.6743 28.6743 28.6743 28.6743 28.6743 28.6743 28.6743 28.6743 28.6743 28.6743 28.6743 28.6743 28.6743 28.6743 28.6743 28.6743 28.6743 28.6743 28.6743 28.6743 28.6743 28.6743 28.6743 28.6743 28.6743 28.6743 28.6743 28.6743 28.6743 28.6743 28.6743 28.6743 28.6743 28.6743 28.6743 28.6743 28.6743 28.6743 28.6743 28.6743 28.6743 28.6743 28.6743 28.6743 28.6743 28.6743 28.6743 28.6743 28.6743 28.6743 28.6743 33.6743 48.6743 34.6743 45.6743 28.6743 28.6743 28.6743 28.6743 28.6743 28.6743 28.6743 28.6743 28.6743 28.6743 28.6743 28.6743 28.6743 28.6743 28.6743 28.6743 28.6743 28.6743 28.6743 28.6743 28.6743 28.6743 28.6743 30.6743 28.6743 28.6743 28.6743 28.6743 30.6743 28.6743 28.6743 28.6743 28.6743 28.6743 28.6743 28.6743 28.6743 28.6743 28.6743 28.6743 28.6743 28.6743 28.6743 28.6743 28.6743 28.6743 28.6743 28.6743 28.6743 28.6743 28.6743 28.6743 28.6743 28.6743 28.6743 28.6743 28.6743 970.674 28.6743 28.6743 28.6743 28.6743 28.6743 28.6743 28.6743 28.6743 28.6743 28.6743 28.6743 28.6743 1025.1 28.6743 28.6743 28.6743 28.6743 28.6743 28.6743 28.6743 28.6743 28.6743 28.6743 28.6743 28.6743 28.6743 40.6743 28.6743 28.6743 28.6743 28.6743 28.6743 28.6743 28.6743 28.6743 84.6743 48.6743 28.6743 32.6743 28.6743 28.6743 28.6743 28.6743 28.6743 28.6743 28.6743 28.6743 28.6743 28.6743 28.6743 28.6743 28.6743 28.6743 28.6743 28.6743 28.6743 28.6743 28.6743 28.6743 28.6743 28.6743 28.6743 28.6743 28.6743 28.6743 28.6743 28.6743 28.6743 28.6743 28.6743 28.6743 28.6743 123.674 42.6743 40.6743 28.6743 32.6743 28.6743 28.6743 28.6743 28.6743 41.6743 28.6743 28.6743 28.6743 28.6743 28.6743 28.6743 28.6743 28.6743 28.6743 28.6743 28.6743 28.6743 28.6743 28.6743 28.6743 28.6743 28.6743 28.6743 28.6743 28.6743 28.6743 28.6743 28.6743 28.6743 28.6743 28.6743 28.6743 28.6743 28.6743 28.6743 28.6743 45.6743 28.6743 28.6743 28.6743 28.6743 28.6743 28.6743 28.6743 28.6743 67.6743 28.6743 28.6743 28.6743 28.6743 28.6743 28.6743 28.6743 28.6743 28.6743 28.6743 28.6743 28.6743 28.6743 28.6743 128.674 28.6743 28.6743 32.6743 28.6743 28.6743 28.6743 28.6743 28.6743 28.6743 28.6743 28.6743 28.6743 28.6743 28.6743 28.6743 28.6743 28.6743 28.6743 28.6743 28.6743 28.6743 28.6743 28.6743 28.6743 28.6743 28.6743 28.6743 28.6743 28.6743 28.6743 28.6743 28.6743 28.6743 28.6743 28.6743 28.6743 50.6743 28.6743 28.6743 28.6743 28.6743 28.6743 28.6743 28.6743 28.6743 28.6743 28.6743 28.6743 28.6743 28.6743 28.6743 28.6743 28.6743 28.6743 28.6743 28.6743 32.6743 28.6743 28.6743 28.6743 28.6743 28.6743 28.6743 28.6743 28.6743 28.6743 28.6743 28.6743 28.6743 28.6743 28.6743 28.6743 28.6743 28.6743 28.6743 28.6743 28.6743 28.6743 28.6743 28.6743 28.6743 28.6743 28.6743 28.6743 28.6743 28.6743 28.6743 28.6743 28.6743 28.6743 28.6743 28.6743 28.6743 28.6743 28.6743 28.6743 28.6743 28.6743 28.6743 28.6743 28.6743 28.6743 28.6743 28.6743 28.6743 28.6743 28.6743 28.6743 28.6743 28.6743 28.6743 28.6743 28.6743 28.6743 28.6743 28.6743 28.6743 28.6743 28.6743 28.6743 28.6743 28.6743 28.6743 98.6743 28.6743 28.6743 28.6743 28.6743 28.6743 28.6743 28.6743 28.6743 28.6743 28.6743 28.6743 36.6743 28.6743 28.6743 28.6743 28.6743 28.6743 28.6743 28.6743 28.6743 28.6743 28.6743 28.6743 28.6743 28.6743 28.6743 28.6743 28.6743 28.6743 28.6743 28.6743 28.6743 28.6743 28.6743 28.6743 28.6743 28.6743 
rewards of Offsets elements: 71 0 0 0 38 2 6 0 0 594 0 0 0 403 780 0 0 0 0 0 0 553 435 492 3 0 0 0 0 0 0 0 0 0 161 0 0 0 0 0 0 0 0 288 277 0 0 331 297 0 0 0 0 0 0 61 0 0 0 0 0 0 0 0 0 0 0 0 2 600 0 0 0 0 0 0 0 0 0 7 0 0 0 0 0 0 0 226 0 0 0 0 0 67 0 0 0 0 2 0 0 0 0 0 0 0 0 0 0 0 189 0 0 0 0 0 0 0 0 0 0 0 0 0 0 52 0 208 0 0 0 0 216 7 0 0 0 0 0 0 0 0 0 4 0 0 1 1 0 0 81 0 0 0 0 0 0 0 0 0 0 0 0 0 0 0 0 0 0 0 474 0 0 0 0 0 0 0 0 0 0 0 0 0 0 0 0 0 0 0 0 0 0 0 0 0 0 0 0 0 0 0 0 0 0 0 0 0 0 189 0 0 0 0 51 171 258 0 0 257 0 187 0 0 0 0 0 67 0 158 0 0 36 0 0 0 0 0 0 0 0 0 169 0 0 0 0 0 215 0 0 0 0 0 0 2 0 0 0 0 0 0 5 0 0 0 0 0 0 0 60 0 0 0 0 0 0 0 0 0 0 0 0 0 127 0 0 0 0 0 0 0 141 0 0 0 0 0 0 0 0 0 0 0 0 0 0 0 0 0 0 0 0 0 0 0 273 0 0 0 0 0 0 0 0 0 0 0 0 107 0 0 0 0 0 0 0 0 0 0 0 0 0 0 0 0 0 0 0 0 0 0 0 0 0 0 0 0 0 81 0 0 6 0 0 0 0 0 0 0 0 0 0 0 0 0 173 0 0 0 0 0 0 7 12 8 0 0 0 0 0 0 0 0 0 0 3 0 0 0 0 0 0 0 0 0 0 0 0 0 0 0 0 0 0 0 0 0 0 0 0 0 13 0 0 0 99 0 0 0 0 4 0 0 0 0 0 0 0 0 928 0 0 0 0 36 0 0 0 0 0 0 64 0 0 0 0 0 54 0 0 0 6 124 0 0 0 0 0 0 0 0 0 0 0 0 0 0 0 128 0 0 0 0 0 0 0 0 0 0 0 0 0 0 0 0 0 0 0 0 1 174 0 0 0 0 0 0 159 18 0 0 0 0 0 0 0 0 0 0 63 0 204 0 0 12 0 0 0 0 0 0 26 0 0 0 0 0 0 0 0 0 0 0 0 0 0 0 0 0 0 0 0 0 0 0 0 0 0 0 0 0 0 0 0 0 0 0 959 12 0 0 6 0 0 2 0 0 98 0 0 0 0 0 0 18 0 0 0 0 0 0 6 195 0 0 0 0 0 0 0 0 0 0 0 0 0 0 0 0 0 0 0 0 0 0 0 0 0 22 25 0 136 0 0 0 0 0 0 0 0 0 9 0 0 8 0 18 0 0 0 40 0 0 0 0 0 0 0 0 0 0 0 0 0 2 0 0 0 0 0 0 0 0 1 0 0 0 0 0 0 0 0 0 0 0 0 0 0 0 0 177 9 0 0 0 0 0 0 0 0 0 0 116 0 0 0 0 0 0 0 0 0 0 0 0 0 0 0 0 0 0 0 0 0 0 0 0 0 0 0 0 0 0 75 0 0 0 0 0 0 0 0 0 0 0 0 0 0 0 0 0 0 0 0 0 0 0 0 0 0 0 0 0 0 0 0 0 0 0 0 0 0 0 0 0 0 0 0 0 98 0 0 0 0 0 32 0 8 0 0 0 0 0 30 0 0 0 0 0 0 0 0 0 0 0 72 0 0 0 0 0 244 0 84 0 0 0 0 0 0 0 0 0 0 0 0 0 98 0 0 0 0 0 0 0 0 0 0 0 0 3 0 0 0 0 0 0 0 0 801 0 0 0 0 156 24 0 0 0 12 0 0 0 0 0 0 25 43 0 0 0 0 0 0 0 0 0 0 0 44 0 0 0 0 0 0 0 0 0 0 0 0 0 0 0 0 0 0 0 0 0 0 0 0 0 0 0 0 0 1 0 0 0 0 0 0 0 0 0 0 0 6 0 0 0 0 4 0 0 0 0 0 0 0 0 0 0 0 0 0 0 0 0 0 0 0 0 0 0 0 0 0 0 0 0 0 0 0 0 0 0 0 0 0 0 13 92 0 0 0 0 0 0 0 0 0 0 0 0 36 0 28 0 0 0 0 0 0 0 0 0 0 0 0 0 0 0 0 0 10 177 0 0 0 0 0 0 0 0 0 0 0 0 0 0 0 63 0 0 0 0 0 0 0 0 0 0 0 0 0 0 0 0 0 0 0 0 0 0 0 0 0 0 0 0 0 0 0 0 0 0 0 0 0 0 0 0 0 0 0 0 0 0 9 0 0 159 0 0 0 0 0 0 0 0 0 0 351 47 37 0 0 0 0 0 0 0 0 0 0 0 0 0 0 0 42 0 0 0 0 0 0 44 3 0 0 0 1 0 0 0 24 160 22 44 4 0 0 0 0 0 123 0 0 12 0 0 0 0 0 0 0 0 0 0 0 14 0 0 80 0 0 0 0 0 0 0 0 0 0 0 0 57 0 0 0 0 0 0 0 0 3 0 0 0 16 0 0 0 0 0 0 0 0 0 0 0 0 0 0 0 0 0 0 0 0 0 0 0 0 0 0 0 0 0 0 0 0 0 0 6 12 10 0 2 17 0 0 0 0 0 0 0 6 0 0 0 0 0 33 8 0 0 0 0 0 0 0 0 0 0 0 0 0 0 0 0 0 1 0 0 0 0 4 0 85 18 68 0 0 0 0 0 0 25 0 0 0 9 0 0 0 0 112 0 0 0 0 0 0 0 0 0 0 0 0 0 0 0 0 0 0 0 0 96 0 0 0 764 0 167 0 0 0 0 0 113 0 15 0 0 0 0 0 0 0 0 0 0 0 0 0 0 0 0 0 0 0 0 188 43 0 0 180 0 0 0 0 0 12 0 0 0 2 0 0 0 41 122 0 0 0 0 0 0 0 0 0 0 0 0 0 0 4 0 0 0 0 0 0 0 0 18 6 0 0 0 12 0 0 0 0 0 0 100 68 0 23 0 0 0 0 0 0 0 0 0 0 61 0 0 0 0 0 0 0 0 0 0 0 0 0 1 0 0 6 0 1 0 0 0 0 0 2 0 0 0 2 31 0 0 0 0 0 0 0 0 0 0 0 0 0 0 0 0 0 0 0 0 0 0 0 0 0 0 0 0 0 0 0 0 0 0 0 0 0 66 0 0 0 0 0 0 0 0 0 0 1 0 0 0 0 0 0 4 0 18 0 0 0 0 0 0 0 12 0 0 0 0 0 0 0 0 0 0 0 0 0 0 0 0 0 0 0 0 0 0 0 0 0 0 0 0 0 0 0 0 0 0 0 1 0 0 0 0 0 0 0 0 0 0 0 0 0 0 1 0 0 0 0 0 0 0 0 0 6 9 18 40 0 0 0 0 0 0 0 0 0 0 56 26 0 0 0 0 0 0 12 0 0 29 0 0 0 0 0 0 0 0 0 0 0 0 0 0 0 0 0 0 0 0 0 0 0 0 0 0 0 0 0 0 0 0 0 0 0 0 0 0 0 0 0 0 0 8 0 42 0 0 0 0 0 0 0 0 0 0 0 0 0 4 0 0 0 0 0 0 0 0 0 0 0 14 0 0 0 0 0 0 0 0 0 1 14 0 120 0 72 0 0 10 0 0 0 0 0 0 0 0 0 7 4 0 4 0 0 0 0 0 0 0 0 0 0 0 0 0 0 0 0 0 0 0 0 0 0 0 0 0 0 0 0 0 0 0 0 0 0 0 0 0 0 0 100 0 0 0 0 0 0 0 0 0 0 0 0 0 0 0 0 0 195 114 0 0 0 0 0 0 6 0 0 0 0 0 0 0 0 0 0 0 0 0 0 0 0 0 0 0 0 0 0 0 0 0 0 0 0 0 0 0 0 0 0 0 0 0 0 0 0 0 0 0 0 0 0 0 0 0 0 0 0 0 0 0 0 0 0 0 0 0 0 0 0 0 0 1 0 0 0 0 0 0 0 0 0 0 0 0 0 0 0 0 0 0 0 0 0 0 0 0 0 0 0 0 0 0 0 0 0 0 0 0 145 0 0 0 0 0 0 0 0 0 0 0 0 0 0 0 0 0 0 0 0 0 0 0 0 0 0 0 0 0 0 0 0 0 0 0 0 0 0 0 0 0 0 0 0 0 0 0 0 0 0 0 0 0 0 0 0 0 0 0 0 0 103 0 0 0 18 0 0 0 0 0 0 0 0 0 0 0 0 0 0 0 0 0 0 0 0 0 0 0 0 0 0 0 0 0 0 0 0 0 0 0 0 0 0 44 0 0 18 54 130 2 0 0 0 0 0 0 39 0 0 26 0 0 10 0 0 0 0 0 0 0 0 0 0 0 0 0 0 2 23 0 105 34 0 0 0 0 0 0 0 0 0 0 0 0 0 0 0 0 0 0 0 54 0 0 0 0 0 0 0 0 0 0 0 10 0 0 0 0 0 0 0 0 0 0 0 0 5 4 0 0 0 0 0 0 1 0 0 5 0 0 0 0 0 0 0 0 0 0 0 0 0 3 0 0 0 0 0 0 0 0 0 19 0 0 0 0 0 0 0 0 0 0 0 0 0 0 0 0 0 0 0 0 0 0 0 16 0 0 0 0 0 0 0 0 0 0 0 0 0 0 0 0 0 0 0 0 0 40 0 0 0 0 0 0 0 0 0 0 0 0 0 0 0 0 0 0 0 0 0 0 0 0 0 0 0 0 0 91 0 0 0 0 0 0 0 0 0 0 0 0 0 0 0 0 0 986 0 0 0 0 0 0 0 0 0 0 0 0 0 0 0 0 0 0 0 0 0 0 0 0 0 0 0 0 0 0 0 0 0 0 0 0 0 0 0 0 0 0 0 0 0 0 0 0 0 0 0 0 0 0 5 20 6 17 0 0 0 0 0 0 0 0 0 0 0 0 0 0 0 0 0 0 0 0 0 0 0 2 0 0 0 0 2 0 0 0 0 0 0 0 0 0 0 0 0 0 0 0 0 0 0 0 0 0 0 0 0 0 0 0 0 942 0 0 0 0 0 0 0 0 0 0 0 0 1025 0 0 0 0 0 0 0 0 0 0 0 0 0 12 0 0 0 0 0 0 0 0 56 20 0 4 0 0 0 0 0 0 0 0 0 0 0 0 0 0 0 0 0 0 0 0 0 0 0 0 0 0 0 0 0 0 0 0 0 95 14 12 0 4 0 0 0 0 13 0 0 0 0 0 0 0 0 0 0 0 0 0 0 0 0 0 0 0 0 0 0 0 0 0 0 0 0 0 0 0 17 0 0 0 0 0 0 0 0 39 0 0 0 0 0 0 0 0 0 0 0 0 0 0 100 0 0 4 0 0 0 0 0 0 0 0 0 0 0 0 0 0 0 0 0 0 0 0 0 0 0 0 0 0 0 0 0 0 0 0 0 22 0 0 0 0 0 0 0 0 0 0 0 0 0 0 0 0 0 0 0 4 0 0 0 0 0 0 0 0 0 0 0 0 0 0 0 0 0 0 0 0 0 0 0 0 0 0 0 0 0 0 0 0 0 0 0 0 0 0 0 0 0 0 0 0 0 0 0 0 0 0 0 0 0 0 0 0 0 0 0 0 0 0 0 0 0 0 70 0 0 0 0 0 0 0 0 0 0 0 8 0 0 0 0 0 0 0 0 0 0 0 0 0 0 0 0 0 0 0 0 0 0 0 0 0 Printing Sanity3
offset_index value2567
offset list size2567
reward size2567
potential size2567
-----------------------------------------------------------------------------------------------------------------------------------------------------------------------------------------------------

DRAM Statistics
 CHANNEL 0
 RQ ROW_BUFFER_HIT:     191274  ROW_BUFFER_MISS:     340730
 DBUS_CONGESTED:        692
 WQ ROW_BUFFER_HIT:      32380  ROW_BUFFER_MISS:     183894  FULL:          0

 AVG_CONGESTED_CYCLE: 5
 All warmup complete: 2
Channel 0 Bank busy for read cycles: 0
Channel 0 Bank busy for write cycles: 0
Channel 0
Rank 0
0banks busy for read cycles: 424609480
0banks busy for write cycles: 93641
1banks busy for read cycles: 22876904
1banks busy for write cycles: 12154683
2banks busy for read cycles: 9771034
2banks busy for write cycles: 4117841
3banks busy for read cycles: 1866308
3banks busy for write cycles: 1659113
4banks busy for read cycles: 1149308
4banks busy for write cycles: 821545
5banks busy for read cycles: 301032
5banks busy for write cycles: 458251
6banks busy for read cycles: 233729
6banks busy for write cycles: 289078
7banks busy for read cycles: 191858
7banks busy for write cycles: 220533
8banks busy for read cycles: 501546
8banks busy for write cycles: 772125

CPU 0 Branch Prediction Accuracy: 99.7602% MPKI: 0.428415 Average ROB Occupancy at Mispredict: 24.6326
Branch types
NOT_BRANCH: 164263835 82.1319%
BRANCH_DIRECT_JUMP: 2592848 1.29642%
BRANCH_INDIRECT: 13337314 6.66866%
BRANCH_CONDITIONAL: 11000191 5.5001%
BRANCH_DIRECT_CALL: 3079695 1.53985%
BRANCH_INDIRECT_CALL: 1323118 0.661559%
BRANCH_RETURN: 4402737 2.20137%
BRANCH_OTHER: 0 0%

DRAM PAGES: 1048576
Allocated PAGES: 5261
