
*** ChampSim Multicore Out-of-Order Simulator ***

Warmup Instructions: 50000000
Simulation Instructions: 200000000
Number of CPUs: 1
LLC sets: 2048
LLC ways: 16
Off-chip DRAM Size: 4096 MB Channels: 1 Width: 64-bit Data Rate: 6400 MT/s
CPU 0 runs traces/spec2k17/srv_14.champsimtrace.xz
.xz
BTB has LRU replacement policy
ITLB has LRU replacement policy
DTLB has LRU replacement policy
STLB has LRU replacement policy
L1I has LRU replacement policy
L1D has LRU replacement policy
Initialize SRRIP state for L2C
Initialize DRRIP state for LLC
Offsets elements: 
Potential of Offsets elements: 
rewards of Offsets elements: 
Printing Sanity1
offset list size2301
Offsets elements: 
Potential of Offsets elements: 
rewards of Offsets elements: 0 0 1754 1298 0 0 0 0 0 653 0 0 0 0 399 0 0 0 0 0 875 0 0 0 0 0 0 0 516 581 738 338 0 0 0 0 0 0 0 0 0 0 0 498 0 0 0 0 0 0 0 0 293 0 0 0 0 2 637 30 0 114 0 0 9 185 80 68 0 0 0 0 0 0 0 0 0 0 0 0 0 0 0 0 0 0 0 0 0 0 0 0 0 0 207 0 314 0 0 0 0 0 0 0 0 0 0 0 0 0 0 0 0 5 0 0 0 0 0 0 0 0 0 0 0 57 0 0 39 12 737 185 73 16 0 16 51 29 88 62 30 0 0 12 0 0 8 368 0 0 0 0 0 0 0 0 0 18 0 0 0 0 0 0 0 0 0 0 0 0 0 0 0 0 0 0 0 0 0 0 0 0 0 0 2 0 3 0 70 0 0 0 0 0 0 45 0 0 64 0 0 3 9 0 0 0 0 0 0 0 0 0 0 0 0 0 0 0 0 945 0 0 13 0 0 21 0 0 0 625 0 0 0 0 33 0 0 28 0 0 0 0 0 0 0 0 422 0 0 0 418 0 0 0 0 0 0 0 0 0 0 0 0 0 456 5 2 0 15 21 41 0 0 252 0 0 0 0 0 0 0 0 0 0 0 0 0 405 0 0 104 90 0 0 0 3 0 0 0 0 0 0 0 0 6 22 0 0 14 169 110 42 24 0 0 0 0 0 0 0 0 0 64 0 0 0 0 0 0 33 20 0 0 0 0 0 0 0 0 0 0 0 0 0 13 0 7 0 0 0 0 0 0 890 0 0 0 0 0 0 275 2 20 239 3 0 1 0 0 0 0 0 0 0 0 0 0 0 0 4 55 2 10 0 0 0 0 0 0 0 104 0 0 0 504 0 6 0 8 0 0 0 0 0 0 0 0 0 116 0 0 0 0 0 7 0 14 7 34 738 0 0 0 9 0 0 0 0 0 0 0 0 0 0 0 378 0 0 0 0 0 0 0 0 0 0 35 0 310 11 0 0 0 26 116 0 0 9 0 0 0 0 0 0 0 0 0 0 210 0 36 0 0 0 0 0 0 8 0 0 0 38 6 0 2 0 0 0 0 3 7 126 17 0 0 0 0 0 0 0 104 0 0 0 1 617 0 0 1 0 0 0 0 0 0 0 0 0 0 0 0 0 61 0 0 0 125 137 0 0 0 0 0 0 0 0 0 183 79 347 0 0 0 0 0 0 0 0 0 0 0 0 0 0 12 71 0 0 0 0 0 0 445 101 0 0 0 2 0 0 0 0 0 0 0 0 0 0 0 0 0 0 0 0 10 0 0 0 0 3 10 80 0 0 0 0 0 75 74 250 0 0 0 0 0 0 0 0 0 0 0 0 0 0 0 0 0 0 0 0 0 0 0 0 0 0 5 13 0 0 0 0 0 32 84 131 1 0 0 0 0 0 0 0 100 142 59 0 0 0 0 0 0 0 62 24 0 0 0 0 0 167 22 0 0 0 72 47 88 0 0 0 624 594 0 24 0 0 0 0 29 0 6 6 0 0 0 0 0 997 78 9 0 0 0 0 1 52 119 0 0 0 0 176 0 64 19 0 0 227 0 55 0 0 0 72 0 0 0 0 0 0 0 8 0 0 0 0 265 0 0 0 0 4 30 0 0 0 0 0 0 0 0 7 0 6 0 0 0 0 0 0 0 0 0 0 0 0 0 6 0 0 6 124 0 0 0 0 8 0 88 0 173 0 0 0 0 0 0 8 12 0 0 0 0 0 0 0 0 0 0 0 0 0 0 0 0 0 212 0 0 0 0 0 141 0 196 0 0 68 0 10 0 0 0 34 0 0 0 0 0 0 0 0 106 0 0 0 0 0 0 324 0 0 0 0 0 255 0 0 25 0 47 0 0 0 0 0 0 0 0 0 0 0 0 0 0 192 0 0 0 0 0 0 0 0 0 0 0 0 0 0 88 4 0 0 0 4 98 0 0 18 0 0 0 0 0 0 0 0 0 0 0 0 245 0 0 0 0 0 0 0 0 25 0 0 0 0 0 0 0 0 0 0 56 0 0 18 0 0 0 0 0 0 0 0 0 0 0 0 0 0 0 0 0 0 0 0 0 0 0 0 0 0 0 0 0 0 0 0 4 1 0 0 22 0 0 0 0 0 0 0 0 0 0 0 0 0 0 0 0 0 0 0 0 0 0 0 0 0 0 0 0 0 0 0 0 36 0 0 0 0 0 0 0 0 33 0 0 0 0 8 0 0 0 0 0 0 0 0 0 0 0 12 0 0 1 0 0 0 0 0 0 0 0 0 0 0 0 0 0 0 0 0 0 0 0 144 0 0 0 0 0 0 50 34 0 0 57 159 0 0 0 0 0 0 0 0 0 0 0 0 0 0 0 0 0 73 0 0 62 5 0 0 0 0 17 0 0 0 0 0 0 0 0 16 0 0 0 0 0 0 0 0 0 0 0 0 0 0 1 0 0 0 0 0 0 0 163 21 0 0 0 0 0 0 0 0 0 0 0 136 0 24 0 0 0 0 0 0 118 164 0 17 0 0 0 0 0 0 79 0 0 0 709 0 0 0 0 0 0 0 0 0 0 0 0 121 42 76 0 0 669 0 0 0 0 0 0 0 0 0 0 0 0 67 0 0 0 0 0 0 0 0 0 0 0 0 0 0 0 0 0 0 0 0 0 0 0 0 0 0 0 0 0 0 0 0 0 0 0 0 0 0 0 0 0 0 1 0 25 0 0 0 0 0 15 0 0 34 0 0 0 0 0 0 0 0 0 0 0 0 27 0 0 0 0 0 0 0 0 0 0 0 0 0 0 0 0 0 0 0 0 0 0 0 0 0 0 0 0 0 0 0 0 0 0 0 22 0 0 0 0 0 0 0 0 0 0 0 0 0 0 0 0 0 60 0 0 0 0 0 0 0 0 0 0 0 0 0 0 0 0 0 0 0 78 0 0 0 0 0 0 0 0 0 0 0 0 0 0 0 0 0 0 0 0 0 0 0 0 0 0 0 0 0 0 0 0 0 0 0 90 10 0 0 0 0 0 0 0 0 0 0 0 0 0 0 0 0 22 0 0 0 0 0 0 0 0 0 0 0 0 0 0 0 0 140 65 0 0 0 0 0 0 0 0 0 0 0 0 0 0 0 0 0 0 0 0 0 0 0 0 0 0 0 0 0 0 0 0 0 0 0 36 0 0 0 0 0 0 0 0 0 0 0 0 0 0 0 0 0 0 6 0 0 0 0 0 0 0 0 0 0 0 0 0 0 0 0 30 6 0 0 0 0 0 0 0 0 16 0 0 0 0 0 0 0 0 0 0 0 0 0 0 0 0 0 0 0 0 0 0 0 0 135 156 0 0 0 0 0 0 0 0 0 0 0 0 0 0 0 0 0 10 0 0 0 0 0 0 0 0 0 0 0 0 0 0 0 0 0 10 0 0 0 0 0 0 0 0 0 0 0 0 0 39 0 0 0 0 0 0 0 0 0 0 0 0 0 4 0 0 0 0 0 0 0 25 0 0 0 0 123 0 0 0 0 0 0 0 0 0 0 0 0 4 0 28 0 0 0 0 0 0 0 34 0 28 0 0 0 0 0 71 0 0 0 0 0 0 0 0 0 0 0 0 0 0 0 0 0 0 0 0 0 0 0 0 0 0 0 0 0 0 0 0 0 2 0 30 0 0 0 0 0 0 0 0 0 0 0 0 0 0 0 0 0 72 0 0 0 95 0 0 0 0 0 0 0 0 0 0 0 0 5 23 0 0 0 0 0 0 0 0 0 0 0 0 0 0 0 0 0 0 0 0 0 162 0 0 0 0 0 0 0 0 0 0 0 0 24 0 0 0 0 0 0 0 0 0 0 0 0 0 0 0 0 0 0 0 0 0 0 0 0 0 0 0 0 0 0 0 0 0 0 120 0 10 0 0 0 0 0 0 0 0 0 0 0 0 0 0 0 0 0 0 0 6 45 0 0 0 0 0 0 0 0 0 1 0 0 0 2 0 0 0 0 0 0 0 0 0 0 0 0 0 0 47 69 0 0 4 0 0 0 0 0 0 0 0 0 0 0 0 0 0 0 0 16 0 0 0 0 0 0 0 0 0 0 0 0 0 0 0 0 0 0 2 0 0 2 0 0 9 0 0 0 0 0 0 72 45 0 0 0 1 0 0 0 0 0 0 0 0 0 0 0 0 0 0 0 0 0 0 0 36 2 0 0 0 0 0 0 64 61 0 0 9 15 4 69 1 0 0 0 6 0 0 0 0 0 0 0 2 0 0 0 0 0 0 3 0 0 0 0 0 0 0 0 0 0 0 0 0 0 0 5 0 0 0 0 0 0 0 0 0 44 0 0 0 0 0 0 0 0 0 0 0 0 0 0 0 0 0 0 0 0 0 0 0 0 0 0 0 0 0 0 0 0 0 0 2 0 0 0 0 0 0 0 0 0 0 0 0 0 0 0 0 0 26 9 0 0 0 0 0 0 0 0 0 0 0 0 0 0 0 0 4 0 0 0 0 0 0 0 0 0 0 0 0 0 0 0 0 0 7 0 0 0 0 0 0 75 0 0 0 0 0 0 0 0 0 0 112 1 0 0 0 0 0 0 0 0 0 0 0 0 0 0 0 0 45 80 0 0 0 0 0 0 0 0 0 0 0 0 0 0 0 0 10 0 0 0 0 10 0 0 0 0 0 0 0 0 0 0 0 0 50 2 0 0 0 0 0 0 0 0 0 0 0 0 0 0 0 5 25 30 0 0 0 0 0 0 0 0 0 0 0 0 0 0 0 0 336 0 0 0 0 0 0 0 0 0 0 0 0 0 0 0 0 88 3 0 0 0 0 0 0 0 0 0 0 0 0 0 0 0 0 76 32 0 0 0 0 0 0 0 0 0 0 0 0 0 0 0 0 56 39 0 0 0 0 0 0 0 0 0 0 0 0 0 0 0 0 0 2 282 96 0 0 0 0 0 0 0 0 0 0 0 0 0 0 0 5 0 0 0 0 0 0 0 0 0 0 0 0 0 0 0 0 14 8 0 0 0 0 0 2 0 0 0 0 0 0 0 8 0 0 7 8 0 0 0 0 0 0 0 0 0 0 0 4 0 0 0 0 13 96 0 0 0 0 0 0 0 0 0 0 0 0 1 0 0 0 0 0 0 64 0 0 
Printing Sanity2
Heartbeat CPU 0 instructions: 10000003 cycles: 2858079 heartbeat IPC: 3.49885 cumulative IPC: 3.49885 (Simulation time: 0 hr 0 min 19 sec) 
Heartbeat CPU 0 instructions: 20000002 cycles: 5764081 heartbeat IPC: 3.44115 cumulative IPC: 3.46976 (Simulation time: 0 hr 0 min 38 sec) 
Heartbeat CPU 0 instructions: 30000001 cycles: 8667863 heartbeat IPC: 3.44378 cumulative IPC: 3.46106 (Simulation time: 0 hr 0 min 58 sec) 
*** Reached end of trace for Core: 0 Repeating trace: traces/spec2k17/srv_14.champsimtrace.xz
Heartbeat CPU 0 instructions: 40000001 cycles: 11574219 heartbeat IPC: 3.44073 cumulative IPC: 3.45596 (Simulation time: 0 hr 1 min 17 sec) 
Heartbeat CPU 0 instructions: 50000001 cycles: 14480653 heartbeat IPC: 3.44064 cumulative IPC: 3.45288 (Simulation time: 0 hr 1 min 37 sec) 

Warmup complete CPU 0 instructions: 50000001 cycles: 14480653 (Simulation time: 0 hr 1 min 37 sec) 

Heartbeat CPU 0 instructions: 60000001 cycles: 47532493 heartbeat IPC: 0.302555 cumulative IPC: 0.302555 (Simulation time: 0 hr 2 min 13 sec) 
*** Reached end of trace for Core: 0 Repeating trace: traces/spec2k17/srv_14.champsimtrace.xz
Heartbeat CPU 0 instructions: 70000003 cycles: 80547483 heartbeat IPC: 0.302893 cumulative IPC: 0.302724 (Simulation time: 0 hr 2 min 49 sec) 
Heartbeat CPU 0 instructions: 80000002 cycles: 113508024 heartbeat IPC: 0.303393 cumulative IPC: 0.302947 (Simulation time: 0 hr 3 min 25 sec) 
Heartbeat CPU 0 instructions: 90000002 cycles: 146476389 heartbeat IPC: 0.303321 cumulative IPC: 0.30304 (Simulation time: 0 hr 4 min 1 sec) 
*** Reached end of trace for Core: 0 Repeating trace: traces/spec2k17/srv_14.champsimtrace.xz
Heartbeat CPU 0 instructions: 100000001 cycles: 179482417 heartbeat IPC: 0.302975 cumulative IPC: 0.303027 (Simulation time: 0 hr 4 min 38 sec) 
Heartbeat CPU 0 instructions: 110000000 cycles: 212418504 heartbeat IPC: 0.303618 cumulative IPC: 0.303125 (Simulation time: 0 hr 5 min 15 sec) 
Heartbeat CPU 0 instructions: 120000000 cycles: 245448539 heartbeat IPC: 0.302755 cumulative IPC: 0.303072 (Simulation time: 0 hr 5 min 52 sec) 
*** Reached end of trace for Core: 0 Repeating trace: traces/spec2k17/srv_14.champsimtrace.xz
Heartbeat CPU 0 instructions: 130000000 cycles: 278383301 heartbeat IPC: 0.303631 cumulative IPC: 0.303142 (Simulation time: 0 hr 6 min 28 sec) 
Heartbeat CPU 0 instructions: 140000001 cycles: 311416611 heartbeat IPC: 0.302725 cumulative IPC: 0.303096 (Simulation time: 0 hr 7 min 5 sec) 
Heartbeat CPU 0 instructions: 150000002 cycles: 344320737 heartbeat IPC: 0.303913 cumulative IPC: 0.303177 (Simulation time: 0 hr 7 min 41 sec) 
*** Reached end of trace for Core: 0 Repeating trace: traces/spec2k17/srv_14.champsimtrace.xz
Heartbeat CPU 0 instructions: 160000000 cycles: 377308529 heartbeat IPC: 0.303142 cumulative IPC: 0.303174 (Simulation time: 0 hr 8 min 17 sec) 
Heartbeat CPU 0 instructions: 170000001 cycles: 410275051 heartbeat IPC: 0.303338 cumulative IPC: 0.303188 (Simulation time: 0 hr 8 min 53 sec) 
Heartbeat CPU 0 instructions: 180000001 cycles: 443237783 heartbeat IPC: 0.303373 cumulative IPC: 0.303202 (Simulation time: 0 hr 9 min 29 sec) 
*** Reached end of trace for Core: 0 Repeating trace: traces/spec2k17/srv_14.champsimtrace.xz
Heartbeat CPU 0 instructions: 190000000 cycles: 476191338 heartbeat IPC: 0.303457 cumulative IPC: 0.30322 (Simulation time: 0 hr 10 min 5 sec) 
Heartbeat CPU 0 instructions: 200000000 cycles: 509203978 heartbeat IPC: 0.302914 cumulative IPC: 0.3032 (Simulation time: 0 hr 10 min 41 sec) 
Heartbeat CPU 0 instructions: 210000003 cycles: 542129853 heartbeat IPC: 0.303713 cumulative IPC: 0.303232 (Simulation time: 0 hr 11 min 17 sec) 
*** Reached end of trace for Core: 0 Repeating trace: traces/spec2k17/srv_14.champsimtrace.xz
Heartbeat CPU 0 instructions: 220000000 cycles: 575083801 heartbeat IPC: 0.303454 cumulative IPC: 0.303245 (Simulation time: 0 hr 11 min 53 sec) 
Heartbeat CPU 0 instructions: 230000000 cycles: 608070029 heartbeat IPC: 0.303157 cumulative IPC: 0.30324 (Simulation time: 0 hr 12 min 29 sec) 
Heartbeat CPU 0 instructions: 240000001 cycles: 640989006 heartbeat IPC: 0.303776 cumulative IPC: 0.303268 (Simulation time: 0 hr 13 min 5 sec) 
Heartbeat CPU 0 instructions: 250000001 cycles: 673917368 heartbeat IPC: 0.30369 cumulative IPC: 0.303289 (Simulation time: 0 hr 13 min 41 sec) 
Finished CPU 0 instructions: 200000000 cycles: 659436715 cumulative IPC: 0.303289 (Simulation time: 0 hr 13 min 41 sec) 

ChampSim completed all CPUs

Region of Interest Statistics

CPU 0 cumulative IPC: 0.303289 instructions: 200000000 cycles: 659436715
ITLB TOTAL     ACCESS:   35661429  HIT:   33437987  MISS:    2223442  HIT %:    93.7651  MISS %:    6.23487   MPKI: 11.1172
ITLB LOAD TRANSLATION ACCESS:   35661429  HIT:   33437987  MISS:    2223442  HIT %:    93.7651  MISS %:    6.23487   MPKI: 11.1172
ITLB PREFETCH  REQUESTED:          0  ISSUED:          0  USEFUL:          0  USELESS:          0
ITLB USEFUL LOAD PREFETCHES:          0 PREFETCH ISSUED TO LOWER LEVEL:          0  ACCURACY: -nan
ITLB TIMELY PREFETCHES:          0 LATE PREFETCHES: 0 DROPPED PREFETCHES: 0
ITLB PREFETCHES SAME FILL-ORIGIN LEVEL: 0 DIFFERENT FILL-ORIGIN LEVEL: 0
ITLB AVERAGE MISS LATENCY: 9.18991 cycles
ITLB RQ	ACCESS:   41902551	FORWARD:          0	MERGED:    5717304	TO_CACHE:   36185247

DTLB TOTAL     ACCESS:   45849449  HIT:   43846109  MISS:    2003340  HIT %:    95.6306  MISS %:    4.36939   MPKI: 10.0167
DTLB LOAD TRANSLATION ACCESS:   45849449  HIT:   43846109  MISS:    2003340  HIT %:    95.6306  MISS %:    4.36939   MPKI: 10.0167
DTLB PREFETCH  REQUESTED:          0  ISSUED:          0  USEFUL:          0  USELESS:          0
DTLB USEFUL LOAD PREFETCHES:          0 PREFETCH ISSUED TO LOWER LEVEL:          0  ACCURACY: -nan
DTLB TIMELY PREFETCHES:          0 LATE PREFETCHES: 0 DROPPED PREFETCHES: 0
DTLB PREFETCHES SAME FILL-ORIGIN LEVEL: 0 DIFFERENT FILL-ORIGIN LEVEL: 0
DTLB AVERAGE MISS LATENCY: 9.22843 cycles
DTLB RQ	ACCESS:   60564109	FORWARD:          0	MERGED:   14653643	TO_CACHE:   45910466

STLB TOTAL     ACCESS:   32921836  HIT:   32894379  MISS:      27457  HIT %:    99.9166  MISS %:  0.0834006   MPKI: 0.137285
STLB LOAD TRANSLATION ACCESS:    4226782  HIT:    4199839  MISS:      26943  HIT %:    99.3626  MISS %:   0.637435   MPKI: 0.134715
STLB TRANSLATION FROM L1D PREFETCHER ACCESS:   28695054  HIT:   28694540  MISS:        514  HIT %:    99.9982  MISS %: 0.00179125   MPKI: 0.00257
STLB PREFETCH  REQUESTED:          0  ISSUED:          0  USEFUL:        450  USELESS:         62
STLB USEFUL LOAD PREFETCHES:        450 PREFETCH ISSUED TO LOWER LEVEL:          0  ACCURACY: inf
STLB TIMELY PREFETCHES:        450 LATE PREFETCHES: 928 DROPPED PREFETCHES: 128515
STLB PREFETCHES SAME FILL-ORIGIN LEVEL: 0 DIFFERENT FILL-ORIGIN LEVEL: 0
STLB AVERAGE MISS LATENCY: 238274 cycles
STLB RQ	ACCESS:   37426986	FORWARD:          0	MERGED:    4371867	TO_CACHE:   33055119

STLB Hit, L1D data hit: 0
STLB Hit, L2C data hit: 0
STLB Hit, LLC data hit: 0
STLB Hit, LLC data miss: 0
STLB STLB hints to L2: 0
L1D TOTAL     ACCESS:   90942231  HIT:   82663358  MISS:    8278873  HIT %:    90.8966  MISS %:    9.10344   MPKI: 41.3944
L1D LOAD      ACCESS:   34017896  HIT:   30375754  MISS:    3642142  HIT %:    89.2935  MISS %:    10.7065   MPKI: 18.2107
L1D RFO       ACCESS:   24804511  HIT:   23696064  MISS:    1108447  HIT %:    95.5313  MISS %:    4.46873   MPKI: 5.54223
L1D PREFETCH  ACCESS:   32119824  HIT:   28591540  MISS:    3528284  HIT %:    89.0152  MISS %:    10.9848   MPKI: 17.6414
AGUS PREFETCH L1 MISS: 0
L1D PREFETCH  REQUESTED:   67343853  ISSUED:   67343853  USEFUL:     979974  USELESS:    2548320
L1D USEFUL LOAD PREFETCHES:     979974 PREFETCH ISSUED TO LOWER LEVEL:    4247323  ACCURACY: 23.0727
L1D TIMELY PREFETCHES:     979974 LATE PREFETCHES: 715731 DROPPED PREFETCHES: 137551
L1D PREFETCHES SAME FILL-ORIGIN LEVEL: 4247323 DIFFERENT FILL-ORIGIN LEVEL: 0
L1D AVERAGE MISS LATENCY: 2.98803e+07 cycles
L1D RQ	ACCESS:   46501008	FORWARD:          0	MERGED:   12040608	TO_CACHE:   34143649
L1D WQ	ACCESS:   26571628	FORWARD:     324401	MERGED:     151168	TO_CACHE:   26420460
L1D PQ	ACCESS:   34143649	FORWARD:          0	MERGED:     935795	TO_CACHE:   33200204

L1D UNIQUE REGIONS ACCESSED: 0
L1D REGIONS CONFLICTS: 0
L1D Cross Page Prefetch Requests: 1248860
L1D Same Page Prefetch Requests: 39235672
L1D ROI Sum of L1D PQ occupancy: 429117072
L1D PREFETCHES PUSHED FROM L2C: 0
L1I TOTAL     ACCESS:   40233109  HIT:   28938832  MISS:   11294277  HIT %:    71.9279  MISS %:    28.0721   MPKI: 56.4714
L1I LOAD      ACCESS:   40233109  HIT:   28938832  MISS:   11294277  HIT %:    71.9279  MISS %:    28.0721   MPKI: 56.4714
L1I PREFETCH  REQUESTED:          0  ISSUED:          0  USEFUL:          0  USELESS:          0
L1I USEFUL LOAD PREFETCHES:          0 PREFETCH ISSUED TO LOWER LEVEL:          0  ACCURACY: -nan
L1I TIMELY PREFETCHES:          0 LATE PREFETCHES: 0 DROPPED PREFETCHES: 0
L1I PREFETCHES SAME FILL-ORIGIN LEVEL: 0 DIFFERENT FILL-ORIGIN LEVEL: 0
L1I AVERAGE MISS LATENCY: 16.7803 cycles
L1I RQ	ACCESS:   58244647	FORWARD:          0	MERGED:   16342096	TO_CACHE:   41902551

BTB TOTAL     ACCESS:   30318321  HIT:   17551400  MISS:   12766921  HIT %:    57.8904  MISS %:    42.1096   MPKI: 63.8346
BTB BRANCH_DIRECT_JUMP	ACCESS:    1886938  HIT:    1046620  MISS:     840318
BTB BRANCH_INDIRECT	ACCESS:   11997171  HIT:    7128179  MISS:    4868992
BTB BRANCH_CONDITIONAL	ACCESS:    7233053  HIT:    5926185  MISS:    1306868
BTB BRANCH_DIRECT_CALL	ACCESS:    3870839  HIT:    1774369  MISS:    2096470
BTB BRANCH_INDIRECT_CALL	ACCESS:     729710  HIT:     345433  MISS:     384277
BTB BRANCH_RETURN	ACCESS:    4600610  HIT:    1330614  MISS:    3269996
BTB BRANCH_OTHER ACCESS:          0  HIT:          0  MISS:          0

L2C TOTAL     ACCESS:   22145027  HIT:   20148999  MISS:    1996028  HIT %:    90.9866  MISS %:    9.01344   MPKI: 9.98014
L2C LOAD      ACCESS:   14220681  HIT:   12930104  MISS:    1290577  HIT %:    90.9246  MISS %:    9.07535   MPKI: 6.45289
L2C DATA LOAD MPKI: 1.35963
L2C INSTRUCTION LOAD MPKI: 5.09326
L2C RFO       ACCESS:    1105057  HIT:     982601  MISS:     122456  HIT %:    88.9186  MISS %:    11.0814   MPKI: 0.61228
L2C PREFETCH  ACCESS:    4245242  HIT:    3700530  MISS:     544712  HIT %:    87.1689  MISS %:    12.8311   MPKI: 2.72356
AGUS PREFETCH L1 MISS: 0
L2C DATA PREFETCH MPKI: 2.72356
L2C INSTRUCTION PREFETCH MPKI: 0
L2C WRITEBACK ACCESS:    2384951  HIT:    2358398  MISS:      26553  HIT %:    98.8866  MISS %:    1.11336   MPKI: 0.132765
L2C LOAD TRANSLATION ACCESS:      27006  HIT:      16487  MISS:      10519  HIT %:    61.0494  MISS %:    38.9506   MPKI: 0.052595
L2C TRANSLATION FROM L1D PREFETCHER ACCESS:     162090  HIT:     160879  MISS:       1211  HIT %:    99.2529  MISS %:   0.747116   MPKI: 0.006055
L2C PREFETCH  REQUESTED:          0  ISSUED:          0  USEFUL:      19438  USELESS:     526756
L2C USEFUL LOAD PREFETCHES:      19438 PREFETCH ISSUED TO LOWER LEVEL:     544712  ACCURACY: 3.56849
L2C TIMELY PREFETCHES:      19438 LATE PREFETCHES: 0 DROPPED PREFETCHES: 0
L2C PREFETCHES SAME FILL-ORIGIN LEVEL: 0 DIFFERENT FILL-ORIGIN LEVEL: 0
L2C AVERAGE MISS LATENCY: 29.8913 cycles
L2C RQ	ACCESS:   15514924	FORWARD:          0	MERGED:          0	TO_CACHE:   15514834
L2C WQ	ACCESS:    2384951	FORWARD:       2171	MERGED:          0	TO_CACHE:    2384951
L2C PQ	ACCESS:    4247323	FORWARD:          0	MERGED:          0	TO_CACHE:    4245242

L2C Instructions Evicting Data 496371
L2C Translations Evicting Data 6841
L2C Data Evicting Data 451182
L2C Instructions Evicting Instructions 518061
L2C Translations Evicting Instructions 4165
L2C Data Evicting Instructions 481217
L2C Instructions Evicting Translations 4219
L2C Translations Evicting Translations 724
L2C Data Evicting Translations 6695
L2C Dense regions hint from L2: 0
PSCL5 TOTAL     ACCESS:     155972  HIT:     155972  MISS:          0  HIT %:        100  MISS %:          0   MPKI: 0
PSCL5 LOAD TRANSLATION ACCESS:      26015  HIT:      26015  MISS:          0  HIT %:        100  MISS %:          0   MPKI: 0
PSCL5 TRANSLATION FROM L1D PREFETCHER ACCESS:     129957  HIT:     129957  MISS:          0  HIT %:        100  MISS %:          0   MPKI: 0
PSCL5 PREFETCH  REQUESTED:          0  ISSUED:          0  USEFUL:          0  USELESS:          0
PSCL5 USEFUL LOAD PREFETCHES:          0 PREFETCH ISSUED TO LOWER LEVEL:          0  ACCURACY: -nan
PSCL5 TIMELY PREFETCHES:          0 LATE PREFETCHES: 0 DROPPED PREFETCHES: 0
PSCL5 PREFETCHES SAME FILL-ORIGIN LEVEL: 0 DIFFERENT FILL-ORIGIN LEVEL: 0

PSCL4 TOTAL     ACCESS:      47284  HIT:      47254  MISS:         30  HIT %:    99.9366  MISS %:  0.0634464   MPKI: 0.00015
PSCL4 LOAD TRANSLATION ACCESS:      24811  HIT:      24781  MISS:         30  HIT %:    99.8791  MISS %:   0.120914   MPKI: 0.00015
PSCL4 TRANSLATION FROM L1D PREFETCHER ACCESS:      22473  HIT:      22473  MISS:          0  HIT %:        100  MISS %:          0   MPKI: 0
PSCL4 PREFETCH  REQUESTED:          0  ISSUED:          0  USEFUL:          0  USELESS:          0
PSCL4 USEFUL LOAD PREFETCHES:          0 PREFETCH ISSUED TO LOWER LEVEL:          0  ACCURACY: -nan
PSCL4 TIMELY PREFETCHES:          0 LATE PREFETCHES: 0 DROPPED PREFETCHES: 0
PSCL4 PREFETCHES SAME FILL-ORIGIN LEVEL: 0 DIFFERENT FILL-ORIGIN LEVEL: 0

PSCL3 TOTAL     ACCESS:     155526  HIT:     155496  MISS:         30  HIT %:    99.9807  MISS %:  0.0192894   MPKI: 0.00015
PSCL3 LOAD TRANSLATION ACCESS:      25586  HIT:      25556  MISS:         30  HIT %:    99.8827  MISS %:   0.117252   MPKI: 0.00015
PSCL3 TRANSLATION FROM L1D PREFETCHER ACCESS:     129940  HIT:     129940  MISS:          0  HIT %:        100  MISS %:          0   MPKI: 0
PSCL3 PREFETCH  REQUESTED:          0  ISSUED:          0  USEFUL:          0  USELESS:          0
PSCL3 USEFUL LOAD PREFETCHES:          0 PREFETCH ISSUED TO LOWER LEVEL:          0  ACCURACY: -nan
PSCL3 TIMELY PREFETCHES:          0 LATE PREFETCHES: 0 DROPPED PREFETCHES: 0
PSCL3 PREFETCHES SAME FILL-ORIGIN LEVEL: 0 DIFFERENT FILL-ORIGIN LEVEL: 0

PSCL2 TOTAL     ACCESS:     123926  HIT:     122914  MISS:       1012  HIT %:    99.1834  MISS %:   0.816616   MPKI: 0.00506
PSCL2 LOAD TRANSLATION ACCESS:      26096  HIT:      25084  MISS:       1012  HIT %:     96.122  MISS %:    3.87799   MPKI: 0.00506
PSCL2 TRANSLATION FROM L1D PREFETCHER ACCESS:      97830  HIT:      97830  MISS:          0  HIT %:        100  MISS %:          0   MPKI: 0
PSCL2 PREFETCH  REQUESTED:          0  ISSUED:          0  USEFUL:          0  USELESS:          0
PSCL2 USEFUL LOAD PREFETCHES:          0 PREFETCH ISSUED TO LOWER LEVEL:          0  ACCURACY: -nan
PSCL2 TIMELY PREFETCHES:          0 LATE PREFETCHES: 0 DROPPED PREFETCHES: 0
PSCL2 PREFETCHES SAME FILL-ORIGIN LEVEL: 0 DIFFERENT FILL-ORIGIN LEVEL: 0

LLC TOTAL     ACCESS:    2161399  HIT:    2157561  MISS:       3838  HIT %:    99.8224  MISS %:    0.17757   MPKI: 0.01919
LLC LOAD      ACCESS:    1290577  HIT:    1289514  MISS:       1063  HIT %:    99.9176  MISS %:  0.0823663   MPKI: 0.005315
LLC RFO       ACCESS:     122456  HIT:     122158  MISS:        298  HIT %:    99.7566  MISS %:   0.243353   MPKI: 0.00149
LLC PREFETCH  ACCESS:     544712  HIT:     542251  MISS:       2461  HIT %:    99.5482  MISS %:   0.451798   MPKI: 0.012305
AGUS PREFETCH L1 MISS: 0
LLC WRITEBACK ACCESS:     191924  HIT:     191916  MISS:          8  HIT %:    99.9958  MISS %: 0.00416832   MPKI: 4e-05
LLC LOAD TRANSLATION ACCESS:      10519  HIT:      10511  MISS:          8  HIT %:    99.9239  MISS %:  0.0760529   MPKI: 4e-05
LLC TRANSLATION FROM L1D PREFETCHER ACCESS:       1211  HIT:       1211  MISS:          0  HIT %:        100  MISS %:          0   MPKI: 0
LLC PREFETCH  REQUESTED:          0  ISSUED:          0  USEFUL:        802  USELESS:       2396
LLC USEFUL LOAD PREFETCHES:        802 PREFETCH ISSUED TO LOWER LEVEL:       2461  ACCURACY: 32.5884
LLC TIMELY PREFETCHES:        802 LATE PREFETCHES: 0 DROPPED PREFETCHES: 0
LLC PREFETCHES SAME FILL-ORIGIN LEVEL: 0 DIFFERENT FILL-ORIGIN LEVEL: 0
LLC AVERAGE MISS LATENCY: 151.019 cycles
LLC RQ	ACCESS:    1424763	FORWARD:          0	MERGED:          0	TO_CACHE:    1424763
LLC WQ	ACCESS:     191924	FORWARD:          0	MERGED:          0	TO_CACHE:     191924
LLC PQ	ACCESS:     544712	FORWARD:          0	MERGED:          0	TO_CACHE:     544712

LLC Dense regions hint to LLC: 0

RAW hits: 1455462
Loads Generated: 47956470
Loads sent to L1D: 46501008
Stores Generated: 26571618
Stores sent to L1D: 26571628
Major fault: 0 Minor fault: 1781
Allocated PAGES: 1781
ucb ended
-----------------------------------------------------------------------------------------------------------------------------------------------------------------------------------------------------
Offsets elements: 21524 -900290 -1 2 -68726 947491 -32128 -1072182 1104310 3 91729 -1196042 1104314 -1104314 1465995990172 -1465994885857 1465994885857 -1465994885716 21377 1465992260228 1 -1465992281753 1465992281753 -1465992281756 -1104305 -2604113 -1465992281754 -878766 -3 4 -4 -225536 224448 1465995765728 -1465995990172 1104309 1465994885863 -1465994885867 1465992281757 -949106 1465993230853 2604113 -2604114 7 -1465993386065 156784 1465995833388 -2604109 -1465992283151 1465992283151 -1465992190026 -1039266 8 1465993229283 -1465993229283 -1465993396783 167498 1465993229286 -1465993386068 157476 1465993228591 2604104 -2604107 -1465995833388 41272 1465993188014 -1465993386070 1465993386069 2604102 -1465995792117 1465993188016 -1465993188015 1465993188015 1465993386071 -1465993225114 1465993225113 -1465994887221 1465992283122 -1465993396608 167317 694 -692 1465993229292 -1465992283125 -1465993229291 -691 -1465993229289 1465993229288 -1465993386071 1465993386075 2604100 -2604099 -1465993386076 1465993386076 2604097 -2604096 6 -1465992190038 1465992190039 -1465992190039 -1195804 1195804 -124154 -1071905 -1465994918269 -1071904 2604096 -2604097 -1465993367868 -725 180466 905004 -945500 -157205 1102705 -944949 1465993228072 -1465993228071 1465993228073 -1465993228073 1465993228219 -1465993184699 -43520 -585 -157418 -1465995969549 1465993365645 -1465993386157 -111 1465993386074 2604098 -2604098 -1465993315537 87467 -157756 21333 1465993364494 -1465993350071 -36005 -1465995968603 -21458 70427 -49915 958 136422 1465993228266 -1465993386268 111 35894 34532 1465995919635 48969 1032378 -946122 -138863 138957 -156888 244 1465995989925 -1465995834089 1465993230139 -95 -1465993385882 1465993385882 -1465993230042 1465993230042 -1465993170592 -215295 155846 59399 1465993170643 -1465993170643 1465993170587 -1465993386069 156083 -215237 155835 -156083 -1465993386073 1102916 1465994887256 -1465995833377 946121 94 -139214 138393 909415 -903990 17 -143588 1084995 -1113881 1081304 -913545 -138865 -17929 1465993386059 2604109 1465993386072 2604101 -1465994887408 1465992283315 -1465992283128 -17515 -1067229 1053696 -1054421 1465993188131 -1465993386079 -1465994887256 -1086040 1053454 -1070330 -1465994887220 -904898 -209299 1465993397315 1465993386268 2603904 -1465995990061 70426 -48972 -21565 21569 1465993315530 -1465995974347 1465993370242 -1465993230838 1465993230839 -2 -1465993188016 -209298 1465993397313 -1465993230842 42825 1465993188017 -1465993397315 166473 209301 1465993188018 209298 1465993230842 -1465993188017 -42825 -166473 1465993397320 -6 48974 -54714 5744 -21569 1465993386068 -1465993315529 1465993315528 2604105 -1465995792115 840257 -1038314 -1465995989934 197819 1465992347754 -2604102 -1465993385825 1465993385831 -7 -48956 14419 -14431 -70538 1465993386070 -2604100 -1465992347762 2604103 -1465994951858 -880315 -2932031543253 4398024771323 -1465993385829 1069462 -31388 31388 -1069703 -2604104 -1465992347753 -1038063 1465993385825 1465992347762 -5 -1465992315741 1465992315745 20623 1465995969549 -2603904 -21581 -1465993356537 -7964 48970 1465993315532 -2604091 -1465992315746 -1070333 1465993386172 2604000 -2604092 -1465992283126 -1102954 1038389 1465994951783 -20512 1465993386157 -1465993364687 48956 -70426 29548 -29659 -1465994887219 -1102953 21571 48972 1465995919629 -1465995919628 -49921 -21470 -70537 29533 1073420 1465994887219 70428 -49916 -1465995968591 29422 1073419 1465994887220 -1465995919635 -48968 176485 -127515 -81783 -177433 -20623 -1465994798538 -1170053 -40704 168223 -17568 -158919 -81269 10730 180488 1465995809684 -1465994885866 -69170 69168 5 -878771 -1088 -24703 25791 224444 -878769 11 -25790 904558 -10 -904550 24657 1133 878770 -878770 878913 -36866 -842050 -1020 -24767 926080 -926082 25789 -25787 25795 -25797 25797 878767 1465992281755 -1465992281761 -878764 847729 1465992312797 -1465992350935 -1035136 1465995990061 -15825 70537 1465993315534 -1465993364505 1465995968607 -1465995989922 70289 -48970 1063890 106175 -156497 1465993386073 -1465992300526 1465994904626 -162005 1465995954122 -1465995792118 1465993188020 -70540 -34453 -36084 1102951 1465994887221 -1081381 86240 1465993229289 21470 -34534 -35892 2604099 -1465995833390 -156783 21570 -49917 70430 1465995919631 -34537 1465995954172 -1465995989926 21323 135213 -86244 86244 -1465993386074 14424 1465995968603 -1465995919634 35892 -36003 -1465995968602 1032410 -1085399 1102911 -1102911 -4718 4681 -1465993315731 -1465993364493 1465995968591 -1465994904736 -1055777 1042246 -1050332 48971 -70542 157449 -157338 -958 -34532 1035896 1465994918271 199416 1465995790645 15464 1035814 48968 29599 -29488 -11 -40917 -29625 70542 -49919 -1465993364699 -70539 -2604067 163 -190 -1465993385967 -1465995973296 53661 1465993315566 -1465993364522 8078 1465993356444 -1465993368121 3588 1032374 -1032374 999788 -913536 -156794 1070331 -913443 1465995833284 1070093 -1070331 1465994919841 -2604070 -1465993230908 -155194 -1465995989454 -432 -10772 1465995942280 -8 58386 -58033 53072 -2599137 30 -1465992315771 -1240476 170145 1465993385975 -1465993230133 1465993229984 -1465993229963 -2932031541295 2932031541295 1465993229964 -1465992315142 23 -1070714 1465993385836 -1465992315122 1465992315118 -1465992283156 -946121 914162 1465992315106 -1465992315114 1465992315114 -1465993502898 117077 155841 -156088 32 -27 28 -1465992281230 -1116159 11285 -1465994885298 -1116164 1116204 1465992281155 -1465992281194 -1116161 27995 1088166 -1104627 -1465992281343 -945323 945324 -1104631 159308 1465993226517 -1465993369365 1088170 1465992281200 -1465992281195 1465992281195 -1465992281177 1465992281178 -1465992281193 1465992281192 -1465992281191 1465992281191 -1465992281189 1465992281189 -1465992281188 1465992281188 -1465992281187 1465992281187 -1465992281185 1465992281185 -1465992281184 1465992281184 -1465992281182 1465992281180 -1104895 -2604069 -1465992281229 44 -1116204 1465993397359 -1465992281196 -1088169 -11534 170843 1465993226666 -1465992281344 -1104630 1465993226516 1465992281199 1465992281196 19 1465992281177 1465992281193 -1465992281192 1465992281182 -1465992281181 1465992281181 -1465992281180 -1465992281176 -2604068 -1116160 1116160 -1104874 16708 -27993 1465996001457 1104874 1465994885298 -1465994885296 1465993397358 -1465993369364 1088168 -1104629 1104627 -1465993226667 945320 -1104628 1465993226515 -1465992281153 -1088211 -1088006 -16591 17865 1465993367926 1465992281198 -1465992281197 21 1465992281176 1465992281194 -1465992281190 1465992281190 -1465992281186 1465992281186 -1465992281183 1465992281183 -1465992281179 -1465992281175 -44 31 -30 -1465992281198 -1088167 1088167 1465993397509 -1465993226666 945319 -1465992281199 22 -22 -1465993369395 1086209 1957 -1116158 1116159 29 -1465992283186 -946141 -167493 167493 -156776 156776 1465995833396 -1465994955036 -809598 -225538 225536 1465995764636 -1465995764633 -1092 -427 -62802 64317 -1465995765728 -224444 -1465995996146 231510 -1135 124 1004 -1129 1136 1465993160524 -1465993386067 -1465995971965 -51 -18156 197949 1465993188124 -1465993367916 1465993367919 1465993386105 -28 2604095 -2604094 -1465993385837 1465993385933 -49 49 56 -64 -1465992162626 1465992162625 9 -1465992315785 -1465995989886 1465995931508 345 58033 -4961 -2599107 2604067 -1465992315774 32578 -1084934 138812 913536 -913442 913442 170392 155842 1465993230133 -118 -1465992283188 -706 1465993230008 -1465993385856 1465993230017 -1465992315772 32585 -1053459 1053457 -1053456 1053456 1465992315771 -1465993386105 1465993386127 40 2604005 64 -1465992283254 -1693 947720 1465992283251 -1465993397520 216 1114054 -1102917 -1465996001455 1116157 -1116205 1116182 -1980 -139586 1085555 -1084796 138921 -156891 -1465995829177 -171889 11005 -10949 32405 1465993364701 21572 48965 12 1465995919623 -1465994885250 -1104922 1045 -16618 -252 21454 -5744 70539 1465995919633 -1465994951835 -1038337 21455 48977 -54718 1465993315617 2604012 -1465994887434 1465992283423 -1465993386161 -5740 -1465994951783 -1038389 -1465993364702 -5741 1465995974347 1465993364590 -1465992283416 1465992283418 -1465992347775 29659 1465995960513 1465993386161 -1465993315625 1465993315628 -1465993364584 1465993386165 -1465992283402 154 -1073384 1465995960639 1034383 -23 -1116231 1116252 -66630 1075307 1465994885206 70433 1465993356632 -1465993385913 1465995989920 1465995908314 -1465994873907 1465992281219 -1465993386165 8082 -29663 2604008 -1465995968600 1465993364595 -1465993315618 1032369 10717 -1465995833396 1465993229383 -1465993386160 156777 1465995833395 1465993229389 -1465992351029 1035137 1465994955035 -1465995833198 878162 -809597 1088 -2604014 -1465993160622 1465993161753 -1465992907176 -253449 1465993386158 -1465993161714 -1465995764627 1465993160619 -1465993160618 1465993160617 -1465993229187 1465993229189 -1465993229189 878161 -1035133 156727 1465993229248 -1465993229247 -1465992351028 -878161 -156972 245 156726 -156973 1465995931853 -345 53417 4961 -4962 -2599050 2604010 -2604010 -1465993205216 -19983 1465993225205 -1465993396697 171492 -156974 2604009 -2604008 -1465993365542 1465993386164 -1465993364594 1465995968602 -1465994887255 -1032377 1032375 -1102916 -1465995835048 1191 914027 -914029 946602 -946601 914026 -914028 946603 -946602 946604 -946603 946605 -946604 914029 946606 -946605 914020 1465993386162 -1465993350078 1465993350079 1048767 -999794 999793 1465992315833 -1465992283247 -946607 -156310 2604007 -1465992283249 29485 -29596 -2604006 -1465993386166 1465993386167 -1465993364596 48975 1465995919626 -2604005 -1465993365544 -2604000 -1465993364602 -52071 1465993367701 199595 -199599 180486 -162043 141599 41484 -40566 40566 -41484 -163525 -7065 1465996000720 -1465995830130 -163524 3485 201523 -201526 -54712 70540 1465993315623 -1465994954985 -1035187 -1465995990169 1465993184639 1035187 1465992350977 -1465993226123 1465993226124 2604006 -2604007 -1465993386162 1465993386166 -1465993386164 -1465993386170 160960 1465995829212 -1465996000720 10548 -2604002 160961 1465995829211 -1034901 -1465996000721 1465995995760 4962 -2604009 -1465992350979 -833661 833661 -875142 875143 36960 -1072146 -1465995990137 1035152 1465992350985 -1465992162690 -1205508 1017213 -1035188 160042 1465995830130 -1465993386172 1223482 1465994766690 -2604016 -1465992314013 1465992314021 -1465993396681 1233999 -151337 -1053671 1086558 -1104750 1465995935524 -2549583 288223780712126814 -10604143 -2200619016779 2200619016779 112613 -112613 -51234 232566 -616691 616691 33496 -33495 -12868398 12901891 -2200619309665 2200619254992 -2200619148268 2200618875476 272794 -272794 293965 10309896 -10331065 -2200619141904 2200619141917 -16 18 21148 -21173 -13 21175 -21176 -172941 172936 -2200619148334 2200619148334 -2200619255205 2200619276359 -21165 -267387 267401 21154 21167 -21169 21173 -21175 -2200619148267 2200619148292 -25 21176 -21171 16 -14 -39986 39986 -2200619148266 -23743 -235 2200614636860 4556555 10312071 -10312072 -13046 13053 -2200619150961 2200614594396 14868639 -14868639 4556565 -176111 176110 -176046 -3744140937 3744316986 -3744316986 3739760417 -3739760417 3744140899 163040 13043 2200619156393 13046 -21166 8119 -8102 8102 -8121 -2200619172845 2200619180945 -8122 -2200619148270 2200619148289 21157 -2200619193180 -811 2200619172840 -13054 -13047 13047 21172 -288225246693979383 288225246693979365 -13048 -8099 8099 13056 21171 -21151 8101 -2200619180135 2200619172014 10 -9 -2200619172015 36 2200619193141 -21164 8121 -8101 -8104 8103 -18 8120 -2200619180134 2200619172012 21164 -13045 -2200619178282 2200619191325 -2200619193985 2200619172838 8104 -8100 21142 -13041 -163040 163045 13040 -13040 -163041 13041 -13039 -8107 -19 8124 13038 -13037 -8123 8122 -8124 8125 -8119 8128 -8109 21146 -2200619172011 13 -21143 -2200619172026 2200619172030 -2200619255056 2200619255040 8118 13037 2200619180946 -8111 8112 -8106 -2200619171989 2200619171993 -2200619172836 2200619172835 8111 -8108 -48119 48119 8110 -8114 10333930 -2200629588986 2200619255051 8117 -8128 -172923 -2200618975390 2200618975391 194083 -288537 288538 -61139 48104 -181049 172931 -2200619255197 2200619082266 172927 -267385 275502 -48111 48110 -163043 -24 154938 -163067 176101 -13035 -48080 -132968 131006 50041 -8127 -163068 176100 -63077 50039 176102 -13036 -2200619180283 162 2200619180120 163067 13028 -2200619193317 2200619193320 -273637 260605 -2200619180268 2200619017200 115003 -115003 -2200619100155 2200619276250 -13028 13032 -13031 -2200619180121 176094 -2200619193297 2200619180268 176095 -2200619193322 2200619193322 -2200619193318 -657 2200619193979 -218351 218351 9508 -9508 -9512 9513 -2200619202807 2200619193300 -13032 22540 -303462 303460 -185606 185609 -2200619285762 2200619100153 -185609 22541 -22541 185607 -9514 -22442 22442 9514 9515 -176095 -61089 61090 -70605 70601 -303460 10603868 -2200629472974 2200619163052 9517 -2200619203488 2200619180947 -9415 22439 9510 -9510 -63073 39902 23172 13035 -176103 114956 61146 13034 -176102 -117854 1922 -10487936 113824 -113824 133726 -246176 -2200618855563 2200619101755 42367 -42367 29334 -2200619180730 2200619151396 -2200619150779 2128153251156 72465899624 10354202 -10605790 293954 10309914 -10309913 -2200619163062 2200619163062 -23172 10136 -181047 181047 -48118 -132930 181049 10325819 -10373900 -1956 50037 -31956 22448 -63071 50035 61096 -63069 63069 172919 -172931 181048 -275500 -2200618987814 2200619215205 -132939 2200618975392 -2200619082266 2200618987806 288542 -163042 163042 -181048 -94462 275510 -280922 280922 -2200618975312 2200618993292 -2200619180945 2200618495770 677053 -677051 685176 -234514 234515 163044 117878 -112466 275508 -181046 -275504 10598450 -10598450 288532 -288538 10598456 -10504416 10506327 -10364737 39878 -112471 275514 -275511 275511 -2200619270566 2200619270565 -13027 -163044 163043 13029 -288543 94047 -10324862 -2200619180368 2200619180370 -275515 275515 -275510 -2200618995055 21150 -112439 112439 -288528 275501 -49763 10372710 -2200629503697 2200619180749 10324975 -10600490 10600490 -2200629505334 2200629503312 2200629475001 -10311948 10312785 -10312784 10312783 -194494 194497 10311832 -10600374 -5407 293952 10309916 2200629472974 2200629473275 -11565845 961676 -2200629503894 30920 2200618869106 -10603868 10604171 -2200629504297 100 614 2200629505302 -10311941 10311946 -2200629505302 -10311949 10311949 -10324976 -275514 10600482 -10311946 -13022 -2200619180371 2200619180369 275516 275506 241 2200619193151 -2200619180128 2200619180129 -275501 227382 10325817 -10325818 163068 114948 -114924 10325822 -10325821 -48079 -1964 50043 113022 63062 -13021 10373888 -10312809 -63061 50042 -48109 48109 -163066 -17981 -112434 227420 37940 23159 -61130 61129 -13017 13017 -176085 10605790 -10374112 10372190 -10352288 -133726 133742 246177 -2200619101740 2200619101741 42355 -42355 -2200619151391 2200619180730 -29339 -72465899618 72465899618 -2200619150775 2200629504982 293937 -23158 10141 -50033 72574 -72574 50033 -40616 72572 -9524 -63048 1967 48064 -2200618968128 -48975 -82959 2200619263130 227381 48121 -10488884 163065 -181050 17982 -94454 112434 -2200619017071 -2200619144219 3581681 2200615576185 -13647 13642 -189726 189737 -26664 22539 -22539 -48049 48050 26663 -13650 -13013 13015 13645 10296288 -10296286 -26660 26677 -26677 189721 -17 -189728 -2200619017067 2200619206814 -26679 189730 194060 13667 26661 -36072 22421 -22421 17590 4827 -28028 15 28042 -28052 -2200619165703 2200629503697 2200629504003 -3072 1652 35 -10336898 -15 10336913 -2200629502605 2448 2200619191292 10308862 -10308861 -2200619193736 2200629502598 -10336901 -2200619280086 2200619280100 -58171 58223 10336858 -10336858 -58223 58222 -58222 58224 27967 -27973 22908 5066 -28045 -2200619163194 2200619105026 58171 10336907 -10356853 19942 -58170 58170 -2200619163643 2200629501937 -10396464 58172 -58169 58196 10336847 37 -10336914 -58199 -2200619107537 2200619193754 10308640 -10394857 -2200619163656 2200619105485 86217 -86217 14021 10322851 -10322852 10322885 -31 -10322855 -72192 72192 -72191 72190 -1205131 1205131 10322855 33 -10322888 -10322856 10322856 -10322854 14022 -14024 10322857 -10322858 10322853 -10308830 10308830 -10322853 10322888 -10308864 -4537996 4509944 10336911 -2200629616996 2200629616996 -2200629500565 2200619163706 -58220 58231 -52 -58168 10395081 -2200619163655 2200619191703 -10336859 27999 -28050 10336914 -2200629616999 2200619308136 10308860 -35 -10336853 28029 -22420 22422 13663 -2200619207610 2200618999898 2200619289990 -2200619207425 2200629501191 -10293766 -13664 10307431 13664 10293766 2506 2200619193761 10311928 -10311928 -2200619193760 3072 -2200629504460 2200629504460 -10296838 10310502 10296838 -10310500 10310500 -10310501 13647 -13646 -61134 10373937 -10312801 10311947 -2200619193972 2200619193975 10311941 10311824 -10311826 -293947 10605878 -10311929 10309919 293949 -293949 -293952 293953 -13044 -8095 -2200619172834 2200619172833 21152 13045 -8126 -48114 39995 -72465920901 72465920896 -2200619172036 -2200619172833 21153 -21144 -2200619172031 2200619172031 2200619172823 21161 -12868388 12868388 -293964 -21170 2200619148273 21168 2200619163070 -12868397 12901890 -33494 -293970 293979 -288223780701816649 -63 -1465992281123 1465992281123 -1465993386129 1223447 -1205509 1465993368190 -1465992162682 1465992162681 -1465993386163 -1465993386159 -1045736 1045737 -1035184 -41010 -29416 70429 1465993315626 1465993386169 -1465994766690 -1223482 -21469 29783 -29784 28875 -7424 15984 56661 20024 -90645 5382 8578 56663 20023 -114138 23491 -2026 7406 1465993348601 -1465993348599 -70621 13959 -47 1465993348649 -1465993386054 -112 -1465993364604 1465995968610 -2604003 -1465993386169 1465995809686 -1465993364586 -1465995790573 -163549 -36050 -160038 21566 -1465995919632 -74023 21926 41482 170590 -160039 -3485 3482 -48971 1465993364594 1465995990169 -1465995788646 -1465993226124 1465993386163 -1465993184638 -1465993386167 2604002 1465993386170 1034901 1465994896952 -1465995995759 1465996000721 -875143 -1465994918029 -36956 -1045704 10517 1072145 1465994918027 -1465995971698 -18192 1104750 1465994830774 -78 288223780712126892 -384124 650187 -33496 -33498 -12868395 12868398 33493 2200606407774 12847218 2200619148271 -272795 2200619163071 -21174 14 -20 -293968 272795 -21153 2200619193181 -21157 21169 -232237 232236 -272793 -293965 26 10603842 -2200618899829 2200629505689 -2200629505670 2200629505682 -10311913 10310474 1393 -10605861 10605861 -2200629505677 2200619191323 10311903 -10311903 2200618899821 -2200619014210 2200619014212 55524 10550337 -10605858 55521 -55522 -293956 293933 -293927 293927 245981 -245978 -2200618897317 2200629503176 -2200629503622 -10604168 55520 55519 55522 -55521 55523 -55496 10605795 -10605825 -29 238432 -2200619193785 2200618899833 10605634 -10560032 10560225 -10560256 10560222 -10560226 -10560220 10560253 -10560223 9920 -9918 10560220 -10560224 10560223 -10560222 10560221 -10550299 238430 -248352 -10311868 -1219243 925299 -925286 -2200618088923 2200629620035 34 -2200629505889 2200629505887 2200629505675 -14864144 14864110 -2200629505641 2200629505674 -34 -10311904 -2200619308169 -2200619014209 2200619014211 293955 -293954 45602 248354 10311902 -10605860 10605827 -10605807 2200629505669 -991388 991388 10605848 -10519554 -86294 -991375 1285334 -1285309 991397 -2200617865652 2200617865652 -3237427 3237390 10605860 -14834604 14834640 -14834639 3237388 -3237387 14832643 -14862457 29508 -2200629503678 33466 -10092 2200614647659 -2200614671038 2200629504401 -11595973 11595256 2200629473691 -2200629504607 33792 -31270 2200614668725 -2200614668775 2200629503415 -2200629503384 2200629503381 -264 -1746 -2200629503684 2200629504250 -14833213 14833213 132 -14833344 -2200614637569 -2200614671033 2200629504397 -2200629504414 2200629505643 -14834605 14834604 -14834641 -14834640 -2200614671052 2200629505658 -1245 -14833345 14833363 -14833363 -10319595 10319595 -4513769 14833346 -10319577 10319576 1491 -2200629505884 2200614647653 -2200614637561 2200614637562 14834856 -14834856 14833347 -10321363 10321346 -10319594 4513768 2200614647655 -2200614637563 2200614637563 14834855 -14834854 14833343 -14833343 14833364 1489 -1488 3237387 2200629503682 -2200629470103 2200629471992 -11597145 11595820 -2200629501934 -41 2200629501936 -14833209 -2200614670690 2200614670690 -2200617878022 2200629473278 1806 -2200629474780 2200617877718 11597254 -1998 2200629505656 -1705 -14832901 14833208 11595973 -2200629504395 -2200614637567 2200614637568 14833361 -717 717 -2200629504415 2200614671052 1275 -14834637 -14833361 -2200614637456 -33790 2200629505852 -2200629505852 2200614671250 -2200614639966 2200629473326 14833362 -14833362 10319578 -14833346 14833345 10092 -14834855 14833344 -2200614637460 2200629470802 -10321346 10321363 4513769 -4513768 2200614637564 14834853 -14834853 -14833360 -14833342 -2200614671250 2200629504611 14834641 -14834642 -11595256 -2200617908441 2200629505670 -14834650 14833211 -11597249 11597213 -2200629620035 -11597214 -2200618022824 2200629620039 -14834608 4274385 10560224 10550304 -4274386 4274388 9918 -4284305 4284305 -55574 55573 10550335 -10550336 -55573 55575 10550334 -10605910 -4228732 4228734 14834607 -11597195 991348 10605901 -10605902 -991336 11597236 -11597236 991336 10604165 -10604178 -991327 -2200618857018 2200618856988 -37 11597248 -10311645 -207908 10519519 -10311610 10311647 -294270 294272 -294273 272876 -272877 -294272 10603920 -10331045 -2200619141932 2200619163328 -21378 -211133 232514 -21383 20 -40041 40030 -31769 -72465889161 72465920920 -31756 31758 -31760 31767 -31768 -141193 141192 -235646 235645 -8247 40008 -31777 31777 -159946 191727 -191727 191723 -31778 31760 -31759 31781 -31783 31778 -2200619170193 2200619178178 -2200619178178 2200619170205 -2200619172865 2200619172877 -2200619172853 2200619180838 -2200619180838 2200619172863 -21369 21372 -21372 -31782 -2200619139189 2200619160560 -53153 -159948 191728 21375 191720 -2200619172864 845 2200619172028 7985 -7970 7970 -7985 13405 -13405 -7962 7963 -7967 7965 -7968 7968 13406 -13406 13402 21371 -21390 -7989 7988 -7990 -2200619148300 2200619156288 13401 -13398 -162905 162904 -3744303836 3754629056 -10311823 -13400 -2200619180271 -3739760270 3739760270 4556805 10311821 -10311820 -21367 -21 -2200619172870 2200619172870 
Potential of Offsets elements: 28.5346 28.5346 834.863 1298.1 28.5346 28.5346 28.5346 28.5346 28.5346 681.535 28.5346 28.5346 28.5346 28.5346 427.535 28.5346 28.5346 28.5346 28.5346 28.5346 903.535 28.5346 28.5346 28.5346 28.5346 28.5346 28.5346 28.5346 544.535 609.535 766.535 366.535 28.5346 28.5346 28.5346 28.5346 28.5346 28.5346 28.5346 28.5346 28.5346 28.5346 28.5346 526.535 28.5346 28.5346 28.5346 28.5346 28.5346 28.5346 28.5346 28.5346 321.535 28.5346 28.5346 28.5346 28.5346 30.5346 665.535 58.5346 28.5346 142.535 28.5346 28.5346 37.5346 213.535 108.535 96.5346 28.5346 28.5346 28.5346 28.5346 28.5346 28.5346 28.5346 28.5346 28.5346 28.5346 28.5346 28.5346 28.5346 28.5346 28.5346 28.5346 28.5346 28.5346 28.5346 28.5346 28.5346 28.5346 28.5346 28.5346 28.5346 28.5346 235.535 28.5346 342.535 28.5346 28.5346 28.5346 28.5346 28.5346 28.5346 28.5346 28.5346 28.5346 28.5346 28.5346 28.5346 28.5346 28.5346 28.5346 28.5346 33.5346 28.5346 28.5346 28.5346 28.5346 28.5346 28.5346 28.5346 28.5346 28.5346 28.5346 28.5346 85.5346 28.5346 28.5346 67.5346 40.5346 765.535 213.535 101.535 44.5346 28.5346 44.5346 79.5346 57.5346 116.535 90.5346 58.5346 28.5346 28.5346 40.5346 28.5346 28.5346 36.5346 396.535 28.5346 28.5346 28.5346 28.5346 28.5346 28.5346 28.5346 28.5346 28.5346 46.5346 28.5346 28.5346 28.5346 28.5346 28.5346 28.5346 28.5346 28.5346 28.5346 28.5346 28.5346 28.5346 28.5346 28.5346 28.5346 28.5346 28.5346 28.5346 28.5346 28.5346 28.5346 28.5346 28.5346 28.5346 28.5346 28.5346 30.5346 28.5346 31.5346 28.5346 98.5346 28.5346 28.5346 28.5346 28.5346 28.5346 28.5346 73.5346 28.5346 28.5346 92.5346 28.5346 28.5346 31.5346 37.5346 28.5346 28.5346 28.5346 28.5346 28.5346 28.5346 28.5346 28.5346 28.5346 28.5346 28.5346 28.5346 28.5346 28.5346 28.5346 28.5346 973.535 28.5346 28.5346 41.5346 28.5346 28.5346 49.5346 28.5346 28.5346 28.5346 653.535 28.5346 28.5346 28.5346 28.5346 61.5346 28.5346 28.5346 56.5346 28.5346 28.5346 28.5346 28.5346 28.5346 28.5346 28.5346 28.5346 450.535 28.5346 28.5346 28.5346 446.535 28.5346 28.5346 28.5346 28.5346 28.5346 28.5346 28.5346 28.5346 28.5346 28.5346 28.5346 28.5346 28.5346 484.535 33.5346 30.5346 28.5346 43.5346 49.5346 69.5346 28.5346 28.5346 280.535 28.5346 28.5346 28.5346 28.5346 28.5346 28.5346 28.5346 28.5346 28.5346 28.5346 28.5346 28.5346 28.5346 433.535 28.5346 28.5346 132.535 118.535 28.5346 28.5346 28.5346 31.5346 28.5346 28.5346 28.5346 28.5346 28.5346 28.5346 28.5346 28.5346 34.5346 50.5346 28.5346 28.5346 42.5346 197.535 138.535 70.5346 52.5346 28.5346 28.5346 28.5346 28.5346 28.5346 28.5346 28.5346 28.5346 28.5346 92.5346 28.5346 28.5346 28.5346 28.5346 28.5346 28.5346 61.5346 48.5346 28.5346 28.5346 28.5346 28.5346 28.5346 28.5346 28.5346 28.5346 28.5346 28.5346 28.5346 28.5346 28.5346 41.5346 28.5346 35.5346 28.5346 28.5346 28.5346 28.5346 28.5346 28.5346 918.535 28.5346 28.5346 28.5346 28.5346 28.5346 28.5346 303.535 30.5346 48.5346 267.535 31.5346 28.5346 29.5346 28.5346 28.5346 28.5346 28.5346 28.5346 28.5346 28.5346 28.5346 28.5346 28.5346 28.5346 28.5346 32.5346 83.5346 30.5346 38.5346 28.5346 28.5346 28.5346 28.5346 28.5346 28.5346 28.5346 132.535 28.5346 28.5346 28.5346 532.535 28.5346 34.5346 28.5346 36.5346 28.5346 28.5346 28.5346 28.5346 28.5346 28.5346 28.5346 28.5346 28.5346 144.535 28.5346 28.5346 28.5346 28.5346 28.5346 35.5346 28.5346 42.5346 35.5346 62.5346 766.535 28.5346 28.5346 28.5346 37.5346 28.5346 28.5346 28.5346 28.5346 28.5346 28.5346 28.5346 28.5346 28.5346 28.5346 28.5346 406.535 28.5346 28.5346 28.5346 28.5346 28.5346 28.5346 28.5346 28.5346 28.5346 28.5346 63.5346 28.5346 338.535 39.5346 28.5346 28.5346 28.5346 54.5346 144.535 28.5346 28.5346 37.5346 28.5346 28.5346 28.5346 28.5346 28.5346 28.5346 28.5346 28.5346 28.5346 28.5346 238.535 28.5346 64.5346 28.5346 28.5346 28.5346 28.5346 28.5346 28.5346 36.5346 28.5346 28.5346 28.5346 66.5346 34.5346 28.5346 30.5346 28.5346 28.5346 28.5346 28.5346 31.5346 35.5346 154.535 45.5346 28.5346 28.5346 28.5346 28.5346 28.5346 28.5346 28.5346 132.535 28.5346 28.5346 28.5346 29.5346 645.535 28.5346 28.5346 29.5346 28.5346 28.5346 28.5346 28.5346 28.5346 28.5346 28.5346 28.5346 28.5346 28.5346 28.5346 28.5346 28.5346 89.5346 28.5346 28.5346 28.5346 153.535 165.535 28.5346 28.5346 28.5346 28.5346 28.5346 28.5346 28.5346 28.5346 28.5346 211.535 107.535 375.535 28.5346 28.5346 28.5346 28.5346 28.5346 28.5346 28.5346 28.5346 28.5346 28.5346 28.5346 28.5346 28.5346 28.5346 40.5346 99.5346 28.5346 28.5346 28.5346 28.5346 28.5346 28.5346 473.535 129.535 28.5346 28.5346 28.5346 30.5346 28.5346 28.5346 28.5346 28.5346 28.5346 28.5346 28.5346 28.5346 28.5346 28.5346 28.5346 28.5346 28.5346 28.5346 28.5346 28.5346 38.5346 28.5346 28.5346 28.5346 28.5346 31.5346 38.5346 108.535 28.5346 28.5346 28.5346 28.5346 28.5346 103.535 102.535 278.535 28.5346 28.5346 28.5346 28.5346 28.5346 28.5346 28.5346 28.5346 28.5346 28.5346 28.5346 28.5346 28.5346 28.5346 28.5346 28.5346 28.5346 28.5346 28.5346 28.5346 28.5346 28.5346 28.5346 28.5346 28.5346 28.5346 33.5346 41.5346 28.5346 28.5346 28.5346 28.5346 28.5346 60.5346 112.535 159.535 29.5346 28.5346 28.5346 28.5346 28.5346 28.5346 28.5346 28.5346 128.535 170.535 87.5346 28.5346 28.5346 28.5346 28.5346 28.5346 28.5346 28.5346 90.5346 52.5346 28.5346 28.5346 28.5346 28.5346 28.5346 195.535 50.5346 28.5346 28.5346 28.5346 100.535 75.5346 116.535 28.5346 28.5346 28.5346 652.535 622.535 28.5346 52.5346 28.5346 28.5346 28.5346 28.5346 57.5346 28.5346 34.5346 34.5346 28.5346 28.5346 28.5346 28.5346 28.5346 1025.53 106.535 37.5346 28.5346 28.5346 28.5346 28.5346 29.5346 80.5346 147.535 28.5346 28.5346 28.5346 28.5346 204.535 28.5346 92.5346 47.5346 28.5346 28.5346 255.535 28.5346 83.5346 28.5346 28.5346 28.5346 100.535 28.5346 28.5346 28.5346 28.5346 28.5346 28.5346 28.5346 36.5346 28.5346 28.5346 28.5346 28.5346 293.535 28.5346 28.5346 28.5346 28.5346 32.5346 58.5346 28.5346 28.5346 28.5346 28.5346 28.5346 28.5346 28.5346 28.5346 35.5346 28.5346 34.5346 28.5346 28.5346 28.5346 28.5346 28.5346 28.5346 28.5346 28.5346 28.5346 28.5346 28.5346 28.5346 28.5346 34.5346 28.5346 28.5346 34.5346 152.535 28.5346 28.5346 28.5346 28.5346 36.5346 28.5346 116.535 28.5346 201.535 28.5346 28.5346 28.5346 28.5346 28.5346 28.5346 36.5346 40.5346 28.5346 28.5346 28.5346 28.5346 28.5346 28.5346 28.5346 28.5346 28.5346 28.5346 28.5346 28.5346 28.5346 28.5346 28.5346 28.5346 28.5346 240.535 28.5346 28.5346 28.5346 28.5346 28.5346 169.535 28.5346 224.535 28.5346 28.5346 96.5346 28.5346 38.5346 28.5346 28.5346 28.5346 62.5346 28.5346 28.5346 28.5346 28.5346 28.5346 28.5346 28.5346 28.5346 134.535 28.5346 28.5346 28.5346 28.5346 28.5346 28.5346 352.535 28.5346 28.5346 28.5346 28.5346 28.5346 283.535 28.5346 28.5346 53.5346 28.5346 75.5346 28.5346 28.5346 28.5346 28.5346 28.5346 28.5346 28.5346 28.5346 28.5346 28.5346 28.5346 28.5346 28.5346 28.5346 220.535 28.5346 28.5346 28.5346 28.5346 28.5346 28.5346 28.5346 28.5346 28.5346 28.5346 28.5346 28.5346 28.5346 28.5346 116.535 32.5346 28.5346 28.5346 28.5346 32.5346 126.535 28.5346 28.5346 46.5346 28.5346 28.5346 28.5346 28.5346 28.5346 28.5346 28.5346 28.5346 28.5346 28.5346 28.5346 28.5346 273.535 28.5346 28.5346 28.5346 28.5346 28.5346 28.5346 28.5346 28.5346 53.5346 28.5346 28.5346 28.5346 28.5346 28.5346 28.5346 28.5346 28.5346 28.5346 28.5346 84.5346 28.5346 28.5346 46.5346 28.5346 28.5346 28.5346 28.5346 28.5346 28.5346 28.5346 28.5346 28.5346 28.5346 28.5346 28.5346 28.5346 28.5346 28.5346 28.5346 28.5346 28.5346 28.5346 28.5346 28.5346 28.5346 28.5346 28.5346 28.5346 28.5346 28.5346 28.5346 28.5346 28.5346 28.5346 28.5346 32.5346 29.5346 28.5346 28.5346 50.5346 28.5346 28.5346 28.5346 28.5346 28.5346 28.5346 28.5346 28.5346 28.5346 28.5346 28.5346 28.5346 28.5346 28.5346 28.5346 28.5346 28.5346 28.5346 28.5346 28.5346 28.5346 28.5346 28.5346 28.5346 28.5346 28.5346 28.5346 28.5346 28.5346 28.5346 28.5346 28.5346 64.5346 28.5346 28.5346 28.5346 28.5346 28.5346 28.5346 28.5346 28.5346 61.5346 28.5346 28.5346 28.5346 28.5346 36.5346 28.5346 28.5346 28.5346 28.5346 28.5346 28.5346 28.5346 28.5346 28.5346 28.5346 28.5346 40.5346 28.5346 28.5346 29.5346 28.5346 28.5346 28.5346 28.5346 28.5346 28.5346 28.5346 28.5346 28.5346 28.5346 28.5346 28.5346 28.5346 28.5346 28.5346 28.5346 28.5346 28.5346 28.5346 28.5346 172.535 28.5346 28.5346 28.5346 28.5346 28.5346 28.5346 78.5346 62.5346 28.5346 28.5346 85.5346 187.535 28.5346 28.5346 28.5346 28.5346 28.5346 28.5346 28.5346 28.5346 28.5346 28.5346 28.5346 28.5346 28.5346 28.5346 28.5346 28.5346 28.5346 101.535 28.5346 28.5346 90.5346 33.5346 28.5346 28.5346 28.5346 28.5346 45.5346 28.5346 28.5346 28.5346 28.5346 28.5346 28.5346 28.5346 28.5346 44.5346 28.5346 28.5346 28.5346 28.5346 28.5346 28.5346 28.5346 28.5346 28.5346 28.5346 28.5346 28.5346 28.5346 28.5346 29.5346 28.5346 28.5346 28.5346 28.5346 28.5346 28.5346 28.5346 191.535 49.5346 28.5346 28.5346 28.5346 28.5346 28.5346 28.5346 28.5346 28.5346 28.5346 28.5346 28.5346 164.535 28.5346 52.5346 28.5346 28.5346 28.5346 28.5346 28.5346 28.5346 146.535 192.535 28.5346 45.5346 28.5346 28.5346 28.5346 28.5346 28.5346 28.5346 107.535 28.5346 28.5346 28.5346 737.535 28.5346 28.5346 28.5346 28.5346 28.5346 28.5346 28.5346 28.5346 28.5346 28.5346 28.5346 28.5346 149.535 70.5346 104.535 28.5346 28.5346 697.535 28.5346 28.5346 28.5346 28.5346 28.5346 28.5346 28.5346 28.5346 28.5346 28.5346 28.5346 28.5346 95.5346 28.5346 28.5346 28.5346 28.5346 28.5346 28.5346 28.5346 28.5346 28.5346 28.5346 28.5346 28.5346 28.5346 28.5346 28.5346 28.5346 28.5346 28.5346 28.5346 28.5346 28.5346 28.5346 28.5346 28.5346 28.5346 28.5346 28.5346 28.5346 28.5346 28.5346 28.5346 28.5346 28.5346 28.5346 28.5346 28.5346 28.5346 28.5346 28.5346 28.5346 28.5346 28.5346 29.5346 28.5346 53.5346 28.5346 28.5346 28.5346 28.5346 28.5346 43.5346 28.5346 28.5346 62.5346 28.5346 28.5346 28.5346 28.5346 28.5346 28.5346 28.5346 28.5346 28.5346 28.5346 28.5346 28.5346 55.5346 28.5346 28.5346 28.5346 28.5346 28.5346 28.5346 28.5346 28.5346 28.5346 28.5346 28.5346 28.5346 28.5346 28.5346 28.5346 28.5346 28.5346 28.5346 28.5346 28.5346 28.5346 28.5346 28.5346 28.5346 28.5346 28.5346 28.5346 28.5346 28.5346 28.5346 28.5346 28.5346 28.5346 28.5346 28.5346 50.5346 28.5346 28.5346 28.5346 28.5346 28.5346 28.5346 28.5346 28.5346 28.5346 28.5346 28.5346 28.5346 28.5346 28.5346 28.5346 28.5346 28.5346 88.5346 28.5346 28.5346 28.5346 28.5346 28.5346 28.5346 28.5346 28.5346 28.5346 28.5346 28.5346 28.5346 28.5346 28.5346 28.5346 28.5346 28.5346 28.5346 28.5346 106.535 28.5346 28.5346 28.5346 28.5346 28.5346 28.5346 28.5346 28.5346 28.5346 28.5346 28.5346 28.5346 28.5346 28.5346 28.5346 28.5346 28.5346 28.5346 28.5346 28.5346 28.5346 28.5346 28.5346 28.5346 28.5346 28.5346 28.5346 28.5346 28.5346 28.5346 28.5346 28.5346 28.5346 28.5346 28.5346 118.535 38.5346 28.5346 28.5346 28.5346 28.5346 28.5346 28.5346 28.5346 28.5346 28.5346 28.5346 28.5346 28.5346 28.5346 28.5346 28.5346 28.5346 50.5346 28.5346 28.5346 28.5346 28.5346 28.5346 28.5346 28.5346 28.5346 28.5346 28.5346 28.5346 28.5346 28.5346 28.5346 28.5346 28.5346 168.535 93.5346 28.5346 28.5346 28.5346 28.5346 28.5346 28.5346 28.5346 28.5346 28.5346 28.5346 28.5346 28.5346 28.5346 28.5346 28.5346 28.5346 28.5346 28.5346 28.5346 28.5346 28.5346 28.5346 28.5346 28.5346 28.5346 28.5346 28.5346 28.5346 28.5346 28.5346 28.5346 28.5346 28.5346 28.5346 28.5346 64.5346 28.5346 28.5346 28.5346 28.5346 28.5346 28.5346 28.5346 28.5346 28.5346 28.5346 28.5346 28.5346 28.5346 28.5346 28.5346 28.5346 28.5346 28.5346 34.5346 28.5346 28.5346 28.5346 28.5346 28.5346 28.5346 28.5346 28.5346 28.5346 28.5346 28.5346 28.5346 28.5346 28.5346 28.5346 28.5346 58.5346 34.5346 28.5346 28.5346 28.5346 28.5346 28.5346 28.5346 28.5346 28.5346 44.5346 28.5346 28.5346 28.5346 28.5346 28.5346 28.5346 28.5346 28.5346 28.5346 28.5346 28.5346 28.5346 28.5346 28.5346 28.5346 28.5346 28.5346 28.5346 28.5346 28.5346 28.5346 28.5346 28.5346 28.5346 163.535 184.535 28.5346 28.5346 28.5346 28.5346 28.5346 28.5346 28.5346 28.5346 28.5346 28.5346 28.5346 28.5346 28.5346 28.5346 28.5346 28.5346 28.5346 38.5346 28.5346 28.5346 28.5346 28.5346 28.5346 28.5346 28.5346 28.5346 28.5346 28.5346 28.5346 28.5346 28.5346 28.5346 28.5346 28.5346 28.5346 38.5346 28.5346 28.5346 28.5346 28.5346 28.5346 28.5346 28.5346 28.5346 28.5346 28.5346 28.5346 28.5346 28.5346 67.5346 28.5346 28.5346 28.5346 28.5346 28.5346 28.5346 28.5346 28.5346 28.5346 28.5346 28.5346 28.5346 28.5346 32.5346 28.5346 28.5346 28.5346 28.5346 28.5346 28.5346 28.5346 53.5346 28.5346 28.5346 28.5346 28.5346 151.535 28.5346 28.5346 28.5346 28.5346 28.5346 28.5346 28.5346 28.5346 28.5346 28.5346 28.5346 28.5346 32.5346 28.5346 56.5346 28.5346 28.5346 28.5346 28.5346 28.5346 28.5346 28.5346 62.5346 28.5346 56.5346 28.5346 28.5346 28.5346 28.5346 28.5346 99.5346 28.5346 28.5346 28.5346 28.5346 28.5346 28.5346 28.5346 28.5346 28.5346 28.5346 28.5346 28.5346 28.5346 28.5346 28.5346 28.5346 28.5346 28.5346 28.5346 28.5346 28.5346 28.5346 28.5346 28.5346 28.5346 28.5346 28.5346 28.5346 28.5346 28.5346 28.5346 28.5346 28.5346 30.5346 28.5346 58.5346 28.5346 28.5346 28.5346 28.5346 28.5346 28.5346 28.5346 28.5346 28.5346 28.5346 28.5346 28.5346 28.5346 28.5346 28.5346 28.5346 28.5346 100.535 28.5346 28.5346 28.5346 123.535 28.5346 28.5346 28.5346 28.5346 28.5346 28.5346 28.5346 28.5346 28.5346 28.5346 28.5346 28.5346 33.5346 51.5346 28.5346 28.5346 28.5346 28.5346 28.5346 28.5346 28.5346 28.5346 28.5346 28.5346 28.5346 28.5346 28.5346 28.5346 28.5346 28.5346 28.5346 28.5346 28.5346 28.5346 28.5346 190.535 28.5346 28.5346 28.5346 28.5346 28.5346 28.5346 28.5346 28.5346 28.5346 28.5346 28.5346 28.5346 52.5346 28.5346 28.5346 28.5346 28.5346 28.5346 28.5346 28.5346 28.5346 28.5346 28.5346 28.5346 28.5346 28.5346 28.5346 28.5346 28.5346 28.5346 28.5346 28.5346 28.5346 28.5346 28.5346 28.5346 28.5346 28.5346 28.5346 28.5346 28.5346 28.5346 28.5346 28.5346 28.5346 28.5346 28.5346 148.535 28.5346 38.5346 28.5346 28.5346 28.5346 28.5346 28.5346 28.5346 28.5346 28.5346 28.5346 28.5346 28.5346 28.5346 28.5346 28.5346 28.5346 28.5346 28.5346 28.5346 28.5346 34.5346 73.5346 28.5346 28.5346 28.5346 28.5346 28.5346 28.5346 28.5346 28.5346 28.5346 29.5346 28.5346 28.5346 28.5346 30.5346 28.5346 28.5346 28.5346 28.5346 28.5346 28.5346 28.5346 28.5346 28.5346 28.5346 28.5346 28.5346 28.5346 28.5346 75.5346 97.5346 28.5346 28.5346 32.5346 28.5346 28.5346 28.5346 28.5346 28.5346 28.5346 28.5346 28.5346 28.5346 28.5346 28.5346 28.5346 28.5346 28.5346 28.5346 28.5346 44.5346 28.5346 28.5346 28.5346 28.5346 28.5346 28.5346 28.5346 28.5346 28.5346 28.5346 28.5346 28.5346 28.5346 28.5346 28.5346 28.5346 28.5346 28.5346 30.5346 28.5346 28.5346 30.5346 28.5346 28.5346 37.5346 28.5346 28.5346 28.5346 28.5346 28.5346 28.5346 100.535 73.5346 28.5346 28.5346 28.5346 29.5346 28.5346 28.5346 28.5346 28.5346 28.5346 28.5346 28.5346 28.5346 28.5346 28.5346 28.5346 28.5346 28.5346 28.5346 28.5346 28.5346 28.5346 28.5346 28.5346 64.5346 30.5346 28.5346 28.5346 28.5346 28.5346 28.5346 28.5346 92.5346 89.5346 28.5346 28.5346 37.5346 43.5346 32.5346 97.5346 29.5346 28.5346 28.5346 28.5346 34.5346 28.5346 28.5346 28.5346 28.5346 28.5346 28.5346 28.5346 30.5346 28.5346 28.5346 28.5346 28.5346 28.5346 28.5346 31.5346 28.5346 28.5346 28.5346 28.5346 28.5346 28.5346 28.5346 28.5346 28.5346 28.5346 28.5346 28.5346 28.5346 28.5346 28.5346 33.5346 28.5346 28.5346 28.5346 28.5346 28.5346 28.5346 28.5346 28.5346 28.5346 72.5346 28.5346 28.5346 28.5346 28.5346 28.5346 28.5346 28.5346 28.5346 28.5346 28.5346 28.5346 28.5346 28.5346 28.5346 28.5346 28.5346 28.5346 28.5346 28.5346 28.5346 28.5346 28.5346 28.5346 28.5346 28.5346 28.5346 28.5346 28.5346 28.5346 28.5346 28.5346 28.5346 28.5346 28.5346 30.5346 28.5346 28.5346 28.5346 28.5346 28.5346 28.5346 28.5346 28.5346 28.5346 28.5346 28.5346 28.5346 28.5346 28.5346 28.5346 28.5346 28.5346 54.5346 37.5346 28.5346 28.5346 28.5346 28.5346 28.5346 28.5346 28.5346 28.5346 28.5346 28.5346 28.5346 28.5346 28.5346 28.5346 28.5346 28.5346 32.5346 28.5346 28.5346 28.5346 28.5346 28.5346 28.5346 28.5346 28.5346 28.5346 28.5346 28.5346 28.5346 28.5346 28.5346 28.5346 28.5346 28.5346 35.5346 28.5346 28.5346 28.5346 28.5346 28.5346 28.5346 103.535 28.5346 28.5346 28.5346 28.5346 28.5346 28.5346 28.5346 28.5346 28.5346 28.5346 140.535 29.5346 28.5346 28.5346 28.5346 28.5346 28.5346 28.5346 28.5346 28.5346 28.5346 28.5346 28.5346 28.5346 28.5346 28.5346 28.5346 28.5346 73.5346 108.535 28.5346 28.5346 28.5346 28.5346 28.5346 28.5346 28.5346 28.5346 28.5346 28.5346 28.5346 28.5346 28.5346 28.5346 28.5346 28.5346 38.5346 28.5346 28.5346 28.5346 28.5346 38.5346 28.5346 28.5346 28.5346 28.5346 28.5346 28.5346 28.5346 28.5346 28.5346 28.5346 28.5346 28.5346 78.5346 30.5346 28.5346 28.5346 28.5346 28.5346 28.5346 28.5346 28.5346 28.5346 28.5346 28.5346 28.5346 28.5346 28.5346 28.5346 28.5346 33.5346 53.5346 58.5346 28.5346 28.5346 28.5346 28.5346 28.5346 28.5346 28.5346 28.5346 28.5346 28.5346 28.5346 28.5346 28.5346 28.5346 28.5346 28.5346 364.535 28.5346 28.5346 28.5346 28.5346 28.5346 28.5346 28.5346 28.5346 28.5346 28.5346 28.5346 28.5346 28.5346 28.5346 28.5346 28.5346 116.535 31.5346 28.5346 28.5346 28.5346 28.5346 28.5346 28.5346 28.5346 28.5346 28.5346 28.5346 28.5346 28.5346 28.5346 28.5346 28.5346 28.5346 104.535 60.5346 28.5346 28.5346 28.5346 28.5346 28.5346 28.5346 28.5346 28.5346 28.5346 28.5346 28.5346 28.5346 28.5346 28.5346 28.5346 28.5346 84.5346 67.5346 28.5346 28.5346 28.5346 28.5346 28.5346 28.5346 28.5346 28.5346 28.5346 28.5346 28.5346 28.5346 28.5346 28.5346 28.5346 28.5346 28.5346 30.5346 310.535 124.535 28.5346 28.5346 28.5346 28.5346 28.5346 28.5346 28.5346 28.5346 28.5346 28.5346 28.5346 28.5346 28.5346 28.5346 28.5346 33.5346 28.5346 28.5346 28.5346 28.5346 28.5346 28.5346 28.5346 28.5346 28.5346 28.5346 28.5346 28.5346 28.5346 28.5346 28.5346 28.5346 42.5346 36.5346 28.5346 28.5346 28.5346 28.5346 28.5346 30.5346 28.5346 28.5346 28.5346 28.5346 28.5346 28.5346 28.5346 36.5346 28.5346 28.5346 35.5346 36.5346 28.5346 28.5346 28.5346 28.5346 28.5346 28.5346 28.5346 28.5346 28.5346 28.5346 28.5346 32.5346 28.5346 28.5346 28.5346 28.5346 41.5346 124.535 28.5346 28.5346 28.5346 28.5346 28.5346 28.5346 28.5346 28.5346 28.5346 28.5346 28.5346 28.5346 29.5346 28.5346 28.5346 28.5346 28.5346 28.5346 28.5346 92.5346 28.5346 28.5346 
rewards of Offsets elements: 0 0 834 1298 0 0 0 0 0 653 0 0 0 0 399 0 0 0 0 0 875 0 0 0 0 0 0 0 516 581 738 338 0 0 0 0 0 0 0 0 0 0 0 498 0 0 0 0 0 0 0 0 293 0 0 0 0 2 637 30 0 114 0 0 9 185 80 68 0 0 0 0 0 0 0 0 0 0 0 0 0 0 0 0 0 0 0 0 0 0 0 0 0 0 207 0 314 0 0 0 0 0 0 0 0 0 0 0 0 0 0 0 0 5 0 0 0 0 0 0 0 0 0 0 0 57 0 0 39 12 737 185 73 16 0 16 51 29 88 62 30 0 0 12 0 0 8 368 0 0 0 0 0 0 0 0 0 18 0 0 0 0 0 0 0 0 0 0 0 0 0 0 0 0 0 0 0 0 0 0 0 0 0 0 2 0 3 0 70 0 0 0 0 0 0 45 0 0 64 0 0 3 9 0 0 0 0 0 0 0 0 0 0 0 0 0 0 0 0 945 0 0 13 0 0 21 0 0 0 625 0 0 0 0 33 0 0 28 0 0 0 0 0 0 0 0 422 0 0 0 418 0 0 0 0 0 0 0 0 0 0 0 0 0 456 5 2 0 15 21 41 0 0 252 0 0 0 0 0 0 0 0 0 0 0 0 0 405 0 0 104 90 0 0 0 3 0 0 0 0 0 0 0 0 6 22 0 0 14 169 110 42 24 0 0 0 0 0 0 0 0 0 64 0 0 0 0 0 0 33 20 0 0 0 0 0 0 0 0 0 0 0 0 0 13 0 7 0 0 0 0 0 0 890 0 0 0 0 0 0 275 2 20 239 3 0 1 0 0 0 0 0 0 0 0 0 0 0 0 4 55 2 10 0 0 0 0 0 0 0 104 0 0 0 504 0 6 0 8 0 0 0 0 0 0 0 0 0 116 0 0 0 0 0 7 0 14 7 34 738 0 0 0 9 0 0 0 0 0 0 0 0 0 0 0 378 0 0 0 0 0 0 0 0 0 0 35 0 310 11 0 0 0 26 116 0 0 9 0 0 0 0 0 0 0 0 0 0 210 0 36 0 0 0 0 0 0 8 0 0 0 38 6 0 2 0 0 0 0 3 7 126 17 0 0 0 0 0 0 0 104 0 0 0 1 617 0 0 1 0 0 0 0 0 0 0 0 0 0 0 0 0 61 0 0 0 125 137 0 0 0 0 0 0 0 0 0 183 79 347 0 0 0 0 0 0 0 0 0 0 0 0 0 0 12 71 0 0 0 0 0 0 445 101 0 0 0 2 0 0 0 0 0 0 0 0 0 0 0 0 0 0 0 0 10 0 0 0 0 3 10 80 0 0 0 0 0 75 74 250 0 0 0 0 0 0 0 0 0 0 0 0 0 0 0 0 0 0 0 0 0 0 0 0 0 0 5 13 0 0 0 0 0 32 84 131 1 0 0 0 0 0 0 0 100 142 59 0 0 0 0 0 0 0 62 24 0 0 0 0 0 167 22 0 0 0 72 47 88 0 0 0 624 594 0 24 0 0 0 0 29 0 6 6 0 0 0 0 0 997 78 9 0 0 0 0 1 52 119 0 0 0 0 176 0 64 19 0 0 227 0 55 0 0 0 72 0 0 0 0 0 0 0 8 0 0 0 0 265 0 0 0 0 4 30 0 0 0 0 0 0 0 0 7 0 6 0 0 0 0 0 0 0 0 0 0 0 0 0 6 0 0 6 124 0 0 0 0 8 0 88 0 173 0 0 0 0 0 0 8 12 0 0 0 0 0 0 0 0 0 0 0 0 0 0 0 0 0 212 0 0 0 0 0 141 0 196 0 0 68 0 10 0 0 0 34 0 0 0 0 0 0 0 0 106 0 0 0 0 0 0 324 0 0 0 0 0 255 0 0 25 0 47 0 0 0 0 0 0 0 0 0 0 0 0 0 0 192 0 0 0 0 0 0 0 0 0 0 0 0 0 0 88 4 0 0 0 4 98 0 0 18 0 0 0 0 0 0 0 0 0 0 0 0 245 0 0 0 0 0 0 0 0 25 0 0 0 0 0 0 0 0 0 0 56 0 0 18 0 0 0 0 0 0 0 0 0 0 0 0 0 0 0 0 0 0 0 0 0 0 0 0 0 0 0 0 0 0 0 0 4 1 0 0 22 0 0 0 0 0 0 0 0 0 0 0 0 0 0 0 0 0 0 0 0 0 0 0 0 0 0 0 0 0 0 0 0 36 0 0 0 0 0 0 0 0 33 0 0 0 0 8 0 0 0 0 0 0 0 0 0 0 0 12 0 0 1 0 0 0 0 0 0 0 0 0 0 0 0 0 0 0 0 0 0 0 0 144 0 0 0 0 0 0 50 34 0 0 57 159 0 0 0 0 0 0 0 0 0 0 0 0 0 0 0 0 0 73 0 0 62 5 0 0 0 0 17 0 0 0 0 0 0 0 0 16 0 0 0 0 0 0 0 0 0 0 0 0 0 0 1 0 0 0 0 0 0 0 163 21 0 0 0 0 0 0 0 0 0 0 0 136 0 24 0 0 0 0 0 0 118 164 0 17 0 0 0 0 0 0 79 0 0 0 709 0 0 0 0 0 0 0 0 0 0 0 0 121 42 76 0 0 669 0 0 0 0 0 0 0 0 0 0 0 0 67 0 0 0 0 0 0 0 0 0 0 0 0 0 0 0 0 0 0 0 0 0 0 0 0 0 0 0 0 0 0 0 0 0 0 0 0 0 0 0 0 0 0 1 0 25 0 0 0 0 0 15 0 0 34 0 0 0 0 0 0 0 0 0 0 0 0 27 0 0 0 0 0 0 0 0 0 0 0 0 0 0 0 0 0 0 0 0 0 0 0 0 0 0 0 0 0 0 0 0 0 0 0 22 0 0 0 0 0 0 0 0 0 0 0 0 0 0 0 0 0 60 0 0 0 0 0 0 0 0 0 0 0 0 0 0 0 0 0 0 0 78 0 0 0 0 0 0 0 0 0 0 0 0 0 0 0 0 0 0 0 0 0 0 0 0 0 0 0 0 0 0 0 0 0 0 0 90 10 0 0 0 0 0 0 0 0 0 0 0 0 0 0 0 0 22 0 0 0 0 0 0 0 0 0 0 0 0 0 0 0 0 140 65 0 0 0 0 0 0 0 0 0 0 0 0 0 0 0 0 0 0 0 0 0 0 0 0 0 0 0 0 0 0 0 0 0 0 0 36 0 0 0 0 0 0 0 0 0 0 0 0 0 0 0 0 0 0 6 0 0 0 0 0 0 0 0 0 0 0 0 0 0 0 0 30 6 0 0 0 0 0 0 0 0 16 0 0 0 0 0 0 0 0 0 0 0 0 0 0 0 0 0 0 0 0 0 0 0 0 135 156 0 0 0 0 0 0 0 0 0 0 0 0 0 0 0 0 0 10 0 0 0 0 0 0 0 0 0 0 0 0 0 0 0 0 0 10 0 0 0 0 0 0 0 0 0 0 0 0 0 39 0 0 0 0 0 0 0 0 0 0 0 0 0 4 0 0 0 0 0 0 0 25 0 0 0 0 123 0 0 0 0 0 0 0 0 0 0 0 0 4 0 28 0 0 0 0 0 0 0 34 0 28 0 0 0 0 0 71 0 0 0 0 0 0 0 0 0 0 0 0 0 0 0 0 0 0 0 0 0 0 0 0 0 0 0 0 0 0 0 0 0 2 0 30 0 0 0 0 0 0 0 0 0 0 0 0 0 0 0 0 0 72 0 0 0 95 0 0 0 0 0 0 0 0 0 0 0 0 5 23 0 0 0 0 0 0 0 0 0 0 0 0 0 0 0 0 0 0 0 0 0 162 0 0 0 0 0 0 0 0 0 0 0 0 24 0 0 0 0 0 0 0 0 0 0 0 0 0 0 0 0 0 0 0 0 0 0 0 0 0 0 0 0 0 0 0 0 0 0 120 0 10 0 0 0 0 0 0 0 0 0 0 0 0 0 0 0 0 0 0 0 6 45 0 0 0 0 0 0 0 0 0 1 0 0 0 2 0 0 0 0 0 0 0 0 0 0 0 0 0 0 47 69 0 0 4 0 0 0 0 0 0 0 0 0 0 0 0 0 0 0 0 16 0 0 0 0 0 0 0 0 0 0 0 0 0 0 0 0 0 0 2 0 0 2 0 0 9 0 0 0 0 0 0 72 45 0 0 0 1 0 0 0 0 0 0 0 0 0 0 0 0 0 0 0 0 0 0 0 36 2 0 0 0 0 0 0 64 61 0 0 9 15 4 69 1 0 0 0 6 0 0 0 0 0 0 0 2 0 0 0 0 0 0 3 0 0 0 0 0 0 0 0 0 0 0 0 0 0 0 5 0 0 0 0 0 0 0 0 0 44 0 0 0 0 0 0 0 0 0 0 0 0 0 0 0 0 0 0 0 0 0 0 0 0 0 0 0 0 0 0 0 0 0 0 2 0 0 0 0 0 0 0 0 0 0 0 0 0 0 0 0 0 26 9 0 0 0 0 0 0 0 0 0 0 0 0 0 0 0 0 4 0 0 0 0 0 0 0 0 0 0 0 0 0 0 0 0 0 7 0 0 0 0 0 0 75 0 0 0 0 0 0 0 0 0 0 112 1 0 0 0 0 0 0 0 0 0 0 0 0 0 0 0 0 45 80 0 0 0 0 0 0 0 0 0 0 0 0 0 0 0 0 10 0 0 0 0 10 0 0 0 0 0 0 0 0 0 0 0 0 50 2 0 0 0 0 0 0 0 0 0 0 0 0 0 0 0 5 25 30 0 0 0 0 0 0 0 0 0 0 0 0 0 0 0 0 336 0 0 0 0 0 0 0 0 0 0 0 0 0 0 0 0 88 3 0 0 0 0 0 0 0 0 0 0 0 0 0 0 0 0 76 32 0 0 0 0 0 0 0 0 0 0 0 0 0 0 0 0 56 39 0 0 0 0 0 0 0 0 0 0 0 0 0 0 0 0 0 2 282 96 0 0 0 0 0 0 0 0 0 0 0 0 0 0 0 5 0 0 0 0 0 0 0 0 0 0 0 0 0 0 0 0 14 8 0 0 0 0 0 2 0 0 0 0 0 0 0 8 0 0 7 8 0 0 0 0 0 0 0 0 0 0 0 4 0 0 0 0 13 96 0 0 0 0 0 0 0 0 0 0 0 0 1 0 0 0 0 0 0 64 0 0 Printing Sanity3
offset_index value2301
offset list size2301
reward size2301
potential size2301
-----------------------------------------------------------------------------------------------------------------------------------------------------------------------------------------------------

DRAM Statistics
 CHANNEL 0
 RQ ROW_BUFFER_HIT:        742  ROW_BUFFER_MISS:       3088
 DBUS_CONGESTED:          0
 WQ ROW_BUFFER_HIT:         15  ROW_BUFFER_MISS:        430  FULL:          0

 AVG_CONGESTED_CYCLE: -
 All warmup complete: 2
Channel 0 Bank busy for read cycles: 0
Channel 0 Bank busy for write cycles: 0
Channel 0
Rank 0
0banks busy for read cycles: 658988754
0banks busy for write cycles: 357
1banks busy for read cycles: 303032
1banks busy for write cycles: 47841
2banks busy for read cycles: 70919
2banks busy for write cycles: 6904
3banks busy for read cycles: 12824
3banks busy for write cycles: 2119
4banks busy for read cycles: 2937
4banks busy for write cycles: 0
5banks busy for read cycles: 963
5banks busy for write cycles: 0
6banks busy for read cycles: 66
6banks busy for write cycles: 0
7banks busy for read cycles: 0
7banks busy for write cycles: 0
8banks busy for read cycles: 0
8banks busy for write cycles: 0

CPU 0 Branch Prediction Accuracy: 99.8925% MPKI: 0.1929 Average ROB Occupancy at Mispredict: 31.3154
Branch types
NOT_BRANCH: 164102759 82.0514%
BRANCH_DIRECT_JUMP: 1886938 0.943469%
BRANCH_INDIRECT: 11997171 5.99859%
BRANCH_CONDITIONAL: 12811860 6.40593%
BRANCH_DIRECT_CALL: 3870839 1.93542%
BRANCH_INDIRECT_CALL: 729710 0.364855%
BRANCH_RETURN: 4600610 2.3003%
BRANCH_OTHER: 0 0%

DRAM PAGES: 1048576
Allocated PAGES: 1781
