
*** ChampSim Multicore Out-of-Order Simulator ***

Warmup Instructions: 50000000
Simulation Instructions: 200000000
Number of CPUs: 1
LLC sets: 2048
LLC ways: 16
Off-chip DRAM Size: 4096 MB Channels: 1 Width: 64-bit Data Rate: 6400 MT/s
CPU 0 runs traces/spec2k17/srv_27.champsimtrace.xz
.xz
BTB has LRU replacement policy
ITLB has LRU replacement policy
DTLB has LRU replacement policy
STLB has LRU replacement policy
L1I has LRU replacement policy
L1D has LRU replacement policy
Initialize SRRIP state for L2C
Initialize DRRIP state for LLC
Offsets elements: 
Potential of Offsets elements: 
rewards of Offsets elements: 
Printing Sanity1
offset list size1053
Offsets elements: 
Potential of Offsets elements: 
rewards of Offsets elements: 77 1805 40 317 1680 525 630 292 69 15 56 240 28 24 8 6 35 42 6 11 778 10 50 7 1 2 8 12 4 6 8 6 3 12 5 10 0 0 12 74 81 215 24 2 12 56 724 38 25 0 0 637 699 48 34 446 6 107 30 80 27 16 0 0 2 4 16 16 4 42 0 0 0 0 40 0 0 1 2 1 6 21 24 134 18 21 96 10 0 0 0 0 0 0 0 0 0 0 0 0 0 21 273 50 50 331 90 0 279 0 3 10 0 125 0 0 16 202 0 0 9 70 32 34 19 33 18 6 392 0 0 260 12 0 16 45 0 0 0 37 46 133 30 10 187 113 29 414 51 30 19 12 70 0 0 0 0 48 176 272 341 95 114 154 421 300 180 238 120 162 210 238 45 338 0 0 96 0 0 12 48 0 0 183 70 195 42 55 56 36 92 154 418 210 378 534 361 48 166 192 78 56 0 0 0 0 125 70 9 2 4 0 0 0 27 0 0 27 0 0 0 54 20 12 225 234 48 51 45 98 38 87 0 0 51 9 12 21 105 80 50 70 142 149 96 27 56 98 64 23 0 0 0 0 0 0 0 21 90 166 190 120 239 9 2 126 64 88 52 326 0 0 216 78 49 154 116 36 38 22 11 78 56 58 169 0 0 0 142 0 144 0 20 44 0 0 12 18 120 10 35 10 5 0 13 3 3 5 12 8 8 4 4 16 20 0 3 15 4 2 5 2 415 16 8 7 0 105 27 36 293 140 12 4 0 0 8 7 2 0 0 12 0 12 0 0 183 237 0 1 0 12 0 0 0 361 24 30 18 24 33 0 0 260 72 69 10 0 0 0 117 50 188 76 252 0 0 0 30 99 139 63 72 80 44 196 208 17 195 177 117 38 0 32 30 0 0 0 0 6 28 91 96 27 45 78 57 0 54 24 25 150 30 118 91 45 60 40 0 7 87 0 0 0 0 105 70 15 9 0 0 0 22 0 30 15 0 0 9 40 10 1 12 9 20 40 26 90 39 4 57 65 66 45 12 0 13 2 8 2 0 0 30 4 50 0 0 31 26 27 2 21 6 22 0 0 0 4 11 43 45 11 24 14 0 0 0 0 0 0 0 0 0 0 0 0 0 0 60 18 0 266 320 0 7 8 69 11 0 0 4 136 30 39 60 189 24 0 44 84 64 68 39 0 101 0 0 38 3 27 0 0 68 39 15 15 15 15 61 0 0 57 124 80 208 140 156 150 39 0 0 0 24 41 112 241 247 70 84 24 0 126 31 17 10 179 78 0 38 0 84 63 8 18 16 0 0 20 0 0 3 22 12 4 8 21 337 0 0 0 0 0 0 0 0 0 0 0 0 0 0 0 0 0 0 0 0 0 0 0 0 0 0 0 0 0 0 0 0 0 0 0 0 0 0 63 7 32 84 0 78 802 6 11 18 6 90 87 15 12 3 0 9 84 253 0 130 76 9 9 80 91 0 0 48 63 69 0 420 8 4 0 788 0 0 0 0 0 8 4 12 9 24 8 4 6 4 2 24 61 2 168 8 2 2 25 7 4 0 30 0 0 43 53 44 18 50 0 0 37 60 6 45 51 153 145 57 60 0 0 273 190 70 426 54 10 0 15 80 36 0 21 107 0 0 9 198 22 61 3 25 165 486 0 0 0 426 0 0 0 3 6 6 4 4 2 4 0 0 40 0 9 101 20 6 33 87 4 3 8 6 22 1 0 0 0 0 0 0 0 0 0 0 7 0 20 108 58 30 41 0 141 10 10 0 0 0 0 0 81 204 56 6 0 0 51 20 39 27 184 68 1 84 0 320 63 0 0 26 6 16 9 6 0 13 2 547 51 30 264 9 43 33 0 3 6 30 0 0 0 0 0 0 0 22 28 0 0 0 454 24 0 0 4 2 20 6 0 15 0 0 128 0 68 26 12 9 39 21 45 67 15 30 35 0 92 219 220 0 0 2 4 2 12 8 4 5 8 4 0 3 0 0 0 0 0 0 0 0 0 0 40 4 8 0 0 133 20 135 0 0 146 208 119 60 20 72 60 32 0 0 0 8 8 0 40 16 393 7 0 2 0 0 0 0 0 0 0 0 0 0 0 0 0 0 0 0 17 0 0 0 12 9 28 0 0 4 51 36 64 0 135 55 8 0 68 0 100 110 72 97 28 132 0 0 15 110 164 54 36 0 12 126 1 0 0 16 24 63 203 4 32 20 24 67 0 220 8 1 24 7 24 12 63 0 0 0 36 8 3 22 0 12 91 2 0 39 65 0 23 33 5 9 35 0 6 0 4 108 4 1 4 6 2 10 13 19 0 0 9 0 0 3 6 0 247 181 82 39 11 52 0 1 20 0 30 66 3 48 0 102 0 0 
Printing Sanity2
Heartbeat CPU 0 instructions: 10000001 cycles: 2812742 heartbeat IPC: 3.55525 cumulative IPC: 3.55525 (Simulation time: 0 hr 0 min 25 sec) 
Heartbeat CPU 0 instructions: 20000002 cycles: 5627592 heartbeat IPC: 3.55259 cumulative IPC: 3.55392 (Simulation time: 0 hr 0 min 49 sec) 
Heartbeat CPU 0 instructions: 30000001 cycles: 8440309 heartbeat IPC: 3.55528 cumulative IPC: 3.55437 (Simulation time: 0 hr 1 min 15 sec) 
*** Reached end of trace for Core: 0 Repeating trace: traces/spec2k17/srv_27.champsimtrace.xz
Heartbeat CPU 0 instructions: 40000001 cycles: 11254478 heartbeat IPC: 3.55345 cumulative IPC: 3.55414 (Simulation time: 0 hr 1 min 39 sec) 
Heartbeat CPU 0 instructions: 50000000 cycles: 14067735 heartbeat IPC: 3.5546 cumulative IPC: 3.55423 (Simulation time: 0 hr 2 min 4 sec) 

Warmup complete CPU 0 instructions: 50000004 cycles: 14067736 (Simulation time: 0 hr 2 min 4 sec) 

Heartbeat CPU 0 instructions: 60000002 cycles: 27831643 heartbeat IPC: 0.726538 cumulative IPC: 0.726538 (Simulation time: 0 hr 2 min 35 sec) 
*** Reached end of trace for Core: 0 Repeating trace: traces/spec2k17/srv_27.champsimtrace.xz
Heartbeat CPU 0 instructions: 70000003 cycles: 41743058 heartbeat IPC: 0.718834 cumulative IPC: 0.722665 (Simulation time: 0 hr 3 min 7 sec) 
Heartbeat CPU 0 instructions: 80000000 cycles: 55592301 heartbeat IPC: 0.722061 cumulative IPC: 0.722464 (Simulation time: 0 hr 3 min 39 sec) 
Heartbeat CPU 0 instructions: 90000000 cycles: 69263162 heartbeat IPC: 0.731483 cumulative IPC: 0.724698 (Simulation time: 0 hr 4 min 11 sec) 
*** Reached end of trace for Core: 0 Repeating trace: traces/spec2k17/srv_27.champsimtrace.xz
Heartbeat CPU 0 instructions: 100000000 cycles: 83195337 heartbeat IPC: 0.717763 cumulative IPC: 0.7233 (Simulation time: 0 hr 4 min 43 sec) 
Heartbeat CPU 0 instructions: 110000000 cycles: 96958428 heartbeat IPC: 0.726581 cumulative IPC: 0.723845 (Simulation time: 0 hr 5 min 14 sec) 
Heartbeat CPU 0 instructions: 120000000 cycles: 110671095 heartbeat IPC: 0.729253 cumulative IPC: 0.724612 (Simulation time: 0 hr 5 min 45 sec) 
*** Reached end of trace for Core: 0 Repeating trace: traces/spec2k17/srv_27.champsimtrace.xz
Heartbeat CPU 0 instructions: 130000001 cycles: 124628396 heartbeat IPC: 0.716471 cumulative IPC: 0.723585 (Simulation time: 0 hr 6 min 17 sec) 
Heartbeat CPU 0 instructions: 140000001 cycles: 138068470 heartbeat IPC: 0.744044 cumulative IPC: 0.725802 (Simulation time: 0 hr 6 min 48 sec) 
Heartbeat CPU 0 instructions: 150000001 cycles: 152042918 heartbeat IPC: 0.715592 cumulative IPC: 0.724768 (Simulation time: 0 hr 7 min 19 sec) 
*** Reached end of trace for Core: 0 Repeating trace: traces/spec2k17/srv_27.champsimtrace.xz
Heartbeat CPU 0 instructions: 160000002 cycles: 165926555 heartbeat IPC: 0.720272 cumulative IPC: 0.724357 (Simulation time: 0 hr 7 min 50 sec) 
Heartbeat CPU 0 instructions: 170000001 cycles: 179444517 heartbeat IPC: 0.739756 cumulative IPC: 0.725616 (Simulation time: 0 hr 8 min 20 sec) 
Heartbeat CPU 0 instructions: 180000001 cycles: 193245991 heartbeat IPC: 0.72456 cumulative IPC: 0.725534 (Simulation time: 0 hr 8 min 51 sec) 
Heartbeat CPU 0 instructions: 190000002 cycles: 206781873 heartbeat IPC: 0.738777 cumulative IPC: 0.726465 (Simulation time: 0 hr 9 min 22 sec) 
*** Reached end of trace for Core: 0 Repeating trace: traces/spec2k17/srv_27.champsimtrace.xz
Heartbeat CPU 0 instructions: 200000003 cycles: 219985760 heartbeat IPC: 0.757353 cumulative IPC: 0.728445 (Simulation time: 0 hr 9 min 53 sec) 
Heartbeat CPU 0 instructions: 210000002 cycles: 233746350 heartbeat IPC: 0.726713 cumulative IPC: 0.728337 (Simulation time: 0 hr 10 min 24 sec) 
Heartbeat CPU 0 instructions: 220000000 cycles: 247041231 heartbeat IPC: 0.752169 cumulative IPC: 0.729697 (Simulation time: 0 hr 10 min 55 sec) 
*** Reached end of trace for Core: 0 Repeating trace: traces/spec2k17/srv_27.champsimtrace.xz
Heartbeat CPU 0 instructions: 230000001 cycles: 260437979 heartbeat IPC: 0.74645 cumulative IPC: 0.730608 (Simulation time: 0 hr 11 min 26 sec) 
Heartbeat CPU 0 instructions: 240000003 cycles: 274118453 heartbeat IPC: 0.730969 cumulative IPC: 0.730627 (Simulation time: 0 hr 11 min 57 sec) 
Heartbeat CPU 0 instructions: 250000000 cycles: 287583737 heartbeat IPC: 0.74265 cumulative IPC: 0.731219 (Simulation time: 0 hr 12 min 28 sec) 
Finished CPU 0 instructions: 200000002 cycles: 273516021 cumulative IPC: 0.731219 (Simulation time: 0 hr 12 min 28 sec) 

ChampSim completed all CPUs

Region of Interest Statistics

CPU 0 cumulative IPC: 0.731219 instructions: 200000002 cycles: 273516021
ITLB TOTAL     ACCESS:   32432347  HIT:   32330053  MISS:     102294  HIT %:    99.6846  MISS %:   0.315407   MPKI: 0.51147
ITLB LOAD TRANSLATION ACCESS:   32432347  HIT:   32330053  MISS:     102294  HIT %:    99.6846  MISS %:   0.315407   MPKI: 0.51147
ITLB PREFETCH  REQUESTED:          0  ISSUED:          0  USEFUL:          0  USELESS:          0
ITLB USEFUL LOAD PREFETCHES:          0 PREFETCH ISSUED TO LOWER LEVEL:          0  ACCURACY: -nan
ITLB TIMELY PREFETCHES:          0 LATE PREFETCHES: 0 DROPPED PREFETCHES: 0
ITLB PREFETCHES SAME FILL-ORIGIN LEVEL: 0 DIFFERENT FILL-ORIGIN LEVEL: 0
ITLB AVERAGE MISS LATENCY: 10.7988 cycles
ITLB RQ	ACCESS:   38229491	FORWARD:          0	MERGED:    5763637	TO_CACHE:   32465854

DTLB TOTAL     ACCESS:   40773780  HIT:   38993929  MISS:    1779851  HIT %:    95.6348  MISS %:    4.36519   MPKI: 8.89925
DTLB LOAD TRANSLATION ACCESS:   40773780  HIT:   38993929  MISS:    1779851  HIT %:    95.6348  MISS %:    4.36519   MPKI: 8.89925
DTLB PREFETCH  REQUESTED:          0  ISSUED:          0  USEFUL:          0  USELESS:          0
DTLB USEFUL LOAD PREFETCHES:          0 PREFETCH ISSUED TO LOWER LEVEL:          0  ACCURACY: -nan
DTLB TIMELY PREFETCHES:          0 LATE PREFETCHES: 0 DROPPED PREFETCHES: 0
DTLB PREFETCHES SAME FILL-ORIGIN LEVEL: 0 DIFFERENT FILL-ORIGIN LEVEL: 0
DTLB AVERAGE MISS LATENCY: 10.7477 cycles
DTLB RQ	ACCESS:   54748444	FORWARD:          0	MERGED:   13774258	TO_CACHE:   40974186

STLB TOTAL     ACCESS:   23256354  HIT:   23169983  MISS:      86371  HIT %:    99.6286  MISS %:   0.371387   MPKI: 0.431855
STLB LOAD TRANSLATION ACCESS:    1882145  HIT:    1797270  MISS:      84875  HIT %:    95.4905  MISS %:    4.50948   MPKI: 0.424375
STLB TRANSLATION FROM L1D PREFETCHER ACCESS:   21374209  HIT:   21372713  MISS:       1496  HIT %:     99.993  MISS %: 0.00699909   MPKI: 0.00748
STLB PREFETCH  REQUESTED:          0  ISSUED:          0  USEFUL:       1235  USELESS:        260
STLB USEFUL LOAD PREFETCHES:       1235 PREFETCH ISSUED TO LOWER LEVEL:          0  ACCURACY: inf
STLB TIMELY PREFETCHES:       1235 LATE PREFETCHES: 3 DROPPED PREFETCHES: 2287129
STLB PREFETCHES SAME FILL-ORIGIN LEVEL: 0 DIFFERENT FILL-ORIGIN LEVEL: 0
STLB AVERAGE MISS LATENCY: 38.4407 cycles
STLB RQ	ACCESS:   30176126	FORWARD:          0	MERGED:    4632621	TO_CACHE:   25543505

STLB Hit, L1D data hit: 0
STLB Hit, L2C data hit: 0
STLB Hit, LLC data hit: 0
STLB Hit, LLC data miss: 0
STLB STLB hints to L2: 0
L1D TOTAL     ACCESS:   80033156  HIT:   79347958  MISS:     685198  HIT %:    99.1439  MISS %:   0.856143   MPKI: 3.42599
L1D LOAD      ACCESS:   30806054  HIT:   30466955  MISS:     339099  HIT %:    98.8992  MISS %:    1.10075   MPKI: 1.69549
L1D RFO       ACCESS:   23418680  HIT:   23306940  MISS:     111740  HIT %:    99.5229  MISS %:    0.47714   MPKI: 0.5587
L1D PREFETCH  ACCESS:   25808422  HIT:   25574063  MISS:     234359  HIT %:    99.0919  MISS %:   0.908072   MPKI: 1.17179
AGUS PREFETCH L1 MISS: 0
L1D PREFETCH  REQUESTED:   59174522  ISSUED:   59161795  USEFUL:      40105  USELESS:     194305
L1D USEFUL LOAD PREFETCHES:      40105 PREFETCH ISSUED TO LOWER LEVEL:     239868  ACCURACY: 16.7196
L1D TIMELY PREFETCHES:      40105 LATE PREFETCHES: 4549 DROPPED PREFETCHES: 2287129
L1D PREFETCHES SAME FILL-ORIGIN LEVEL: 239868 DIFFERENT FILL-ORIGIN LEVEL: 0
L1D AVERAGE MISS LATENCY: 1.24366e+06 cycles
L1D RQ	ACCESS:   49497560	FORWARD:          0	MERGED:   18495905	TO_CACHE:   30880542
L1D WQ	ACCESS:   24124410	FORWARD:     246291	MERGED:     256508	TO_CACHE:   23867902
L1D PQ	ACCESS:   30867814	FORWARD:          0	MERGED:    2448655	TO_CACHE:   28293981

L1D UNIQUE REGIONS ACCESSED: 0
L1D REGIONS CONFLICTS: 0
L1D Cross Page Prefetch Requests: 4484831
L1D Same Page Prefetch Requests: 33518037
L1D ROI Sum of L1D PQ occupancy: 524390118
L1D PREFETCHES PUSHED FROM L2C: 0
L1I TOTAL     ACCESS:   38045501  HIT:   37438040  MISS:     607461  HIT %:    98.4033  MISS %:    1.59667   MPKI: 3.0373
L1I LOAD      ACCESS:   38045501  HIT:   37438040  MISS:     607461  HIT %:    98.4033  MISS %:    1.59667   MPKI: 3.0373
L1I PREFETCH  REQUESTED:          0  ISSUED:          0  USEFUL:          0  USELESS:          0
L1I USEFUL LOAD PREFETCHES:          0 PREFETCH ISSUED TO LOWER LEVEL:          0  ACCURACY: -nan
L1I TIMELY PREFETCHES:          0 LATE PREFETCHES: 0 DROPPED PREFETCHES: 0
L1I PREFETCHES SAME FILL-ORIGIN LEVEL: 0 DIFFERENT FILL-ORIGIN LEVEL: 0
L1I AVERAGE MISS LATENCY: 16.7855 cycles
L1I RQ	ACCESS:   60442381	FORWARD:          0	MERGED:   22212890	TO_CACHE:   38229491

BTB TOTAL     ACCESS:   29347733  HIT:   27692669  MISS:    1655064  HIT %:    94.3605  MISS %:     5.6395   MPKI: 8.27532
BTB BRANCH_DIRECT_JUMP	ACCESS:    2290071  HIT:    2288950  MISS:       1121
BTB BRANCH_INDIRECT	ACCESS:   12563222  HIT:   12018859  MISS:     544363
BTB BRANCH_CONDITIONAL	ACCESS:    6926945  HIT:    6925297  MISS:       1648
BTB BRANCH_DIRECT_CALL	ACCESS:    3333321  HIT:    3330170  MISS:       3151
BTB BRANCH_INDIRECT_CALL	ACCESS:     450445  HIT:     256847  MISS:     193598
BTB BRANCH_RETURN	ACCESS:    3783729  HIT:    2872546  MISS:     911183
BTB BRANCH_OTHER ACCESS:          0  HIT:          0  MISS:          0

L2C TOTAL     ACCESS:    5115333  HIT:    4479536  MISS:     635797  HIT %:    87.5708  MISS %:    12.4292   MPKI: 3.17898
L2C LOAD      ACCESS:     942000  HIT:     635236  MISS:     306764  HIT %:    67.4348  MISS %:    32.5652   MPKI: 1.53382
L2C DATA LOAD MPKI: 1.34808
L2C INSTRUCTION LOAD MPKI: 0.18574
L2C RFO       ACCESS:     110772  HIT:       9542  MISS:     101230  HIT %:    8.61409  MISS %:    91.3859   MPKI: 0.50615
L2C PREFETCH  ACCESS:     239867  HIT:      44669  MISS:     195198  HIT %:    18.6224  MISS %:    81.3776   MPKI: 0.97599
AGUS PREFETCH L1 MISS: 0
L2C DATA PREFETCH MPKI: 0.97599
L2C INSTRUCTION PREFETCH MPKI: 0
L2C WRITEBACK ACCESS:     161894  HIT:     158015  MISS:       3879  HIT %:     97.604  MISS %:    2.39601   MPKI: 0.019395
L2C LOAD TRANSLATION ACCESS:     122052  HIT:      94039  MISS:      28013  HIT %:    77.0483  MISS %:    22.9517   MPKI: 0.140065
L2C TRANSLATION FROM L1D PREFETCHER ACCESS:    3538748  HIT:    3538035  MISS:        713  HIT %:    99.9799  MISS %:  0.0201484   MPKI: 0.003565
L2C PREFETCH  REQUESTED:          0  ISSUED:          0  USEFUL:       4455  USELESS:     191540
L2C USEFUL LOAD PREFETCHES:       4455 PREFETCH ISSUED TO LOWER LEVEL:     195198  ACCURACY: 2.2823
L2C TIMELY PREFETCHES:       4455 LATE PREFETCHES: 0 DROPPED PREFETCHES: 0
L2C PREFETCHES SAME FILL-ORIGIN LEVEL: 0 DIFFERENT FILL-ORIGIN LEVEL: 0
L2C AVERAGE MISS LATENCY: 113.747 cycles
L2C RQ	ACCESS:    4713592	FORWARD:          0	MERGED:          0	TO_CACHE:    4713573
L2C WQ	ACCESS:     161894	FORWARD:         20	MERGED:          0	TO_CACHE:     161894
L2C PQ	ACCESS:     239868	FORWARD:          0	MERGED:          0	TO_CACHE:     239867

L2C Instructions Evicting Data 33890
L2C Translations Evicting Data 25397
L2C Data Evicting Data 506970
L2C Instructions Evicting Instructions 1727
L2C Translations Evicting Instructions 1974
L2C Data Evicting Instructions 33667
L2C Instructions Evicting Translations 1531
L2C Translations Evicting Translations 1355
L2C Data Evicting Translations 25407
L2C Dense regions hint from L2: 0
PSCL5 TOTAL     ACCESS:    2373501  HIT:    2373501  MISS:          0  HIT %:        100  MISS %:          0   MPKI: 0
PSCL5 LOAD TRANSLATION ACCESS:      84872  HIT:      84872  MISS:          0  HIT %:        100  MISS %:          0   MPKI: 0
PSCL5 TRANSLATION FROM L1D PREFETCHER ACCESS:    2288629  HIT:    2288629  MISS:          0  HIT %:        100  MISS %:          0   MPKI: 0
PSCL5 PREFETCH  REQUESTED:          0  ISSUED:          0  USEFUL:          0  USELESS:          0
PSCL5 USEFUL LOAD PREFETCHES:          0 PREFETCH ISSUED TO LOWER LEVEL:          0  ACCURACY: -nan
PSCL5 TIMELY PREFETCHES:          0 LATE PREFETCHES: 0 DROPPED PREFETCHES: 0
PSCL5 PREFETCHES SAME FILL-ORIGIN LEVEL: 0 DIFFERENT FILL-ORIGIN LEVEL: 0

PSCL4 TOTAL     ACCESS:    2366022  HIT:    2365895  MISS:        127  HIT %:    99.9946  MISS %: 0.00536766   MPKI: 0.000635
PSCL4 LOAD TRANSLATION ACCESS:      82797  HIT:      82670  MISS:        127  HIT %:    99.8466  MISS %:   0.153387   MPKI: 0.000635
PSCL4 TRANSLATION FROM L1D PREFETCHER ACCESS:    2283225  HIT:    2283225  MISS:          0  HIT %:        100  MISS %:          0   MPKI: 0
PSCL4 PREFETCH  REQUESTED:          0  ISSUED:          0  USEFUL:          0  USELESS:          0
PSCL4 USEFUL LOAD PREFETCHES:          0 PREFETCH ISSUED TO LOWER LEVEL:          0  ACCURACY: -nan
PSCL4 TIMELY PREFETCHES:          0 LATE PREFETCHES: 0 DROPPED PREFETCHES: 0
PSCL4 PREFETCHES SAME FILL-ORIGIN LEVEL: 0 DIFFERENT FILL-ORIGIN LEVEL: 0

PSCL3 TOTAL     ACCESS:    2366209  HIT:    2365850  MISS:        359  HIT %:    99.9848  MISS %:  0.0151719   MPKI: 0.001795
PSCL3 LOAD TRANSLATION ACCESS:      84425  HIT:      84066  MISS:        359  HIT %:    99.5748  MISS %:   0.425229   MPKI: 0.001795
PSCL3 TRANSLATION FROM L1D PREFETCHER ACCESS:    2281784  HIT:    2281784  MISS:          0  HIT %:        100  MISS %:          0   MPKI: 0
PSCL3 PREFETCH  REQUESTED:          0  ISSUED:          0  USEFUL:          0  USELESS:          0
PSCL3 USEFUL LOAD PREFETCHES:          0 PREFETCH ISSUED TO LOWER LEVEL:          0  ACCURACY: -nan
PSCL3 TIMELY PREFETCHES:          0 LATE PREFETCHES: 0 DROPPED PREFETCHES: 0
PSCL3 PREFETCHES SAME FILL-ORIGIN LEVEL: 0 DIFFERENT FILL-ORIGIN LEVEL: 0

PSCL2 TOTAL     ACCESS:    1125677  HIT:    1088882  MISS:      36795  HIT %:    96.7313  MISS %:     3.2687   MPKI: 0.183975
PSCL2 LOAD TRANSLATION ACCESS:      84973  HIT:      48178  MISS:      36795  HIT %:     56.698  MISS %:     43.302   MPKI: 0.183975
PSCL2 TRANSLATION FROM L1D PREFETCHER ACCESS:    1040704  HIT:    1040704  MISS:          0  HIT %:        100  MISS %:          0   MPKI: 0
PSCL2 PREFETCH  REQUESTED:          0  ISSUED:          0  USEFUL:          0  USELESS:          0
PSCL2 USEFUL LOAD PREFETCHES:          0 PREFETCH ISSUED TO LOWER LEVEL:          0  ACCURACY: -nan
PSCL2 TIMELY PREFETCHES:          0 LATE PREFETCHES: 0 DROPPED PREFETCHES: 0
PSCL2 PREFETCHES SAME FILL-ORIGIN LEVEL: 0 DIFFERENT FILL-ORIGIN LEVEL: 0

LLC TOTAL     ACCESS:     772688  HIT:     426334  MISS:     346354  HIT %:    55.1754  MISS %:    44.8246   MPKI: 1.73177
LLC LOAD      ACCESS:     306764  HIT:     131947  MISS:     174817  HIT %:    43.0125  MISS %:    56.9875   MPKI: 0.874085
LLC RFO       ACCESS:     101230  HIT:      67360  MISS:      33870  HIT %:    66.5415  MISS %:    33.4585   MPKI: 0.16935
LLC PREFETCH  ACCESS:     195198  HIT:      66368  MISS:     128830  HIT %:    34.0003  MISS %:    65.9997   MPKI: 0.64415
AGUS PREFETCH L1 MISS: 0
LLC WRITEBACK ACCESS:     140770  HIT:     134494  MISS:       6276  HIT %:    95.5417  MISS %:    4.45834   MPKI: 0.03138
LLC LOAD TRANSLATION ACCESS:      28013  HIT:      25692  MISS:       2321  HIT %:    91.7146  MISS %:    8.28544   MPKI: 0.011605
LLC TRANSLATION FROM L1D PREFETCHER ACCESS:        713  HIT:        473  MISS:        240  HIT %:    66.3394  MISS %:    33.6606   MPKI: 0.0012
LLC PREFETCH  REQUESTED:          0  ISSUED:          0  USEFUL:       1278  USELESS:     128880
LLC USEFUL LOAD PREFETCHES:       1278 PREFETCH ISSUED TO LOWER LEVEL:     128830  ACCURACY: 0.992005
LLC TIMELY PREFETCHES:       1278 LATE PREFETCHES: 0 DROPPED PREFETCHES: 0
LLC PREFETCHES SAME FILL-ORIGIN LEVEL: 0 DIFFERENT FILL-ORIGIN LEVEL: 0
LLC AVERAGE MISS LATENCY: 154.066 cycles
LLC RQ	ACCESS:     436720	FORWARD:          0	MERGED:          0	TO_CACHE:     436720
LLC WQ	ACCESS:     140770	FORWARD:          0	MERGED:          0	TO_CACHE:     140770
LLC PQ	ACCESS:     195198	FORWARD:          0	MERGED:          0	TO_CACHE:     195198

LLC Dense regions hint to LLC: 0

RAW hits: 2365392
Loads Generated: 51862954
Loads sent to L1D: 49497560
Stores Generated: 24124397
Stores sent to L1D: 24124410
Major fault: 0 Minor fault: 6082
Allocated PAGES: 6082
ucb ended
-----------------------------------------------------------------------------------------------------------------------------------------------------------------------------------------------------
Offsets elements: 1465996017216 1 -20 19468386 -1 -19200673 -1465996284937 1465996284938 -1465996284918 1465943456432 53155687 -1465996612138 1465996583442 -85686 -1465996500479 1465996500479 -1465996497385 1465996604928 -21727 -4200 2 -1465996579341 1465996497723 -1465996497742 1465996583460 -93032 7315 -1465996497737 1465996605280 -21857 -4070 -81615 -1465996497504 1465996497504 8058 18979796 -19200675 212672 -1465996497608 371 -1465996605265 -34 1465996583572 -95180 -1465996488392 1465996579372 -4 -1465996579367 406 1465996284530 -1465996284538 -3 -2 -397 1465996579374 -6 -1465996578985 28 -410 379 1465996611760 -1465996611740 1465996284540 -1465996284921 1465996494521 88918 28682 -28337 23376 18878433 -19200671 -1465996284904 1465996284904 -1465996284930 1465943456444 52828485 -1465996284524 1465996504396 -14359 14358 -14360 16381 -16382 16382 -1465996506577 -219 1465996506796 -1465996490194 1465996490194 -35353799 35370181 -9641329 -1465986865478 1465986865477 9641330 -9641330 9641331 -9641331 28620106 -28620104 9624947 18995158 -1466015485606 385 1466015485222 -1466015485608 1465996612139 -327200 7 19200663 -18996154 -1033 -203481 6 203476 -1465996488411 1466015485597 1466015485607 -18990966 18990967 -18873470 18873471 -1466015485592 1465996583439 345 4961 -4962 -1465996606778 -16 1465996284556 -1465996284935 33 376 1465996284526 386 -386 1465996284551 209612 -209611 400 -400 1466015485612 -1466015485227 1465996611754 -1466015485610 1466015485611 -1466015485205 -5 1466015485211 -1466015485613 1465996494542 18991070 -18873473 -327201 1465996284903 -52828486 53041305 18987855 -1466015485275 -332 1794 1465996478406 19005407 -1466015485603 -1425 1757 1465996604963 -1465996603501 -1489 -305 332 1462 -1465996481625 1425 1465996284933 196288 -1465996479427 1465996283140 195266 -1465996478403 -1465 1465943456116 -1465943456448 1465996481222 -1465996479428 1465996505032 6142 -1465996512663 1465996479896 -1465996480197 1465996605291 -1465996605295 1465996605295 -1465996606720 3219 -1794 -1462 -125094 -1465996480201 1465996481221 -1465996482646 3222 1465996283136 19200675 1465996284940 -1465996283141 1466015483815 -19005408 -1465996479826 1465996512593 -31745 -196290 -267712 -1465996017224 -1465996611760 1465996284560 -1465996284911 1465996612113 -594914 267712 -1465996284602 1466015485302 -72056798 -1465943428805 -3219 1465996603501 -1465996604963 1465943428477 -1465943428809 1466015487032 -1466015483810 1466015483809 1465996284934 -1465996283140 -1498 1465943428513 53084159 -1465996512964 328 1465996480890 124073 1465996480889 19004385 -18880311 -1465996606690 1466015487001 -1466015487030 1465996482647 -1465996480890 1465996481274 -1465996479480 -52856125 52856125 -1465996286359 1465996286358 1465996017199 -1465996284638 -292 1465996606690 30 -30 -18880310 18880311 -19004302 19004301 -1466015485273 1466015485301 -19005406 1430 -8 1465996016853 -1465996017199 1466015485274 -1466015487001 1465996482616 124074 18880310 1465996481223 -1465996479429 1465996479555 -1465996481044 -1466015485601 1465996480196 19005406 -1466015487032 1465996286359 -1465996284936 -1465996017216 -19 19200674 -18873472 -327202 1465996612119 -28696 -53126991 -1465943459174 1465996608022 -107543 -1465996497756 -85816 1465996579003 -88930 7314 -7315 -1465996490408 238 1465996583222 -85718 107543 -7314 88931 -1465996579119 1465996490189 -1465996490422 1465996583423 -77758 -8058 81616 -81764 81763 -9364 90982 -7 18906242 -18988002 18988003 -19200674 37 -406 401 -15 1465996612138 -361 1465996583784 -298863 322239 -1465996606779 1465996606778 -112638 1465996284929 -1465996284903 1465943456418 -1465943456039 -16381 -54389639 54389639 -1466015485607 1466015485608 -1465996284558 1465996489067 -204514 1465996488411 6222 -209698 -1465996284944 1466015485609 -18997189 18997190 1465996612121 -28682 4962 1465996284902 -1465996284527 -1466015485611 407 1466015485210 -117597 -209604 -1465996284934 -1465943454654 1465996495959 -1465996497749 301 -1465996479868 1465996606720 -1465996284933 1465943456448 53056520 -31746 -1465996506521 -301 1465996480197 125094 1465996479869 -1465996481626 1465996478407 19004386 1802 1466015483812 -1466015485612 1465996481226 -1465996481227 1465996284937 1466015485233 1465996512972 -228035 -267714 1465996284911 -267713 1465943428504 -1465943428504 -1730 1429 -1466015485310 1498 -1790 1465 1465996283137 53176486 -18972638 -1465996482617 -1465996481222 1466015485310 -1466015485602 -1395 -1465996480916 -1466015483812 -1465996480917 1465996480999 -1465996481299 1466015485602 -195267 -1465996286358 1465996018646 -1465996016925 -124074 -1465996481221 1465996480891 -19004257 195268 -462980 -1465996018646 -1466015485591 -298505 -18873474 1465996605266 -53148848 -1465943456437 28664 -1465996611767 1465996583201 1465996493165 81618 -1465996579122 1465996579120 25927 -25927 18987853 -18995167 -88931 18995169 -18987854 18987854 -18987855 -1465996605047 1465996284684 1465996505814 77758 -1465996583201 1465996497226 -212670 294434 1465996488392 -1465996488358 -1465996579368 1465996284939 -1465996284560 20 1465996611740 -1465996612121 89263 -345 23721 -4961 -322240 1465996284524 219872 2021 -1465996490195 1465996506577 -1465996506796 16383 -1465996506807 1465996506807 -1465996506576 -54374536 54374536 -60315416 60315415 -60315415 60315417 -1465955170190 -60315417 -1465955169805 204509 209698 -1465996494633 -203476 18873470 1465996611756 1465996284936 31 -24 -1465996284938 -18991060 18991061 -1466015485576 366 1465996284536 327202 -1465996494508 -1465996497421 1465996479895 -125095 -1465996478406 305 1492 -53023752 25604 -1465996506822 -1465996478407 -1466015483815 -1419 1465996284558 -1465996480204 1465996017225 495747 99167 1465996480848 -1465996612113 594914 -1465996017221 -53176486 1465943430234 53052412 -1465996479424 1465996479425 31746 -1465996481218 1465996284930 320361 -1465996604999 36 1727 -1757 19004384 -27 -1466015483813 -1772 1465996284912 -52588412 52588412 1465996480972 -82 1730 -1466015485609 1466015485610 -1466015485302 63 -363 267713 1465996482648 -1465996480891 1465996481017 -126 1466015485605 -1466015485300 1465996016916 363 1465996284566 -1465996480196 -18 -1465996586165 2723 -1465996612124 1465996284922 320363 -1465996604928 1465943456080 53127121 -93130 88933 -81618 -1465996490190 -93033 -1465996579339 -14 1465996583190 25928 -18906239 -294431 -1465996284567 -1465996578967 -382 411 1465996611728 -378 1465996494538 -1465996494521 381 1465996583058 23375 -1465996284929 1465996612131 -1465996612105 53048357 -1465996504396 1465996490037 18995159 -54374173 -1465961111434 -1465996284553 327195 -122686 -1466015485207 1465996488037 -1465996488420 -1465996607174 1465996612136 -1465996284526 -353 1465996494515 -209612 1466015485225 -18873471 18873472 1465996611737 -1465996479895 1466015487033 196287 -1465996480889 3 1465996478403 1465996514393 -6142 -25604 -1429 1465996480201 -1020 -1465996478404 1465996512973 -196288 -1466015485234 -379 26 1465996284913 1465996479427 1465943428809 -1465943427012 1465996511171 -1727 -19004384 196341 -464053 -1465943430234 1789 -1426 462979 8 -1465996480855 1465996480981 -464128 4 -19468373 19468372 -19468371 -1465996017242 1465996284918 -1465996583103 -3094 93131 1465996579122 1465996579338 -1465996579352 21857 -148 81764 -90975 18997218 -18906236 -81759 -17 -1465996583430 1465996606780 -1465996606774 -391 1465996494531 -1465996494126 1465996284525 18995160 -54375259 -1465961110348 -1466015485600 1466015485601 -18997190 18997188 -1466015485590 -89160 112536 -1465996607178 1465996607177 -118757 123719 410 18873473 1465996479868 -1465996480200 1465996480200 -53056520 -1465943456116 1465996506826 -1465996505032 1465996482646 -1797 32767 1466015485614 267714 1465943427012 53052413 -1466015485311 -19200672 3189 -19004385 1465996284629 1465996015427 1465943428787 -1466015485274 82 19004383 -1465996481344 300 1422 -9 19468373 -1465996017225 -298506 14 -53127023 1465996497385 85816 -88933 -1465996490189 233 1465996579119 4071 -8206 148 9364 -81616 18997219 -81617 -1465996488393 18906239 -1465996578996 1465996578989 32771 398 1465996583403 -89263 -1465996606806 1465996606766 16379 -231 -35361260 35361260 -23832386 23816003 -23816007 42811165 -42811165 -42811164 42811166 -1465972674441 -1466015485222 327200 28337 -1466015485210 -383 1466015485201 -1466015485225 -1465996284902 22 -117589 -1465996494516 53038090 3215 1465996284628 1465943454654 53148847 -98469 -1465996506494 1465996481626 -1465996479426 -228033 -1465996016846 -1465943427015 -53052412 -3222 292 1465943427015 83 19004302 -1466015485301 -19468386 1466015487031 1466015485613 -298538 327201 -6839 4070 73558 18906243 1465996578968 1465996284539 1465996497608 -1465996497211 5 -403 383 -32 -344 364 -381 298863 112639 -23721 18878432 1465961127900 15354421 20008105 -20008105 20024486 -20024486 39003263 -18978777 -18978776 20024487 -20024487 39003264 9 377 1465996284553 19200665 1465996488402 -1465996494642 1465996583457 95382 -1465996284552 -352 1465996497421 -1465996497753 1489 53050378 -1465996479869 1022 1465996479426 -18972641 -1465996512971 1465943428805 -1465943428477 -124073 -1465996514363 72056798 1700 19200672 1395 -12 12 -19468372 -1465996017240 -1465996583428 3094 -77628 107691 -18997217 85964 -1465996578995 354 -23720 1465996506576 18978776 -35356749 54335525 -56501298 56501298 56501300 -56501299 -1465958984307 -56501300 -1465958983922 -1465958984308 35 -1465996494143 1465996494508 -209605 1465996497753 1790 1020 -1466015483814 1465996283141 -1465996284940 -1465996481226 -1465996612139 -1793 92327 -1465996480195 -1430 -1466015485585 -1466015485239 1465943456452 -1465943456432 -114382 88930 1465996579353 -294429 382 -1465996497609 17 1465996612104 209600 112638 1465996506578 1465961094846 35395579 -46242144 3278637 -3278637 46258530 -46258530 3278636 42979895 1465996506808 -42979894 42979894 -61958669 42963512 61958672 -18978778 -42979895 61958671 -1465953526936 122686 -1465996611753 -377 -203482 -6222 1465996494163 -1466015485209 1466015485227 -1466015485277 -1465996284530 -1465996610341 -1764 -1465996494233 1465996497448 125095 53024774 1465996506494 -1465996506826 1466015485303 1466015485604 1465996605300 18880313 -19200676 -1465996283139 1465996479424 1465996480204 -1800 -72056797 72056797 -196287 -1465943428513 -1466015487031 1465996481304 -1465996479510 -1465996284565 -123946 -1465996481017 -19005405 1465996605299 -1465996605280 1466015485591 -18902169 1466015485358 -18906238 -212820 -1465996605299 1465996578970 -1465996505415 1465996578964 -1465996494140 1466015485574 -1466015485355 -253 -35389848 35388815 1465996284527 -1466015485223 -18991063 -1465996494515 -1465996494206 -1465996495959 1465996478404 -1466015487033 -1465996481228 1465996016846 -1721 -328 -123991 -1465996480972 1466015485239 128 19004257 -1466015485593 1465943456451 -1465996579120 -1465996497723 114858 18880312 1465996505443 -1465996505406 1465996488010 18995156 -18980798 -1465996504775 1465996490415 18978778 -221892 -1465996284939 1465996494633 -35347105 -1465961147536 1465996488034 18997189 -19200665 18 34 1466015485577 -1466015485201 1465996611752 -1466015485578 1465996284552 -1465996494148 1465996611732 -53038090 18978782 19004387 1465996480206 -1466015487034 19200676 -19004386 1465996017224 -1465996284566 
Potential of Offsets elements: 105.437 1401.41 68.4367 345.437 1680.1 553.437 658.437 320.437 97.4367 43.4367 84.4367 268.437 56.4367 52.4367 36.4367 34.4367 63.4367 70.4367 34.4367 39.4367 806.437 38.4367 78.4367 35.4367 29.4367 30.4367 36.4367 40.4367 32.4367 34.4367 36.4367 34.4367 31.4367 40.4367 33.4367 38.4367 28.4367 28.4367 40.4367 102.437 109.437 243.437 52.4367 30.4367 40.4367 84.4367 752.437 66.4367 53.4367 28.4367 28.4367 665.437 727.437 76.4367 62.4367 474.437 34.4367 135.437 58.4367 108.437 55.4367 44.4367 28.4367 28.4367 30.4367 32.4367 44.4367 44.4367 32.4367 70.4367 28.4367 28.4367 28.4367 28.4367 68.4367 28.4367 28.4367 29.4367 30.4367 29.4367 34.4367 49.4367 52.4367 162.437 46.4367 49.4367 124.437 38.4367 28.4367 28.4367 28.4367 28.4367 28.4367 28.4367 28.4367 28.4367 28.4367 28.4367 28.4367 28.4367 28.4367 49.4367 301.437 78.4367 78.4367 359.437 118.437 28.4367 307.437 28.4367 31.4367 38.4367 28.4367 153.437 28.4367 28.4367 44.4367 230.437 28.4367 28.4367 37.4367 98.4367 60.4367 62.4367 47.4367 61.4367 46.4367 34.4367 420.437 28.4367 28.4367 288.437 40.4367 28.4367 44.4367 73.4367 28.4367 28.4367 28.4367 65.4367 74.4367 161.437 58.4367 38.4367 215.437 141.437 57.4367 442.437 79.4367 58.4367 47.4367 40.4367 98.4367 28.4367 28.4367 28.4367 28.4367 76.4367 204.437 300.437 369.437 123.437 142.437 182.437 449.437 328.437 208.437 266.437 148.437 190.437 238.437 266.437 73.4367 366.437 28.4367 28.4367 124.437 28.4367 28.4367 40.4367 76.4367 28.4367 28.4367 211.437 98.4367 223.437 70.4367 83.4367 84.4367 64.4367 120.437 182.437 446.437 238.437 406.437 562.437 389.437 76.4367 194.437 220.437 106.437 84.4367 28.4367 28.4367 28.4367 28.4367 153.437 98.4367 37.4367 30.4367 32.4367 28.4367 28.4367 28.4367 55.4367 28.4367 28.4367 55.4367 28.4367 28.4367 28.4367 82.4367 48.4367 40.4367 253.437 262.437 76.4367 79.4367 73.4367 126.437 66.4367 115.437 28.4367 28.4367 79.4367 37.4367 40.4367 49.4367 133.437 108.437 78.4367 98.4367 170.437 177.437 124.437 55.4367 84.4367 126.437 92.4367 51.4367 28.4367 28.4367 28.4367 28.4367 28.4367 28.4367 28.4367 49.4367 118.437 194.437 218.437 148.437 267.437 37.4367 30.4367 154.437 92.4367 116.437 80.4367 354.437 28.4367 28.4367 244.437 106.437 77.4367 182.437 144.437 64.4367 66.4367 50.4367 39.4367 106.437 84.4367 86.4367 197.437 28.4367 28.4367 28.4367 170.437 28.4367 172.437 28.4367 48.4367 72.4367 28.4367 28.4367 40.4367 46.4367 148.437 38.4367 63.4367 38.4367 33.4367 28.4367 41.4367 31.4367 31.4367 33.4367 40.4367 36.4367 36.4367 32.4367 32.4367 44.4367 48.4367 28.4367 31.4367 43.4367 32.4367 30.4367 33.4367 30.4367 443.437 44.4367 36.4367 35.4367 28.4367 133.437 55.4367 64.4367 321.437 168.437 40.4367 32.4367 28.4367 28.4367 36.4367 35.4367 30.4367 28.4367 28.4367 40.4367 28.4367 40.4367 28.4367 28.4367 211.437 265.437 28.4367 29.4367 28.4367 40.4367 28.4367 28.4367 28.4367 389.437 52.4367 58.4367 46.4367 52.4367 61.4367 28.4367 28.4367 288.437 100.437 97.4367 38.4367 28.4367 28.4367 28.4367 145.437 78.4367 216.437 104.437 280.437 28.4367 28.4367 28.4367 58.4367 127.437 167.437 91.4367 100.437 108.437 72.4367 224.437 236.437 45.4367 223.437 205.437 145.437 66.4367 28.4367 60.4367 58.4367 28.4367 28.4367 28.4367 28.4367 34.4367 56.4367 119.437 124.437 55.4367 73.4367 106.437 85.4367 28.4367 82.4367 52.4367 53.4367 178.437 58.4367 146.437 119.437 73.4367 88.4367 68.4367 28.4367 35.4367 115.437 28.4367 28.4367 28.4367 28.4367 133.437 98.4367 43.4367 37.4367 28.4367 28.4367 28.4367 50.4367 28.4367 58.4367 43.4367 28.4367 28.4367 37.4367 68.4367 38.4367 29.4367 40.4367 37.4367 48.4367 68.4367 54.4367 118.437 67.4367 32.4367 85.4367 93.4367 94.4367 73.4367 40.4367 28.4367 41.4367 30.4367 36.4367 30.4367 28.4367 28.4367 58.4367 32.4367 78.4367 28.4367 28.4367 59.4367 54.4367 55.4367 30.4367 49.4367 34.4367 50.4367 28.4367 28.4367 28.4367 32.4367 39.4367 71.4367 73.4367 39.4367 52.4367 42.4367 28.4367 28.4367 28.4367 28.4367 28.4367 28.4367 28.4367 28.4367 28.4367 28.4367 28.4367 28.4367 28.4367 28.4367 88.4367 46.4367 28.4367 294.437 348.437 28.4367 35.4367 36.4367 97.4367 39.4367 28.4367 28.4367 32.4367 164.437 58.4367 67.4367 88.4367 217.437 52.4367 28.4367 72.4367 112.437 92.4367 96.4367 67.4367 28.4367 129.437 28.4367 28.4367 66.4367 31.4367 55.4367 28.4367 28.4367 96.4367 67.4367 43.4367 43.4367 43.4367 43.4367 89.4367 28.4367 28.4367 85.4367 152.437 108.437 236.437 168.437 184.437 178.437 67.4367 28.4367 28.4367 28.4367 52.4367 69.4367 140.437 269.437 275.437 98.4367 112.437 52.4367 28.4367 154.437 59.4367 45.4367 38.4367 207.437 106.437 28.4367 66.4367 28.4367 112.437 91.4367 36.4367 46.4367 44.4367 28.4367 28.4367 48.4367 28.4367 28.4367 31.4367 50.4367 40.4367 32.4367 36.4367 49.4367 365.437 28.4367 28.4367 28.4367 28.4367 28.4367 28.4367 28.4367 28.4367 28.4367 28.4367 28.4367 28.4367 28.4367 28.4367 28.4367 28.4367 28.4367 28.4367 28.4367 28.4367 28.4367 28.4367 28.4367 28.4367 28.4367 28.4367 28.4367 28.4367 28.4367 28.4367 28.4367 28.4367 28.4367 28.4367 28.4367 28.4367 28.4367 28.4367 91.4367 35.4367 60.4367 112.437 28.4367 106.437 830.437 34.4367 39.4367 46.4367 34.4367 118.437 115.437 43.4367 40.4367 31.4367 28.4367 37.4367 112.437 281.437 28.4367 158.437 104.437 37.4367 37.4367 108.437 119.437 28.4367 28.4367 76.4367 91.4367 97.4367 28.4367 448.437 36.4367 32.4367 28.4367 816.437 28.4367 28.4367 28.4367 28.4367 28.4367 36.4367 32.4367 40.4367 37.4367 52.4367 36.4367 32.4367 34.4367 32.4367 30.4367 52.4367 89.4367 30.4367 196.437 36.4367 30.4367 30.4367 53.4367 35.4367 32.4367 28.4367 58.4367 28.4367 28.4367 71.4367 81.4367 72.4367 46.4367 78.4367 28.4367 28.4367 65.4367 88.4367 34.4367 73.4367 79.4367 181.437 173.437 85.4367 88.4367 28.4367 28.4367 301.437 218.437 98.4367 454.437 82.4367 38.4367 28.4367 43.4367 108.437 64.4367 28.4367 49.4367 135.437 28.4367 28.4367 37.4367 226.437 50.4367 89.4367 31.4367 53.4367 193.437 514.437 28.4367 28.4367 28.4367 454.437 28.4367 28.4367 28.4367 31.4367 34.4367 34.4367 32.4367 32.4367 30.4367 32.4367 28.4367 28.4367 68.4367 28.4367 37.4367 129.437 48.4367 34.4367 61.4367 115.437 32.4367 31.4367 36.4367 34.4367 50.4367 29.4367 28.4367 28.4367 28.4367 28.4367 28.4367 28.4367 28.4367 28.4367 28.4367 28.4367 35.4367 28.4367 48.4367 136.437 86.4367 58.4367 69.4367 28.4367 169.437 38.4367 38.4367 28.4367 28.4367 28.4367 28.4367 28.4367 109.437 232.437 84.4367 34.4367 28.4367 28.4367 79.4367 48.4367 67.4367 55.4367 212.437 96.4367 29.4367 112.437 28.4367 348.437 91.4367 28.4367 28.4367 54.4367 34.4367 44.4367 37.4367 34.4367 28.4367 41.4367 30.4367 575.437 79.4367 58.4367 292.437 37.4367 71.4367 61.4367 28.4367 31.4367 34.4367 58.4367 28.4367 28.4367 28.4367 28.4367 28.4367 28.4367 28.4367 50.4367 56.4367 28.4367 28.4367 28.4367 482.437 52.4367 28.4367 28.4367 32.4367 30.4367 48.4367 34.4367 28.4367 43.4367 28.4367 28.4367 156.437 28.4367 96.4367 54.4367 40.4367 37.4367 67.4367 49.4367 73.4367 95.4367 43.4367 58.4367 63.4367 28.4367 120.437 247.437 248.437 28.4367 28.4367 30.4367 32.4367 30.4367 40.4367 36.4367 32.4367 33.4367 36.4367 32.4367 28.4367 31.4367 28.4367 28.4367 28.4367 28.4367 28.4367 28.4367 28.4367 28.4367 28.4367 28.4367 68.4367 32.4367 36.4367 28.4367 28.4367 161.437 48.4367 163.437 28.4367 28.4367 174.437 236.437 147.437 88.4367 48.4367 100.437 88.4367 60.4367 28.4367 28.4367 28.4367 36.4367 36.4367 28.4367 68.4367 44.4367 421.437 35.4367 28.4367 30.4367 28.4367 28.4367 28.4367 28.4367 28.4367 28.4367 28.4367 28.4367 28.4367 28.4367 28.4367 28.4367 28.4367 28.4367 28.4367 28.4367 45.4367 28.4367 28.4367 28.4367 40.4367 37.4367 56.4367 28.4367 28.4367 32.4367 79.4367 64.4367 92.4367 28.4367 163.437 83.4367 36.4367 28.4367 96.4367 28.4367 128.437 138.437 100.437 125.437 56.4367 160.437 28.4367 28.4367 43.4367 138.437 192.437 82.4367 64.4367 28.4367 40.4367 154.437 29.4367 28.4367 28.4367 44.4367 52.4367 91.4367 231.437 32.4367 60.4367 48.4367 52.4367 95.4367 28.4367 248.437 36.4367 29.4367 52.4367 35.4367 52.4367 40.4367 91.4367 28.4367 28.4367 28.4367 64.4367 36.4367 31.4367 50.4367 28.4367 40.4367 119.437 30.4367 28.4367 67.4367 93.4367 28.4367 51.4367 61.4367 33.4367 37.4367 63.4367 28.4367 34.4367 28.4367 32.4367 136.437 32.4367 29.4367 32.4367 34.4367 30.4367 38.4367 41.4367 47.4367 28.4367 28.4367 37.4367 28.4367 28.4367 31.4367 34.4367 28.4367 275.437 209.437 110.437 67.4367 39.4367 80.4367 28.4367 29.4367 48.4367 28.4367 58.4367 94.4367 31.4367 76.4367 28.4367 130.437 28.4367 28.4367 
rewards of Offsets elements: 77 1400 40 317 1680 525 630 292 69 15 56 240 28 24 8 6 35 42 6 11 778 10 50 7 1 2 8 12 4 6 8 6 3 12 5 10 0 0 12 74 81 215 24 2 12 56 724 38 25 0 0 637 699 48 34 446 6 107 30 80 27 16 0 0 2 4 16 16 4 42 0 0 0 0 40 0 0 1 2 1 6 21 24 134 18 21 96 10 0 0 0 0 0 0 0 0 0 0 0 0 0 21 273 50 50 331 90 0 279 0 3 10 0 125 0 0 16 202 0 0 9 70 32 34 19 33 18 6 392 0 0 260 12 0 16 45 0 0 0 37 46 133 30 10 187 113 29 414 51 30 19 12 70 0 0 0 0 48 176 272 341 95 114 154 421 300 180 238 120 162 210 238 45 338 0 0 96 0 0 12 48 0 0 183 70 195 42 55 56 36 92 154 418 210 378 534 361 48 166 192 78 56 0 0 0 0 125 70 9 2 4 0 0 0 27 0 0 27 0 0 0 54 20 12 225 234 48 51 45 98 38 87 0 0 51 9 12 21 105 80 50 70 142 149 96 27 56 98 64 23 0 0 0 0 0 0 0 21 90 166 190 120 239 9 2 126 64 88 52 326 0 0 216 78 49 154 116 36 38 22 11 78 56 58 169 0 0 0 142 0 144 0 20 44 0 0 12 18 120 10 35 10 5 0 13 3 3 5 12 8 8 4 4 16 20 0 3 15 4 2 5 2 415 16 8 7 0 105 27 36 293 140 12 4 0 0 8 7 2 0 0 12 0 12 0 0 183 237 0 1 0 12 0 0 0 361 24 30 18 24 33 0 0 260 72 69 10 0 0 0 117 50 188 76 252 0 0 0 30 99 139 63 72 80 44 196 208 17 195 177 117 38 0 32 30 0 0 0 0 6 28 91 96 27 45 78 57 0 54 24 25 150 30 118 91 45 60 40 0 7 87 0 0 0 0 105 70 15 9 0 0 0 22 0 30 15 0 0 9 40 10 1 12 9 20 40 26 90 39 4 57 65 66 45 12 0 13 2 8 2 0 0 30 4 50 0 0 31 26 27 2 21 6 22 0 0 0 4 11 43 45 11 24 14 0 0 0 0 0 0 0 0 0 0 0 0 0 0 60 18 0 266 320 0 7 8 69 11 0 0 4 136 30 39 60 189 24 0 44 84 64 68 39 0 101 0 0 38 3 27 0 0 68 39 15 15 15 15 61 0 0 57 124 80 208 140 156 150 39 0 0 0 24 41 112 241 247 70 84 24 0 126 31 17 10 179 78 0 38 0 84 63 8 18 16 0 0 20 0 0 3 22 12 4 8 21 337 0 0 0 0 0 0 0 0 0 0 0 0 0 0 0 0 0 0 0 0 0 0 0 0 0 0 0 0 0 0 0 0 0 0 0 0 0 0 63 7 32 84 0 78 802 6 11 18 6 90 87 15 12 3 0 9 84 253 0 130 76 9 9 80 91 0 0 48 63 69 0 420 8 4 0 788 0 0 0 0 0 8 4 12 9 24 8 4 6 4 2 24 61 2 168 8 2 2 25 7 4 0 30 0 0 43 53 44 18 50 0 0 37 60 6 45 51 153 145 57 60 0 0 273 190 70 426 54 10 0 15 80 36 0 21 107 0 0 9 198 22 61 3 25 165 486 0 0 0 426 0 0 0 3 6 6 4 4 2 4 0 0 40 0 9 101 20 6 33 87 4 3 8 6 22 1 0 0 0 0 0 0 0 0 0 0 7 0 20 108 58 30 41 0 141 10 10 0 0 0 0 0 81 204 56 6 0 0 51 20 39 27 184 68 1 84 0 320 63 0 0 26 6 16 9 6 0 13 2 547 51 30 264 9 43 33 0 3 6 30 0 0 0 0 0 0 0 22 28 0 0 0 454 24 0 0 4 2 20 6 0 15 0 0 128 0 68 26 12 9 39 21 45 67 15 30 35 0 92 219 220 0 0 2 4 2 12 8 4 5 8 4 0 3 0 0 0 0 0 0 0 0 0 0 40 4 8 0 0 133 20 135 0 0 146 208 119 60 20 72 60 32 0 0 0 8 8 0 40 16 393 7 0 2 0 0 0 0 0 0 0 0 0 0 0 0 0 0 0 0 17 0 0 0 12 9 28 0 0 4 51 36 64 0 135 55 8 0 68 0 100 110 72 97 28 132 0 0 15 110 164 54 36 0 12 126 1 0 0 16 24 63 203 4 32 20 24 67 0 220 8 1 24 7 24 12 63 0 0 0 36 8 3 22 0 12 91 2 0 39 65 0 23 33 5 9 35 0 6 0 4 108 4 1 4 6 2 10 13 19 0 0 9 0 0 3 6 0 247 181 82 39 11 52 0 1 20 0 30 66 3 48 0 102 0 0 Printing Sanity3
offset_index value1053
offset list size1053
reward size1053
potential size1053
-----------------------------------------------------------------------------------------------------------------------------------------------------------------------------------------------------

DRAM Statistics
 CHANNEL 0
 RQ ROW_BUFFER_HIT:      62534  ROW_BUFFER_MISS:     277521
 DBUS_CONGESTED:        232
 WQ ROW_BUFFER_HIT:       9148  ROW_BUFFER_MISS:      36353  FULL:          0

 AVG_CONGESTED_CYCLE: 4
 All warmup complete: 2
Channel 0 Bank busy for read cycles: 0
Channel 0 Bank busy for write cycles: 0
Channel 0
Rank 0
0banks busy for read cycles: 242158746
0banks busy for write cycles: 25550
1banks busy for read cycles: 11351999
1banks busy for write cycles: 4160169
2banks busy for read cycles: 12185505
2banks busy for write cycles: 1002026
3banks busy for read cycles: 804753
3banks busy for write cycles: 238969
4banks busy for read cycles: 374073
4banks busy for write cycles: 95143
5banks busy for read cycles: 277211
5banks busy for write cycles: 65011
6banks busy for read cycles: 229880
6banks busy for write cycles: 66834
7banks busy for read cycles: 151615
7banks busy for write cycles: 68041
8banks busy for read cycles: 162029
8banks busy for write cycles: 98468

CPU 0 Branch Prediction Accuracy: 99.7868% MPKI: 0.389745 Average ROB Occupancy at Mispredict: 18.5
Branch types
NOT_BRANCH: 163431817 81.7159%
BRANCH_DIRECT_JUMP: 2290071 1.14504%
BRANCH_INDIRECT: 12563222 6.28161%
BRANCH_CONDITIONAL: 14147089 7.07354%
BRANCH_DIRECT_CALL: 3333321 1.66666%
BRANCH_INDIRECT_CALL: 450445 0.225222%
BRANCH_RETURN: 3783729 1.89186%
BRANCH_OTHER: 0 0%

DRAM PAGES: 1048576
Allocated PAGES: 6082
